
 OpenBabel03252502403D

 42 45  0  0  1  0  0  0  0  0999 V2000
   37.2100   30.1050   39.9670 C   0  0  1  0  0  0  0  0  0  0  0  0
   38.1050   29.4660   39.7090 H   0  0  0  0  0  0  0  0  0  0  0  0
   36.2340   29.8220   38.9490 N   0  0  0  0  0  0  0  0  0  0  0  0
   36.7430   29.0350   37.8890 C   0  0  0  0  0  0  0  0  0  0  0  0
   35.7190   29.1790   36.7500 C   0  0  0  0  0  0  0  0  0  0  0  0
   34.5990   28.4040   37.2150 N   0  0  0  0  0  0  0  0  0  0  0  0
   34.0500   28.8800   38.4200 C   0  0  0  0  0  0  0  0  0  0  0  0
   35.0500   29.2970   39.4880 C   0  0  0  0  0  0  0  0  0  0  0  0
   36.7410   27.9610   38.1890 H   0  0  0  0  0  0  0  0  0  0  0  0
   37.7380   29.3800   37.5170 H   0  0  0  0  0  0  0  0  0  0  0  0
   35.4010   30.2260   36.6120 H   0  0  0  0  0  0  0  0  0  0  0  0
   36.1440   28.7100   35.8480 H   0  0  0  0  0  0  0  0  0  0  0  0
   34.7090   27.3850   37.1020 H   0  0  0  0  0  0  0  0  0  0  0  0
   33.4070   29.7660   38.1920 H   0  0  0  0  0  0  0  0  0  0  0  0
   33.3220   28.1230   38.8110 H   0  0  0  0  0  0  0  0  0  0  0  0
   34.4490   29.8190   40.1960 H   0  0  0  0  0  0  0  0  0  0  0  0
   35.3470   28.2530   39.8290 H   0  0  0  0  0  0  0  0  0  0  0  0
   37.0230   32.5390   39.4730 C   0  0  0  0  0  0  0  0  0  0  0  0
   37.6380   31.4650   40.0850 C   0  0  0  0  0  0  0  0  0  0  0  0
   38.7620   31.7690   40.8790 C   0  0  0  0  0  0  0  0  0  0  0  0
   39.1730   33.0700   40.9960 N   0  0  0  0  0  0  0  0  0  0  0  0
   38.5280   34.0730   40.3710 C   0  0  0  0  0  0  0  0  0  0  0  0
   37.4410   33.8060   39.6000 N   0  0  0  0  0  0  0  0  0  0  0  0
   36.1560   32.3340   38.8590 H   0  0  0  0  0  0  0  0  0  0  0  0
   39.3020   30.9800   41.3950 H   0  0  0  0  0  0  0  0  0  0  0  0
   38.9760   35.0230   40.5660 H   0  0  0  0  0  0  0  0  0  0  0  0
   36.6570   29.6580   41.3260 C   0  0  0  0  0  0  0  0  0  0  0  0
   36.3060   30.4510   41.9800 H   0  0  0  0  0  0  0  0  0  0  0  0
   35.6580   29.2650   40.9490 H   0  0  0  0  0  0  0  0  0  0  0  0
   37.4110   28.6680   42.0220 C   0  0  0  0  0  0  0  0  0  0  0  0
   38.4410   28.6170   42.9000 C   0  0  0  0  0  0  0  0  0  0  0  0
   39.0400   27.5020   43.4540 C   0  0  0  0  0  0  0  0  0  0  0  0
   38.5370   26.3380   43.0720 N   0  0  0  0  0  0  0  0  0  0  0  0
   37.5370   26.2890   42.2230 C   0  0  0  0  0  0  0  0  0  0  0  0
   37.0190   27.4060   41.7370 N   0  0  0  0  0  0  0  0  0  0  0  0
   38.7990   29.6330   43.1540 H   0  0  0  0  0  0  0  0  0  0  0  0
   39.8570   27.6850   44.1420 H   0  0  0  0  0  0  0  0  0  0  0  0
   37.0040   24.9280   41.8240 C   0  0  0  0  0  3  0  0  0  0  0  0
   38.1280   23.9470   42.0320 C   0  0  0  0  0  2  0  0  0  0  0  0
   38.5260   23.4310   40.6900 C   0  0  0  0  0  2  0  0  0  0  0  0
   37.9910   24.4920   39.7220 C   0  0  0  0  0  2  0  0  0  0  0  0
   36.6760   24.8390   40.3720 C   0  0  0  0  0  2  0  0  0  0  0  0
  1  2  1  6  0  0  0
  1 19  1  0  0  0  0
  1 27  1  0  0  0  0
  3  8  1  0  0  0  0
  3  1  1  0  0  0  0
  4  9  1  0  0  0  0
  4  3  1  0  0  0  0
  5  6  1  0  0  0  0
  5  4  1  0  0  0  0
  6  7  1  0  0  0  0
  7 15  1  0  0  0  0
  7  8  1  0  0  0  0
  8 17  1  0  0  0  0
  8 16  1  0  0  0  0
 10  4  1  0  0  0  0
 11  5  1  0  0  0  0
 12  5  1  0  0  0  0
 13  6  1  0  0  0  0
 14  7  1  0  0  0  0
 18 23  2  0  0  0  0
 18 19  1  0  0  0  0
 19 20  2  0  0  0  0
 20 21  1  0  0  0  0
 20 25  1  0  0  0  0
 22 26  1  0  0  0  0
 22 21  2  0  0  0  0
 23 22  1  0  0  0  0
 24 18  1  0  0  0  0
 27 28  1  0  0  0  0
 27 30  1  0  0  0  0
 29 27  1  0  0  0  0
 30 31  1  0  0  0  0
 31 36  1  0  0  0  0
 31 32  2  0  0  0  0
 32 37  1  0  0  0  0
 33 32  1  0  0  0  0
 34 33  2  0  0  0  0
 35 30  2  0  0  0  0
 35 34  1  0  0  0  0
 38 39  1  0  0  0  0
 38 34  1  0  0  0  0
 40 39  1  0  0  0  0
 41 42  1  0  0  0  0
 41 40  1  0  0  0  0
 42 38  1  0  0  0  0
M  END
>  <minimizedAffinity>
-5.68068075

$$$$

 OpenBabel03252502403D

 42 45  0  0  1  0  0  0  0  0999 V2000
   41.0580   31.1640   40.3240 C   0  0  1  0  0  0  0  0  0  0  0  0
   40.6320   30.2400   39.8330 H   0  0  0  0  0  0  0  0  0  0  0  0
   41.6700   31.9140   39.2600 N   0  0  0  0  0  0  0  0  0  0  0  0
   41.4030   31.3820   37.9760 C   0  0  0  0  0  0  0  0  0  0  0  0
   42.4330   32.0430   37.0430 C   0  0  0  0  0  0  0  0  0  0  0  0
   41.9550   33.3970   36.9350 N   0  0  0  0  0  0  0  0  0  0  0  0
   41.9140   34.0770   38.1660 C   0  0  0  0  0  0  0  0  0  0  0  0
   41.3760   33.2830   39.3470 C   0  0  0  0  0  0  0  0  0  0  0  0
   40.3970   31.7200   37.6360 H   0  0  0  0  0  0  0  0  0  0  0  0
   41.5320   30.2740   37.9180 H   0  0  0  0  0  0  0  0  0  0  0  0
   43.4430   32.0510   37.4840 H   0  0  0  0  0  0  0  0  0  0  0  0
   42.3690   31.5490   36.0610 H   0  0  0  0  0  0  0  0  0  0  0  0
   41.1620   33.5190   36.2860 H   0  0  0  0  0  0  0  0  0  0  0  0
   42.9500   34.4090   38.4220 H   0  0  0  0  0  0  0  0  0  0  0  0
   41.3570   35.0400   38.0300 H   0  0  0  0  0  0  0  0  0  0  0  0
   41.6390   33.8850   40.1860 H   0  0  0  0  0  0  0  0  0  0  0  0
   40.2730   33.3410   39.0750 H   0  0  0  0  0  0  0  0  0  0  0  0
   42.7080   29.6300   41.3870 C   0  0  0  0  0  0  0  0  0  0  0  0
   41.9140   30.7590   41.3980 C   0  0  0  0  0  0  0  0  0  0  0  0
   41.9790   31.5460   42.5650 C   0  0  0  0  0  0  0  0  0  0  0  0
   42.7970   31.1630   43.5930 N   0  0  0  0  0  0  0  0  0  0  0  0
   43.5480   30.0470   43.5190 C   0  0  0  0  0  0  0  0  0  0  0  0
   43.5040   29.2710   42.4040 N   0  0  0  0  0  0  0  0  0  0  0  0
   42.6790   29.0080   40.5020 H   0  0  0  0  0  0  0  0  0  0  0  0
   41.3840   32.4520   42.6520 H   0  0  0  0  0  0  0  0  0  0  0  0
   44.1270   29.8920   44.4020 H   0  0  0  0  0  0  0  0  0  0  0  0
   39.9060   31.9860   40.9170 C   0  0  0  0  0  0  0  0  0  0  0  0
   40.1320   32.5310   41.8290 H   0  0  0  0  0  0  0  0  0  0  0  0
   39.9460   32.8430   40.1680 H   0  0  0  0  0  0  0  0  0  0  0  0
   38.6310   31.3500   40.9590 C   0  0  0  0  0  0  0  0  0  0  0  0
   37.4470   31.4200   40.3060 C   0  0  0  0  0  0  0  0  0  0  0  0
   36.2990   30.6870   40.5310 C   0  0  0  0  0  0  0  0  0  0  0  0
   36.3740   29.8040   41.5150 N   0  0  0  0  0  0  0  0  0  0  0  0
   37.4820   29.6650   42.2050 C   0  0  0  0  0  0  0  0  0  0  0  0
   38.5400   30.4090   41.9250 N   0  0  0  0  0  0  0  0  0  0  0  0
   37.4770   32.1890   39.5080 H   0  0  0  0  0  0  0  0  0  0  0  0
   35.4550   30.9020   39.8880 H   0  0  0  0  0  0  0  0  0  0  0  0
   37.5070   28.6380   43.3190 C   0  0  0  0  0  3  0  0  0  0  0  0
   38.8830   28.0260   43.3100 C   0  0  0  0  0  2  0  0  0  0  0  0
   38.7340   26.5950   42.9160 C   0  0  0  0  0  2  0  0  0  0  0  0
   37.3720   26.5530   42.2150 C   0  0  0  0  0  2  0  0  0  0  0  0
   36.5750   27.5000   43.0770 C   0  0  0  0  0  2  0  0  0  0  0  0
  1  2  1  6  0  0  0
  1 27  1  0  0  0  0
  1 19  1  0  0  0  0
  3  8  1  0  0  0  0
  3  1  1  0  0  0  0
  4  3  1  0  0  0  0
  5 11  1  0  0  0  0
  5  4  1  0  0  0  0
  6  5  1  0  0  0  0
  6  7  1  0  0  0  0
  7 14  1  0  0  0  0
  7  8  1  0  0  0  0
  8 16  1  0  0  0  0
  9  4  1  0  0  0  0
 10  4  1  0  0  0  0
 12  5  1  0  0  0  0
 13  6  1  0  0  0  0
 15  7  1  0  0  0  0
 17  8  1  0  0  0  0
 18 19  2  0  0  0  0
 18 23  1  0  0  0  0
 19 20  1  0  0  0  0
 20 25  1  0  0  0  0
 20 21  2  0  0  0  0
 22 21  1  0  0  0  0
 22 26  1  0  0  0  0
 23 22  2  0  0  0  0
 24 18  1  0  0  0  0
 27 30  1  0  0  0  0
 27 28  1  0  0  0  0
 29 27  1  0  0  0  0
 30 35  1  0  0  0  0
 31 32  1  0  0  0  0
 31 30  2  0  0  0  0
 32 33  2  0  0  0  0
 33 34  1  0  0  0  0
 34 38  1  0  0  0  0
 35 34  2  0  0  0  0
 36 31  1  0  0  0  0
 37 32  1  0  0  0  0
 39 38  1  0  0  0  0
 40 39  1  0  0  0  0
 41 40  1  0  0  0  0
 41 42  1  0  0  0  0
 42 38  1  0  0  0  0
M  END
>  <minimizedAffinity>
-5.59329224

$$$$

 OpenBabel03252502403D

 42 45  0  0  1  0  0  0  0  0999 V2000
   40.6380   31.2520   39.6040 C   0  0  1  0  0  0  0  0  0  0  0  0
   40.1930   30.2260   39.4390 H   0  0  0  0  0  0  0  0  0  0  0  0
   39.5450   32.1720   39.4400 N   0  0  0  0  0  0  0  0  0  0  0  0
   38.2780   31.5420   39.4420 C   0  0  0  0  0  0  0  0  0  0  0  0
   37.3060   32.5870   38.8650 C   0  0  0  0  0  0  0  0  0  0  0  0
   37.1880   33.5480   39.9300 N   0  0  0  0  0  0  0  0  0  0  0  0
   38.4080   34.1610   40.2690 C   0  0  0  0  0  0  0  0  0  0  0  0
   39.6170   33.2400   40.3470 C   0  0  0  0  0  0  0  0  0  0  0  0
   37.9590   31.3530   40.4940 H   0  0  0  0  0  0  0  0  0  0  0  0
   38.2350   30.6270   38.8030 H   0  0  0  0  0  0  0  0  0  0  0  0
   37.7190   33.0850   37.9720 H   0  0  0  0  0  0  0  0  0  0  0  0
   36.3340   32.0940   38.7020 H   0  0  0  0  0  0  0  0  0  0  0  0
   36.5590   33.2610   40.6960 H   0  0  0  0  0  0  0  0  0  0  0  0
   38.6310   34.9520   39.5110 H   0  0  0  0  0  0  0  0  0  0  0  0
   38.2710   34.7410   41.2190 H   0  0  0  0  0  0  0  0  0  0  0  0
   40.4380   33.9170   40.3880 H   0  0  0  0  0  0  0  0  0  0  0  0
   39.3740   32.7600   41.3490 H   0  0  0  0  0  0  0  0  0  0  0  0
   42.9730   31.9460   39.0880 C   0  0  0  0  0  0  0  0  0  0  0  0
   41.7530   31.4150   38.7220 C   0  0  0  0  0  0  0  0  0  0  0  0
   41.6340   31.0130   37.3770 C   0  0  0  0  0  0  0  0  0  0  0  0
   42.6990   31.1660   36.5300 N   0  0  0  0  0  0  0  0  0  0  0  0
   43.8650   31.6930   36.9510 C   0  0  0  0  0  0  0  0  0  0  0  0
   44.0050   32.0880   38.2440 N   0  0  0  0  0  0  0  0  0  0  0  0
   43.0920   32.2620   40.1160 H   0  0  0  0  0  0  0  0  0  0  0  0
   40.7060   30.5850   37.0100 H   0  0  0  0  0  0  0  0  0  0  0  0
   44.5900   31.7420   36.1690 H   0  0  0  0  0  0  0  0  0  0  0  0
   41.1530   31.3410   41.0470 C   0  0  0  0  0  0  0  0  0  0  0  0
   42.0970   31.8610   41.1820 H   0  0  0  0  0  0  0  0  0  0  0  0
   40.4360   32.1510   41.4020 H   0  0  0  0  0  0  0  0  0  0  0  0
   41.0660   30.1500   41.8250 C   0  0  0  0  0  0  0  0  0  0  0  0
   41.8940   29.1810   42.2810 C   0  0  0  0  0  0  0  0  0  0  0  0
   41.5780   28.0700   43.0380 C   0  0  0  0  0  0  0  0  0  0  0  0
   40.2980   27.9430   43.3540 N   0  0  0  0  0  0  0  0  0  0  0  0
   39.4210   28.8350   42.9560 C   0  0  0  0  0  0  0  0  0  0  0  0
   39.8070   29.8730   42.2310 N   0  0  0  0  0  0  0  0  0  0  0  0
   42.9390   29.3660   41.9620 H   0  0  0  0  0  0  0  0  0  0  0  0
   42.4000   27.4140   43.2990 H   0  0  0  0  0  0  0  0  0  0  0  0
   37.9710   28.6370   43.3490 C   0  0  0  0  0  3  0  0  0  0  0  0
   37.8100   27.1760   43.6800 C   0  0  0  0  0  2  0  0  0  0  0  0
   36.9050   26.5820   42.6530 C   0  0  0  0  0  2  0  0  0  0  0  0
   36.9860   27.5710   41.4850 C   0  0  0  0  0  2  0  0  0  0  0  0
   37.0270   28.8860   42.2230 C   0  0  0  0  0  2  0  0  0  0  0  0
  1  2  1  6  0  0  0
  1 27  1  0  0  0  0
  3  4  1  0  0  0  0
  3  1  1  0  0  0  0
  3  8  1  0  0  0  0
  4  9  1  0  0  0  0
  5  4  1  0  0  0  0
  5  6  1  0  0  0  0
  6  7  1  0  0  0  0
  6 13  1  0  0  0  0
  7  8  1  0  0  0  0
  7 15  1  0  0  0  0
  8 16  1  0  0  0  0
  8 17  1  0  0  0  0
 10  4  1  0  0  0  0
 11  5  1  0  0  0  0
 12  5  1  0  0  0  0
 14  7  1  0  0  0  0
 18 24  1  0  0  0  0
 19 18  1  0  0  0  0
 19  1  1  0  0  0  0
 20 19  2  0  0  0  0
 21 22  2  0  0  0  0
 21 20  1  0  0  0  0
 22 23  1  0  0  0  0
 23 18  2  0  0  0  0
 25 20  1  0  0  0  0
 26 22  1  0  0  0  0
 27 28  1  0  0  0  0
 27 29  1  0  0  0  0
 27 30  1  0  0  0  0
 30 35  2  0  0  0  0
 30 31  1  0  0  0  0
 31 32  2  0  0  0  0
 32 37  1  0  0  0  0
 32 33  1  0  0  0  0
 34 38  1  0  0  0  0
 34 33  2  0  0  0  0
 35 34  1  0  0  0  0
 36 31  1  0  0  0  0
 38 39  1  0  0  0  0
 40 39  1  0  0  0  0
 41 42  1  0  0  0  0
 41 40  1  0  0  0  0
 42 38  1  0  0  0  0
M  END
>  <minimizedAffinity>
-5.50080109

$$$$

 OpenBabel03252502403D

 42 45  0  0  1  0  0  0  0  0999 V2000
   37.9870   30.5620   40.3800 C   0  0  1  0  0  0  0  0  0  0  0  0
   37.7810   30.7640   41.4720 H   0  0  0  0  0  0  0  0  0  0  0  0
   38.4750   31.8060   39.8480 N   0  0  0  0  0  0  0  0  0  0  0  0
   38.3900   32.8780   40.7660 C   0  0  0  0  0  0  0  0  0  0  0  0
   38.5620   34.1510   39.9180 C   0  0  0  0  0  0  0  0  0  0  0  0
   39.9600   34.1310   39.5760 N   0  0  0  0  0  0  0  0  0  0  0  0
   40.3380   33.0000   38.8290 C   0  0  0  0  0  0  0  0  0  0  0  0
   39.7550   31.6720   39.2910 C   0  0  0  0  0  0  0  0  0  0  0  0
   39.2580   32.8380   41.4650 H   0  0  0  0  0  0  0  0  0  0  0  0
   37.4080   32.9350   41.2950 H   0  0  0  0  0  0  0  0  0  0  0  0
   37.9630   34.1130   38.9930 H   0  0  0  0  0  0  0  0  0  0  0  0
   38.3510   35.0200   40.5620 H   0  0  0  0  0  0  0  0  0  0  0  0
   40.5880   34.4460   40.3310 H   0  0  0  0  0  0  0  0  0  0  0  0
   40.0280   33.1560   37.7660 H   0  0  0  0  0  0  0  0  0  0  0  0
   41.4560   32.9600   38.7710 H   0  0  0  0  0  0  0  0  0  0  0  0
   39.9760   31.0140   38.4830 H   0  0  0  0  0  0  0  0  0  0  0  0
   40.4290   31.5210   40.1950 H   0  0  0  0  0  0  0  0  0  0  0  0
   35.6490   29.7080   40.4700 C   0  0  0  0  0  0  0  0  0  0  0  0
   36.8020   30.0270   39.7810 C   0  0  0  0  0  0  0  0  0  0  0  0
   36.7720   29.8010   38.3910 C   0  0  0  0  0  0  0  0  0  0  0  0
   35.6400   29.2910   37.8140 N   0  0  0  0  0  0  0  0  0  0  0  0
   34.5460   29.0000   38.5440 C   0  0  0  0  0  0  0  0  0  0  0  0
   34.5490   29.2100   39.8870 N   0  0  0  0  0  0  0  0  0  0  0  0
   35.6440   29.8730   41.5390 H   0  0  0  0  0  0  0  0  0  0  0  0
   37.6400   30.0270   37.7770 H   0  0  0  0  0  0  0  0  0  0  0  0
   33.7530   28.6130   37.9430 H   0  0  0  0  0  0  0  0  0  0  0  0
   39.0940   29.5050   40.2730 C   0  0  0  0  0  0  0  0  0  0  0  0
   39.2040   29.0290   39.3030 H   0  0  0  0  0  0  0  0  0  0  0  0
   39.9740   30.2270   40.2320 H   0  0  0  0  0  0  0  0  0  0  0  0
   39.1920   28.5780   41.3520 C   0  0  0  0  0  0  0  0  0  0  0  0
   39.9180   28.4230   42.4840 C   0  0  0  0  0  0  0  0  0  0  0  0
   39.8490   27.4020   43.4120 C   0  0  0  0  0  0  0  0  0  0  0  0
   38.9570   26.4580   43.1540 N   0  0  0  0  0  0  0  0  0  0  0  0
   38.2070   26.5240   42.0780 C   0  0  0  0  0  0  0  0  0  0  0  0
   38.3360   27.5390   41.2370 N   0  0  0  0  0  0  0  0  0  0  0  0
   40.6400   29.2520   42.6120 H   0  0  0  0  0  0  0  0  0  0  0  0
   40.5260   27.4710   44.2550 H   0  0  0  0  0  0  0  0  0  0  0  0
   37.2040   25.4160   41.8370 C   0  0  0  0  0  3  0  0  0  0  0  0
   37.8930   24.1250   42.1960 C   0  0  0  0  0  2  0  0  0  0  0  0
   38.0460   23.3340   40.9400 C   0  0  0  0  0  2  0  0  0  0  0  0
   37.9200   24.3870   39.8330 C   0  0  0  0  0  2  0  0  0  0  0  0
   36.8370   25.2710   40.3990 C   0  0  0  0  0  2  0  0  0  0  0  0
  1  2  1  1  0  0  0
  3  1  1  0  0  0  0
  3  4  1  0  0  0  0
  4 10  1  0  0  0  0
  4  9  1  0  0  0  0
  5 12  1  0  0  0  0
  5  4  1  0  0  0  0
  6  5  1  0  0  0  0
  6 13  1  0  0  0  0
  7  8  1  0  0  0  0
  7  6  1  0  0  0  0
  8  3  1  0  0  0  0
  8 17  1  0  0  0  0
 11  5  1  0  0  0  0
 14  7  1  0  0  0  0
 15  7  1  0  0  0  0
 16  8  1  0  0  0  0
 18 24  1  0  0  0  0
 19  1  1  0  0  0  0
 19 18  2  0  0  0  0
 20 19  1  0  0  0  0
 21 20  2  0  0  0  0
 21 22  1  0  0  0  0
 22 23  2  0  0  0  0
 23 18  1  0  0  0  0
 25 20  1  0  0  0  0
 26 22  1  0  0  0  0
 27  1  1  0  0  0  0
 27 30  1  0  0  0  0
 28 27  1  0  0  0  0
 29 27  1  0  0  0  0
 30 31  1  0  0  0  0
 31 36  1  0  0  0  0
 31 32  2  0  0  0  0
 32 37  1  0  0  0  0
 33 32  1  0  0  0  0
 34 33  2  0  0  0  0
 35 30  2  0  0  0  0
 35 34  1  0  0  0  0
 38 34  1  0  0  0  0
 38 39  1  0  0  0  0
 40 39  1  0  0  0  0
 41 42  1  0  0  0  0
 41 40  1  0  0  0  0
 42 38  1  0  0  0  0
M  END
>  <minimizedAffinity>
-5.47977543

$$$$

 OpenBabel03252502403D

 42 45  0  0  1  0  0  0  0  0999 V2000
   37.7410   29.9180   40.3530 C   0  0  1  0  0  0  0  0  0  0  0  0
   38.1960   29.4640   39.4240 H   0  0  0  0  0  0  0  0  0  0  0  0
   38.2040   31.2790   40.3790 N   0  0  0  0  0  0  0  0  0  0  0  0
   39.4100   31.4730   39.6660 C   0  0  0  0  0  0  0  0  0  0  0  0
   39.9410   32.8400   40.1330 C   0  0  0  0  0  0  0  0  0  0  0  0
   39.0430   33.7730   39.5040 N   0  0  0  0  0  0  0  0  0  0  0  0
   37.7020   33.6150   39.9020 C   0  0  0  0  0  0  0  0  0  0  0  0
   37.2010   32.1820   39.9960 C   0  0  0  0  0  0  0  0  0  0  0  0
   39.1870   31.5700   38.5770 H   0  0  0  0  0  0  0  0  0  0  0  0
   40.1850   30.6990   39.8830 H   0  0  0  0  0  0  0  0  0  0  0  0
   39.8730   32.9560   41.2280 H   0  0  0  0  0  0  0  0  0  0  0  0
   40.9550   32.9700   39.7230 H   0  0  0  0  0  0  0  0  0  0  0  0
   39.2360   33.9440   38.5060 H   0  0  0  0  0  0  0  0  0  0  0  0
   37.5710   34.0880   40.9060 H   0  0  0  0  0  0  0  0  0  0  0  0
   37.0500   34.2360   39.2340 H   0  0  0  0  0  0  0  0  0  0  0  0
   36.2750   32.2800   40.5130 H   0  0  0  0  0  0  0  0  0  0  0  0
   37.0780   31.9930   38.8800 H   0  0  0  0  0  0  0  0  0  0  0  0
   37.3490   29.0120   42.6400 C   0  0  0  0  0  0  0  0  0  0  0  0
   38.0870   29.1010   41.4770 C   0  0  0  0  0  0  0  0  0  0  0  0
   39.2560   28.3160   41.4260 C   0  0  0  0  0  0  0  0  0  0  0  0
   39.5890   27.5320   42.4980 N   0  0  0  0  0  0  0  0  0  0  0  0
   38.8250   27.4900   43.6060 C   0  0  0  0  0  0  0  0  0  0  0  0
   37.6920   28.2370   43.6800 N   0  0  0  0  0  0  0  0  0  0  0  0
   36.4460   29.6030   42.7050 H   0  0  0  0  0  0  0  0  0  0  0  0
   39.8910   28.3300   40.5450 H   0  0  0  0  0  0  0  0  0  0  0  0
   39.2240   26.8320   44.3460 H   0  0  0  0  0  0  0  0  0  0  0  0
   36.2140   29.9120   40.2110 C   0  0  0  0  0  0  0  0  0  0  0  0
   35.6500   29.9710   41.1380 H   0  0  0  0  0  0  0  0  0  0  0  0
   36.1020   30.9870   39.8510 H   0  0  0  0  0  0  0  0  0  0  0  0
   35.6660   28.9650   39.2960 C   0  0  0  0  0  0  0  0  0  0  0  0
   34.6590   28.9010   38.3940 C   0  0  0  0  0  0  0  0  0  0  0  0
   34.2900   27.8370   37.5960 C   0  0  0  0  0  0  0  0  0  0  0  0
   35.0200   26.7410   37.7380 N   0  0  0  0  0  0  0  0  0  0  0  0
   36.0180   26.7090   38.5900 C   0  0  0  0  0  0  0  0  0  0  0  0
   36.3070   27.7750   39.3190 N   0  0  0  0  0  0  0  0  0  0  0  0
   34.1010   29.8580   38.3500 H   0  0  0  0  0  0  0  0  0  0  0  0
   33.4460   27.9980   36.9360 H   0  0  0  0  0  0  0  0  0  0  0  0
   36.8170   25.4270   38.7080 C   0  0  0  0  0  3  0  0  0  0  0  0
   35.8330   24.3350   39.0350 C   0  0  0  0  0  2  0  0  0  0  0  0
   36.1410   23.8530   40.4130 C   0  0  0  0  0  2  0  0  0  0  0  0
   36.9370   25.0080   41.0300 C   0  0  0  0  0  2  0  0  0  0  0  0
   37.7720   25.4440   39.8520 C   0  0  0  0  0  2  0  0  0  0  0  0
  1  2  1  6  0  0  0
  1  3  1  0  0  0  0
  1 19  1  0  0  0  0
  4 10  1  0  0  0  0
  4  5  1  0  0  0  0
  4  3  1  0  0  0  0
  5 11  1  0  0  0  0
  6  7  1  0  0  0  0
  6  5  1  0  0  0  0
  7  8  1  0  0  0  0
  7 14  1  0  0  0  0
  8  3  1  0  0  0  0
  8 16  1  0  0  0  0
  9  4  1  0  0  0  0
 12  5  1  0  0  0  0
 13  6  1  0  0  0  0
 15  7  1  0  0  0  0
 17  8  1  0  0  0  0
 18 24  1  0  0  0  0
 18 23  1  0  0  0  0
 19 18  2  0  0  0  0
 20 19  1  0  0  0  0
 20 21  2  0  0  0  0
 21 22  1  0  0  0  0
 22 23  2  0  0  0  0
 22 26  1  0  0  0  0
 25 20  1  0  0  0  0
 27  1  1  0  0  0  0
 27 28  1  0  0  0  0
 29 27  1  0  0  0  0
 30 35  1  0  0  0  0
 30 27  1  0  0  0  0
 31 30  2  0  0  0  0
 32 33  2  0  0  0  0
 32 31  1  0  0  0  0
 33 34  1  0  0  0  0
 34 38  1  0  0  0  0
 34 35  2  0  0  0  0
 36 31  1  0  0  0  0
 37 32  1  0  0  0  0
 38 39  1  0  0  0  0
 38 42  1  0  0  0  0
 39 40  1  0  0  0  0
 40 41  1  0  0  0  0
 42 41  1  0  0  0  0
M  END
>  <minimizedAffinity>
-5.40883303

$$$$

 OpenBabel03252502403D

 42 45  0  0  1  0  0  0  0  0999 V2000
   38.5280   27.6360   41.4990 C   0  0  1  0  0  0  0  0  0  0  0  0
   39.4180   27.6260   40.8030 H   0  0  0  0  0  0  0  0  0  0  0  0
   38.4280   26.2950   42.0090 N   0  0  0  0  0  0  0  0  0  0  0  0
   38.0250   25.3530   41.0340 C   0  0  0  0  0  0  0  0  0  0  0  0
   37.5930   24.1080   41.8280 C   0  0  0  0  0  0  0  0  0  0  0  0
   38.8420   23.5690   42.2980 N   0  0  0  0  0  0  0  0  0  0  0  0
   39.5540   24.4490   43.1320 C   0  0  0  0  0  0  0  0  0  0  0  0
   39.5930   25.9040   42.6870 C   0  0  0  0  0  0  0  0  0  0  0  0
   38.9060   25.0530   40.4200 H   0  0  0  0  0  0  0  0  0  0  0  0
   37.1600   25.6960   40.4150 H   0  0  0  0  0  0  0  0  0  0  0  0
   36.9640   24.3710   42.6950 H   0  0  0  0  0  0  0  0  0  0  0  0
   37.1250   23.4010   41.1250 H   0  0  0  0  0  0  0  0  0  0  0  0
   39.3700   23.0380   41.5880 H   0  0  0  0  0  0  0  0  0  0  0  0
   39.0990   24.4180   44.1530 H   0  0  0  0  0  0  0  0  0  0  0  0
   40.5860   24.0420   43.2940 H   0  0  0  0  0  0  0  0  0  0  0  0
   39.9690   26.4120   43.5440 H   0  0  0  0  0  0  0  0  0  0  0  0
   40.3620   25.7850   41.8570 H   0  0  0  0  0  0  0  0  0  0  0  0
   36.1900   28.4850   41.3630 C   0  0  0  0  0  0  0  0  0  0  0  0
   37.3940   28.1370   40.7830 C   0  0  0  0  0  0  0  0  0  0  0  0
   37.4760   28.3020   39.3860 C   0  0  0  0  0  0  0  0  0  0  0  0
   36.3940   28.7820   38.6990 N   0  0  0  0  0  0  0  0  0  0  0  0
   35.2460   29.1040   39.3250 C   0  0  0  0  0  0  0  0  0  0  0  0
   35.1410   28.9540   40.6720 N   0  0  0  0  0  0  0  0  0  0  0  0
   36.1000   28.3690   42.4340 H   0  0  0  0  0  0  0  0  0  0  0  0
   38.3900   28.0510   38.8550 H   0  0  0  0  0  0  0  0  0  0  0  0
   34.5040   29.4620   38.6470 H   0  0  0  0  0  0  0  0  0  0  0  0
   38.8190   28.5930   42.6620 C   0  0  0  0  0  0  0  0  0  0  0  0
   37.9570   28.9200   43.2350 H   0  0  0  0  0  0  0  0  0  0  0  0
   39.2420   27.8170   43.3790 H   0  0  0  0  0  0  0  0  0  0  0  0
   39.7350   29.6530   42.3950 C   0  0  0  0  0  0  0  0  0  0  0  0
   41.0360   29.9440   42.6290 C   0  0  0  0  0  0  0  0  0  0  0  0
   41.7370   31.0810   42.2760 C   0  0  0  0  0  0  0  0  0  0  0  0
   41.0380   31.9990   41.6260 N   0  0  0  0  0  0  0  0  0  0  0  0
   39.7690   31.8050   41.3540 C   0  0  0  0  0  0  0  0  0  0  0  0
   39.1700   30.6850   41.7290 N   0  0  0  0  0  0  0  0  0  0  0  0
   41.5350   29.1240   43.1820 H   0  0  0  0  0  0  0  0  0  0  0  0
   42.7810   31.1120   42.5620 H   0  0  0  0  0  0  0  0  0  0  0  0
   39.0230   32.8920   40.6090 C   0  0  0  0  0  3  0  0  0  0  0  0
   37.6040   32.4110   40.4500 C   0  0  0  0  0  2  0  0  0  0  0  0
   37.3660   32.1920   38.9940 C   0  0  0  0  0  2  0  0  0  0  0  0
   38.7780   32.0530   38.4140 C   0  0  0  0  0  2  0  0  0  0  0  0
   39.5230   33.0880   39.2180 C   0  0  0  0  0  2  0  0  0  0  0  0
  1  2  1  6  0  0  0
  1  3  1  0  0  0  0
  1 27  1  0  0  0  0
  3  8  1  0  0  0  0
  4  5  1  0  0  0  0
  4  3  1  0  0  0  0
  5  6  1  0  0  0  0
  5 11  1  0  0  0  0
  6  7  1  0  0  0  0
  7 15  1  0  0  0  0
  7 14  1  0  0  0  0
  8  7  1  0  0  0  0
  8 16  1  0  0  0  0
  9  4  1  0  0  0  0
 10  4  1  0  0  0  0
 12  5  1  0  0  0  0
 13  6  1  0  0  0  0
 17  8  1  0  0  0  0
 18 24  1  0  0  0  0
 19 18  1  0  0  0  0
 19  1  1  0  0  0  0
 20 19  2  0  0  0  0
 21 22  2  0  0  0  0
 21 20  1  0  0  0  0
 22 23  1  0  0  0  0
 23 18  2  0  0  0  0
 25 20  1  0  0  0  0
 26 22  1  0  0  0  0
 27 28  1  0  0  0  0
 27 29  1  0  0  0  0
 30 31  1  0  0  0  0
 30 27  1  0  0  0  0
 31 36  1  0  0  0  0
 32 37  1  0  0  0  0
 32 31  2  0  0  0  0
 33 32  1  0  0  0  0
 34 33  2  0  0  0  0
 34 35  1  0  0  0  0
 35 30  2  0  0  0  0
 38 34  1  0  0  0  0
 39 38  1  0  0  0  0
 40 39  1  0  0  0  0
 41 40  1  0  0  0  0
 41 42  1  0  0  0  0
 42 38  1  0  0  0  0
M  END
>  <minimizedAffinity>
-5.36736441

$$$$

 OpenBabel03252502403D

 42 45  0  0  1  0  0  0  0  0999 V2000
   36.9490   28.7850   38.1140 C   0  0  1  0  0  0  0  0  0  0  0  0
   37.8250   28.1010   37.9110 H   0  0  0  0  0  0  0  0  0  0  0  0
   36.3930   29.0870   36.8220 N   0  0  0  0  0  0  0  0  0  0  0  0
   37.1590   28.5710   35.7500 C   0  0  0  0  0  0  0  0  0  0  0  0
   36.6560   29.3150   34.5000 C   0  0  0  0  0  0  0  0  0  0  0  0
   35.3570   28.7380   34.2750 N   0  0  0  0  0  0  0  0  0  0  0  0
   34.4630   28.9340   35.3440 C   0  0  0  0  0  0  0  0  0  0  0  0
   35.0390   28.7320   36.7380 C   0  0  0  0  0  0  0  0  0  0  0  0
   36.9120   27.4930   35.6030 H   0  0  0  0  0  0  0  0  0  0  0  0
   38.2550   28.7560   35.8560 H   0  0  0  0  0  0  0  0  0  0  0  0
   36.5440   30.3970   34.6830 H   0  0  0  0  0  0  0  0  0  0  0  0
   37.3240   29.0620   33.6620 H   0  0  0  0  0  0  0  0  0  0  0  0
   35.3750   27.8120   33.8210 H   0  0  0  0  0  0  0  0  0  0  0  0
   34.0650   29.9760   35.2870 H   0  0  0  0  0  0  0  0  0  0  0  0
   33.5550   28.2980   35.1780 H   0  0  0  0  0  0  0  0  0  0  0  0
   34.2870   29.1380   37.3740 H   0  0  0  0  0  0  0  0  0  0  0  0
   35.0570   27.5950   36.7280 H   0  0  0  0  0  0  0  0  0  0  0  0
   38.7330   30.2100   39.1090 C   0  0  0  0  0  0  0  0  0  0  0  0
   37.4070   29.8960   38.8920 C   0  0  0  0  0  0  0  0  0  0  0  0
   36.4640   30.7540   39.4930 C   0  0  0  0  0  0  0  0  0  0  0  0
   36.8980   31.8180   40.2370 N   0  0  0  0  0  0  0  0  0  0  0  0
   38.2090   32.0700   40.4090 C   0  0  0  0  0  0  0  0  0  0  0  0
   39.1390   31.2580   39.8400 N   0  0  0  0  0  0  0  0  0  0  0  0
   39.4780   29.5690   38.6580 H   0  0  0  0  0  0  0  0  0  0  0  0
   35.3990   30.5750   39.3700 H   0  0  0  0  0  0  0  0  0  0  0  0
   38.3770   32.9350   41.0140 H   0  0  0  0  0  0  0  0  0  0  0  0
   35.9060   28.0220   38.9400 C   0  0  0  0  0  0  0  0  0  0  0  0
   35.1400   28.6280   39.4150 H   0  0  0  0  0  0  0  0  0  0  0  0
   35.3070   27.6090   38.0640 H   0  0  0  0  0  0  0  0  0  0  0  0
   36.4040   26.9970   39.7980 C   0  0  0  0  0  0  0  0  0  0  0  0
   36.5700   25.6540   39.7720 C   0  0  0  0  0  0  0  0  0  0  0  0
   37.0820   24.8350   40.7600 C   0  0  0  0  0  0  0  0  0  0  0  0
   37.4540   25.4500   41.8710 N   0  0  0  0  0  0  0  0  0  0  0  0
   37.3300   26.7520   41.9880 C   0  0  0  0  0  0  0  0  0  0  0  0
   36.8290   27.4660   40.9920 N   0  0  0  0  0  0  0  0  0  0  0  0
   36.2250   25.2270   38.8100 H   0  0  0  0  0  0  0  0  0  0  0  0
   37.1290   23.7760   40.5330 H   0  0  0  0  0  0  0  0  0  0  0  0
   37.7740   27.4000   43.2840 C   0  0  0  0  0  3  0  0  0  0  0  0
   37.4850   28.8720   43.1510 C   0  0  0  0  0  2  0  0  0  0  0  0
   38.7950   29.5860   43.1370 C   0  0  0  0  0  2  0  0  0  0  0  0
   39.7970   28.4950   42.7440 C   0  0  0  0  0  2  0  0  0  0  0  0
   39.2460   27.3110   43.4990 C   0  0  0  0  0  2  0  0  0  0  0  0
  1  2  1  6  0  0  0
  1 19  1  0  0  0  0
  1 27  1  0  0  0  0
  3  1  1  0  0  0  0
  4 10  1  0  0  0  0
  4  3  1  0  0  0  0
  5 11  1  0  0  0  0
  5  4  1  0  0  0  0
  6  5  1  0  0  0  0
  6  7  1  0  0  0  0
  7  8  1  0  0  0  0
  8  3  1  0  0  0  0
  8 16  1  0  0  0  0
  9  4  1  0  0  0  0
 12  5  1  0  0  0  0
 13  6  1  0  0  0  0
 14  7  1  0  0  0  0
 15  7  1  0  0  0  0
 17  8  1  0  0  0  0
 18 23  1  0  0  0  0
 19 18  2  0  0  0  0
 19 20  1  0  0  0  0
 20 21  2  0  0  0  0
 21 22  1  0  0  0  0
 22 26  1  0  0  0  0
 23 22  2  0  0  0  0
 24 18  1  0  0  0  0
 25 20  1  0  0  0  0
 27 28  1  0  0  0  0
 27 30  1  0  0  0  0
 29 27  1  0  0  0  0
 30 35  1  0  0  0  0
 31 30  2  0  0  0  0
 31 32  1  0  0  0  0
 32 33  2  0  0  0  0
 33 34  1  0  0  0  0
 34 38  1  0  0  0  0
 35 34  2  0  0  0  0
 36 31  1  0  0  0  0
 37 32  1  0  0  0  0
 38 42  1  0  0  0  0
 39 38  1  0  0  0  0
 40 39  1  0  0  0  0
 41 40  1  0  0  0  0
 41 42  1  0  0  0  0
M  END
>  <minimizedAffinity>
-5.34637022

$$$$

 OpenBabel03252502403D

 42 45  0  0  1  0  0  0  0  0999 V2000
   40.0360   30.3770   40.0000 C   0  0  1  0  0  0  0  0  0  0  0  0
   39.3790   29.4790   39.8020 H   0  0  0  0  0  0  0  0  0  0  0  0
   39.1930   31.5220   39.7850 N   0  0  0  0  0  0  0  0  0  0  0  0
   37.8220   31.1920   39.6660 C   0  0  0  0  0  0  0  0  0  0  0  0
   37.1580   32.4380   39.0540 C   0  0  0  0  0  0  0  0  0  0  0  0
   37.1680   33.3820   40.1400 N   0  0  0  0  0  0  0  0  0  0  0  0
   38.4610   33.7000   40.5950 C   0  0  0  0  0  0  0  0  0  0  0  0
   39.4240   32.5300   40.7330 C   0  0  0  0  0  0  0  0  0  0  0  0
   37.3820   31.0600   40.6830 H   0  0  0  0  0  0  0  0  0  0  0  0
   37.6300   30.3210   38.9930 H   0  0  0  0  0  0  0  0  0  0  0  0
   37.7450   32.8470   38.2150 H   0  0  0  0  0  0  0  0  0  0  0  0
   36.1180   32.1790   38.7990 H   0  0  0  0  0  0  0  0  0  0  0  0
   36.4300   33.2300   40.8450 H   0  0  0  0  0  0  0  0  0  0  0  0
   38.9160   34.4340   39.8860 H   0  0  0  0  0  0  0  0  0  0  0  0
   38.3770   34.2780   41.5510 H   0  0  0  0  0  0  0  0  0  0  0  0
   40.3690   33.0050   40.8620 H   0  0  0  0  0  0  0  0  0  0  0  0
   38.9980   32.0990   41.6960 H   0  0  0  0  0  0  0  0  0  0  0  0
   42.5000   30.4220   39.6370 C   0  0  0  0  0  0  0  0  0  0  0  0
   41.2060   30.2780   39.1810 C   0  0  0  0  0  0  0  0  0  0  0  0
   41.0640   30.0120   37.8040 C   0  0  0  0  0  0  0  0  0  0  0  0
   42.1800   29.9150   37.0170 N   0  0  0  0  0  0  0  0  0  0  0  0
   43.4170   30.0660   37.5260 C   0  0  0  0  0  0  0  0  0  0  0  0
   43.5810   30.3230   38.8510 N   0  0  0  0  0  0  0  0  0  0  0  0
   42.6380   30.6260   40.6910 H   0  0  0  0  0  0  0  0  0  0  0  0
   40.0780   29.8850   37.3660 H   0  0  0  0  0  0  0  0  0  0  0  0
   44.1750   29.9610   36.7810 H   0  0  0  0  0  0  0  0  0  0  0  0
   40.4800   30.3530   41.4690 C   0  0  0  0  0  0  0  0  0  0  0  0
   41.4580   30.7750   41.6770 H   0  0  0  0  0  0  0  0  0  0  0  0
   39.8210   31.2090   41.8280 H   0  0  0  0  0  0  0  0  0  0  0  0
   40.2430   29.1400   42.1810 C   0  0  0  0  0  0  0  0  0  0  0  0
   40.9120   28.3190   43.0240 C   0  0  0  0  0  0  0  0  0  0  0  0
   40.4740   27.1460   43.6070 C   0  0  0  0  0  0  0  0  0  0  0  0
   39.2380   26.7860   43.2950 N   0  0  0  0  0  0  0  0  0  0  0  0
   38.5120   27.5200   42.4850 C   0  0  0  0  0  0  0  0  0  0  0  0
   39.0080   28.6330   41.9680 N   0  0  0  0  0  0  0  0  0  0  0  0
   41.9360   28.6960   43.2190 H   0  0  0  0  0  0  0  0  0  0  0  0
   41.1760   26.6380   44.2560 H   0  0  0  0  0  0  0  0  0  0  0  0
   37.1050   27.0560   42.1670 C   0  0  0  0  0  3  0  0  0  0  0  0
   37.1110   25.5540   42.2790 C   0  0  0  0  0  2  0  0  0  0  0  0
   36.8720   25.0020   40.9130 C   0  0  0  0  0  2  0  0  0  0  0  0
   37.2490   26.1620   39.9840 C   0  0  0  0  0  2  0  0  0  0  0  0
   36.7080   27.3380   40.7570 C   0  0  0  0  0  2  0  0  0  0  0  0
  1  2  1  6  0  0  0
  1 27  1  0  0  0  0
  3  1  1  0  0  0  0
  3  8  1  0  0  0  0
  4  3  1  0  0  0  0
  4  9  1  0  0  0  0
  5  4  1  0  0  0  0
  5  6  1  0  0  0  0
  6  7  1  0  0  0  0
  6 13  1  0  0  0  0
  7  8  1  0  0  0  0
  7 15  1  0  0  0  0
  8 16  1  0  0  0  0
  8 17  1  0  0  0  0
 10  4  1  0  0  0  0
 11  5  1  0  0  0  0
 12  5  1  0  0  0  0
 14  7  1  0  0  0  0
 18 24  1  0  0  0  0
 19 18  1  0  0  0  0
 19  1  1  0  0  0  0
 20 19  2  0  0  0  0
 21 22  2  0  0  0  0
 21 20  1  0  0  0  0
 22 23  1  0  0  0  0
 23 18  2  0  0  0  0
 25 20  1  0  0  0  0
 26 22  1  0  0  0  0
 27 28  1  0  0  0  0
 27 29  1  0  0  0  0
 27 30  1  0  0  0  0
 30 31  1  0  0  0  0
 31 36  1  0  0  0  0
 31 32  2  0  0  0  0
 32 37  1  0  0  0  0
 33 32  1  0  0  0  0
 34 33  2  0  0  0  0
 35 30  2  0  0  0  0
 35 34  1  0  0  0  0
 38 39  1  0  0  0  0
 38 34  1  0  0  0  0
 40 39  1  0  0  0  0
 41 42  1  0  0  0  0
 41 40  1  0  0  0  0
 42 38  1  0  0  0  0
M  END
>  <minimizedAffinity>
-5.32809734

$$$$

 OpenBabel03252502403D

 42 45  0  0  1  0  0  0  0  0999 V2000
   40.4090   30.7580   38.3410 C   0  0  1  0  0  0  0  0  0  0  0  0
   39.4810   31.0300   37.7570 H   0  0  0  0  0  0  0  0  0  0  0  0
   40.7470   31.9380   39.0910 N   0  0  0  0  0  0  0  0  0  0  0  0
   39.6600   32.8310   39.2480 C   0  0  0  0  0  0  0  0  0  0  0  0
   40.2920   34.1610   39.6950 C   0  0  0  0  0  0  0  0  0  0  0  0
   40.6890   33.8960   41.0530 N   0  0  0  0  0  0  0  0  0  0  0  0
   41.6270   32.8550   41.1690 C   0  0  0  0  0  0  0  0  0  0  0  0
   41.3690   31.6270   40.3090 C   0  0  0  0  0  0  0  0  0  0  0  0
   39.0130   32.4840   40.0870 H   0  0  0  0  0  0  0  0  0  0  0  0
   39.0900   33.0080   38.3040 H   0  0  0  0  0  0  0  0  0  0  0  0
   41.1850   34.4130   39.1000 H   0  0  0  0  0  0  0  0  0  0  0  0
   39.5050   34.9320   39.6830 H   0  0  0  0  0  0  0  0  0  0  0  0
   39.9180   33.9340   41.7370 H   0  0  0  0  0  0  0  0  0  0  0  0
   42.6360   33.2530   40.8990 H   0  0  0  0  0  0  0  0  0  0  0  0
   41.7360   32.5830   42.2510 H   0  0  0  0  0  0  0  0  0  0  0  0
   42.2830   31.0840   40.3760 H   0  0  0  0  0  0  0  0  0  0  0  0
   40.5300   31.1800   40.9340 H   0  0  0  0  0  0  0  0  0  0  0  0
   41.5230   28.9550   37.0340 C   0  0  0  0  0  0  0  0  0  0  0  0
   41.3980   30.2710   37.4290 C   0  0  0  0  0  0  0  0  0  0  0  0
   42.3270   31.1730   36.8710 C   0  0  0  0  0  0  0  0  0  0  0  0
   43.2740   30.7120   35.9970 N   0  0  0  0  0  0  0  0  0  0  0  0
   43.3420   29.4120   35.6520 C   0  0  0  0  0  0  0  0  0  0  0  0
   42.4570   28.5220   36.1750 N   0  0  0  0  0  0  0  0  0  0  0  0
   40.8220   28.2410   37.4450 H   0  0  0  0  0  0  0  0  0  0  0  0
   42.2950   32.2280   37.1320 H   0  0  0  0  0  0  0  0  0  0  0  0
   44.1350   29.2190   34.9630 H   0  0  0  0  0  0  0  0  0  0  0  0
   40.0650   29.6270   39.3190 C   0  0  0  0  0  0  0  0  0  0  0  0
   40.6850   28.7380   39.2540 H   0  0  0  0  0  0  0  0  0  0  0  0
   40.5130   30.1060   40.2500 H   0  0  0  0  0  0  0  0  0  0  0  0
   38.6800   29.3200   39.4710 C   0  0  0  0  0  0  0  0  0  0  0  0
   37.5450   29.3940   38.7380 C   0  0  0  0  0  0  0  0  0  0  0  0
   36.2630   29.0370   39.1050 C   0  0  0  0  0  0  0  0  0  0  0  0
   36.1360   28.5630   40.3350 N   0  0  0  0  0  0  0  0  0  0  0  0
   37.1820   28.4550   41.1210 C   0  0  0  0  0  0  0  0  0  0  0  0
   38.3800   28.8200   40.6900 N   0  0  0  0  0  0  0  0  0  0  0  0
   37.7470   29.8080   37.7300 H   0  0  0  0  0  0  0  0  0  0  0  0
   35.4900   29.1790   38.3590 H   0  0  0  0  0  0  0  0  0  0  0  0
   36.9740   27.9060   42.5170 C   0  0  0  0  0  3  0  0  0  0  0  0
   38.1880   28.2950   43.3180 C   0  0  0  0  0  2  0  0  0  0  0  0
   38.9160   27.0400   43.6680 C   0  0  0  0  0  2  0  0  0  0  0  0
   38.4010   26.0270   42.6400 C   0  0  0  0  0  2  0  0  0  0  0  0
   36.9470   26.4150   42.5540 C   0  0  0  0  0  2  0  0  0  0  0  0
  1  2  1  6  0  0  0
  1  3  1  0  0  0  0
  1 27  1  0  0  0  0
  3  4  1  0  0  0  0
  3  8  1  0  0  0  0
  4  5  1  0  0  0  0
  4  9  1  0  0  0  0
  5  6  1  0  0  0  0
  6  7  1  0  0  0  0
  6 13  1  0  0  0  0
  7 15  1  0  0  0  0
  8 16  1  0  0  0  0
  8 17  1  0  0  0  0
  8  7  1  0  0  0  0
 10  4  1  0  0  0  0
 11  5  1  0  0  0  0
 12  5  1  0  0  0  0
 14  7  1  0  0  0  0
 18 19  1  0  0  0  0
 18 24  1  0  0  0  0
 19  1  1  0  0  0  0
 20 25  1  0  0  0  0
 20 19  2  0  0  0  0
 21 20  1  0  0  0  0
 22 21  2  0  0  0  0
 22 23  1  0  0  0  0
 23 18  2  0  0  0  0
 26 22  1  0  0  0  0
 27 30  1  0  0  0  0
 27 29  1  0  0  0  0
 28 27  1  0  0  0  0
 30 35  1  0  0  0  0
 31 32  1  0  0  0  0
 31 30  2  0  0  0  0
 32 33  2  0  0  0  0
 33 34  1  0  0  0  0
 34 38  1  0  0  0  0
 35 34  2  0  0  0  0
 36 31  1  0  0  0  0
 37 32  1  0  0  0  0
 38 42  1  0  0  0  0
 38 39  1  0  0  0  0
 39 40  1  0  0  0  0
 41 40  1  0  0  0  0
 42 41  1  0  0  0  0
M  END
>  <minimizedAffinity>
-5.24337149

$$$$
