
 OpenBabel03252509303D

 17 18  0  0  0  0  0  0  0  0999 V2000
   44.5350   36.0700   44.4580 C   0  0  0  0  0  0  0  0  0  0  0  0
   45.3620   35.8590   43.3270 C   0  0  0  0  0  0  0  0  0  0  0  0
   46.2150   34.7550   43.3690 C   0  0  0  0  0  0  0  0  0  0  0  0
   46.2140   33.9450   44.4770 N   0  0  0  0  0  0  0  0  0  0  0  0
   45.3950   34.2060   45.5270 C   0  0  0  0  0  0  0  0  0  0  0  0
   44.5670   35.2540   45.5200 N   0  0  0  0  0  0  0  0  0  0  0  0
   43.8660   36.9110   44.4600 H   0  0  0  0  0  0  0  0  0  0  0  0
   45.3150   36.5350   42.4840 H   0  0  0  0  0  0  0  0  0  0  0  0
   45.4820   33.5010   46.3430 H   0  0  0  0  0  0  0  0  0  0  0  0
   47.0740   34.5240   42.2080 C   0  0  0  0  0  0  0  0  0  0  0  0
   47.2280   35.4540   41.6400 H   0  0  0  0  0  0  0  0  0  0  0  0
   46.6690   33.6900   41.5820 H   0  0  0  0  0  0  0  0  0  0  0  0
   48.4080   34.0410   42.7350 C   0  0  0  0  0  3  0  0  0  0  0  0
   48.7590   32.6890   42.1720 C   0  0  0  0  0  2  0  0  0  0  0  0
   50.1900   32.7770   41.6740 C   0  0  0  0  0  2  0  0  0  0  0  0
   50.7200   33.9510   42.5100 C   0  0  0  0  0  2  0  0  0  0  0  0
   49.5520   34.9020   42.3030 C   0  0  0  0  0  2  0  0  0  0  0  0
  1  7  1  0  0  0  0
  1  6  1  0  0  0  0
  2  3  1  0  0  0  0
  2  1  2  0  0  0  0
  3  4  2  0  0  0  0
  4  5  1  0  0  0  0
  5  9  1  0  0  0  0
  6  5  2  0  0  0  0
  8  2  1  0  0  0  0
 10 13  1  0  0  0  0
 10  3  1  0  0  0  0
 11 10  1  0  0  0  0
 12 10  1  0  0  0  0
 14 13  1  0  0  0  0
 15 14  1  0  0  0  0
 15 16  1  0  0  0  0
 17 16  1  0  0  0  0
 17 13  1  0  0  0  0
M  END
>  <minimizedAffinity>
-4.4181428

>  <minimizedRMSD>
0.886700571

$$$$
