
 OpenBabel03242520173D

 21 23  0  0  0  0  0  0  0  0999 V2000
   37.8070   31.3270   40.8340 C   0  0  0  0  0  0  0  0  0  0  0  0
   37.3300   30.1800   41.5000 C   0  0  0  0  0  0  0  0  0  0  0  0
   38.1290   29.5900   42.5030 C   0  0  0  0  0  0  0  0  0  0  0  0
   39.3310   30.1800   42.7660 N   0  0  0  0  0  0  0  0  0  0  0  0
   39.7440   31.2850   42.0950 C   0  0  0  0  0  0  0  0  0  0  0  0
   39.0080   31.8550   41.1490 N   0  0  0  0  0  0  0  0  0  0  0  0
   36.3800   29.7270   41.2800 H   0  0  0  0  0  0  0  0  0  0  0  0
   40.7270   31.6790   42.3840 H   0  0  0  0  0  0  0  0  0  0  0  0
   36.9460   31.9110   39.7840 C   0  0  0  0  0  0  0  0  0  0  0  0
   37.2680   33.3940   39.5000 C   0  0  0  0  0  0  0  0  0  0  0  0
   37.4580   32.3230   38.4930 C   0  0  0  0  0  0  0  0  0  0  0  0
   35.8730   31.6640   39.9160 H   0  0  0  0  0  0  0  0  0  0  0  0
   38.1320   33.8490   40.0220 H   0  0  0  0  0  0  0  0  0  0  0  0
   36.3810   34.0340   39.5180 H   0  0  0  0  0  0  0  0  0  0  0  0
   36.7280   32.3650   37.6490 H   0  0  0  0  0  0  0  0  0  0  0  0
   38.5050   32.1520   38.1610 H   0  0  0  0  0  0  0  0  0  0  0  0
   37.7130   28.3810   43.2600 C   0  0  0  0  0  3  0  0  0  0  0  0
   38.8460   27.4090   43.4420 C   0  0  0  0  0  2  0  0  0  0  0  0
   38.4860   26.1740   42.6520 C   0  0  0  0  0  2  0  0  0  0  0  0
   36.9880   26.1620   42.7590 C   0  0  0  0  0  2  0  0  0  0  0  0
   36.6120   27.6160   42.5680 C   0  0  0  0  0  2  0  0  0  0  0  0
  1  6  2  0  0  0  0
  1  2  1  0  0  0  0
  2  3  2  0  0  0  0
  3  4  1  0  0  0  0
  3 17  1  0  0  0  0
  5  8  1  0  0  0  0
  5  4  2  0  0  0  0
  6  5  1  0  0  0  0
  7  2  1  0  0  0  0
  9 12  1  0  0  0  0
  9  1  1  0  0  0  0
 10 14  1  0  0  0  0
 10  9  1  0  0  0  0
 10 13  1  0  0  0  0
 11 10  1  0  0  0  0
 11  9  1  0  0  0  0
 15 11  1  0  0  0  0
 16 11  1  0  0  0  0
 17 18  1  0  0  0  0
 19 20  1  0  0  0  0
 19 18  1  0  0  0  0
 21 20  1  0  0  0  0
 21 17  1  0  0  0  0
M  END
>  <minimizedAffinity>
-4.86249971

$$$$

 OpenBabel03242520173D

 21 23  0  0  0  0  0  0  0  0999 V2000
   37.1720   26.8580   42.0490 C   0  0  0  0  0  0  0  0  0  0  0  0
   36.5930   27.8140   41.1900 C   0  0  0  0  0  0  0  0  0  0  0  0
   36.7390   29.1850   41.4970 C   0  0  0  0  0  0  0  0  0  0  0  0
   37.4420   29.4970   42.6220 N   0  0  0  0  0  0  0  0  0  0  0  0
   37.9800   28.5380   43.4170 C   0  0  0  0  0  0  0  0  0  0  0  0
   37.8560   27.2440   43.1470 N   0  0  0  0  0  0  0  0  0  0  0  0
   36.0400   27.5500   40.3070 H   0  0  0  0  0  0  0  0  0  0  0  0
   38.5270   28.8980   44.2980 H   0  0  0  0  0  0  0  0  0  0  0  0
   36.9910   25.4330   41.7010 C   0  0  0  0  0  0  0  0  0  0  0  0
   38.1420   24.8760   40.8350 C   0  0  0  0  0  0  0  0  0  0  0  0
   37.8580   24.3890   42.2060 C   0  0  0  0  0  0  0  0  0  0  0  0
   35.9650   25.1990   41.3520 H   0  0  0  0  0  0  0  0  0  0  0  0
   39.0070   25.5370   40.6300 H   0  0  0  0  0  0  0  0  0  0  0  0
   37.7890   24.3550   39.9400 H   0  0  0  0  0  0  0  0  0  0  0  0
   37.4390   23.3540   42.2370 H   0  0  0  0  0  0  0  0  0  0  0  0
   38.6600   24.5620   42.9560 H   0  0  0  0  0  0  0  0  0  0  0  0
   36.1650   30.2650   40.6540 C   0  0  0  0  0  3  0  0  0  0  0  0
   36.0650   29.8630   39.2080 C   0  0  0  0  0  2  0  0  0  0  0  0
   37.0230   30.7450   38.4460 C   0  0  0  0  0  2  0  0  0  0  0  0
   36.9830   32.0140   39.2480 C   0  0  0  0  0  2  0  0  0  0  0  0
   36.9970   31.5240   40.6800 C   0  0  0  0  0  2  0  0  0  0  0  0
  1  6  1  0  0  0  0
  2  3  1  0  0  0  0
  2  1  2  0  0  0  0
  3  4  2  0  0  0  0
  4  5  1  0  0  0  0
  5  8  1  0  0  0  0
  6  5  2  0  0  0  0
  7  2  1  0  0  0  0
  9  1  1  0  0  0  0
  9 11  1  0  0  0  0
 10  9  1  0  0  0  0
 10 11  1  0  0  0  0
 11 15  1  0  0  0  0
 11 16  1  0  0  0  0
 12  9  1  0  0  0  0
 13 10  1  0  0  0  0
 14 10  1  0  0  0  0
 17 21  1  0  0  0  0
 17  3  1  0  0  0  0
 18 17  1  0  0  0  0
 19 18  1  0  0  0  0
 19 20  1  0  0  0  0
 20 21  1  0  0  0  0
M  END
>  <minimizedAffinity>
-4.59457445

$$$$

 OpenBabel03242520173D

 21 23  0  0  0  0  0  0  0  0999 V2000
   36.4460   28.9710   41.3470 C   0  0  0  0  0  0  0  0  0  0  0  0
   36.4520   27.5610   41.3880 C   0  0  0  0  0  0  0  0  0  0  0  0
   37.3230   26.9080   42.2880 C   0  0  0  0  0  0  0  0  0  0  0  0
   38.1130   27.6970   43.0710 N   0  0  0  0  0  0  0  0  0  0  0  0
   38.0690   29.0520   42.9920 C   0  0  0  0  0  0  0  0  0  0  0  0
   37.2580   29.6850   42.1550 N   0  0  0  0  0  0  0  0  0  0  0  0
   35.8230   26.9540   40.7630 H   0  0  0  0  0  0  0  0  0  0  0  0
   38.7460   29.5910   43.6660 H   0  0  0  0  0  0  0  0  0  0  0  0
   35.5280   29.6190   40.3870 C   0  0  0  0  0  0  0  0  0  0  0  0
   36.1880   29.8950   39.0190 C   0  0  0  0  0  0  0  0  0  0  0  0
   35.0530   28.9550   39.1900 C   0  0  0  0  0  0  0  0  0  0  0  0
   34.9610   30.4620   40.8310 H   0  0  0  0  0  0  0  0  0  0  0  0
   37.2170   29.5230   38.8530 H   0  0  0  0  0  0  0  0  0  0  0  0
   36.0520   30.9260   38.6800 H   0  0  0  0  0  0  0  0  0  0  0  0
   34.0940   29.3250   38.7530 H   0  0  0  0  0  0  0  0  0  0  0  0
   35.2670   27.8910   38.9480 H   0  0  0  0  0  0  0  0  0  0  0  0
   37.4010   25.4290   42.4040 C   0  0  0  0  0  3  0  0  0  0  0  0
   38.8220   24.9410   42.4830 C   0  0  0  0  0  2  0  0  0  0  0  0
   39.0780   24.1490   41.2240 C   0  0  0  0  0  2  0  0  0  0  0  0
   37.7220   23.5700   40.9400 C   0  0  0  0  0  2  0  0  0  0  0  0
   36.7820   24.7220   41.2230 C   0  0  0  0  0  2  0  0  0  0  0  0
  1  2  2  0  0  0  0
  1  6  1  0  0  0  0
  2  3  1  0  0  0  0
  3 17  1  0  0  0  0
  3  4  2  0  0  0  0
  5  4  1  0  0  0  0
  5  8  1  0  0  0  0
  6  5  2  0  0  0  0
  7  2  1  0  0  0  0
  9 12  1  0  0  0  0
  9  1  1  0  0  0  0
 10 11  1  0  0  0  0
 10  9  1  0  0  0  0
 11  9  1  0  0  0  0
 13 10  1  0  0  0  0
 14 10  1  0  0  0  0
 15 11  1  0  0  0  0
 16 11  1  0  0  0  0
 17 18  1  0  0  0  0
 19 18  1  0  0  0  0
 20 21  1  0  0  0  0
 20 19  1  0  0  0  0
 21 17  1  0  0  0  0
M  END
>  <minimizedAffinity>
-4.43815613

$$$$

 OpenBabel03242520173D

 21 23  0  0  0  0  0  0  0  0999 V2000
   35.7320   29.5530   39.3760 C   0  0  0  0  0  0  0  0  0  0  0  0
   35.9390   28.4430   40.2190 C   0  0  0  0  0  0  0  0  0  0  0  0
   36.5230   28.6480   41.4880 C   0  0  0  0  0  0  0  0  0  0  0  0
   36.8530   29.9290   41.8190 N   0  0  0  0  0  0  0  0  0  0  0  0
   36.6340   30.9650   40.9700 C   0  0  0  0  0  0  0  0  0  0  0  0
   36.0860   30.7940   39.7730 N   0  0  0  0  0  0  0  0  0  0  0  0
   35.6730   27.4390   39.9420 H   0  0  0  0  0  0  0  0  0  0  0  0
   36.9370   31.9540   41.3350 H   0  0  0  0  0  0  0  0  0  0  0  0
   35.1270   29.2980   38.0520 C   0  0  0  0  0  0  0  0  0  0  0  0
   36.1510   29.3730   36.8990 C   0  0  0  0  0  0  0  0  0  0  0  0
   35.4390   28.1240   37.2630 C   0  0  0  0  0  0  0  0  0  0  0  0
   34.1790   29.8510   37.8950 H   0  0  0  0  0  0  0  0  0  0  0  0
   37.2180   29.5200   37.1580 H   0  0  0  0  0  0  0  0  0  0  0  0
   35.8240   30.0190   36.0790 H   0  0  0  0  0  0  0  0  0  0  0  0
   34.6800   27.8040   36.5090 H   0  0  0  0  0  0  0  0  0  0  0  0
   36.0810   27.2910   37.6240 H   0  0  0  0  0  0  0  0  0  0  0  0
   36.7800   27.5420   42.4460 C   0  0  0  0  0  3  0  0  0  0  0  0
   37.5750   27.9990   43.6390 C   0  0  0  0  0  2  0  0  0  0  0  0
   38.9100   27.2980   43.5630 C   0  0  0  0  0  2  0  0  0  0  0  0
   38.5400   25.9970   42.9100 C   0  0  0  0  0  2  0  0  0  0  0  0
   37.5660   26.4120   41.8290 C   0  0  0  0  0  2  0  0  0  0  0  0
  1  6  2  0  0  0  0
  1  2  1  0  0  0  0
  2  3  2  0  0  0  0
  3  4  1  0  0  0  0
  3 17  1  0  0  0  0
  5  8  1  0  0  0  0
  5  4  2  0  0  0  0
  6  5  1  0  0  0  0
  7  2  1  0  0  0  0
  9  1  1  0  0  0  0
 10 13  1  0  0  0  0
 10 11  1  0  0  0  0
 10  9  1  0  0  0  0
 11 16  1  0  0  0  0
 11  9  1  0  0  0  0
 12  9  1  0  0  0  0
 14 10  1  0  0  0  0
 15 11  1  0  0  0  0
 17 18  1  0  0  0  0
 19 18  1  0  0  0  0
 20 19  1  0  0  0  0
 21 17  1  0  0  0  0
 21 20  1  0  0  0  0
M  END
>  <minimizedAffinity>
-4.40995169

$$$$

 OpenBabel03242520173D

 21 23  0  0  0  0  0  0  0  0999 V2000
   37.0860   28.8010   42.2240 C   0  0  0  0  0  0  0  0  0  0  0  0
   37.5810   30.0610   41.8340 C   0  0  0  0  0  0  0  0  0  0  0  0
   36.9040   30.7780   40.8230 C   0  0  0  0  0  0  0  0  0  0  0  0
   35.7970   30.1930   40.2830 N   0  0  0  0  0  0  0  0  0  0  0  0
   35.3610   28.9750   40.6940 C   0  0  0  0  0  0  0  0  0  0  0  0
   35.9820   28.2860   41.6420 N   0  0  0  0  0  0  0  0  0  0  0  0
   38.4560   30.5080   42.2700 H   0  0  0  0  0  0  0  0  0  0  0  0
   34.4610   28.5960   40.1930 H   0  0  0  0  0  0  0  0  0  0  0  0
   37.8260   28.0770   43.2780 C   0  0  0  0  0  0  0  0  0  0  0  0
   38.4860   26.7780   42.7650 C   0  0  0  0  0  0  0  0  0  0  0  0
   39.2670   27.9350   43.2650 C   0  0  0  0  0  0  0  0  0  0  0  0
   37.2560   27.9890   44.2250 H   0  0  0  0  0  0  0  0  0  0  0  0
   38.4240   26.5560   41.6820 H   0  0  0  0  0  0  0  0  0  0  0  0
   38.2580   25.9090   43.3880 H   0  0  0  0  0  0  0  0  0  0  0  0
   39.7670   27.7490   44.2470 H   0  0  0  0  0  0  0  0  0  0  0  0
   39.9290   28.4290   42.5210 H   0  0  0  0  0  0  0  0  0  0  0  0
   37.3490   32.1130   40.3440 C   0  0  0  0  0  3  0  0  0  0  0  0
   37.4860   32.1610   38.8470 C   0  0  0  0  0  2  0  0  0  0  0  0
   38.9540   32.3500   38.5530 C   0  0  0  0  0  2  0  0  0  0  0  0
   39.4050   33.1610   39.7340 C   0  0  0  0  0  2  0  0  0  0  0  0
   38.6950   32.5080   40.9000 C   0  0  0  0  0  2  0  0  0  0  0  0
  1  9  1  0  0  0  0
  2  1  1  0  0  0  0
  2  7  1  0  0  0  0
  3  2  2  0  0  0  0
  4  5  2  0  0  0  0
  4  3  1  0  0  0  0
  5  6  1  0  0  0  0
  6  1  2  0  0  0  0
  8  5  1  0  0  0  0
  9 12  1  0  0  0  0
 10 11  1  0  0  0  0
 10  9  1  0  0  0  0
 10 14  1  0  0  0  0
 11  9  1  0  0  0  0
 11 15  1  0  0  0  0
 13 10  1  0  0  0  0
 16 11  1  0  0  0  0
 17  3  1  0  0  0  0
 17 21  1  0  0  0  0
 18 17  1  0  0  0  0
 19 18  1  0  0  0  0
 19 20  1  0  0  0  0
 20 21  1  0  0  0  0
M  END
>  <minimizedAffinity>
-4.37039328

$$$$

 OpenBabel03242520173D

 21 23  0  0  0  0  0  0  0  0999 V2000
   37.8340   31.6360   40.1330 C   0  0  0  0  0  0  0  0  0  0  0  0
   38.5360   31.0410   41.2020 C   0  0  0  0  0  0  0  0  0  0  0  0
   37.9310   29.9780   41.9080 C   0  0  0  0  0  0  0  0  0  0  0  0
   36.6880   29.5910   41.5030 N   0  0  0  0  0  0  0  0  0  0  0  0
   36.0550   30.1970   40.4670 C   0  0  0  0  0  0  0  0  0  0  0  0
   36.6050   31.1970   39.7900 N   0  0  0  0  0  0  0  0  0  0  0  0
   39.5150   31.3590   41.5090 H   0  0  0  0  0  0  0  0  0  0  0  0
   35.0580   29.8090   40.2240 H   0  0  0  0  0  0  0  0  0  0  0  0
   38.4950   32.7500   39.4230 C   0  0  0  0  0  0  0  0  0  0  0  0
   38.0130   34.1370   39.9020 C   0  0  0  0  0  0  0  0  0  0  0  0
   39.4070   33.6640   40.0800 C   0  0  0  0  0  0  0  0  0  0  0  0
   38.5330   32.6030   38.3250 H   0  0  0  0  0  0  0  0  0  0  0  0
   37.3100   34.1770   40.7570 H   0  0  0  0  0  0  0  0  0  0  0  0
   37.7150   34.7920   39.0790 H   0  0  0  0  0  0  0  0  0  0  0  0
   40.1470   34.1940   39.4320 H   0  0  0  0  0  0  0  0  0  0  0  0
   39.7470   33.5470   41.1320 H   0  0  0  0  0  0  0  0  0  0  0  0
   38.5910   29.2880   43.0470 C   0  0  0  0  0  3  0  0  0  0  0  0
   40.0420   29.0030   42.7730 C   0  0  0  0  0  2  0  0  0  0  0  0
   40.1810   27.5020   42.7020 C   0  0  0  0  0  2  0  0  0  0  0  0
   39.1250   27.0450   43.6670 C   0  0  0  0  0  2  0  0  0  0  0  0
   37.9560   27.9570   43.3640 C   0  0  0  0  0  2  0  0  0  0  0  0
  1  2  1  0  0  0  0
  2  7  1  0  0  0  0
  2  3  2  0  0  0  0
  3 17  1  0  0  0  0
  4  3  1  0  0  0  0
  5  4  2  0  0  0  0
  6  1  2  0  0  0  0
  6  5  1  0  0  0  0
  8  5  1  0  0  0  0
  9 10  1  0  0  0  0
  9 11  1  0  0  0  0
  9  1  1  0  0  0  0
 10 11  1  0  0  0  0
 10 13  1  0  0  0  0
 11 16  1  0  0  0  0
 12  9  1  0  0  0  0
 14 10  1  0  0  0  0
 15 11  1  0  0  0  0
 17 21  1  0  0  0  0
 18 17  1  0  0  0  0
 19 18  1  0  0  0  0
 19 20  1  0  0  0  0
 21 20  1  0  0  0  0
M  END
>  <minimizedAffinity>
-4.32314205

$$$$

 OpenBabel03242520173D

 21 23  0  0  0  0  0  0  0  0999 V2000
   39.4630   31.4510   41.3550 C   0  0  0  0  0  0  0  0  0  0  0  0
   39.2080   30.3280   42.1680 C   0  0  0  0  0  0  0  0  0  0  0  0
   37.8980   29.8000   42.2110 C   0  0  0  0  0  0  0  0  0  0  0  0
   36.9530   30.4230   41.4520 N   0  0  0  0  0  0  0  0  0  0  0  0
   37.2500   31.5030   40.6860 C   0  0  0  0  0  0  0  0  0  0  0  0
   38.4740   32.0140   40.6300 N   0  0  0  0  0  0  0  0  0  0  0  0
   39.9650   29.8490   42.7610 H   0  0  0  0  0  0  0  0  0  0  0  0
   36.4150   31.9280   40.1140 H   0  0  0  0  0  0  0  0  0  0  0  0
   40.8420   31.9810   41.3420 C   0  0  0  0  0  0  0  0  0  0  0  0
   41.6100   31.6230   40.0510 C   0  0  0  0  0  0  0  0  0  0  0  0
   41.2730   33.0170   40.4260 C   0  0  0  0  0  0  0  0  0  0  0  0
   41.3840   31.8030   42.2930 H   0  0  0  0  0  0  0  0  0  0  0  0
   41.0600   31.0980   39.2460 H   0  0  0  0  0  0  0  0  0  0  0  0
   42.5920   31.1820   40.2470 H   0  0  0  0  0  0  0  0  0  0  0  0
   42.1580   33.6270   40.7310 H   0  0  0  0  0  0  0  0  0  0  0  0
   40.5880   33.5520   39.7330 H   0  0  0  0  0  0  0  0  0  0  0  0
   37.5320   28.6200   43.0360 C   0  0  0  0  0  3  0  0  0  0  0  0
   38.7220   27.7550   43.3480 C   0  0  0  0  0  2  0  0  0  0  0  0
   38.4990   26.4410   42.6380 C   0  0  0  0  0  2  0  0  0  0  0  0
   37.0020   26.3210   42.6710 C   0  0  0  0  0  2  0  0  0  0  0  0
   36.5310   27.7230   42.3510 C   0  0  0  0  0  2  0  0  0  0  0  0
  1  2  1  0  0  0  0
  2  3  2  0  0  0  0
  2  7  1  0  0  0  0
  3 17  1  0  0  0  0
  4  3  1  0  0  0  0
  5  4  2  0  0  0  0
  6  5  1  0  0  0  0
  6  1  2  0  0  0  0
  8  5  1  0  0  0  0
  9  1  1  0  0  0  0
  9 12  1  0  0  0  0
 10 14  1  0  0  0  0
 10 11  1  0  0  0  0
 10  9  1  0  0  0  0
 11 15  1  0  0  0  0
 11  9  1  0  0  0  0
 13 10  1  0  0  0  0
 16 11  1  0  0  0  0
 17 18  1  0  0  0  0
 19 20  1  0  0  0  0
 19 18  1  0  0  0  0
 21 20  1  0  0  0  0
 21 17  1  0  0  0  0
M  END
>  <minimizedAffinity>
-4.17076683

$$$$

 OpenBabel03242520173D

 21 23  0  0  0  0  0  0  0  0999 V2000
   36.1710   27.0880   38.9090 C   0  0  0  0  0  0  0  0  0  0  0  0
   36.6060   27.2210   40.2430 C   0  0  0  0  0  0  0  0  0  0  0  0
   36.8650   26.0560   40.9970 C   0  0  0  0  0  0  0  0  0  0  0  0
   36.6740   24.8580   40.3730 N   0  0  0  0  0  0  0  0  0  0  0  0
   36.2530   24.7840   39.0850 C   0  0  0  0  0  0  0  0  0  0  0  0
   36.0050   25.8670   38.3590 N   0  0  0  0  0  0  0  0  0  0  0  0
   36.7520   28.1740   40.7190 H   0  0  0  0  0  0  0  0  0  0  0  0
   36.1310   23.7710   38.6800 H   0  0  0  0  0  0  0  0  0  0  0  0
   35.9020   28.3300   38.1540 C   0  0  0  0  0  0  0  0  0  0  0  0
   34.4280   28.7810   38.2470 C   0  0  0  0  0  0  0  0  0  0  0  0
   35.5500   29.5770   38.8010 C   0  0  0  0  0  0  0  0  0  0  0  0
   36.3440   28.3240   37.1380 H   0  0  0  0  0  0  0  0  0  0  0  0
   33.7500   28.2100   38.9100 H   0  0  0  0  0  0  0  0  0  0  0  0
   33.9850   28.9920   37.2700 H   0  0  0  0  0  0  0  0  0  0  0  0
   35.7560   30.5170   38.2350 H   0  0  0  0  0  0  0  0  0  0  0  0
   35.5420   29.7190   39.9040 H   0  0  0  0  0  0  0  0  0  0  0  0
   37.3270   26.0940   42.4080 C   0  0  0  0  0  3  0  0  0  0  0  0
   36.7020   27.2250   43.1780 C   0  0  0  0  0  2  0  0  0  0  0  0
   37.8190   28.1790   43.5280 C   0  0  0  0  0  2  0  0  0  0  0  0
   38.9870   27.2470   43.6800 C   0  0  0  0  0  2  0  0  0  0  0  0
   38.8190   26.2840   42.5240 C   0  0  0  0  0  2  0  0  0  0  0  0
  1  2  1  0  0  0  0
  2  7  1  0  0  0  0
  2  3  2  0  0  0  0
  3 17  1  0  0  0  0
  4  3  1  0  0  0  0
  5  4  2  0  0  0  0
  6  1  2  0  0  0  0
  6  5  1  0  0  0  0
  8  5  1  0  0  0  0
  9 10  1  0  0  0  0
  9 11  1  0  0  0  0
  9  1  1  0  0  0  0
 10 11  1  0  0  0  0
 10 13  1  0  0  0  0
 11 16  1  0  0  0  0
 12  9  1  0  0  0  0
 14 10  1  0  0  0  0
 15 11  1  0  0  0  0
 17 21  1  0  0  0  0
 17 18  1  0  0  0  0
 18 19  1  0  0  0  0
 19 20  1  0  0  0  0
 21 20  1  0  0  0  0
M  END
>  <minimizedAffinity>
-4.16208601

$$$$

 OpenBabel03242520173D

 21 23  0  0  0  0  0  0  0  0999 V2000
   37.8100   30.3610   38.5350 C   0  0  0  0  0  0  0  0  0  0  0  0
   37.1460   29.8950   39.6880 C   0  0  0  0  0  0  0  0  0  0  0  0
   37.8410   29.8800   40.9180 C   0  0  0  0  0  0  0  0  0  0  0  0
   39.1300   30.3240   40.9070 N   0  0  0  0  0  0  0  0  0  0  0  0
   39.7240   30.7630   39.7680 C   0  0  0  0  0  0  0  0  0  0  0  0
   39.0890   30.7860   38.6030 N   0  0  0  0  0  0  0  0  0  0  0  0
   36.1290   29.5480   39.6790 H   0  0  0  0  0  0  0  0  0  0  0  0
   40.7640   31.0970   39.8710 H   0  0  0  0  0  0  0  0  0  0  0  0
   37.0530   30.3540   37.2660 C   0  0  0  0  0  0  0  0  0  0  0  0
   37.2940   29.0790   36.4300 C   0  0  0  0  0  0  0  0  0  0  0  0
   35.9720   29.4260   37.0050 C   0  0  0  0  0  0  0  0  0  0  0  0
   37.1210   31.3150   36.7160 H   0  0  0  0  0  0  0  0  0  0  0  0
   37.9170   28.2770   36.8710 H   0  0  0  0  0  0  0  0  0  0  0  0
   37.5580   29.2940   35.3910 H   0  0  0  0  0  0  0  0  0  0  0  0
   35.2160   29.7300   36.2420 H   0  0  0  0  0  0  0  0  0  0  0  0
   35.5730   28.7150   37.7610 H   0  0  0  0  0  0  0  0  0  0  0  0
   37.2270   29.4080   42.1860 C   0  0  0  0  0  3  0  0  0  0  0  0
   38.2590   29.1140   43.2400 C   0  0  0  0  0  2  0  0  0  0  0  0
   38.2120   27.6260   43.4880 C   0  0  0  0  0  2  0  0  0  0  0  0
   36.7640   27.3150   43.2370 C   0  0  0  0  0  2  0  0  0  0  0  0
   36.4370   28.1350   42.0080 C   0  0  0  0  0  2  0  0  0  0  0  0
  1  6  2  0  0  0  0
  1  2  1  0  0  0  0
  2  3  2  0  0  0  0
  3 17  1  0  0  0  0
  4  3  1  0  0  0  0
  5  8  1  0  0  0  0
  5  4  2  0  0  0  0
  6  5  1  0  0  0  0
  7  2  1  0  0  0  0
  9  1  1  0  0  0  0
 10 13  1  0  0  0  0
 10 11  1  0  0  0  0
 10  9  1  0  0  0  0
 11  9  1  0  0  0  0
 11 16  1  0  0  0  0
 12  9  1  0  0  0  0
 14 10  1  0  0  0  0
 15 11  1  0  0  0  0
 17 18  1  0  0  0  0
 18 19  1  0  0  0  0
 20 19  1  0  0  0  0
 21 17  1  0  0  0  0
 21 20  1  0  0  0  0
M  END
>  <minimizedAffinity>
-4.11117268

$$$$
