
 OpenBabel03252505403D

 24 26  0  0  1  0  0  0  0  0999 V2000
   45.0060   34.1920   41.8490 C   0  0  0  0  0  0  0  0  0  0  0  0
   46.2850   34.6240   41.4120 C   0  0  0  0  0  0  0  0  0  0  0  0
   47.3200   34.6470   42.3400 C   0  0  0  0  0  0  0  0  0  0  0  0
   47.0560   34.2560   43.6160 N   0  0  0  0  0  0  0  0  0  0  0  0
   45.8190   33.8510   43.9940 C   0  0  0  0  0  0  0  0  0  0  0  0
   44.8010   33.8220   43.0990 N   0  0  0  0  0  0  0  0  0  0  0  0
   46.4220   34.9170   40.3970 H   0  0  0  0  0  0  0  0  0  0  0  0
   48.3150   34.9670   42.0630 H   0  0  0  0  0  0  0  0  0  0  0  0
   43.8710   34.1600   40.8920 C   0  0  1  0  0  0  0  0  0  0  0  0
   42.7860   33.1210   41.2530 C   0  0  0  0  0  0  0  0  0  0  0  0
   42.5270   34.5900   41.2880 C   0  0  2  0  0  0  0  0  0  0  0  0
   44.2320   34.0430   39.8460 H   0  0  0  0  0  0  0  0  0  0  0  0
   42.8680   32.6260   42.2310 H   0  0  0  0  0  0  0  0  0  0  0  0
   42.3170   32.5730   40.4260 H   0  0  0  0  0  0  0  0  0  0  0  0
   42.4870   35.0840   42.3080 H   0  0  0  0  0  0  0  0  0  0  0  0
   41.7470   35.3200   40.2590 C   0  0  0  0  0  3  0  0  0  0  0  0
   42.3330   35.1760   38.8820 C   0  0  0  0  0  2  0  0  0  0  0  0
   41.1820   35.7200   38.0310 C   0  0  0  0  0  2  0  0  0  0  0  0
   40.0370   34.8800   38.5940 C   0  0  0  0  0  2  0  0  0  0  0  0
   40.3210   34.8680   40.0870 C   0  0  0  0  0  2  0  0  0  0  0  0
   45.7310   33.4720   45.4410 C   0  0  0  0  0  0  0  0  0  0  0  0
   45.2690   32.1900   45.6090 F   0  0  0  0  0  0  0  0  0  0  0  0
   44.8590   34.3430   46.1000 F   0  0  0  0  0  0  0  0  0  0  0  0
   46.9750   33.6660   46.0280 F   0  0  0  0  0  0  0  0  0  0  0  0
  1  6  1  0  0  0  0
  2  1  2  0  0  0  0
  2  3  1  0  0  0  0
  3  4  2  0  0  0  0
  4  5  1  0  0  0  0
  5 21  1  0  0  0  0
  6  5  2  0  0  0  0
  7  2  1  0  0  0  0
  8  3  1  0  0  0  0
  9 12  1  6  0  0  0
  9 10  1  0  0  0  0
  9 11  1  0  0  0  0
  9  1  1  0  0  0  0
 10 11  1  0  0  0  0
 10 13  1  0  0  0  0
 11 15  1  1  0  0  0
 14 10  1  0  0  0  0
 16 11  1  0  0  0  0
 17 16  1  0  0  0  0
 18 19  1  0  0  0  0
 18 17  1  0  0  0  0
 19 20  1  0  0  0  0
 20 16  1  0  0  0  0
 21 22  1  0  0  0  0
 21 24  1  0  0  0  0
 21 23  1  0  0  0  0
M  END
>  <minimizedAffinity>
-4.95684576

>  <minimizedRMSD>
3.17124748

$$$$
