
 OpenBabel03252508153D

 33 36  0  0  1  0  0  0  0  0999 V2000
   46.4370   30.8830   46.5670 C   0  0  0  0  0  0  0  0  0  0  0  0
   47.5360   30.7490   46.4670 H   0  0  0  0  0  0  0  0  0  0  0  0
   45.9260   29.9470   46.3440 H   0  0  0  0  0  0  0  0  0  0  0  0
   46.0410   31.3430   47.9490 C   0  0  1  0  0  0  0  0  0  0  0  0
   45.8000   30.2850   48.9640 C   0  0  0  0  0  0  0  0  0  0  0  0
   46.9660   31.1400   49.0900 C   0  0  1  0  0  0  0  0  0  0  0  0
   45.4770   32.3060   47.9910 H   0  0  0  0  0  0  0  0  0  0  0  0
   44.9610   30.3530   49.6830 H   0  0  0  0  0  0  0  0  0  0  0  0
   45.9900   29.2270   48.6380 H   0  0  0  0  0  0  0  0  0  0  0  0
   46.9090   31.8750   49.9510 H   0  0  0  0  0  0  0  0  0  0  0  0
   48.3500   30.7170   48.7840 C   0  0  0  0  0  0  0  0  0  0  0  0
   49.2270   30.4180   50.0310 C   0  0  0  0  0  0  0  0  0  0  0  0
   49.4780   31.6510   49.2640 C   0  0  0  0  0  0  0  0  0  0  0  0
   48.5540   30.0630   47.9200 H   0  0  0  0  0  0  0  0  0  0  0  0
   49.9000   29.5530   49.9530 H   0  0  0  0  0  0  0  0  0  0  0  0
   48.7350   30.5110   51.0180 H   0  0  0  0  0  0  0  0  0  0  0  0
   50.3670   31.6310   48.5810 H   0  0  0  0  0  0  0  0  0  0  0  0
   49.2030   32.6430   49.6430 H   0  0  0  0  0  0  0  0  0  0  0  0
   45.9010   33.1260   46.0320 C   0  0  0  0  0  3  0  0  0  0  0  0
   46.1160   31.9640   45.5480 C   0  0  0  0  0  3  0  0  0  0  0  0
   44.4620   36.1860   44.5720 C   0  0  0  0  0  0  0  0  0  0  0  0
   45.0280   36.2340   43.3030 C   0  0  0  0  0  0  0  0  0  0  0  0
   45.9000   35.2110   42.9730 C   0  0  0  0  0  0  0  0  0  0  0  0
   46.1230   34.2700   43.8920 N   0  0  0  0  0  0  0  0  0  0  0  0
   45.5870   34.2180   45.1020 C   0  0  0  0  0  0  0  0  0  0  0  0
   44.7520   35.1960   45.4230 N   0  0  0  0  0  0  0  0  0  0  0  0
   43.7810   36.9900   44.8220 H   0  0  0  0  0  0  0  0  0  0  0  0
   44.8580   36.9840   42.5510 H   0  0  0  0  0  0  0  0  0  0  0  0
   46.6110   35.0620   41.6890 C   0  0  0  0  0  3  0  0  0  0  0  0
   46.6080   33.6700   41.1330 C   0  0  0  0  0  2  0  0  0  0  0  0
   47.6740   33.7690   40.0360 C   0  0  0  0  0  2  0  0  0  0  0  0
   48.5630   34.9350   40.4180 C   0  0  0  0  0  2  0  0  0  0  0  0
   48.0890   35.3530   41.8090 C   0  0  0  0  0  2  0  0  0  0  0  0
  1  4  1  0  0  0  0
  2  1  1  0  0  0  0
  3  1  1  0  0  0  0
  4  7  1  1  0  0  0
  4  5  1  0  0  0  0
  4  6  1  0  0  0  0
  5  6  1  0  0  0  0
  5  8  1  0  0  0  0
  6 10  1  1  0  0  0
  9  5  1  0  0  0  0
 11  6  1  0  0  0  0
 11 13  1  0  0  0  0
 11 12  1  0  0  0  0
 12 16  1  0  0  0  0
 13 18  1  0  0  0  0
 13 12  1  0  0  0  0
 14 11  1  0  0  0  0
 15 12  1  0  0  0  0
 17 13  1  0  0  0  0
 20 19  2  0  0  0  0
 20  1  1  0  0  0  0
 21 27  1  0  0  0  0
 21 26  1  0  0  0  0
 22 21  2  0  0  0  0
 23 22  1  0  0  0  0
 23 24  2  0  0  0  0
 24 25  1  0  0  0  0
 25 26  2  0  0  0  0
 25 19  1  0  0  0  0
 28 22  1  0  0  0  0
 29 33  1  0  0  0  0
 29 23  1  0  0  0  0
 30 29  1  0  0  0  0
 31 32  1  0  0  0  0
 31 30  1  0  0  0  0
 32 33  1  0  0  0  0
M  END
>  <minimizedAffinity>
-5.79332113

>  <minimizedRMSD>
0.999297202

$$$$
