
 OpenBabel03252507583D

 23 25  0  0  1  0  0  0  0  0999 V2000
   46.4380   32.6360   45.6890 C   0  0  1  0  0  0  0  0  0  0  0  0
   47.1190   32.9580   46.9830 C   0  0  0  0  0  0  0  0  0  0  0  0
   45.6430   32.7590   46.9510 C   0  0  2  0  0  0  0  0  0  0  0  0
   46.6430   31.6440   45.2430 H   0  0  0  0  0  0  0  0  0  0  0  0
   47.7650   32.1550   47.3880 H   0  0  0  0  0  0  0  0  0  0  0  0
   47.5850   33.9490   47.0080 H   0  0  0  0  0  0  0  0  0  0  0  0
   45.0460   33.6940   47.1260 H   0  0  0  0  0  0  0  0  0  0  0  0
   46.7360   34.8670   42.7890 C   0  0  0  0  0  0  0  0  0  0  0  0
   45.6460   35.7520   42.9530 C   0  0  0  0  0  0  0  0  0  0  0  0
   44.7990   35.5710   44.0750 C   0  0  0  0  0  0  0  0  0  0  0  0
   45.0980   34.5490   44.9220 N   0  0  0  0  0  0  0  0  0  0  0  0
   46.1670   33.7310   44.7000 C   0  0  0  0  0  0  0  0  0  0  0  0
   46.9720   33.8820   43.6590 N   0  0  0  0  0  0  0  0  0  0  0  0
   45.4120   36.5650   42.2780 H   0  0  0  0  0  0  0  0  0  0  0  0
   43.9510   36.2170   44.2540 H   0  0  0  0  0  0  0  0  0  0  0  0
   47.5190   35.1480   41.6360 C   0  0  0  0  0  0  0  0  0  0  0  0
   48.6220   35.7780   41.6360 O   0  0  0  0  0  0  0  0  0  0  0  0
   47.3250   34.8860   40.5850 H   0  0  0  0  0  0  0  0  0  0  0  0
   45.1350   31.5700   47.6830 C   0  0  0  0  0  3  0  0  0  0  0  0
   45.4620   31.5800   49.1560 C   0  0  0  0  0  2  0  0  0  0  0  0
   45.0620   30.1570   49.5570 C   0  0  0  0  0  2  0  0  0  0  0  0
   44.9600   29.3540   48.2860 C   0  0  0  0  0  2  0  0  0  0  0  0
   45.6650   30.2440   47.2540 C   0  0  0  0  0  2  0  0  0  0  0  0
  1  4  1  6  0  0  0
  1  3  1  0  0  0  0
  1  2  1  0  0  0  0
  2  6  1  0  0  0  0
  2  5  1  0  0  0  0
  3  2  1  0  0  0  0
  3  7  1  1  0  0  0
  3 19  1  0  0  0  0
  8  9  2  0  0  0  0
  8 13  1  0  0  0  0
  9 10  1  0  0  0  0
 10 15  1  0  0  0  0
 10 11  2  0  0  0  0
 12 11  1  0  0  0  0
 12  1  1  0  0  0  0
 13 12  2  0  0  0  0
 14  9  1  0  0  0  0
 16  8  1  0  0  0  0
 17 16  2  0  0  0  0
 18 16  1  0  0  0  0
 19 20  1  0  0  0  0
 20 21  1  0  0  0  0
 22 21  1  0  0  0  0
 23 19  1  0  0  0  0
 23 22  1  0  0  0  0
M  END
>  <minimizedAffinity>
-4.5354166

>  <minimizedRMSD>
0.892052412

$$$$
