
 OpenBabel03252504453D

 17 18  0  0  0  0  0  0  0  0999 V2000
   45.2000   35.1430   43.6320 C   0  0  0  0  0  0  0  0  0  0  0  0
   44.4410   35.1880   42.4430 C   0  0  0  0  0  0  0  0  0  0  0  0
   45.0540   34.6930   41.2710 C   0  0  0  0  0  0  0  0  0  0  0  0
   46.3200   34.2090   41.3610 N   0  0  0  0  0  0  0  0  0  0  0  0
   47.0050   34.1920   42.5450 C   0  0  0  0  0  0  0  0  0  0  0  0
   46.4350   34.6600   43.6680 N   0  0  0  0  0  0  0  0  0  0  0  0
   43.4350   35.5800   42.4070 H   0  0  0  0  0  0  0  0  0  0  0  0
   44.5100   34.7070   40.3400 H   0  0  0  0  0  0  0  0  0  0  0  0
   48.3560   33.6520   42.5330 C   0  0  0  0  0  3  0  0  0  0  0  0
   49.4510   34.6670   42.6040 C   0  0  0  0  0  2  0  0  0  0  0  0
   50.6720   33.7840   42.4250 C   0  0  0  0  0  2  0  0  0  0  0  0
   50.2090   32.6180   41.5710 C   0  0  0  0  0  2  0  0  0  0  0  0
   48.7340   32.8910   41.2820 C   0  0  0  0  0  2  0  0  0  0  0  0
   44.5370   35.6730   44.8700 C   0  0  0  0  0  0  0  0  0  0  0  0
   45.1080   35.2670   45.7410 H   0  0  0  0  0  0  0  0  0  0  0  0
   43.4830   35.3310   44.8750 H   0  0  0  0  0  0  0  0  0  0  0  0
   44.5980   36.7760   44.8130 H   0  0  0  0  0  0  0  0  0  0  0  0
  1  6  1  0  0  0  0
  1 14  1  0  0  0  0
  2  1  2  0  0  0  0
  3  4  2  0  0  0  0
  3  2  1  0  0  0  0
  4  5  1  0  0  0  0
  5  6  2  0  0  0  0
  7  2  1  0  0  0  0
  8  3  1  0  0  0  0
  9  5  1  0  0  0  0
  9 10  1  0  0  0  0
 11 10  1  0  0  0  0
 12 11  1  0  0  0  0
 13 12  1  0  0  0  0
 13  9  1  0  0  0  0
 14 16  1  0  0  0  0
 14 15  1  0  0  0  0
 17 14  1  0  0  0  0
M  END
>  <minimizedAffinity>
-4.07077408

>  <minimizedRMSD>
5.6340003

$$$$
