
 OpenBabel03252505343D

 26 28  0  0  0  0  0  0  0  0999 V2000
   46.8970   34.9020   41.9670 C   0  0  0  0  0  0  0  0  0  0  0  0
   48.1090   35.5330   41.9350 C   0  0  0  0  0  0  0  0  0  0  0  0
   48.9850   35.5130   40.8590 C   0  0  0  0  0  0  0  0  0  0  0  0
   48.6040   34.8000   39.7250 C   0  0  0  0  0  0  0  0  0  0  0  0
   47.3810   34.1620   39.7550 C   0  0  0  0  0  0  0  0  0  0  0  0
   46.5300   34.2010   40.8450 C   0  0  0  0  0  0  0  0  0  0  0  0
   48.4690   36.1100   42.7890 H   0  0  0  0  0  0  0  0  0  0  0  0
   49.9340   36.0310   40.8860 H   0  0  0  0  0  0  0  0  0  0  0  0
   49.2870   34.7880   38.8920 H   0  0  0  0  0  0  0  0  0  0  0  0
   47.1280   33.6190   38.8490 H   0  0  0  0  0  0  0  0  0  0  0  0
   44.4710   36.0580   44.5900 C   0  0  0  0  0  0  0  0  0  0  0  0
   45.2090   36.0770   43.3810 C   0  0  0  0  0  0  0  0  0  0  0  0
   46.0860   35.0080   43.1580 C   0  0  0  0  0  0  0  0  0  0  0  0
   46.2030   34.0100   44.0810 N   0  0  0  0  0  0  0  0  0  0  0  0
   45.4580   34.0630   45.2230 C   0  0  0  0  0  0  0  0  0  0  0  0
   44.6020   35.0760   45.4740 N   0  0  0  0  0  0  0  0  0  0  0  0
   45.5770   33.0390   46.1970 N   0  0  0  0  0  0  0  0  0  0  0  0
   43.8240   36.9180   44.6740 H   0  0  0  0  0  0  0  0  0  0  0  0
   45.1500   36.8390   42.6260 H   0  0  0  0  0  0  0  0  0  0  0  0
   46.3880   33.1840   46.8400 H   0  0  0  0  0  0  0  0  0  0  0  0
   44.7760   32.3880   45.9910 H   0  0  0  0  0  0  0  0  0  0  0  0
   45.2230   33.4960   40.8240 C   0  0  0  0  0  3  0  0  0  0  0  0
   44.9660   32.8010   42.1660 C   0  0  0  0  0  2  0  0  0  0  0  0
   43.4430   32.7750   42.1550 C   0  0  0  0  0  2  0  0  0  0  0  0
   43.1760   34.2470   41.8230 C   0  0  0  0  0  2  0  0  0  0  0  0
   44.0490   34.3860   40.5870 C   0  0  0  0  0  2  0  0  0  0  0  0
  1 13  1  0  0  0  0
  2  1  1  0  0  0  0
  2  7  1  0  0  0  0
  3  8  1  0  0  0  0
  3  2  2  0  0  0  0
  4  5  2  0  0  0  0
  4  3  1  0  0  0  0
  5  6  1  0  0  0  0
  6  1  2  0  0  0  0
  9  4  1  0  0  0  0
 10  5  1  0  0  0  0
 11 18  1  0  0  0  0
 11 16  1  0  0  0  0
 12 11  2  0  0  0  0
 13 12  1  0  0  0  0
 13 14  2  0  0  0  0
 14 15  1  0  0  0  0
 15 16  2  0  0  0  0
 15 17  1  0  0  0  0
 17 20  1  0  0  0  0
 19 12  1  0  0  0  0
 21 17  1  0  0  0  0
 22  6  1  0  0  0  0
 22 23  1  0  0  0  0
 24 23  1  0  0  0  0
 25 24  1  0  0  0  0
 26 22  1  0  0  0  0
 26 25  1  0  0  0  0
M  END
>  <minimizedAffinity>
-5.82021236

>  <minimizedRMSD>
0.500735402

$$$$
