
 OpenBabel03252506303D

 43 47  0  0  0  0  0  0  0  0999 V2000
   39.3950   35.2130   40.8180 C   0  0  0  0  0  0  0  0  0  0  0  0
   38.8010   36.0850   41.1030 H   0  0  0  0  0  0  0  0  0  0  0  0
   40.0330   34.9280   41.6600 H   0  0  0  0  0  0  0  0  0  0  0  0
   37.6510   32.0980   40.6390 C   0  0  0  0  0  0  0  0  0  0  0  0
   37.0780   32.8140   39.5740 C   0  0  0  0  0  0  0  0  0  0  0  0
   37.6550   34.0380   39.5190 C   0  0  0  0  0  0  0  0  0  0  0  0
   38.5410   34.0780   40.5050 N   0  0  0  0  0  0  0  0  0  0  0  0
   38.5580   32.9320   41.1870 N   0  0  0  0  0  0  0  0  0  0  0  0
   36.3040   32.4900   38.8790 H   0  0  0  0  0  0  0  0  0  0  0  0
   37.4470   34.8450   38.8150 H   0  0  0  0  0  0  0  0  0  0  0  0
   35.8710   28.9160   40.8030 C   0  0  0  0  0  0  0  0  0  0  0  0
   36.5980   28.1730   41.7160 C   0  0  0  0  0  0  0  0  0  0  0  0
   37.7160   28.7990   42.2720 C   0  0  0  0  0  0  0  0  0  0  0  0
   38.0150   30.0510   41.9000 N   0  0  0  0  0  0  0  0  0  0  0  0
   37.2940   30.7460   41.0150 C   0  0  0  0  0  0  0  0  0  0  0  0
   36.2130   30.1650   40.4660 N   0  0  0  0  0  0  0  0  0  0  0  0
   35.0000   28.4380   40.3660 H   0  0  0  0  0  0  0  0  0  0  0  0
   36.3820   27.1590   42.0370 H   0  0  0  0  0  0  0  0  0  0  0  0
   38.5780   28.1280   43.2520 C   0  0  0  0  0  3  0  0  0  0  0  0
   40.0180   28.4350   42.9940 C   0  0  0  0  0  2  0  0  0  0  0  0
   40.7600   27.2320   43.5220 C   0  0  0  0  0  2  0  0  0  0  0  0
   39.7410   26.1290   43.7060 C   0  0  0  0  0  2  0  0  0  0  0  0
   38.4700   26.6290   43.0560 C   0  0  0  0  0  2  0  0  0  0  0  0
   40.2650   35.5490   39.6530 C   0  0  0  0  0  0  0  0  0  0  0  0
   39.6970   35.2290   38.7400 H   0  0  0  0  0  0  0  0  0  0  0  0
   40.3340   36.6540   39.5570 H   0  0  0  0  0  0  0  0  0  0  0  0
   42.3840   34.5030   40.6550 C   0  0  0  0  0  0  0  0  0  0  0  0
   41.5780   34.9280   39.6170 C   0  0  0  0  0  0  0  0  0  0  0  0
   42.0970   34.7350   38.3370 C   0  0  0  0  0  0  0  0  0  0  0  0
   43.3190   34.1640   38.1170 C   0  0  0  0  0  0  0  0  0  0  0  0
   44.0510   33.8620   37.0300 N   0  0  0  0  0  0  0  0  0  0  0  0
   45.2170   33.2950   37.3590 C   0  0  0  0  0  0  0  0  0  0  0  0
   45.2860   33.2050   38.7370 C   0  0  0  0  0  0  0  0  0  0  0  0
   44.0970   33.7520   39.1680 C   0  0  0  0  0  0  0  0  0  0  0  0
   43.6090   33.9300   40.4380 C   0  0  0  0  0  0  0  0  0  0  0  0
   41.9420   34.6710   41.6420 H   0  0  0  0  0  0  0  0  0  0  0  0
   41.5710   35.0230   37.4210 H   0  0  0  0  0  0  0  0  0  0  0  0
   43.7760   34.0350   36.0240 H   0  0  0  0  0  0  0  0  0  0  0  0
   46.0090   32.9470   36.6930 H   0  0  0  0  0  0  0  0  0  0  0  0
   46.0990   32.7950   39.3240 H   0  0  0  0  0  0  0  0  0  0  0  0
   44.3930   33.5100   41.5860 C   0  0  0  0  0  0  0  0  0  0  0  0
   43.9660   32.6720   42.4220 O   0  0  0  0  0  0  0  0  0  0  0  0
   45.3820   33.9120   41.7610 H   0  0  0  0  0  0  0  0  0  0  0  0
  1  2  1  0  0  0  0
  1  3  1  0  0  0  0
  4 15  1  0  0  0  0
  4  8  2  0  0  0  0
  5  4  1  0  0  0  0
  6  5  2  0  0  0  0
  6  7  1  0  0  0  0
  7  1  1  0  0  0  0
  7  8  1  0  0  0  0
  9  5  1  0  0  0  0
 10  6  1  0  0  0  0
 11 12  1  0  0  0  0
 12 18  1  0  0  0  0
 12 13  2  0  0  0  0
 13 19  1  0  0  0  0
 14 13  1  0  0  0  0
 15 14  2  0  0  0  0
 16 11  2  0  0  0  0
 16 15  1  0  0  0  0
 17 11  1  0  0  0  0
 20 19  1  0  0  0  0
 20 21  1  0  0  0  0
 21 22  1  0  0  0  0
 23 19  1  0  0  0  0
 23 22  1  0  0  0  0
 24  1  1  0  0  0  0
 25 24  1  0  0  0  0
 26 24  1  0  0  0  0
 27 36  1  0  0  0  0
 28 24  1  0  0  0  0
 28 27  2  0  0  0  0
 29 28  1  0  0  0  0
 30 29  2  0  0  0  0
 30 34  1  0  0  0  0
 31 32  1  0  0  0  0
 31 30  1  0  0  0  0
 32 33  2  0  0  0  0
 33 34  1  0  0  0  0
 33 40  1  0  0  0  0
 34 35  2  0  0  0  0
 35 27  1  0  0  0  0
 35 41  1  0  0  0  0
 37 29  1  0  0  0  0
 38 31  1  0  0  0  0
 39 32  1  0  0  0  0
 41 43  1  0  0  0  0
 41 42  2  0  0  0  0
M  END
>  <minimizedAffinity>
-6.95754337

$$$$

 OpenBabel03252506303D

 43 47  0  0  0  0  0  0  0  0999 V2000
   36.3150   29.6340   37.4690 C   0  0  0  0  0  0  0  0  0  0  0  0
   35.7850   30.2450   36.7340 H   0  0  0  0  0  0  0  0  0  0  0  0
   36.6630   28.7180   36.9850 H   0  0  0  0  0  0  0  0  0  0  0  0
   38.6810   31.9040   38.8920 C   0  0  0  0  0  0  0  0  0  0  0  0
   39.4940   30.8060   38.5630 C   0  0  0  0  0  0  0  0  0  0  0  0
   38.7160   29.8490   38.0020 C   0  0  0  0  0  0  0  0  0  0  0  0
   37.4810   30.3320   37.9870 N   0  0  0  0  0  0  0  0  0  0  0  0
   37.4350   31.5580   38.5120 N   0  0  0  0  0  0  0  0  0  0  0  0
   40.5670   30.6900   38.7080 H   0  0  0  0  0  0  0  0  0  0  0  0
   39.0230   28.8700   37.6330 H   0  0  0  0  0  0  0  0  0  0  0  0
   38.7110   35.2670   40.3120 C   0  0  0  0  0  0  0  0  0  0  0  0
   40.0290   35.4600   40.6860 C   0  0  0  0  0  0  0  0  0  0  0  0
   40.9050   34.4010   40.4360 C   0  0  0  0  0  0  0  0  0  0  0  0
   40.4320   33.2850   39.8610 N   0  0  0  0  0  0  0  0  0  0  0  0
   39.1520   33.1260   39.5100 C   0  0  0  0  0  0  0  0  0  0  0  0
   38.2910   34.1310   39.7410 N   0  0  0  0  0  0  0  0  0  0  0  0
   38.0230   36.0850   40.5020 H   0  0  0  0  0  0  0  0  0  0  0  0
   40.4420   36.3490   41.1510 H   0  0  0  0  0  0  0  0  0  0  0  0
   42.3290   34.4680   40.7810 C   0  0  0  0  0  3  0  0  0  0  0  0
   42.7550   33.2450   41.5280 C   0  0  0  0  0  2  0  0  0  0  0  0
   43.9020   33.7100   42.3910 C   0  0  0  0  0  2  0  0  0  0  0  0
   43.8540   35.2220   42.4130 C   0  0  0  0  0  2  0  0  0  0  0  0
   42.5420   35.6030   41.7640 C   0  0  0  0  0  2  0  0  0  0  0  0
   35.3910   29.2650   38.5830 C   0  0  0  0  0  0  0  0  0  0  0  0
   34.9910   30.2310   38.9870 H   0  0  0  0  0  0  0  0  0  0  0  0
   34.4990   28.7550   38.1610 H   0  0  0  0  0  0  0  0  0  0  0  0
   36.3790   27.1930   39.7330 C   0  0  0  0  0  0  0  0  0  0  0  0
   35.9650   28.5100   39.6840 C   0  0  0  0  0  0  0  0  0  0  0  0
   36.1180   29.2310   40.8680 C   0  0  0  0  0  0  0  0  0  0  0  0
   36.6420   28.6780   42.0030 C   0  0  0  0  0  0  0  0  0  0  0  0
   36.8990   29.1170   43.2480 N   0  0  0  0  0  0  0  0  0  0  0  0
   37.4290   28.1570   44.0130 C   0  0  0  0  0  0  0  0  0  0  0  0
   37.5400   27.0060   43.2540 C   0  0  0  0  0  0  0  0  0  0  0  0
   37.0440   27.3680   42.0210 C   0  0  0  0  0  0  0  0  0  0  0  0
   36.9050   26.6370   40.8690 C   0  0  0  0  0  0  0  0  0  0  0  0
   36.2440   26.6620   38.7850 H   0  0  0  0  0  0  0  0  0  0  0  0
   35.8330   30.2820   40.9770 H   0  0  0  0  0  0  0  0  0  0  0  0
   36.7190   30.0920   43.6170 H   0  0  0  0  0  0  0  0  0  0  0  0
   37.7380   28.2200   45.0580 H   0  0  0  0  0  0  0  0  0  0  0  0
   37.9310   26.0480   43.5760 H   0  0  0  0  0  0  0  0  0  0  0  0
   37.3160   25.2440   40.8340 C   0  0  0  0  0  0  0  0  0  0  0  0
   36.5100   24.3000   41.0390 O   0  0  0  0  0  0  0  0  0  0  0  0
   38.3430   24.9720   40.6290 H   0  0  0  0  0  0  0  0  0  0  0  0
  1  7  1  0  0  0  0
  1 24  1  0  0  0  0
  2  1  1  0  0  0  0
  3  1  1  0  0  0  0
  4 15  1  0  0  0  0
  5  9  1  0  0  0  0
  5  4  1  0  0  0  0
  6  5  2  0  0  0  0
  7  6  1  0  0  0  0
  7  8  1  0  0  0  0
  8  4  2  0  0  0  0
 10  6  1  0  0  0  0
 11 17  1  0  0  0  0
 11 12  1  0  0  0  0
 12 18  1  0  0  0  0
 13 12  2  0  0  0  0
 13 19  1  0  0  0  0
 14 13  1  0  0  0  0
 15 16  1  0  0  0  0
 15 14  2  0  0  0  0
 16 11  2  0  0  0  0
 19 20  1  0  0  0  0
 19 23  1  0  0  0  0
 20 21  1  0  0  0  0
 21 22  1  0  0  0  0
 23 22  1  0  0  0  0
 24 25  1  0  0  0  0
 24 28  1  0  0  0  0
 26 24  1  0  0  0  0
 27 35  1  0  0  0  0
 28 27  2  0  0  0  0
 28 29  1  0  0  0  0
 29 37  1  0  0  0  0
 29 30  2  0  0  0  0
 30 34  1  0  0  0  0
 30 31  1  0  0  0  0
 31 38  1  0  0  0  0
 31 32  1  0  0  0  0
 32 39  1  0  0  0  0
 33 40  1  0  0  0  0
 33 32  2  0  0  0  0
 34 33  1  0  0  0  0
 35 34  2  0  0  0  0
 36 27  1  0  0  0  0
 41 35  1  0  0  0  0
 41 42  2  0  0  0  0
 43 41  1  0  0  0  0
M  END
>  <minimizedAffinity>
-6.8851099

$$$$

 OpenBabel03252506303D

 43 47  0  0  0  0  0  0  0  0999 V2000
   42.4760   27.6070   43.2610 C   0  0  0  0  0  0  0  0  0  0  0  0
   42.5280   27.0230   42.3390 H   0  0  0  0  0  0  0  0  0  0  0  0
   43.4600   27.6070   43.7380 H   0  0  0  0  0  0  0  0  0  0  0  0
   41.0940   30.6940   42.1020 C   0  0  0  0  0  0  0  0  0  0  0  0
   42.0600   31.1350   43.0230 C   0  0  0  0  0  0  0  0  0  0  0  0
   42.6770   30.0510   43.5510 C   0  0  0  0  0  0  0  0  0  0  0  0
   42.1180   28.9900   42.9850 N   0  0  0  0  0  0  0  0  0  0  0  0
   41.1710   29.3480   42.1170 N   0  0  0  0  0  0  0  0  0  0  0  0
   42.3130   32.1570   43.3010 H   0  0  0  0  0  0  0  0  0  0  0  0
   43.4740   30.0320   44.2960 H   0  0  0  0  0  0  0  0  0  0  0  0
   39.8790   33.5880   40.2400 C   0  0  0  0  0  0  0  0  0  0  0  0
   38.5980   33.2270   39.8600 C   0  0  0  0  0  0  0  0  0  0  0  0
   38.1670   31.9610   40.2630 C   0  0  0  0  0  0  0  0  0  0  0  0
   38.9950   31.1860   40.9780 N   0  0  0  0  0  0  0  0  0  0  0  0
   40.2290   31.5610   41.3310 C   0  0  0  0  0  0  0  0  0  0  0  0
   40.6670   32.7750   40.9540 N   0  0  0  0  0  0  0  0  0  0  0  0
   40.2230   34.5700   39.9310 H   0  0  0  0  0  0  0  0  0  0  0  0
   37.9040   33.8300   39.2830 H   0  0  0  0  0  0  0  0  0  0  0  0
   36.8330   31.4490   39.9310 C   0  0  0  0  0  3  0  0  0  0  0  0
   36.3070   30.5780   41.0270 C   0  0  0  0  0  2  0  0  0  0  0  0
   35.3790   29.6130   40.3290 C   0  0  0  0  0  2  0  0  0  0  0  0
   35.6860   29.6960   38.8500 C   0  0  0  0  0  2  0  0  0  0  0  0
   36.9460   30.5240   38.7350 C   0  0  0  0  0  2  0  0  0  0  0  0
   41.4910   26.9910   44.1990 C   0  0  0  0  0  0  0  0  0  0  0  0
   41.9990   26.0900   44.6340 H   0  0  0  0  0  0  0  0  0  0  0  0
   41.3430   27.6670   45.0670 H   0  0  0  0  0  0  0  0  0  0  0  0
   38.9980   27.2100   43.6280 C   0  0  0  0  0  0  0  0  0  0  0  0
   40.2220   26.5690   43.6300 C   0  0  0  0  0  0  0  0  0  0  0  0
   40.2520   25.3310   42.9890 C   0  0  0  0  0  0  0  0  0  0  0  0
   39.1490   24.7820   42.3970 C   0  0  0  0  0  0  0  0  0  0  0  0
   38.8900   23.6430   41.7300 N   0  0  0  0  0  0  0  0  0  0  0  0
   37.6110   23.5750   41.3430 C   0  0  0  0  0  0  0  0  0  0  0  0
   36.9650   24.7220   41.7660 C   0  0  0  0  0  0  0  0  0  0  0  0
   37.9470   25.4410   42.4130 C   0  0  0  0  0  0  0  0  0  0  0  0
   37.8910   26.6620   43.0350 C   0  0  0  0  0  0  0  0  0  0  0  0
   39.0150   28.1780   44.1390 H   0  0  0  0  0  0  0  0  0  0  0  0
   41.1510   24.7120   42.9120 H   0  0  0  0  0  0  0  0  0  0  0  0
   39.5820   22.8730   41.5170 H   0  0  0  0  0  0  0  0  0  0  0  0
   37.1160   22.7760   40.7890 H   0  0  0  0  0  0  0  0  0  0  0  0
   35.9240   24.9780   41.6130 H   0  0  0  0  0  0  0  0  0  0  0  0
   36.6420   27.4020   43.0790 C   0  0  0  0  0  0  0  0  0  0  0  0
   35.9090   27.4240   44.1020 O   0  0  0  0  0  0  0  0  0  0  0  0
   36.2980   27.9650   42.2210 H   0  0  0  0  0  0  0  0  0  0  0  0
  1  3  1  0  0  0  0
  1 24  1  0  0  0  0
  2  1  1  0  0  0  0
  4  8  2  0  0  0  0
  4  5  1  0  0  0  0
  5  9  1  0  0  0  0
  5  6  2  0  0  0  0
  6 10  1  0  0  0  0
  7  1  1  0  0  0  0
  7  6  1  0  0  0  0
  8  7  1  0  0  0  0
 11 16  1  0  0  0  0
 12 11  2  0  0  0  0
 12 13  1  0  0  0  0
 13 14  2  0  0  0  0
 14 15  1  0  0  0  0
 15  4  1  0  0  0  0
 16 15  2  0  0  0  0
 17 11  1  0  0  0  0
 18 12  1  0  0  0  0
 19 13  1  0  0  0  0
 19 20  1  0  0  0  0
 21 20  1  0  0  0  0
 22 21  1  0  0  0  0
 23 22  1  0  0  0  0
 23 19  1  0  0  0  0
 24 25  1  0  0  0  0
 24 26  1  0  0  0  0
 27 28  1  0  0  0  0
 27 36  1  0  0  0  0
 28 24  1  0  0  0  0
 29 28  2  0  0  0  0
 30 34  2  0  0  0  0
 30 29  1  0  0  0  0
 31 30  1  0  0  0  0
 32 31  1  0  0  0  0
 32 33  2  0  0  0  0
 33 34  1  0  0  0  0
 34 35  1  0  0  0  0
 35 41  1  0  0  0  0
 35 27  2  0  0  0  0
 37 29  1  0  0  0  0
 38 31  1  0  0  0  0
 39 32  1  0  0  0  0
 40 33  1  0  0  0  0
 41 42  2  0  0  0  0
 43 41  1  0  0  0  0
M  END
>  <minimizedAffinity>
-6.85336113

$$$$

 OpenBabel03252506303D

 43 47  0  0  0  0  0  0  0  0999 V2000
   40.6150   33.2360   39.5380 C   0  0  0  0  0  0  0  0  0  0  0  0
   41.1160   34.2050   39.4590 H   0  0  0  0  0  0  0  0  0  0  0  0
   40.7650   32.6820   38.6060 H   0  0  0  0  0  0  0  0  0  0  0  0
   41.4960   30.7620   41.9640 C   0  0  0  0  0  0  0  0  0  0  0  0
   42.3680   31.8150   42.2920 C   0  0  0  0  0  0  0  0  0  0  0  0
   42.1420   32.8420   41.4380 C   0  0  0  0  0  0  0  0  0  0  0  0
   41.1770   32.4430   40.6200 N   0  0  0  0  0  0  0  0  0  0  0  0
   40.7750   31.2060   40.9140 N   0  0  0  0  0  0  0  0  0  0  0  0
   43.1140   31.8540   43.0840 H   0  0  0  0  0  0  0  0  0  0  0  0
   42.6420   33.8110   41.4100 H   0  0  0  0  0  0  0  0  0  0  0  0
   42.5240   27.7760   43.7920 C   0  0  0  0  0  0  0  0  0  0  0  0
   41.3460   27.0720   43.9720 C   0  0  0  0  0  0  0  0  0  0  0  0
   40.1910   27.6550   43.4450 C   0  0  0  0  0  0  0  0  0  0  0  0
   40.2850   28.8330   42.8120 N   0  0  0  0  0  0  0  0  0  0  0  0
   41.4380   29.4910   42.6530 C   0  0  0  0  0  0  0  0  0  0  0  0
   42.5620   28.9500   43.1510 N   0  0  0  0  0  0  0  0  0  0  0  0
   43.4270   27.3300   44.1970 H   0  0  0  0  0  0  0  0  0  0  0  0
   41.2380   26.1180   44.4780 H   0  0  0  0  0  0  0  0  0  0  0  0
   38.8740   27.0190   43.5620 C   0  0  0  0  0  3  0  0  0  0  0  0
   38.5380   26.2550   42.3220 C   0  0  0  0  0  2  0  0  0  0  0  0
   37.0300   26.2780   42.2610 C   0  0  0  0  0  2  0  0  0  0  0  0
   36.5660   27.3530   43.2180 C   0  0  0  0  0  2  0  0  0  0  0  0
   37.8130   28.0990   43.6380 C   0  0  0  0  0  2  0  0  0  0  0  0
   39.1500   33.4350   39.7430 C   0  0  0  0  0  0  0  0  0  0  0  0
   39.0180   33.6590   40.8340 H   0  0  0  0  0  0  0  0  0  0  0  0
   38.8350   34.3700   39.2330 H   0  0  0  0  0  0  0  0  0  0  0  0
   38.2150   31.5850   38.2280 C   0  0  0  0  0  0  0  0  0  0  0  0
   38.2840   32.3210   39.3960 C   0  0  0  0  0  0  0  0  0  0  0  0
   37.3900   31.9430   40.3970 C   0  0  0  0  0  0  0  0  0  0  0  0
   36.5030   30.9150   40.2410 C   0  0  0  0  0  0  0  0  0  0  0  0
   35.5550   30.3470   41.0070 N   0  0  0  0  0  0  0  0  0  0  0  0
   34.9430   29.3400   40.3740 C   0  0  0  0  0  0  0  0  0  0  0  0
   35.5000   29.2130   39.1150 C   0  0  0  0  0  0  0  0  0  0  0  0
   36.4580   30.2030   39.0700 C   0  0  0  0  0  0  0  0  0  0  0  0
   37.3270   30.5540   38.0700 C   0  0  0  0  0  0  0  0  0  0  0  0
   38.9320   31.9120   37.4680 H   0  0  0  0  0  0  0  0  0  0  0  0
   37.3320   32.4350   41.3730 H   0  0  0  0  0  0  0  0  0  0  0  0
   35.2950   30.6300   41.9920 H   0  0  0  0  0  0  0  0  0  0  0  0
   34.1410   28.6990   40.7440 H   0  0  0  0  0  0  0  0  0  0  0  0
   35.2290   28.4930   38.3520 H   0  0  0  0  0  0  0  0  0  0  0  0
   37.3200   29.8320   36.8100 C   0  0  0  0  0  0  0  0  0  0  0  0
   36.5830   30.1660   35.8460 O   0  0  0  0  0  0  0  0  0  0  0  0
   37.9580   28.9700   36.6590 H   0  0  0  0  0  0  0  0  0  0  0  0
  1 24  1  0  0  0  0
  1  7  1  0  0  0  0
  2  1  1  0  0  0  0
  3  1  1  0  0  0  0
  4  5  1  0  0  0  0
  4 15  1  0  0  0  0
  5  9  1  0  0  0  0
  6  5  2  0  0  0  0
  7  8  1  0  0  0  0
  7  6  1  0  0  0  0
  8  4  2  0  0  0  0
 10  6  1  0  0  0  0
 11 12  1  0  0  0  0
 11 17  1  0  0  0  0
 12 18  1  0  0  0  0
 13 19  1  0  0  0  0
 13 12  2  0  0  0  0
 14 13  1  0  0  0  0
 15 14  2  0  0  0  0
 15 16  1  0  0  0  0
 16 11  2  0  0  0  0
 19 23  1  0  0  0  0
 20 19  1  0  0  0  0
 21 20  1  0  0  0  0
 21 22  1  0  0  0  0
 22 23  1  0  0  0  0
 24 25  1  0  0  0  0
 26 24  1  0  0  0  0
 27 28  1  0  0  0  0
 28 24  1  0  0  0  0
 28 29  2  0  0  0  0
 29 37  1  0  0  0  0
 30 29  1  0  0  0  0
 30 31  1  0  0  0  0
 31 38  1  0  0  0  0
 32 39  1  0  0  0  0
 32 31  1  0  0  0  0
 33 32  2  0  0  0  0
 34 33  1  0  0  0  0
 34 30  2  0  0  0  0
 35 27  2  0  0  0  0
 35 34  1  0  0  0  0
 36 27  1  0  0  0  0
 40 33  1  0  0  0  0
 41 35  1  0  0  0  0
 42 41  2  0  0  0  0
 43 41  1  0  0  0  0
M  END
>  <minimizedAffinity>
-6.81183243

$$$$

 OpenBabel03252506303D

 43 47  0  0  0  0  0  0  0  0999 V2000
   36.1880   30.5530   40.8710 C   0  0  0  0  0  0  0  0  0  0  0  0
   35.1100   30.3870   40.7980 H   0  0  0  0  0  0  0  0  0  0  0  0
   36.3710   31.4080   41.5270 H   0  0  0  0  0  0  0  0  0  0  0  0
   38.4160   28.1970   42.3770 C   0  0  0  0  0  0  0  0  0  0  0  0
   37.2650   27.4170   42.1670 C   0  0  0  0  0  0  0  0  0  0  0  0
   36.3180   28.1950   41.5900 C   0  0  0  0  0  0  0  0  0  0  0  0
   36.8560   29.3980   41.4500 N   0  0  0  0  0  0  0  0  0  0  0  0
   38.1080   29.4250   41.9120 N   0  0  0  0  0  0  0  0  0  0  0  0
   37.1070   26.3670   42.4060 H   0  0  0  0  0  0  0  0  0  0  0  0
   35.3080   27.9080   41.2930 H   0  0  0  0  0  0  0  0  0  0  0  0
   40.8220   26.0210   44.0480 C   0  0  0  0  0  0  0  0  0  0  0  0
   41.9740   26.7840   44.1120 C   0  0  0  0  0  0  0  0  0  0  0  0
   41.8980   28.0670   43.5650 C   0  0  0  0  0  0  0  0  0  0  0  0
   40.7430   28.4770   43.0220 N   0  0  0  0  0  0  0  0  0  0  0  0
   39.6440   27.7170   42.9730 C   0  0  0  0  0  0  0  0  0  0  0  0
   39.6930   26.4790   43.4930 N   0  0  0  0  0  0  0  0  0  0  0  0
   40.8720   25.0220   44.4710 H   0  0  0  0  0  0  0  0  0  0  0  0
   42.9220   26.4820   44.5440 H   0  0  0  0  0  0  0  0  0  0  0  0
   43.0430   28.9830   43.5640 C   0  0  0  0  0  3  0  0  0  0  0  0
   43.6990   29.0190   44.9080 C   0  0  0  0  0  2  0  0  0  0  0  0
   44.3120   30.3960   44.9920 C   0  0  0  0  0  2  0  0  0  0  0  0
   43.6800   31.2280   43.8990 C   0  0  0  0  0  2  0  0  0  0  0  0
   42.5400   30.3980   43.3530 C   0  0  0  0  0  2  0  0  0  0  0  0
   36.7480   30.8580   39.5220 C   0  0  0  0  0  0  0  0  0  0  0  0
   37.0990   29.8780   39.1030 H   0  0  0  0  0  0  0  0  0  0  0  0
   35.9220   31.1630   38.8450 H   0  0  0  0  0  0  0  0  0  0  0  0
   38.9770   31.8020   38.6660 C   0  0  0  0  0  0  0  0  0  0  0  0
   37.8540   31.8000   39.4710 C   0  0  0  0  0  0  0  0  0  0  0  0
   37.7600   32.8590   40.3720 C   0  0  0  0  0  0  0  0  0  0  0  0
   38.7110   33.8370   40.4600 C   0  0  0  0  0  0  0  0  0  0  0  0
   38.8800   34.9410   41.2090 N   0  0  0  0  0  0  0  0  0  0  0  0
   40.0120   35.5820   40.9000 C   0  0  0  0  0  0  0  0  0  0  0  0
   40.6490   34.8820   39.8910 C   0  0  0  0  0  0  0  0  0  0  0  0
   39.8150   33.8120   39.6480 C   0  0  0  0  0  0  0  0  0  0  0  0
   39.9310   32.7810   38.7510 C   0  0  0  0  0  0  0  0  0  0  0  0
   39.0130   30.9560   37.9720 H   0  0  0  0  0  0  0  0  0  0  0  0
   36.9270   32.9860   41.0710 H   0  0  0  0  0  0  0  0  0  0  0  0
   38.2230   35.2940   41.9590 H   0  0  0  0  0  0  0  0  0  0  0  0
   40.4090   36.4990   41.3380 H   0  0  0  0  0  0  0  0  0  0  0  0
   41.5880   35.1350   39.4150 H   0  0  0  0  0  0  0  0  0  0  0  0
   41.0810   32.7090   37.8670 C   0  0  0  0  0  0  0  0  0  0  0  0
   41.1560   31.8740   36.9280 O   0  0  0  0  0  0  0  0  0  0  0  0
   41.9210   33.3790   37.9910 H   0  0  0  0  0  0  0  0  0  0  0  0
  1  7  1  0  0  0  0
  1  3  1  0  0  0  0
  2  1  1  0  0  0  0
  4 15  1  0  0  0  0
  5  4  1  0  0  0  0
  5  9  1  0  0  0  0
  6  5  2  0  0  0  0
  7  6  1  0  0  0  0
  7  8  1  0  0  0  0
  8  4  2  0  0  0  0
 10  6  1  0  0  0  0
 11 12  1  0  0  0  0
 11 17  1  0  0  0  0
 12 18  1  0  0  0  0
 13 12  2  0  0  0  0
 14 13  1  0  0  0  0
 15 14  2  0  0  0  0
 15 16  1  0  0  0  0
 16 11  2  0  0  0  0
 19 13  1  0  0  0  0
 19 20  1  0  0  0  0
 20 21  1  0  0  0  0
 22 21  1  0  0  0  0
 23 19  1  0  0  0  0
 23 22  1  0  0  0  0
 24  1  1  0  0  0  0
 25 24  1  0  0  0  0
 26 24  1  0  0  0  0
 27 35  2  0  0  0  0
 27 28  1  0  0  0  0
 28 24  1  0  0  0  0
 28 29  2  0  0  0  0
 29 30  1  0  0  0  0
 29 37  1  0  0  0  0
 30 31  1  0  0  0  0
 31 38  1  0  0  0  0
 32 31  1  0  0  0  0
 32 39  1  0  0  0  0
 33 32  2  0  0  0  0
 34 33  1  0  0  0  0
 34 30  2  0  0  0  0
 35 34  1  0  0  0  0
 36 27  1  0  0  0  0
 40 33  1  0  0  0  0
 41 43  1  0  0  0  0
 41 35  1  0  0  0  0
 42 41  2  0  0  0  0
M  END
>  <minimizedAffinity>
-6.69649458

$$$$

 OpenBabel03252506303D

 43 47  0  0  0  0  0  0  0  0999 V2000
   36.0380   29.3250   40.2300 C   0  0  0  0  0  0  0  0  0  0  0  0
   34.9700   29.5030   40.0800 H   0  0  0  0  0  0  0  0  0  0  0  0
   36.3210   28.4070   39.7080 H   0  0  0  0  0  0  0  0  0  0  0  0
   38.0810   32.1910   39.6020 C   0  0  0  0  0  0  0  0  0  0  0  0
   37.8340   31.7190   38.3010 C   0  0  0  0  0  0  0  0  0  0  0  0
   37.0550   30.6140   38.3860 C   0  0  0  0  0  0  0  0  0  0  0  0
   36.8320   30.4120   39.6770 N   0  0  0  0  0  0  0  0  0  0  0  0
   37.4330   31.3400   40.4230 N   0  0  0  0  0  0  0  0  0  0  0  0
   38.1810   32.1310   37.3550 H   0  0  0  0  0  0  0  0  0  0  0  0
   36.6770   29.9980   37.5680 H   0  0  0  0  0  0  0  0  0  0  0  0
   39.0220   35.6610   40.2270 C   0  0  0  0  0  0  0  0  0  0  0  0
   40.3710   35.5920   40.5310 C   0  0  0  0  0  0  0  0  0  0  0  0
   40.9440   34.3190   40.5120 C   0  0  0  0  0  0  0  0  0  0  0  0
   40.1770   33.2620   40.2110 N   0  0  0  0  0  0  0  0  0  0  0  0
   38.8750   33.3580   39.9220 C   0  0  0  0  0  0  0  0  0  0  0  0
   38.3010   34.5730   39.9330 N   0  0  0  0  0  0  0  0  0  0  0  0
   38.5680   36.6470   40.2390 H   0  0  0  0  0  0  0  0  0  0  0  0
   41.0180   36.4270   40.7780 H   0  0  0  0  0  0  0  0  0  0  0  0
   42.3630   34.0990   40.8140 C   0  0  0  0  0  3  0  0  0  0  0  0
   42.5500   32.8500   41.6160 C   0  0  0  0  0  2  0  0  0  0  0  0
   43.8030   33.1020   42.4190 C   0  0  0  0  0  2  0  0  0  0  0  0
   44.0750   34.5890   42.3580 C   0  0  0  0  0  2  0  0  0  0  0  0
   42.8490   35.2080   41.7250 C   0  0  0  0  0  2  0  0  0  0  0  0
   36.3270   29.1560   41.6840 C   0  0  0  0  0  0  0  0  0  0  0  0
   36.8470   30.0950   42.0090 H   0  0  0  0  0  0  0  0  0  0  0  0
   35.3700   29.1650   42.2490 H   0  0  0  0  0  0  0  0  0  0  0  0
   36.9130   26.6680   41.9230 C   0  0  0  0  0  0  0  0  0  0  0  0
   37.1540   28.0220   42.0590 C   0  0  0  0  0  0  0  0  0  0  0  0
   38.3750   28.3580   42.6420 C   0  0  0  0  0  0  0  0  0  0  0  0
   39.2780   27.4170   43.0530 C   0  0  0  0  0  0  0  0  0  0  0  0
   40.4930   27.4470   43.6290 N   0  0  0  0  0  0  0  0  0  0  0  0
   40.9730   26.2160   43.8370 C   0  0  0  0  0  0  0  0  0  0  0  0
   40.0420   25.3010   43.3820 C   0  0  0  0  0  0  0  0  0  0  0  0
   39.0100   26.0810   42.9060 C   0  0  0  0  0  0  0  0  0  0  0  0
   37.8160   25.7230   42.3350 C   0  0  0  0  0  0  0  0  0  0  0  0
   35.9460   26.4450   41.4610 H   0  0  0  0  0  0  0  0  0  0  0  0
   38.7010   29.3890   42.8120 H   0  0  0  0  0  0  0  0  0  0  0  0
   41.0350   28.3140   43.9000 H   0  0  0  0  0  0  0  0  0  0  0  0
   41.9270   25.9310   44.2840 H   0  0  0  0  0  0  0  0  0  0  0  0
   40.1240   24.2210   43.4030 H   0  0  0  0  0  0  0  0  0  0  0  0
   37.4840   24.3210   42.1550 C   0  0  0  0  0  0  0  0  0  0  0  0
   37.8330   23.6730   41.1350 O   0  0  0  0  0  0  0  0  0  0  0  0
   36.9170   23.7830   42.9040 H   0  0  0  0  0  0  0  0  0  0  0  0
  1 24  1  0  0  0  0
  2  1  1  0  0  0  0
  3  1  1  0  0  0  0
  4 15  1  0  0  0  0
  4  8  2  0  0  0  0
  5  6  2  0  0  0  0
  5  4  1  0  0  0  0
  6  7  1  0  0  0  0
  7  1  1  0  0  0  0
  7  8  1  0  0  0  0
  9  5  1  0  0  0  0
 10  6  1  0  0  0  0
 11 17  1  0  0  0  0
 11 12  1  0  0  0  0
 12 18  1  0  0  0  0
 13 12  2  0  0  0  0
 13 19  1  0  0  0  0
 14 13  1  0  0  0  0
 15 16  1  0  0  0  0
 15 14  2  0  0  0  0
 16 11  2  0  0  0  0
 19 20  1  0  0  0  0
 19 23  1  0  0  0  0
 20 21  1  0  0  0  0
 22 21  1  0  0  0  0
 23 22  1  0  0  0  0
 24 25  1  0  0  0  0
 24 28  1  0  0  0  0
 24 26  1  0  0  0  0
 27 28  2  0  0  0  0
 27 35  1  0  0  0  0
 28 29  1  0  0  0  0
 29 37  1  0  0  0  0
 29 30  2  0  0  0  0
 30 31  1  0  0  0  0
 31 32  1  0  0  0  0
 31 38  1  0  0  0  0
 32 39  1  0  0  0  0
 33 40  1  0  0  0  0
 33 32  2  0  0  0  0
 34 30  1  0  0  0  0
 34 33  1  0  0  0  0
 35 34  2  0  0  0  0
 36 27  1  0  0  0  0
 41 35  1  0  0  0  0
 41 43  1  0  0  0  0
 42 41  2  0  0  0  0
M  END
>  <minimizedAffinity>
-6.65955591

$$$$

 OpenBabel03252506303D

 43 47  0  0  0  0  0  0  0  0999 V2000
   37.3570   30.7760   37.9060 C   0  0  0  0  0  0  0  0  0  0  0  0
   37.0670   31.1480   36.9200 H   0  0  0  0  0  0  0  0  0  0  0  0
   38.1150   29.9970   37.7820 H   0  0  0  0  0  0  0  0  0  0  0  0
   39.4250   32.9720   39.8240 C   0  0  0  0  0  0  0  0  0  0  0  0
   38.1820   33.6250   39.8740 C   0  0  0  0  0  0  0  0  0  0  0  0
   37.2820   32.8910   39.1760 C   0  0  0  0  0  0  0  0  0  0  0  0
   37.9390   31.8350   38.7150 N   0  0  0  0  0  0  0  0  0  0  0  0
   39.2190   31.8610   39.0890 N   0  0  0  0  0  0  0  0  0  0  0  0
   37.9270   34.5590   40.3730 H   0  0  0  0  0  0  0  0  0  0  0  0
   36.2260   33.1080   39.0110 H   0  0  0  0  0  0  0  0  0  0  0  0
   42.0680   35.2110   40.9730 C   0  0  0  0  0  0  0  0  0  0  0  0
   42.9390   34.3790   41.6530 C   0  0  0  0  0  0  0  0  0  0  0  0
   42.5910   33.0270   41.7030 C   0  0  0  0  0  0  0  0  0  0  0  0
   41.4610   32.6220   41.1060 N   0  0  0  0  0  0  0  0  0  0  0  0
   40.6370   33.4500   40.4550 C   0  0  0  0  0  0  0  0  0  0  0  0
   40.9510   34.7550   40.3930 N   0  0  0  0  0  0  0  0  0  0  0  0
   42.3310   36.2630   40.9280 H   0  0  0  0  0  0  0  0  0  0  0  0
   43.8600   34.6750   42.1450 H   0  0  0  0  0  0  0  0  0  0  0  0
   43.4220   32.0330   42.3900 C   0  0  0  0  0  3  0  0  0  0  0  0
   42.6060   31.2280   43.3520 C   0  0  0  0  0  2  0  0  0  0  0  0
   43.5860   30.8120   44.4210 C   0  0  0  0  0  2  0  0  0  0  0  0
   44.8100   31.6850   44.2640 C   0  0  0  0  0  2  0  0  0  0  0  0
   44.4290   32.7540   43.2640 C   0  0  0  0  0  2  0  0  0  0  0  0
   36.1730   30.1830   38.5950 C   0  0  0  0  0  0  0  0  0  0  0  0
   35.6320   31.0410   39.0740 H   0  0  0  0  0  0  0  0  0  0  0  0
   35.4600   29.8040   37.8320 H   0  0  0  0  0  0  0  0  0  0  0  0
   36.6150   27.8190   39.4920 C   0  0  0  0  0  0  0  0  0  0  0  0
   36.4420   29.1850   39.6150 C   0  0  0  0  0  0  0  0  0  0  0  0
   36.5410   29.6870   40.9120 C   0  0  0  0  0  0  0  0  0  0  0  0
   36.7910   28.8890   41.9930 C   0  0  0  0  0  0  0  0  0  0  0  0
   36.9340   29.0890   43.3150 N   0  0  0  0  0  0  0  0  0  0  0  0
   37.1760   27.9460   43.9670 C   0  0  0  0  0  0  0  0  0  0  0  0
   37.1990   26.9150   43.0460 C   0  0  0  0  0  0  0  0  0  0  0  0
   36.9570   27.5370   41.8400 C   0  0  0  0  0  0  0  0  0  0  0  0
   36.8660   27.0170   40.5740 C   0  0  0  0  0  0  0  0  0  0  0  0
   36.5310   27.4640   38.4600 H   0  0  0  0  0  0  0  0  0  0  0  0
   36.4260   30.7470   41.1600 H   0  0  0  0  0  0  0  0  0  0  0  0
   36.8710   30.0180   43.8170 H   0  0  0  0  0  0  0  0  0  0  0  0
   37.3340   27.8000   45.0360 H   0  0  0  0  0  0  0  0  0  0  0  0
   37.3700   25.8650   43.2470 H   0  0  0  0  0  0  0  0  0  0  0  0
   37.0340   25.5910   40.3570 C   0  0  0  0  0  0  0  0  0  0  0  0
   36.1640   24.8920   39.7760 O   0  0  0  0  0  0  0  0  0  0  0  0
   37.9270   25.0790   40.6920 H   0  0  0  0  0  0  0  0  0  0  0  0
  1 24  1  0  0  0  0
  1  7  1  0  0  0  0
  2  1  1  0  0  0  0
  3  1  1  0  0  0  0
  4  5  1  0  0  0  0
  4 15  1  0  0  0  0
  5  9  1  0  0  0  0
  6  5  2  0  0  0  0
  7  8  1  0  0  0  0
  7  6  1  0  0  0  0
  8  4  2  0  0  0  0
 10  6  1  0  0  0  0
 11 12  1  0  0  0  0
 12 13  2  0  0  0  0
 12 18  1  0  0  0  0
 13 19  1  0  0  0  0
 14 13  1  0  0  0  0
 15 14  2  0  0  0  0
 16 15  1  0  0  0  0
 16 11  2  0  0  0  0
 17 11  1  0  0  0  0
 19 23  1  0  0  0  0
 19 20  1  0  0  0  0
 20 21  1  0  0  0  0
 22 21  1  0  0  0  0
 23 22  1  0  0  0  0
 24 25  1  0  0  0  0
 24 28  1  0  0  0  0
 26 24  1  0  0  0  0
 27 28  2  0  0  0  0
 27 35  1  0  0  0  0
 28 29  1  0  0  0  0
 29 37  1  0  0  0  0
 29 30  2  0  0  0  0
 30 31  1  0  0  0  0
 31 38  1  0  0  0  0
 31 32  1  0  0  0  0
 32 39  1  0  0  0  0
 33 40  1  0  0  0  0
 33 32  2  0  0  0  0
 34 30  1  0  0  0  0
 34 33  1  0  0  0  0
 35 34  2  0  0  0  0
 36 27  1  0  0  0  0
 41 35  1  0  0  0  0
 41 43  1  0  0  0  0
 42 41  2  0  0  0  0
M  END
>  <minimizedAffinity>
-6.604352

$$$$

 OpenBabel03252506303D

 43 47  0  0  0  0  0  0  0  0999 V2000
   35.7920   29.4220   37.9210 C   0  0  0  0  0  0  0  0  0  0  0  0
   35.1200   29.9990   37.2800 H   0  0  0  0  0  0  0  0  0  0  0  0
   36.0300   28.4760   37.4250 H   0  0  0  0  0  0  0  0  0  0  0  0
   38.4080   31.7080   38.7620 C   0  0  0  0  0  0  0  0  0  0  0  0
   39.1260   30.6350   38.2060 C   0  0  0  0  0  0  0  0  0  0  0  0
   38.2460   29.6750   37.8330 C   0  0  0  0  0  0  0  0  0  0  0  0
   37.0410   30.1320   38.1460 N   0  0  0  0  0  0  0  0  0  0  0  0
   37.1110   31.3430   38.7000 N   0  0  0  0  0  0  0  0  0  0  0  0
   40.2030   30.5390   38.0710 H   0  0  0  0  0  0  0  0  0  0  0  0
   38.4630   28.7120   37.3700 H   0  0  0  0  0  0  0  0  0  0  0  0
   38.7920   34.9050   40.4790 C   0  0  0  0  0  0  0  0  0  0  0  0
   40.1150   35.2450   40.2610 C   0  0  0  0  0  0  0  0  0  0  0  0
   40.8690   34.3430   39.5070 C   0  0  0  0  0  0  0  0  0  0  0  0
   40.2840   33.2270   39.0480 N   0  0  0  0  0  0  0  0  0  0  0  0
   39.0020   32.9240   39.2750 C   0  0  0  0  0  0  0  0  0  0  0  0
   38.2560   33.7770   39.9980 N   0  0  0  0  0  0  0  0  0  0  0  0
   38.1980   35.6010   41.0640 H   0  0  0  0  0  0  0  0  0  0  0  0
   40.6170   36.1380   40.6170 H   0  0  0  0  0  0  0  0  0  0  0  0
   42.2840   34.5760   39.1990 C   0  0  0  0  0  3  0  0  0  0  0  0
   42.5860   34.2250   37.7770 C   0  0  0  0  0  2  0  0  0  0  0  0
   44.0410   33.8250   37.7880 C   0  0  0  0  0  2  0  0  0  0  0  0
   44.4230   33.5850   39.2310 C   0  0  0  0  0  2  0  0  0  0  0  0
   43.1280   33.6130   40.0120 C   0  0  0  0  0  2  0  0  0  0  0  0
   35.1210   29.1220   39.2210 C   0  0  0  0  0  0  0  0  0  0  0  0
   34.9020   30.1160   39.6930 H   0  0  0  0  0  0  0  0  0  0  0  0
   34.1170   28.6890   39.0210 H   0  0  0  0  0  0  0  0  0  0  0  0
   36.2620   28.6140   41.4630 C   0  0  0  0  0  0  0  0  0  0  0  0
   35.8680   28.3180   40.1720 C   0  0  0  0  0  0  0  0  0  0  0  0
   36.2390   27.0570   39.7070 C   0  0  0  0  0  0  0  0  0  0  0  0
   36.9450   26.1690   40.4690 C   0  0  0  0  0  0  0  0  0  0  0  0
   37.4250   24.9260   40.2900 N   0  0  0  0  0  0  0  0  0  0  0  0
   38.0670   24.4800   41.3750 C   0  0  0  0  0  0  0  0  0  0  0  0
   38.0230   25.4660   42.3440 C   0  0  0  0  0  0  0  0  0  0  0  0
   37.3230   26.4920   41.7470 C   0  0  0  0  0  0  0  0  0  0  0  0
   36.9700   27.7260   42.2300 C   0  0  0  0  0  0  0  0  0  0  0  0
   35.9520   29.6110   41.7920 H   0  0  0  0  0  0  0  0  0  0  0  0
   35.9950   26.6870   38.7060 H   0  0  0  0  0  0  0  0  0  0  0  0
   37.3290   24.3400   39.4150 H   0  0  0  0  0  0  0  0  0  0  0  0
   38.5560   23.5160   41.5210 H   0  0  0  0  0  0  0  0  0  0  0  0
   38.4490   25.4220   43.3390 H   0  0  0  0  0  0  0  0  0  0  0  0
   37.3460   28.1180   43.5770 C   0  0  0  0  0  0  0  0  0  0  0  0
   36.6410   27.8360   44.5800 O   0  0  0  0  0  0  0  0  0  0  0  0
   38.2570   28.6730   43.7610 H   0  0  0  0  0  0  0  0  0  0  0  0
  1  7  1  0  0  0  0
  1 24  1  0  0  0  0
  2  1  1  0  0  0  0
  3  1  1  0  0  0  0
  4 15  1  0  0  0  0
  5  4  1  0  0  0  0
  6  7  1  0  0  0  0
  6  5  2  0  0  0  0
  7  8  1  0  0  0  0
  8  4  2  0  0  0  0
  9  5  1  0  0  0  0
 10  6  1  0  0  0  0
 11 17  1  0  0  0  0
 12 11  1  0  0  0  0
 12 18  1  0  0  0  0
 13 12  2  0  0  0  0
 14 15  2  0  0  0  0
 14 13  1  0  0  0  0
 15 16  1  0  0  0  0
 16 11  2  0  0  0  0
 19 13  1  0  0  0  0
 19 23  1  0  0  0  0
 20 21  1  0  0  0  0
 20 19  1  0  0  0  0
 21 22  1  0  0  0  0
 22 23  1  0  0  0  0
 24 25  1  0  0  0  0
 24 28  1  0  0  0  0
 26 24  1  0  0  0  0
 27 36  1  0  0  0  0
 27 35  1  0  0  0  0
 28 27  2  0  0  0  0
 29 28  1  0  0  0  0
 29 30  2  0  0  0  0
 30 34  1  0  0  0  0
 31 30  1  0  0  0  0
 31 32  1  0  0  0  0
 32 39  1  0  0  0  0
 32 33  2  0  0  0  0
 33 40  1  0  0  0  0
 34 35  2  0  0  0  0
 34 33  1  0  0  0  0
 35 41  1  0  0  0  0
 37 29  1  0  0  0  0
 38 31  1  0  0  0  0
 41 43  1  0  0  0  0
 41 42  2  0  0  0  0
M  END
>  <minimizedAffinity>
-6.52268076

$$$$

 OpenBabel03252506303D

 43 47  0  0  0  0  0  0  0  0999 V2000
   35.6400   29.6950   38.0640 C   0  0  0  0  0  0  0  0  0  0  0  0
   35.0380   29.1010   37.3710 H   0  0  0  0  0  0  0  0  0  0  0  0
   35.0780   30.5900   38.3450 H   0  0  0  0  0  0  0  0  0  0  0  0
   36.6650   27.3670   40.5750 C   0  0  0  0  0  0  0  0  0  0  0  0
   36.0390   28.3650   41.3420 C   0  0  0  0  0  0  0  0  0  0  0  0
   35.5920   29.3320   40.5050 C   0  0  0  0  0  0  0  0  0  0  0  0
   35.9260   28.9500   39.2800 N   0  0  0  0  0  0  0  0  0  0  0  0
   36.5670   27.7800   39.2960 N   0  0  0  0  0  0  0  0  0  0  0  0
   35.9070   28.4060   42.4220 H   0  0  0  0  0  0  0  0  0  0  0  0
   35.0620   30.2490   40.7660 H   0  0  0  0  0  0  0  0  0  0  0  0
   37.3730   23.8430   41.2080 C   0  0  0  0  0  0  0  0  0  0  0  0
   38.4070   23.8690   42.1270 C   0  0  0  0  0  0  0  0  0  0  0  0
   38.8520   25.1330   42.5220 C   0  0  0  0  0  0  0  0  0  0  0  0
   38.2670   26.2220   42.0020 N   0  0  0  0  0  0  0  0  0  0  0  0
   37.2690   26.1660   41.1140 C   0  0  0  0  0  0  0  0  0  0  0  0
   36.8250   24.9610   40.7190 N   0  0  0  0  0  0  0  0  0  0  0  0
   37.0210   22.8640   40.8960 H   0  0  0  0  0  0  0  0  0  0  0  0
   38.9000   23.0080   42.5660 H   0  0  0  0  0  0  0  0  0  0  0  0
   39.9400   25.3100   43.4890 C   0  0  0  0  0  3  0  0  0  0  0  0
   40.0320   26.7350   43.9340 C   0  0  0  0  0  2  0  0  0  0  0  0
   41.4850   26.9250   44.2940 C   0  0  0  0  0  2  0  0  0  0  0  0
   42.2450   25.7630   43.6940 C   0  0  0  0  0  2  0  0  0  0  0  0
   41.2620   25.0480   42.7940 C   0  0  0  0  0  2  0  0  0  0  0  0
   36.9090   30.1180   37.4010 C   0  0  0  0  0  0  0  0  0  0  0  0
   37.4530   29.1720   37.1390 H   0  0  0  0  0  0  0  0  0  0  0  0
   36.6710   30.5760   36.4170 H   0  0  0  0  0  0  0  0  0  0  0  0
   39.1050   30.7330   38.5790 C   0  0  0  0  0  0  0  0  0  0  0  0
   37.8030   30.9600   38.1770 C   0  0  0  0  0  0  0  0  0  0  0  0
   37.2580   32.1810   38.5720 C   0  0  0  0  0  0  0  0  0  0  0  0
   37.9590   33.0960   39.3070 C   0  0  0  0  0  0  0  0  0  0  0  0
   37.6990   34.3140   39.8150 N   0  0  0  0  0  0  0  0  0  0  0  0
   38.7500   34.8090   40.4780 C   0  0  0  0  0  0  0  0  0  0  0  0
   39.7770   33.8850   40.4220 C   0  0  0  0  0  0  0  0  0  0  0  0
   39.2500   32.8420   39.6920 C   0  0  0  0  0  0  0  0  0  0  0  0
   39.8100   31.6480   39.3150 C   0  0  0  0  0  0  0  0  0  0  0  0
   39.4970   29.7650   38.2490 H   0  0  0  0  0  0  0  0  0  0  0  0
   36.2390   32.4960   38.3270 H   0  0  0  0  0  0  0  0  0  0  0  0
   36.7910   34.8490   39.7230 H   0  0  0  0  0  0  0  0  0  0  0  0
   38.8320   35.7680   40.9920 H   0  0  0  0  0  0  0  0  0  0  0  0
   40.7630   33.9790   40.8600 H   0  0  0  0  0  0  0  0  0  0  0  0
   41.1750   31.3300   39.6960 C   0  0  0  0  0  0  0  0  0  0  0  0
   41.4520   30.7380   40.7710 O   0  0  0  0  0  0  0  0  0  0  0  0
   42.0070   31.5970   39.0580 H   0  0  0  0  0  0  0  0  0  0  0  0
  1  3  1  0  0  0  0
  1  7  1  0  0  0  0
  2  1  1  0  0  0  0
  4 15  1  0  0  0  0
  4  5  1  0  0  0  0
  5  9  1  0  0  0  0
  6 10  1  0  0  0  0
  6  5  2  0  0  0  0
  7  8  1  0  0  0  0
  7  6  1  0  0  0  0
  8  4  2  0  0  0  0
 11 12  1  0  0  0  0
 12 13  2  0  0  0  0
 12 18  1  0  0  0  0
 13 19  1  0  0  0  0
 14 13  1  0  0  0  0
 15 14  2  0  0  0  0
 16 15  1  0  0  0  0
 16 11  2  0  0  0  0
 17 11  1  0  0  0  0
 19 20  1  0  0  0  0
 20 21  1  0  0  0  0
 22 21  1  0  0  0  0
 23 19  1  0  0  0  0
 23 22  1  0  0  0  0
 24  1  1  0  0  0  0
 24 28  1  0  0  0  0
 25 24  1  0  0  0  0
 26 24  1  0  0  0  0
 27 35  1  0  0  0  0
 28 29  1  0  0  0  0
 28 27  2  0  0  0  0
 29 30  2  0  0  0  0
 30 34  1  0  0  0  0
 30 31  1  0  0  0  0
 31 32  1  0  0  0  0
 32 39  1  0  0  0  0
 33 32  2  0  0  0  0
 33 40  1  0  0  0  0
 34 33  1  0  0  0  0
 35 34  2  0  0  0  0
 35 41  1  0  0  0  0
 36 27  1  0  0  0  0
 37 29  1  0  0  0  0
 38 31  1  0  0  0  0
 41 42  2  0  0  0  0
 43 41  1  0  0  0  0
M  END
>  <minimizedAffinity>
-6.50888014

$$$$
