
 OpenBabel03252508543D

 39 42  0  0  1  0  0  0  0  0999 V2000
   43.3060   34.5040   40.7720 C   0  0  0  0  0  0  0  0  0  0  0  0
   43.2810   35.7200   40.4320 O   0  0  0  0  0  0  0  0  0  0  0  0
   41.9300   34.1260   40.4810 N   0  0  0  0  0  0  0  0  0  0  0  0
   41.5420   34.3100   39.0870 C   0  0  0  0  0  0  0  0  0  0  0  0
   40.7730   35.6240   39.0590 C   0  0  0  0  0  0  0  0  0  0  0  0
   39.9990   35.7100   40.3760 C   0  0  0  0  0  0  0  0  0  0  0  0
   39.6270   34.3300   40.8840 C   0  0  0  0  0  0  0  0  0  0  0  0
   40.9060   33.6040   41.3560 C   0  0  1  0  0  0  0  0  0  0  0  0
   42.4030   34.3060   38.4040 H   0  0  0  0  0  0  0  0  0  0  0  0
   40.8530   33.4670   38.7990 H   0  0  0  0  0  0  0  0  0  0  0  0
   40.0900   35.6860   38.1950 H   0  0  0  0  0  0  0  0  0  0  0  0
   41.5100   36.4610   39.0340 H   0  0  0  0  0  0  0  0  0  0  0  0
   39.0670   36.2360   40.1440 H   0  0  0  0  0  0  0  0  0  0  0  0
   40.5360   36.3120   41.1390 H   0  0  0  0  0  0  0  0  0  0  0  0
   39.1370   33.7990   40.0560 H   0  0  0  0  0  0  0  0  0  0  0  0
   38.9650   34.5180   41.7640 H   0  0  0  0  0  0  0  0  0  0  0  0
   41.0640   33.8970   42.4020 H   0  0  0  0  0  0  0  0  0  0  0  0
   40.6110   32.1430   41.1820 C   0  0  0  0  0  3  0  0  0  0  0  0
   40.6760   31.3150   42.4130 C   0  0  0  0  0  2  0  0  0  0  0  0
   39.8540   30.0800   42.0190 C   0  0  0  0  0  2  0  0  0  0  0  0
   38.6260   30.7700   41.4460 C   0  0  0  0  0  2  0  0  0  0  0  0
   39.1280   32.0530   40.8180 C   0  0  0  0  0  2  0  0  0  0  0  0
   44.3580   33.7750   41.2720 O   0  0  0  0  0  0  0  0  0  0  0  0
   45.6920   34.0670   41.1170 C   0  0  0  0  0  0  0  0  0  0  0  0
   46.3520   34.6920   42.1940 C   0  0  0  0  0  0  0  0  0  0  0  0
   47.7080   34.9760   42.0050 C   0  0  0  0  0  0  0  0  0  0  0  0
   48.3080   34.6470   40.8300 N   0  0  0  0  0  0  0  0  0  0  0  0
   47.6340   34.0560   39.8440 C   0  0  0  0  0  0  0  0  0  0  0  0
   46.3250   33.7650   39.9870 N   0  0  0  0  0  0  0  0  0  0  0  0
   48.2200   35.4600   42.8390 H   0  0  0  0  0  0  0  0  0  0  0  0
   48.0980   33.7870   38.9010 H   0  0  0  0  0  0  0  0  0  0  0  0
   45.6330   35.0020   43.4000 C   0  0  0  0  0  0  0  0  0  0  0  0
   45.0230   36.2380   43.6240 C   0  0  0  0  0  0  0  0  0  0  0  0
   44.4610   36.1070   44.8740 C   0  0  0  0  0  0  0  0  0  0  0  0
   44.7060   34.8860   45.3770 N   0  0  0  0  0  0  0  0  0  0  0  0
   45.4090   34.2480   44.4740 N   0  0  0  0  0  0  0  0  0  0  0  0
   44.9960   37.0960   42.9730 H   0  0  0  0  0  0  0  0  0  0  0  0
   43.9010   36.9210   45.3420 H   0  0  0  0  0  0  0  0  0  0  0  0
   44.3540   34.5960   46.3320 H   0  0  0  0  0  0  0  0  0  0  0  0
  1 23  1  0  0  0  0
  2  1  2  0  0  0  0
  3  1  1  0  0  0  0
  3  8  1  0  0  0  0
  4  3  1  0  0  0  0
  5  4  1  0  0  0  0
  5  6  1  0  0  0  0
  6  7  1  0  0  0  0
  6 14  1  0  0  0  0
  7  8  1  0  0  0  0
  7 16  1  0  0  0  0
  8 17  1  1  0  0  0
  9  4  1  0  0  0  0
 10  4  1  0  0  0  0
 11  5  1  0  0  0  0
 12  5  1  0  0  0  0
 13  6  1  0  0  0  0
 15  7  1  0  0  0  0
 18  8  1  0  0  0  0
 18 19  1  0  0  0  0
 20 19  1  0  0  0  0
 21 20  1  0  0  0  0
 22 18  1  0  0  0  0
 22 21  1  0  0  0  0
 24 23  1  0  0  0  0
 24 25  1  0  0  0  0
 25 32  1  0  0  0  0
 26 25  2  0  0  0  0
 26 30  1  0  0  0  0
 27 26  1  0  0  0  0
 28 29  1  0  0  0  0
 28 27  2  0  0  0  0
 29 24  2  0  0  0  0
 31 28  1  0  0  0  0
 32 33  1  0  0  0  0
 32 36  2  0  0  0  0
 33 34  2  0  0  0  0
 34 38  1  0  0  0  0
 34 35  1  0  0  0  0
 35 39  1  0  0  0  0
 36 35  1  0  0  0  0
 37 33  1  0  0  0  0
M  END
>  <minimizedAffinity>
-6.78657722

>  <minimizedRMSD>
0.479597539

$$$$
