
 OpenBabel03242520373D

 31 34  0  0  1  0  0  0  0  0999 V2000
   45.8370   33.5610   42.8830 C   0  0  0  0  0  0  0  0  0  0  0  0
   47.1360   33.0950   42.4570 C   0  0  0  0  0  0  0  0  0  0  0  0
   47.9550   32.5610   43.4170 C   0  0  0  0  0  0  0  0  0  0  0  0
   47.5270   32.4920   44.7020 N   0  0  0  0  0  0  0  0  0  0  0  0
   46.3020   32.9370   45.0730 C   0  0  0  0  0  0  0  0  0  0  0  0
   45.4720   33.4680   44.1490 N   0  0  0  0  0  0  0  0  0  0  0  0
   45.1860   33.9800   42.1430 H   0  0  0  0  0  0  0  0  0  0  0  0
   48.9420   32.1920   43.1760 H   0  0  0  0  0  0  0  0  0  0  0  0
   47.5820   33.2030   41.0390 C   0  0  1  0  0  0  0  0  0  0  0  0
   47.0280   34.1820   40.1570 C   0  0  0  0  0  0  0  0  0  0  0  0
   48.3900   34.4550   40.6490 C   0  0  1  0  0  0  0  0  0  0  0  0
   48.0080   32.2380   40.6800 H   0  0  0  0  0  0  0  0  0  0  0  0
   46.2310   34.8850   40.4880 H   0  0  0  0  0  0  0  0  0  0  0  0
   46.9610   33.9080   39.0690 H   0  0  0  0  0  0  0  0  0  0  0  0
   49.2790   34.2110   39.9990 H   0  0  0  0  0  0  0  0  0  0  0  0
   48.7050   35.4960   41.6530 C   0  0  0  0  0  0  0  0  0  0  0  0
   49.3310   36.5910   41.0820 F   0  0  0  0  0  0  0  0  0  0  0  0
   49.5120   34.9940   42.6760 F   0  0  0  0  0  0  0  0  0  0  0  0
   47.5160   35.9410   42.1750 F   0  0  0  0  0  0  0  0  0  0  0  0
   45.9100   32.8190   46.5040 C   0  0  2  0  0  0  0  0  0  0  0  0
   47.0120   32.2430   47.3760 C   0  0  0  0  0  0  0  0  0  0  0  0
   45.7540   31.4740   47.1250 C   0  0  2  0  0  0  0  0  0  0  0  0
   45.2890   33.6620   46.8760 H   0  0  0  0  0  0  0  0  0  0  0  0
   47.1720   32.6760   48.3860 H   0  0  0  0  0  0  0  0  0  0  0  0
   47.9230   31.8630   46.9160 H   0  0  0  0  0  0  0  0  0  0  0  0
   45.0680   31.4080   47.9960 H   0  0  0  0  0  0  0  0  0  0  0  0
   45.6790   30.3070   46.2070 C   0  0  0  0  0  0  0  0  0  0  0  0
   46.9130   29.4570   46.4330 C   0  0  0  0  0  0  0  0  0  0  0  0
   46.5790   28.4900   47.5440 C   0  0  0  0  0  0  0  0  0  0  0  0
   45.1980   28.8440   48.0170 C   0  0  0  0  0  0  0  0  0  0  0  0
   44.5750   29.3940   46.7550 C   0  0  0  0  0  0  0  0  0  0  0  0
  1  6  1  0  0  0  0
  2  1  2  0  0  0  0
  2  3  1  0  0  0  0
  3  4  2  0  0  0  0
  4  5  1  0  0  0  0
  5 20  1  0  0  0  0
  6  5  2  0  0  0  0
  7  1  1  0  0  0  0
  8  3  1  0  0  0  0
  9 12  1  6  0  0  0
  9  2  1  0  0  0  0
 10 13  1  0  0  0  0
 10 11  1  0  0  0  0
 10  9  1  0  0  0  0
 11 15  1  6  0  0  0
 11  9  1  0  0  0  0
 11 16  1  0  0  0  0
 14 10  1  0  0  0  0
 16 19  1  0  0  0  0
 16 18  1  0  0  0  0
 17 16  1  0  0  0  0
 20 23  1  1  0  0  0
 20 22  1  0  0  0  0
 20 21  1  0  0  0  0
 21 24  1  0  0  0  0
 22 21  1  0  0  0  0
 22 26  1  1  0  0  0
 25 21  1  0  0  0  0
 27 28  1  0  0  0  0
 27 31  1  0  0  0  0
 27 22  1  0  0  0  0
 28 29  1  0  0  0  0
 29 30  1  0  0  0  0
 31 30  1  0  0  0  0
M  END
>  <minimizedAffinity>
-5.40307665

>  <minimizedRMSD>
0.244826108

$$$$
