
 OpenBabel03242520423D

 35 38  0  0  1  0  0  0  0  0999 V2000
   45.8690   33.4920   45.7680 C   0  0  0  0  0  0  0  0  0  0  0  0
   46.6660   33.6470   44.6250 C   0  0  0  0  0  0  0  0  0  0  0  0
   47.3420   32.4950   44.1290 C   0  0  0  0  0  0  0  0  0  0  0  0
   47.1850   31.3030   44.7810 N   0  0  0  0  0  0  0  0  0  0  0  0
   46.4050   31.2140   45.8750 C   0  0  0  0  0  0  0  0  0  0  0  0
   45.7570   32.3020   46.3560 N   0  0  0  0  0  0  0  0  0  0  0  0
   46.3020   29.9570   46.4800 N   0  0  0  0  0  0  0  0  0  0  0  0
   47.4600   29.2920   46.9770 C   0  0  2  0  0  0  0  0  0  0  0  0
   47.2470   27.8690   47.3550 C   0  0  0  0  0  0  0  0  0  0  0  0
   45.9580   27.5000   47.8030 N   0  0  0  0  0  0  0  0  0  0  0  0
   45.0410   28.5850   47.9160 C   0  0  0  0  0  0  0  0  0  0  0  0
   45.0000   29.3240   46.6070 C   0  0  0  0  0  0  0  0  0  0  0  0
   45.3990   34.4020   46.0720 H   0  0  0  0  0  0  0  0  0  0  0  0
   46.8720   34.5030   44.0310 H   0  0  0  0  0  0  0  0  0  0  0  0
   47.9820   32.4950   43.2580 H   0  0  0  0  0  0  0  0  0  0  0  0
   48.1750   29.2410   46.0980 H   0  0  0  0  0  0  0  0  0  0  0  0
   47.5550   27.1560   46.5640 H   0  0  0  0  0  0  0  0  0  0  0  0
   47.9550   27.6660   48.2120 H   0  0  0  0  0  0  0  0  0  0  0  0
   45.9690   26.8670   48.6370 H   0  0  0  0  0  0  0  0  0  0  0  0
   44.0220   28.1110   48.0130 H   0  0  0  0  0  0  0  0  0  0  0  0
   45.1350   29.2260   48.7870 H   0  0  0  0  0  0  0  0  0  0  0  0
   44.7560   28.6440   45.7920 H   0  0  0  0  0  0  0  0  0  0  0  0
   44.2540   30.1530   46.7110 H   0  0  0  0  0  0  0  0  0  0  0  0
   48.1430   30.0720   48.0380 C   0  0  0  0  0  0  0  0  0  0  0  0
   47.6670   30.9060   49.0340 C   0  0  0  0  0  0  0  0  0  0  0  0
   48.6650   31.3970   49.7810 N   0  0  0  0  0  0  0  0  0  0  0  0
   49.7850   30.8810   49.2680 C   0  0  0  0  0  0  0  0  0  0  0  0
   49.4760   30.0860   48.2260 N   0  0  0  0  0  0  0  0  0  0  0  0
   46.6310   31.1240   49.1780 H   0  0  0  0  0  0  0  0  0  0  0  0
   48.5800   32.0510   50.5970 H   0  0  0  0  0  0  0  0  0  0  0  0
   51.1370   31.1810   49.8200 C   0  0  0  0  0  0  0  0  0  0  0  0
   51.4240   32.6450   49.9250 C   0  0  0  0  0  0  0  0  0  0  0  0
   51.5680   32.9420   51.4060 C   0  0  0  0  0  0  0  0  0  0  0  0
   52.0430   31.6260   51.9850 C   0  0  0  0  0  0  0  0  0  0  0  0
   51.1590   30.6390   51.2380 C   0  0  0  0  0  0  0  0  0  0  0  0
  1 13  1  0  0  0  0
  1  6  1  0  0  0  0
  2  1  2  0  0  0  0
  3  2  1  0  0  0  0
  3  4  2  0  0  0  0
  4  5  1  0  0  0  0
  5  6  2  0  0  0  0
  5  7  1  0  0  0  0
  7 12  1  0  0  0  0
  7  8  1  0  0  0  0
  8 16  1  6  0  0  0
  8  9  1  0  0  0  0
  8 24  1  0  0  0  0
  9 10  1  0  0  0  0
  9 18  1  0  0  0  0
 10 11  1  0  0  0  0
 10 19  1  0  0  0  0
 11 20  1  0  0  0  0
 11 21  1  0  0  0  0
 12 23  1  0  0  0  0
 12 11  1  0  0  0  0
 14  2  1  0  0  0  0
 15  3  1  0  0  0  0
 17  9  1  0  0  0  0
 22 12  1  0  0  0  0
 24 28  1  0  0  0  0
 24 25  2  0  0  0  0
 25 29  1  0  0  0  0
 25 26  1  0  0  0  0
 26 30  1  0  0  0  0
 27 26  1  0  0  0  0
 27 31  1  0  0  0  0
 28 27  2  0  0  0  0
 31 32  1  0  0  0  0
 31 35  1  0  0  0  0
 32 33  1  0  0  0  0
 33 34  1  0  0  0  0
 35 34  1  0  0  0  0
M  END
>  <minimizedAffinity>
-5.26713991

>  <minimizedRMSD>
0.227420136

$$$$
