
 OpenBabel03252509163D

 21 23  0  0  0  0  0  0  0  0999 V2000
   47.4110   33.5020   42.8860 C   0  0  0  0  0  0  0  0  0  0  0  0
   48.0590   32.3260   43.3590 C   0  0  0  0  0  0  0  0  0  0  0  0
   48.9770   31.7310   42.5560 C   0  0  0  0  0  0  0  0  0  0  0  0
   49.2460   32.3110   41.2870 C   0  0  0  0  0  0  0  0  0  0  0  0
   48.1360   33.7760   41.2340 S   0  0  0  0  0  0  0  0  0  0  0  0
   47.8060   31.9400   44.3330 H   0  0  0  0  0  0  0  0  0  0  0  0
   49.5100   30.8540   42.8110 H   0  0  0  0  0  0  0  0  0  0  0  0
   45.0020   34.7320   45.4260 C   0  0  0  0  0  0  0  0  0  0  0  0
   44.5070   35.8740   44.7440 C   0  0  0  0  0  0  0  0  0  0  0  0
   45.0090   36.1680   43.4700 C   0  0  0  0  0  0  0  0  0  0  0  0
   45.9590   35.3230   42.9560 N   0  0  0  0  0  0  0  0  0  0  0  0
   46.4000   34.2480   43.6460 C   0  0  0  0  0  0  0  0  0  0  0  0
   45.9270   33.9450   44.8790 N   0  0  0  0  0  0  0  0  0  0  0  0
   44.6100   34.5130   46.4090 H   0  0  0  0  0  0  0  0  0  0  0  0
   43.7650   36.5280   45.1540 H   0  0  0  0  0  0  0  0  0  0  0  0
   44.6820   37.0190   42.8880 H   0  0  0  0  0  0  0  0  0  0  0  0
   50.1130   31.9780   40.2260 C   0  0  0  0  0  3  0  0  0  0  0  0
   50.7770   30.6310   40.2690 C   0  0  0  0  0  2  0  0  0  0  0  0
   49.8340   29.7150   39.5770 C   0  0  0  0  0  2  0  0  0  0  0  0
   49.2340   30.5570   38.4790 C   0  0  0  0  0  2  0  0  0  0  0  0
   49.4010   31.9840   38.9010 C   0  0  0  0  0  2  0  0  0  0  0  0
  1  2  2  0  0  0  0
  1 12  1  0  0  0  0
  2  6  1  0  0  0  0
  3  7  1  0  0  0  0
  3  2  1  0  0  0  0
  4  3  2  0  0  0  0
  5  4  1  0  0  0  0
  5  1  1  0  0  0  0
  8 14  1  0  0  0  0
  9 15  1  0  0  0  0
  9  8  2  0  0  0  0
 10  9  1  0  0  0  0
 11 10  2  0  0  0  0
 11 12  1  0  0  0  0
 12 13  2  0  0  0  0
 13  8  1  0  0  0  0
 16 10  1  0  0  0  0
 17 18  1  0  0  0  0
 17  4  1  0  0  0  0
 19 18  1  0  0  0  0
 20 21  1  0  0  0  0
 20 19  1  0  0  0  0
 21 17  1  0  0  0  0
M  END
>  <minimizedAffinity>
-3.7763114

>  <minimizedRMSD>
7.15118742

$$$$
