
 OpenBabel03252509303D

 17 18  0  0  0  0  0  0  0  0999 V2000
   44.5360   36.0610   44.4620 C   0  0  0  0  0  0  0  0  0  0  0  0
   45.3620   35.8660   43.3270 C   0  0  0  0  0  0  0  0  0  0  0  0
   46.2220   34.7670   43.3560 C   0  0  0  0  0  0  0  0  0  0  0  0
   46.2280   33.9470   44.4570 N   0  0  0  0  0  0  0  0  0  0  0  0
   45.4100   34.1920   45.5110 C   0  0  0  0  0  0  0  0  0  0  0  0
   44.5750   35.2340   45.5160 N   0  0  0  0  0  0  0  0  0  0  0  0
   43.8620   36.8980   44.4740 H   0  0  0  0  0  0  0  0  0  0  0  0
   45.3090   36.5500   42.4910 H   0  0  0  0  0  0  0  0  0  0  0  0
   45.5030   33.4790   46.3200 H   0  0  0  0  0  0  0  0  0  0  0  0
   47.0790   34.5530   42.1920 C   0  0  0  0  0  0  0  0  0  0  0  0
   47.2620   35.4970   41.6570 H   0  0  0  0  0  0  0  0  0  0  0  0
   46.6550   33.7520   41.5360 H   0  0  0  0  0  0  0  0  0  0  0  0
   48.3980   34.0150   42.7080 C   0  0  0  0  0  3  0  0  0  0  0  0
   48.7080   32.6680   42.1080 C   0  0  0  0  0  2  0  0  0  0  0  0
   50.1430   32.7280   41.6150 C   0  0  0  0  0  2  0  0  0  0  0  0
   50.7060   33.8620   42.4830 C   0  0  0  0  0  2  0  0  0  0  0  0
   49.5680   34.8540   42.3010 C   0  0  0  0  0  2  0  0  0  0  0  0
  1  7  1  0  0  0  0
  1  6  1  0  0  0  0
  2  3  1  0  0  0  0
  2  1  2  0  0  0  0
  3  4  2  0  0  0  0
  4  5  1  0  0  0  0
  5  6  2  0  0  0  0
  5  9  1  0  0  0  0
  8  2  1  0  0  0  0
 10 13  1  0  0  0  0
 10  3  1  0  0  0  0
 11 10  1  0  0  0  0
 12 10  1  0  0  0  0
 14 13  1  0  0  0  0
 15 14  1  0  0  0  0
 15 16  1  0  0  0  0
 17 16  1  0  0  0  0
 17 13  1  0  0  0  0
M  END
>  <minimizedAffinity>
-4.42000675

>  <minimizedRMSD>
1.29002452

$$$$
