
 OpenBabel03252505403D

 24 26  0  0  1  0  0  0  0  0999 V2000
   45.4020   29.5300   45.7210 C   0  0  0  0  0  0  0  0  0  0  0  0
   46.6260   29.8100   45.0610 C   0  0  0  0  0  0  0  0  0  0  0  0
   47.5730   30.5740   45.7330 C   0  0  0  0  0  0  0  0  0  0  0  0
   47.2800   31.0140   46.9870 N   0  0  0  0  0  0  0  0  0  0  0  0
   46.0980   30.7250   47.5830 C   0  0  0  0  0  0  0  0  0  0  0  0
   45.1660   29.9800   46.9390 N   0  0  0  0  0  0  0  0  0  0  0  0
   46.7900   29.4340   44.0770 H   0  0  0  0  0  0  0  0  0  0  0  0
   48.5230   30.8180   45.2780 H   0  0  0  0  0  0  0  0  0  0  0  0
   44.3600   28.7240   45.0360 C   0  0  1  0  0  0  0  0  0  0  0  0
   44.0370   27.3930   45.7500 C   0  0  0  0  0  0  0  0  0  0  0  0
   43.0450   28.5010   45.6430 C   0  0  2  0  0  0  0  0  0  0  0  0
   44.6110   28.5750   43.9610 H   0  0  0  0  0  0  0  0  0  0  0  0
   44.4750   27.2360   46.7450 H   0  0  0  0  0  0  0  0  0  0  0  0
   43.8430   26.5170   45.1190 H   0  0  0  0  0  0  0  0  0  0  0  0
   42.8610   29.1220   46.5740 H   0  0  0  0  0  0  0  0  0  0  0  0
   41.8890   28.4960   44.7120 C   0  0  0  0  0  3  0  0  0  0  0  0
   40.6490   29.0820   45.3310 C   0  0  0  0  0  2  0  0  0  0  0  0
   39.7720   29.2490   44.0870 C   0  0  0  0  0  2  0  0  0  0  0  0
   40.7520   30.0050   43.1900 C   0  0  0  0  0  2  0  0  0  0  0  0
   42.0710   29.3000   43.4530 C   0  0  0  0  0  2  0  0  0  0  0  0
   45.9630   31.3100   48.9570 C   0  0  0  0  0  0  0  0  0  0  0  0
   45.8440   32.6770   48.9230 F   0  0  0  0  0  0  0  0  0  0  0  0
   47.0900   30.9850   49.7160 F   0  0  0  0  0  0  0  0  0  0  0  0
   44.8880   30.7020   49.5940 F   0  0  0  0  0  0  0  0  0  0  0  0
  1  6  1  0  0  0  0
  2  1  2  0  0  0  0
  2  3  1  0  0  0  0
  3  4  2  0  0  0  0
  4  5  1  0  0  0  0
  5 21  1  0  0  0  0
  6  5  2  0  0  0  0
  7  2  1  0  0  0  0
  8  3  1  0  0  0  0
  9 12  1  6  0  0  0
  9 11  1  0  0  0  0
  9  1  1  0  0  0  0
  9 10  1  0  0  0  0
 10 13  1  0  0  0  0
 11 10  1  0  0  0  0
 11 15  1  1  0  0  0
 14 10  1  0  0  0  0
 16 17  1  0  0  0  0
 16 11  1  0  0  0  0
 18 17  1  0  0  0  0
 19 20  1  0  0  0  0
 19 18  1  0  0  0  0
 20 16  1  0  0  0  0
 21 24  1  0  0  0  0
 21 23  1  0  0  0  0
 22 21  1  0  0  0  0
M  END
>  <minimizedAffinity>
-4.1161375

>  <minimizedRMSD>
5.87791348

$$$$
