
 OpenBabel03252508263D

 37 41  0  0  1  0  0  0  0  0999 V2000
   46.3530   32.5350   45.9150 C   0  0  1  0  0  0  0  0  0  0  0  0
   47.0050   32.6510   47.2290 C   0  0  0  0  0  0  0  0  0  0  0  0
   45.5520   32.0660   47.0290 C   0  0  2  0  0  0  0  0  0  0  0  0
   47.0680   31.8920   45.2880 H   0  0  0  0  0  0  0  0  0  0  0  0
   47.0570   33.6000   47.7790 H   0  0  0  0  0  0  0  0  0  0  0  0
   47.6430   31.8660   47.6710 H   0  0  0  0  0  0  0  0  0  0  0  0
   44.9200   32.7470   47.6840 H   0  0  0  0  0  0  0  0  0  0  0  0
   45.2830   30.6630   47.3520 C   0  0  0  0  0  0  0  0  0  0  0  0
   45.1550   30.1070   48.5860 C   0  0  0  0  0  0  0  0  0  0  0  0
   45.0300   28.7500   48.8580 C   0  0  0  0  0  0  0  0  0  0  0  0
   45.0400   27.8890   47.7490 C   0  0  0  0  0  0  0  0  0  0  0  0
   45.1670   28.4380   46.4720 C   0  0  0  0  0  0  0  0  0  0  0  0
   45.1080   27.5520   45.4130 C   0  0  0  0  0  0  0  0  0  0  0  0
   45.1600   28.0540   44.1130 C   0  0  0  0  0  0  0  0  0  0  0  0
   45.2640   29.4120   43.8880 C   0  0  0  0  0  0  0  0  0  0  0  0
   45.3200   30.2430   44.9820 C   0  0  0  0  0  0  0  0  0  0  0  0
   45.2810   29.7910   46.2920 C   0  0  0  0  0  0  0  0  0  0  0  0
   45.1540   30.8170   49.4160 H   0  0  0  0  0  0  0  0  0  0  0  0
   44.9320   28.3900   49.8760 H   0  0  0  0  0  0  0  0  0  0  0  0
   44.9470   26.8370   47.9620 H   0  0  0  0  0  0  0  0  0  0  0  0
   45.0230   26.4860   45.6160 H   0  0  0  0  0  0  0  0  0  0  0  0
   45.1080   27.2640   43.3510 H   0  0  0  0  0  0  0  0  0  0  0  0
   45.2860   29.5980   42.8440 H   0  0  0  0  0  0  0  0  0  0  0  0
   45.3110   31.2090   44.5650 H   0  0  0  0  0  0  0  0  0  0  0  0
   44.5650   35.6370   45.0160 C   0  0  0  0  0  0  0  0  0  0  0  0
   45.1080   35.9300   43.7150 C   0  0  0  0  0  0  0  0  0  0  0  0
   46.0960   35.0400   43.1920 C   0  0  0  0  0  0  0  0  0  0  0  0
   46.4750   33.9820   43.9210 N   0  0  0  0  0  0  0  0  0  0  0  0
   45.9210   33.7480   45.1620 C   0  0  0  0  0  0  0  0  0  0  0  0
   45.0000   34.5500   45.6880 N   0  0  0  0  0  0  0  0  0  0  0  0
   43.8210   36.3310   45.3800 H   0  0  0  0  0  0  0  0  0  0  0  0
   44.8020   36.7720   43.1400 H   0  0  0  0  0  0  0  0  0  0  0  0
   46.7050   35.2660   41.8670 C   0  0  0  0  0  3  0  0  0  0  0  0
   48.2170   35.2810   41.9280 C   0  0  0  0  0  2  0  0  0  0  0  0
   48.6960   34.2370   40.9600 C   0  0  0  0  0  2  0  0  0  0  0  0
   47.5590   34.0890   39.9850 C   0  0  0  0  0  2  0  0  0  0  0  0
   46.3500   34.1670   40.8710 C   0  0  0  0  0  2  0  0  0  0  0  0
  1  4  1  6  0  0  0
  1  3  1  0  0  0  0
  1  2  1  0  0  0  0
  2  6  1  0  0  0  0
  2  5  1  0  0  0  0
  3  2  1  0  0  0  0
  3  8  1  0  0  0  0
  3  7  1  1  0  0  0
  8  9  1  0  0  0  0
  9 10  2  0  0  0  0
  9 18  1  0  0  0  0
 10 19  1  0  0  0  0
 11 20  1  0  0  0  0
 11 10  1  0  0  0  0
 12 11  2  0  0  0  0
 13 21  1  0  0  0  0
 13 12  1  0  0  0  0
 14 13  2  0  0  0  0
 15 14  1  0  0  0  0
 15 16  2  0  0  0  0
 16 17  1  0  0  0  0
 17 12  1  0  0  0  0
 17  8  2  0  0  0  0
 22 14  1  0  0  0  0
 23 15  1  0  0  0  0
 24 16  1  0  0  0  0
 25 31  1  0  0  0  0
 25 30  1  0  0  0  0
 26 25  2  0  0  0  0
 27 26  1  0  0  0  0
 27 28  2  0  0  0  0
 28 29  1  0  0  0  0
 29 30  2  0  0  0  0
 29  1  1  0  0  0  0
 32 26  1  0  0  0  0
 33 34  1  0  0  0  0
 33 27  1  0  0  0  0
 35 34  1  0  0  0  0
 36 37  1  0  0  0  0
 36 35  1  0  0  0  0
 37 33  1  0  0  0  0
M  END
>  <minimizedAffinity>
-5.97720242

>  <minimizedRMSD>
0.388583928

$$$$
