
 OpenBabel03252508543D

 39 42  0  0  1  0  0  0  0  0999 V2000
   43.3090   34.5040   40.7710 C   0  0  0  0  0  0  0  0  0  0  0  0
   43.2840   35.7200   40.4330 O   0  0  0  0  0  0  0  0  0  0  0  0
   41.9310   34.1270   40.4810 N   0  0  0  0  0  0  0  0  0  0  0  0
   41.5430   34.3130   39.0880 C   0  0  0  0  0  0  0  0  0  0  0  0
   40.7750   35.6260   39.0610 C   0  0  0  0  0  0  0  0  0  0  0  0
   40.0020   35.7120   40.3780 C   0  0  0  0  0  0  0  0  0  0  0  0
   39.6290   34.3330   40.8860 C   0  0  0  0  0  0  0  0  0  0  0  0
   40.9080   33.6050   41.3560 C   0  0  1  0  0  0  0  0  0  0  0  0
   42.4040   34.3080   38.4030 H   0  0  0  0  0  0  0  0  0  0  0  0
   40.8530   33.4700   38.8000 H   0  0  0  0  0  0  0  0  0  0  0  0
   40.0910   35.6900   38.1970 H   0  0  0  0  0  0  0  0  0  0  0  0
   41.5120   36.4640   39.0360 H   0  0  0  0  0  0  0  0  0  0  0  0
   39.0700   36.2390   40.1470 H   0  0  0  0  0  0  0  0  0  0  0  0
   40.5390   36.3130   41.1420 H   0  0  0  0  0  0  0  0  0  0  0  0
   39.1380   33.8020   40.0580 H   0  0  0  0  0  0  0  0  0  0  0  0
   38.9680   34.5210   41.7660 H   0  0  0  0  0  0  0  0  0  0  0  0
   41.0670   33.8980   42.4030 H   0  0  0  0  0  0  0  0  0  0  0  0
   40.6120   32.1450   41.1820 C   0  0  0  0  0  3  0  0  0  0  0  0
   40.6780   31.3160   42.4130 C   0  0  0  0  0  2  0  0  0  0  0  0
   39.8540   30.0800   42.0180 C   0  0  0  0  0  2  0  0  0  0  0  0
   38.6280   30.7710   41.4450 C   0  0  0  0  0  2  0  0  0  0  0  0
   39.1300   32.0550   40.8180 C   0  0  0  0  0  2  0  0  0  0  0  0
   44.3600   33.7740   41.2700 O   0  0  0  0  0  0  0  0  0  0  0  0
   45.6940   34.0660   41.1160 C   0  0  0  0  0  0  0  0  0  0  0  0
   46.3540   34.6920   42.1930 C   0  0  0  0  0  0  0  0  0  0  0  0
   47.7090   34.9760   42.0040 C   0  0  0  0  0  0  0  0  0  0  0  0
   48.3100   34.6470   40.8300 N   0  0  0  0  0  0  0  0  0  0  0  0
   47.6360   34.0550   39.8440 C   0  0  0  0  0  0  0  0  0  0  0  0
   46.3270   33.7640   39.9860 N   0  0  0  0  0  0  0  0  0  0  0  0
   48.2210   35.4600   42.8380 H   0  0  0  0  0  0  0  0  0  0  0  0
   48.1020   33.7860   38.9010 H   0  0  0  0  0  0  0  0  0  0  0  0
   45.6340   35.0020   43.3990 C   0  0  0  0  0  0  0  0  0  0  0  0
   45.0250   36.2380   43.6220 C   0  0  0  0  0  0  0  0  0  0  0  0
   44.4610   36.1080   44.8720 C   0  0  0  0  0  0  0  0  0  0  0  0
   44.7050   34.8860   45.3750 N   0  0  0  0  0  0  0  0  0  0  0  0
   45.4090   34.2480   44.4720 N   0  0  0  0  0  0  0  0  0  0  0  0
   44.9990   37.0970   42.9720 H   0  0  0  0  0  0  0  0  0  0  0  0
   43.9020   36.9220   45.3400 H   0  0  0  0  0  0  0  0  0  0  0  0
   44.3520   34.5960   46.3300 H   0  0  0  0  0  0  0  0  0  0  0  0
  1 23  1  0  0  0  0
  2  1  2  0  0  0  0
  3  1  1  0  0  0  0
  3  8  1  0  0  0  0
  4  3  1  0  0  0  0
  5  4  1  0  0  0  0
  5  6  1  0  0  0  0
  6  7  1  0  0  0  0
  6 14  1  0  0  0  0
  7  8  1  0  0  0  0
  7 16  1  0  0  0  0
  8 17  1  1  0  0  0
  9  4  1  0  0  0  0
 10  4  1  0  0  0  0
 11  5  1  0  0  0  0
 12  5  1  0  0  0  0
 13  6  1  0  0  0  0
 15  7  1  0  0  0  0
 18  8  1  0  0  0  0
 18 19  1  0  0  0  0
 20 19  1  0  0  0  0
 21 20  1  0  0  0  0
 22 18  1  0  0  0  0
 22 21  1  0  0  0  0
 24 23  1  0  0  0  0
 24 25  1  0  0  0  0
 25 32  1  0  0  0  0
 26 25  2  0  0  0  0
 26 30  1  0  0  0  0
 27 26  1  0  0  0  0
 28 29  1  0  0  0  0
 28 27  2  0  0  0  0
 29 24  2  0  0  0  0
 31 28  1  0  0  0  0
 32 33  1  0  0  0  0
 32 36  2  0  0  0  0
 33 34  2  0  0  0  0
 34 38  1  0  0  0  0
 34 35  1  0  0  0  0
 35 39  1  0  0  0  0
 36 35  1  0  0  0  0
 37 33  1  0  0  0  0
M  END
>  <minimizedAffinity>
-6.78703642

>  <minimizedRMSD>
0.806402266

$$$$
