
 OpenBabel03252507363D

 28 31  0  0  0  0  0  0  0  0999 V2000
   47.8110   33.7490   42.0840 C   0  0  0  0  0  0  0  0  0  0  0  0
   48.1310   32.4090   41.9710 C   0  0  0  0  0  0  0  0  0  0  0  0
   48.4590   31.9080   40.7360 C   0  0  0  0  0  0  0  0  0  0  0  0
   48.4790   32.7030   39.5990 C   0  0  0  0  0  0  0  0  0  0  0  0
   48.7690   32.4160   38.3060 N   0  0  0  0  0  0  0  0  0  0  0  0
   48.6300   33.5960   37.5950 C   0  0  0  0  0  0  0  0  0  0  0  0
   48.2590   34.5660   38.4770 N   0  0  0  0  0  0  0  0  0  0  0  0
   48.1620   34.0370   39.7060 C   0  0  0  0  0  0  0  0  0  0  0  0
   47.8310   34.5550   40.9400 C   0  0  0  0  0  0  0  0  0  0  0  0
   47.5380   34.2660   42.9820 H   0  0  0  0  0  0  0  0  0  0  0  0
   48.6980   30.8530   40.7190 H   0  0  0  0  0  0  0  0  0  0  0  0
   49.0370   31.4710   37.9880 H   0  0  0  0  0  0  0  0  0  0  0  0
   48.8140   33.6040   36.5280 H   0  0  0  0  0  0  0  0  0  0  0  0
   47.5890   35.6080   40.9720 H   0  0  0  0  0  0  0  0  0  0  0  0
   47.3190   31.0150   45.3820 C   0  0  0  0  0  0  0  0  0  0  0  0
   47.2550   31.8640   44.2510 C   0  0  0  0  0  0  0  0  0  0  0  0
   48.0950   31.6150   43.1910 C   0  0  0  0  0  0  0  0  0  0  0  0
   48.9490   30.5690   43.2770 N   0  0  0  0  0  0  0  0  0  0  0  0
   49.0070   29.7580   44.3640 C   0  0  0  0  0  0  0  0  0  0  0  0
   48.2020   29.9840   45.3930 N   0  0  0  0  0  0  0  0  0  0  0  0
   46.5760   32.6950   44.1830 H   0  0  0  0  0  0  0  0  0  0  0  0
   49.6970   28.9280   44.4110 H   0  0  0  0  0  0  0  0  0  0  0  0
   46.4690   31.2700   46.4470 O   0  0  0  0  0  0  0  0  0  0  0  0
   46.6670   30.5360   47.6400 C   0  0  0  0  0  3  0  0  0  0  0  0
   45.3640   30.0990   48.2650 C   0  0  0  0  0  2  0  0  0  0  0  0
   44.9680   31.2060   49.2480 C   0  0  0  0  0  2  0  0  0  0  0  0
   45.9530   32.3280   48.9470 C   0  0  0  0  0  2  0  0  0  0  0  0
   47.2160   31.5290   48.6730 C   0  0  0  0  0  2  0  0  0  0  0  0
  1 10  1  0  0  0  0
  2  1  1  0  0  0  0
  2 17  1  0  0  0  0
  3  2  2  0  0  0  0
  4  8  2  0  0  0  0
  4  3  1  0  0  0  0
  5  4  1  0  0  0  0
  6  5  1  0  0  0  0
  6  7  2  0  0  0  0
  7  8  1  0  0  0  0
  8  9  1  0  0  0  0
  9 14  1  0  0  0  0
  9  1  2  0  0  0  0
 11  3  1  0  0  0  0
 12  5  1  0  0  0  0
 13  6  1  0  0  0  0
 15 20  1  0  0  0  0
 15 23  1  0  0  0  0
 16 15  2  0  0  0  0
 17 18  2  0  0  0  0
 17 16  1  0  0  0  0
 18 19  1  0  0  0  0
 19 22  1  0  0  0  0
 19 20  2  0  0  0  0
 21 16  1  0  0  0  0
 23 24  1  0  0  0  0
 24 25  1  0  0  0  0
 24 28  1  0  0  0  0
 25 26  1  0  0  0  0
 27 26  1  0  0  0  0
 28 27  1  0  0  0  0
M  END
>  <minimizedAffinity>
-4.81497478

>  <minimizedRMSD>
3.31508708

$$$$
