
 OpenBabel03252507533D

 34 37  0  0  1  0  0  0  0  0999 V2000
   46.6970   34.7140   41.9990 C   0  0  2  0  0  0  0  0  0  0  0  0
   45.8360   34.2420   40.8550 C   0  0  0  0  0  0  0  0  0  0  0  0
   46.9420   33.9020   39.8560 C   0  0  0  0  0  0  0  0  0  0  0  0
   48.0910   33.3900   40.7090 C   0  0  1  0  0  0  0  0  0  0  0  0
   47.6400   33.5150   42.1160 C   0  0  0  0  0  0  0  0  0  0  0  0
   47.2500   35.6180   41.7430 H   0  0  0  0  0  0  0  0  0  0  0  0
   45.1650   35.0290   40.4620 H   0  0  0  0  0  0  0  0  0  0  0  0
   45.2800   33.3600   41.1860 H   0  0  0  0  0  0  0  0  0  0  0  0
   46.5820   33.1580   39.1200 H   0  0  0  0  0  0  0  0  0  0  0  0
   47.2520   34.8680   39.4090 H   0  0  0  0  0  0  0  0  0  0  0  0
   48.9890   34.0290   40.5870 H   0  0  0  0  0  0  0  0  0  0  0  0
   46.8990   32.7870   42.4810 H   0  0  0  0  0  0  0  0  0  0  0  0
   48.3820   33.8630   42.8370 H   0  0  0  0  0  0  0  0  0  0  0  0
   44.4740   36.1350   44.6980 C   0  0  0  0  0  0  0  0  0  0  0  0
   45.1230   36.0310   43.4560 C   0  0  0  0  0  0  0  0  0  0  0  0
   45.9460   34.9170   43.2670 C   0  0  0  0  0  0  0  0  0  0  0  0
   46.0970   33.9720   44.2780 N   0  0  0  0  0  0  0  0  0  0  0  0
   45.4390   34.1370   45.4520 C   0  0  0  0  0  0  0  0  0  0  0  0
   44.6420   35.2000   45.6590 N   0  0  0  0  0  0  0  0  0  0  0  0
   43.8290   36.9850   44.8780 H   0  0  0  0  0  0  0  0  0  0  0  0
   45.0140   36.7540   42.6680 H   0  0  0  0  0  0  0  0  0  0  0  0
   45.6460   33.3320   46.1460 H   0  0  0  0  0  0  0  0  0  0  0  0
   48.4180   31.9650   40.4740 C   0  0  2  0  0  0  0  0  0  0  0  0
   47.8580   30.9710   41.4170 C   0  0  0  0  0  0  0  0  0  0  0  0
   49.3400   31.1370   41.1780 C   0  0  2  0  0  0  0  0  0  0  0  0
   48.1960   31.7320   39.3840 H   0  0  0  0  0  0  0  0  0  0  0  0
   47.3090   30.0910   40.9640 H   0  0  0  0  0  0  0  0  0  0  0  0
   47.7060   30.9720   42.4710 H   0  0  0  0  0  0  0  0  0  0  0  0
   49.7310   30.2640   40.5470 H   0  0  0  0  0  0  0  0  0  0  0  0
   50.3370   31.4300   42.2130 C   0  0  0  0  0  3  0  0  0  0  0  0
   51.3310   32.4490   41.7550 C   0  0  0  0  0  2  0  0  0  0  0  0
   52.0420   31.6580   40.6450 C   0  0  0  0  0  2  0  0  0  0  0  0
   52.0900   30.2360   41.1850 C   0  0  0  0  0  2  0  0  0  0  0  0
   51.2460   30.2310   42.4410 C   0  0  0  0  0  2  0  0  0  0  0  0
  1  6  1  6  0  0  0
  1  5  1  0  0  0  0
  1 16  1  0  0  0  0
  2  8  1  0  0  0  0
  2  1  1  0  0  0  0
  3  4  1  0  0  0  0
  3  2  1  0  0  0  0
  4 11  1  6  0  0  0
  4  5  1  0  0  0  0
  5 12  1  0  0  0  0
  5 13  1  0  0  0  0
  7  2  1  0  0  0  0
  9  3  1  0  0  0  0
 10  3  1  0  0  0  0
 14 20  1  0  0  0  0
 14 19  1  0  0  0  0
 15 14  2  0  0  0  0
 16 15  1  0  0  0  0
 16 17  2  0  0  0  0
 17 18  1  0  0  0  0
 18 19  2  0  0  0  0
 18 22  1  0  0  0  0
 21 15  1  0  0  0  0
 23 26  1  6  0  0  0
 23  4  1  0  0  0  0
 23 25  1  0  0  0  0
 23 24  1  0  0  0  0
 24 28  1  0  0  0  0
 25 29  1  6  0  0  0
 25 24  1  0  0  0  0
 25 30  1  0  0  0  0
 27 24  1  0  0  0  0
 30 34  1  0  0  0  0
 31 30  1  0  0  0  0
 32 33  1  0  0  0  0
 32 31  1  0  0  0  0
 33 34  1  0  0  0  0
M  END
>  <minimizedAffinity>
-4.72609472

>  <minimizedRMSD>
2.35839033

$$$$
