
 OpenBabel03252508263D

 37 41  0  0  1  0  0  0  0  0999 V2000
   46.3590   32.5250   45.9680 C   0  0  1  0  0  0  0  0  0  0  0  0
   46.9940   32.6560   47.2880 C   0  0  0  0  0  0  0  0  0  0  0  0
   45.5450   32.0660   47.0760 C   0  0  2  0  0  0  0  0  0  0  0  0
   47.0830   31.8770   45.3560 H   0  0  0  0  0  0  0  0  0  0  0  0
   47.0370   33.6100   47.8300 H   0  0  0  0  0  0  0  0  0  0  0  0
   47.6290   31.8760   47.7460 H   0  0  0  0  0  0  0  0  0  0  0  0
   44.9040   32.7520   47.7160 H   0  0  0  0  0  0  0  0  0  0  0  0
   45.2750   30.6660   47.4100 C   0  0  0  0  0  0  0  0  0  0  0  0
   45.1480   30.1190   48.6480 C   0  0  0  0  0  0  0  0  0  0  0  0
   45.0220   28.7630   48.9300 C   0  0  0  0  0  0  0  0  0  0  0  0
   45.0300   27.8950   47.8280 C   0  0  0  0  0  0  0  0  0  0  0  0
   45.1560   28.4330   46.5470 C   0  0  0  0  0  0  0  0  0  0  0  0
   45.0960   27.5410   45.4950 C   0  0  0  0  0  0  0  0  0  0  0  0
   45.1480   28.0330   44.1910 C   0  0  0  0  0  0  0  0  0  0  0  0
   45.2530   29.3890   43.9560 C   0  0  0  0  0  0  0  0  0  0  0  0
   45.3110   30.2270   45.0430 C   0  0  0  0  0  0  0  0  0  0  0  0
   45.2720   29.7860   46.3570 C   0  0  0  0  0  0  0  0  0  0  0  0
   45.1480   30.8340   49.4720 H   0  0  0  0  0  0  0  0  0  0  0  0
   44.9240   28.4110   49.9510 H   0  0  0  0  0  0  0  0  0  0  0  0
   44.9360   26.8440   48.0480 H   0  0  0  0  0  0  0  0  0  0  0  0
   45.0100   26.4760   45.7050 H   0  0  0  0  0  0  0  0  0  0  0  0
   45.0940   27.2370   43.4350 H   0  0  0  0  0  0  0  0  0  0  0  0
   45.2740   29.5670   42.9100 H   0  0  0  0  0  0  0  0  0  0  0  0
   45.3020   31.1910   44.6190 H   0  0  0  0  0  0  0  0  0  0  0  0
   44.5690   35.6100   45.0110 C   0  0  0  0  0  0  0  0  0  0  0  0
   45.1340   35.8960   43.7180 C   0  0  0  0  0  0  0  0  0  0  0  0
   46.1370   35.0070   43.2210 C   0  0  0  0  0  0  0  0  0  0  0  0
   46.5090   33.9580   43.9650 N   0  0  0  0  0  0  0  0  0  0  0  0
   45.9330   33.7300   45.1970 C   0  0  0  0  0  0  0  0  0  0  0  0
   44.9990   34.5300   45.7000 N   0  0  0  0  0  0  0  0  0  0  0  0
   43.8150   36.3020   45.3560 H   0  0  0  0  0  0  0  0  0  0  0  0
   44.8350   36.7310   43.1320 H   0  0  0  0  0  0  0  0  0  0  0  0
   46.7690   35.2270   41.9060 C   0  0  0  0  0  3  0  0  0  0  0  0
   48.2790   35.1420   41.9760 C   0  0  0  0  0  2  0  0  0  0  0  0
   48.6960   34.0930   40.9840 C   0  0  0  0  0  2  0  0  0  0  0  0
   47.5590   34.0430   39.9990 C   0  0  0  0  0  2  0  0  0  0  0  0
   46.3520   34.1780   40.8790 C   0  0  0  0  0  2  0  0  0  0  0  0
  1  4  1  6  0  0  0
  1  3  1  0  0  0  0
  1  2  1  0  0  0  0
  2  6  1  0  0  0  0
  2  5  1  0  0  0  0
  3  2  1  0  0  0  0
  3  8  1  0  0  0  0
  3  7  1  1  0  0  0
  8  9  1  0  0  0  0
  9 10  2  0  0  0  0
  9 18  1  0  0  0  0
 10 19  1  0  0  0  0
 11 20  1  0  0  0  0
 11 10  1  0  0  0  0
 12 11  2  0  0  0  0
 13 21  1  0  0  0  0
 13 12  1  0  0  0  0
 14 13  2  0  0  0  0
 15 14  1  0  0  0  0
 15 16  2  0  0  0  0
 16 17  1  0  0  0  0
 17 12  1  0  0  0  0
 17  8  2  0  0  0  0
 22 14  1  0  0  0  0
 23 15  1  0  0  0  0
 24 16  1  0  0  0  0
 25 31  1  0  0  0  0
 25 30  1  0  0  0  0
 26 25  2  0  0  0  0
 27 26  1  0  0  0  0
 27 28  2  0  0  0  0
 28 29  1  0  0  0  0
 29 30  2  0  0  0  0
 29  1  1  0  0  0  0
 32 26  1  0  0  0  0
 33 34  1  0  0  0  0
 33 27  1  0  0  0  0
 35 34  1  0  0  0  0
 36 37  1  0  0  0  0
 36 35  1  0  0  0  0
 37 33  1  0  0  0  0
M  END
>  <minimizedAffinity>
-5.97061682

>  <minimizedRMSD>
0.473324805

$$$$
