
 OpenBabel03242520343D

 24 26  0  0  1  0  0  0  0  0999 V2000
   35.8510   30.0990   40.6960 C   0  0  0  0  0  0  0  0  0  0  0  0
   37.0130   30.9340   40.7620 C   0  0  0  0  0  0  0  0  0  0  0  0
   38.1510   30.4390   41.3710 C   0  0  0  0  0  0  0  0  0  0  0  0
   38.1070   29.1700   41.8830 N   0  0  0  0  0  0  0  0  0  0  0  0
   37.0160   28.4140   41.8090 C   0  0  0  0  0  0  0  0  0  0  0  0
   35.9030   28.8700   41.2240 N   0  0  0  0  0  0  0  0  0  0  0  0
   35.0010   30.5530   40.2050 H   0  0  0  0  0  0  0  0  0  0  0  0
   39.0430   31.0460   41.4350 H   0  0  0  0  0  0  0  0  0  0  0  0
   37.0020   32.3270   40.2060 C   0  0  1  0  0  0  0  0  0  0  0  0
   38.2280   32.9410   39.7470 C   0  0  0  0  0  0  0  0  0  0  0  0
   37.2590   32.4970   38.7130 C   0  0  1  0  0  0  0  0  0  0  0  0
   36.1250   32.8890   40.5480 H   0  0  0  0  0  0  0  0  0  0  0  0
   39.2020   32.4300   39.7720 H   0  0  0  0  0  0  0  0  0  0  0  0
   38.3210   34.0470   39.8930 H   0  0  0  0  0  0  0  0  0  0  0  0
   36.6360   33.2720   38.1830 H   0  0  0  0  0  0  0  0  0  0  0  0
   37.5270   31.3150   37.8530 C   0  0  0  0  0  0  0  0  0  0  0  0
   36.4360   30.4670   37.7750 F   0  0  0  0  0  0  0  0  0  0  0  0
   38.6290   30.5830   38.2930 F   0  0  0  0  0  0  0  0  0  0  0  0
   37.7790   31.7630   36.5790 F   0  0  0  0  0  0  0  0  0  0  0  0
   37.0540   27.0450   42.3910 C   0  0  0  0  0  3  0  0  0  0  0  0
   37.0570   25.9670   41.3060 C   0  0  0  0  0  2  0  0  0  0  0  0
   37.7530   24.8510   42.0960 C   0  0  0  0  0  2  0  0  0  0  0  0
   38.9960   25.6280   42.5330 C   0  0  0  0  0  2  0  0  0  0  0  0
   38.2920   26.8070   43.2160 C   0  0  0  0  0  2  0  0  0  0  0  0
  1  2  2  0  0  0  0
  1  6  1  0  0  0  0
  2  3  1  0  0  0  0
  3  8  1  0  0  0  0
  3  4  2  0  0  0  0
  5  4  1  0  0  0  0
  5 20  1  0  0  0  0
  6  5  2  0  0  0  0
  7  1  1  0  0  0  0
  9 12  1  1  0  0  0
  9  2  1  0  0  0  0
 10 13  1  0  0  0  0
 10 14  1  0  0  0  0
 10  9  1  0  0  0  0
 11 15  1  6  0  0  0
 11 10  1  0  0  0  0
 11  9  1  0  0  0  0
 16 18  1  0  0  0  0
 16 11  1  0  0  0  0
 17 16  1  0  0  0  0
 19 16  1  0  0  0  0
 20 24  1  0  0  0  0
 21 22  1  0  0  0  0
 21 20  1  0  0  0  0
 22 23  1  0  0  0  0
 23 24  1  0  0  0  0
M  END
>  <minimizedAffinity>
-5.21305752

$$$$

 OpenBabel03242520343D

 24 26  0  0  1  0  0  0  0  0999 V2000
   39.0940   28.1890   40.5350 C   0  0  0  0  0  0  0  0  0  0  0  0
   39.1910   27.8600   41.9250 C   0  0  0  0  0  0  0  0  0  0  0  0
   38.6320   28.7220   42.8500 C   0  0  0  0  0  0  0  0  0  0  0  0
   38.0140   29.8520   42.3870 N   0  0  0  0  0  0  0  0  0  0  0  0
   37.9360   30.1350   41.0900 C   0  0  0  0  0  0  0  0  0  0  0  0
   38.4680   29.3160   40.1760 N   0  0  0  0  0  0  0  0  0  0  0  0
   39.5530   27.4690   39.8720 H   0  0  0  0  0  0  0  0  0  0  0  0
   38.6890   28.4990   43.9070 H   0  0  0  0  0  0  0  0  0  0  0  0
   39.9010   26.6210   42.3840 C   0  0  1  0  0  0  0  0  0  0  0  0
   39.6100   26.0490   43.6800 C   0  0  0  0  0  0  0  0  0  0  0  0
   39.0890   25.3350   42.4860 C   0  0  1  0  0  0  0  0  0  0  0  0
   40.8470   26.4780   41.8480 H   0  0  0  0  0  0  0  0  0  0  0  0
   38.8680   26.4740   44.3720 H   0  0  0  0  0  0  0  0  0  0  0  0
   40.4620   25.5570   44.2140 H   0  0  0  0  0  0  0  0  0  0  0  0
   39.6020   24.3900   42.1490 H   0  0  0  0  0  0  0  0  0  0  0  0
   37.6390   25.3290   42.1560 C   0  0  0  0  0  0  0  0  0  0  0  0
   37.4030   25.6350   40.8270 F   0  0  0  0  0  0  0  0  0  0  0  0
   36.9140   26.2140   42.9520 F   0  0  0  0  0  0  0  0  0  0  0  0
   37.1590   24.0580   42.3650 F   0  0  0  0  0  0  0  0  0  0  0  0
   37.2460   31.3850   40.6720 C   0  0  0  0  0  3  0  0  0  0  0  0
   38.2020   32.5780   40.6410 C   0  0  0  0  0  2  0  0  0  0  0  0
   37.4640   33.4350   39.6030 C   0  0  0  0  0  2  0  0  0  0  0  0
   37.3600   32.3930   38.4880 C   0  0  0  0  0  2  0  0  0  0  0  0
   36.6650   31.2820   39.2850 C   0  0  0  0  0  2  0  0  0  0  0  0
  1  2  1  0  0  0  0
  2  9  1  0  0  0  0
  2  3  2  0  0  0  0
  3  8  1  0  0  0  0
  4  3  1  0  0  0  0
  5  4  2  0  0  0  0
  6  1  2  0  0  0  0
  6  5  1  0  0  0  0
  7  1  1  0  0  0  0
  9 12  1  6  0  0  0
  9 11  1  0  0  0  0
  9 10  1  0  0  0  0
 10 14  1  0  0  0  0
 10 13  1  0  0  0  0
 11 15  1  6  0  0  0
 11 10  1  0  0  0  0
 16 19  1  0  0  0  0
 16 11  1  0  0  0  0
 16 18  1  0  0  0  0
 17 16  1  0  0  0  0
 20  5  1  0  0  0  0
 21 20  1  0  0  0  0
 22 21  1  0  0  0  0
 23 24  1  0  0  0  0
 23 22  1  0  0  0  0
 24 20  1  0  0  0  0
M  END
>  <minimizedAffinity>
-5.05353355

$$$$

 OpenBabel03242520343D

 24 26  0  0  1  0  0  0  0  0999 V2000
   38.1810   29.9080   42.0440 C   0  0  0  0  0  0  0  0  0  0  0  0
   36.9150   29.8100   41.3830 C   0  0  0  0  0  0  0  0  0  0  0  0
   36.2590   28.5930   41.3860 C   0  0  0  0  0  0  0  0  0  0  0  0
   36.8590   27.5390   42.0230 N   0  0  0  0  0  0  0  0  0  0  0  0
   38.0350   27.6570   42.6300 C   0  0  0  0  0  0  0  0  0  0  0  0
   38.6890   28.8240   42.6420 N   0  0  0  0  0  0  0  0  0  0  0  0
   38.6330   30.8900   42.0010 H   0  0  0  0  0  0  0  0  0  0  0  0
   35.3020   28.4880   40.8950 H   0  0  0  0  0  0  0  0  0  0  0  0
   36.3100   30.9880   40.6780 C   0  0  1  0  0  0  0  0  0  0  0  0
   37.1350   32.1090   40.2890 C   0  0  0  0  0  0  0  0  0  0  0  0
   36.6720   31.1980   39.2120 C   0  0  1  0  0  0  0  0  0  0  0  0
   35.2300   31.0520   40.8570 H   0  0  0  0  0  0  0  0  0  0  0  0
   38.2180   32.1530   40.4770 H   0  0  0  0  0  0  0  0  0  0  0  0
   36.6550   33.1200   40.3200 H   0  0  0  0  0  0  0  0  0  0  0  0
   35.8380   31.5370   38.5340 H   0  0  0  0  0  0  0  0  0  0  0  0
   37.6070   30.2710   38.5230 C   0  0  0  0  0  0  0  0  0  0  0  0
   37.1290   28.9720   38.4940 F   0  0  0  0  0  0  0  0  0  0  0  0
   38.8710   30.2660   39.1100 F   0  0  0  0  0  0  0  0  0  0  0  0
   37.7320   30.6810   37.2180 F   0  0  0  0  0  0  0  0  0  0  0  0
   38.6170   26.4620   43.2990 C   0  0  0  0  0  3  0  0  0  0  0  0
   38.5690   25.2270   42.3970 C   0  0  0  0  0  2  0  0  0  0  0  0
   39.7470   24.4550   43.0050 C   0  0  0  0  0  2  0  0  0  0  0  0
   40.8090   25.5500   42.8980 C   0  0  0  0  0  2  0  0  0  0  0  0
   40.0670   26.6550   43.6600 C   0  0  0  0  0  2  0  0  0  0  0  0
  1  6  1  0  0  0  0
  2  3  1  0  0  0  0
  2  1  2  0  0  0  0
  3  4  2  0  0  0  0
  4  5  1  0  0  0  0
  5  6  2  0  0  0  0
  5 20  1  0  0  0  0
  7  1  1  0  0  0  0
  8  3  1  0  0  0  0
  9 12  1  1  0  0  0
  9  2  1  0  0  0  0
 10 14  1  0  0  0  0
 10 13  1  0  0  0  0
 10  9  1  0  0  0  0
 11 15  1  6  0  0  0
 11 10  1  0  0  0  0
 11  9  1  0  0  0  0
 16 18  1  0  0  0  0
 16 11  1  0  0  0  0
 17 16  1  0  0  0  0
 19 16  1  0  0  0  0
 20 24  1  0  0  0  0
 21 22  1  0  0  0  0
 21 20  1  0  0  0  0
 23 22  1  0  0  0  0
 23 24  1  0  0  0  0
M  END
>  <minimizedAffinity>
-4.95381737

$$$$

 OpenBabel03242520343D

 24 26  0  0  1  0  0  0  0  0999 V2000
   37.7030   29.9020   39.1320 C   0  0  0  0  0  0  0  0  0  0  0  0
   37.2230   31.1520   39.6400 C   0  0  0  0  0  0  0  0  0  0  0  0
   36.5450   31.1610   40.8450 C   0  0  0  0  0  0  0  0  0  0  0  0
   36.3660   29.9680   41.4920 N   0  0  0  0  0  0  0  0  0  0  0  0
   36.8230   28.8200   41.0000 C   0  0  0  0  0  0  0  0  0  0  0  0
   37.4820   28.7860   39.8360 N   0  0  0  0  0  0  0  0  0  0  0  0
   38.2230   29.9750   38.1870 H   0  0  0  0  0  0  0  0  0  0  0  0
   36.1720   32.0890   41.2550 H   0  0  0  0  0  0  0  0  0  0  0  0
   37.4230   32.4300   38.8810 C   0  0  1  0  0  0  0  0  0  0  0  0
   37.3190   33.7050   39.5550 C   0  0  0  0  0  0  0  0  0  0  0  0
   38.6790   33.2420   39.1780 C   0  0  1  0  0  0  0  0  0  0  0  0
   37.2590   32.2890   37.8060 H   0  0  0  0  0  0  0  0  0  0  0  0
   37.1040   33.8020   40.6290 H   0  0  0  0  0  0  0  0  0  0  0  0
   36.9060   34.5570   38.9570 H   0  0  0  0  0  0  0  0  0  0  0  0
   39.1900   33.7160   38.2920 H   0  0  0  0  0  0  0  0  0  0  0  0
   39.6530   32.7790   40.2000 C   0  0  0  0  0  0  0  0  0  0  0  0
   40.2510   31.5800   39.8500 F   0  0  0  0  0  0  0  0  0  0  0  0
   39.0690   32.6340   41.4570 F   0  0  0  0  0  0  0  0  0  0  0  0
   40.6560   33.7150   40.2890 F   0  0  0  0  0  0  0  0  0  0  0  0
   36.5850   27.5680   41.7680 C   0  0  0  0  0  3  0  0  0  0  0  0
   37.0130   26.3290   40.9780 C   0  0  0  0  0  2  0  0  0  0  0  0
   37.2940   25.3920   42.1600 C   0  0  0  0  0  2  0  0  0  0  0  0
   38.2620   26.2910   42.9320 C   0  0  0  0  0  2  0  0  0  0  0  0
   37.3650   27.5280   43.0560 C   0  0  0  0  0  2  0  0  0  0  0  0
  1  2  2  0  0  0  0
  1  6  1  0  0  0  0
  2  3  1  0  0  0  0
  3  8  1  0  0  0  0
  3  4  2  0  0  0  0
  5  4  1  0  0  0  0
  5 20  1  0  0  0  0
  6  5  2  0  0  0  0
  7  1  1  0  0  0  0
  9 12  1  6  0  0  0
  9 11  1  0  0  0  0
  9 10  1  0  0  0  0
  9  2  1  0  0  0  0
 10 13  1  0  0  0  0
 11 15  1  6  0  0  0
 11 10  1  0  0  0  0
 11 16  1  0  0  0  0
 14 10  1  0  0  0  0
 16 19  1  0  0  0  0
 16 18  1  0  0  0  0
 17 16  1  0  0  0  0
 20 24  1  0  0  0  0
 21 20  1  0  0  0  0
 21 22  1  0  0  0  0
 22 23  1  0  0  0  0
 23 24  1  0  0  0  0
M  END
>  <minimizedAffinity>
-4.8549509

$$$$

 OpenBabel03242520343D

 24 26  0  0  1  0  0  0  0  0999 V2000
   38.6710   29.5890   39.3550 C   0  0  0  0  0  0  0  0  0  0  0  0
   38.9090   30.5430   40.3960 C   0  0  0  0  0  0  0  0  0  0  0  0
   38.4360   30.2700   41.6660 C   0  0  0  0  0  0  0  0  0  0  0  0
   37.7590   29.0960   41.8630 N   0  0  0  0  0  0  0  0  0  0  0  0
   37.5520   28.2260   40.8790 C   0  0  0  0  0  0  0  0  0  0  0  0
   38.0000   28.4670   39.6430 N   0  0  0  0  0  0  0  0  0  0  0  0
   39.0710   29.8710   38.3910 H   0  0  0  0  0  0  0  0  0  0  0  0
   38.6010   30.9710   42.4720 H   0  0  0  0  0  0  0  0  0  0  0  0
   39.6350   31.8270   40.1240 C   0  0  1  0  0  0  0  0  0  0  0  0
   39.7850   32.3100   38.7700 C   0  0  0  0  0  0  0  0  0  0  0  0
   38.8140   33.0180   39.6430 C   0  0  1  0  0  0  0  0  0  0  0  0
   40.3110   32.0890   40.9480 H   0  0  0  0  0  0  0  0  0  0  0  0
   39.3790   31.7820   37.8950 H   0  0  0  0  0  0  0  0  0  0  0  0
   40.7310   32.8630   38.5360 H   0  0  0  0  0  0  0  0  0  0  0  0
   39.0950   34.0240   40.0660 H   0  0  0  0  0  0  0  0  0  0  0  0
   37.3480   32.8900   39.4360 C   0  0  0  0  0  0  0  0  0  0  0  0
   36.7050   32.3800   40.5510 F   0  0  0  0  0  0  0  0  0  0  0  0
   37.0380   32.0890   38.3390 F   0  0  0  0  0  0  0  0  0  0  0  0
   36.8360   34.1470   39.2190 F   0  0  0  0  0  0  0  0  0  0  0  0
   36.8060   26.9730   41.1790 C   0  0  0  0  0  3  0  0  0  0  0  0
   37.0910   25.8830   40.1440 C   0  0  0  0  0  2  0  0  0  0  0  0
   36.8000   24.6560   41.0200 C   0  0  0  0  0  2  0  0  0  0  0  0
   37.7310   24.9910   42.1870 C   0  0  0  0  0  2  0  0  0  0  0  0
   37.1840   26.3860   42.5140 C   0  0  0  0  0  2  0  0  0  0  0  0
  1  6  2  0  0  0  0
  1  2  1  0  0  0  0
  2  3  2  0  0  0  0
  3  4  1  0  0  0  0
  3  8  1  0  0  0  0
  5 20  1  0  0  0  0
  5  4  2  0  0  0  0
  6  5  1  0  0  0  0
  7  1  1  0  0  0  0
  9  2  1  0  0  0  0
  9 12  1  1  0  0  0
 10 11  1  0  0  0  0
 10  9  1  0  0  0  0
 11 15  1  1  0  0  0
 11  9  1  0  0  0  0
 13 10  1  0  0  0  0
 14 10  1  0  0  0  0
 16 11  1  0  0  0  0
 16 17  1  0  0  0  0
 18 16  1  0  0  0  0
 19 16  1  0  0  0  0
 20 24  1  0  0  0  0
 21 22  1  0  0  0  0
 21 20  1  0  0  0  0
 22 23  1  0  0  0  0
 23 24  1  0  0  0  0
M  END
>  <minimizedAffinity>
-4.84398413

$$$$

 OpenBabel03242520343D

 24 26  0  0  1  0  0  0  0  0999 V2000
   36.9100   26.7140   40.1610 C   0  0  0  0  0  0  0  0  0  0  0  0
   36.9650   26.5400   41.5820 C   0  0  0  0  0  0  0  0  0  0  0  0
   36.7670   27.6430   42.3920 C   0  0  0  0  0  0  0  0  0  0  0  0
   36.5280   28.8490   41.7910 N   0  0  0  0  0  0  0  0  0  0  0  0
   36.4810   28.9840   40.4690 C   0  0  0  0  0  0  0  0  0  0  0  0
   36.6680   27.9330   39.6640 N   0  0  0  0  0  0  0  0  0  0  0  0
   37.0730   25.8080   39.5940 H   0  0  0  0  0  0  0  0  0  0  0  0
   36.8030   27.5420   43.4680 H   0  0  0  0  0  0  0  0  0  0  0  0
   37.2550   25.2010   42.1920 C   0  0  1  0  0  0  0  0  0  0  0  0
   37.9110   24.1710   41.4180 C   0  0  0  0  0  0  0  0  0  0  0  0
   38.7110   24.8480   42.4690 C   0  0  1  0  0  0  0  0  0  0  0  0
   36.6040   25.0020   43.0520 H   0  0  0  0  0  0  0  0  0  0  0  0
   38.2300   24.3140   40.3750 H   0  0  0  0  0  0  0  0  0  0  0  0
   37.6100   23.1140   41.6320 H   0  0  0  0  0  0  0  0  0  0  0  0
   38.9200   24.3010   43.4320 H   0  0  0  0  0  0  0  0  0  0  0  0
   39.7990   25.8010   42.1240 C   0  0  0  0  0  0  0  0  0  0  0  0
   39.7340   26.9630   42.8740 F   0  0  0  0  0  0  0  0  0  0  0  0
   39.7900   26.1430   40.7730 F   0  0  0  0  0  0  0  0  0  0  0  0
   41.0000   25.2020   42.4170 F   0  0  0  0  0  0  0  0  0  0  0  0
   36.2150   30.3320   39.8980 C   0  0  0  0  0  3  0  0  0  0  0  0
   37.1130   31.4010   40.5240 C   0  0  0  0  0  2  0  0  0  0  0  0
   37.1170   32.4040   39.3630 C   0  0  0  0  0  2  0  0  0  0  0  0
   37.5670   31.4550   38.2510 C   0  0  0  0  0  2  0  0  0  0  0  0
   36.4770   30.3880   38.4150 C   0  0  0  0  0  2  0  0  0  0  0  0
  1  2  1  0  0  0  0
  2  9  1  0  0  0  0
  2  3  2  0  0  0  0
  3  8  1  0  0  0  0
  4  3  1  0  0  0  0
  5  4  2  0  0  0  0
  6  1  2  0  0  0  0
  6  5  1  0  0  0  0
  7  1  1  0  0  0  0
  9 11  1  0  0  0  0
  9 12  1  1  0  0  0
 10 14  1  0  0  0  0
 10  9  1  0  0  0  0
 10 11  1  0  0  0  0
 11 15  1  1  0  0  0
 13 10  1  0  0  0  0
 16 19  1  0  0  0  0
 16 11  1  0  0  0  0
 16 17  1  0  0  0  0
 18 16  1  0  0  0  0
 20  5  1  0  0  0  0
 20 21  1  0  0  0  0
 22 21  1  0  0  0  0
 23 24  1  0  0  0  0
 23 22  1  0  0  0  0
 24 20  1  0  0  0  0
M  END
>  <minimizedAffinity>
-4.78273249

$$$$

 OpenBabel03242520343D

 24 26  0  0  1  0  0  0  0  0999 V2000
   38.4510   27.7200   41.1150 C   0  0  0  0  0  0  0  0  0  0  0  0
   38.4000   27.8310   42.5420 C   0  0  0  0  0  0  0  0  0  0  0  0
   37.7990   28.9450   43.0980 C   0  0  0  0  0  0  0  0  0  0  0  0
   37.2820   29.8890   42.2520 N   0  0  0  0  0  0  0  0  0  0  0  0
   37.3420   29.7620   40.9300 C   0  0  0  0  0  0  0  0  0  0  0  0
   37.9180   28.6930   40.3670 N   0  0  0  0  0  0  0  0  0  0  0  0
   38.9350   26.8230   40.7540 H   0  0  0  0  0  0  0  0  0  0  0  0
   37.7440   29.0560   44.1720 H   0  0  0  0  0  0  0  0  0  0  0  0
   39.0020   26.7810   43.4270 C   0  0  1  0  0  0  0  0  0  0  0  0
   39.8630   25.7620   42.8710 C   0  0  0  0  0  0  0  0  0  0  0  0
   40.5050   26.8360   43.6700 C   0  0  1  0  0  0  0  0  0  0  0  0
   38.4300   26.6620   44.3560 H   0  0  0  0  0  0  0  0  0  0  0  0
   40.1220   25.7100   41.8030 H   0  0  0  0  0  0  0  0  0  0  0  0
   39.8190   24.7500   43.3500 H   0  0  0  0  0  0  0  0  0  0  0  0
   40.8520   26.6020   44.7170 H   0  0  0  0  0  0  0  0  0  0  0  0
   41.3370   27.8890   43.0310 C   0  0  0  0  0  0  0  0  0  0  0  0
   40.7960   29.1530   43.1940 F   0  0  0  0  0  0  0  0  0  0  0  0
   41.5240   27.6580   41.6690 F   0  0  0  0  0  0  0  0  0  0  0  0
   42.5650   27.8970   43.6470 F   0  0  0  0  0  0  0  0  0  0  0  0
   36.7560   30.8350   40.0810 C   0  0  0  0  0  3  0  0  0  0  0  0
   37.3910   32.1960   40.3700 C   0  0  0  0  0  2  0  0  0  0  0  0
   37.1350   32.8600   39.0100 C   0  0  0  0  0  2  0  0  0  0  0  0
   37.7720   31.7920   38.1190 C   0  0  0  0  0  2  0  0  0  0  0  0
   36.9660   30.5830   38.6110 C   0  0  0  0  0  2  0  0  0  0  0  0
  1  2  1  0  0  0  0
  2  3  2  0  0  0  0
  2  9  1  0  0  0  0
  3  8  1  0  0  0  0
  4  3  1  0  0  0  0
  5  4  2  0  0  0  0
  6  5  1  0  0  0  0
  6  1  2  0  0  0  0
  7  1  1  0  0  0  0
  9 11  1  0  0  0  0
  9 12  1  1  0  0  0
 10 14  1  0  0  0  0
 10  9  1  0  0  0  0
 10 11  1  0  0  0  0
 11 15  1  1  0  0  0
 13 10  1  0  0  0  0
 16 17  1  0  0  0  0
 16 19  1  0  0  0  0
 16 11  1  0  0  0  0
 18 16  1  0  0  0  0
 20 21  1  0  0  0  0
 20  5  1  0  0  0  0
 22 21  1  0  0  0  0
 23 24  1  0  0  0  0
 23 22  1  0  0  0  0
 24 20  1  0  0  0  0
M  END
>  <minimizedAffinity>
-4.75104618

$$$$

 OpenBabel03242520343D

 24 26  0  0  1  0  0  0  0  0999 V2000
   37.4690   26.5150   39.8570 C   0  0  0  0  0  0  0  0  0  0  0  0
   37.0670   26.3040   41.2150 C   0  0  0  0  0  0  0  0  0  0  0  0
   36.8600   27.4060   42.0240 C   0  0  0  0  0  0  0  0  0  0  0  0
   37.0520   28.6480   41.4810 N   0  0  0  0  0  0  0  0  0  0  0  0
   37.4260   28.8180   40.2170 C   0  0  0  0  0  0  0  0  0  0  0  0
   37.6320   27.7680   39.4150 N   0  0  0  0  0  0  0  0  0  0  0  0
   37.6110   25.6080   39.2870 H   0  0  0  0  0  0  0  0  0  0  0  0
   36.5550   27.2780   43.0530 H   0  0  0  0  0  0  0  0  0  0  0  0
   36.8920   24.9210   41.7700 C   0  0  1  0  0  0  0  0  0  0  0  0
   37.5120   23.7890   41.1190 C   0  0  0  0  0  0  0  0  0  0  0  0
   38.1080   24.2510   42.3990 C   0  0  1  0  0  0  0  0  0  0  0  0
   36.0000   24.8530   42.4040 H   0  0  0  0  0  0  0  0  0  0  0  0
   38.1340   23.8800   40.2160 H   0  0  0  0  0  0  0  0  0  0  0  0
   36.9530   22.8190   41.1580 H   0  0  0  0  0  0  0  0  0  0  0  0
   37.9210   23.6510   43.3350 H   0  0  0  0  0  0  0  0  0  0  0  0
   39.4200   24.9490   42.4380 C   0  0  0  0  0  0  0  0  0  0  0  0
   39.3550   26.1470   43.1280 F   0  0  0  0  0  0  0  0  0  0  0  0
   39.9220   25.1970   41.1620 F   0  0  0  0  0  0  0  0  0  0  0  0
   40.3100   24.1470   43.1110 F   0  0  0  0  0  0  0  0  0  0  0  0
   37.6130   30.2030   39.7070 C   0  0  0  0  0  3  0  0  0  0  0  0
   36.5980   31.1730   40.3140 C   0  0  0  0  0  2  0  0  0  0  0  0
   37.4100   32.4680   40.1780 C   0  0  0  0  0  2  0  0  0  0  0  0
   38.6830   32.0070   40.8900 C   0  0  0  0  0  2  0  0  0  0  0  0
   38.9720   30.7600   40.0450 C   0  0  0  0  0  2  0  0  0  0  0  0
  1  2  1  0  0  0  0
  2  9  1  0  0  0  0
  2  3  2  0  0  0  0
  3  8  1  0  0  0  0
  4  3  1  0  0  0  0
  5  4  2  0  0  0  0
  6  1  2  0  0  0  0
  6  5  1  0  0  0  0
  7  1  1  0  0  0  0
  9 11  1  0  0  0  0
  9 12  1  1  0  0  0
 10 14  1  0  0  0  0
 10  9  1  0  0  0  0
 10 11  1  0  0  0  0
 11 16  1  0  0  0  0
 11 15  1  1  0  0  0
 13 10  1  0  0  0  0
 16 19  1  0  0  0  0
 16 17  1  0  0  0  0
 18 16  1  0  0  0  0
 20 24  1  0  0  0  0
 20  5  1  0  0  0  0
 20 21  1  0  0  0  0
 22 21  1  0  0  0  0
 22 23  1  0  0  0  0
 24 23  1  0  0  0  0
M  END
>  <minimizedAffinity>
-4.67577696

$$$$

 OpenBabel03242520343D

 24 26  0  0  1  0  0  0  0  0999 V2000
   37.1610   26.7460   40.3550 C   0  0  0  0  0  0  0  0  0  0  0  0
   36.9640   27.2620   41.6760 C   0  0  0  0  0  0  0  0  0  0  0  0
   36.1880   28.3950   41.8360 C   0  0  0  0  0  0  0  0  0  0  0  0
   35.6470   28.9680   40.7170 N   0  0  0  0  0  0  0  0  0  0  0  0
   35.8450   28.4690   39.5000 C   0  0  0  0  0  0  0  0  0  0  0  0
   36.5910   27.3740   39.3200 N   0  0  0  0  0  0  0  0  0  0  0  0
   37.7780   25.8590   40.3090 H   0  0  0  0  0  0  0  0  0  0  0  0
   36.0210   28.8070   42.8210 H   0  0  0  0  0  0  0  0  0  0  0  0
   37.5980   26.6110   42.8690 C   0  0  1  0  0  0  0  0  0  0  0  0
   38.8430   25.8870   42.7320 C   0  0  0  0  0  0  0  0  0  0  0  0
   38.8940   27.2130   43.4000 C   0  0  1  0  0  0  0  0  0  0  0  0
   36.8650   26.4260   43.6630 H   0  0  0  0  0  0  0  0  0  0  0  0
   39.3780   25.7880   41.7760 H   0  0  0  0  0  0  0  0  0  0  0  0
   38.9810   24.9960   43.3960 H   0  0  0  0  0  0  0  0  0  0  0  0
   39.0050   27.2540   44.5210 H   0  0  0  0  0  0  0  0  0  0  0  0
   39.5060   28.3940   42.7360 C   0  0  0  0  0  0  0  0  0  0  0  0
   38.7880   29.5550   42.9670 F   0  0  0  0  0  0  0  0  0  0  0  0
   39.6340   28.2170   41.3600 F   0  0  0  0  0  0  0  0  0  0  0  0
   40.7570   28.5840   43.2720 F   0  0  0  0  0  0  0  0  0  0  0  0
   35.2200   29.1550   38.3360 C   0  0  0  0  0  3  0  0  0  0  0  0
   35.8690   28.7350   37.0160 C   0  0  0  0  0  2  0  0  0  0  0  0
   34.6820   29.0080   36.0820 C   0  0  0  0  0  2  0  0  0  0  0  0
   33.6260   28.1800   36.8170 C   0  0  0  0  0  2  0  0  0  0  0  0
   33.7550   28.8320   38.1990 C   0  0  0  0  0  2  0  0  0  0  0  0
  1  2  1  0  0  0  0
  2  3  2  0  0  0  0
  2  9  1  0  0  0  0
  3  8  1  0  0  0  0
  4  3  1  0  0  0  0
  5  4  2  0  0  0  0
  6  5  1  0  0  0  0
  6  1  2  0  0  0  0
  7  1  1  0  0  0  0
  9 11  1  0  0  0  0
  9 12  1  1  0  0  0
 10  9  1  0  0  0  0
 10 14  1  0  0  0  0
 10 11  1  0  0  0  0
 11 15  1  1  0  0  0
 13 10  1  0  0  0  0
 16 17  1  0  0  0  0
 16 19  1  0  0  0  0
 16 11  1  0  0  0  0
 18 16  1  0  0  0  0
 20  5  1  0  0  0  0
 21 20  1  0  0  0  0
 22 23  1  0  0  0  0
 22 21  1  0  0  0  0
 23 24  1  0  0  0  0
 24 20  1  0  0  0  0
M  END
>  <minimizedAffinity>
-4.65497684

$$$$
