
 OpenBabel03242510283D

 14 15  0  0  0  0  0  0  0  0999 V2000
   44.5060   35.8890   44.7230 C   0  0  0  0  0  0  0  0  0  0  0  0
   45.1110   36.0420   43.4690 C   0  0  0  0  0  0  0  0  0  0  0  0
   46.0650   35.0920   43.0890 C   0  0  0  0  0  0  0  0  0  0  0  0
   46.3530   34.0700   43.9580 N   0  0  0  0  0  0  0  0  0  0  0  0
   45.7460   33.9620   45.1550 C   0  0  0  0  0  0  0  0  0  0  0  0
   44.8290   34.8610   45.5400 N   0  0  0  0  0  0  0  0  0  0  0  0
   43.7750   36.6840   44.9220 H   0  0  0  0  0  0  0  0  0  0  0  0
   44.8740   36.8540   42.7890 H   0  0  0  0  0  0  0  0  0  0  0  0
   46.0010   33.1380   45.8190 H   0  0  0  0  0  0  0  0  0  0  0  0
   46.7700   35.1400   41.8000 C   0  0  0  0  0  0  0  0  0  0  0  0
   46.8660   33.8120   41.0870 C   0  0  0  0  0  0  0  0  0  0  0  0
   47.7860   34.2110   39.9330 C   0  0  0  0  0  0  0  0  0  0  0  0
   48.7150   35.2510   40.5220 C   0  0  0  0  0  0  0  0  0  0  0  0
   48.2540   35.4490   41.9580 C   0  0  0  0  0  0  0  0  0  0  0  0
  1  7  1  0  0  0  0
  1  6  1  0  0  0  0
  2  1  2  0  0  0  0
  3  2  1  0  0  0  0
  3  4  2  0  0  0  0
  4  5  1  0  0  0  0
  5  6  2  0  0  0  0
  5  9  1  0  0  0  0
  8  2  1  0  0  0  0
 10 14  1  0  0  0  0
 10  3  1  0  0  0  0
 11 10  1  0  0  0  0
 12 13  1  0  0  0  0
 12 11  1  0  0  0  0
 13 14  1  0  0  0  0
M  END
>  <minimizedAffinity>
-4.45750904

>  <minimizedRMSD>
1.4644506

$$$$
