
 OpenBabel03242511553D

 30 32  0  0  1  0  0  0  0  0999 V2000
   37.4500   27.0540   42.4890 C   0  0  2  0  0  0  0  0  0  0  0  0
   38.2320   27.4800   43.6640 C   0  0  0  0  0  0  0  0  0  0  0  0
   39.6450   26.9850   43.6670 C   0  0  0  0  0  0  0  0  0  0  0  0
   39.7610   25.4830   43.4680 C   0  0  0  0  0  0  0  0  0  0  0  0
   38.7720   24.9220   42.4900 C   0  0  0  0  0  0  0  0  0  0  0  0
   38.1450   25.9980   41.6420 C   0  0  1  0  0  0  0  0  0  0  0  0
   36.4570   26.5930   42.7710 H   0  0  0  0  0  0  0  0  0  0  0  0
   38.2480   28.5480   43.8740 H   0  0  0  0  0  0  0  0  0  0  0  0
   37.7490   27.0120   44.5720 H   0  0  0  0  0  0  0  0  0  0  0  0
   40.0020   27.1430   44.7300 H   0  0  0  0  0  0  0  0  0  0  0  0
   40.3590   27.5310   43.0600 H   0  0  0  0  0  0  0  0  0  0  0  0
   40.8000   25.2960   43.1280 H   0  0  0  0  0  0  0  0  0  0  0  0
   39.6810   24.9300   44.4430 H   0  0  0  0  0  0  0  0  0  0  0  0
   38.0080   24.3420   43.0480 H   0  0  0  0  0  0  0  0  0  0  0  0
   39.2790   24.2170   41.8260 H   0  0  0  0  0  0  0  0  0  0  0  0
   38.9240   26.4770   41.0400 H   0  0  0  0  0  0  0  0  0  0  0  0
   37.1120   28.1800   41.5980 C   0  0  0  0  0  0  0  0  0  0  0  0
   38.2040   28.8310   40.9930 C   0  0  0  0  0  0  0  0  0  0  0  0
   37.9950   29.9120   40.1280 C   0  0  0  0  0  0  0  0  0  0  0  0
   36.6890   30.2770   39.9250 N   0  0  0  0  0  0  0  0  0  0  0  0
   35.6540   29.6340   40.5200 C   0  0  0  0  0  0  0  0  0  0  0  0
   35.8680   28.5870   41.3540 N   0  0  0  0  0  0  0  0  0  0  0  0
   39.2570   28.6130   41.0950 H   0  0  0  0  0  0  0  0  0  0  0  0
   38.7760   30.4540   39.6330 H   0  0  0  0  0  0  0  0  0  0  0  0
   34.6690   30.0160   40.2790 H   0  0  0  0  0  0  0  0  0  0  0  0
   37.1300   25.4180   40.7140 C   0  0  0  0  0  3  0  0  0  0  0  0
   37.6080   25.2610   39.2910 C   0  0  0  0  0  2  0  0  0  0  0  0
   37.7170   23.7490   39.1100 C   0  0  0  0  0  2  0  0  0  0  0  0
   36.5240   23.2370   39.8700 C   0  0  0  0  0  2  0  0  0  0  0  0
   36.5710   24.0950   41.1200 C   0  0  0  0  0  2  0  0  0  0  0  0
  1  7  1  1  0  0  0
  1  2  1  0  0  0  0
  2  3  1  0  0  0  0
  2  8  1  0  0  0  0
  2  9  1  0  0  0  0
  3 10  1  0  0  0  0
  4  3  1  0  0  0  0
  4 13  1  0  0  0  0
  5 14  1  0  0  0  0
  5  4  1  0  0  0  0
  6 16  1  6  0  0  0
  6  1  1  0  0  0  0
  6  5  1  0  0  0  0
 11  3  1  0  0  0  0
 12  4  1  0  0  0  0
 15  5  1  0  0  0  0
 17  1  1  0  0  0  0
 18 23  1  0  0  0  0
 18 17  2  0  0  0  0
 19 18  1  0  0  0  0
 20 19  2  0  0  0  0
 20 21  1  0  0  0  0
 21 22  2  0  0  0  0
 22 17  1  0  0  0  0
 24 19  1  0  0  0  0
 25 21  1  0  0  0  0
 26 30  1  0  0  0  0
 26  6  1  0  0  0  0
 27 26  1  0  0  0  0
 28 27  1  0  0  0  0
 28 29  1  0  0  0  0
 29 30  1  0  0  0  0
M  END
>  <minimizedAffinity>
-4.86262608

$$$$

 OpenBabel03242511553D

 30 32  0  0  1  0  0  0  0  0999 V2000
   37.5490   26.5560   42.5760 C   0  0  2  0  0  0  0  0  0  0  0  0
   36.6510   27.6900   42.8650 C   0  0  0  0  0  0  0  0  0  0  0  0
   37.2280   29.0270   42.5170 C   0  0  0  0  0  0  0  0  0  0  0  0
   38.6020   29.2690   43.1210 C   0  0  0  0  0  0  0  0  0  0  0  0
   39.4810   28.0540   43.1360 C   0  0  0  0  0  0  0  0  0  0  0  0
   38.9670   26.9750   42.2190 C   0  0  1  0  0  0  0  0  0  0  0  0
   37.6640   25.8560   43.4560 H   0  0  0  0  0  0  0  0  0  0  0  0
   35.6500   27.6340   42.4430 H   0  0  0  0  0  0  0  0  0  0  0  0
   36.4950   27.7130   43.9830 H   0  0  0  0  0  0  0  0  0  0  0  0
   36.5650   29.7730   43.0510 H   0  0  0  0  0  0  0  0  0  0  0  0
   37.1840   29.3260   41.4750 H   0  0  0  0  0  0  0  0  0  0  0  0
   39.0630   30.0810   42.5220 H   0  0  0  0  0  0  0  0  0  0  0  0
   38.5270   29.6930   44.1590 H   0  0  0  0  0  0  0  0  0  0  0  0
   39.5730   27.6950   44.1820 H   0  0  0  0  0  0  0  0  0  0  0  0
   40.4860   28.3300   42.8080 H   0  0  0  0  0  0  0  0  0  0  0  0
   38.9840   27.3450   41.1890 H   0  0  0  0  0  0  0  0  0  0  0  0
   37.0510   25.7090   41.4750 C   0  0  0  0  0  0  0  0  0  0  0  0
   36.9190   26.3440   40.2250 C   0  0  0  0  0  0  0  0  0  0  0  0
   36.4560   25.6310   39.1120 C   0  0  0  0  0  0  0  0  0  0  0  0
   36.1480   24.3130   39.3280 N   0  0  0  0  0  0  0  0  0  0  0  0
   36.2830   23.7230   40.5420 C   0  0  0  0  0  0  0  0  0  0  0  0
   36.7340   24.4220   41.6120 N   0  0  0  0  0  0  0  0  0  0  0  0
   37.1360   27.3700   39.9660 H   0  0  0  0  0  0  0  0  0  0  0  0
   36.3310   26.0470   38.1330 H   0  0  0  0  0  0  0  0  0  0  0  0
   36.0090   22.6760   40.5840 H   0  0  0  0  0  0  0  0  0  0  0  0
   39.8330   25.7610   42.2920 C   0  0  0  0  0  3  0  0  0  0  0  0
   40.7410   25.5720   41.1020 C   0  0  0  0  0  2  0  0  0  0  0  0
   42.1360   25.8310   41.6660 C   0  0  0  0  0  2  0  0  0  0  0  0
   42.0640   25.2010   43.0290 C   0  0  0  0  0  2  0  0  0  0  0  0
   40.6990   25.6620   43.5040 C   0  0  0  0  0  2  0  0  0  0  0  0
  1  2  1  0  0  0  0
  1  7  1  1  0  0  0
  2  9  1  0  0  0  0
  3  2  1  0  0  0  0
  3 10  1  0  0  0  0
  3  4  1  0  0  0  0
  4  5  1  0  0  0  0
  4 13  1  0  0  0  0
  5 14  1  0  0  0  0
  6 16  1  6  0  0  0
  6 26  1  0  0  0  0
  6  1  1  0  0  0  0
  6  5  1  0  0  0  0
  8  2  1  0  0  0  0
 11  3  1  0  0  0  0
 12  4  1  0  0  0  0
 15  5  1  0  0  0  0
 17 22  1  0  0  0  0
 17  1  1  0  0  0  0
 18 17  2  0  0  0  0
 19 20  2  0  0  0  0
 19 18  1  0  0  0  0
 20 21  1  0  0  0  0
 21 25  1  0  0  0  0
 21 22  2  0  0  0  0
 23 18  1  0  0  0  0
 24 19  1  0  0  0  0
 26 30  1  0  0  0  0
 27 28  1  0  0  0  0
 27 26  1  0  0  0  0
 28 29  1  0  0  0  0
 29 30  1  0  0  0  0
M  END
>  <minimizedAffinity>
-4.79697466

$$$$

 OpenBabel03242511553D

 30 32  0  0  1  0  0  0  0  0999 V2000
   37.5220   30.1000   41.6030 C   0  0  2  0  0  0  0  0  0  0  0  0
   38.2670   29.5870   42.7670 C   0  0  0  0  0  0  0  0  0  0  0  0
   38.6580   28.1460   42.6530 C   0  0  0  0  0  0  0  0  0  0  0  0
   37.4930   27.2270   42.3190 C   0  0  0  0  0  0  0  0  0  0  0  0
   36.5120   27.8180   41.3510 C   0  0  0  0  0  0  0  0  0  0  0  0
   37.0800   29.0150   40.6330 C   0  0  1  0  0  0  0  0  0  0  0  0
   36.5700   30.6340   41.8960 H   0  0  0  0  0  0  0  0  0  0  0  0
   39.1480   30.1520   43.0670 H   0  0  0  0  0  0  0  0  0  0  0  0
   37.5720   29.6380   43.6560 H   0  0  0  0  0  0  0  0  0  0  0  0
   38.9460   27.8420   43.7050 H   0  0  0  0  0  0  0  0  0  0  0  0
   39.5360   27.9190   42.0580 H   0  0  0  0  0  0  0  0  0  0  0  0
   37.9400   26.2980   41.9100 H   0  0  0  0  0  0  0  0  0  0  0  0
   36.9530   26.8940   43.2470 H   0  0  0  0  0  0  0  0  0  0  0  0
   35.5800   28.0710   41.8970 H   0  0  0  0  0  0  0  0  0  0  0  0
   36.2450   27.0670   40.6030 H   0  0  0  0  0  0  0  0  0  0  0  0
   37.9400   28.6970   40.0340 H   0  0  0  0  0  0  0  0  0  0  0  0
   38.2960   31.0910   40.8300 C   0  0  0  0  0  0  0  0  0  0  0  0
   39.4630   30.6070   40.2080 C   0  0  0  0  0  0  0  0  0  0  0  0
   40.2700   31.4630   39.4500 C   0  0  0  0  0  0  0  0  0  0  0  0
   39.8520   32.7660   39.3660 N   0  0  0  0  0  0  0  0  0  0  0  0
   38.7250   33.2090   39.9740 C   0  0  0  0  0  0  0  0  0  0  0  0
   37.9490   32.3710   40.7050 N   0  0  0  0  0  0  0  0  0  0  0  0
   39.8650   29.6040   40.2210 H   0  0  0  0  0  0  0  0  0  0  0  0
   41.1690   31.1660   38.9500 H   0  0  0  0  0  0  0  0  0  0  0  0
   38.5010   34.2590   39.8320 H   0  0  0  0  0  0  0  0  0  0  0  0
   36.0670   29.6110   39.7130 C   0  0  0  0  0  3  0  0  0  0  0  0
   36.3490   29.3860   38.2480 C   0  0  0  0  0  2  0  0  0  0  0  0
   35.2520   28.4180   37.8120 C   0  0  0  0  0  2  0  0  0  0  0  0
   34.0540   28.9070   38.5780 C   0  0  0  0  0  2  0  0  0  0  0  0
   34.6570   29.1770   39.9430 C   0  0  0  0  0  2  0  0  0  0  0  0
  1  7  1  1  0  0  0
  1  2  1  0  0  0  0
  2  8  1  0  0  0  0
  2  9  1  0  0  0  0
  3  2  1  0  0  0  0
  3 10  1  0  0  0  0
  4  3  1  0  0  0  0
  4 13  1  0  0  0  0
  5 14  1  0  0  0  0
  5  4  1  0  0  0  0
  6 16  1  6  0  0  0
  6  5  1  0  0  0  0
  6  1  1  0  0  0  0
 11  3  1  0  0  0  0
 12  4  1  0  0  0  0
 15  5  1  0  0  0  0
 17  1  1  0  0  0  0
 18 23  1  0  0  0  0
 18 17  2  0  0  0  0
 19 18  1  0  0  0  0
 20 19  2  0  0  0  0
 20 21  1  0  0  0  0
 21 22  2  0  0  0  0
 22 17  1  0  0  0  0
 24 19  1  0  0  0  0
 25 21  1  0  0  0  0
 26 30  1  0  0  0  0
 26  6  1  0  0  0  0
 27 26  1  0  0  0  0
 28 27  1  0  0  0  0
 28 29  1  0  0  0  0
 29 30  1  0  0  0  0
M  END
>  <minimizedAffinity>
-4.79188347

$$$$

 OpenBabel03242511553D

 30 32  0  0  1  0  0  0  0  0999 V2000
   36.9000   27.9960   41.7920 C   0  0  2  0  0  0  0  0  0  0  0  0
   37.4090   28.9880   42.7570 C   0  0  0  0  0  0  0  0  0  0  0  0
   38.8540   28.8110   43.1080 C   0  0  0  0  0  0  0  0  0  0  0  0
   39.1980   27.4020   43.5630 C   0  0  0  0  0  0  0  0  0  0  0  0
   38.4710   26.3260   42.8110 C   0  0  0  0  0  0  0  0  0  0  0  0
   37.8610   26.8450   41.5350 C   0  0  1  0  0  0  0  0  0  0  0  0
   35.9430   27.5040   42.1370 H   0  0  0  0  0  0  0  0  0  0  0  0
   37.2490   30.0350   42.5050 H   0  0  0  0  0  0  0  0  0  0  0  0
   36.8450   28.8320   43.7230 H   0  0  0  0  0  0  0  0  0  0  0  0
   39.0010   29.4370   44.0390 H   0  0  0  0  0  0  0  0  0  0  0  0
   39.5830   29.2000   42.4040 H   0  0  0  0  0  0  0  0  0  0  0  0
   40.2950   27.2970   43.4390 H   0  0  0  0  0  0  0  0  0  0  0  0
   39.0270   27.2720   44.6660 H   0  0  0  0  0  0  0  0  0  0  0  0
   37.7070   25.8790   43.4790 H   0  0  0  0  0  0  0  0  0  0  0  0
   39.1710   25.5280   42.5550 H   0  0  0  0  0  0  0  0  0  0  0  0
   38.6620   27.1880   40.8700 H   0  0  0  0  0  0  0  0  0  0  0  0
   36.5740   28.5960   40.4840 C   0  0  0  0  0  0  0  0  0  0  0  0
   35.2020   28.7520   40.2070 C   0  0  0  0  0  0  0  0  0  0  0  0
   34.7820   29.3120   38.9940 C   0  0  0  0  0  0  0  0  0  0  0  0
   35.7770   29.6810   38.1260 N   0  0  0  0  0  0  0  0  0  0  0  0
   37.0920   29.5210   38.4150 C   0  0  0  0  0  0  0  0  0  0  0  0
   37.4870   28.9790   39.5940 N   0  0  0  0  0  0  0  0  0  0  0  0
   34.3570   28.4910   40.8280 H   0  0  0  0  0  0  0  0  0  0  0  0
   33.7590   29.4610   38.7160 H   0  0  0  0  0  0  0  0  0  0  0  0
   37.7810   29.8530   37.6480 H   0  0  0  0  0  0  0  0  0  0  0  0
   37.1040   25.7670   40.8330 C   0  0  0  0  0  3  0  0  0  0  0  0
   37.7190   25.3230   39.5280 C   0  0  0  0  0  2  0  0  0  0  0  0
   38.2190   23.9120   39.8250 C   0  0  0  0  0  2  0  0  0  0  0  0
   37.1360   23.3550   40.7080 C   0  0  0  0  0  2  0  0  0  0  0  0
   36.8650   24.5280   41.6300 C   0  0  0  0  0  2  0  0  0  0  0  0
  1  7  1  1  0  0  0
  1  2  1  0  0  0  0
  2  3  1  0  0  0  0
  2  9  1  0  0  0  0
  3  4  1  0  0  0  0
  3 10  1  0  0  0  0
  4 13  1  0  0  0  0
  5 14  1  0  0  0  0
  5  4  1  0  0  0  0
  6 16  1  6  0  0  0
  6  1  1  0  0  0  0
  6  5  1  0  0  0  0
  8  2  1  0  0  0  0
 11  3  1  0  0  0  0
 12  4  1  0  0  0  0
 15  5  1  0  0  0  0
 17  1  1  0  0  0  0
 18 17  1  0  0  0  0
 18 23  1  0  0  0  0
 19 18  2  0  0  0  0
 20 21  2  0  0  0  0
 20 19  1  0  0  0  0
 21 22  1  0  0  0  0
 22 17  2  0  0  0  0
 24 19  1  0  0  0  0
 25 21  1  0  0  0  0
 26  6  1  0  0  0  0
 26 30  1  0  0  0  0
 27 28  1  0  0  0  0
 27 26  1  0  0  0  0
 28 29  1  0  0  0  0
 29 30  1  0  0  0  0
M  END
>  <minimizedAffinity>
-4.7286377

$$$$

 OpenBabel03242511553D

 30 32  0  0  1  0  0  0  0  0999 V2000
   36.1420   29.7350   40.7390 C   0  0  2  0  0  0  0  0  0  0  0  0
   36.5780   31.1390   40.8490 C   0  0  0  0  0  0  0  0  0  0  0  0
   38.0650   31.3160   40.8660 C   0  0  0  0  0  0  0  0  0  0  0  0
   38.7650   30.4580   41.9070 C   0  0  0  0  0  0  0  0  0  0  0  0
   38.1710   29.0910   42.0680 C   0  0  0  0  0  0  0  0  0  0  0  0
   37.2700   28.7290   40.9150 C   0  0  1  0  0  0  0  0  0  0  0  0
   35.3770   29.4530   41.5230 H   0  0  0  0  0  0  0  0  0  0  0  0
   36.1640   31.8330   40.1210 H   0  0  0  0  0  0  0  0  0  0  0  0
   36.2200   31.5200   41.8510 H   0  0  0  0  0  0  0  0  0  0  0  0
   38.2230   32.3730   41.2380 H   0  0  0  0  0  0  0  0  0  0  0  0
   38.5740   31.2890   39.9080 H   0  0  0  0  0  0  0  0  0  0  0  0
   39.8260   30.3920   41.5900 H   0  0  0  0  0  0  0  0  0  0  0  0
   38.8030   30.9720   42.9060 H   0  0  0  0  0  0  0  0  0  0  0  0
   37.6330   29.0470   43.0370 H   0  0  0  0  0  0  0  0  0  0  0  0
   38.9730   28.3510   42.1180 H   0  0  0  0  0  0  0  0  0  0  0  0
   37.8650   28.6930   39.9960 H   0  0  0  0  0  0  0  0  0  0  0  0
   35.4930   29.4450   39.4460 C   0  0  0  0  0  0  0  0  0  0  0  0
   36.3100   29.5810   38.3070 C   0  0  0  0  0  0  0  0  0  0  0  0
   35.7930   29.3300   37.0300 C   0  0  0  0  0  0  0  0  0  0  0  0
   34.4750   28.9570   36.9770 N   0  0  0  0  0  0  0  0  0  0  0  0
   33.7080   28.8330   38.0880 C   0  0  0  0  0  0  0  0  0  0  0  0
   34.2190   29.0770   39.3200 N   0  0  0  0  0  0  0  0  0  0  0  0
   37.3500   29.8680   38.2560 H   0  0  0  0  0  0  0  0  0  0  0  0
   36.3540   29.4120   36.1210 H   0  0  0  0  0  0  0  0  0  0  0  0
   32.6830   28.5310   37.9150 H   0  0  0  0  0  0  0  0  0  0  0  0
   36.6550   27.3850   41.1250 C   0  0  0  0  0  3  0  0  0  0  0  0
   37.0850   26.3410   40.1230 C   0  0  0  0  0  2  0  0  0  0  0  0
   37.9410   25.3820   40.9460 C   0  0  0  0  0  2  0  0  0  0  0  0
   37.2090   25.3250   42.2580 C   0  0  0  0  0  2  0  0  0  0  0  0
   36.8660   26.7870   42.4750 C   0  0  0  0  0  2  0  0  0  0  0  0
  1  2  1  0  0  0  0
  1  6  1  0  0  0  0
  1  7  1  1  0  0  0
  2  3  1  0  0  0  0
  2  9  1  0  0  0  0
  3 10  1  0  0  0  0
  3  4  1  0  0  0  0
  4  5  1  0  0  0  0
  4 13  1  0  0  0  0
  5 15  1  0  0  0  0
  5 14  1  0  0  0  0
  6 16  1  6  0  0  0
  6 26  1  0  0  0  0
  6  5  1  0  0  0  0
  8  2  1  0  0  0  0
 11  3  1  0  0  0  0
 12  4  1  0  0  0  0
 17  1  1  0  0  0  0
 18 17  2  0  0  0  0
 19 18  1  0  0  0  0
 20 19  2  0  0  0  0
 20 21  1  0  0  0  0
 21 22  2  0  0  0  0
 22 17  1  0  0  0  0
 23 18  1  0  0  0  0
 24 19  1  0  0  0  0
 25 21  1  0  0  0  0
 26 30  1  0  0  0  0
 27 28  1  0  0  0  0
 27 26  1  0  0  0  0
 28 29  1  0  0  0  0
 29 30  1  0  0  0  0
M  END
>  <minimizedAffinity>
-4.72545958

$$$$

 OpenBabel03242511553D

 30 32  0  0  1  0  0  0  0  0999 V2000
   37.9460   29.6930   39.3060 C   0  0  2  0  0  0  0  0  0  0  0  0
   37.1880   29.7990   38.0450 C   0  0  0  0  0  0  0  0  0  0  0  0
   35.7110   29.6130   38.2050 C   0  0  0  0  0  0  0  0  0  0  0  0
   35.3380   28.3380   38.9450 C   0  0  0  0  0  0  0  0  0  0  0  0
   36.2640   27.9990   40.0750 C   0  0  0  0  0  0  0  0  0  0  0  0
   37.1210   29.1720   40.4730 C   0  0  1  0  0  0  0  0  0  0  0  0
   38.8230   28.9840   39.2290 H   0  0  0  0  0  0  0  0  0  0  0  0
   37.3530   30.6980   37.4550 H   0  0  0  0  0  0  0  0  0  0  0  0
   37.5260   28.9500   37.3820 H   0  0  0  0  0  0  0  0  0  0  0  0
   35.3290   29.4350   37.1550 H   0  0  0  0  0  0  0  0  0  0  0  0
   35.1420   30.4670   38.5570 H   0  0  0  0  0  0  0  0  0  0  0  0
   34.3030   28.4880   39.3150 H   0  0  0  0  0  0  0  0  0  0  0  0
   35.2620   27.4630   38.2440 H   0  0  0  0  0  0  0  0  0  0  0  0
   36.8780   27.1230   39.7820 H   0  0  0  0  0  0  0  0  0  0  0  0
   35.6770   27.6950   40.9450 H   0  0  0  0  0  0  0  0  0  0  0  0
   36.4760   29.9760   40.8440 H   0  0  0  0  0  0  0  0  0  0  0  0
   38.5310   30.9820   39.7220 C   0  0  0  0  0  0  0  0  0  0  0  0
   37.6130   32.0240   39.9570 C   0  0  0  0  0  0  0  0  0  0  0  0
   38.0620   33.2890   40.3560 C   0  0  0  0  0  0  0  0  0  0  0  0
   39.4190   33.4300   40.4940 N   0  0  0  0  0  0  0  0  0  0  0  0
   40.2830   32.4110   40.2620 C   0  0  0  0  0  0  0  0  0  0  0  0
   39.8370   31.1900   39.8770 N   0  0  0  0  0  0  0  0  0  0  0  0
   36.5360   32.0030   39.8730 H   0  0  0  0  0  0  0  0  0  0  0  0
   37.4240   34.1260   40.5530 H   0  0  0  0  0  0  0  0  0  0  0  0
   41.3310   32.6480   40.4070 H   0  0  0  0  0  0  0  0  0  0  0  0
   38.0660   28.7920   41.5650 C   0  0  0  0  0  3  0  0  0  0  0  0
   37.6650   29.2860   42.9330 C   0  0  0  0  0  2  0  0  0  0  0  0
   37.2800   28.0110   43.6790 C   0  0  0  0  0  2  0  0  0  0  0  0
   38.2970   27.0180   43.1880 C   0  0  0  0  0  2  0  0  0  0  0  0
   38.3310   27.3300   41.7040 C   0  0  0  0  0  2  0  0  0  0  0  0
  1  7  1  6  0  0  0
  1 17  1  0  0  0  0
  1  6  1  0  0  0  0
  2  3  1  0  0  0  0
  2  1  1  0  0  0  0
  3 11  1  0  0  0  0
  3  4  1  0  0  0  0
  4 12  1  0  0  0  0
  4  5  1  0  0  0  0
  5  6  1  0  0  0  0
  5 15  1  0  0  0  0
  6 16  1  1  0  0  0
  6 26  1  0  0  0  0
  8  2  1  0  0  0  0
  9  2  1  0  0  0  0
 10  3  1  0  0  0  0
 13  4  1  0  0  0  0
 14  5  1  0  0  0  0
 17 22  2  0  0  0  0
 17 18  1  0  0  0  0
 18 19  2  0  0  0  0
 19 20  1  0  0  0  0
 19 24  1  0  0  0  0
 21 25  1  0  0  0  0
 21 20  2  0  0  0  0
 22 21  1  0  0  0  0
 23 18  1  0  0  0  0
 26 30  1  0  0  0  0
 26 27  1  0  0  0  0
 27 28  1  0  0  0  0
 29 28  1  0  0  0  0
 30 29  1  0  0  0  0
M  END
>  <minimizedAffinity>
-4.72074699

$$$$

 OpenBabel03242511553D

 30 32  0  0  1  0  0  0  0  0999 V2000
   40.0710   30.4060   42.4880 C   0  0  2  0  0  0  0  0  0  0  0  0
   41.5060   30.6000   42.7660 C   0  0  0  0  0  0  0  0  0  0  0  0
   42.3420   29.3810   42.5280 C   0  0  0  0  0  0  0  0  0  0  0  0
   41.8250   28.1430   43.2420 C   0  0  0  0  0  0  0  0  0  0  0  0
   40.3290   28.0340   43.2620 C   0  0  0  0  0  0  0  0  0  0  0  0
   39.6830   28.9520   42.2580 C   0  0  1  0  0  0  0  0  0  0  0  0
   39.4110   30.7510   43.3390 H   0  0  0  0  0  0  0  0  0  0  0  0
   41.9860   31.4410   42.2700 H   0  0  0  0  0  0  0  0  0  0  0  0
   41.6030   30.8200   43.8700 H   0  0  0  0  0  0  0  0  0  0  0  0
   43.3230   29.6010   43.0490 H   0  0  0  0  0  0  0  0  0  0  0  0
   42.6240   29.1700   41.5020 H   0  0  0  0  0  0  0  0  0  0  0  0
   42.2770   27.2750   42.7200 H   0  0  0  0  0  0  0  0  0  0  0  0
   42.2220   28.0770   44.2920 H   0  0  0  0  0  0  0  0  0  0  0  0
   39.9710   28.2360   44.2920 H   0  0  0  0  0  0  0  0  0  0  0  0
   40.0380   27.0090   43.0230 H   0  0  0  0  0  0  0  0  0  0  0  0
   39.9930   28.6540   41.2510 H   0  0  0  0  0  0  0  0  0  0  0  0
   39.6150   31.1730   41.3130 C   0  0  0  0  0  0  0  0  0  0  0  0
   40.0540   30.6970   40.0630 C   0  0  0  0  0  0  0  0  0  0  0  0
   39.6790   31.3510   38.8830 C   0  0  0  0  0  0  0  0  0  0  0  0
   38.8800   32.4550   39.0340 N   0  0  0  0  0  0  0  0  0  0  0  0
   38.4700   32.8950   40.2500 C   0  0  0  0  0  0  0  0  0  0  0  0
   38.8380   32.2530   41.3860 N   0  0  0  0  0  0  0  0  0  0  0  0
   40.6790   29.8420   39.8510 H   0  0  0  0  0  0  0  0  0  0  0  0
   39.9730   31.0460   37.8990 H   0  0  0  0  0  0  0  0  0  0  0  0
   37.8410   33.7770   40.2380 H   0  0  0  0  0  0  0  0  0  0  0  0
   38.1960   28.8590   42.3340 C   0  0  0  0  0  3  0  0  0  0  0  0
   37.5790   27.9230   41.3240 C   0  0  0  0  0  2  0  0  0  0  0  0
   37.0670   26.7620   42.1720 C   0  0  0  0  0  2  0  0  0  0  0  0
   36.5480   27.4530   43.4020 C   0  0  0  0  0  2  0  0  0  0  0  0
   37.6450   28.4680   43.6640 C   0  0  0  0  0  2  0  0  0  0  0  0
  1  2  1  0  0  0  0
  1  7  1  1  0  0  0
  2  9  1  0  0  0  0
  3  2  1  0  0  0  0
  3 10  1  0  0  0  0
  3  4  1  0  0  0  0
  4  5  1  0  0  0  0
  4 13  1  0  0  0  0
  5 14  1  0  0  0  0
  6 16  1  6  0  0  0
  6 26  1  0  0  0  0
  6  1  1  0  0  0  0
  6  5  1  0  0  0  0
  8  2  1  0  0  0  0
 11  3  1  0  0  0  0
 12  4  1  0  0  0  0
 15  5  1  0  0  0  0
 17 22  1  0  0  0  0
 17  1  1  0  0  0  0
 18 17  2  0  0  0  0
 19 20  2  0  0  0  0
 19 18  1  0  0  0  0
 20 21  1  0  0  0  0
 21 22  2  0  0  0  0
 23 18  1  0  0  0  0
 24 19  1  0  0  0  0
 25 21  1  0  0  0  0
 26 30  1  0  0  0  0
 27 28  1  0  0  0  0
 27 26  1  0  0  0  0
 28 29  1  0  0  0  0
 29 30  1  0  0  0  0
M  END
>  <minimizedAffinity>
-4.71430063

$$$$

 OpenBabel03242511553D

 30 32  0  0  1  0  0  0  0  0999 V2000
   37.2280   28.2280   40.7790 C   0  0  2  0  0  0  0  0  0  0  0  0
   36.9400   27.1640   41.7580 C   0  0  0  0  0  0  0  0  0  0  0  0
   36.6370   27.6690   43.1350 C   0  0  0  0  0  0  0  0  0  0  0  0
   37.6920   28.6190   43.6770 C   0  0  0  0  0  0  0  0  0  0  0  0
   38.2610   29.5480   42.6450 C   0  0  0  0  0  0  0  0  0  0  0  0
   37.4070   29.6030   41.4050 C   0  0  1  0  0  0  0  0  0  0  0  0
   38.1830   28.0440   40.2030 H   0  0  0  0  0  0  0  0  0  0  0  0
   36.1670   26.4490   41.4830 H   0  0  0  0  0  0  0  0  0  0  0  0
   37.8810   26.5480   41.8650 H   0  0  0  0  0  0  0  0  0  0  0  0
   36.7290   26.7580   43.8000 H   0  0  0  0  0  0  0  0  0  0  0  0
   35.6310   28.0340   43.3150 H   0  0  0  0  0  0  0  0  0  0  0  0
   37.2040   29.1890   44.4940 H   0  0  0  0  0  0  0  0  0  0  0  0
   38.5270   28.0620   44.1830 H   0  0  0  0  0  0  0  0  0  0  0  0
   39.2990   29.2320   42.4150 H   0  0  0  0  0  0  0  0  0  0  0  0
   38.3230   30.5560   43.0610 H   0  0  0  0  0  0  0  0  0  0  0  0
   36.4240   30.0090   41.6670 H   0  0  0  0  0  0  0  0  0  0  0  0
   36.1770   28.3480   39.7500 C   0  0  0  0  0  0  0  0  0  0  0  0
   34.9950   28.9980   40.1550 C   0  0  0  0  0  0  0  0  0  0  0  0
   33.9340   29.1650   39.2570 C   0  0  0  0  0  0  0  0  0  0  0  0
   34.1280   28.6620   37.9960 N   0  0  0  0  0  0  0  0  0  0  0  0
   35.2750   28.0390   37.6300 C   0  0  0  0  0  0  0  0  0  0  0  0
   36.2970   27.8840   38.5080 N   0  0  0  0  0  0  0  0  0  0  0  0
   34.7580   29.4220   41.1200 H   0  0  0  0  0  0  0  0  0  0  0  0
   33.0080   29.6490   39.4930 H   0  0  0  0  0  0  0  0  0  0  0  0
   35.3070   27.6870   36.6060 H   0  0  0  0  0  0  0  0  0  0  0  0
   38.0210   30.4960   40.3780 C   0  0  0  0  0  3  0  0  0  0  0  0
   37.4140   31.8750   40.3100 C   0  0  0  0  0  2  0  0  0  0  0  0
   38.5160   32.7830   40.8480 C   0  0  0  0  0  2  0  0  0  0  0  0
   39.7630   32.1670   40.2780 C   0  0  0  0  0  2  0  0  0  0  0  0
   39.4960   30.6890   40.4970 C   0  0  0  0  0  2  0  0  0  0  0  0
  1  7  1  6  0  0  0
  1  6  1  0  0  0  0
  1  2  1  0  0  0  0
  2  9  1  0  0  0  0
  2  3  1  0  0  0  0
  3 11  1  0  0  0  0
  3  4  1  0  0  0  0
  3 10  1  0  0  0  0
  4 13  1  0  0  0  0
  4 12  1  0  0  0  0
  5 15  1  0  0  0  0
  5  4  1  0  0  0  0
  6 16  1  1  0  0  0
  6  5  1  0  0  0  0
  8  2  1  0  0  0  0
 14  5  1  0  0  0  0
 17 18  1  0  0  0  0
 17  1  1  0  0  0  0
 18 23  1  0  0  0  0
 19 24  1  0  0  0  0
 19 18  2  0  0  0  0
 20 19  1  0  0  0  0
 21 20  2  0  0  0  0
 21 22  1  0  0  0  0
 22 17  2  0  0  0  0
 25 21  1  0  0  0  0
 26 30  1  0  0  0  0
 26  6  1  0  0  0  0
 27 26  1  0  0  0  0
 27 28  1  0  0  0  0
 29 30  1  0  0  0  0
 29 28  1  0  0  0  0
M  END
>  <minimizedAffinity>
-4.70715714

$$$$

 OpenBabel03242511553D

 30 32  0  0  1  0  0  0  0  0999 V2000
   38.4370   29.9280   42.5100 C   0  0  2  0  0  0  0  0  0  0  0  0
   37.8880   28.8670   43.3740 C   0  0  0  0  0  0  0  0  0  0  0  0
   37.2460   27.7420   42.6240 C   0  0  0  0  0  0  0  0  0  0  0  0
   36.2020   28.2030   41.6190 C   0  0  0  0  0  0  0  0  0  0  0  0
   36.5650   29.4700   40.9040 C   0  0  0  0  0  0  0  0  0  0  0  0
   38.0270   29.8010   41.0500 C   0  0  1  0  0  0  0  0  0  0  0  0
   38.0970   30.9610   42.8180 H   0  0  0  0  0  0  0  0  0  0  0  0
   38.5690   28.4390   44.1070 H   0  0  0  0  0  0  0  0  0  0  0  0
   37.0590   29.3320   43.9850 H   0  0  0  0  0  0  0  0  0  0  0  0
   36.6410   27.1870   43.4030 H   0  0  0  0  0  0  0  0  0  0  0  0
   37.9050   26.9880   42.2070 H   0  0  0  0  0  0  0  0  0  0  0  0
   36.0760   27.3670   40.9010 H   0  0  0  0  0  0  0  0  0  0  0  0
   35.1920   28.3160   42.0980 H   0  0  0  0  0  0  0  0  0  0  0  0
   35.9200   30.2890   41.2820 H   0  0  0  0  0  0  0  0  0  0  0  0
   36.3440   29.3610   39.8400 H   0  0  0  0  0  0  0  0  0  0  0  0
   38.6200   29.0090   40.5790 H   0  0  0  0  0  0  0  0  0  0  0  0
   39.9110   29.9820   42.5490 C   0  0  0  0  0  0  0  0  0  0  0  0
   40.5770   28.7920   42.1970 C   0  0  0  0  0  0  0  0  0  0  0  0
   41.9760   28.7340   42.2010 C   0  0  0  0  0  0  0  0  0  0  0  0
   42.6250   29.8860   42.5640 N   0  0  0  0  0  0  0  0  0  0  0  0
   41.9620   31.0200   42.8990 C   0  0  0  0  0  0  0  0  0  0  0  0
   40.6060   31.0660   42.8900 N   0  0  0  0  0  0  0  0  0  0  0  0
   40.1490   27.8450   41.9010 H   0  0  0  0  0  0  0  0  0  0  0  0
   42.5490   27.8660   41.9460 H   0  0  0  0  0  0  0  0  0  0  0  0
   42.5870   31.8630   43.1660 H   0  0  0  0  0  0  0  0  0  0  0  0
   38.3500   31.0900   40.3710 C   0  0  0  0  0  3  0  0  0  0  0  0
   38.7520   30.9480   38.9240 C   0  0  0  0  0  2  0  0  0  0  0  0
   37.5820   31.5630   38.1600 C   0  0  0  0  0  2  0  0  0  0  0  0
   37.2010   32.7340   39.0240 C   0  0  0  0  0  2  0  0  0  0  0  0
   37.2720   32.1220   40.4110 C   0  0  0  0  0  2  0  0  0  0  0  0
  1 17  1  0  0  0  0
  1  7  1  1  0  0  0
  1  2  1  0  0  0  0
  2  9  1  0  0  0  0
  2  8  1  0  0  0  0
  3  2  1  0  0  0  0
  3 10  1  0  0  0  0
  4 13  1  0  0  0  0
  4  3  1  0  0  0  0
  5  6  1  0  0  0  0
  5 14  1  0  0  0  0
  5  4  1  0  0  0  0
  6 16  1  6  0  0  0
  6  1  1  0  0  0  0
 11  3  1  0  0  0  0
 12  4  1  0  0  0  0
 15  5  1  0  0  0  0
 17 22  1  0  0  0  0
 18 19  1  0  0  0  0
 18 17  2  0  0  0  0
 19 20  2  0  0  0  0
 20 21  1  0  0  0  0
 21 25  1  0  0  0  0
 22 21  2  0  0  0  0
 23 18  1  0  0  0  0
 24 19  1  0  0  0  0
 26 30  1  0  0  0  0
 26  6  1  0  0  0  0
 27 26  1  0  0  0  0
 28 27  1  0  0  0  0
 28 29  1  0  0  0  0
 29 30  1  0  0  0  0
M  END
>  <minimizedAffinity>
-4.61135244

$$$$
