
 OpenBabel03242513383D

 30 33  0  0  0  0  0  0  0  0999 V2000
   47.8620   31.3920   46.2630 C   0  0  0  0  0  0  0  0  0  0  0  0
   46.9670   32.2250   45.6420 C   0  0  0  0  0  0  0  0  0  0  0  0
   45.8040   32.5410   46.3010 C   0  0  0  0  0  0  0  0  0  0  0  0
   45.5040   32.0550   47.5590 C   0  0  0  0  0  0  0  0  0  0  0  0
   44.4980   32.1620   48.4510 N   0  0  0  0  0  0  0  0  0  0  0  0
   44.7740   31.4270   49.5560 C   0  0  0  0  0  0  0  0  0  0  0  0
   45.9730   30.8620   49.3350 N   0  0  0  0  0  0  0  0  0  0  0  0
   46.4490   31.2190   48.1310 C   0  0  0  0  0  0  0  0  0  0  0  0
   47.6250   30.8670   47.5260 C   0  0  0  0  0  0  0  0  0  0  0  0
   48.7790   31.1430   45.7420 H   0  0  0  0  0  0  0  0  0  0  0  0
   45.0740   33.1900   45.8530 H   0  0  0  0  0  0  0  0  0  0  0  0
   43.6390   32.7380   48.2830 H   0  0  0  0  0  0  0  0  0  0  0  0
   44.1580   31.3130   50.4470 H   0  0  0  0  0  0  0  0  0  0  0  0
   47.0270   34.4470   42.7290 C   0  0  0  0  0  0  0  0  0  0  0  0
   47.8010   33.7460   41.8160 C   0  0  0  0  0  0  0  0  0  0  0  0
   48.2970   32.5020   42.2240 C   0  0  0  0  0  0  0  0  0  0  0  0
   48.0130   32.0330   43.4660 N   0  0  0  0  0  0  0  0  0  0  0  0
   47.2560   32.7550   44.3110 C   0  0  0  0  0  0  0  0  0  0  0  0
   46.7640   33.9500   43.9570 N   0  0  0  0  0  0  0  0  0  0  0  0
   46.6150   35.4130   42.4740 H   0  0  0  0  0  0  0  0  0  0  0  0
   48.8880   31.9800   41.5110 H   0  0  0  0  0  0  0  0  0  0  0  0
   48.0410   34.3700   40.4830 C   0  0  0  0  0  0  0  0  0  0  0  0
   48.5470   35.6180   40.7480 F   0  0  0  0  0  0  0  0  0  0  0  0
   46.8310   34.4490   39.8260 F   0  0  0  0  0  0  0  0  0  0  0  0
   48.9280   33.5550   39.7880 F   0  0  0  0  0  0  0  0  0  0  0  0
   48.5800   29.9640   48.2150 C   0  0  0  0  0  0  0  0  0  0  0  0
   49.3490   29.1600   47.2150 C   0  0  0  0  0  0  0  0  0  0  0  0
   50.7570   29.0960   47.7570 C   0  0  0  0  0  0  0  0  0  0  0  0
   50.6560   29.5490   49.2100 C   0  0  0  0  0  0  0  0  0  0  0  0
   49.5830   30.6360   49.0730 C   0  0  0  0  0  0  0  0  0  0  0  0
  1  9  1  0  0  0  0
  2  1  2  0  0  0  0
  2  3  1  0  0  0  0
  3  4  2  0  0  0  0
  4  8  1  0  0  0  0
  4  5  1  0  0  0  0
  5  6  1  0  0  0  0
  6 13  1  0  0  0  0
  7  6  2  0  0  0  0
  8  7  1  0  0  0  0
  9  8  2  0  0  0  0
  9 26  1  0  0  0  0
 10  1  1  0  0  0  0
 11  3  1  0  0  0  0
 12  5  1  0  0  0  0
 14 19  1  0  0  0  0
 15 16  1  0  0  0  0
 15 14  2  0  0  0  0
 16 17  2  0  0  0  0
 17 18  1  0  0  0  0
 18  2  1  0  0  0  0
 19 18  2  0  0  0  0
 20 14  1  0  0  0  0
 21 16  1  0  0  0  0
 22 23  1  0  0  0  0
 22 15  1  0  0  0  0
 24 22  1  0  0  0  0
 25 22  1  0  0  0  0
 26 30  1  0  0  0  0
 27 28  1  0  0  0  0
 27 26  1  0  0  0  0
 28 29  1  0  0  0  0
 30 29  1  0  0  0  0
M  END
>  <minimizedAffinity>
-5.64818382

>  <minimizedRMSD>
0.614885092

$$$$
