
 OpenBabel03242513473D

 21 23  0  0  1  0  0  0  0  0999 V2000
   38.0210   28.1390   42.3340 C   0  0  1  0  0  0  0  0  0  0  0  0
   37.2850   27.9180   43.6790 C   0  0  0  0  0  0  0  0  0  0  0  0
   36.9850   27.1350   42.4420 C   0  0  2  0  0  0  0  0  0  0  0  0
   39.1270   27.9690   42.4080 H   0  0  0  0  0  0  0  0  0  0  0  0
   37.9140   27.4770   44.4760 H   0  0  0  0  0  0  0  0  0  0  0  0
   36.6340   28.7120   44.0430 H   0  0  0  0  0  0  0  0  0  0  0  0
   36.0000   27.4230   41.9750 H   0  0  0  0  0  0  0  0  0  0  0  0
   37.7540   29.4770   41.7380 C   0  0  0  0  0  0  0  0  0  0  0  0
   38.8290   30.4100   41.6360 C   0  0  0  0  0  0  0  0  0  0  0  0
   38.5780   31.6550   41.0720 C   0  0  0  0  0  0  0  0  0  0  0  0
   37.2910   31.9150   40.6390 N   0  0  0  0  0  0  0  0  0  0  0  0
   36.3040   30.9920   40.7590 C   0  0  0  0  0  0  0  0  0  0  0  0
   36.5330   29.7780   41.3060 N   0  0  0  0  0  0  0  0  0  0  0  0
   39.8130   30.1470   41.9920 H   0  0  0  0  0  0  0  0  0  0  0  0
   39.3600   32.3950   40.9730 H   0  0  0  0  0  0  0  0  0  0  0  0
   35.3180   31.2900   40.3870 H   0  0  0  0  0  0  0  0  0  0  0  0
   37.2080   25.6620   42.3750 C   0  0  0  0  0  3  0  0  0  0  0  0
   36.8970   25.0090   41.0750 C   0  0  0  0  0  2  0  0  0  0  0  0
   37.6370   23.6740   41.2370 C   0  0  0  0  0  2  0  0  0  0  0  0
   38.9800   24.1030   41.8070 C   0  0  0  0  0  2  0  0  0  0  0  0
   38.6960   25.4010   42.5300 C   0  0  0  0  0  2  0  0  0  0  0  0
  1  4  1  6  0  0  0
  1  3  1  0  0  0  0
  1  2  1  0  0  0  0
  2  6  1  0  0  0  0
  2  5  1  0  0  0  0
  3  7  1  6  0  0  0
  3  2  1  0  0  0  0
  8  1  1  0  0  0  0
  9  8  1  0  0  0  0
  9 14  1  0  0  0  0
 10  9  2  0  0  0  0
 11 12  2  0  0  0  0
 11 10  1  0  0  0  0
 12 13  1  0  0  0  0
 13  8  2  0  0  0  0
 15 10  1  0  0  0  0
 16 12  1  0  0  0  0
 17  3  1  0  0  0  0
 17 21  1  0  0  0  0
 18 19  1  0  0  0  0
 18 17  1  0  0  0  0
 19 20  1  0  0  0  0
 20 21  1  0  0  0  0
M  END
>  <minimizedAffinity>
-4.64649343

$$$$

 OpenBabel03242513473D

 21 23  0  0  1  0  0  0  0  0999 V2000
   38.1740   29.7780   41.1440 C   0  0  1  0  0  0  0  0  0  0  0  0
   37.9940   29.5590   42.6670 C   0  0  0  0  0  0  0  0  0  0  0  0
   36.9670   29.1670   41.6550 C   0  0  2  0  0  0  0  0  0  0  0  0
   39.0700   29.2450   40.7290 H   0  0  0  0  0  0  0  0  0  0  0  0
   38.6670   28.7930   43.1000 H   0  0  0  0  0  0  0  0  0  0  0  0
   37.8870   30.4380   43.3020 H   0  0  0  0  0  0  0  0  0  0  0  0
   36.0650   29.8450   41.6670 H   0  0  0  0  0  0  0  0  0  0  0  0
   38.2230   31.2170   40.7660 C   0  0  0  0  0  0  0  0  0  0  0  0
   37.1390   31.7680   40.0190 C   0  0  0  0  0  0  0  0  0  0  0  0
   37.1850   33.1140   39.6740 C   0  0  0  0  0  0  0  0  0  0  0  0
   38.2870   33.8430   40.0810 N   0  0  0  0  0  0  0  0  0  0  0  0
   39.2920   33.2710   40.7900 C   0  0  0  0  0  0  0  0  0  0  0  0
   39.2610   31.9640   41.1320 N   0  0  0  0  0  0  0  0  0  0  0  0
   36.3060   31.1470   39.7310 H   0  0  0  0  0  0  0  0  0  0  0  0
   36.3880   33.5760   39.1080 H   0  0  0  0  0  0  0  0  0  0  0  0
   40.1210   33.9290   41.0670 H   0  0  0  0  0  0  0  0  0  0  0  0
   36.5730   27.7440   41.4500 C   0  0  0  0  0  3  0  0  0  0  0  0
   37.2920   27.0110   40.3730 C   0  0  0  0  0  2  0  0  0  0  0  0
   36.9690   25.5570   40.7450 C   0  0  0  0  0  2  0  0  0  0  0  0
   37.1990   25.5380   42.2470 C   0  0  0  0  0  2  0  0  0  0  0  0
   36.9560   26.9630   42.6940 C   0  0  0  0  0  2  0  0  0  0  0  0
  1  4  1  6  0  0  0
  1  3  1  0  0  0  0
  1  2  1  0  0  0  0
  2  5  1  0  0  0  0
  2  6  1  0  0  0  0
  3  7  1  6  0  0  0
  3  2  1  0  0  0  0
  8 13  1  0  0  0  0
  8  1  1  0  0  0  0
  9  8  2  0  0  0  0
 10  9  1  0  0  0  0
 10 11  2  0  0  0  0
 11 12  1  0  0  0  0
 12 16  1  0  0  0  0
 12 13  2  0  0  0  0
 14  9  1  0  0  0  0
 15 10  1  0  0  0  0
 17  3  1  0  0  0  0
 17 21  1  0  0  0  0
 18 19  1  0  0  0  0
 18 17  1  0  0  0  0
 19 20  1  0  0  0  0
 20 21  1  0  0  0  0
M  END
>  <minimizedAffinity>
-4.40064383

$$$$

 OpenBabel03242513473D

 21 23  0  0  1  0  0  0  0  0999 V2000
   37.1970   28.6310   40.6150 C   0  0  1  0  0  0  0  0  0  0  0  0
   35.6810   28.7330   40.9160 C   0  0  0  0  0  0  0  0  0  0  0  0
   36.6310   29.8710   41.0950 C   0  0  2  0  0  0  0  0  0  0  0  0
   37.4150   28.3640   39.5480 H   0  0  0  0  0  0  0  0  0  0  0  0
   35.0350   28.6850   40.0180 H   0  0  0  0  0  0  0  0  0  0  0  0
   35.2860   28.1610   41.7540 H   0  0  0  0  0  0  0  0  0  0  0  0
   36.8390   30.0960   42.1810 H   0  0  0  0  0  0  0  0  0  0  0  0
   37.9090   27.6920   41.5260 C   0  0  0  0  0  0  0  0  0  0  0  0
   38.6130   28.2240   42.6470 C   0  0  0  0  0  0  0  0  0  0  0  0
   39.2700   27.3440   43.5000 C   0  0  0  0  0  0  0  0  0  0  0  0
   39.1980   25.9940   43.2060 N   0  0  0  0  0  0  0  0  0  0  0  0
   38.5150   25.5400   42.1260 C   0  0  0  0  0  0  0  0  0  0  0  0
   37.8730   26.3840   41.2890 N   0  0  0  0  0  0  0  0  0  0  0  0
   38.6310   29.2880   42.8230 H   0  0  0  0  0  0  0  0  0  0  0  0
   39.8160   27.6980   44.3620 H   0  0  0  0  0  0  0  0  0  0  0  0
   38.5160   24.4560   41.9770 H   0  0  0  0  0  0  0  0  0  0  0  0
   36.5100   31.1250   40.2960 C   0  0  0  0  0  3  0  0  0  0  0  0
   37.5090   32.1880   40.5850 C   0  0  0  0  0  2  0  0  0  0  0  0
   37.3640   33.0710   39.3380 C   0  0  0  0  0  2  0  0  0  0  0  0
   37.3350   32.0520   38.2100 C   0  0  0  0  0  2  0  0  0  0  0  0
   36.7950   30.7890   38.8430 C   0  0  0  0  0  2  0  0  0  0  0  0
  1  4  1  6  0  0  0
  1  2  1  0  0  0  0
  1  3  1  0  0  0  0
  1  8  1  0  0  0  0
  2  3  1  0  0  0  0
  2  6  1  0  0  0  0
  3  7  1  1  0  0  0
  5  2  1  0  0  0  0
  8  9  1  0  0  0  0
  9 14  1  0  0  0  0
  9 10  2  0  0  0  0
 10 15  1  0  0  0  0
 11 10  1  0  0  0  0
 12 11  2  0  0  0  0
 13  8  2  0  0  0  0
 13 12  1  0  0  0  0
 16 12  1  0  0  0  0
 17 18  1  0  0  0  0
 17  3  1  0  0  0  0
 19 18  1  0  0  0  0
 20 21  1  0  0  0  0
 20 19  1  0  0  0  0
 21 17  1  0  0  0  0
M  END
>  <minimizedAffinity>
-4.32696915

$$$$

 OpenBabel03242513473D

 21 23  0  0  1  0  0  0  0  0999 V2000
   39.5700   30.3710   41.3090 C   0  0  1  0  0  0  0  0  0  0  0  0
   40.6250   30.0430   42.3940 C   0  0  0  0  0  0  0  0  0  0  0  0
   39.1730   30.2250   42.6910 C   0  0  2  0  0  0  0  0  0  0  0  0
   39.5070   29.5860   40.5090 H   0  0  0  0  0  0  0  0  0  0  0  0
   41.0530   29.0240   42.3210 H   0  0  0  0  0  0  0  0  0  0  0  0
   41.3720   30.8010   42.6280 H   0  0  0  0  0  0  0  0  0  0  0  0
   38.9570   31.1960   43.2240 H   0  0  0  0  0  0  0  0  0  0  0  0
   39.7700   31.7090   40.6890 C   0  0  0  0  0  0  0  0  0  0  0  0
   38.8940   32.7750   41.0570 C   0  0  0  0  0  0  0  0  0  0  0  0
   39.0890   34.0250   40.4820 C   0  0  0  0  0  0  0  0  0  0  0  0
   40.1290   34.1610   39.5810 N   0  0  0  0  0  0  0  0  0  0  0  0
   40.9330   33.1160   39.2650 C   0  0  0  0  0  0  0  0  0  0  0  0
   40.7550   31.8950   39.8160 N   0  0  0  0  0  0  0  0  0  0  0  0
   38.1010   32.6050   41.7670 H   0  0  0  0  0  0  0  0  0  0  0  0
   38.4520   34.8620   40.7290 H   0  0  0  0  0  0  0  0  0  0  0  0
   41.7290   33.3210   38.5420 H   0  0  0  0  0  0  0  0  0  0  0  0
   38.3390   29.1140   43.2320 C   0  0  0  0  0  3  0  0  0  0  0  0
   37.1140   28.7740   42.4590 C   0  0  0  0  0  2  0  0  0  0  0  0
   36.7910   27.3830   43.0220 C   0  0  0  0  0  2  0  0  0  0  0  0
   38.1500   26.7020   43.0300 C   0  0  0  0  0  2  0  0  0  0  0  0
   39.1480   27.8320   43.1500 C   0  0  0  0  0  2  0  0  0  0  0  0
  1  4  1  6  0  0  0
  1  2  1  0  0  0  0
  1  3  1  0  0  0  0
  2  6  1  0  0  0  0
  2  3  1  0  0  0  0
  3  7  1  1  0  0  0
  3 17  1  0  0  0  0
  5  2  1  0  0  0  0
  8  9  1  0  0  0  0
  8  1  1  0  0  0  0
  9 14  1  0  0  0  0
 10 15  1  0  0  0  0
 10  9  2  0  0  0  0
 11 10  1  0  0  0  0
 12 11  2  0  0  0  0
 12 13  1  0  0  0  0
 13  8  2  0  0  0  0
 16 12  1  0  0  0  0
 18 19  1  0  0  0  0
 18 17  1  0  0  0  0
 19 20  1  0  0  0  0
 20 21  1  0  0  0  0
 21 17  1  0  0  0  0
M  END
>  <minimizedAffinity>
-4.24207497

$$$$

 OpenBabel03242513473D

 21 23  0  0  1  0  0  0  0  0999 V2000
   37.9470   27.5750   42.4370 C   0  0  1  0  0  0  0  0  0  0  0  0
   37.1540   28.0650   43.6740 C   0  0  0  0  0  0  0  0  0  0  0  0
   37.7830   28.9900   42.6850 C   0  0  2  0  0  0  0  0  0  0  0  0
   37.3320   26.9420   41.7450 H   0  0  0  0  0  0  0  0  0  0  0  0
   36.0660   27.8590   43.6280 H   0  0  0  0  0  0  0  0  0  0  0  0
   37.5790   27.8820   44.6600 H   0  0  0  0  0  0  0  0  0  0  0  0
   38.6990   29.5060   43.0950 H   0  0  0  0  0  0  0  0  0  0  0  0
   39.2010   26.8580   42.7960 C   0  0  0  0  0  0  0  0  0  0  0  0
   39.2540   25.4420   42.6340 C   0  0  0  0  0  0  0  0  0  0  0  0
   40.4290   24.7760   42.9630 C   0  0  0  0  0  0  0  0  0  0  0  0
   41.4850   25.5360   43.4310 N   0  0  0  0  0  0  0  0  0  0  0  0
   41.3840   26.8820   43.5670 C   0  0  0  0  0  0  0  0  0  0  0  0
   40.2480   27.5410   43.2520 N   0  0  0  0  0  0  0  0  0  0  0  0
   38.3950   24.9050   42.2630 H   0  0  0  0  0  0  0  0  0  0  0  0
   40.5170   23.7050   42.8580 H   0  0  0  0  0  0  0  0  0  0  0  0
   42.2730   27.3960   43.9450 H   0  0  0  0  0  0  0  0  0  0  0  0
   36.9660   29.9180   41.8510 C   0  0  0  0  0  3  0  0  0  0  0  0
   37.7120   30.7470   40.8670 C   0  0  0  0  0  2  0  0  0  0  0  0
   36.5720   31.2000   39.9440 C   0  0  0  0  0  2  0  0  0  0  0  0
   35.7870   29.9150   39.7290 C   0  0  0  0  0  2  0  0  0  0  0  0
   36.0610   29.0840   40.9620 C   0  0  0  0  0  2  0  0  0  0  0  0
  1  4  1  6  0  0  0
  1  3  1  0  0  0  0
  1  8  1  0  0  0  0
  1  2  1  0  0  0  0
  2  6  1  0  0  0  0
  3  7  1  1  0  0  0
  3  2  1  0  0  0  0
  5  2  1  0  0  0  0
  8 13  1  0  0  0  0
  9  8  2  0  0  0  0
  9 10  1  0  0  0  0
 10 11  2  0  0  0  0
 11 12  1  0  0  0  0
 12 16  1  0  0  0  0
 13 12  2  0  0  0  0
 14  9  1  0  0  0  0
 15 10  1  0  0  0  0
 17  3  1  0  0  0  0
 18 17  1  0  0  0  0
 19 18  1  0  0  0  0
 20 19  1  0  0  0  0
 20 21  1  0  0  0  0
 21 17  1  0  0  0  0
M  END
>  <minimizedAffinity>
-4.22235441

$$$$

 OpenBabel03242513473D

 21 23  0  0  1  0  0  0  0  0999 V2000
   38.0220   28.6570   41.7870 C   0  0  1  0  0  0  0  0  0  0  0  0
   37.4360   28.7780   43.2160 C   0  0  0  0  0  0  0  0  0  0  0  0
   37.0230   27.7190   42.2470 C   0  0  2  0  0  0  0  0  0  0  0  0
   39.1330   28.5020   41.7810 H   0  0  0  0  0  0  0  0  0  0  0  0
   38.1550   28.5410   44.0240 H   0  0  0  0  0  0  0  0  0  0  0  0
   36.8130   29.6420   43.4430 H   0  0  0  0  0  0  0  0  0  0  0  0
   35.9880   27.8910   41.8320 H   0  0  0  0  0  0  0  0  0  0  0  0
   37.6690   29.8110   40.9140 C   0  0  0  0  0  0  0  0  0  0  0  0
   36.8570   29.5790   39.7640 C   0  0  0  0  0  0  0  0  0  0  0  0
   36.5230   30.6590   38.9560 C   0  0  0  0  0  0  0  0  0  0  0  0
   37.0010   31.9040   39.3210 N   0  0  0  0  0  0  0  0  0  0  0  0
   37.7700   32.0710   40.4260 C   0  0  0  0  0  0  0  0  0  0  0  0
   38.1030   31.0300   41.2200 N   0  0  0  0  0  0  0  0  0  0  0  0
   36.5140   28.5830   39.5320 H   0  0  0  0  0  0  0  0  0  0  0  0
   35.9110   30.5340   38.0740 H   0  0  0  0  0  0  0  0  0  0  0  0
   38.1000   33.0940   40.6330 H   0  0  0  0  0  0  0  0  0  0  0  0
   37.2640   26.2730   42.5180 C   0  0  0  0  0  3  0  0  0  0  0  0
   37.0700   25.3470   41.3700 C   0  0  0  0  0  2  0  0  0  0  0  0
   37.8070   24.0990   41.8750 C   0  0  0  0  0  2  0  0  0  0  0  0
   39.0920   24.6770   42.4450 C   0  0  0  0  0  2  0  0  0  0  0  0
   38.7360   26.0920   42.8450 C   0  0  0  0  0  2  0  0  0  0  0  0
  1  4  1  6  0  0  0
  1  3  1  0  0  0  0
  1  2  1  0  0  0  0
  2  6  1  0  0  0  0
  2  5  1  0  0  0  0
  3  7  1  6  0  0  0
  3 17  1  0  0  0  0
  3  2  1  0  0  0  0
  8 13  1  0  0  0  0
  8  1  1  0  0  0  0
  9  8  2  0  0  0  0
 10 11  2  0  0  0  0
 10  9  1  0  0  0  0
 11 12  1  0  0  0  0
 12 16  1  0  0  0  0
 12 13  2  0  0  0  0
 14  9  1  0  0  0  0
 15 10  1  0  0  0  0
 17 21  1  0  0  0  0
 18 19  1  0  0  0  0
 18 17  1  0  0  0  0
 19 20  1  0  0  0  0
 20 21  1  0  0  0  0
M  END
>  <minimizedAffinity>
-4.22188854

$$$$

 OpenBabel03242513473D

 21 23  0  0  1  0  0  0  0  0999 V2000
   37.5050   31.0830   41.1890 C   0  0  1  0  0  0  0  0  0  0  0  0
   36.2540   30.7880   40.3240 C   0  0  0  0  0  0  0  0  0  0  0  0
   37.2050   29.7300   40.7790 C   0  0  2  0  0  0  0  0  0  0  0  0
   37.2530   31.5550   42.1750 H   0  0  0  0  0  0  0  0  0  0  0  0
   35.2910   30.9330   40.8510 H   0  0  0  0  0  0  0  0  0  0  0  0
   36.2390   31.1630   39.3010 H   0  0  0  0  0  0  0  0  0  0  0  0
   37.8510   29.3370   39.9420 H   0  0  0  0  0  0  0  0  0  0  0  0
   38.5210   31.9090   40.4800 C   0  0  0  0  0  0  0  0  0  0  0  0
   39.4520   31.2590   39.6150 C   0  0  0  0  0  0  0  0  0  0  0  0
   40.3940   32.0340   38.9490 C   0  0  0  0  0  0  0  0  0  0  0  0
   40.3700   33.3990   39.1660 N   0  0  0  0  0  0  0  0  0  0  0  0
   39.4630   33.9680   39.9990 C   0  0  0  0  0  0  0  0  0  0  0  0
   38.5420   33.2270   40.6540 N   0  0  0  0  0  0  0  0  0  0  0  0
   39.4190   30.1880   39.4870 H   0  0  0  0  0  0  0  0  0  0  0  0
   41.1200   31.5880   38.2840 H   0  0  0  0  0  0  0  0  0  0  0  0
   39.5230   35.0550   40.1060 H   0  0  0  0  0  0  0  0  0  0  0  0
   36.7760   28.6320   41.6930 C   0  0  0  0  0  3  0  0  0  0  0  0
   37.2240   27.2610   41.3300 C   0  0  0  0  0  2  0  0  0  0  0  0
   36.9980   26.5210   42.6560 C   0  0  0  0  0  2  0  0  0  0  0  0
   37.5730   27.4870   43.6800 C   0  0  0  0  0  2  0  0  0  0  0  0
   37.4390   28.8520   43.0410 C   0  0  0  0  0  2  0  0  0  0  0  0
  1  4  1  1  0  0  0
  2  3  1  0  0  0  0
  2  5  1  0  0  0  0
  2  1  1  0  0  0  0
  3  7  1  6  0  0  0
  3  1  1  0  0  0  0
  3 17  1  0  0  0  0
  6  2  1  0  0  0  0
  8 13  1  0  0  0  0
  8  1  1  0  0  0  0
  9  8  2  0  0  0  0
 10 11  2  0  0  0  0
 10  9  1  0  0  0  0
 11 12  1  0  0  0  0
 12 16  1  0  0  0  0
 12 13  2  0  0  0  0
 14  9  1  0  0  0  0
 15 10  1  0  0  0  0
 17 21  1  0  0  0  0
 18 17  1  0  0  0  0
 18 19  1  0  0  0  0
 19 20  1  0  0  0  0
 21 20  1  0  0  0  0
M  END
>  <minimizedAffinity>
-4.17625713

$$$$

 OpenBabel03242513473D

 21 23  0  0  1  0  0  0  0  0999 V2000
   37.2360   29.3250   41.3620 C   0  0  1  0  0  0  0  0  0  0  0  0
   35.9230   28.5050   41.3220 C   0  0  0  0  0  0  0  0  0  0  0  0
   37.2780   27.8900   41.1900 C   0  0  2  0  0  0  0  0  0  0  0  0
   37.3710   29.8870   42.3230 H   0  0  0  0  0  0  0  0  0  0  0  0
   35.3840   28.4590   42.2880 H   0  0  0  0  0  0  0  0  0  0  0  0
   35.2570   28.6450   40.4700 H   0  0  0  0  0  0  0  0  0  0  0  0
   37.4990   27.5470   40.1380 H   0  0  0  0  0  0  0  0  0  0  0  0
   37.3770   30.2550   40.2080 C   0  0  0  0  0  0  0  0  0  0  0  0
   37.0190   31.6250   40.3830 C   0  0  0  0  0  0  0  0  0  0  0  0
   37.1600   32.4930   39.3060 C   0  0  0  0  0  0  0  0  0  0  0  0
   37.6430   31.9700   38.1210 N   0  0  0  0  0  0  0  0  0  0  0  0
   37.9700   30.6580   38.0070 C   0  0  0  0  0  0  0  0  0  0  0  0
   37.8380   29.8030   39.0450 N   0  0  0  0  0  0  0  0  0  0  0  0
   36.6480   31.9730   41.3340 H   0  0  0  0  0  0  0  0  0  0  0  0
   36.9020   33.5390   39.3890 H   0  0  0  0  0  0  0  0  0  0  0  0
   38.3440   30.3380   37.0300 H   0  0  0  0  0  0  0  0  0  0  0  0
   37.7980   26.9200   42.1970 C   0  0  0  0  0  3  0  0  0  0  0  0
   38.6910   25.8490   41.6780 C   0  0  0  0  0  2  0  0  0  0  0  0
   39.3480   25.3630   42.9770 C   0  0  0  0  0  2  0  0  0  0  0  0
   39.7050   26.6650   43.6780 C   0  0  0  0  0  2  0  0  0  0  0  0
   38.7050   27.6720   43.1540 C   0  0  0  0  0  2  0  0  0  0  0  0
  1  4  1  1  0  0  0
  2  1  1  0  0  0  0
  2  5  1  0  0  0  0
  3  7  1  6  0  0  0
  3  2  1  0  0  0  0
  3  1  1  0  0  0  0
  3 17  1  0  0  0  0
  6  2  1  0  0  0  0
  8  9  1  0  0  0  0
  8  1  1  0  0  0  0
  9 14  1  0  0  0  0
 10 15  1  0  0  0  0
 10  9  2  0  0  0  0
 11 10  1  0  0  0  0
 12 11  2  0  0  0  0
 12 13  1  0  0  0  0
 13  8  2  0  0  0  0
 16 12  1  0  0  0  0
 17 21  1  0  0  0  0
 18 17  1  0  0  0  0
 18 19  1  0  0  0  0
 19 20  1  0  0  0  0
 21 20  1  0  0  0  0
M  END
>  <minimizedAffinity>
-4.12150145

$$$$

 OpenBabel03242513473D

 21 23  0  0  1  0  0  0  0  0999 V2000
   36.6400   28.2900   39.6290 C   0  0  1  0  0  0  0  0  0  0  0  0
   35.2040   28.5200   39.0950 C   0  0  0  0  0  0  0  0  0  0  0  0
   35.8570   29.4100   40.1010 C   0  0  2  0  0  0  0  0  0  0  0  0
   37.4160   28.3110   38.8190 H   0  0  0  0  0  0  0  0  0  0  0  0
   35.1570   28.8250   38.0310 H   0  0  0  0  0  0  0  0  0  0  0  0
   34.4360   27.7950   39.3630 H   0  0  0  0  0  0  0  0  0  0  0  0
   35.4280   29.2820   41.1370 H   0  0  0  0  0  0  0  0  0  0  0  0
   36.7720   27.0370   40.4230 C   0  0  0  0  0  0  0  0  0  0  0  0
   36.9670   27.1350   41.8330 C   0  0  0  0  0  0  0  0  0  0  0  0
   37.0810   25.9640   42.5720 C   0  0  0  0  0  0  0  0  0  0  0  0
   36.9970   24.7640   41.8890 N   0  0  0  0  0  0  0  0  0  0  0  0
   36.8100   24.7260   40.5460 C   0  0  0  0  0  0  0  0  0  0  0  0
   36.6980   25.8570   39.8150 N   0  0  0  0  0  0  0  0  0  0  0  0
   37.0230   28.1020   42.3080 H   0  0  0  0  0  0  0  0  0  0  0  0
   37.2310   25.9860   43.6420 H   0  0  0  0  0  0  0  0  0  0  0  0
   36.7570   23.7300   40.0950 H   0  0  0  0  0  0  0  0  0  0  0  0
   36.1460   30.8430   39.8080 C   0  0  0  0  0  3  0  0  0  0  0  0
   37.1260   31.5130   40.7040 C   0  0  0  0  0  2  0  0  0  0  0  0
   37.4870   32.7490   39.8680 C   0  0  0  0  0  2  0  0  0  0  0  0
   37.6900   32.1640   38.4790 C   0  0  0  0  0  2  0  0  0  0  0  0
   36.8290   30.9210   38.4540 C   0  0  0  0  0  2  0  0  0  0  0  0
  1  4  1  6  0  0  0
  1  3  1  0  0  0  0
  1  8  1  0  0  0  0
  2  6  1  0  0  0  0
  2  1  1  0  0  0  0
  2  3  1  0  0  0  0
  3  7  1  1  0  0  0
  5  2  1  0  0  0  0
  8  9  1  0  0  0  0
  9 14  1  0  0  0  0
  9 10  2  0  0  0  0
 10 15  1  0  0  0  0
 11 10  1  0  0  0  0
 12 11  2  0  0  0  0
 13  8  2  0  0  0  0
 13 12  1  0  0  0  0
 16 12  1  0  0  0  0
 17  3  1  0  0  0  0
 17 18  1  0  0  0  0
 19 18  1  0  0  0  0
 20 19  1  0  0  0  0
 21 20  1  0  0  0  0
 21 17  1  0  0  0  0
M  END
>  <minimizedAffinity>
-4.10350657

$$$$
