
 OpenBabel03252507583D

 23 25  0  0  1  0  0  0  0  0999 V2000
   45.7100   32.4880   44.8600 C   0  0  1  0  0  0  0  0  0  0  0  0
   47.1780   32.2600   45.0410 C   0  0  0  0  0  0  0  0  0  0  0  0
   46.3680   32.8090   46.1640 C   0  0  2  0  0  0  0  0  0  0  0  0
   45.0680   31.5930   44.7550 H   0  0  0  0  0  0  0  0  0  0  0  0
   47.4900   31.1980   45.0670 H   0  0  0  0  0  0  0  0  0  0  0  0
   47.8110   32.8860   44.4020 H   0  0  0  0  0  0  0  0  0  0  0  0
   46.5880   33.8820   46.4110 H   0  0  0  0  0  0  0  0  0  0  0  0
   44.5190   34.6800   42.1660 C   0  0  0  0  0  0  0  0  0  0  0  0
   44.4020   35.9360   42.8030 C   0  0  0  0  0  0  0  0  0  0  0  0
   44.7350   36.0220   44.1790 C   0  0  0  0  0  0  0  0  0  0  0  0
   45.1460   34.8800   44.7930 N   0  0  0  0  0  0  0  0  0  0  0  0
   45.2330   33.7000   44.1140 C   0  0  0  0  0  0  0  0  0  0  0  0
   44.9280   33.5960   42.8300 N   0  0  0  0  0  0  0  0  0  0  0  0
   44.0760   36.8430   42.3110 H   0  0  0  0  0  0  0  0  0  0  0  0
   44.6660   36.9560   44.7200 H   0  0  0  0  0  0  0  0  0  0  0  0
   44.1680   34.7140   40.7890 C   0  0  0  0  0  0  0  0  0  0  0  0
   44.0810   33.6990   40.0300 O   0  0  0  0  0  0  0  0  0  0  0  0
   43.9180   35.5810   40.1580 H   0  0  0  0  0  0  0  0  0  0  0  0
   46.2340   31.9300   47.3550 C   0  0  0  0  0  3  0  0  0  0  0  0
   45.5380   30.6220   47.0680 C   0  0  0  0  0  2  0  0  0  0  0  0
   45.3170   30.0870   48.4860 C   0  0  0  0  0  2  0  0  0  0  0  0
   45.4930   31.2500   49.4280 C   0  0  0  0  0  2  0  0  0  0  0  0
   45.4350   32.4670   48.4930 C   0  0  0  0  0  2  0  0  0  0  0  0
  1  4  1  6  0  0  0
  1  2  1  0  0  0  0
  1  3  1  0  0  0  0
  2  5  1  0  0  0  0
  2  3  1  0  0  0  0
  3  7  1  1  0  0  0
  3 19  1  0  0  0  0
  6  2  1  0  0  0  0
  8  9  2  0  0  0  0
  8 13  1  0  0  0  0
  9 10  1  0  0  0  0
 10 15  1  0  0  0  0
 10 11  2  0  0  0  0
 12 11  1  0  0  0  0
 12  1  1  0  0  0  0
 13 12  2  0  0  0  0
 14  9  1  0  0  0  0
 16  8  1  0  0  0  0
 17 16  2  0  0  0  0
 18 16  1  0  0  0  0
 19 23  1  0  0  0  0
 20 19  1  0  0  0  0
 20 21  1  0  0  0  0
 21 22  1  0  0  0  0
 23 22  1  0  0  0  0
M  END
>  <minimizedAffinity>
-4.67811203

>  <minimizedRMSD>
2.07556725

$$$$
