
 OpenBabel03242513473D

 21 23  0  0  1  0  0  0  0  0999 V2000
   44.4500   35.0820   43.5910 C   0  0  1  0  0  0  0  0  0  0  0  0
   45.1620   36.3610   43.0860 C   0  0  0  0  0  0  0  0  0  0  0  0
   44.6520   35.2930   42.1750 C   0  0  2  0  0  0  0  0  0  0  0  0
   43.5170   35.3020   44.1740 H   0  0  0  0  0  0  0  0  0  0  0  0
   44.5810   37.2930   43.2290 H   0  0  0  0  0  0  0  0  0  0  0  0
   46.2210   36.4820   43.3140 H   0  0  0  0  0  0  0  0  0  0  0  0
   45.4810   34.6770   41.7210 H   0  0  0  0  0  0  0  0  0  0  0  0
   45.3430   34.1940   44.3850 C   0  0  0  0  0  0  0  0  0  0  0  0
   46.3170   33.4080   43.6990 C   0  0  0  0  0  0  0  0  0  0  0  0
   47.1540   32.5860   44.4440 C   0  0  0  0  0  0  0  0  0  0  0  0
   46.9920   32.5810   45.8170 N   0  0  0  0  0  0  0  0  0  0  0  0
   46.0500   33.3480   46.4210 C   0  0  0  0  0  0  0  0  0  0  0  0
   45.2290   34.1510   45.7090 N   0  0  0  0  0  0  0  0  0  0  0  0
   46.3950   33.4560   42.6240 H   0  0  0  0  0  0  0  0  0  0  0  0
   47.9060   31.9720   43.9700 H   0  0  0  0  0  0  0  0  0  0  0  0
   45.9970   33.2770   47.5120 H   0  0  0  0  0  0  0  0  0  0  0  0
   43.5690   35.5600   41.1850 C   0  0  0  0  0  0  0  0  0  0  0  0
   43.4510   34.5910   40.0620 C   0  0  0  0  0  0  0  0  0  0  0  0
   42.0400   34.9100   39.5500 C   0  0  0  0  0  0  0  0  0  0  0  0
   41.2320   35.0050   40.8340 C   0  0  0  0  0  0  0  0  0  0  0  0
   42.2340   35.4110   41.8920 C   0  0  0  0  0  0  0  0  0  0  0  0
  1  4  1  1  0  0  0
  1  8  1  0  0  0  0
  2  5  1  0  0  0  0
  2  6  1  0  0  0  0
  2  1  1  0  0  0  0
  3  7  1  6  0  0  0
  3  2  1  0  0  0  0
  3  1  1  0  0  0  0
  8 13  1  0  0  0  0
  9  8  2  0  0  0  0
  9 10  1  0  0  0  0
 10 11  2  0  0  0  0
 11 12  1  0  0  0  0
 12 16  1  0  0  0  0
 13 12  2  0  0  0  0
 14  9  1  0  0  0  0
 15 10  1  0  0  0  0
 17 21  1  0  0  0  0
 17  3  1  0  0  0  0
 18 17  1  0  0  0  0
 19 18  1  0  0  0  0
 19 20  1  0  0  0  0
 20 21  1  0  0  0  0
M  END
>  <minimizedAffinity>
-4.26473141

>  <minimizedRMSD>
1.16282058

$$$$
