
 OpenBabel03252504253D

 17 18  0  0  0  0  0  0  0  0999 V2000
   44.0840   35.8810   43.6460 C   0  0  0  0  0  0  0  0  0  0  0  0
   44.0900   34.9750   42.5940 C   0  0  0  0  0  0  0  0  0  0  0  0
   44.7240   33.7480   42.8040 C   0  0  0  0  0  0  0  0  0  0  0  0
   45.2880   33.5270   44.0110 N   0  0  0  0  0  0  0  0  0  0  0  0
   45.2680   34.4230   45.0140 C   0  0  0  0  0  0  0  0  0  0  0  0
   44.6620   35.6280   44.8530 N   0  0  0  0  0  0  0  0  0  0  0  0
   43.6200   36.8650   43.5920 H   0  0  0  0  0  0  0  0  0  0  0  0
   44.7060   33.0830   41.9730 H   0  0  0  0  0  0  0  0  0  0  0  0
   45.7230   34.2160   45.9560 H   0  0  0  0  0  0  0  0  0  0  0  0
   43.4160   35.4220   41.3650 C   0  0  0  0  0  0  0  0  0  0  0  0
   43.6280   36.4610   41.1540 H   0  0  0  0  0  0  0  0  0  0  0  0
   43.7740   34.8220   40.4870 H   0  0  0  0  0  0  0  0  0  0  0  0
   41.9280   35.2410   41.5020 C   0  0  0  0  0  3  0  0  0  0  0  0
   41.4790   33.8360   41.1450 C   0  0  0  0  0  2  0  0  0  0  0  0
   39.9720   34.0290   41.1900 C   0  0  0  0  0  2  0  0  0  0  0  0
   39.8040   35.3180   40.4100 C   0  0  0  0  0  2  0  0  0  0  0  0
   41.1530   36.0410   40.4870 C   0  0  0  0  0  2  0  0  0  0  0  0
  1  6  1  0  0  0  0
  2  3  1  0  0  0  0
  2  1  2  0  0  0  0
  3  4  2  0  0  0  0
  4  5  1  0  0  0  0
  5  9  1  0  0  0  0
  6  5  2  0  0  0  0
  7  1  1  0  0  0  0
  8  3  1  0  0  0  0
 10 13  1  0  0  0  0
 10  2  1  0  0  0  0
 11 10  1  0  0  0  0
 12 10  1  0  0  0  0
 14 15  1  0  0  0  0
 14 13  1  0  0  0  0
 16 17  1  0  0  0  0
 16 15  1  0  0  0  0
 17 13  1  0  0  0  0
M  END
>  <minimizedAffinity>
-3.91866851

>  <minimizedRMSD>
1.12675023

$$$$
