
 OpenBabel03242514473D

 30 32  0  0  1  0  0  0  0  0999 V2000
   37.1670   28.1770   40.6570 C   0  0  0  0  0  0  0  0  0  0  0  0
   37.6880   29.3860   41.1520 C   0  0  0  0  0  0  0  0  0  0  0  0
   37.8760   29.4940   42.5240 C   0  0  0  0  0  0  0  0  0  0  0  0
   37.5560   28.4430   43.3340 N   0  0  0  0  0  0  0  0  0  0  0  0
   37.0590   27.3020   42.8140 C   0  0  0  0  0  0  0  0  0  0  0  0
   36.8610   27.1550   41.4920 N   0  0  0  0  0  0  0  0  0  0  0  0
   38.2700   30.3920   42.9620 H   0  0  0  0  0  0  0  0  0  0  0  0
   36.8140   26.4830   43.4870 H   0  0  0  0  0  0  0  0  0  0  0  0
   36.8640   31.4750   40.0550 C   0  0  2  0  0  0  0  0  0  0  0  0
   38.0290   30.5120   40.2400 C   0  0  1  0  0  0  0  0  0  0  0  0
   39.1180   31.2310   40.6250 O   0  0  0  0  0  0  0  0  0  0  0  0
   38.7460   32.4840   41.0280 C   0  0  0  0  0  0  0  0  0  0  0  0
   37.6090   32.8210   40.1090 C   0  0  1  0  0  0  0  0  0  0  0  0
   36.4370   31.4520   39.0290 H   0  0  0  0  0  0  0  0  0  0  0  0
   38.2170   30.1330   39.2220 H   0  0  0  0  0  0  0  0  0  0  0  0
   39.6080   33.1730   40.7970 H   0  0  0  0  0  0  0  0  0  0  0  0
   38.5400   32.6170   42.0940 H   0  0  0  0  0  0  0  0  0  0  0  0
   36.9520   33.6120   40.4920 H   0  0  0  0  0  0  0  0  0  0  0  0
   35.9180   31.4370   41.0330 O   0  0  0  0  0  0  0  0  0  0  0  0
   35.1380   30.9250   40.6590 H   0  0  0  0  0  0  0  0  0  0  0  0
   38.1520   33.1290   38.8680 O   0  0  0  0  0  0  0  0  0  0  0  0
   38.7420   33.9060   39.0180 H   0  0  0  0  0  0  0  0  0  0  0  0
   36.9770   28.0440   39.1950 C   0  0  0  0  0  0  0  0  0  0  0  0
   37.6410   27.2890   38.7400 H   0  0  0  0  0  0  0  0  0  0  0  0
   37.3700   29.0040   38.7370 H   0  0  0  0  0  0  0  0  0  0  0  0
   35.5610   27.9630   38.7410 C   0  0  0  0  0  3  0  0  0  0  0  0
   35.1620   29.1460   37.8730 C   0  0  0  0  0  2  0  0  0  0  0  0
   33.8490   28.6410   37.2650 C   0  0  0  0  0  2  0  0  0  0  0  0
   33.9780   27.1450   37.2020 C   0  0  0  0  0  2  0  0  0  0  0  0
   35.3490   26.8320   37.7460 C   0  0  0  0  0  2  0  0  0  0  0  0
  1  2  2  0  0  0  0
  1  6  1  0  0  0  0
  2  3  1  0  0  0  0
  3  7  1  0  0  0  0
  3  4  2  0  0  0  0
  5  4  1  0  0  0  0
  5  8  1  0  0  0  0
  6  5  2  0  0  0  0
  9 14  1  6  0  0  0
  9 13  1  0  0  0  0
  9 10  1  0  0  0  0
  9 19  1  0  0  0  0
 10 15  1  6  0  0  0
 10 11  1  0  0  0  0
 10  2  1  0  0  0  0
 11 12  1  0  0  0  0
 12 17  1  0  0  0  0
 13 18  1  1  0  0  0
 13 12  1  0  0  0  0
 16 12  1  0  0  0  0
 20 19  1  0  0  0  0
 21 22  1  0  0  0  0
 21 13  1  0  0  0  0
 23  1  1  0  0  0  0
 24 23  1  0  0  0  0
 25 23  1  0  0  0  0
 26 23  1  0  0  0  0
 27 26  1  0  0  0  0
 28 27  1  0  0  0  0
 29 28  1  0  0  0  0
 29 30  1  0  0  0  0
 30 26  1  0  0  0  0
M  END
>  <minimizedAffinity>
-5.30145168

$$$$

 OpenBabel03242514473D

 30 32  0  0  1  0  0  0  0  0999 V2000
   38.1410   29.3860   39.2150 C   0  0  0  0  0  0  0  0  0  0  0  0
   37.8320   30.7370   38.9680 C   0  0  0  0  0  0  0  0  0  0  0  0
   37.3640   31.0710   37.7040 C   0  0  0  0  0  0  0  0  0  0  0  0
   37.2220   30.0980   36.7580 N   0  0  0  0  0  0  0  0  0  0  0  0
   37.5310   28.8150   37.0400 C   0  0  0  0  0  0  0  0  0  0  0  0
   37.9870   28.4480   38.2510 N   0  0  0  0  0  0  0  0  0  0  0  0
   37.1120   32.0840   37.4550 H   0  0  0  0  0  0  0  0  0  0  0  0
   37.4060   28.0630   36.2630 H   0  0  0  0  0  0  0  0  0  0  0  0
   39.3450   32.4750   39.9360 C   0  0  2  0  0  0  0  0  0  0  0  0
   37.9970   31.7730   40.0250 C   0  0  1  0  0  0  0  0  0  0  0  0
   37.0230   32.7230   40.0300 O   0  0  0  0  0  0  0  0  0  0  0  0
   37.5290   33.9300   39.6340 C   0  0  0  0  0  0  0  0  0  0  0  0
   38.9160   33.9290   40.2040 C   0  0  1  0  0  0  0  0  0  0  0  0
   40.0180   32.2370   40.7870 H   0  0  0  0  0  0  0  0  0  0  0  0
   38.0150   31.3010   41.0200 H   0  0  0  0  0  0  0  0  0  0  0  0
   36.9280   34.7270   40.1580 H   0  0  0  0  0  0  0  0  0  0  0  0
   37.4630   34.1650   38.5680 H   0  0  0  0  0  0  0  0  0  0  0  0
   39.5970   34.6310   39.7080 H   0  0  0  0  0  0  0  0  0  0  0  0
   39.9620   32.3980   38.7240 O   0  0  0  0  0  0  0  0  0  0  0  0
   40.6860   31.7070   38.8140 H   0  0  0  0  0  0  0  0  0  0  0  0
   38.8070   34.1610   41.5690 O   0  0  0  0  0  0  0  0  0  0  0  0
   38.3770   35.0440   41.6590 H   0  0  0  0  0  0  0  0  0  0  0  0
   38.6260   29.0160   40.5640 C   0  0  0  0  0  0  0  0  0  0  0  0
   39.1960   29.8240   41.0550 H   0  0  0  0  0  0  0  0  0  0  0  0
   39.4270   28.2300   40.4060 H   0  0  0  0  0  0  0  0  0  0  0  0
   37.6200   28.3590   41.4440 C   0  0  0  0  0  3  0  0  0  0  0  0
   37.8410   26.8590   41.5570 C   0  0  0  0  0  2  0  0  0  0  0  0
   36.9520   26.5150   42.7570 C   0  0  0  0  0  2  0  0  0  0  0  0
   36.9220   27.7520   43.6090 C   0  0  0  0  0  2  0  0  0  0  0  0
   37.8000   28.7540   42.9020 C   0  0  0  0  0  2  0  0  0  0  0  0
  1 23  1  0  0  0  0
  2  1  1  0  0  0  0
  2 10  1  0  0  0  0
  3  2  2  0  0  0  0
  4  5  2  0  0  0  0
  4  3  1  0  0  0  0
  5  6  1  0  0  0  0
  6  1  2  0  0  0  0
  7  3  1  0  0  0  0
  8  5  1  0  0  0  0
  9 10  1  0  0  0  0
  9 13  1  0  0  0  0
  9 14  1  1  0  0  0
 10 11  1  0  0  0  0
 10 15  1  1  0  0  0
 12 11  1  0  0  0  0
 12 16  1  0  0  0  0
 12 13  1  0  0  0  0
 13 18  1  6  0  0  0
 13 21  1  0  0  0  0
 17 12  1  0  0  0  0
 19 20  1  0  0  0  0
 19  9  1  0  0  0  0
 21 22  1  0  0  0  0
 23 24  1  0  0  0  0
 23 26  1  0  0  0  0
 25 23  1  0  0  0  0
 26 27  1  0  0  0  0
 26 30  1  0  0  0  0
 27 28  1  0  0  0  0
 28 29  1  0  0  0  0
 30 29  1  0  0  0  0
M  END
>  <minimizedAffinity>
-5.15846825

$$$$

 OpenBabel03242514473D

 30 32  0  0  1  0  0  0  0  0999 V2000
   37.0880   27.9490   41.1300 C   0  0  0  0  0  0  0  0  0  0  0  0
   37.6160   29.2260   41.3960 C   0  0  0  0  0  0  0  0  0  0  0  0
   37.9970   29.5080   42.7010 C   0  0  0  0  0  0  0  0  0  0  0  0
   37.8500   28.5560   43.6680 N   0  0  0  0  0  0  0  0  0  0  0  0
   37.3390   27.3440   43.3660 C   0  0  0  0  0  0  0  0  0  0  0  0
   36.9570   27.0290   42.1160 N   0  0  0  0  0  0  0  0  0  0  0  0
   38.4070   30.4640   42.9660 H   0  0  0  0  0  0  0  0  0  0  0  0
   37.2350   26.6070   44.1600 H   0  0  0  0  0  0  0  0  0  0  0  0
   36.5270   31.1150   40.1750 C   0  0  2  0  0  0  0  0  0  0  0  0
   37.7650   30.2410   40.3160 C   0  0  1  0  0  0  0  0  0  0  0  0
   38.8460   31.0540   40.4620 O   0  0  0  0  0  0  0  0  0  0  0  0
   38.4490   32.3290   40.7570 C   0  0  0  0  0  0  0  0  0  0  0  0
   37.1850   32.4910   39.9660 C   0  0  1  0  0  0  0  0  0  0  0  0
   35.9750   30.9410   39.2270 H   0  0  0  0  0  0  0  0  0  0  0  0
   37.8450   29.7440   39.3360 H   0  0  0  0  0  0  0  0  0  0  0  0
   39.2290   33.0240   40.3310 H   0  0  0  0  0  0  0  0  0  0  0  0
   38.3720   32.5870   41.8170 H   0  0  0  0  0  0  0  0  0  0  0  0
   36.5330   33.2920   40.3360 H   0  0  0  0  0  0  0  0  0  0  0  0
   35.7180   31.1580   41.2690 O   0  0  0  0  0  0  0  0  0  0  0  0
   34.9310   30.5660   41.0680 H   0  0  0  0  0  0  0  0  0  0  0  0
   37.5440   32.6630   38.6350 O   0  0  0  0  0  0  0  0  0  0  0  0
   38.0970   33.4800   38.6090 H   0  0  0  0  0  0  0  0  0  0  0  0
   36.6930   27.6320   39.7390 C   0  0  0  0  0  0  0  0  0  0  0  0
   37.2880   28.1770   38.9860 H   0  0  0  0  0  0  0  0  0  0  0  0
   35.6640   28.0840   39.5920 H   0  0  0  0  0  0  0  0  0  0  0  0
   36.5160   26.1830   39.4410 C   0  0  0  0  0  3  0  0  0  0  0  0
   35.6780   25.9470   38.1950 C   0  0  0  0  0  2  0  0  0  0  0  0
   35.9600   24.4660   37.9210 C   0  0  0  0  0  2  0  0  0  0  0  0
   37.3390   24.2090   38.4600 C   0  0  0  0  0  2  0  0  0  0  0  0
   37.8180   25.5320   39.0020 C   0  0  0  0  0  2  0  0  0  0  0  0
  1  2  2  0  0  0  0
  1  6  1  0  0  0  0
  2  3  1  0  0  0  0
  3  7  1  0  0  0  0
  3  4  2  0  0  0  0
  5  4  1  0  0  0  0
  5  8  1  0  0  0  0
  6  5  2  0  0  0  0
  9 14  1  6  0  0  0
  9 10  1  0  0  0  0
  9 19  1  0  0  0  0
 10 15  1  6  0  0  0
 10 11  1  0  0  0  0
 10  2  1  0  0  0  0
 11 12  1  0  0  0  0
 12 17  1  0  0  0  0
 13  9  1  0  0  0  0
 13 18  1  1  0  0  0
 13 12  1  0  0  0  0
 16 12  1  0  0  0  0
 20 19  1  0  0  0  0
 21 13  1  0  0  0  0
 22 21  1  0  0  0  0
 23  1  1  0  0  0  0
 24 23  1  0  0  0  0
 25 23  1  0  0  0  0
 26 23  1  0  0  0  0
 27 26  1  0  0  0  0
 28 27  1  0  0  0  0
 28 29  1  0  0  0  0
 29 30  1  0  0  0  0
 30 26  1  0  0  0  0
M  END
>  <minimizedAffinity>
-5.13135958

$$$$

 OpenBabel03242514473D

 30 32  0  0  1  0  0  0  0  0999 V2000
   37.1570   30.5030   39.7170 C   0  0  0  0  0  0  0  0  0  0  0  0
   38.0940   31.4080   39.1850 C   0  0  0  0  0  0  0  0  0  0  0  0
   38.1490   31.5410   37.8030 C   0  0  0  0  0  0  0  0  0  0  0  0
   37.3090   30.8040   37.0200 N   0  0  0  0  0  0  0  0  0  0  0  0
   36.4260   29.9480   37.5750 C   0  0  0  0  0  0  0  0  0  0  0  0
   36.3390   29.7880   38.9080 N   0  0  0  0  0  0  0  0  0  0  0  0
   38.8430   32.2150   37.3370 H   0  0  0  0  0  0  0  0  0  0  0  0
   35.7710   29.3750   36.9230 H   0  0  0  0  0  0  0  0  0  0  0  0
   40.2910   31.4620   40.3750 C   0  0  2  0  0  0  0  0  0  0  0  0
   38.9940   32.1990   40.0680 C   0  0  1  0  0  0  0  0  0  0  0  0
   39.3090   33.4310   39.5840 O   0  0  0  0  0  0  0  0  0  0  0  0
   40.6290   33.4830   39.2300 C   0  0  0  0  0  0  0  0  0  0  0  0
   41.2980   32.6210   40.2580 C   0  0  1  0  0  0  0  0  0  0  0  0
   40.3730   31.1470   41.4370 H   0  0  0  0  0  0  0  0  0  0  0  0
   38.5310   32.3340   41.0600 H   0  0  0  0  0  0  0  0  0  0  0  0
   40.9680   34.5470   39.3810 H   0  0  0  0  0  0  0  0  0  0  0  0
   40.8690   33.2410   38.1910 H   0  0  0  0  0  0  0  0  0  0  0  0
   42.2820   32.2470   39.9480 H   0  0  0  0  0  0  0  0  0  0  0  0
   40.6230   30.4790   39.4940 O   0  0  0  0  0  0  0  0  0  0  0  0
   40.3960   29.6070   39.9390 H   0  0  0  0  0  0  0  0  0  0  0  0
   41.3480   33.3450   41.4430 O   0  0  0  0  0  0  0  0  0  0  0  0
   41.8790   34.1520   41.2430 H   0  0  0  0  0  0  0  0  0  0  0  0
   37.0780   30.3650   41.1890 C   0  0  0  0  0  0  0  0  0  0  0  0
   36.1110   30.6990   41.6030 H   0  0  0  0  0  0  0  0  0  0  0  0
   37.7920   31.1350   41.6170 H   0  0  0  0  0  0  0  0  0  0  0  0
   37.5570   29.0630   41.7330 C   0  0  0  0  0  3  0  0  0  0  0  0
   38.1640   29.2040   43.1200 C   0  0  0  0  0  2  0  0  0  0  0  0
   38.2190   27.7410   43.5720 C   0  0  0  0  0  2  0  0  0  0  0  0
   37.0860   27.0530   42.8640 C   0  0  0  0  0  2  0  0  0  0  0  0
   36.4030   28.1250   42.0530 C   0  0  0  0  0  2  0  0  0  0  0  0
  1 23  1  0  0  0  0
  2  1  1  0  0  0  0
  2 10  1  0  0  0  0
  3  2  2  0  0  0  0
  4  5  2  0  0  0  0
  4  3  1  0  0  0  0
  5  6  1  0  0  0  0
  6  1  2  0  0  0  0
  7  3  1  0  0  0  0
  8  5  1  0  0  0  0
  9 14  1  1  0  0  0
 10  9  1  0  0  0  0
 10 15  1  1  0  0  0
 11 10  1  0  0  0  0
 12 16  1  0  0  0  0
 12 11  1  0  0  0  0
 12 13  1  0  0  0  0
 13 18  1  6  0  0  0
 13  9  1  0  0  0  0
 13 21  1  0  0  0  0
 17 12  1  0  0  0  0
 19 20  1  0  0  0  0
 19  9  1  0  0  0  0
 22 21  1  0  0  0  0
 23 24  1  0  0  0  0
 23 25  1  0  0  0  0
 23 26  1  0  0  0  0
 26 30  1  0  0  0  0
 26 27  1  0  0  0  0
 27 28  1  0  0  0  0
 29 28  1  0  0  0  0
 30 29  1  0  0  0  0
M  END
>  <minimizedAffinity>
-4.99645901

$$$$

 OpenBabel03242514473D

 30 32  0  0  1  0  0  0  0  0999 V2000
   38.4610   26.2050   42.5360 C   0  0  0  0  0  0  0  0  0  0  0  0
   38.6550   27.5580   42.2010 C   0  0  0  0  0  0  0  0  0  0  0  0
   39.8190   28.1710   42.6460 C   0  0  0  0  0  0  0  0  0  0  0  0
   40.7200   27.4570   43.3820 N   0  0  0  0  0  0  0  0  0  0  0  0
   40.4910   26.1610   43.6790 C   0  0  0  0  0  0  0  0  0  0  0  0
   39.3780   25.5280   43.2680 N   0  0  0  0  0  0  0  0  0  0  0  0
   40.0240   29.2010   42.4230 H   0  0  0  0  0  0  0  0  0  0  0  0
   41.2290   25.6200   44.2670 H   0  0  0  0  0  0  0  0  0  0  0  0
   36.6220   29.0090   42.2680 C   0  0  2  0  0  0  0  0  0  0  0  0
   37.6530   28.3060   41.3950 C   0  0  1  0  0  0  0  0  0  0  0  0
   38.1920   29.2260   40.5500 O   0  0  0  0  0  0  0  0  0  0  0  0
   37.8910   30.4940   40.9660 C   0  0  0  0  0  0  0  0  0  0  0  0
   36.5070   30.3540   41.5280 C   0  0  1  0  0  0  0  0  0  0  0  0
   35.6050   28.5720   42.1800 H   0  0  0  0  0  0  0  0  0  0  0  0
   37.0500   27.6070   40.7930 H   0  0  0  0  0  0  0  0  0  0  0  0
   37.8380   31.1390   40.0430 H   0  0  0  0  0  0  0  0  0  0  0  0
   38.6150   30.9800   41.6250 H   0  0  0  0  0  0  0  0  0  0  0  0
   36.2310   31.1560   42.2240 H   0  0  0  0  0  0  0  0  0  0  0  0
   37.0050   29.2280   43.5560 O   0  0  0  0  0  0  0  0  0  0  0  0
   36.5380   28.5370   44.1160 H   0  0  0  0  0  0  0  0  0  0  0  0
   35.6290   30.2480   40.4560 O   0  0  0  0  0  0  0  0  0  0  0  0
   35.7300   31.0830   39.9420 H   0  0  0  0  0  0  0  0  0  0  0  0
   37.2310   25.5360   42.0530 C   0  0  0  0  0  0  0  0  0  0  0  0
   36.5150   26.2330   41.5850 H   0  0  0  0  0  0  0  0  0  0  0  0
   36.6650   25.2090   42.9790 H   0  0  0  0  0  0  0  0  0  0  0  0
   37.4500   24.2800   41.2820 C   0  0  0  0  0  3  0  0  0  0  0  0
   36.1920   23.8130   40.5670 C   0  0  0  0  0  2  0  0  0  0  0  0
   36.7670   22.7750   39.5980 C   0  0  0  0  0  2  0  0  0  0  0  0
   38.1700   23.2250   39.3050 C   0  0  0  0  0  2  0  0  0  0  0  0
   38.3580   24.5030   40.0830 C   0  0  0  0  0  2  0  0  0  0  0  0
  1  6  1  0  0  0  0
  2  1  2  0  0  0  0
  2  3  1  0  0  0  0
  3  4  2  0  0  0  0
  4  5  1  0  0  0  0
  5  8  1  0  0  0  0
  6  5  2  0  0  0  0
  7  3  1  0  0  0  0
  9 14  1  6  0  0  0
  9 19  1  0  0  0  0
 10 15  1  6  0  0  0
 10  2  1  0  0  0  0
 10  9  1  0  0  0  0
 11 12  1  0  0  0  0
 11 10  1  0  0  0  0
 12 13  1  0  0  0  0
 12 17  1  0  0  0  0
 13 18  1  1  0  0  0
 13  9  1  0  0  0  0
 16 12  1  0  0  0  0
 19 20  1  0  0  0  0
 21 13  1  0  0  0  0
 22 21  1  0  0  0  0
 23  1  1  0  0  0  0
 23 25  1  0  0  0  0
 24 23  1  0  0  0  0
 26 23  1  0  0  0  0
 27 26  1  0  0  0  0
 28 27  1  0  0  0  0
 29 28  1  0  0  0  0
 29 30  1  0  0  0  0
 30 26  1  0  0  0  0
M  END
>  <minimizedAffinity>
-4.98664141

$$$$

 OpenBabel03242514473D

 30 32  0  0  1  0  0  0  0  0999 V2000
   36.3400   28.9840   40.1120 C   0  0  0  0  0  0  0  0  0  0  0  0
   36.6600   30.2430   39.5730 C   0  0  0  0  0  0  0  0  0  0  0  0
   36.4570   30.4330   38.2130 C   0  0  0  0  0  0  0  0  0  0  0  0
   35.9630   29.4110   37.4550 N   0  0  0  0  0  0  0  0  0  0  0  0
   35.6700   28.2190   38.0160 C   0  0  0  0  0  0  0  0  0  0  0  0
   35.8510   27.9930   39.3290 N   0  0  0  0  0  0  0  0  0  0  0  0
   36.6830   31.3710   37.7430 H   0  0  0  0  0  0  0  0  0  0  0  0
   35.2780   27.4250   37.3840 H   0  0  0  0  0  0  0  0  0  0  0  0
   38.7150   31.3120   40.5120 C   0  0  2  0  0  0  0  0  0  0  0  0
   37.1950   31.3370   40.4300 C   0  0  1  0  0  0  0  0  0  0  0  0
   36.8110   32.5840   40.0450 O   0  0  0  0  0  0  0  0  0  0  0  0
   37.8780   33.2840   39.5530 C   0  0  0  0  0  0  0  0  0  0  0  0
   39.0200   32.8170   40.4050 C   0  0  1  0  0  0  0  0  0  0  0  0
   39.0930   31.0370   41.5190 H   0  0  0  0  0  0  0  0  0  0  0  0
   36.8760   31.1930   41.4750 H   0  0  0  0  0  0  0  0  0  0  0  0
   37.6890   34.3730   39.7760 H   0  0  0  0  0  0  0  0  0  0  0  0
   38.0480   33.2290   38.4750 H   0  0  0  0  0  0  0  0  0  0  0  0
   40.0060   32.9800   39.9510 H   0  0  0  0  0  0  0  0  0  0  0  0
   39.3400   30.6470   39.5010 O   0  0  0  0  0  0  0  0  0  0  0  0
   39.6240   29.7580   39.8750 H   0  0  0  0  0  0  0  0  0  0  0  0
   38.8950   33.4290   41.6460 O   0  0  0  0  0  0  0  0  0  0  0  0
   38.9420   34.3990   41.4740 H   0  0  0  0  0  0  0  0  0  0  0  0
   36.5360   28.7750   41.5650 C   0  0  0  0  0  0  0  0  0  0  0  0
   35.6120   28.4730   42.0870 H   0  0  0  0  0  0  0  0  0  0  0  0
   36.7280   29.8000   42.0080 H   0  0  0  0  0  0  0  0  0  0  0  0
   37.7350   27.9720   41.9370 C   0  0  0  0  0  3  0  0  0  0  0  0
   38.3440   28.4200   43.2560 C   0  0  0  0  0  2  0  0  0  0  0  0
   39.2770   27.2440   43.5680 C   0  0  0  0  0  2  0  0  0  0  0  0
   38.6420   26.0410   42.9310 C   0  0  0  0  0  2  0  0  0  0  0  0
   37.3680   26.5410   42.2970 C   0  0  0  0  0  2  0  0  0  0  0  0
  1 23  1  0  0  0  0
  2  1  1  0  0  0  0
  2 10  1  0  0  0  0
  3  2  2  0  0  0  0
  4  5  2  0  0  0  0
  4  3  1  0  0  0  0
  5  6  1  0  0  0  0
  6  1  2  0  0  0  0
  7  3  1  0  0  0  0
  8  5  1  0  0  0  0
  9 14  1  1  0  0  0
 10  9  1  0  0  0  0
 10 15  1  1  0  0  0
 11 10  1  0  0  0  0
 12 16  1  0  0  0  0
 12 11  1  0  0  0  0
 12 13  1  0  0  0  0
 13 18  1  6  0  0  0
 13  9  1  0  0  0  0
 13 21  1  0  0  0  0
 17 12  1  0  0  0  0
 19 20  1  0  0  0  0
 19  9  1  0  0  0  0
 22 21  1  0  0  0  0
 23 26  1  0  0  0  0
 23 25  1  0  0  0  0
 23 24  1  0  0  0  0
 26 30  1  0  0  0  0
 26 27  1  0  0  0  0
 27 28  1  0  0  0  0
 29 28  1  0  0  0  0
 30 29  1  0  0  0  0
M  END
>  <minimizedAffinity>
-4.92326975

$$$$

 OpenBabel03242514473D

 30 32  0  0  1  0  0  0  0  0999 V2000
   38.3690   32.4870   39.0580 C   0  0  0  0  0  0  0  0  0  0  0  0
   39.7600   32.2790   39.0390 C   0  0  0  0  0  0  0  0  0  0  0  0
   40.5410   33.0650   39.8760 C   0  0  0  0  0  0  0  0  0  0  0  0
   39.9460   33.9970   40.6760 N   0  0  0  0  0  0  0  0  0  0  0  0
   38.6070   34.1610   40.6610 C   0  0  0  0  0  0  0  0  0  0  0  0
   37.8130   33.4220   39.8660 N   0  0  0  0  0  0  0  0  0  0  0  0
   41.6090   32.9540   39.9070 H   0  0  0  0  0  0  0  0  0  0  0  0
   38.1640   34.9130   41.3110 H   0  0  0  0  0  0  0  0  0  0  0  0
   41.0340   31.8680   36.9280 C   0  0  2  0  0  0  0  0  0  0  0  0
   40.3760   31.2510   38.1550 C   0  0  1  0  0  0  0  0  0  0  0  0
   41.2930   30.4600   38.7760 O   0  0  0  0  0  0  0  0  0  0  0  0
   42.5500   30.7250   38.3080 C   0  0  0  0  0  0  0  0  0  0  0  0
   42.3230   31.0290   36.8570 C   0  0  1  0  0  0  0  0  0  0  0  0
   40.5070   31.6230   35.9810 H   0  0  0  0  0  0  0  0  0  0  0  0
   39.5970   30.5980   37.7310 H   0  0  0  0  0  0  0  0  0  0  0  0
   43.1390   29.7670   38.3840 H   0  0  0  0  0  0  0  0  0  0  0  0
   43.1310   31.4730   38.8550 H   0  0  0  0  0  0  0  0  0  0  0  0
   43.1340   31.6050   36.3940 H   0  0  0  0  0  0  0  0  0  0  0  0
   41.3540   33.1870   37.0410 O   0  0  0  0  0  0  0  0  0  0  0  0
   40.6560   33.6960   36.5290 H   0  0  0  0  0  0  0  0  0  0  0  0
   42.0850   29.8230   36.2090 O   0  0  0  0  0  0  0  0  0  0  0  0
   42.8970   29.2800   36.3450 H   0  0  0  0  0  0  0  0  0  0  0  0
   37.5250   31.6440   38.1810 C   0  0  0  0  0  0  0  0  0  0  0  0
   37.9610   31.4930   37.1780 H   0  0  0  0  0  0  0  0  0  0  0  0
   36.6040   32.2610   37.9420 H   0  0  0  0  0  0  0  0  0  0  0  0
   36.9950   30.4020   38.8090 C   0  0  0  0  0  3  0  0  0  0  0  0
   36.0690   30.6930   39.9780 C   0  0  0  0  0  2  0  0  0  0  0  0
   35.4050   29.3270   40.1820 C   0  0  0  0  0  2  0  0  0  0  0  0
   35.3980   28.6730   38.8290 C   0  0  0  0  0  2  0  0  0  0  0  0
   36.0270   29.6720   37.8900 C   0  0  0  0  0  2  0  0  0  0  0  0
  1  6  1  0  0  0  0
  2  1  2  0  0  0  0
  2  3  1  0  0  0  0
  3  7  1  0  0  0  0
  3  4  2  0  0  0  0
  5  4  1  0  0  0  0
  5  8  1  0  0  0  0
  6  5  2  0  0  0  0
  9 14  1  6  0  0  0
  9 19  1  0  0  0  0
  9 10  1  0  0  0  0
 10 15  1  6  0  0  0
 10 11  1  0  0  0  0
 10  2  1  0  0  0  0
 12 16  1  0  0  0  0
 12 11  1  0  0  0  0
 12 17  1  0  0  0  0
 13 18  1  6  0  0  0
 13  9  1  0  0  0  0
 13 12  1  0  0  0  0
 20 19  1  0  0  0  0
 21 22  1  0  0  0  0
 21 13  1  0  0  0  0
 23 26  1  0  0  0  0
 23  1  1  0  0  0  0
 24 23  1  0  0  0  0
 25 23  1  0  0  0  0
 26 27  1  0  0  0  0
 27 28  1  0  0  0  0
 29 28  1  0  0  0  0
 30 26  1  0  0  0  0
 30 29  1  0  0  0  0
M  END
>  <minimizedAffinity>
-4.86015511

$$$$

 OpenBabel03242514473D

 30 32  0  0  1  0  0  0  0  0999 V2000
   39.1560   30.5470   41.7730 C   0  0  0  0  0  0  0  0  0  0  0  0
   38.5300   30.5510   40.5130 C   0  0  0  0  0  0  0  0  0  0  0  0
   38.9690   31.4790   39.5780 C   0  0  0  0  0  0  0  0  0  0  0  0
   39.9750   32.3420   39.9030 N   0  0  0  0  0  0  0  0  0  0  0  0
   40.5460   32.3010   41.1250 C   0  0  0  0  0  0  0  0  0  0  0  0
   40.1520   31.4190   42.0610 N   0  0  0  0  0  0  0  0  0  0  0  0
   38.5310   31.5310   38.5990 H   0  0  0  0  0  0  0  0  0  0  0  0
   41.3460   33.0030   41.3530 H   0  0  0  0  0  0  0  0  0  0  0  0
   36.0900   30.0570   40.7270 C   0  0  2  0  0  0  0  0  0  0  0  0
   37.4370   29.5930   40.1900 C   0  0  1  0  0  0  0  0  0  0  0  0
   37.2990   29.3330   38.8620 O   0  0  0  0  0  0  0  0  0  0  0  0
   36.1330   29.8680   38.3880 C   0  0  0  0  0  0  0  0  0  0  0  0
   35.1820   29.6990   39.5360 C   0  0  1  0  0  0  0  0  0  0  0  0
   35.7050   29.4210   41.5510 H   0  0  0  0  0  0  0  0  0  0  0  0
   37.6060   28.6350   40.7070 H   0  0  0  0  0  0  0  0  0  0  0  0
   35.7890   29.2080   37.5400 H   0  0  0  0  0  0  0  0  0  0  0  0
   36.1880   30.8770   37.9720 H   0  0  0  0  0  0  0  0  0  0  0  0
   34.3160   30.3720   39.4930 H   0  0  0  0  0  0  0  0  0  0  0  0
   35.9960   31.3910   40.9870 O   0  0  0  0  0  0  0  0  0  0  0  0
   36.0680   31.4940   41.9840 H   0  0  0  0  0  0  0  0  0  0  0  0
   34.8180   28.3590   39.5850 O   0  0  0  0  0  0  0  0  0  0  0  0
   34.3830   28.1670   38.7200 H   0  0  0  0  0  0  0  0  0  0  0  0
   38.7070   29.5520   42.7730 C   0  0  0  0  0  0  0  0  0  0  0  0
   37.6090   29.5080   42.8750 H   0  0  0  0  0  0  0  0  0  0  0  0
   39.0170   29.9590   43.7850 H   0  0  0  0  0  0  0  0  0  0  0  0
   39.3650   28.2190   42.6850 C   0  0  0  0  0  3  0  0  0  0  0  0
   40.8030   28.2490   43.1770 C   0  0  0  0  0  2  0  0  0  0  0  0
   41.0990   26.7530   43.3270 C   0  0  0  0  0  2  0  0  0  0  0  0
   39.7790   26.1060   43.6370 C   0  0  0  0  0  2  0  0  0  0  0  0
   38.7750   27.2300   43.6790 C   0  0  0  0  0  2  0  0  0  0  0  0
  1  6  1  0  0  0  0
  1 23  1  0  0  0  0
  2  1  2  0  0  0  0
  3  4  2  0  0  0  0
  3  2  1  0  0  0  0
  4  5  1  0  0  0  0
  5  8  1  0  0  0  0
  5  6  2  0  0  0  0
  7  3  1  0  0  0  0
  9 19  1  0  0  0  0
  9 14  1  1  0  0  0
 10  2  1  0  0  0  0
 10 15  1  1  0  0  0
 10  9  1  0  0  0  0
 11 10  1  0  0  0  0
 12 11  1  0  0  0  0
 12 13  1  0  0  0  0
 13 18  1  6  0  0  0
 13 21  1  0  0  0  0
 13  9  1  0  0  0  0
 16 12  1  0  0  0  0
 17 12  1  0  0  0  0
 19 20  1  0  0  0  0
 22 21  1  0  0  0  0
 23 24  1  0  0  0  0
 23 25  1  0  0  0  0
 26 23  1  0  0  0  0
 26 27  1  0  0  0  0
 26 30  1  0  0  0  0
 27 28  1  0  0  0  0
 28 29  1  0  0  0  0
 29 30  1  0  0  0  0
M  END
>  <minimizedAffinity>
-4.81756449

$$$$

 OpenBabel03242514473D

 30 32  0  0  1  0  0  0  0  0999 V2000
   40.1100   29.1450   40.0980 C   0  0  0  0  0  0  0  0  0  0  0  0
   40.3530   30.5140   39.8790 C   0  0  0  0  0  0  0  0  0  0  0  0
   41.6750   30.9220   39.7590 C   0  0  0  0  0  0  0  0  0  0  0  0
   42.6780   30.0020   39.8560 N   0  0  0  0  0  0  0  0  0  0  0  0
   42.3970   28.6990   40.0670 C   0  0  0  0  0  0  0  0  0  0  0  0
   41.1320   28.2600   40.1890 N   0  0  0  0  0  0  0  0  0  0  0  0
   41.9250   31.9530   39.5910 H   0  0  0  0  0  0  0  0  0  0  0  0
   43.2200   27.9910   40.1400 H   0  0  0  0  0  0  0  0  0  0  0  0
   38.8570   32.0770   41.1280 C   0  0  2  0  0  0  0  0  0  0  0  0
   39.2350   31.4910   39.7750 C   0  0  1  0  0  0  0  0  0  0  0  0
   39.4720   32.5190   38.9170 O   0  0  0  0  0  0  0  0  0  0  0  0
   39.6150   33.6930   39.6040 C   0  0  0  0  0  0  0  0  0  0  0  0
   38.6440   33.5510   40.7380 C   0  0  1  0  0  0  0  0  0  0  0  0
   37.8560   31.7510   41.4820 H   0  0  0  0  0  0  0  0  0  0  0  0
   38.3140   30.9810   39.4470 H   0  0  0  0  0  0  0  0  0  0  0  0
   39.2530   34.5180   38.9260 H   0  0  0  0  0  0  0  0  0  0  0  0
   40.6310   33.9730   39.8930 H   0  0  0  0  0  0  0  0  0  0  0  0
   38.8590   34.2110   41.5880 H   0  0  0  0  0  0  0  0  0  0  0  0
   39.8210   31.9940   42.0870 O   0  0  0  0  0  0  0  0  0  0  0  0
   39.5540   31.2410   42.6970 H   0  0  0  0  0  0  0  0  0  0  0  0
   37.3680   33.7400   40.2230 O   0  0  0  0  0  0  0  0  0  0  0  0
   37.3600   34.6530   39.8490 H   0  0  0  0  0  0  0  0  0  0  0  0
   38.7040   28.6950   40.2120 C   0  0  0  0  0  0  0  0  0  0  0  0
   38.3200   28.2400   39.2820 H   0  0  0  0  0  0  0  0  0  0  0  0
   38.0760   29.6360   40.2860 H   0  0  0  0  0  0  0  0  0  0  0  0
   38.3790   27.9250   41.4450 C   0  0  0  0  0  3  0  0  0  0  0  0
   38.3080   28.8120   42.6780 C   0  0  0  0  0  2  0  0  0  0  0  0
   37.6200   27.8770   43.6790 C   0  0  0  0  0  2  0  0  0  0  0  0
   36.7580   26.9630   42.8540 C   0  0  0  0  0  2  0  0  0  0  0  0
   36.9510   27.4010   41.4240 C   0  0  0  0  0  2  0  0  0  0  0  0
  1  6  1  0  0  0  0
  1 23  1  0  0  0  0
  2  1  2  0  0  0  0
  3  4  2  0  0  0  0
  3  2  1  0  0  0  0
  4  5  1  0  0  0  0
  5  8  1  0  0  0  0
  5  6  2  0  0  0  0
  7  3  1  0  0  0  0
  9 14  1  1  0  0  0
  9 19  1  0  0  0  0
 10 15  1  6  0  0  0
 10  2  1  0  0  0  0
 10  9  1  0  0  0  0
 11 12  1  0  0  0  0
 11 10  1  0  0  0  0
 12 17  1  0  0  0  0
 12 13  1  0  0  0  0
 13  9  1  0  0  0  0
 13 18  1  1  0  0  0
 16 12  1  0  0  0  0
 19 20  1  0  0  0  0
 21 13  1  0  0  0  0
 22 21  1  0  0  0  0
 23 25  1  0  0  0  0
 23 26  1  0  0  0  0
 24 23  1  0  0  0  0
 26 27  1  0  0  0  0
 27 28  1  0  0  0  0
 29 28  1  0  0  0  0
 30 26  1  0  0  0  0
 30 29  1  0  0  0  0
M  END
>  <minimizedAffinity>
-4.78845882

$$$$
