
 OpenBabel03242520163D

 21 23  0  0  0  0  0  0  0  0999 V2000
   45.8830   34.2680   43.6710 C   0  0  0  0  0  0  0  0  0  0  0  0
   46.6950   34.4370   42.5310 C   0  0  0  0  0  0  0  0  0  0  0  0
   47.8430   33.6270   42.3840 C   0  0  0  0  0  0  0  0  0  0  0  0
   48.0920   32.7200   43.3720 N   0  0  0  0  0  0  0  0  0  0  0  0
   47.2780   32.5970   44.4500 C   0  0  0  0  0  0  0  0  0  0  0  0
   46.1950   33.3480   44.6070 N   0  0  0  0  0  0  0  0  0  0  0  0
   46.4840   35.1570   41.7620 H   0  0  0  0  0  0  0  0  0  0  0  0
   47.5710   31.8370   45.1860 H   0  0  0  0  0  0  0  0  0  0  0  0
   44.6960   35.1400   43.7940 C   0  0  0  0  0  0  0  0  0  0  0  0
   44.5360   35.7410   45.2070 C   0  0  0  0  0  0  0  0  0  0  0  0
   44.7940   36.5690   44.0050 C   0  0  0  0  0  0  0  0  0  0  0  0
   43.7830   34.6930   43.3510 H   0  0  0  0  0  0  0  0  0  0  0  0
   45.3350   35.5460   45.9490 H   0  0  0  0  0  0  0  0  0  0  0  0
   43.5330   35.5990   45.6200 H   0  0  0  0  0  0  0  0  0  0  0  0
   43.9190   37.1890   43.6910 H   0  0  0  0  0  0  0  0  0  0  0  0
   45.7540   37.1290   44.0010 H   0  0  0  0  0  0  0  0  0  0  0  0
   48.7590   33.7300   41.2200 C   0  0  0  0  0  0  0  0  0  0  0  0
   48.3040   34.7680   40.2310 C   0  0  0  0  0  0  0  0  0  0  0  0
   47.9270   34.0290   38.9700 C   0  0  0  0  0  0  0  0  0  0  0  0
   48.8750   32.8650   38.9970 C   0  0  0  0  0  0  0  0  0  0  0  0
   48.8640   32.4370   40.4490 C   0  0  0  0  0  0  0  0  0  0  0  0
  1  9  1  0  0  0  0
  1  6  1  0  0  0  0
  2  1  2  0  0  0  0
  3  2  1  0  0  0  0
  3  4  2  0  0  0  0
  4  5  1  0  0  0  0
  5  6  2  0  0  0  0
  5  8  1  0  0  0  0
  7  2  1  0  0  0  0
  9 11  1  0  0  0  0
  9 10  1  0  0  0  0
 10 14  1  0  0  0  0
 10 13  1  0  0  0  0
 11 10  1  0  0  0  0
 12  9  1  0  0  0  0
 15 11  1  0  0  0  0
 16 11  1  0  0  0  0
 17  3  1  0  0  0  0
 18 17  1  0  0  0  0
 19 20  1  0  0  0  0
 19 18  1  0  0  0  0
 20 21  1  0  0  0  0
 21 17  1  0  0  0  0
M  END
>  <minimizedAffinity>
-4.03977156

>  <minimizedRMSD>
2.68798256

$$$$
