
 OpenBabel03252509213D

 21 23  0  0  0  0  0  0  0  0999 V2000
   44.6530   34.8230   44.2780 C   0  0  0  0  0  0  0  0  0  0  0  0
   44.6290   33.8140   43.2340 C   0  0  0  0  0  0  0  0  0  0  0  0
   45.3540   32.6990   43.6270 C   0  0  0  0  0  0  0  0  0  0  0  0
   45.9910   32.6170   44.8590 N   0  0  0  0  0  0  0  0  0  0  0  0
   45.9570   33.6020   45.7620 C   0  0  0  0  0  0  0  0  0  0  0  0
   45.2800   34.7200   45.4710 N   0  0  0  0  0  0  0  0  0  0  0  0
   44.1420   35.7690   44.1560 H   0  0  0  0  0  0  0  0  0  0  0  0
   46.5210   33.2890   46.6190 H   0  0  0  0  0  0  0  0  0  0  0  0
   45.3520   31.5150   42.6940 C   0  0  0  0  0  0  0  0  0  0  0  0
   46.6100   31.5170   41.8040 C   0  0  0  0  0  0  0  0  0  0  0  0
   46.3270   30.4870   42.9200 C   0  0  0  0  0  0  0  0  0  0  0  0
   44.4690   31.3600   42.0820 H   0  0  0  0  0  0  0  0  0  0  0  0
   46.5620   31.1360   40.7890 H   0  0  0  0  0  0  0  0  0  0  0  0
   47.3690   32.2420   42.0520 H   0  0  0  0  0  0  0  0  0  0  0  0
   46.9950   30.5400   43.8200 H   0  0  0  0  0  0  0  0  0  0  0  0
   46.2430   29.4380   42.5730 H   0  0  0  0  0  0  0  0  0  0  0  0
   43.9090   34.0400   42.0340 C   0  0  0  0  0  3  0  0  0  0  0  0
   44.5650   34.5410   40.7940 C   0  0  0  0  0  2  0  0  0  0  0  0
   43.3300   34.9080   39.9820 C   0  0  0  0  0  2  0  0  0  0  0  0
   42.1820   34.0800   40.5240 C   0  0  0  0  0  2  0  0  0  0  0  0
   42.8480   33.1300   41.5510 C   0  0  0  0  0  2  0  0  0  0  0  0
  1  6  1  0  0  0  0
  2  3  1  0  0  0  0
  2  1  2  0  0  0  0
  3  4  2  0  0  0  0
  4  5  1  0  0  0  0
  5  8  1  0  0  0  0
  6  5  2  0  0  0  0
  7  1  1  0  0  0  0
  9 11  1  0  0  0  0
  9  3  1  0  0  0  0
 10 14  1  0  0  0  0
 10  9  1  0  0  0  0
 10 11  1  0  0  0  0
 11 15  1  0  0  0  0
 12  9  1  0  0  0  0
 13 10  1  0  0  0  0
 16 11  1  0  0  0  0
 17  2  1  0  0  0  0
 18 17  1  0  0  0  0
 19 20  1  0  0  0  0
 19 18  1  0  0  0  0
 20 21  1  0  0  0  0
 21 17  1  0  0  0  0
M  END
>  <minimizedAffinity>
-2.86459851

>  <minimizedRMSD>
3.21066046

$$$$
