
 OpenBabel03242521033D

 23 25  0  0  0  0  0  0  0  0999 V2000
   37.4310   30.7270   40.7920 C   0  0  0  0  0  0  0  0  0  0  0  0
   36.2190   30.6690   40.1430 C   0  0  0  0  0  0  0  0  0  0  0  0
   35.3130   29.6380   40.2300 C   0  0  0  0  0  0  0  0  0  0  0  0
   35.6280   28.5610   41.0270 C   0  0  0  0  0  0  0  0  0  0  0  0
   36.8350   28.6290   41.6660 C   0  0  0  0  0  0  0  0  0  0  0  0
   37.6750   29.6530   41.5490 N   0  0  0  0  0  0  0  0  0  0  0  0
   35.9140   31.5000   39.4930 H   0  0  0  0  0  0  0  0  0  0  0  0
   34.3770   29.6560   39.6920 H   0  0  0  0  0  0  0  0  0  0  0  0
   34.9640   27.7260   41.1360 H   0  0  0  0  0  0  0  0  0  0  0  0
   40.4660   32.9580   40.7100 C   0  0  0  0  0  0  0  0  0  0  0  0
   39.7230   31.7850   40.8720 C   0  0  0  0  0  0  0  0  0  0  0  0
   38.3530   31.8390   40.6690 C   0  0  0  0  0  0  0  0  0  0  0  0
   37.8110   33.0420   40.3230 N   0  0  0  0  0  0  0  0  0  0  0  0
   38.5560   34.1610   40.1750 C   0  0  0  0  0  0  0  0  0  0  0  0
   39.8760   34.1080   40.3700 N   0  0  0  0  0  0  0  0  0  0  0  0
   41.5320   32.8830   40.8750 H   0  0  0  0  0  0  0  0  0  0  0  0
   40.1200   30.8140   41.1450 H   0  0  0  0  0  0  0  0  0  0  0  0
   37.9860   35.0560   39.8940 H   0  0  0  0  0  0  0  0  0  0  0  0
   37.2300   27.4790   42.5520 C   0  0  0  0  0  3  0  0  0  0  0  0
   38.1980   27.9670   43.6320 C   0  0  0  0  0  2  0  0  0  0  0  0
   39.3980   27.0220   43.5640 C   0  0  0  0  0  2  0  0  0  0  0  0
   38.8320   25.7980   42.8930 C   0  0  0  0  0  2  0  0  0  0  0  0
   37.9350   26.3900   41.8150 C   0  0  0  0  0  2  0  0  0  0  0  0
  1  6  1  0  0  0  0
  2  3  1  0  0  0  0
  2  1  2  0  0  0  0
  3  4  2  0  0  0  0
  4  9  1  0  0  0  0
  4  5  1  0  0  0  0
  5 19  1  0  0  0  0
  6  5  2  0  0  0  0
  7  2  1  0  0  0  0
  8  3  1  0  0  0  0
 10 11  1  0  0  0  0
 10 16  1  0  0  0  0
 11 17  1  0  0  0  0
 12  1  1  0  0  0  0
 12 11  2  0  0  0  0
 13 12  1  0  0  0  0
 14 13  2  0  0  0  0
 14 15  1  0  0  0  0
 15 10  2  0  0  0  0
 18 14  1  0  0  0  0
 19 20  1  0  0  0  0
 21 20  1  0  0  0  0
 22 21  1  0  0  0  0
 23 19  1  0  0  0  0
 23 22  1  0  0  0  0
M  END
>  <minimizedAffinity>
-5.24427366

$$$$

 OpenBabel03242521033D

 23 25  0  0  0  0  0  0  0  0999 V2000
   37.6390   29.4400   41.6640 C   0  0  0  0  0  0  0  0  0  0  0  0
   37.7410   29.2570   43.0240 C   0  0  0  0  0  0  0  0  0  0  0  0
   37.6580   28.0500   43.6780 C   0  0  0  0  0  0  0  0  0  0  0  0
   37.4530   26.9160   42.9260 C   0  0  0  0  0  0  0  0  0  0  0  0
   37.3520   27.1100   41.5750 C   0  0  0  0  0  0  0  0  0  0  0  0
   37.4410   28.3010   40.9930 N   0  0  0  0  0  0  0  0  0  0  0  0
   37.9050   30.1270   43.6740 H   0  0  0  0  0  0  0  0  0  0  0  0
   37.7470   27.9770   44.7520 H   0  0  0  0  0  0  0  0  0  0  0  0
   37.3790   25.9460   43.3760 H   0  0  0  0  0  0  0  0  0  0  0  0
   37.0450   32.5580   39.6340 C   0  0  0  0  0  0  0  0  0  0  0  0
   36.7920   31.2920   40.1710 C   0  0  0  0  0  0  0  0  0  0  0  0
   37.7340   30.7350   41.0200 C   0  0  0  0  0  0  0  0  0  0  0  0
   38.8590   31.4620   41.2810 N   0  0  0  0  0  0  0  0  0  0  0  0
   39.0770   32.6840   40.7470 C   0  0  0  0  0  0  0  0  0  0  0  0
   38.1680   33.2210   39.9280 N   0  0  0  0  0  0  0  0  0  0  0  0
   36.2910   32.9650   38.9750 H   0  0  0  0  0  0  0  0  0  0  0  0
   35.9100   30.6890   39.9850 H   0  0  0  0  0  0  0  0  0  0  0  0
   40.0240   33.1520   41.0450 H   0  0  0  0  0  0  0  0  0  0  0  0
   37.1280   25.9030   40.7050 C   0  0  0  0  0  3  0  0  0  0  0  0
   36.9470   24.6620   41.5800 C   0  0  0  0  0  2  0  0  0  0  0  0
   37.9320   23.6280   41.0350 C   0  0  0  0  0  2  0  0  0  0  0  0
   38.1860   24.1060   39.6290 C   0  0  0  0  0  2  0  0  0  0  0  0
   38.2770   25.6160   39.7980 C   0  0  0  0  0  2  0  0  0  0  0  0
  1  2  1  0  0  0  0
  2  7  1  0  0  0  0
  2  3  2  0  0  0  0
  3  8  1  0  0  0  0
  4  9  1  0  0  0  0
  4  3  1  0  0  0  0
  5  4  2  0  0  0  0
  6  5  1  0  0  0  0
  6  1  2  0  0  0  0
 10 15  2  0  0  0  0
 10 11  1  0  0  0  0
 11 12  2  0  0  0  0
 12 13  1  0  0  0  0
 12  1  1  0  0  0  0
 14 18  1  0  0  0  0
 14 13  2  0  0  0  0
 15 14  1  0  0  0  0
 16 10  1  0  0  0  0
 17 11  1  0  0  0  0
 19  5  1  0  0  0  0
 19 20  1  0  0  0  0
 21 20  1  0  0  0  0
 22 23  1  0  0  0  0
 22 21  1  0  0  0  0
 23 19  1  0  0  0  0
M  END
>  <minimizedAffinity>
-5.08645391

$$$$

 OpenBabel03242521033D

 23 25  0  0  0  0  0  0  0  0999 V2000
   38.3460   31.2700   39.0540 C   0  0  0  0  0  0  0  0  0  0  0  0
   37.3800   30.9060   38.1450 C   0  0  0  0  0  0  0  0  0  0  0  0
   36.2910   30.1100   38.4090 C   0  0  0  0  0  0  0  0  0  0  0  0
   36.1380   29.6220   39.6870 C   0  0  0  0  0  0  0  0  0  0  0  0
   37.1040   29.9890   40.5830 C   0  0  0  0  0  0  0  0  0  0  0  0
   38.1380   30.7650   40.2740 N   0  0  0  0  0  0  0  0  0  0  0  0
   37.4510   31.2650   37.1090 H   0  0  0  0  0  0  0  0  0  0  0  0
   35.5680   29.8620   37.6470 H   0  0  0  0  0  0  0  0  0  0  0  0
   35.3100   28.9950   39.9570 H   0  0  0  0  0  0  0  0  0  0  0  0
   41.3780   32.8600   37.4810 C   0  0  0  0  0  0  0  0  0  0  0  0
   40.3320   31.9480   37.6480 C   0  0  0  0  0  0  0  0  0  0  0  0
   39.4780   32.1150   38.7270 C   0  0  0  0  0  0  0  0  0  0  0  0
   39.7130   33.1660   39.5640 N   0  0  0  0  0  0  0  0  0  0  0  0
   40.7340   34.0320   39.3770 C   0  0  0  0  0  0  0  0  0  0  0  0
   41.5570   33.8710   38.3370 N   0  0  0  0  0  0  0  0  0  0  0  0
   42.0270   32.7030   36.6310 H   0  0  0  0  0  0  0  0  0  0  0  0
   40.1170   31.1040   37.0030 H   0  0  0  0  0  0  0  0  0  0  0  0
   40.8020   34.8290   40.1290 H   0  0  0  0  0  0  0  0  0  0  0  0
   36.9850   29.4850   41.9950 C   0  0  0  0  0  3  0  0  0  0  0  0
   38.3570   29.5150   42.6710 C   0  0  0  0  0  2  0  0  0  0  0  0
   38.5590   28.1150   43.2510 C   0  0  0  0  0  2  0  0  0  0  0  0
   37.1530   27.5850   43.3610 C   0  0  0  0  0  2  0  0  0  0  0  0
   36.5070   28.0750   42.0740 C   0  0  0  0  0  2  0  0  0  0  0  0
  1  6  1  0  0  0  0
  2  3  1  0  0  0  0
  2  1  2  0  0  0  0
  3  4  2  0  0  0  0
  4  9  1  0  0  0  0
  4  5  1  0  0  0  0
  5 19  1  0  0  0  0
  6  5  2  0  0  0  0
  7  2  1  0  0  0  0
  8  3  1  0  0  0  0
 10 11  2  0  0  0  0
 10 15  1  0  0  0  0
 11 12  1  0  0  0  0
 12  1  1  0  0  0  0
 12 13  2  0  0  0  0
 14 13  1  0  0  0  0
 14 18  1  0  0  0  0
 15 14  2  0  0  0  0
 16 10  1  0  0  0  0
 17 11  1  0  0  0  0
 19 23  1  0  0  0  0
 19 20  1  0  0  0  0
 20 21  1  0  0  0  0
 21 22  1  0  0  0  0
 23 22  1  0  0  0  0
M  END
>  <minimizedAffinity>
-5.01540184

$$$$

 OpenBabel03242521033D

 23 25  0  0  0  0  0  0  0  0999 V2000
   38.8050   28.8650   42.1750 C   0  0  0  0  0  0  0  0  0  0  0  0
   39.8650   28.5520   42.9940 C   0  0  0  0  0  0  0  0  0  0  0  0
   40.1270   27.3120   43.5260 C   0  0  0  0  0  0  0  0  0  0  0  0
   39.2650   26.2820   43.2270 C   0  0  0  0  0  0  0  0  0  0  0  0
   38.2140   26.6040   42.4130 C   0  0  0  0  0  0  0  0  0  0  0  0
   38.0080   27.8220   41.9240 N   0  0  0  0  0  0  0  0  0  0  0  0
   40.5850   29.3360   43.2670 H   0  0  0  0  0  0  0  0  0  0  0  0
   40.9800   27.1350   44.1640 H   0  0  0  0  0  0  0  0  0  0  0  0
   39.4140   25.2910   43.6110 H   0  0  0  0  0  0  0  0  0  0  0  0
   39.0840   32.4580   41.0740 C   0  0  0  0  0  0  0  0  0  0  0  0
   39.4760   31.2400   41.6380 C   0  0  0  0  0  0  0  0  0  0  0  0
   38.5710   30.1910   41.6370 C   0  0  0  0  0  0  0  0  0  0  0  0
   37.3440   30.4140   41.0830 N   0  0  0  0  0  0  0  0  0  0  0  0
   36.9930   31.6030   40.5450 C   0  0  0  0  0  0  0  0  0  0  0  0
   37.8650   32.6140   40.5460 N   0  0  0  0  0  0  0  0  0  0  0  0
   39.8120   33.2570   41.0900 H   0  0  0  0  0  0  0  0  0  0  0  0
   40.4410   31.0300   42.0860 H   0  0  0  0  0  0  0  0  0  0  0  0
   35.9750   31.6370   40.1350 H   0  0  0  0  0  0  0  0  0  0  0  0
   37.2410   25.5140   42.0540 C   0  0  0  0  0  3  0  0  0  0  0  0
   37.8970   24.1480   42.2610 C   0  0  0  0  0  2  0  0  0  0  0  0
   37.6870   23.3900   40.9500 C   0  0  0  0  0  2  0  0  0  0  0  0
   36.5140   24.1010   40.3270 C   0  0  0  0  0  2  0  0  0  0  0  0
   36.8100   25.5630   40.6270 C   0  0  0  0  0  2  0  0  0  0  0  0
  1  2  1  0  0  0  0
  2  7  1  0  0  0  0
  2  3  2  0  0  0  0
  3  8  1  0  0  0  0
  4  3  1  0  0  0  0
  4  9  1  0  0  0  0
  5  4  2  0  0  0  0
  6  1  2  0  0  0  0
  6  5  1  0  0  0  0
 10 16  1  0  0  0  0
 10 11  1  0  0  0  0
 11 17  1  0  0  0  0
 12 11  2  0  0  0  0
 12  1  1  0  0  0  0
 13 12  1  0  0  0  0
 14 15  1  0  0  0  0
 14 13  2  0  0  0  0
 15 10  2  0  0  0  0
 18 14  1  0  0  0  0
 19 20  1  0  0  0  0
 19  5  1  0  0  0  0
 21 20  1  0  0  0  0
 22 23  1  0  0  0  0
 22 21  1  0  0  0  0
 23 19  1  0  0  0  0
M  END
>  <minimizedAffinity>
-5.00288391

$$$$

 OpenBabel03242521033D

 23 25  0  0  0  0  0  0  0  0999 V2000
   37.2420   29.2650   41.1490 C   0  0  0  0  0  0  0  0  0  0  0  0
   37.3880   29.3660   42.5130 C   0  0  0  0  0  0  0  0  0  0  0  0
   37.3740   28.3140   43.3990 C   0  0  0  0  0  0  0  0  0  0  0  0
   37.1970   27.0450   42.8990 C   0  0  0  0  0  0  0  0  0  0  0  0
   37.0520   26.9570   41.5410 C   0  0  0  0  0  0  0  0  0  0  0  0
   37.0750   28.0070   40.7280 N   0  0  0  0  0  0  0  0  0  0  0  0
   37.5320   30.3550   42.9690 H   0  0  0  0  0  0  0  0  0  0  0  0
   37.4950   28.4640   44.4620 H   0  0  0  0  0  0  0  0  0  0  0  0
   37.1770   26.1840   43.5380 H   0  0  0  0  0  0  0  0  0  0  0  0
   37.2730   32.7150   39.6340 C   0  0  0  0  0  0  0  0  0  0  0  0
   37.2460   31.7380   40.6340 C   0  0  0  0  0  0  0  0  0  0  0  0
   37.2640   30.4050   40.2540 C   0  0  0  0  0  0  0  0  0  0  0  0
   37.3080   30.1290   38.9190 N   0  0  0  0  0  0  0  0  0  0  0  0
   37.3340   31.0960   37.9740 C   0  0  0  0  0  0  0  0  0  0  0  0
   37.3150   32.3800   38.3410 N   0  0  0  0  0  0  0  0  0  0  0  0
   37.2570   33.7450   39.9630 H   0  0  0  0  0  0  0  0  0  0  0  0
   37.2110   31.9230   41.7010 H   0  0  0  0  0  0  0  0  0  0  0  0
   37.3690   30.7260   36.9410 H   0  0  0  0  0  0  0  0  0  0  0  0
   36.8570   25.5910   40.9400 C   0  0  0  0  0  3  0  0  0  0  0  0
   37.1470   24.5190   41.9910 C   0  0  0  0  0  2  0  0  0  0  0  0
   38.1460   23.5640   41.3370 C   0  0  0  0  0  2  0  0  0  0  0  0
   37.9410   23.8090   39.8660 C   0  0  0  0  0  2  0  0  0  0  0  0
   37.7740   25.3200   39.7960 C   0  0  0  0  0  2  0  0  0  0  0  0
  1  2  1  0  0  0  0
  2  7  1  0  0  0  0
  2  3  2  0  0  0  0
  3  8  1  0  0  0  0
  4  3  1  0  0  0  0
  4  9  1  0  0  0  0
  5  4  2  0  0  0  0
  6  1  2  0  0  0  0
  6  5  1  0  0  0  0
 10 16  1  0  0  0  0
 10 11  1  0  0  0  0
 11 17  1  0  0  0  0
 12 11  2  0  0  0  0
 12  1  1  0  0  0  0
 13 12  1  0  0  0  0
 14 15  1  0  0  0  0
 14 13  2  0  0  0  0
 15 10  2  0  0  0  0
 18 14  1  0  0  0  0
 19  5  1  0  0  0  0
 19 20  1  0  0  0  0
 21 20  1  0  0  0  0
 22 21  1  0  0  0  0
 23 22  1  0  0  0  0
 23 19  1  0  0  0  0
M  END
>  <minimizedAffinity>
-4.97454309

$$$$

 OpenBabel03242521033D

 23 25  0  0  0  0  0  0  0  0999 V2000
   38.9190   31.3980   41.2510 C   0  0  0  0  0  0  0  0  0  0  0  0
   38.0160   32.1160   40.5020 C   0  0  0  0  0  0  0  0  0  0  0  0
   36.7080   31.7600   40.2670 C   0  0  0  0  0  0  0  0  0  0  0  0
   36.2450   30.5870   40.8180 C   0  0  0  0  0  0  0  0  0  0  0  0
   37.1510   29.8820   41.5610 C   0  0  0  0  0  0  0  0  0  0  0  0
   38.4060   30.2730   41.7590 N   0  0  0  0  0  0  0  0  0  0  0  0
   38.3300   33.0600   40.0360 H   0  0  0  0  0  0  0  0  0  0  0  0
   36.0510   32.3710   39.6660 H   0  0  0  0  0  0  0  0  0  0  0  0
   35.2360   30.2540   40.6720 H   0  0  0  0  0  0  0  0  0  0  0  0
   42.4680   31.7800   42.4570 C   0  0  0  0  0  0  0  0  0  0  0  0
   41.1770   31.2500   42.3730 C   0  0  0  0  0  0  0  0  0  0  0  0
   40.2890   31.8160   41.4720 C   0  0  0  0  0  0  0  0  0  0  0  0
   40.7340   32.8630   40.7180 N   0  0  0  0  0  0  0  0  0  0  0  0
   41.9890   33.3540   40.8210 C   0  0  0  0  0  0  0  0  0  0  0  0
   42.8440   32.8090   41.6900 N   0  0  0  0  0  0  0  0  0  0  0  0
   43.1370   31.3170   43.1700 H   0  0  0  0  0  0  0  0  0  0  0  0
   40.7920   30.4210   42.9560 H   0  0  0  0  0  0  0  0  0  0  0  0
   42.2070   34.1970   40.1530 H   0  0  0  0  0  0  0  0  0  0  0  0
   36.6970   28.5920   42.1880 C   0  0  0  0  0  3  0  0  0  0  0  0
   37.4490   28.3640   43.5010 C   0  0  0  0  0  2  0  0  0  0  0  0
   38.0240   26.9510   43.4040 C   0  0  0  0  0  2  0  0  0  0  0  0
   37.1490   26.2960   42.3670 C   0  0  0  0  0  2  0  0  0  0  0  0
   36.9680   27.4000   41.3340 C   0  0  0  0  0  2  0  0  0  0  0  0
  1 12  1  0  0  0  0
  1  6  1  0  0  0  0
  2  1  2  0  0  0  0
  3  2  1  0  0  0  0
  3  4  2  0  0  0  0
  4  5  1  0  0  0  0
  5  6  2  0  0  0  0
  5 19  1  0  0  0  0
  7  2  1  0  0  0  0
  8  3  1  0  0  0  0
  9  4  1  0  0  0  0
 10 16  1  0  0  0  0
 11 10  1  0  0  0  0
 11 17  1  0  0  0  0
 12 11  2  0  0  0  0
 13 14  2  0  0  0  0
 13 12  1  0  0  0  0
 14 15  1  0  0  0  0
 15 10  2  0  0  0  0
 18 14  1  0  0  0  0
 19 20  1  0  0  0  0
 21 20  1  0  0  0  0
 22 21  1  0  0  0  0
 23 19  1  0  0  0  0
 23 22  1  0  0  0  0
M  END
>  <minimizedAffinity>
-4.97266388

$$$$

 OpenBabel03242521033D

 23 25  0  0  0  0  0  0  0  0999 V2000
   37.6400   30.6990   40.6630 C   0  0  0  0  0  0  0  0  0  0  0  0
   36.2940   30.8150   40.4040 C   0  0  0  0  0  0  0  0  0  0  0  0
   35.3810   29.7870   40.4340 C   0  0  0  0  0  0  0  0  0  0  0  0
   35.8330   28.5250   40.7450 C   0  0  0  0  0  0  0  0  0  0  0  0
   37.1730   28.4210   41.0010 C   0  0  0  0  0  0  0  0  0  0  0  0
   38.0130   29.4500   40.9600 N   0  0  0  0  0  0  0  0  0  0  0  0
   35.8760   31.7980   40.1490 H   0  0  0  0  0  0  0  0  0  0  0  0
   34.3350   29.9480   40.2190 H   0  0  0  0  0  0  0  0  0  0  0  0
   35.1720   27.6820   40.7840 H   0  0  0  0  0  0  0  0  0  0  0  0
   39.2540   34.0900   40.3610 C   0  0  0  0  0  0  0  0  0  0  0  0
   38.2320   33.1360   40.3640 C   0  0  0  0  0  0  0  0  0  0  0  0
   38.5640   31.8150   40.6200 C   0  0  0  0  0  0  0  0  0  0  0  0
   39.8760   31.5260   40.8550 N   0  0  0  0  0  0  0  0  0  0  0  0
   40.8430   32.4710   40.8450 C   0  0  0  0  0  0  0  0  0  0  0  0
   40.5230   33.7440   40.5980 N   0  0  0  0  0  0  0  0  0  0  0  0
   38.9630   35.1110   40.1580 H   0  0  0  0  0  0  0  0  0  0  0  0
   37.1810   33.3310   40.1820 H   0  0  0  0  0  0  0  0  0  0  0  0
   41.8530   32.0940   41.0510 H   0  0  0  0  0  0  0  0  0  0  0  0
   37.7210   27.0640   41.3480 C   0  0  0  0  0  3  0  0  0  0  0  0
   37.5320   26.1130   40.1640 C   0  0  0  0  0  2  0  0  0  0  0  0
   36.8430   24.8750   40.7400 C   0  0  0  0  0  2  0  0  0  0  0  0
   37.1750   24.9500   42.2070 C   0  0  0  0  0  2  0  0  0  0  0  0
   37.0310   26.4340   42.5100 C   0  0  0  0  0  2  0  0  0  0  0  0
  1  6  1  0  0  0  0
  2  3  1  0  0  0  0
  2  1  2  0  0  0  0
  3  4  2  0  0  0  0
  4  9  1  0  0  0  0
  4  5  1  0  0  0  0
  5 19  1  0  0  0  0
  6  5  2  0  0  0  0
  7  2  1  0  0  0  0
  8  3  1  0  0  0  0
 10 11  2  0  0  0  0
 10 15  1  0  0  0  0
 11 12  1  0  0  0  0
 12  1  1  0  0  0  0
 12 13  2  0  0  0  0
 14 13  1  0  0  0  0
 14 18  1  0  0  0  0
 15 14  2  0  0  0  0
 16 10  1  0  0  0  0
 17 11  1  0  0  0  0
 19 23  1  0  0  0  0
 20 21  1  0  0  0  0
 20 19  1  0  0  0  0
 21 22  1  0  0  0  0
 22 23  1  0  0  0  0
M  END
>  <minimizedAffinity>
-4.94660902

$$$$

 OpenBabel03242521033D

 23 25  0  0  0  0  0  0  0  0999 V2000
   37.8550   29.3900   42.0000 C   0  0  0  0  0  0  0  0  0  0  0  0
   36.6900   28.6700   42.1370 C   0  0  0  0  0  0  0  0  0  0  0  0
   36.5740   27.4430   42.7470 C   0  0  0  0  0  0  0  0  0  0  0  0
   37.7100   26.8670   43.2690 C   0  0  0  0  0  0  0  0  0  0  0  0
   38.8620   27.5900   43.1260 C   0  0  0  0  0  0  0  0  0  0  0  0
   38.9190   28.7760   42.5280 N   0  0  0  0  0  0  0  0  0  0  0  0
   35.7520   29.0800   41.7390 H   0  0  0  0  0  0  0  0  0  0  0  0
   35.6260   26.9310   42.8200 H   0  0  0  0  0  0  0  0  0  0  0  0
   37.6860   25.9120   43.7560 H   0  0  0  0  0  0  0  0  0  0  0  0
   37.1750   32.5130   40.0050 C   0  0  0  0  0  0  0  0  0  0  0  0
   36.9390   31.2510   40.5590 C   0  0  0  0  0  0  0  0  0  0  0  0
   37.9260   30.6830   41.3490 C   0  0  0  0  0  0  0  0  0  0  0  0
   39.0740   31.3950   41.5380 N   0  0  0  0  0  0  0  0  0  0  0  0
   39.2730   32.6150   40.9900 C   0  0  0  0  0  0  0  0  0  0  0  0
   38.3220   33.1620   40.2280 N   0  0  0  0  0  0  0  0  0  0  0  0
   36.3870   32.9290   39.3940 H   0  0  0  0  0  0  0  0  0  0  0  0
   36.0410   30.6590   40.4290 H   0  0  0  0  0  0  0  0  0  0  0  0
   40.2430   33.0710   41.2280 H   0  0  0  0  0  0  0  0  0  0  0  0
   40.1340   27.0080   43.6800 C   0  0  0  0  0  3  0  0  0  0  0  0
   41.3360   27.7780   43.1310 C   0  0  0  0  0  2  0  0  0  0  0  0
   42.2770   26.7160   42.5620 C   0  0  0  0  0  2  0  0  0  0  0  0
   41.8540   25.4620   43.2810 C   0  0  0  0  0  2  0  0  0  0  0  0
   40.3370   25.5800   43.2980 C   0  0  0  0  0  2  0  0  0  0  0  0
  1  2  2  0  0  0  0
  1  6  1  0  0  0  0
  2  3  1  0  0  0  0
  3  8  1  0  0  0  0
  3  4  2  0  0  0  0
  4  9  1  0  0  0  0
  5  4  1  0  0  0  0
  5 19  1  0  0  0  0
  6  5  2  0  0  0  0
  7  2  1  0  0  0  0
 10 15  2  0  0  0  0
 10 11  1  0  0  0  0
 11 12  2  0  0  0  0
 12 13  1  0  0  0  0
 12  1  1  0  0  0  0
 14 18  1  0  0  0  0
 14 13  2  0  0  0  0
 15 14  1  0  0  0  0
 16 10  1  0  0  0  0
 17 11  1  0  0  0  0
 20 19  1  0  0  0  0
 21 20  1  0  0  0  0
 21 22  1  0  0  0  0
 22 23  1  0  0  0  0
 23 19  1  0  0  0  0
M  END
>  <minimizedAffinity>
-4.93690729

$$$$

 OpenBabel03242521033D

 23 25  0  0  0  0  0  0  0  0999 V2000
   37.7550   29.9740   41.1850 C   0  0  0  0  0  0  0  0  0  0  0  0
   36.4950   29.4610   41.3870 C   0  0  0  0  0  0  0  0  0  0  0  0
   36.2090   28.1810   41.8000 C   0  0  0  0  0  0  0  0  0  0  0  0
   37.2600   27.3230   42.0330 C   0  0  0  0  0  0  0  0  0  0  0  0
   38.5080   27.8440   41.8280 C   0  0  0  0  0  0  0  0  0  0  0  0
   38.7300   29.0920   41.4290 N   0  0  0  0  0  0  0  0  0  0  0  0
   35.6190   30.1000   41.2160 H   0  0  0  0  0  0  0  0  0  0  0  0
   35.1940   27.8410   41.9390 H   0  0  0  0  0  0  0  0  0  0  0  0
   37.1020   26.3120   42.3560 H   0  0  0  0  0  0  0  0  0  0  0  0
   37.5150   33.4490   39.7470 C   0  0  0  0  0  0  0  0  0  0  0  0
   37.1050   32.1590   40.0960 C   0  0  0  0  0  0  0  0  0  0  0  0
   38.0070   31.3340   40.7500 C   0  0  0  0  0  0  0  0  0  0  0  0
   39.2480   31.8360   41.0120 N   0  0  0  0  0  0  0  0  0  0  0  0
   39.6170   33.0890   40.6620 C   0  0  0  0  0  0  0  0  0  0  0  0
   38.7470   33.8830   40.0320 N   0  0  0  0  0  0  0  0  0  0  0  0
   36.7890   34.0670   39.2380 H   0  0  0  0  0  0  0  0  0  0  0  0
   36.1280   31.7290   39.9030 H   0  0  0  0  0  0  0  0  0  0  0  0
   40.6450   33.3570   40.9370 H   0  0  0  0  0  0  0  0  0  0  0  0
   39.6930   26.9490   42.0690 C   0  0  0  0  0  3  0  0  0  0  0  0
   39.2880   25.4890   41.8630 C   0  0  0  0  0  2  0  0  0  0  0  0
   39.7440   24.7550   43.1240 C   0  0  0  0  0  2  0  0  0  0  0  0
   40.8120   25.6600   43.6800 C   0  0  0  0  0  2  0  0  0  0  0  0
   40.2260   27.0470   43.4590 C   0  0  0  0  0  2  0  0  0  0  0  0
  1  2  2  0  0  0  0
  1  6  1  0  0  0  0
  2  3  1  0  0  0  0
  3  8  1  0  0  0  0
  3  4  2  0  0  0  0
  4  9  1  0  0  0  0
  5  4  1  0  0  0  0
  5 19  1  0  0  0  0
  6  5  2  0  0  0  0
  7  2  1  0  0  0  0
 10 15  2  0  0  0  0
 10 11  1  0  0  0  0
 11 12  2  0  0  0  0
 12 13  1  0  0  0  0
 12  1  1  0  0  0  0
 14 18  1  0  0  0  0
 14 13  2  0  0  0  0
 15 14  1  0  0  0  0
 16 10  1  0  0  0  0
 17 11  1  0  0  0  0
 19 23  1  0  0  0  0
 20 19  1  0  0  0  0
 20 21  1  0  0  0  0
 21 22  1  0  0  0  0
 23 22  1  0  0  0  0
M  END
>  <minimizedAffinity>
-4.91647005

$$$$
