
 OpenBabel03252504563D

 27 29  0  0  1  0  0  0  0  0999 V2000
   47.0510   34.2370   41.4780 N   0  0  0  0  0  0  0  0  0  0  0  0
   47.2810   34.1900   40.0610 C   0  0  0  0  0  0  0  0  0  0  0  0
   48.4650   35.0910   39.9330 C   0  0  0  0  0  0  0  0  0  0  0  0
   48.9000   35.5320   41.2950 C   0  0  0  0  0  0  0  0  0  0  0  0
   48.1350   34.6260   42.2650 C   0  0  2  0  0  0  0  0  0  0  0  0
   46.9170   33.7650   39.1770 H   0  0  0  0  0  0  0  0  0  0  0  0
   49.0250   35.3920   39.0400 H   0  0  0  0  0  0  0  0  0  0  0  0
   49.9670   35.3080   41.3450 H   0  0  0  0  0  0  0  0  0  0  0  0
   48.6490   36.5930   41.4020 H   0  0  0  0  0  0  0  0  0  0  0  0
   47.9280   35.3140   43.1130 H   0  0  0  0  0  0  0  0  0  0  0  0
   49.0570   33.5610   42.7890 C   0  0  0  0  0  0  0  0  0  0  0  0
   50.4820   33.6850   42.3010 C   0  0  0  0  0  0  0  0  0  0  0  0
   51.1400   32.3610   42.3630 C   0  0  0  0  0  0  0  0  0  0  0  0
   50.0330   31.3840   42.6160 C   0  0  0  0  0  0  0  0  0  0  0  0
   48.7380   32.1590   42.3270 C   0  0  0  0  0  0  0  0  0  0  0  0
   45.7610   33.9970   41.8730 C   0  0  0  0  0  0  0  0  0  0  0  0
   45.5870   32.8770   41.9660 H   0  0  0  0  0  0  0  0  0  0  0  0
   44.9310   34.2830   41.1750 H   0  0  0  0  0  0  0  0  0  0  0  0
   44.4590   36.0790   44.7520 C   0  0  0  0  0  0  0  0  0  0  0  0
   44.8020   35.7710   43.4220 C   0  0  0  0  0  0  0  0  0  0  0  0
   45.3820   34.5560   43.1730 C   0  0  0  0  0  0  0  0  0  0  0  0
   45.5890   33.7390   44.2120 N   0  0  0  0  0  0  0  0  0  0  0  0
   45.2510   34.0430   45.5150 C   0  0  0  0  0  0  0  0  0  0  0  0
   44.6810   35.2290   45.7600 N   0  0  0  0  0  0  0  0  0  0  0  0
   44.0020   37.0750   44.8230 H   0  0  0  0  0  0  0  0  0  0  0  0
   44.6480   36.4120   42.5730 H   0  0  0  0  0  0  0  0  0  0  0  0
   45.4430   33.3380   46.3110 H   0  0  0  0  0  0  0  0  0  0  0  0
  1 16  1  0  0  0  0
  1  5  1  0  0  0  0
  2  1  1  0  0  0  0
  3  2  2  0  0  0  0
  3  4  1  0  0  0  0
  4  8  1  0  0  0  0
  4  9  1  0  0  0  0
  4  5  1  0  0  0  0
  5 11  1  0  0  0  0
  5 10  1  1  0  0  0
  6  2  1  0  0  0  0
  7  3  1  0  0  0  0
 12 13  1  0  0  0  0
 12 11  1  0  0  0  0
 13 14  1  0  0  0  0
 15 14  1  0  0  0  0
 15 11  1  0  0  0  0
 16 17  1  0  0  0  0
 16 21  1  0  0  0  0
 18 16  1  0  0  0  0
 19 25  1  0  0  0  0
 19 24  1  0  0  0  0
 20 19  2  0  0  0  0
 21 20  1  0  0  0  0
 21 22  2  0  0  0  0
 22 23  1  0  0  0  0
 23 24  2  0  0  0  0
 23 27  1  0  0  0  0
 26 20  1  0  0  0  0
M  END
>  <minimizedAffinity>
-5.11161518

>  <minimizedRMSD>
1.15623939

$$$$
