
 OpenBabel03242516513D

 39 42  0  0  1  0  0  0  0  0999 V2000
   36.4760   30.5580   39.0850 C   0  0  1  0  0  0  0  0  0  0  0  0
   36.6690   29.6590   37.9280 C   0  0  0  0  0  0  0  0  0  0  0  0
   35.2640   29.3890   37.3800 C   0  0  0  0  0  0  0  0  0  0  0  0
   34.5720   28.5150   38.4050 C   0  0  0  0  0  0  0  0  0  0  0  0
   34.5440   29.1020   39.7860 C   0  0  0  0  0  0  0  0  0  0  0  0
   35.7040   29.8940   40.2080 C   0  0  1  0  0  0  0  0  0  0  0  0
   35.7960   31.4060   38.7700 H   0  0  0  0  0  0  0  0  0  0  0  0
   37.1840   28.7260   38.1490 H   0  0  0  0  0  0  0  0  0  0  0  0
   37.2730   30.2090   37.1670 H   0  0  0  0  0  0  0  0  0  0  0  0
   34.7570   30.3600   37.2390 H   0  0  0  0  0  0  0  0  0  0  0  0
   35.3750   28.8100   36.4630 H   0  0  0  0  0  0  0  0  0  0  0  0
   33.5430   28.3510   38.0320 H   0  0  0  0  0  0  0  0  0  0  0  0
   35.0840   27.5230   38.3550 H   0  0  0  0  0  0  0  0  0  0  0  0
   34.3750   28.2670   40.4980 H   0  0  0  0  0  0  0  0  0  0  0  0
   33.6030   29.7040   39.8390 H   0  0  0  0  0  0  0  0  0  0  0  0
   35.3330   30.7570   40.8420 H   0  0  0  0  0  0  0  0  0  0  0  0
   38.7430   33.0550   40.7880 C   0  0  0  0  0  0  0  0  0  0  0  0
   37.6220   32.4010   40.2790 C   0  0  0  0  0  0  0  0  0  0  0  0
   37.6840   31.1910   39.6020 C   0  0  0  0  0  0  0  0  0  0  0  0
   38.9100   30.6660   39.4580 N   0  0  0  0  0  0  0  0  0  0  0  0
   40.0100   31.2890   39.9480 C   0  0  0  0  0  0  0  0  0  0  0  0
   39.9430   32.4460   40.5940 N   0  0  0  0  0  0  0  0  0  0  0  0
   38.5330   33.9770   41.2840 H   0  0  0  0  0  0  0  0  0  0  0  0
   36.6190   32.8310   40.3950 H   0  0  0  0  0  0  0  0  0  0  0  0
   41.0050   30.8720   39.8370 H   0  0  0  0  0  0  0  0  0  0  0  0
   36.6090   29.1570   41.1090 C   0  0  0  0  0  0  0  0  0  0  0  0
   37.1490   29.6180   42.3190 C   0  0  0  0  0  0  0  0  0  0  0  0
   37.9690   28.7050   43.0050 C   0  0  0  0  0  0  0  0  0  0  0  0
   38.1720   27.4660   42.4500 C   0  0  0  0  0  0  0  0  0  0  0  0
   37.6350   27.0280   41.2620 C   0  0  0  0  0  0  0  0  0  0  0  0
   36.8410   27.9140   40.6000 N   0  0  0  0  0  0  0  0  0  0  0  0
   36.8800   30.6050   42.5850 H   0  0  0  0  0  0  0  0  0  0  0  0
   38.3700   29.0670   43.9170 H   0  0  0  0  0  0  0  0  0  0  0  0
   38.8120   26.7970   43.0160 H   0  0  0  0  0  0  0  0  0  0  0  0
   37.9330   25.6560   40.7670 C   0  0  0  0  0  3  0  0  0  0  0  0
   38.0350   24.6290   41.8160 C   0  0  0  0  0  2  0  0  0  0  0  0
   37.5740   23.3650   41.1150 C   0  0  0  0  0  2  0  0  0  0  0  0
   36.4920   23.7930   40.1800 C   0  0  0  0  0  2  0  0  0  0  0  0
   36.8370   25.2030   39.8150 C   0  0  0  0  0  2  0  0  0  0  0  0
  1  7  1  6  0  0  0
  1 19  1  0  0  0  0
  1  6  1  0  0  0  0
  2  8  1  0  0  0  0
  2  1  1  0  0  0  0
  3  2  1  0  0  0  0
  3  4  1  0  0  0  0
  4  5  1  0  0  0  0
  5 15  1  0  0  0  0
  5  6  1  0  0  0  0
  5 14  1  0  0  0  0
  6 16  1  1  0  0  0
  6 26  1  0  0  0  0
  9  2  1  0  0  0  0
 10  3  1  0  0  0  0
 11  3  1  0  0  0  0
 12  4  1  0  0  0  0
 13  4  1  0  0  0  0
 17 23  1  0  0  0  0
 18 24  1  0  0  0  0
 18 17  2  0  0  0  0
 19 18  1  0  0  0  0
 20 19  2  0  0  0  0
 20 21  1  0  0  0  0
 21 22  2  0  0  0  0
 22 17  1  0  0  0  0
 25 21  1  0  0  0  0
 26 27  1  0  0  0  0
 27 32  1  0  0  0  0
 27 28  2  0  0  0  0
 28 33  1  0  0  0  0
 29 28  1  0  0  0  0
 29 34  1  0  0  0  0
 30 29  2  0  0  0  0
 31 26  2  0  0  0  0
 31 30  1  0  0  0  0
 35 30  1  0  0  0  0
 35 36  1  0  0  0  0
 37 36  1  0  0  0  0
 38 37  1  0  0  0  0
 39 38  1  0  0  0  0
 39 35  1  0  0  0  0
M  END
>  <minimizedAffinity>
-6.16391516

$$$$

 OpenBabel03242516513D

 39 42  0  0  1  0  0  0  0  0999 V2000
   36.6140   30.5280   39.2770 C   0  0  1  0  0  0  0  0  0  0  0  0
   36.7410   29.6510   38.0940 C   0  0  0  0  0  0  0  0  0  0  0  0
   35.3150   29.4720   37.5630 C   0  0  0  0  0  0  0  0  0  0  0  0
   34.5930   28.6080   38.5760 C   0  0  0  0  0  0  0  0  0  0  0  0
   34.6180   29.1580   39.9720 C   0  0  0  0  0  0  0  0  0  0  0  0
   35.8250   29.8760   40.3960 C   0  0  1  0  0  0  0  0  0  0  0  0
   35.9760   31.4190   38.9950 H   0  0  0  0  0  0  0  0  0  0  0  0
   37.2080   28.6870   38.2820 H   0  0  0  0  0  0  0  0  0  0  0  0
   37.3620   30.1890   37.3380 H   0  0  0  0  0  0  0  0  0  0  0  0
   34.8590   30.4720   37.4550 H   0  0  0  0  0  0  0  0  0  0  0  0
   35.3810   28.9120   36.6300 H   0  0  0  0  0  0  0  0  0  0  0  0
   33.5520   28.5090   38.2160 H   0  0  0  0  0  0  0  0  0  0  0  0
   35.0510   27.5920   38.4920 H   0  0  0  0  0  0  0  0  0  0  0  0
   34.4150   28.3140   40.6650 H   0  0  0  0  0  0  0  0  0  0  0  0
   33.7110   29.8070   40.0560 H   0  0  0  0  0  0  0  0  0  0  0  0
   35.5100   30.7400   41.0580 H   0  0  0  0  0  0  0  0  0  0  0  0
   40.3020   30.9730   39.9650 C   0  0  0  0  0  0  0  0  0  0  0  0
   39.0810   30.4900   39.4960 C   0  0  0  0  0  0  0  0  0  0  0  0
   37.8620   31.0820   39.7910 C   0  0  0  0  0  0  0  0  0  0  0  0
   37.9160   32.1730   40.5710 N   0  0  0  0  0  0  0  0  0  0  0  0
   39.0960   32.6540   41.0350 C   0  0  0  0  0  0  0  0  0  0  0  0
   40.2580   32.0830   40.7490 N   0  0  0  0  0  0  0  0  0  0  0  0
   41.1540   30.4090   39.6520 H   0  0  0  0  0  0  0  0  0  0  0  0
   39.0360   29.5980   38.8590 H   0  0  0  0  0  0  0  0  0  0  0  0
   39.1490   33.5350   41.6650 H   0  0  0  0  0  0  0  0  0  0  0  0
   36.7030   29.0680   41.2610 C   0  0  0  0  0  0  0  0  0  0  0  0
   37.2440   29.4480   42.4980 C   0  0  0  0  0  0  0  0  0  0  0  0
   38.0350   28.4790   43.1400 C   0  0  0  0  0  0  0  0  0  0  0  0
   38.2100   27.2670   42.5200 C   0  0  0  0  0  0  0  0  0  0  0  0
   37.6730   26.9080   41.3060 C   0  0  0  0  0  0  0  0  0  0  0  0
   36.9080   27.8490   40.6880 N   0  0  0  0  0  0  0  0  0  0  0  0
   36.9980   30.4260   42.8160 H   0  0  0  0  0  0  0  0  0  0  0  0
   38.4370   28.7810   44.0730 H   0  0  0  0  0  0  0  0  0  0  0  0
   38.8280   26.5520   43.0530 H   0  0  0  0  0  0  0  0  0  0  0  0
   37.9400   25.5570   40.7400 C   0  0  0  0  0  3  0  0  0  0  0  0
   38.1240   24.4940   41.7390 C   0  0  0  0  0  2  0  0  0  0  0  0
   37.6180   23.2520   41.0270 C   0  0  0  0  0  2  0  0  0  0  0  0
   36.4680   23.7070   40.1900 C   0  0  0  0  0  2  0  0  0  0  0  0
   36.7790   25.1320   39.8540 C   0  0  0  0  0  2  0  0  0  0  0  0
  1  7  1  6  0  0  0
  1 19  1  0  0  0  0
  1  6  1  0  0  0  0
  2  8  1  0  0  0  0
  2  1  1  0  0  0  0
  3  2  1  0  0  0  0
  3  4  1  0  0  0  0
  4  5  1  0  0  0  0
  5 15  1  0  0  0  0
  5  6  1  0  0  0  0
  5 14  1  0  0  0  0
  6 16  1  1  0  0  0
  6 26  1  0  0  0  0
  9  2  1  0  0  0  0
 10  3  1  0  0  0  0
 11  3  1  0  0  0  0
 12  4  1  0  0  0  0
 13  4  1  0  0  0  0
 17 22  1  0  0  0  0
 18 19  1  0  0  0  0
 18 17  2  0  0  0  0
 19 20  2  0  0  0  0
 20 21  1  0  0  0  0
 21 25  1  0  0  0  0
 22 21  2  0  0  0  0
 23 17  1  0  0  0  0
 24 18  1  0  0  0  0
 26 27  1  0  0  0  0
 27 32  1  0  0  0  0
 27 28  2  0  0  0  0
 28 33  1  0  0  0  0
 29 34  1  0  0  0  0
 29 28  1  0  0  0  0
 30 29  2  0  0  0  0
 31 26  2  0  0  0  0
 31 30  1  0  0  0  0
 35 30  1  0  0  0  0
 35 36  1  0  0  0  0
 37 36  1  0  0  0  0
 38 37  1  0  0  0  0
 39 38  1  0  0  0  0
 39 35  1  0  0  0  0
M  END
>  <minimizedAffinity>
-6.05825186

$$$$

 OpenBabel03242516513D

 39 42  0  0  1  0  0  0  0  0999 V2000
   37.7760   31.3270   39.4430 C   0  0  1  0  0  0  0  0  0  0  0  0
   37.4410   32.5390   40.2200 C   0  0  0  0  0  0  0  0  0  0  0  0
   38.5990   33.5130   39.9790 C   0  0  0  0  0  0  0  0  0  0  0  0
   39.7940   32.9360   40.7080 C   0  0  0  0  0  0  0  0  0  0  0  0
   40.1350   31.5320   40.3020 C   0  0  0  0  0  0  0  0  0  0  0  0
   39.0230   30.6380   39.9590 C   0  0  1  0  0  0  0  0  0  0  0  0
   38.0690   31.6430   38.3960 H   0  0  0  0  0  0  0  0  0  0  0  0
   37.2870   32.3770   41.2850 H   0  0  0  0  0  0  0  0  0  0  0  0
   36.4970   32.9620   39.8000 H   0  0  0  0  0  0  0  0  0  0  0  0
   38.7620   33.5910   38.8890 H   0  0  0  0  0  0  0  0  0  0  0  0
   38.3370   34.4580   40.4560 H   0  0  0  0  0  0  0  0  0  0  0  0
   40.6420   33.6160   40.5020 H   0  0  0  0  0  0  0  0  0  0  0  0
   39.5670   33.0400   41.7960 H   0  0  0  0  0  0  0  0  0  0  0  0
   40.7410   31.0880   41.1190 H   0  0  0  0  0  0  0  0  0  0  0  0
   40.8520   31.6310   39.4490 H   0  0  0  0  0  0  0  0  0  0  0  0
   39.3530   29.9740   39.1020 H   0  0  0  0  0  0  0  0  0  0  0  0
   35.5740   28.6700   37.9060 C   0  0  0  0  0  0  0  0  0  0  0  0
   36.5890   29.6000   38.1220 C   0  0  0  0  0  0  0  0  0  0  0  0
   36.6940   30.3640   39.2760 C   0  0  0  0  0  0  0  0  0  0  0  0
   35.7420   30.1580   40.2000 N   0  0  0  0  0  0  0  0  0  0  0  0
   34.7480   29.2560   40.0040 C   0  0  0  0  0  0  0  0  0  0  0  0
   34.6550   28.5300   38.8980 N   0  0  0  0  0  0  0  0  0  0  0  0
   35.6290   28.1600   36.9690 H   0  0  0  0  0  0  0  0  0  0  0  0
   37.3670   29.7700   37.3660 H   0  0  0  0  0  0  0  0  0  0  0  0
   33.9750   29.0830   40.7450 H   0  0  0  0  0  0  0  0  0  0  0  0
   38.6950   29.6870   41.0370 C   0  0  0  0  0  0  0  0  0  0  0  0
   38.4270   29.9980   42.3780 C   0  0  0  0  0  0  0  0  0  0  0  0
   38.1160   28.9050   43.2050 C   0  0  0  0  0  0  0  0  0  0  0  0
   38.1010   27.6500   42.6480 C   0  0  0  0  0  0  0  0  0  0  0  0
   38.3680   27.3610   41.3300 C   0  0  0  0  0  0  0  0  0  0  0  0
   38.6680   28.4220   40.5330 N   0  0  0  0  0  0  0  0  0  0  0  0
   38.4870   31.0240   42.6240 H   0  0  0  0  0  0  0  0  0  0  0  0
   37.9150   29.1540   44.2150 H   0  0  0  0  0  0  0  0  0  0  0  0
   37.8570   26.8380   43.3250 H   0  0  0  0  0  0  0  0  0  0  0  0
   38.3180   25.9520   40.8490 C   0  0  0  0  0  3  0  0  0  0  0  0
   38.6600   24.9410   41.8610 C   0  0  0  0  0  2  0  0  0  0  0  0
   37.8450   23.7330   41.4390 C   0  0  0  0  0  2  0  0  0  0  0  0
   36.5610   24.2790   40.9040 C   0  0  0  0  0  2  0  0  0  0  0  0
   36.9170   25.6250   40.3570 C   0  0  0  0  0  2  0  0  0  0  0  0
  1  7  1  6  0  0  0
  1  6  1  0  0  0  0
  1  2  1  0  0  0  0
  2  8  1  0  0  0  0
  3  2  1  0  0  0  0
  3 11  1  0  0  0  0
  3  4  1  0  0  0  0
  4 13  1  0  0  0  0
  5  4  1  0  0  0  0
  5 14  1  0  0  0  0
  6 16  1  6  0  0  0
  6  5  1  0  0  0  0
  6 26  1  0  0  0  0
  9  2  1  0  0  0  0
 10  3  1  0  0  0  0
 12  4  1  0  0  0  0
 15  5  1  0  0  0  0
 17 18  2  0  0  0  0
 17 22  1  0  0  0  0
 18 19  1  0  0  0  0
 19  1  1  0  0  0  0
 19 20  2  0  0  0  0
 21 20  1  0  0  0  0
 21 25  1  0  0  0  0
 22 21  2  0  0  0  0
 23 17  1  0  0  0  0
 24 18  1  0  0  0  0
 26 27  1  0  0  0  0
 27 32  1  0  0  0  0
 27 28  2  0  0  0  0
 28 33  1  0  0  0  0
 29 28  1  0  0  0  0
 29 34  1  0  0  0  0
 30 29  2  0  0  0  0
 31 26  2  0  0  0  0
 31 30  1  0  0  0  0
 35 30  1  0  0  0  0
 35 36  1  0  0  0  0
 37 36  1  0  0  0  0
 38 37  1  0  0  0  0
 39 35  1  0  0  0  0
 39 38  1  0  0  0  0
M  END
>  <minimizedAffinity>
-5.76616192

$$$$

 OpenBabel03242516513D

 39 42  0  0  1  0  0  0  0  0999 V2000
   35.9280   28.0580   40.0940 C   0  0  1  0  0  0  0  0  0  0  0  0
   35.0720   29.2550   39.9710 C   0  0  0  0  0  0  0  0  0  0  0  0
   34.1020   28.9510   38.8250 C   0  0  0  0  0  0  0  0  0  0  0  0
   34.9300   28.9690   37.5570 C   0  0  0  0  0  0  0  0  0  0  0  0
   36.1000   28.0290   37.5810 C   0  0  0  0  0  0  0  0  0  0  0  0
   36.7850   27.8340   38.8630 C   0  0  1  0  0  0  0  0  0  0  0  0
   35.2620   27.1430   40.1150 H   0  0  0  0  0  0  0  0  0  0  0  0
   35.6040   30.1870   39.7910 H   0  0  0  0  0  0  0  0  0  0  0  0
   34.5050   29.3670   40.9270 H   0  0  0  0  0  0  0  0  0  0  0  0
   33.6400   27.9670   39.0170 H   0  0  0  0  0  0  0  0  0  0  0  0
   33.3880   29.7730   38.7720 H   0  0  0  0  0  0  0  0  0  0  0  0
   34.2400   28.7100   36.7310 H   0  0  0  0  0  0  0  0  0  0  0  0
   35.2210   30.0350   37.3980 H   0  0  0  0  0  0  0  0  0  0  0  0
   36.8220   28.3790   36.8140 H   0  0  0  0  0  0  0  0  0  0  0  0
   35.7160   27.0600   37.1760 H   0  0  0  0  0  0  0  0  0  0  0  0
   37.1010   26.7480   38.9350 H   0  0  0  0  0  0  0  0  0  0  0  0
   38.0250   26.6360   42.8960 C   0  0  0  0  0  0  0  0  0  0  0  0
   37.2470   26.7690   41.7470 C   0  0  0  0  0  0  0  0  0  0  0  0
   36.7420   27.9820   41.3010 C   0  0  0  0  0  0  0  0  0  0  0  0
   37.0460   29.0520   42.0520 N   0  0  0  0  0  0  0  0  0  0  0  0
   37.8010   28.9390   43.1730 C   0  0  0  0  0  0  0  0  0  0  0  0
   38.2810   27.7750   43.5930 N   0  0  0  0  0  0  0  0  0  0  0  0
   38.3400   25.6380   43.1080 H   0  0  0  0  0  0  0  0  0  0  0  0
   36.9970   25.8940   41.1330 H   0  0  0  0  0  0  0  0  0  0  0  0
   38.0520   29.7980   43.7860 H   0  0  0  0  0  0  0  0  0  0  0  0
   38.0530   28.5790   38.9580 C   0  0  0  0  0  0  0  0  0  0  0  0
   39.3370   28.0350   39.1090 C   0  0  0  0  0  0  0  0  0  0  0  0
   40.3910   28.9650   39.1500 C   0  0  0  0  0  0  0  0  0  0  0  0
   40.0860   30.3000   39.0420 C   0  0  0  0  0  0  0  0  0  0  0  0
   38.8200   30.8180   38.8950 C   0  0  0  0  0  0  0  0  0  0  0  0
   37.8030   29.9150   38.8550 N   0  0  0  0  0  0  0  0  0  0  0  0
   39.3750   26.9810   39.1760 H   0  0  0  0  0  0  0  0  0  0  0  0
   41.3540   28.5410   39.2640 H   0  0  0  0  0  0  0  0  0  0  0  0
   40.9310   30.9790   39.0790 H   0  0  0  0  0  0  0  0  0  0  0  0
   38.6230   32.2900   38.7890 C   0  0  0  0  0  3  0  0  0  0  0  0
   37.2840   32.7640   39.1720 C   0  0  0  0  0  2  0  0  0  0  0  0
   37.5450   34.1580   39.7100 C   0  0  0  0  0  2  0  0  0  0  0  0
   38.8610   34.0800   40.4110 C   0  0  0  0  0  2  0  0  0  0  0  0
   39.6160   33.0080   39.6900 C   0  0  0  0  0  2  0  0  0  0  0  0
  1  7  1  1  0  0  0
  1 19  1  0  0  0  0
  2  1  1  0  0  0  0
  2  9  1  0  0  0  0
  3 10  1  0  0  0  0
  3  2  1  0  0  0  0
  4  5  1  0  0  0  0
  4  3  1  0  0  0  0
  5  6  1  0  0  0  0
  6 16  1  1  0  0  0
  6 26  1  0  0  0  0
  6  1  1  0  0  0  0
  8  2  1  0  0  0  0
 11  3  1  0  0  0  0
 12  4  1  0  0  0  0
 13  4  1  0  0  0  0
 14  5  1  0  0  0  0
 15  5  1  0  0  0  0
 17 23  1  0  0  0  0
 17 22  1  0  0  0  0
 18 17  2  0  0  0  0
 19 18  1  0  0  0  0
 19 20  2  0  0  0  0
 20 21  1  0  0  0  0
 21 22  2  0  0  0  0
 21 25  1  0  0  0  0
 24 18  1  0  0  0  0
 26 27  1  0  0  0  0
 27 28  2  0  0  0  0
 27 32  1  0  0  0  0
 28 33  1  0  0  0  0
 29 34  1  0  0  0  0
 29 28  1  0  0  0  0
 30 29  2  0  0  0  0
 31 30  1  0  0  0  0
 31 26  2  0  0  0  0
 35 30  1  0  0  0  0
 35 36  1  0  0  0  0
 35 39  1  0  0  0  0
 36 37  1  0  0  0  0
 37 38  1  0  0  0  0
 39 38  1  0  0  0  0
M  END
>  <minimizedAffinity>
-5.74102926

$$$$

 OpenBabel03242516513D

 39 42  0  0  1  0  0  0  0  0999 V2000
   38.7040   30.5780   40.1570 C   0  0  1  0  0  0  0  0  0  0  0  0
   38.7000   29.8700   38.8610 C   0  0  0  0  0  0  0  0  0  0  0  0
   37.6210   30.5590   38.0200 C   0  0  0  0  0  0  0  0  0  0  0  0
   36.2940   30.1770   38.6430 C   0  0  0  0  0  0  0  0  0  0  0  0
   36.1870   30.5160   40.1010 C   0  0  0  0  0  0  0  0  0  0  0  0
   37.4020   30.4020   40.9140 C   0  0  1  0  0  0  0  0  0  0  0  0
   38.7380   31.6920   39.9560 H   0  0  0  0  0  0  0  0  0  0  0  0
   38.5200   28.7990   38.9200 H   0  0  0  0  0  0  0  0  0  0  0  0
   39.7010   30.0210   38.3880 H   0  0  0  0  0  0  0  0  0  0  0  0
   37.8050   31.6470   38.0470 H   0  0  0  0  0  0  0  0  0  0  0  0
   37.6590   30.1280   37.0190 H   0  0  0  0  0  0  0  0  0  0  0  0
   35.5140   30.7060   38.0620 H   0  0  0  0  0  0  0  0  0  0  0  0
   36.1590   29.0890   38.4290 H   0  0  0  0  0  0  0  0  0  0  0  0
   35.3810   29.8840   40.5300 H   0  0  0  0  0  0  0  0  0  0  0  0
   35.7710   31.5540   40.1380 H   0  0  0  0  0  0  0  0  0  0  0  0
   37.4020   31.2430   41.6730 H   0  0  0  0  0  0  0  0  0  0  0  0
   41.3450   31.0170   42.8230 C   0  0  0  0  0  0  0  0  0  0  0  0
   40.2620   31.2270   41.9700 C   0  0  0  0  0  0  0  0  0  0  0  0
   39.8400   30.3000   41.0280 C   0  0  0  0  0  0  0  0  0  0  0  0
   40.5450   29.1590   40.9760 N   0  0  0  0  0  0  0  0  0  0  0  0
   41.6000   28.9400   41.7990 C   0  0  0  0  0  0  0  0  0  0  0  0
   41.9980   29.8310   42.6970 N   0  0  0  0  0  0  0  0  0  0  0  0
   41.5470   31.8240   43.4930 H   0  0  0  0  0  0  0  0  0  0  0  0
   39.6870   32.1600   42.0110 H   0  0  0  0  0  0  0  0  0  0  0  0
   42.1750   28.0210   41.7640 H   0  0  0  0  0  0  0  0  0  0  0  0
   37.4300   29.1810   41.7390 C   0  0  0  0  0  0  0  0  0  0  0  0
   37.6310   29.1080   43.1250 C   0  0  0  0  0  0  0  0  0  0  0  0
   37.5880   27.8170   43.6790 C   0  0  0  0  0  0  0  0  0  0  0  0
   37.3590   26.7550   42.8390 C   0  0  0  0  0  0  0  0  0  0  0  0
   37.1640   26.8420   41.4810 C   0  0  0  0  0  0  0  0  0  0  0  0
   37.2060   28.0940   40.9480 N   0  0  0  0  0  0  0  0  0  0  0  0
   37.7940   30.0360   43.6060 H   0  0  0  0  0  0  0  0  0  0  0  0
   37.7420   27.7780   44.7270 H   0  0  0  0  0  0  0  0  0  0  0  0
   37.3360   25.7790   43.3130 H   0  0  0  0  0  0  0  0  0  0  0  0
   36.9250   25.6100   40.6790 C   0  0  0  0  0  3  0  0  0  0  0  0
   37.9430   25.3310   39.6550 C   0  0  0  0  0  2  0  0  0  0  0  0
   37.9370   23.8170   39.5580 C   0  0  0  0  0  2  0  0  0  0  0  0
   37.6960   23.3240   40.9480 C   0  0  0  0  0  2  0  0  0  0  0  0
   36.8830   24.3990   41.5990 C   0  0  0  0  0  2  0  0  0  0  0  0
  1  7  1  6  0  0  0
  1  6  1  0  0  0  0
  1 19  1  0  0  0  0
  2  8  1  0  0  0  0
  2  1  1  0  0  0  0
  3 10  1  0  0  0  0
  3  4  1  0  0  0  0
  3  2  1  0  0  0  0
  4  5  1  0  0  0  0
  5 15  1  0  0  0  0
  5 14  1  0  0  0  0
  5  6  1  0  0  0  0
  6 16  1  1  0  0  0
  6 26  1  0  0  0  0
  9  2  1  0  0  0  0
 11  3  1  0  0  0  0
 12  4  1  0  0  0  0
 13  4  1  0  0  0  0
 17 23  1  0  0  0  0
 18 24  1  0  0  0  0
 18 17  2  0  0  0  0
 19 18  1  0  0  0  0
 20 19  2  0  0  0  0
 20 21  1  0  0  0  0
 21 22  2  0  0  0  0
 22 17  1  0  0  0  0
 25 21  1  0  0  0  0
 26 27  1  0  0  0  0
 27 32  1  0  0  0  0
 27 28  2  0  0  0  0
 28 33  1  0  0  0  0
 29 34  1  0  0  0  0
 29 28  1  0  0  0  0
 30 29  2  0  0  0  0
 31 30  1  0  0  0  0
 31 26  2  0  0  0  0
 35 30  1  0  0  0  0
 35 39  1  0  0  0  0
 36 35  1  0  0  0  0
 37 36  1  0  0  0  0
 37 38  1  0  0  0  0
 38 39  1  0  0  0  0
M  END
>  <minimizedAffinity>
-5.68401432

$$$$

 OpenBabel03242516513D

 39 42  0  0  1  0  0  0  0  0999 V2000
   37.3780   30.2520   38.7250 C   0  0  1  0  0  0  0  0  0  0  0  0
   36.8400   28.8920   38.5170 C   0  0  0  0  0  0  0  0  0  0  0  0
   35.3220   29.0220   38.6790 C   0  0  0  0  0  0  0  0  0  0  0  0
   35.0770   29.2850   40.1500 C   0  0  0  0  0  0  0  0  0  0  0  0
   35.8130   30.4780   40.6860 C   0  0  0  0  0  0  0  0  0  0  0  0
   37.1450   30.7540   40.1370 C   0  0  1  0  0  0  0  0  0  0  0  0
   36.7790   30.9740   38.0910 H   0  0  0  0  0  0  0  0  0  0  0  0
   37.2370   28.1310   39.1860 H   0  0  0  0  0  0  0  0  0  0  0  0
   37.0840   28.5870   37.4710 H   0  0  0  0  0  0  0  0  0  0  0  0
   34.9770   29.8500   38.0360 H   0  0  0  0  0  0  0  0  0  0  0  0
   34.8820   28.0550   38.4320 H   0  0  0  0  0  0  0  0  0  0  0  0
   33.9840   29.4190   40.2640 H   0  0  0  0  0  0  0  0  0  0  0  0
   35.3310   28.3330   40.6770 H   0  0  0  0  0  0  0  0  0  0  0  0
   35.8730   30.3630   41.7890 H   0  0  0  0  0  0  0  0  0  0  0  0
   35.1260   31.3480   40.5370 H   0  0  0  0  0  0  0  0  0  0  0  0
   37.2710   31.8780   40.0600 H   0  0  0  0  0  0  0  0  0  0  0  0
   40.9860   29.5060   37.8900 C   0  0  0  0  0  0  0  0  0  0  0  0
   39.6450   29.3760   38.2480 C   0  0  0  0  0  0  0  0  0  0  0  0
   38.7700   30.4490   38.3390 C   0  0  0  0  0  0  0  0  0  0  0  0
   39.2930   31.6530   38.0580 N   0  0  0  0  0  0  0  0  0  0  0  0
   40.5950   31.7960   37.7080 C   0  0  0  0  0  0  0  0  0  0  0  0
   41.4260   30.7640   37.6240 N   0  0  0  0  0  0  0  0  0  0  0  0
   41.5310   28.5880   37.8640 H   0  0  0  0  0  0  0  0  0  0  0  0
   39.2170   28.3920   38.4790 H   0  0  0  0  0  0  0  0  0  0  0  0
   41.0260   32.7640   37.4790 H   0  0  0  0  0  0  0  0  0  0  0  0
   38.2370   30.3360   41.0350 C   0  0  0  0  0  0  0  0  0  0  0  0
   39.3700   31.0850   41.3840 C   0  0  0  0  0  0  0  0  0  0  0  0
   40.2550   30.4640   42.2830 C   0  0  0  0  0  0  0  0  0  0  0  0
   39.9480   29.2050   42.7350 C   0  0  0  0  0  0  0  0  0  0  0  0
   38.8310   28.4830   42.3830 C   0  0  0  0  0  0  0  0  0  0  0  0
   37.9770   29.0870   41.5130 N   0  0  0  0  0  0  0  0  0  0  0  0
   39.4370   32.0380   40.9330 H   0  0  0  0  0  0  0  0  0  0  0  0
   41.1070   31.0410   42.5370 H   0  0  0  0  0  0  0  0  0  0  0  0
   40.6610   28.7670   43.4260 H   0  0  0  0  0  0  0  0  0  0  0  0
   38.6130   27.1220   42.9460 C   0  0  0  0  0  3  0  0  0  0  0  0
   38.2980   26.0840   41.9520 C   0  0  0  0  0  2  0  0  0  0  0  0
   38.8660   24.8200   42.5710 C   0  0  0  0  0  2  0  0  0  0  0  0
   40.1130   25.2420   43.2770 C   0  0  0  0  0  2  0  0  0  0  0  0
   39.8640   26.6620   43.6790 C   0  0  0  0  0  2  0  0  0  0  0  0
  1  7  1  6  0  0  0
  1  6  1  0  0  0  0
  2  3  1  0  0  0  0
  2  1  1  0  0  0  0
  2  8  1  0  0  0  0
  3  4  1  0  0  0  0
  4 12  1  0  0  0  0
  4 13  1  0  0  0  0
  4  5  1  0  0  0  0
  5 14  1  0  0  0  0
  6 16  1  6  0  0  0
  6  5  1  0  0  0  0
  6 26  1  0  0  0  0
  9  2  1  0  0  0  0
 10  3  1  0  0  0  0
 11  3  1  0  0  0  0
 15  5  1  0  0  0  0
 17 18  1  0  0  0  0
 18 19  2  0  0  0  0
 18 24  1  0  0  0  0
 19  1  1  0  0  0  0
 20 19  1  0  0  0  0
 21 20  2  0  0  0  0
 22 21  1  0  0  0  0
 22 17  2  0  0  0  0
 23 17  1  0  0  0  0
 25 21  1  0  0  0  0
 26 27  2  0  0  0  0
 26 31  1  0  0  0  0
 27 28  1  0  0  0  0
 28 33  1  0  0  0  0
 28 29  2  0  0  0  0
 29 34  1  0  0  0  0
 30 29  1  0  0  0  0
 30 35  1  0  0  0  0
 31 30  2  0  0  0  0
 32 27  1  0  0  0  0
 35 39  1  0  0  0  0
 36 37  1  0  0  0  0
 36 35  1  0  0  0  0
 37 38  1  0  0  0  0
 38 39  1  0  0  0  0
M  END
>  <minimizedAffinity>
-5.63492918

$$$$

 OpenBabel03242516513D

 39 42  0  0  1  0  0  0  0  0999 V2000
   36.3940   27.4110   40.2650 C   0  0  1  0  0  0  0  0  0  0  0  0
   37.6120   26.5860   40.3970 C   0  0  0  0  0  0  0  0  0  0  0  0
   37.3930   25.7290   41.6480 C   0  0  0  0  0  0  0  0  0  0  0  0
   37.4710   26.6770   42.8260 C   0  0  0  0  0  0  0  0  0  0  0  0
   36.5100   27.8280   42.7460 C   0  0  0  0  0  0  0  0  0  0  0  0
   36.2280   28.3820   41.4170 C   0  0  1  0  0  0  0  0  0  0  0  0
   35.4910   26.7350   40.3630 H   0  0  0  0  0  0  0  0  0  0  0  0
   38.5430   27.1440   40.4680 H   0  0  0  0  0  0  0  0  0  0  0  0
   37.6770   25.9290   39.4950 H   0  0  0  0  0  0  0  0  0  0  0  0
   36.4080   25.2390   41.5620 H   0  0  0  0  0  0  0  0  0  0  0  0
   38.2300   25.0340   41.7200 H   0  0  0  0  0  0  0  0  0  0  0  0
   37.2730   26.0690   43.7290 H   0  0  0  0  0  0  0  0  0  0  0  0
   38.5400   26.9960   42.8920 H   0  0  0  0  0  0  0  0  0  0  0  0
   36.8920   28.6260   43.4170 H   0  0  0  0  0  0  0  0  0  0  0  0
   35.5740   27.4740   43.2440 H   0  0  0  0  0  0  0  0  0  0  0  0
   35.1340   28.6760   41.3810 H   0  0  0  0  0  0  0  0  0  0  0  0
   34.7600   29.1170   37.3160 C   0  0  0  0  0  0  0  0  0  0  0  0
   34.9740   28.4620   38.5280 C   0  0  0  0  0  0  0  0  0  0  0  0
   36.2320   28.1020   38.9910 C   0  0  0  0  0  0  0  0  0  0  0  0
   37.2620   28.4240   38.1920 N   0  0  0  0  0  0  0  0  0  0  0  0
   37.0690   29.0610   37.0100 C   0  0  0  0  0  0  0  0  0  0  0  0
   35.8640   29.4020   36.5740 N   0  0  0  0  0  0  0  0  0  0  0  0
   33.7360   29.3280   37.0980 H   0  0  0  0  0  0  0  0  0  0  0  0
   34.1330   28.1980   39.1810 H   0  0  0  0  0  0  0  0  0  0  0  0
   37.8950   29.3250   36.3590 H   0  0  0  0  0  0  0  0  0  0  0  0
   36.9430   29.6440   41.1550 C   0  0  0  0  0  0  0  0  0  0  0  0
   36.3780   30.8590   40.7420 C   0  0  0  0  0  0  0  0  0  0  0  0
   37.2790   31.9260   40.5840 C   0  0  0  0  0  0  0  0  0  0  0  0
   38.6090   31.6990   40.8400 C   0  0  0  0  0  0  0  0  0  0  0  0
   39.1490   30.5000   41.2440 C   0  0  0  0  0  0  0  0  0  0  0  0
   38.2730   29.4700   41.3960 N   0  0  0  0  0  0  0  0  0  0  0  0
   35.3320   30.8420   40.5930 H   0  0  0  0  0  0  0  0  0  0  0  0
   36.8390   32.8380   40.2710 H   0  0  0  0  0  0  0  0  0  0  0  0
   39.2660   32.5520   40.7030 H   0  0  0  0  0  0  0  0  0  0  0  0
   40.6130   30.3840   41.4890 C   0  0  0  0  0  3  0  0  0  0  0  0
   41.1170   31.1870   42.6130 C   0  0  0  0  0  2  0  0  0  0  0  0
   42.2960   30.3780   43.1220 C   0  0  0  0  0  2  0  0  0  0  0  0
   41.9030   28.9460   42.9580 C   0  0  0  0  0  2  0  0  0  0  0  0
   40.9710   28.9360   41.7880 C   0  0  0  0  0  2  0  0  0  0  0  0
  1  7  1  1  0  0  0
  1  2  1  0  0  0  0
  1  6  1  0  0  0  0
  2  8  1  0  0  0  0
  2  3  1  0  0  0  0
  3 11  1  0  0  0  0
  3  4  1  0  0  0  0
  4 13  1  0  0  0  0
  4 12  1  0  0  0  0
  5  4  1  0  0  0  0
  5 15  1  0  0  0  0
  5 14  1  0  0  0  0
  6 16  1  1  0  0  0
  6  5  1  0  0  0  0
  9  2  1  0  0  0  0
 10  3  1  0  0  0  0
 17 18  1  0  0  0  0
 18 19  2  0  0  0  0
 18 24  1  0  0  0  0
 19  1  1  0  0  0  0
 20 19  1  0  0  0  0
 21 20  2  0  0  0  0
 22 21  1  0  0  0  0
 22 17  2  0  0  0  0
 23 17  1  0  0  0  0
 25 21  1  0  0  0  0
 26 31  1  0  0  0  0
 26  6  1  0  0  0  0
 27 26  2  0  0  0  0
 28 27  1  0  0  0  0
 28 29  2  0  0  0  0
 29 30  1  0  0  0  0
 30 31  2  0  0  0  0
 30 35  1  0  0  0  0
 32 27  1  0  0  0  0
 33 28  1  0  0  0  0
 34 29  1  0  0  0  0
 35 39  1  0  0  0  0
 35 36  1  0  0  0  0
 36 37  1  0  0  0  0
 38 37  1  0  0  0  0
 39 38  1  0  0  0  0
M  END
>  <minimizedAffinity>
-5.59258842

$$$$

 OpenBabel03242516513D

 39 42  0  0  1  0  0  0  0  0999 V2000
   36.5760   26.5010   40.0220 C   0  0  1  0  0  0  0  0  0  0  0  0
   37.3700   25.2790   39.7770 C   0  0  0  0  0  0  0  0  0  0  0  0
   36.8920   24.2630   40.8180 C   0  0  0  0  0  0  0  0  0  0  0  0
   37.4000   24.7600   42.1560 C   0  0  0  0  0  0  0  0  0  0  0  0
   36.9730   26.1610   42.4860 C   0  0  0  0  0  0  0  0  0  0  0  0
   36.8670   27.1150   41.3770 C   0  0  1  0  0  0  0  0  0  0  0  0
   35.4850   26.2080   40.1000 H   0  0  0  0  0  0  0  0  0  0  0  0
   38.4490   25.4110   39.8310 H   0  0  0  0  0  0  0  0  0  0  0  0
   37.1230   24.9140   38.7500 H   0  0  0  0  0  0  0  0  0  0  0  0
   35.7900   24.2150   40.7730 H   0  0  0  0  0  0  0  0  0  0  0  0
   37.3860   23.3150   40.6030 H   0  0  0  0  0  0  0  0  0  0  0  0
   37.0230   24.0500   42.9160 H   0  0  0  0  0  0  0  0  0  0  0  0
   38.5090   24.6290   42.1290 H   0  0  0  0  0  0  0  0  0  0  0  0
   37.6740   26.5490   43.2550 H   0  0  0  0  0  0  0  0  0  0  0  0
   36.0000   26.0590   43.0270 H   0  0  0  0  0  0  0  0  0  0  0  0
   35.9810   27.7920   41.5750 H   0  0  0  0  0  0  0  0  0  0  0  0
   35.5670   29.3490   37.7540 C   0  0  0  0  0  0  0  0  0  0  0  0
   35.5650   28.3650   38.7420 C   0  0  0  0  0  0  0  0  0  0  0  0
   36.6380   27.5170   38.9780 C   0  0  0  0  0  0  0  0  0  0  0  0
   37.7070   27.6950   38.1870 N   0  0  0  0  0  0  0  0  0  0  0  0
   37.7240   28.6480   37.2230 C   0  0  0  0  0  0  0  0  0  0  0  0
   36.6940   29.4550   37.0020 N   0  0  0  0  0  0  0  0  0  0  0  0
   34.6670   29.9210   37.6950 H   0  0  0  0  0  0  0  0  0  0  0  0
   34.6900   28.2170   39.3880 H   0  0  0  0  0  0  0  0  0  0  0  0
   38.5840   28.8000   36.5790 H   0  0  0  0  0  0  0  0  0  0  0  0
   38.0110   28.0420   41.3030 C   0  0  0  0  0  0  0  0  0  0  0  0
   39.3700   27.6970   41.2610 C   0  0  0  0  0  0  0  0  0  0  0  0
   40.2680   28.7750   41.1670 C   0  0  0  0  0  0  0  0  0  0  0  0
   39.7560   30.0480   41.1250 C   0  0  0  0  0  0  0  0  0  0  0  0
   38.4190   30.3700   41.1670 C   0  0  0  0  0  0  0  0  0  0  0  0
   37.5530   29.3250   41.2580 N   0  0  0  0  0  0  0  0  0  0  0  0
   39.5740   26.6610   41.3050 H   0  0  0  0  0  0  0  0  0  0  0  0
   41.2910   28.4990   41.1370 H   0  0  0  0  0  0  0  0  0  0  0  0
   40.4870   30.8460   41.0530 H   0  0  0  0  0  0  0  0  0  0  0  0
   37.9920   31.7960   41.1140 C   0  0  0  0  0  3  0  0  0  0  0  0
   39.0690   32.7530   40.8180 C   0  0  0  0  0  2  0  0  0  0  0  0
   38.3500   33.8750   40.0910 C   0  0  0  0  0  2  0  0  0  0  0  0
   37.2920   33.2120   39.2720 C   0  0  0  0  0  2  0  0  0  0  0  0
   36.9350   31.9760   40.0360 C   0  0  0  0  0  2  0  0  0  0  0  0
  1  7  1  1  0  0  0
  1  6  1  0  0  0  0
  2  8  1  0  0  0  0
  2  1  1  0  0  0  0
  2  3  1  0  0  0  0
  3  4  1  0  0  0  0
  4  5  1  0  0  0  0
  4 12  1  0  0  0  0
  5 15  1  0  0  0  0
  5 14  1  0  0  0  0
  6 16  1  1  0  0  0
  6  5  1  0  0  0  0
  9  2  1  0  0  0  0
 10  3  1  0  0  0  0
 11  3  1  0  0  0  0
 13  4  1  0  0  0  0
 17 18  1  0  0  0  0
 18 19  2  0  0  0  0
 18 24  1  0  0  0  0
 19  1  1  0  0  0  0
 20 19  1  0  0  0  0
 21 20  2  0  0  0  0
 22 21  1  0  0  0  0
 22 17  2  0  0  0  0
 23 17  1  0  0  0  0
 25 21  1  0  0  0  0
 26  6  1  0  0  0  0
 27 26  1  0  0  0  0
 27 32  1  0  0  0  0
 28 27  2  0  0  0  0
 29 28  1  0  0  0  0
 29 30  2  0  0  0  0
 30 31  1  0  0  0  0
 31 26  2  0  0  0  0
 33 28  1  0  0  0  0
 34 29  1  0  0  0  0
 35 30  1  0  0  0  0
 36 35  1  0  0  0  0
 37 36  1  0  0  0  0
 38 39  1  0  0  0  0
 38 37  1  0  0  0  0
 39 35  1  0  0  0  0
M  END
>  <minimizedAffinity>
-5.53026772

$$$$

 OpenBabel03242516513D

 39 42  0  0  1  0  0  0  0  0999 V2000
   38.9770   30.8740   37.8470 C   0  0  1  0  0  0  0  0  0  0  0  0
   38.2750   29.5740   37.8790 C   0  0  0  0  0  0  0  0  0  0  0  0
   36.8000   29.8990   37.6230 C   0  0  0  0  0  0  0  0  0  0  0  0
   36.3030   30.6080   38.8660 C   0  0  0  0  0  0  0  0  0  0  0  0
   37.1010   31.8250   39.2330 C   0  0  0  0  0  0  0  0  0  0  0  0
   38.5450   31.7900   38.9750 C   0  0  1  0  0  0  0  0  0  0  0  0
   38.6520   31.4340   36.9190 H   0  0  0  0  0  0  0  0  0  0  0  0
   38.3930   29.0080   38.8010 H   0  0  0  0  0  0  0  0  0  0  0  0
   38.6760   28.9510   37.0430 H   0  0  0  0  0  0  0  0  0  0  0  0
   36.7380   30.5310   36.7200 H   0  0  0  0  0  0  0  0  0  0  0  0
   36.2660   28.9520   37.5400 H   0  0  0  0  0  0  0  0  0  0  0  0
   35.2490   30.8790   38.6690 H   0  0  0  0  0  0  0  0  0  0  0  0
   36.2810   29.8330   39.6710 H   0  0  0  0  0  0  0  0  0  0  0  0
   36.9120   32.0350   40.3070 H   0  0  0  0  0  0  0  0  0  0  0  0
   36.6140   32.6770   38.6960 H   0  0  0  0  0  0  0  0  0  0  0  0
   38.8700   32.8230   38.6380 H   0  0  0  0  0  0  0  0  0  0  0  0
   42.5610   31.8290   37.1240 C   0  0  0  0  0  0  0  0  0  0  0  0
   41.1700   31.8430   37.2230 C   0  0  0  0  0  0  0  0  0  0  0  0
   40.4330   30.8060   37.7770 C   0  0  0  0  0  0  0  0  0  0  0  0
   41.1430   29.7590   38.2250 N   0  0  0  0  0  0  0  0  0  0  0  0
   42.4960   29.7310   38.1350 C   0  0  0  0  0  0  0  0  0  0  0  0
   43.1940   30.7260   37.6040 N   0  0  0  0  0  0  0  0  0  0  0  0
   42.9830   32.7000   36.6730 H   0  0  0  0  0  0  0  0  0  0  0  0
   40.5880   32.6980   36.8560 H   0  0  0  0  0  0  0  0  0  0  0  0
   43.0780   28.8900   38.4950 H   0  0  0  0  0  0  0  0  0  0  0  0
   39.3420   31.5470   40.1910 C   0  0  0  0  0  0  0  0  0  0  0  0
   40.5540   32.1620   40.5370 C   0  0  0  0  0  0  0  0  0  0  0  0
   41.1040   31.7700   41.7700 C   0  0  0  0  0  0  0  0  0  0  0  0
   40.4270   30.8400   42.5190 C   0  0  0  0  0  0  0  0  0  0  0  0
   39.2380   30.2460   42.1660 C   0  0  0  0  0  0  0  0  0  0  0  0
   38.7090   30.6270   40.9710 N   0  0  0  0  0  0  0  0  0  0  0  0
   40.9260   32.8550   39.8310 H   0  0  0  0  0  0  0  0  0  0  0  0
   42.0200   32.2420   42.0180 H   0  0  0  0  0  0  0  0  0  0  0  0
   40.8900   30.5690   43.4620 H   0  0  0  0  0  0  0  0  0  0  0  0
   38.6030   29.2470   43.0700 C   0  0  0  0  0  3  0  0  0  0  0  0
   37.2760   28.7810   42.6410 C   0  0  0  0  0  2  0  0  0  0  0  0
   37.2100   27.3640   43.1820 C   0  0  0  0  0  2  0  0  0  0  0  0
   38.5950   26.8200   43.0570 C   0  0  0  0  0  2  0  0  0  0  0  0
   39.4880   28.0150   43.1770 C   0  0  0  0  0  2  0  0  0  0  0  0
  1  7  1  6  0  0  0
  1  2  1  0  0  0  0
  1  6  1  0  0  0  0
  2  8  1  0  0  0  0
  3  2  1  0  0  0  0
  3  4  1  0  0  0  0
  4  5  1  0  0  0  0
  4 13  1  0  0  0  0
  5 14  1  0  0  0  0
  6 16  1  6  0  0  0
  6  5  1  0  0  0  0
  6 26  1  0  0  0  0
  9  2  1  0  0  0  0
 10  3  1  0  0  0  0
 11  3  1  0  0  0  0
 12  4  1  0  0  0  0
 15  5  1  0  0  0  0
 17 18  2  0  0  0  0
 17 22  1  0  0  0  0
 18 19  1  0  0  0  0
 19  1  1  0  0  0  0
 19 20  2  0  0  0  0
 21 20  1  0  0  0  0
 21 25  1  0  0  0  0
 22 21  2  0  0  0  0
 23 17  1  0  0  0  0
 24 18  1  0  0  0  0
 26 27  2  0  0  0  0
 26 31  1  0  0  0  0
 27 28  1  0  0  0  0
 28 33  1  0  0  0  0
 28 29  2  0  0  0  0
 29 34  1  0  0  0  0
 30 29  1  0  0  0  0
 30 35  1  0  0  0  0
 31 30  2  0  0  0  0
 32 27  1  0  0  0  0
 35 39  1  0  0  0  0
 36 35  1  0  0  0  0
 36 37  1  0  0  0  0
 38 39  1  0  0  0  0
 38 37  1  0  0  0  0
M  END
>  <minimizedAffinity>
-5.47389984

$$$$
