
 OpenBabel03252504253D

 17 18  0  0  0  0  0  0  0  0999 V2000
   44.3500   35.8070   44.1300 C   0  0  0  0  0  0  0  0  0  0  0  0
   44.4320   35.0630   42.9600 C   0  0  0  0  0  0  0  0  0  0  0  0
   44.9920   33.7860   43.0460 C   0  0  0  0  0  0  0  0  0  0  0  0
   45.4180   33.3630   44.2560 N   0  0  0  0  0  0  0  0  0  0  0  0
   45.3280   34.1050   45.3740 C   0  0  0  0  0  0  0  0  0  0  0  0
   44.7890   35.3510   45.3360 N   0  0  0  0  0  0  0  0  0  0  0  0
   43.9330   36.8120   44.1780 H   0  0  0  0  0  0  0  0  0  0  0  0
   45.0360   33.2490   42.1270 H   0  0  0  0  0  0  0  0  0  0  0  0
   45.6730   33.7400   46.3150 H   0  0  0  0  0  0  0  0  0  0  0  0
   43.9070   35.7170   41.7510 C   0  0  0  0  0  0  0  0  0  0  0  0
   43.6240   36.7420   41.9490 H   0  0  0  0  0  0  0  0  0  0  0  0
   44.6920   35.7360   40.9500 H   0  0  0  0  0  0  0  0  0  0  0  0
   42.7080   34.9650   41.2400 C   0  0  0  0  0  3  0  0  0  0  0  0
   42.5400   35.0920   39.7380 C   0  0  0  0  0  2  0  0  0  0  0  0
   41.1870   34.4160   39.5730 C   0  0  0  0  0  2  0  0  0  0  0  0
   40.3850   35.0570   40.6880 C   0  0  0  0  0  2  0  0  0  0  0  0
   41.4080   35.5600   41.7130 C   0  0  0  0  0  2  0  0  0  0  0  0
  1  7  1  0  0  0  0
  1  6  1  0  0  0  0
  2  3  1  0  0  0  0
  2  1  2  0  0  0  0
  3  4  2  0  0  0  0
  4  5  1  0  0  0  0
  5  9  1  0  0  0  0
  6  5  2  0  0  0  0
  8  3  1  0  0  0  0
 10 11  1  0  0  0  0
 10  2  1  0  0  0  0
 12 10  1  0  0  0  0
 13 17  1  0  0  0  0
 13 10  1  0  0  0  0
 14 13  1  0  0  0  0
 15 14  1  0  0  0  0
 15 16  1  0  0  0  0
 16 17  1  0  0  0  0
M  END
>  <minimizedAffinity>
-4.04983234

>  <minimizedRMSD>
0.620979607

$$$$
