
 OpenBabel03252504193D

 34 36  0  0  0  0  0  0  0  0999 V2000
   33.1820   28.7660   38.3950 F   0  0  0  0  0  0  0  0  0  0  0  0
   34.1240   28.8160   37.3880 C   0  0  0  0  0  0  0  0  0  0  0  0
   35.4640   28.6730   37.6940 C   0  0  0  0  0  0  0  0  0  0  0  0
   36.3440   28.7330   36.6330 C   0  0  0  0  0  0  0  0  0  0  0  0
   35.9100   28.9250   35.3510 C   0  0  0  0  0  0  0  0  0  0  0  0
   34.5490   29.0630   35.0980 C   0  0  0  0  0  0  0  0  0  0  0  0
   33.6150   29.0090   36.1340 C   0  0  0  0  0  0  0  0  0  0  0  0
   37.3960   28.6330   36.7850 H   0  0  0  0  0  0  0  0  0  0  0  0
   36.5750   28.9750   34.5110 H   0  0  0  0  0  0  0  0  0  0  0  0
   34.1310   29.2180   34.1000 H   0  0  0  0  0  0  0  0  0  0  0  0
   36.9110   27.0470   40.6380 C   0  0  0  0  0  0  0  0  0  0  0  0
   36.7850   28.0160   41.6320 C   0  0  0  0  0  0  0  0  0  0  0  0
   36.1970   29.2360   41.2830 C   0  0  0  0  0  0  0  0  0  0  0  0
   35.7790   29.4340   40.0180 N   0  0  0  0  0  0  0  0  0  0  0  0
   35.9160   28.4690   39.0710 C   0  0  0  0  0  0  0  0  0  0  0  0
   36.4780   27.2880   39.3810 N   0  0  0  0  0  0  0  0  0  0  0  0
   36.0900   30.0020   42.0390 H   0  0  0  0  0  0  0  0  0  0  0  0
   37.2700   27.7200   42.9920 C   0  0  0  0  0  0  0  0  0  0  0  0
   37.5240   28.8900   43.6760 F   0  0  0  0  0  0  0  0  0  0  0  0
   36.2370   27.0660   43.6800 F   0  0  0  0  0  0  0  0  0  0  0  0
   38.3700   26.9310   43.0490 F   0  0  0  0  0  0  0  0  0  0  0  0
   37.4790   25.8670   40.9700 O   0  0  0  0  0  0  0  0  0  0  0  0
   36.8360   24.6210   41.0770 C   0  0  0  0  0  0  0  0  0  0  0  0
   36.3720   24.5100   42.3900 F   0  0  0  0  0  0  0  0  0  0  0  0
   35.8420   24.5330   40.1510 F   0  0  0  0  0  0  0  0  0  0  0  0
   37.7620   23.6090   40.9360 F   0  0  0  0  0  0  0  0  0  0  0  0
   32.1460   29.1550   35.8880 C   0  0  0  0  0  0  0  0  0  0  0  0
   31.7860   28.5630   35.0300 H   0  0  0  0  0  0  0  0  0  0  0  0
   31.6250   28.8140   36.8150 H   0  0  0  0  0  0  0  0  0  0  0  0
   31.8250   30.6280   35.7220 C   0  0  0  0  0  3  0  0  0  0  0  0
   30.5640   31.0030   36.4780 C   0  0  0  0  0  2  0  0  0  0  0  0
   30.2200   32.3520   35.8580 C   0  0  0  0  0  2  0  0  0  0  0  0
   30.7040   32.2990   34.4400 C   0  0  0  0  0  2  0  0  0  0  0  0
   31.3740   30.9240   34.2990 C   0  0  0  0  0  2  0  0  0  0  0  0
  2  3  1  0  0  0  0
  2  1  1  0  0  0  0
  3 15  1  0  0  0  0
  4  8  1  0  0  0  0
  4  3  2  0  0  0  0
  5  4  1  0  0  0  0
  6  5  2  0  0  0  0
  6  7  1  0  0  0  0
  7  2  2  0  0  0  0
  9  5  1  0  0  0  0
 10  6  1  0  0  0  0
 11 22  1  0  0  0  0
 11 12  1  0  0  0  0
 12 18  1  0  0  0  0
 13 12  2  0  0  0  0
 13 17  1  0  0  0  0
 14 13  1  0  0  0  0
 15 16  1  0  0  0  0
 15 14  2  0  0  0  0
 16 11  2  0  0  0  0
 18 21  1  0  0  0  0
 18 19  1  0  0  0  0
 18 20  1  0  0  0  0
 22 23  1  0  0  0  0
 23 24  1  0  0  0  0
 25 23  1  0  0  0  0
 26 23  1  0  0  0  0
 27  7  1  0  0  0  0
 27 29  1  0  0  0  0
 28 27  1  0  0  0  0
 30 27  1  0  0  0  0
 30 31  1  0  0  0  0
 32 31  1  0  0  0  0
 33 32  1  0  0  0  0
 34 33  1  0  0  0  0
 34 30  1  0  0  0  0
M  END
>  <minimizedAffinity>
-6.54331112

$$$$

 OpenBabel03252504193D

 34 36  0  0  0  0  0  0  0  0999 V2000
   33.9330   29.2180   39.0600 F   0  0  0  0  0  0  0  0  0  0  0  0
   34.5670   29.2140   37.8330 C   0  0  0  0  0  0  0  0  0  0  0  0
   35.9380   29.3800   37.7690 C   0  0  0  0  0  0  0  0  0  0  0  0
   36.4980   29.3630   36.5080 C   0  0  0  0  0  0  0  0  0  0  0  0
   35.7350   29.1940   35.3860 C   0  0  0  0  0  0  0  0  0  0  0  0
   34.3580   29.0320   35.5080 C   0  0  0  0  0  0  0  0  0  0  0  0
   33.7400   29.0390   36.7600 C   0  0  0  0  0  0  0  0  0  0  0  0
   37.5500   29.4850   36.3720 H   0  0  0  0  0  0  0  0  0  0  0  0
   36.1480   29.1780   34.3970 H   0  0  0  0  0  0  0  0  0  0  0  0
   33.6880   28.8910   34.6570 H   0  0  0  0  0  0  0  0  0  0  0  0
   37.7670   28.5830   40.8380 C   0  0  0  0  0  0  0  0  0  0  0  0
   38.2460   29.8240   41.2550 C   0  0  0  0  0  0  0  0  0  0  0  0
   37.9360   30.9400   40.4720 C   0  0  0  0  0  0  0  0  0  0  0  0
   37.1960   30.7840   39.3570 N   0  0  0  0  0  0  0  0  0  0  0  0
   36.7430   29.5610   38.9780 C   0  0  0  0  0  0  0  0  0  0  0  0
   37.0280   28.4720   39.7130 N   0  0  0  0  0  0  0  0  0  0  0  0
   38.2980   31.9130   40.7770 H   0  0  0  0  0  0  0  0  0  0  0  0
   39.0510   29.9080   42.4870 C   0  0  0  0  0  0  0  0  0  0  0  0
   40.1530   29.0840   42.3980 F   0  0  0  0  0  0  0  0  0  0  0  0
   39.5350   31.2200   42.5920 F   0  0  0  0  0  0  0  0  0  0  0  0
   38.3810   29.6210   43.6300 F   0  0  0  0  0  0  0  0  0  0  0  0
   38.0650   27.5020   41.5930 O   0  0  0  0  0  0  0  0  0  0  0  0
   37.2330   26.8760   42.5370 C   0  0  0  0  0  0  0  0  0  0  0  0
   38.0060   26.6510   43.6790 F   0  0  0  0  0  0  0  0  0  0  0  0
   36.1410   27.6520   42.7780 F   0  0  0  0  0  0  0  0  0  0  0  0
   36.8840   25.6210   42.0860 F   0  0  0  0  0  0  0  0  0  0  0  0
   32.2610   28.8670   36.9160 C   0  0  0  0  0  0  0  0  0  0  0  0
   31.7860   28.3710   36.0540 H   0  0  0  0  0  0  0  0  0  0  0  0
   32.1010   28.2470   37.8310 H   0  0  0  0  0  0  0  0  0  0  0  0
   31.6400   30.2230   37.1920 C   0  0  0  0  0  3  0  0  0  0  0  0
   30.4220   30.0960   38.0860 C   0  0  0  0  0  2  0  0  0  0  0  0
   29.7530   31.4520   37.8930 C   0  0  0  0  0  2  0  0  0  0  0  0
   30.0790   31.8860   36.4950 C   0  0  0  0  0  2  0  0  0  0  0  0
   30.9870   30.7810   35.9360 C   0  0  0  0  0  2  0  0  0  0  0  0
  2  1  1  0  0  0  0
  3  2  1  0  0  0  0
  3 15  1  0  0  0  0
  4  3  2  0  0  0  0
  5  6  2  0  0  0  0
  5  4  1  0  0  0  0
  6  7  1  0  0  0  0
  7 27  1  0  0  0  0
  7  2  2  0  0  0  0
  8  4  1  0  0  0  0
  9  5  1  0  0  0  0
 10  6  1  0  0  0  0
 11 12  1  0  0  0  0
 11 22  1  0  0  0  0
 12 18  1  0  0  0  0
 13 17  1  0  0  0  0
 13 12  2  0  0  0  0
 14 13  1  0  0  0  0
 15 14  2  0  0  0  0
 15 16  1  0  0  0  0
 16 11  2  0  0  0  0
 18 20  1  0  0  0  0
 18 21  1  0  0  0  0
 19 18  1  0  0  0  0
 22 23  1  0  0  0  0
 23 25  1  0  0  0  0
 23 24  1  0  0  0  0
 26 23  1  0  0  0  0
 27 30  1  0  0  0  0
 27 29  1  0  0  0  0
 28 27  1  0  0  0  0
 30 31  1  0  0  0  0
 32 31  1  0  0  0  0
 33 32  1  0  0  0  0
 34 33  1  0  0  0  0
 34 30  1  0  0  0  0
M  END
>  <minimizedAffinity>
-6.25858402

$$$$

 OpenBabel03252504193D

 34 36  0  0  0  0  0  0  0  0999 V2000
   33.2230   28.8230   38.6490 F   0  0  0  0  0  0  0  0  0  0  0  0
   34.0160   28.9160   37.5230 C   0  0  0  0  0  0  0  0  0  0  0  0
   35.3910   28.8370   37.6430 C   0  0  0  0  0  0  0  0  0  0  0  0
   36.1140   28.9370   36.4720 C   0  0  0  0  0  0  0  0  0  0  0  0
   35.5010   29.1070   35.2620 C   0  0  0  0  0  0  0  0  0  0  0  0
   34.1130   29.1810   35.1980 C   0  0  0  0  0  0  0  0  0  0  0  0
   33.3320   29.0840   36.3520 C   0  0  0  0  0  0  0  0  0  0  0  0
   37.1810   28.8860   36.4790 H   0  0  0  0  0  0  0  0  0  0  0  0
   36.0420   29.1880   34.3400 H   0  0  0  0  0  0  0  0  0  0  0  0
   33.5570   29.3150   34.2680 H   0  0  0  0  0  0  0  0  0  0  0  0
   37.0850   29.6390   40.7870 C   0  0  0  0  0  0  0  0  0  0  0  0
   37.2510   28.3920   41.3880 C   0  0  0  0  0  0  0  0  0  0  0  0
   36.7740   27.2690   40.7040 C   0  0  0  0  0  0  0  0  0  0  0  0
   36.1800   27.4260   39.5050 N   0  0  0  0  0  0  0  0  0  0  0  0
   36.0340   28.6550   38.9450 C   0  0  0  0  0  0  0  0  0  0  0  0
   36.4840   29.7500   39.5840 N   0  0  0  0  0  0  0  0  0  0  0  0
   36.8910   26.2920   41.1510 H   0  0  0  0  0  0  0  0  0  0  0  0
   37.9110   28.3080   42.7030 C   0  0  0  0  0  0  0  0  0  0  0  0
   37.8700   27.0140   43.1790 F   0  0  0  0  0  0  0  0  0  0  0  0
   39.2640   28.6290   42.5220 F   0  0  0  0  0  0  0  0  0  0  0  0
   37.4120   29.1380   43.6500 F   0  0  0  0  0  0  0  0  0  0  0  0
   37.5450   30.7260   41.4460 O   0  0  0  0  0  0  0  0  0  0  0  0
   38.6150   31.5550   41.0650 C   0  0  0  0  0  0  0  0  0  0  0  0
   38.0600   32.7430   40.5810 F   0  0  0  0  0  0  0  0  0  0  0  0
   39.4480   31.7490   42.1240 F   0  0  0  0  0  0  0  0  0  0  0  0
   39.2700   30.9990   39.9880 F   0  0  0  0  0  0  0  0  0  0  0  0
   31.8380   29.1600   36.3080 C   0  0  0  0  0  0  0  0  0  0  0  0
   31.4130   28.8490   35.3400 H   0  0  0  0  0  0  0  0  0  0  0  0
   31.4540   28.4860   37.1120 H   0  0  0  0  0  0  0  0  0  0  0  0
   31.4130   30.5680   36.6780 C   0  0  0  0  0  3  0  0  0  0  0  0
   30.4200   30.5580   37.8250 C   0  0  0  0  0  2  0  0  0  0  0  0
   29.8430   31.9660   37.7480 C   0  0  0  0  0  2  0  0  0  0  0  0
   29.8810   32.3580   36.3020 C   0  0  0  0  0  2  0  0  0  0  0  0
   30.5430   31.1730   35.5850 C   0  0  0  0  0  2  0  0  0  0  0  0
  2  3  1  0  0  0  0
  2  1  1  0  0  0  0
  3 15  1  0  0  0  0
  4  8  1  0  0  0  0
  4  3  2  0  0  0  0
  5  4  1  0  0  0  0
  6  5  2  0  0  0  0
  6  7  1  0  0  0  0
  7  2  2  0  0  0  0
  9  5  1  0  0  0  0
 10  6  1  0  0  0  0
 11 12  1  0  0  0  0
 11 22  1  0  0  0  0
 12 18  1  0  0  0  0
 13 17  1  0  0  0  0
 13 12  2  0  0  0  0
 14 13  1  0  0  0  0
 15 14  2  0  0  0  0
 15 16  1  0  0  0  0
 16 11  2  0  0  0  0
 18 19  1  0  0  0  0
 18 21  1  0  0  0  0
 20 18  1  0  0  0  0
 23 22  1  0  0  0  0
 23 25  1  0  0  0  0
 24 23  1  0  0  0  0
 26 23  1  0  0  0  0
 27  7  1  0  0  0  0
 27 30  1  0  0  0  0
 27 29  1  0  0  0  0
 28 27  1  0  0  0  0
 30 31  1  0  0  0  0
 32 31  1  0  0  0  0
 33 32  1  0  0  0  0
 34 33  1  0  0  0  0
 34 30  1  0  0  0  0
M  END
>  <minimizedAffinity>
-6.10941792

$$$$

 OpenBabel03252504193D

 34 36  0  0  0  0  0  0  0  0999 V2000
   33.5610   27.9430   37.7000 F   0  0  0  0  0  0  0  0  0  0  0  0
   34.5860   28.3960   36.8940 C   0  0  0  0  0  0  0  0  0  0  0  0
   35.8940   28.2980   37.3260 C   0  0  0  0  0  0  0  0  0  0  0  0
   36.8610   28.7720   36.4630 C   0  0  0  0  0  0  0  0  0  0  0  0
   36.5380   29.3110   35.2490 C   0  0  0  0  0  0  0  0  0  0  0  0
   35.2030   29.3870   34.8630 C   0  0  0  0  0  0  0  0  0  0  0  0
   34.1850   28.9210   35.6970 C   0  0  0  0  0  0  0  0  0  0  0  0
   37.8970   28.7320   36.7230 H   0  0  0  0  0  0  0  0  0  0  0  0
   37.2720   29.6860   34.5630 H   0  0  0  0  0  0  0  0  0  0  0  0
   34.8720   29.8040   33.9090 H   0  0  0  0  0  0  0  0  0  0  0  0
   36.7630   28.0790   40.8760 C   0  0  0  0  0  0  0  0  0  0  0  0
   36.8540   26.7060   41.0980 C   0  0  0  0  0  0  0  0  0  0  0  0
   36.6140   25.8520   40.0160 C   0  0  0  0  0  0  0  0  0  0  0  0
   36.3070   26.3750   38.8130 N   0  0  0  0  0  0  0  0  0  0  0  0
   36.2270   27.7190   38.6280 C   0  0  0  0  0  0  0  0  0  0  0  0
   36.4520   28.5610   39.6530 N   0  0  0  0  0  0  0  0  0  0  0  0
   36.6790   24.7830   40.1660 H   0  0  0  0  0  0  0  0  0  0  0  0
   37.1940   26.2150   42.4450 C   0  0  0  0  0  0  0  0  0  0  0  0
   36.3650   26.7880   43.3880 F   0  0  0  0  0  0  0  0  0  0  0  0
   36.9450   24.8360   42.4730 F   0  0  0  0  0  0  0  0  0  0  0  0
   38.4820   26.4110   42.8190 F   0  0  0  0  0  0  0  0  0  0  0  0
   36.9940   28.9070   41.9190 O   0  0  0  0  0  0  0  0  0  0  0  0
   38.1650   29.6430   42.1700 C   0  0  0  0  0  0  0  0  0  0  0  0
   37.9750   30.9150   41.6230 F   0  0  0  0  0  0  0  0  0  0  0  0
   38.4160   29.6700   43.5070 F   0  0  0  0  0  0  0  0  0  0  0  0
   39.2140   29.1000   41.4600 F   0  0  0  0  0  0  0  0  0  0  0  0
   32.7420   28.9920   35.3040 C   0  0  0  0  0  0  0  0  0  0  0  0
   32.5560   28.6760   34.2650 H   0  0  0  0  0  0  0  0  0  0  0  0
   32.1820   28.3200   35.9980 H   0  0  0  0  0  0  0  0  0  0  0  0
   32.2380   30.4000   35.5580 C   0  0  0  0  0  3  0  0  0  0  0  0
   31.0700   30.3980   36.5260 C   0  0  0  0  0  2  0  0  0  0  0  0
   30.4900   31.7920   36.3140 C   0  0  0  0  0  2  0  0  0  0  0  0
   30.7610   32.1470   34.8830 C   0  0  0  0  0  2  0  0  0  0  0  0
   31.5510   30.9570   34.3190 C   0  0  0  0  0  2  0  0  0  0  0  0
  2  3  1  0  0  0  0
  2  1  1  0  0  0  0
  3 15  1  0  0  0  0
  4  8  1  0  0  0  0
  4  3  2  0  0  0  0
  5  4  1  0  0  0  0
  6  5  2  0  0  0  0
  6  7  1  0  0  0  0
  7  2  2  0  0  0  0
  9  5  1  0  0  0  0
 10  6  1  0  0  0  0
 11 12  1  0  0  0  0
 11 22  1  0  0  0  0
 12 18  1  0  0  0  0
 13 17  1  0  0  0  0
 13 12  2  0  0  0  0
 14 13  1  0  0  0  0
 15 14  2  0  0  0  0
 15 16  1  0  0  0  0
 16 11  2  0  0  0  0
 18 20  1  0  0  0  0
 18 21  1  0  0  0  0
 18 19  1  0  0  0  0
 22 23  1  0  0  0  0
 23 25  1  0  0  0  0
 24 23  1  0  0  0  0
 26 23  1  0  0  0  0
 27 30  1  0  0  0  0
 27  7  1  0  0  0  0
 27 29  1  0  0  0  0
 28 27  1  0  0  0  0
 30 31  1  0  0  0  0
 32 31  1  0  0  0  0
 33 32  1  0  0  0  0
 34 33  1  0  0  0  0
 34 30  1  0  0  0  0
M  END
>  <minimizedAffinity>
-6.01224899

$$$$

 OpenBabel03252504193D

 34 36  0  0  0  0  0  0  0  0999 V2000
   39.4200   27.0330   40.7410 F   0  0  0  0  0  0  0  0  0  0  0  0
   38.4330   27.1410   41.7010 C   0  0  0  0  0  0  0  0  0  0  0  0
   38.1470   28.3730   42.2570 C   0  0  0  0  0  0  0  0  0  0  0  0
   37.1480   28.3990   43.2080 C   0  0  0  0  0  0  0  0  0  0  0  0
   36.4820   27.2640   43.5800 C   0  0  0  0  0  0  0  0  0  0  0  0
   36.8110   26.0480   42.9900 C   0  0  0  0  0  0  0  0  0  0  0  0
   37.8120   25.9650   42.0200 C   0  0  0  0  0  0  0  0  0  0  0  0
   36.8670   29.3120   43.6850 H   0  0  0  0  0  0  0  0  0  0  0  0
   35.7030   27.2600   44.3170 H   0  0  0  0  0  0  0  0  0  0  0  0
   36.3210   25.1030   43.2370 H   0  0  0  0  0  0  0  0  0  0  0  0
   39.0860   31.3340   40.3190 C   0  0  0  0  0  0  0  0  0  0  0  0
   40.1710   31.8480   41.0270 C   0  0  0  0  0  0  0  0  0  0  0  0
   40.5800   31.1680   42.1790 C   0  0  0  0  0  0  0  0  0  0  0  0
   39.9220   30.0570   42.5620 N   0  0  0  0  0  0  0  0  0  0  0  0
   38.8680   29.5800   41.8500 C   0  0  0  0  0  0  0  0  0  0  0  0
   38.4550   30.2160   40.7380 N   0  0  0  0  0  0  0  0  0  0  0  0
   41.4190   31.5500   42.7430 H   0  0  0  0  0  0  0  0  0  0  0  0
   40.8350   33.0700   40.5400 C   0  0  0  0  0  0  0  0  0  0  0  0
   40.0040   34.1600   40.6930 F   0  0  0  0  0  0  0  0  0  0  0  0
   41.9560   33.2990   41.3510 F   0  0  0  0  0  0  0  0  0  0  0  0
   41.2580   33.0200   39.2540 F   0  0  0  0  0  0  0  0  0  0  0  0
   38.6880   31.9880   39.2040 O   0  0  0  0  0  0  0  0  0  0  0  0
   37.4160   32.5310   38.9530 C   0  0  0  0  0  0  0  0  0  0  0  0
   37.3690   33.7750   39.5880 F   0  0  0  0  0  0  0  0  0  0  0  0
   37.2050   32.6110   37.6100 F   0  0  0  0  0  0  0  0  0  0  0  0
   36.4550   31.7690   39.5810 F   0  0  0  0  0  0  0  0  0  0  0  0
   38.1840   24.6690   41.3710 C   0  0  0  0  0  0  0  0  0  0  0  0
   38.9990   24.7660   40.6360 H   0  0  0  0  0  0  0  0  0  0  0  0
   38.5050   23.9770   42.1870 H   0  0  0  0  0  0  0  0  0  0  0  0
   36.9410   24.0630   40.7480 C   0  0  0  0  0  3  0  0  0  0  0  0
   37.2560   22.7480   40.0620 C   0  0  0  0  0  2  0  0  0  0  0  0
   36.0180   22.5460   39.1950 C   0  0  0  0  0  2  0  0  0  0  0  0
   35.5360   23.9160   38.8250 C   0  0  0  0  0  2  0  0  0  0  0  0
   36.4870   24.8820   39.5480 C   0  0  0  0  0  2  0  0  0  0  0  0
  1  2  1  0  0  0  0
  2  7  2  0  0  0  0
  2  3  1  0  0  0  0
  3  4  2  0  0  0  0
  4  5  1  0  0  0  0
  4  8  1  0  0  0  0
  5  9  1  0  0  0  0
  6 10  1  0  0  0  0
  6  5  2  0  0  0  0
  7  6  1  0  0  0  0
 11 16  2  0  0  0  0
 11 12  1  0  0  0  0
 12 13  2  0  0  0  0
 13 14  1  0  0  0  0
 13 17  1  0  0  0  0
 15  3  1  0  0  0  0
 15 14  2  0  0  0  0
 16 15  1  0  0  0  0
 18 19  1  0  0  0  0
 18 12  1  0  0  0  0
 18 20  1  0  0  0  0
 21 18  1  0  0  0  0
 22 11  1  0  0  0  0
 23 22  1  0  0  0  0
 23 26  1  0  0  0  0
 23 24  1  0  0  0  0
 25 23  1  0  0  0  0
 27  7  1  0  0  0  0
 27 29  1  0  0  0  0
 28 27  1  0  0  0  0
 30 27  1  0  0  0  0
 31 30  1  0  0  0  0
 32 31  1  0  0  0  0
 33 32  1  0  0  0  0
 33 34  1  0  0  0  0
 34 30  1  0  0  0  0
M  END
>  <minimizedAffinity>
-5.92963362

$$$$

 OpenBabel03252504193D

 34 36  0  0  0  0  0  0  0  0999 V2000
   37.8670   27.6640   40.4920 F   0  0  0  0  0  0  0  0  0  0  0  0
   38.7420   27.5640   41.5540 C   0  0  0  0  0  0  0  0  0  0  0  0
   39.8320   28.4110   41.6290 C   0  0  0  0  0  0  0  0  0  0  0  0
   40.6600   28.2500   42.7210 C   0  0  0  0  0  0  0  0  0  0  0  0
   40.4130   27.3020   43.6740 C   0  0  0  0  0  0  0  0  0  0  0  0
   39.3010   26.4740   43.5500 C   0  0  0  0  0  0  0  0  0  0  0  0
   38.4300   26.5950   42.4660 C   0  0  0  0  0  0  0  0  0  0  0  0
   41.5230   28.8650   42.8520 H   0  0  0  0  0  0  0  0  0  0  0  0
   41.0420   27.1580   44.5310 H   0  0  0  0  0  0  0  0  0  0  0  0
   39.0430   25.6960   44.2730 H   0  0  0  0  0  0  0  0  0  0  0  0
   39.4880   31.4750   39.6550 C   0  0  0  0  0  0  0  0  0  0  0  0
   40.4990   31.3580   38.7030 C   0  0  0  0  0  0  0  0  0  0  0  0
   41.3040   30.2140   38.7440 C   0  0  0  0  0  0  0  0  0  0  0  0
   41.0800   29.2780   39.6870 N   0  0  0  0  0  0  0  0  0  0  0  0
   40.0850   29.4220   40.6010 C   0  0  0  0  0  0  0  0  0  0  0  0
   39.2970   30.5120   40.5830 N   0  0  0  0  0  0  0  0  0  0  0  0
   42.0950   30.1030   38.0160 H   0  0  0  0  0  0  0  0  0  0  0  0
   40.6790   32.4280   37.7070 C   0  0  0  0  0  0  0  0  0  0  0  0
   40.8700   33.6410   38.3350 F   0  0  0  0  0  0  0  0  0  0  0  0
   41.8540   32.1530   36.9920 F   0  0  0  0  0  0  0  0  0  0  0  0
   39.6700   32.5530   36.8110 F   0  0  0  0  0  0  0  0  0  0  0  0
   38.7080   32.5790   39.6190 O   0  0  0  0  0  0  0  0  0  0  0  0
   37.3300   32.6310   39.3420 C   0  0  0  0  0  0  0  0  0  0  0  0
   36.6680   32.1280   40.4660 F   0  0  0  0  0  0  0  0  0  0  0  0
   36.9680   33.9070   39.0380 F   0  0  0  0  0  0  0  0  0  0  0  0
   37.0290   31.7530   38.3240 F   0  0  0  0  0  0  0  0  0  0  0  0
   37.2280   25.7160   42.3110 C   0  0  0  0  0  0  0  0  0  0  0  0
   36.9790   25.1520   43.2250 H   0  0  0  0  0  0  0  0  0  0  0  0
   36.3710   26.3810   42.0440 H   0  0  0  0  0  0  0  0  0  0  0  0
   37.4500   24.7930   41.1280 C   0  0  0  0  0  3  0  0  0  0  0  0
   36.1890   24.0220   40.7900 C   0  0  0  0  0  2  0  0  0  0  0  0
   36.7340   22.9130   39.8970 C   0  0  0  0  0  2  0  0  0  0  0  0
   38.1260   22.6320   40.3770 C   0  0  0  0  0  2  0  0  0  0  0  0
   38.3680   23.6400   41.5090 C   0  0  0  0  0  2  0  0  0  0  0  0
  1  2  1  0  0  0  0
  2  3  2  0  0  0  0
  2  7  1  0  0  0  0
  3  4  1  0  0  0  0
  4  8  1  0  0  0  0
  4  5  2  0  0  0  0
  5  9  1  0  0  0  0
  6  5  1  0  0  0  0
  6 10  1  0  0  0  0
  7  6  2  0  0  0  0
 11 16  1  0  0  0  0
 12 13  1  0  0  0  0
 12 11  2  0  0  0  0
 13 14  2  0  0  0  0
 14 15  1  0  0  0  0
 15  3  1  0  0  0  0
 16 15  2  0  0  0  0
 17 13  1  0  0  0  0
 18 19  1  0  0  0  0
 18 12  1  0  0  0  0
 20 18  1  0  0  0  0
 21 18  1  0  0  0  0
 22 11  1  0  0  0  0
 23 22  1  0  0  0  0
 23 24  1  0  0  0  0
 25 23  1  0  0  0  0
 26 23  1  0  0  0  0
 27  7  1  0  0  0  0
 27 28  1  0  0  0  0
 29 27  1  0  0  0  0
 30 34  1  0  0  0  0
 30 27  1  0  0  0  0
 31 30  1  0  0  0  0
 32 33  1  0  0  0  0
 32 31  1  0  0  0  0
 33 34  1  0  0  0  0
M  END
>  <minimizedAffinity>
-5.82575655

$$$$

 OpenBabel03252504193D

 34 36  0  0  0  0  0  0  0  0999 V2000
   36.9460   27.2180   41.2110 F   0  0  0  0  0  0  0  0  0  0  0  0
   38.1100   26.8110   41.8310 C   0  0  0  0  0  0  0  0  0  0  0  0
   39.1400   27.7130   42.0170 C   0  0  0  0  0  0  0  0  0  0  0  0
   40.2700   27.2310   42.6450 C   0  0  0  0  0  0  0  0  0  0  0  0
   40.3630   25.9310   43.0570 C   0  0  0  0  0  0  0  0  0  0  0  0
   39.2960   25.0630   42.8430 C   0  0  0  0  0  0  0  0  0  0  0  0
   38.1280   25.4990   42.2140 C   0  0  0  0  0  0  0  0  0  0  0  0
   41.1110   27.8640   42.8270 H   0  0  0  0  0  0  0  0  0  0  0  0
   41.2310   25.5340   43.5460 H   0  0  0  0  0  0  0  0  0  0  0  0
   39.3000   24.0130   43.1450 H   0  0  0  0  0  0  0  0  0  0  0  0
   38.8110   30.5970   39.7860 C   0  0  0  0  0  0  0  0  0  0  0  0
   38.8140   31.6810   40.6630 C   0  0  0  0  0  0  0  0  0  0  0  0
   38.9300   31.4140   42.0310 C   0  0  0  0  0  0  0  0  0  0  0  0
   39.0340   30.1380   42.4520 N   0  0  0  0  0  0  0  0  0  0  0  0
   39.0280   29.1030   41.5720 C   0  0  0  0  0  0  0  0  0  0  0  0
   38.9170   29.3330   40.2510 N   0  0  0  0  0  0  0  0  0  0  0  0
   38.9350   32.2400   42.7290 H   0  0  0  0  0  0  0  0  0  0  0  0
   38.6950   33.0460   40.1210 C   0  0  0  0  0  0  0  0  0  0  0  0
   37.4130   33.2710   39.6640 F   0  0  0  0  0  0  0  0  0  0  0  0
   38.9130   33.9450   41.1750 F   0  0  0  0  0  0  0  0  0  0  0  0
   39.5710   33.3490   39.1320 F   0  0  0  0  0  0  0  0  0  0  0  0
   38.6980   30.8510   38.4630 O   0  0  0  0  0  0  0  0  0  0  0  0
   37.5420   30.7220   37.6730 C   0  0  0  0  0  0  0  0  0  0  0  0
   36.4590   30.6050   38.5490 F   0  0  0  0  0  0  0  0  0  0  0  0
   37.4360   31.7870   36.8330 F   0  0  0  0  0  0  0  0  0  0  0  0
   37.5820   29.5270   36.9880 F   0  0  0  0  0  0  0  0  0  0  0  0
   36.9680   24.5850   41.9730 C   0  0  0  0  0  0  0  0  0  0  0  0
   36.8900   23.7730   42.7140 H   0  0  0  0  0  0  0  0  0  0  0  0
   36.0450   25.2130   42.0180 H   0  0  0  0  0  0  0  0  0  0  0  0
   37.0600   24.0440   40.5590 C   0  0  0  0  0  3  0  0  0  0  0  0
   35.6970   23.6280   40.0400 C   0  0  0  0  0  2  0  0  0  0  0  0
   36.0720   22.7720   38.8360 C   0  0  0  0  0  2  0  0  0  0  0  0
   37.3890   22.1360   39.1650 C   0  0  0  0  0  2  0  0  0  0  0  0
   37.7690   22.6980   40.5430 C   0  0  0  0  0  2  0  0  0  0  0  0
  1  2  1  0  0  0  0
  2  3  2  0  0  0  0
  2  7  1  0  0  0  0
  3  4  1  0  0  0  0
  4  8  1  0  0  0  0
  4  5  2  0  0  0  0
  5  9  1  0  0  0  0
  6  5  1  0  0  0  0
  6 10  1  0  0  0  0
  7  6  2  0  0  0  0
 11 16  2  0  0  0  0
 11 12  1  0  0  0  0
 12 13  2  0  0  0  0
 13 14  1  0  0  0  0
 13 17  1  0  0  0  0
 15  3  1  0  0  0  0
 15 14  2  0  0  0  0
 16 15  1  0  0  0  0
 18 12  1  0  0  0  0
 18 20  1  0  0  0  0
 19 18  1  0  0  0  0
 21 18  1  0  0  0  0
 22 11  1  0  0  0  0
 23 22  1  0  0  0  0
 23 24  1  0  0  0  0
 25 23  1  0  0  0  0
 26 23  1  0  0  0  0
 27 29  1  0  0  0  0
 27  7  1  0  0  0  0
 27 28  1  0  0  0  0
 30 27  1  0  0  0  0
 31 30  1  0  0  0  0
 32 33  1  0  0  0  0
 32 31  1  0  0  0  0
 33 34  1  0  0  0  0
 34 30  1  0  0  0  0
M  END
>  <minimizedAffinity>
-5.7317934

$$$$

 OpenBabel03252504193D

 34 36  0  0  0  0  0  0  0  0999 V2000
   39.2160   29.0320   42.1350 F   0  0  0  0  0  0  0  0  0  0  0  0
   38.0810   29.4090   41.4460 C   0  0  0  0  0  0  0  0  0  0  0  0
   38.1330   30.4720   40.5660 C   0  0  0  0  0  0  0  0  0  0  0  0
   36.9570   30.7870   39.9160 C   0  0  0  0  0  0  0  0  0  0  0  0
   35.8060   30.0840   40.1350 C   0  0  0  0  0  0  0  0  0  0  0  0
   35.8080   29.0210   41.0330 C   0  0  0  0  0  0  0  0  0  0  0  0
   36.9700   28.6590   41.7170 C   0  0  0  0  0  0  0  0  0  0  0  0
   36.9140   31.5960   39.2190 H   0  0  0  0  0  0  0  0  0  0  0  0
   34.8810   30.3100   39.6410 H   0  0  0  0  0  0  0  0  0  0  0  0
   34.9260   28.4160   41.2570 H   0  0  0  0  0  0  0  0  0  0  0  0
   41.3920   31.3930   39.1760 C   0  0  0  0  0  0  0  0  0  0  0  0
   41.7150   32.5600   39.8660 C   0  0  0  0  0  0  0  0  0  0  0  0
   40.8030   33.0310   40.8160 C   0  0  0  0  0  0  0  0  0  0  0  0
   39.6580   32.3530   41.0300 N   0  0  0  0  0  0  0  0  0  0  0  0
   39.3730   31.2170   40.3410 C   0  0  0  0  0  0  0  0  0  0  0  0
   40.2340   30.7440   39.4220 N   0  0  0  0  0  0  0  0  0  0  0  0
   41.0330   33.9350   41.3620 H   0  0  0  0  0  0  0  0  0  0  0  0
   42.9880   33.2430   39.5710 C   0  0  0  0  0  0  0  0  0  0  0  0
   42.8730   33.9960   38.4220 F   0  0  0  0  0  0  0  0  0  0  0  0
   43.2440   34.1400   40.6180 F   0  0  0  0  0  0  0  0  0  0  0  0
   44.0630   32.4260   39.4530 F   0  0  0  0  0  0  0  0  0  0  0  0
   42.2720   30.9350   38.2580 O   0  0  0  0  0  0  0  0  0  0  0  0
   42.2570   31.1870   36.8750 C   0  0  0  0  0  0  0  0  0  0  0  0
   42.0460   29.9620   36.2370 F   0  0  0  0  0  0  0  0  0  0  0  0
   41.3010   32.1110   36.5830 F   0  0  0  0  0  0  0  0  0  0  0  0
   43.5090   31.5950   36.4660 F   0  0  0  0  0  0  0  0  0  0  0  0
   36.9980   27.5200   42.6880 C   0  0  0  0  0  0  0  0  0  0  0  0
   37.5650   27.7430   43.6060 H   0  0  0  0  0  0  0  0  0  0  0  0
   35.9370   27.2970   42.9570 H   0  0  0  0  0  0  0  0  0  0  0  0
   37.5380   26.2920   41.9820 C   0  0  0  0  0  3  0  0  0  0  0  0
   36.6820   25.0730   42.2690 C   0  0  0  0  0  2  0  0  0  0  0  0
   37.6010   23.9390   41.8300 C   0  0  0  0  0  2  0  0  0  0  0  0
   39.0010   24.4100   42.0810 C   0  0  0  0  0  2  0  0  0  0  0  0
   38.8500   25.8440   42.6100 C   0  0  0  0  0  2  0  0  0  0  0  0
  2  7  1  0  0  0  0
  2  1  1  0  0  0  0
  3  2  2  0  0  0  0
  4  5  2  0  0  0  0
  4  3  1  0  0  0  0
  5  6  1  0  0  0  0
  6 10  1  0  0  0  0
  6  7  2  0  0  0  0
  7 27  1  0  0  0  0
  8  4  1  0  0  0  0
  9  5  1  0  0  0  0
 11 16  2  0  0  0  0
 11 12  1  0  0  0  0
 12 13  2  0  0  0  0
 13 14  1  0  0  0  0
 13 17  1  0  0  0  0
 15  3  1  0  0  0  0
 15 14  2  0  0  0  0
 16 15  1  0  0  0  0
 18 12  1  0  0  0  0
 18 20  1  0  0  0  0
 19 18  1  0  0  0  0
 21 18  1  0  0  0  0
 22 11  1  0  0  0  0
 23 22  1  0  0  0  0
 24 23  1  0  0  0  0
 25 23  1  0  0  0  0
 26 23  1  0  0  0  0
 27 29  1  0  0  0  0
 27 28  1  0  0  0  0
 30 31  1  0  0  0  0
 30 34  1  0  0  0  0
 30 27  1  0  0  0  0
 32 33  1  0  0  0  0
 32 31  1  0  0  0  0
 33 34  1  0  0  0  0
M  END
>  <minimizedAffinity>
-5.70086241

$$$$

 OpenBabel03252504193D

 34 36  0  0  0  0  0  0  0  0999 V2000
   36.2080   28.0570   40.8630 F   0  0  0  0  0  0  0  0  0  0  0  0
   36.6610   26.7530   40.8780 C   0  0  0  0  0  0  0  0  0  0  0  0
   36.7480   26.0430   39.6960 C   0  0  0  0  0  0  0  0  0  0  0  0
   37.2110   24.7470   39.7920 C   0  0  0  0  0  0  0  0  0  0  0  0
   37.5620   24.1980   40.9950 C   0  0  0  0  0  0  0  0  0  0  0  0
   37.4540   24.9580   42.1560 C   0  0  0  0  0  0  0  0  0  0  0  0
   36.9930   26.2750   42.1150 C   0  0  0  0  0  0  0  0  0  0  0  0
   37.3070   24.1310   38.9250 H   0  0  0  0  0  0  0  0  0  0  0  0
   37.9240   23.1940   41.0940 H   0  0  0  0  0  0  0  0  0  0  0  0
   37.7170   24.5850   43.1490 H   0  0  0  0  0  0  0  0  0  0  0  0
   36.7140   28.3400   36.8450 C   0  0  0  0  0  0  0  0  0  0  0  0
   35.7120   27.8200   36.0280 C   0  0  0  0  0  0  0  0  0  0  0  0
   35.0460   26.6700   36.4630 C   0  0  0  0  0  0  0  0  0  0  0  0
   35.3880   26.1100   37.6400 N   0  0  0  0  0  0  0  0  0  0  0  0
   36.3690   26.6420   38.4150 C   0  0  0  0  0  0  0  0  0  0  0  0
   37.0250   27.7470   38.0180 N   0  0  0  0  0  0  0  0  0  0  0  0
   34.2650   26.2490   35.8450 H   0  0  0  0  0  0  0  0  0  0  0  0
   35.4000   28.4920   34.7540 C   0  0  0  0  0  0  0  0  0  0  0  0
   34.8820   29.7490   34.9890 F   0  0  0  0  0  0  0  0  0  0  0  0
   36.6060   28.6750   34.0620 F   0  0  0  0  0  0  0  0  0  0  0  0
   34.5540   27.8160   33.9410 F   0  0  0  0  0  0  0  0  0  0  0  0
   37.3600   29.4520   36.4280 O   0  0  0  0  0  0  0  0  0  0  0  0
   37.5110   30.6570   37.1350 C   0  0  0  0  0  0  0  0  0  0  0  0
   36.3830   30.8000   37.9480 F   0  0  0  0  0  0  0  0  0  0  0  0
   38.6760   30.6370   37.8390 F   0  0  0  0  0  0  0  0  0  0  0  0
   37.4580   31.7180   36.2570 F   0  0  0  0  0  0  0  0  0  0  0  0
   36.8690   27.1110   43.3490 C   0  0  0  0  0  0  0  0  0  0  0  0
   35.9880   27.7740   43.3410 H   0  0  0  0  0  0  0  0  0  0  0  0
   36.7900   26.4070   44.2130 H   0  0  0  0  0  0  0  0  0  0  0  0
   38.1540   27.8930   43.5390 C   0  0  0  0  0  3  0  0  0  0  0  0
   38.0240   29.3040   42.9980 C   0  0  0  0  0  2  0  0  0  0  0  0
   39.4820   29.7400   42.9150 C   0  0  0  0  0  2  0  0  0  0  0  0
   40.2770   28.5000   42.6360 C   0  0  0  0  0  2  0  0  0  0  0  0
   39.2480   27.3610   42.6230 C   0  0  0  0  0  2  0  0  0  0  0  0
  1  2  1  0  0  0  0
  2  7  1  0  0  0  0
  3  4  1  0  0  0  0
  3  2  2  0  0  0  0
  4  5  2  0  0  0  0
  5  9  1  0  0  0  0
  5  6  1  0  0  0  0
  6 10  1  0  0  0  0
  7  6  2  0  0  0  0
  7 27  1  0  0  0  0
  8  4  1  0  0  0  0
 11 16  1  0  0  0  0
 12 13  1  0  0  0  0
 12 11  2  0  0  0  0
 13 14  2  0  0  0  0
 14 15  1  0  0  0  0
 15  3  1  0  0  0  0
 16 15  2  0  0  0  0
 17 13  1  0  0  0  0
 18 19  1  0  0  0  0
 18 12  1  0  0  0  0
 20 18  1  0  0  0  0
 21 18  1  0  0  0  0
 22 11  1  0  0  0  0
 22 23  1  0  0  0  0
 23 25  1  0  0  0  0
 23 24  1  0  0  0  0
 26 23  1  0  0  0  0
 27 30  1  0  0  0  0
 27 29  1  0  0  0  0
 28 27  1  0  0  0  0
 31 30  1  0  0  0  0
 32 31  1  0  0  0  0
 33 32  1  0  0  0  0
 34 33  1  0  0  0  0
 34 30  1  0  0  0  0
M  END
>  <minimizedAffinity>
-5.63508368

$$$$
