
 OpenBabel03242523153D

 21 23  0  0  0  0  0  0  0  0999 V2000
   38.4060   30.2650   41.9630 C   0  0  0  0  0  0  0  0  0  0  0  0
   38.3800   31.3330   41.0560 C   0  0  0  0  0  0  0  0  0  0  0  0
   39.5610   32.0570   40.8930 C   0  0  0  0  0  0  0  0  0  0  0  0
   40.6700   31.6860   41.6250 N   0  0  0  0  0  0  0  0  0  0  0  0
   40.6440   30.6480   42.4910 C   0  0  0  0  0  0  0  0  0  0  0  0
   39.4900   29.9360   42.6540 N   0  0  0  0  0  0  0  0  0  0  0  0
   39.5820   32.8870   40.2000 H   0  0  0  0  0  0  0  0  0  0  0  0
   41.6010   30.5070   42.9740 H   0  0  0  0  0  0  0  0  0  0  0  0
   37.1400   31.7720   40.3600 C   0  0  0  0  0  0  0  0  0  0  0  0
   37.1700   32.5800   39.1840 C   0  0  0  0  0  0  0  0  0  0  0  0
   36.8370   31.1380   38.9720 C   0  0  0  0  0  0  0  0  0  0  0  0
   36.2280   31.4650   40.9510 H   0  0  0  0  0  0  0  0  0  0  0  0
   36.3200   33.3290   39.0440 H   0  0  0  0  0  0  0  0  0  0  0  0
   38.0090   32.8770   38.5270 H   0  0  0  0  0  0  0  0  0  0  0  0
   35.8070   30.9380   38.7060 H   0  0  0  0  0  0  0  0  0  0  0  0
   37.6380   30.4480   38.6510 H   0  0  0  0  0  0  0  0  0  0  0  0
   37.3620   29.2710   42.2210 C   0  0  0  0  0  3  0  0  0  0  0  0
   37.6260   28.0070   41.3320 C   0  0  0  0  0  2  0  0  0  0  0  0
   36.9500   26.9100   42.1360 C   0  0  0  0  0  2  0  0  0  0  0  0
   36.6900   27.4490   43.5150 C   0  0  0  0  0  2  0  0  0  0  0  0
   37.5570   28.6760   43.5660 C   0  0  0  0  0  2  0  0  0  0  0  0
  1 17  1  0  0  0  0
  1  6  1  0  0  0  0
  2  1  2  0  0  0  0
  3  2  1  0  0  0  0
  3  4  2  0  0  0  0
  4  5  1  0  0  0  0
  5  6  2  0  0  0  0
  5  8  1  0  0  0  0
  7  3  1  0  0  0  0
  9 12  1  0  0  0  0
  9  2  1  0  0  0  0
 10  9  1  0  0  0  0
 11 10  1  0  0  0  0
 11  9  1  0  0  0  0
 13 10  1  0  0  0  0
 14 10  1  0  0  0  0
 15 11  1  0  0  0  0
 16 11  1  0  0  0  0
 17 21  1  0  0  0  0
 18 19  1  0  0  0  0
 18 17  1  0  0  0  0
 19 20  1  0  0  0  0
 20 21  1  0  0  0  0
M  END
>  <minimizedAffinity>
-4.5619173

$$$$

 OpenBabel03242523153D

 21 23  0  0  0  0  0  0  0  0999 V2000
   37.0030   29.5060   40.2350 C   0  0  0  0  0  0  0  0  0  0  0  0
   36.9170   30.7010   39.5080 C   0  0  0  0  0  0  0  0  0  0  0  0
   36.9730   30.6050   38.1180 C   0  0  0  0  0  0  0  0  0  0  0  0
   37.1100   29.3570   37.5470 N   0  0  0  0  0  0  0  0  0  0  0  0
   37.1910   28.2310   38.2920 C   0  0  0  0  0  0  0  0  0  0  0  0
   37.1360   28.3200   39.6540 N   0  0  0  0  0  0  0  0  0  0  0  0
   36.9070   31.5050   37.5220 H   0  0  0  0  0  0  0  0  0  0  0  0
   37.2970   27.3500   37.6750 H   0  0  0  0  0  0  0  0  0  0  0  0
   36.8740   32.0400   40.1570 C   0  0  0  0  0  0  0  0  0  0  0  0
   38.0580   32.7420   40.5350 C   0  0  0  0  0  0  0  0  0  0  0  0
   37.3580   33.2570   39.3170 C   0  0  0  0  0  0  0  0  0  0  0  0
   35.8080   32.3340   40.3830 H   0  0  0  0  0  0  0  0  0  0  0  0
   38.0020   33.3920   41.4720 H   0  0  0  0  0  0  0  0  0  0  0  0
   39.1230   32.5480   40.3080 H   0  0  0  0  0  0  0  0  0  0  0  0
   36.8560   34.2070   39.4430 H   0  0  0  0  0  0  0  0  0  0  0  0
   37.7270   32.9490   38.3220 H   0  0  0  0  0  0  0  0  0  0  0  0
   36.8360   29.3100   41.6770 C   0  0  0  0  0  3  0  0  0  0  0  0
   36.3310   27.8490   41.9410 C   0  0  0  0  0  2  0  0  0  0  0  0
   36.8270   27.5940   43.3520 C   0  0  0  0  0  2  0  0  0  0  0  0
   37.8430   28.6540   43.6770 C   0  0  0  0  0  2  0  0  0  0  0  0
   38.1660   29.2350   42.3300 C   0  0  0  0  0  2  0  0  0  0  0  0
  1 17  1  0  0  0  0
  2  9  1  0  0  0  0
  2  1  2  0  0  0  0
  3  2  1  0  0  0  0
  4  3  2  0  0  0  0
  4  5  1  0  0  0  0
  5  6  2  0  0  0  0
  6  1  1  0  0  0  0
  7  3  1  0  0  0  0
  8  5  1  0  0  0  0
  9 12  1  0  0  0  0
  9 10  1  0  0  0  0
 10 13  1  0  0  0  0
 11 15  1  0  0  0  0
 11  9  1  0  0  0  0
 11 10  1  0  0  0  0
 14 10  1  0  0  0  0
 16 11  1  0  0  0  0
 17 18  1  0  0  0  0
 17 21  1  0  0  0  0
 18 19  1  0  0  0  0
 19 20  1  0  0  0  0
 21 20  1  0  0  0  0
M  END
>  <minimizedAffinity>
-4.32429743

$$$$

 OpenBabel03242523153D

 21 23  0  0  0  0  0  0  0  0999 V2000
   37.5650   29.5460   40.5910 C   0  0  0  0  0  0  0  0  0  0  0  0
   38.1270   29.0990   41.7950 C   0  0  0  0  0  0  0  0  0  0  0  0
   38.9940   29.9690   42.4540 C   0  0  0  0  0  0  0  0  0  0  0  0
   39.2460   31.2030   41.8900 N   0  0  0  0  0  0  0  0  0  0  0  0
   38.6810   31.5890   40.7240 C   0  0  0  0  0  0  0  0  0  0  0  0
   37.8310   30.7390   40.0750 N   0  0  0  0  0  0  0  0  0  0  0  0
   39.4450   29.6620   43.3870 H   0  0  0  0  0  0  0  0  0  0  0  0
   38.9950   32.5830   40.4360 H   0  0  0  0  0  0  0  0  0  0  0  0
   37.9160   27.7240   42.3230 C   0  0  0  0  0  0  0  0  0  0  0  0
   38.1940   27.3760   43.6790 C   0  0  0  0  0  0  0  0  0  0  0  0
   36.7470   27.5150   43.3290 C   0  0  0  0  0  0  0  0  0  0  0  0
   37.6210   27.0230   41.4880 H   0  0  0  0  0  0  0  0  0  0  0  0
   38.5740   26.3180   43.8790 H   0  0  0  0  0  0  0  0  0  0  0  0
   38.4350   28.0050   44.5570 H   0  0  0  0  0  0  0  0  0  0  0  0
   36.1900   26.5880   43.2930 H   0  0  0  0  0  0  0  0  0  0  0  0
   36.2320   28.4650   43.5630 H   0  0  0  0  0  0  0  0  0  0  0  0
   36.5340   28.8980   39.7780 C   0  0  0  0  0  3  0  0  0  0  0  0
   35.1270   29.1960   40.4010 C   0  0  0  0  0  2  0  0  0  0  0  0
   34.2150   29.0720   39.1930 C   0  0  0  0  0  2  0  0  0  0  0  0
   35.0800   29.0970   37.9640 C   0  0  0  0  0  2  0  0  0  0  0  0
   36.3920   29.6120   38.4860 C   0  0  0  0  0  2  0  0  0  0  0  0
  1  2  1  0  0  0  0
  2  9  1  0  0  0  0
  2  3  2  0  0  0  0
  3  7  1  0  0  0  0
  4  3  1  0  0  0  0
  5  4  2  0  0  0  0
  6  1  2  0  0  0  0
  6  5  1  0  0  0  0
  8  5  1  0  0  0  0
  9 11  1  0  0  0  0
  9 10  1  0  0  0  0
 10 13  1  0  0  0  0
 10 14  1  0  0  0  0
 11 16  1  0  0  0  0
 11 10  1  0  0  0  0
 12  9  1  0  0  0  0
 15 11  1  0  0  0  0
 17 18  1  0  0  0  0
 17  1  1  0  0  0  0
 19 18  1  0  0  0  0
 20 21  1  0  0  0  0
 20 19  1  0  0  0  0
 21 17  1  0  0  0  0
M  END
>  <minimizedAffinity>
-4.27155924

$$$$

 OpenBabel03242523153D

 21 23  0  0  0  0  0  0  0  0999 V2000
   36.8660   26.6340   40.8700 C   0  0  0  0  0  0  0  0  0  0  0  0
   36.5520   27.7410   41.6710 C   0  0  0  0  0  0  0  0  0  0  0  0
   35.9040   28.8100   41.0530 C   0  0  0  0  0  0  0  0  0  0  0  0
   35.6140   28.7170   39.7080 N   0  0  0  0  0  0  0  0  0  0  0  0
   35.9390   27.6280   38.9750 C   0  0  0  0  0  0  0  0  0  0  0  0
   36.5740   26.5780   39.5770 N   0  0  0  0  0  0  0  0  0  0  0  0
   35.6430   29.6810   41.6380 H   0  0  0  0  0  0  0  0  0  0  0  0
   35.6360   27.7340   37.9430 H   0  0  0  0  0  0  0  0  0  0  0  0
   36.9710   27.8520   43.0940 C   0  0  0  0  0  0  0  0  0  0  0  0
   38.2830   27.5010   43.5330 C   0  0  0  0  0  0  0  0  0  0  0  0
   37.9950   28.9670   43.4540 C   0  0  0  0  0  0  0  0  0  0  0  0
   36.0910   28.1390   43.7430 H   0  0  0  0  0  0  0  0  0  0  0  0
   38.3810   27.0540   44.5790 H   0  0  0  0  0  0  0  0  0  0  0  0
   39.2010   27.2620   42.9640 H   0  0  0  0  0  0  0  0  0  0  0  0
   37.9020   29.4700   44.4070 H   0  0  0  0  0  0  0  0  0  0  0  0
   38.3250   29.5260   42.5590 H   0  0  0  0  0  0  0  0  0  0  0  0
   37.4150   25.3420   41.2870 C   0  0  0  0  0  3  0  0  0  0  0  0
   36.5190   24.1930   40.7070 C   0  0  0  0  0  2  0  0  0  0  0  0
   37.4990   23.0360   40.6340 C   0  0  0  0  0  2  0  0  0  0  0  0
   38.8850   23.6020   40.7820 C   0  0  0  0  0  2  0  0  0  0  0  0
   38.6740   25.0720   40.5510 C   0  0  0  0  0  2  0  0  0  0  0  0
  1 17  1  0  0  0  0
  1  2  1  0  0  0  0
  2  9  1  0  0  0  0
  3  7  1  0  0  0  0
  3  2  2  0  0  0  0
  4  3  1  0  0  0  0
  5  6  1  0  0  0  0
  5  4  2  0  0  0  0
  6  1  2  0  0  0  0
  8  5  1  0  0  0  0
  9 11  1  0  0  0  0
  9 10  1  0  0  0  0
  9 12  1  0  0  0  0
 10 13  1  0  0  0  0
 11 10  1  0  0  0  0
 11 15  1  0  0  0  0
 14 10  1  0  0  0  0
 16 11  1  0  0  0  0
 18 17  1  0  0  0  0
 19 18  1  0  0  0  0
 19 20  1  0  0  0  0
 21 20  1  0  0  0  0
 21 17  1  0  0  0  0
M  END
>  <minimizedAffinity>
-4.26420307

$$$$

 OpenBabel03242523153D

 21 23  0  0  0  0  0  0  0  0999 V2000
   37.6740   31.4840   39.9480 C   0  0  0  0  0  0  0  0  0  0  0  0
   38.7610   31.7440   40.7950 C   0  0  0  0  0  0  0  0  0  0  0  0
   39.1250   33.0780   40.9710 C   0  0  0  0  0  0  0  0  0  0  0  0
   38.4050   34.0520   40.3100 N   0  0  0  0  0  0  0  0  0  0  0  0
   37.3630   33.7510   39.5010 C   0  0  0  0  0  0  0  0  0  0  0  0
   37.0030   32.4450   39.3250 N   0  0  0  0  0  0  0  0  0  0  0  0
   39.9560   33.3190   41.6180 H   0  0  0  0  0  0  0  0  0  0  0  0
   36.9230   34.6390   39.0690 H   0  0  0  0  0  0  0  0  0  0  0  0
   39.5800   30.6650   41.4100 C   0  0  0  0  0  0  0  0  0  0  0  0
   40.3130   30.8590   42.6190 C   0  0  0  0  0  0  0  0  0  0  0  0
   39.0650   30.0460   42.7410 C   0  0  0  0  0  0  0  0  0  0  0  0
   39.6080   29.7590   40.7370 H   0  0  0  0  0  0  0  0  0  0  0  0
   41.3030   30.3000   42.7250 H   0  0  0  0  0  0  0  0  0  0  0  0
   40.3010   31.6880   43.3530 H   0  0  0  0  0  0  0  0  0  0  0  0
   39.2190   28.9890   42.9160 H   0  0  0  0  0  0  0  0  0  0  0  0
   38.1410   30.5390   43.0930 H   0  0  0  0  0  0  0  0  0  0  0  0
   37.0070   30.2040   39.6990 C   0  0  0  0  0  3  0  0  0  0  0  0
   35.7460   30.0940   40.6250 C   0  0  0  0  0  2  0  0  0  0  0  0
   34.8600   29.1440   39.8390 C   0  0  0  0  0  2  0  0  0  0  0  0
   35.4090   29.0590   38.4420 C   0  0  0  0  0  2  0  0  0  0  0  0
   36.3410   30.2360   38.3740 C   0  0  0  0  0  2  0  0  0  0  0  0
  1  2  1  0  0  0  0
  2  3  2  0  0  0  0
  2  9  1  0  0  0  0
  3  7  1  0  0  0  0
  4  3  1  0  0  0  0
  5  4  2  0  0  0  0
  6  5  1  0  0  0  0
  6  1  2  0  0  0  0
  8  5  1  0  0  0  0
  9 10  1  0  0  0  0
  9 11  1  0  0  0  0
 10 13  1  0  0  0  0
 10 11  1  0  0  0  0
 10 14  1  0  0  0  0
 11 15  1  0  0  0  0
 11 16  1  0  0  0  0
 12  9  1  0  0  0  0
 17  1  1  0  0  0  0
 17 18  1  0  0  0  0
 19 18  1  0  0  0  0
 20 19  1  0  0  0  0
 21 20  1  0  0  0  0
 21 17  1  0  0  0  0
M  END
>  <minimizedAffinity>
-4.2568965

$$$$

 OpenBabel03242523153D

 21 23  0  0  0  0  0  0  0  0999 V2000
   37.9610   29.7890   41.3990 C   0  0  0  0  0  0  0  0  0  0  0  0
   36.7470   30.0830   40.7610 C   0  0  0  0  0  0  0  0  0  0  0  0
   36.5690   31.3880   40.3060 C   0  0  0  0  0  0  0  0  0  0  0  0
   37.5820   32.3030   40.5080 N   0  0  0  0  0  0  0  0  0  0  0  0
   38.7360   31.9710   41.1320 C   0  0  0  0  0  0  0  0  0  0  0  0
   38.9150   30.6930   41.5800 N   0  0  0  0  0  0  0  0  0  0  0  0
   35.6480   31.6540   39.8070 H   0  0  0  0  0  0  0  0  0  0  0  0
   39.4100   32.8140   41.2010 H   0  0  0  0  0  0  0  0  0  0  0  0
   35.6340   29.1020   40.6520 C   0  0  0  0  0  0  0  0  0  0  0  0
   34.6130   29.2130   39.6610 C   0  0  0  0  0  0  0  0  0  0  0  0
   35.6380   28.1500   39.4210 C   0  0  0  0  0  0  0  0  0  0  0  0
   35.6750   28.3630   41.5060 H   0  0  0  0  0  0  0  0  0  0  0  0
   33.5660   28.8610   39.9490 H   0  0  0  0  0  0  0  0  0  0  0  0
   34.5300   29.8690   38.7730 H   0  0  0  0  0  0  0  0  0  0  0  0
   35.2850   27.1350   39.5480 H   0  0  0  0  0  0  0  0  0  0  0  0
   36.4780   28.3670   38.7370 H   0  0  0  0  0  0  0  0  0  0  0  0
   38.4550   28.4840   41.8460 C   0  0  0  0  0  3  0  0  0  0  0  0
   40.0090   28.5640   42.0380 C   0  0  0  0  0  2  0  0  0  0  0  0
   40.2560   27.4730   43.0650 C   0  0  0  0  0  2  0  0  0  0  0  0
   38.9290   27.1060   43.6680 C   0  0  0  0  0  2  0  0  0  0  0  0
   38.0420   28.2450   43.2500 C   0  0  0  0  0  2  0  0  0  0  0  0
  1  6  1  0  0  0  0
  1 17  1  0  0  0  0
  2  1  2  0  0  0  0
  3  4  2  0  0  0  0
  3  2  1  0  0  0  0
  4  5  1  0  0  0  0
  5  8  1  0  0  0  0
  5  6  2  0  0  0  0
  7  3  1  0  0  0  0
  9  2  1  0  0  0  0
  9 12  1  0  0  0  0
 10 13  1  0  0  0  0
 10  9  1  0  0  0  0
 11 15  1  0  0  0  0
 11 10  1  0  0  0  0
 11  9  1  0  0  0  0
 14 10  1  0  0  0  0
 16 11  1  0  0  0  0
 17 18  1  0  0  0  0
 17 21  1  0  0  0  0
 18 19  1  0  0  0  0
 19 20  1  0  0  0  0
 21 20  1  0  0  0  0
M  END
>  <minimizedAffinity>
-4.22857904

$$$$

 OpenBabel03242523153D

 21 23  0  0  0  0  0  0  0  0999 V2000
   37.2860   26.9540   41.8690 C   0  0  0  0  0  0  0  0  0  0  0  0
   36.8310   28.2620   41.6500 C   0  0  0  0  0  0  0  0  0  0  0  0
   37.4150   29.2740   42.4100 C   0  0  0  0  0  0  0  0  0  0  0  0
   38.3940   28.9350   43.3210 N   0  0  0  0  0  0  0  0  0  0  0  0
   38.7980   27.6560   43.4980 C   0  0  0  0  0  0  0  0  0  0  0  0
   38.2290   26.6610   42.7560 N   0  0  0  0  0  0  0  0  0  0  0  0
   37.0930   30.2960   42.2690 H   0  0  0  0  0  0  0  0  0  0  0  0
   39.5690   27.5820   44.2530 H   0  0  0  0  0  0  0  0  0  0  0  0
   35.7020   28.5810   40.7350 C   0  0  0  0  0  0  0  0  0  0  0  0
   35.5270   29.8760   40.1610 C   0  0  0  0  0  0  0  0  0  0  0  0
   36.0430   28.8210   39.2360 C   0  0  0  0  0  0  0  0  0  0  0  0
   34.9920   27.7060   40.6650 H   0  0  0  0  0  0  0  0  0  0  0  0
   34.4560   30.2310   39.9890 H   0  0  0  0  0  0  0  0  0  0  0  0
   36.1940   30.7590   40.1410 H   0  0  0  0  0  0  0  0  0  0  0  0
   35.3400   28.4860   38.4830 H   0  0  0  0  0  0  0  0  0  0  0  0
   37.1300   28.7640   39.0470 H   0  0  0  0  0  0  0  0  0  0  0  0
   36.9450   25.7410   41.1230 C   0  0  0  0  0  3  0  0  0  0  0  0
   37.9280   25.5910   39.9100 C   0  0  0  0  0  2  0  0  0  0  0  0
   37.9090   24.0920   39.6730 C   0  0  0  0  0  2  0  0  0  0  0  0
   37.2930   23.4460   40.8820 C   0  0  0  0  0  2  0  0  0  0  0  0
   37.3340   24.5440   41.9080 C   0  0  0  0  0  2  0  0  0  0  0  0
  1  6  1  0  0  0  0
  2  1  2  0  0  0  0
  2  3  1  0  0  0  0
  3  4  2  0  0  0  0
  4  5  1  0  0  0  0
  5  8  1  0  0  0  0
  6  5  2  0  0  0  0
  7  3  1  0  0  0  0
  9  2  1  0  0  0  0
 10  9  1  0  0  0  0
 11 10  1  0  0  0  0
 11  9  1  0  0  0  0
 12  9  1  0  0  0  0
 13 10  1  0  0  0  0
 14 10  1  0  0  0  0
 15 11  1  0  0  0  0
 16 11  1  0  0  0  0
 17  1  1  0  0  0  0
 17 21  1  0  0  0  0
 18 17  1  0  0  0  0
 19 18  1  0  0  0  0
 19 20  1  0  0  0  0
 20 21  1  0  0  0  0
M  END
>  <minimizedAffinity>
-4.18858576

$$$$

 OpenBabel03242523153D

 21 23  0  0  0  0  0  0  0  0999 V2000
   36.6780   29.4230   40.4690 C   0  0  0  0  0  0  0  0  0  0  0  0
   36.0760   29.6290   39.2200 C   0  0  0  0  0  0  0  0  0  0  0  0
   36.6790   30.5530   38.3680 C   0  0  0  0  0  0  0  0  0  0  0  0
   37.8160   31.2050   38.7990 N   0  0  0  0  0  0  0  0  0  0  0  0
   38.3590   30.9740   40.0160 C   0  0  0  0  0  0  0  0  0  0  0  0
   37.7710   30.0690   40.8540 N   0  0  0  0  0  0  0  0  0  0  0  0
   36.2460   30.7380   37.3950 H   0  0  0  0  0  0  0  0  0  0  0  0
   39.2430   31.5740   40.1800 H   0  0  0  0  0  0  0  0  0  0  0  0
   34.7920   28.9870   38.8270 C   0  0  0  0  0  0  0  0  0  0  0  0
   34.3120   29.0020   37.4830 C   0  0  0  0  0  0  0  0  0  0  0  0
   34.8730   27.6990   37.9580 C   0  0  0  0  0  0  0  0  0  0  0  0
   34.2460   28.6080   39.7400 H   0  0  0  0  0  0  0  0  0  0  0  0
   33.1810   29.0490   37.3330 H   0  0  0  0  0  0  0  0  0  0  0  0
   34.8020   29.3050   36.5390 H   0  0  0  0  0  0  0  0  0  0  0  0
   34.1430   26.9160   38.1210 H   0  0  0  0  0  0  0  0  0  0  0  0
   35.9160   27.4430   37.6980 H   0  0  0  0  0  0  0  0  0  0  0  0
   36.3350   28.4260   41.4860 C   0  0  0  0  0  3  0  0  0  0  0  0
   36.9670   27.0480   41.0850 C   0  0  0  0  0  2  0  0  0  0  0  0
   37.1100   26.3640   42.4330 C   0  0  0  0  0  2  0  0  0  0  0  0
   36.9450   27.4140   43.4970 C   0  0  0  0  0  2  0  0  0  0  0  0
   37.0950   28.6970   42.7300 C   0  0  0  0  0  2  0  0  0  0  0  0
  1  6  1  0  0  0  0
  1 17  1  0  0  0  0
  2  1  2  0  0  0  0
  3  4  2  0  0  0  0
  3  2  1  0  0  0  0
  4  5  1  0  0  0  0
  5  8  1  0  0  0  0
  5  6  2  0  0  0  0
  7  3  1  0  0  0  0
  9  2  1  0  0  0  0
  9 12  1  0  0  0  0
 10 11  1  0  0  0  0
 10  9  1  0  0  0  0
 11 15  1  0  0  0  0
 11  9  1  0  0  0  0
 13 10  1  0  0  0  0
 14 10  1  0  0  0  0
 16 11  1  0  0  0  0
 17 21  1  0  0  0  0
 18 17  1  0  0  0  0
 18 19  1  0  0  0  0
 19 20  1  0  0  0  0
 21 20  1  0  0  0  0
M  END
>  <minimizedAffinity>
-4.17168045

$$$$

 OpenBabel03242523153D

 21 23  0  0  0  0  0  0  0  0999 V2000
   37.2120   27.8090   41.2720 C   0  0  0  0  0  0  0  0  0  0  0  0
   37.9280   26.7320   41.8140 C   0  0  0  0  0  0  0  0  0  0  0  0
   38.7730   27.0060   42.8880 C   0  0  0  0  0  0  0  0  0  0  0  0
   38.8550   28.3030   43.3490 N   0  0  0  0  0  0  0  0  0  0  0  0
   38.1450   29.3110   42.7920 C   0  0  0  0  0  0  0  0  0  0  0  0
   37.3160   29.0470   41.7390 N   0  0  0  0  0  0  0  0  0  0  0  0
   39.3400   26.2010   43.3350 H   0  0  0  0  0  0  0  0  0  0  0  0
   38.3380   30.2550   43.2820 H   0  0  0  0  0  0  0  0  0  0  0  0
   37.8960   25.3650   41.2270 C   0  0  0  0  0  0  0  0  0  0  0  0
   38.2750   24.2060   41.9700 C   0  0  0  0  0  0  0  0  0  0  0  0
   36.8060   24.3860   41.7530 C   0  0  0  0  0  0  0  0  0  0  0  0
   37.6410   25.4130   40.1280 H   0  0  0  0  0  0  0  0  0  0  0  0
   38.7790   23.3580   41.3940 H   0  0  0  0  0  0  0  0  0  0  0  0
   38.4870   24.0700   43.0480 H   0  0  0  0  0  0  0  0  0  0  0  0
   36.3550   23.6890   41.0590 H   0  0  0  0  0  0  0  0  0  0  0  0
   36.2010   24.8400   42.5590 H   0  0  0  0  0  0  0  0  0  0  0  0
   36.1700   27.7770   40.2450 C   0  0  0  0  0  3  0  0  0  0  0  0
   35.2020   28.9920   40.4590 C   0  0  0  0  0  2  0  0  0  0  0  0
   34.6530   29.2080   39.0590 C   0  0  0  0  0  2  0  0  0  0  0  0
   35.5310   28.4480   38.1030 C   0  0  0  0  0  2  0  0  0  0  0  0
   36.7490   28.1480   38.9310 C   0  0  0  0  0  2  0  0  0  0  0  0
  1  6  2  0  0  0  0
  1  2  1  0  0  0  0
  2  3  2  0  0  0  0
  3  7  1  0  0  0  0
  3  4  1  0  0  0  0
  5  8  1  0  0  0  0
  5  4  2  0  0  0  0
  6  5  1  0  0  0  0
  9 11  1  0  0  0  0
  9  2  1  0  0  0  0
  9 10  1  0  0  0  0
 10 14  1  0  0  0  0
 11 10  1  0  0  0  0
 11 16  1  0  0  0  0
 12  9  1  0  0  0  0
 13 10  1  0  0  0  0
 15 11  1  0  0  0  0
 17 18  1  0  0  0  0
 17  1  1  0  0  0  0
 19 18  1  0  0  0  0
 20 21  1  0  0  0  0
 20 19  1  0  0  0  0
 21 17  1  0  0  0  0
M  END
>  <minimizedAffinity>
-4.13821173

$$$$
