
 OpenBabel03252509163D

 21 23  0  0  0  0  0  0  0  0999 V2000
   45.8550   33.1100   46.1430 C   0  0  0  0  0  0  0  0  0  0  0  0
   45.2910   32.9370   47.4380 C   0  0  0  0  0  0  0  0  0  0  0  0
   45.6890   31.8700   48.1750 C   0  0  0  0  0  0  0  0  0  0  0  0
   46.6480   30.9810   47.6200 C   0  0  0  0  0  0  0  0  0  0  0  0
   46.9990   31.6990   45.9640 S   0  0  0  0  0  0  0  0  0  0  0  0
   44.5680   33.6510   47.7980 H   0  0  0  0  0  0  0  0  0  0  0  0
   45.3290   31.6510   49.1450 H   0  0  0  0  0  0  0  0  0  0  0  0
   44.4770   36.1670   44.5550 C   0  0  0  0  0  0  0  0  0  0  0  0
   45.1310   36.0920   43.2980 C   0  0  0  0  0  0  0  0  0  0  0  0
   45.9990   35.0200   43.0520 C   0  0  0  0  0  0  0  0  0  0  0  0
   46.1630   34.0990   44.0550 N   0  0  0  0  0  0  0  0  0  0  0  0
   45.5170   34.2150   45.2370 C   0  0  0  0  0  0  0  0  0  0  0  0
   44.6740   35.2440   45.4950 N   0  0  0  0  0  0  0  0  0  0  0  0
   43.8100   36.9980   44.7360 H   0  0  0  0  0  0  0  0  0  0  0  0
   44.9970   36.8160   42.5210 H   0  0  0  0  0  0  0  0  0  0  0  0
   46.5330   34.8930   42.1210 H   0  0  0  0  0  0  0  0  0  0  0  0
   47.2770   29.8080   48.0850 C   0  0  0  0  0  3  0  0  0  0  0  0
   46.9270   28.5150   47.4070 C   0  0  0  0  0  2  0  0  0  0  0  0
   47.8920   28.3970   46.2830 C   0  0  0  0  0  2  0  0  0  0  0  0
   49.1710   28.9870   46.8260 C   0  0  0  0  0  2  0  0  0  0  0  0
   48.7740   29.8870   47.9560 C   0  0  0  0  0  2  0  0  0  0  0  0
  1  2  2  0  0  0  0
  2  6  1  0  0  0  0
  2  3  1  0  0  0  0
  3  7  1  0  0  0  0
  4 17  1  0  0  0  0
  4  3  2  0  0  0  0
  5  1  1  0  0  0  0
  5  4  1  0  0  0  0
  8 14  1  0  0  0  0
  8 13  1  0  0  0  0
  9  8  2  0  0  0  0
 10  9  1  0  0  0  0
 10 11  2  0  0  0  0
 11 12  1  0  0  0  0
 12 13  2  0  0  0  0
 12  1  1  0  0  0  0
 15  9  1  0  0  0  0
 16 10  1  0  0  0  0
 18 17  1  0  0  0  0
 19 20  1  0  0  0  0
 19 18  1  0  0  0  0
 20 21  1  0  0  0  0
 21 17  1  0  0  0  0
M  END
>  <minimizedAffinity>
-4.51274252

>  <minimizedRMSD>
0.855423152

$$$$
