
 OpenBabel03252506423D

 36 39  0  0  1  0  0  0  0  0999 V2000
   49.4880   33.4230   41.3440 N   0  0  1  0  0  0  0  0  0  0  0  0
   50.6910   33.0570   42.0690 C   0  0  0  0  0  0  0  0  0  0  0  0
   51.2560   31.7280   41.7260 C   0  0  0  0  0  0  0  0  0  0  0  0
   50.2770   30.6420   42.0830 C   0  0  0  0  0  0  0  0  0  0  0  0
   48.8660   31.0970   41.9110 C   0  0  0  0  0  0  0  0  0  0  0  0
   48.8000   32.2390   40.9270 C   0  0  2  0  0  0  0  0  0  0  0  0
   51.4410   33.8800   41.9830 H   0  0  0  0  0  0  0  0  0  0  0  0
   50.4470   33.0260   43.1610 H   0  0  0  0  0  0  0  0  0  0  0  0
   51.7240   31.6280   40.7350 H   0  0  0  0  0  0  0  0  0  0  0  0
   52.1440   31.6030   42.4310 H   0  0  0  0  0  0  0  0  0  0  0  0
   50.5100   29.7070   41.5240 H   0  0  0  0  0  0  0  0  0  0  0  0
   50.4490   30.3630   43.1450 H   0  0  0  0  0  0  0  0  0  0  0  0
   48.1290   30.3420   41.6570 H   0  0  0  0  0  0  0  0  0  0  0  0
   48.5270   31.5270   42.8900 H   0  0  0  0  0  0  0  0  0  0  0  0
   47.7070   32.5560   41.0540 H   0  0  0  0  0  0  0  0  0  0  0  0
   47.3290   34.7100   41.9360 C   0  0  1  0  0  0  0  0  0  0  0  0
   48.4370   35.6390   41.7180 C   0  0  0  0  0  0  0  0  0  0  0  0
   48.7340   34.2720   42.2170 C   0  0  2  0  0  0  0  0  0  0  0  0
   46.8410   34.1970   41.0820 H   0  0  0  0  0  0  0  0  0  0  0  0
   48.7370   35.9320   40.6840 H   0  0  0  0  0  0  0  0  0  0  0  0
   48.5630   36.4790   42.4300 H   0  0  0  0  0  0  0  0  0  0  0  0
   48.9540   34.1400   43.3070 H   0  0  0  0  0  0  0  0  0  0  0  0
   45.5500   36.0370   43.1220 C   0  0  0  0  0  0  0  0  0  0  0  0
   46.3920   34.8890   43.0840 C   0  0  0  0  0  0  0  0  0  0  0  0
   46.3120   33.9670   44.1110 C   0  0  0  0  0  0  0  0  0  0  0  0
   45.4240   34.2110   45.1120 N   0  0  0  0  0  0  0  0  0  0  0  0
   44.6260   35.3140   45.1340 C   0  0  0  0  0  0  0  0  0  0  0  0
   44.6870   36.2250   44.1450 N   0  0  0  0  0  0  0  0  0  0  0  0
   45.6210   36.7570   42.3080 H   0  0  0  0  0  0  0  0  0  0  0  0
   46.9340   33.0970   44.1030 H   0  0  0  0  0  0  0  0  0  0  0  0
   43.9670   35.3830   45.9900 H   0  0  0  0  0  0  0  0  0  0  0  0
   48.8960   31.8700   39.5060 C   0  0  0  0  0  0  0  0  0  0  0  0
   48.6120   33.0290   38.5380 C   0  0  0  0  0  0  0  0  0  0  0  0
   48.2940   32.3470   37.2230 C   0  0  0  0  0  0  0  0  0  0  0  0
   47.8520   30.9410   37.5360 C   0  0  0  0  0  0  0  0  0  0  0  0
   48.0310   30.7490   39.0400 C   0  0  0  0  0  0  0  0  0  0  0  0
  1  2  1  1  0  0  0
  1 18  1  0  0  0  0
  2  8  1  0  0  0  0
  3  2  1  0  0  0  0
  3  4  1  0  0  0  0
  3 10  1  0  0  0  0
  4 12  1  0  0  0  0
  5  4  1  0  0  0  0
  5 14  1  0  0  0  0
  6 15  1  1  0  0  0
  6  1  1  0  0  0  0
  6  5  1  0  0  0  0
  7  2  1  0  0  0  0
  9  3  1  0  0  0  0
 11  4  1  0  0  0  0
 13  5  1  0  0  0  0
 16 19  1  6  0  0  0
 16 18  1  0  0  0  0
 16 24  1  0  0  0  0
 17 16  1  0  0  0  0
 17 18  1  0  0  0  0
 17 21  1  0  0  0  0
 18 22  1  1  0  0  0
 20 17  1  0  0  0  0
 23 28  1  0  0  0  0
 24 23  2  0  0  0  0
 24 25  1  0  0  0  0
 25 26  2  0  0  0  0
 26 27  1  0  0  0  0
 27 31  1  0  0  0  0
 28 27  2  0  0  0  0
 29 23  1  0  0  0  0
 30 25  1  0  0  0  0
 32  6  1  0  0  0  0
 33 32  1  0  0  0  0
 34 35  1  0  0  0  0
 34 33  1  0  0  0  0
 35 36  1  0  0  0  0
 36 32  1  0  0  0  0
M  END
>  <minimizedAffinity>
-4.83558512

>  <minimizedRMSD>
1.1090256

$$$$
