
 OpenBabel03242516093D

 21 23  0  0  0  0  0  0  0  0999 V2000
   48.3030   34.4900   41.9370 C   0  0  0  0  0  0  0  0  0  0  0  0
   48.9670   35.7790   41.5750 C   0  0  0  0  0  0  0  0  0  0  0  0
   49.6600   34.8060   42.4370 C   0  0  0  0  0  0  0  0  0  0  0  0
   48.5000   36.6960   42.0300 H   0  0  0  0  0  0  0  0  0  0  0  0
   49.4330   35.9790   40.6090 H   0  0  0  0  0  0  0  0  0  0  0  0
   50.5580   34.2660   42.0440 H   0  0  0  0  0  0  0  0  0  0  0  0
   49.7190   35.0750   43.5280 H   0  0  0  0  0  0  0  0  0  0  0  0
   46.1100   35.4850   42.6790 C   0  0  0  0  0  0  0  0  0  0  0  0
   47.1460   34.5730   42.8980 C   0  0  0  0  0  0  0  0  0  0  0  0
   47.0520   33.7370   44.0430 C   0  0  0  0  0  0  0  0  0  0  0  0
   45.9690   33.8730   44.8500 N   0  0  0  0  0  0  0  0  0  0  0  0
   44.9990   34.7630   44.5990 C   0  0  0  0  0  0  0  0  0  0  0  0
   45.0670   35.5620   43.5240 N   0  0  0  0  0  0  0  0  0  0  0  0
   46.1100   36.1560   41.8310 H   0  0  0  0  0  0  0  0  0  0  0  0
   47.8700   33.0530   44.1720 H   0  0  0  0  0  0  0  0  0  0  0  0
   44.2250   34.7110   45.3650 H   0  0  0  0  0  0  0  0  0  0  0  0
   48.0300   33.5800   40.7840 C   0  0  0  0  0  0  0  0  0  0  0  0
   49.1050   32.5910   40.4890 C   0  0  0  0  0  0  0  0  0  0  0  0
   48.6810   32.1610   39.0700 C   0  0  0  0  0  0  0  0  0  0  0  0
   48.4820   33.5080   38.4100 C   0  0  0  0  0  0  0  0  0  0  0  0
   48.0100   34.4400   39.5150 C   0  0  0  0  0  0  0  0  0  0  0  0
  1  3  1  0  0  0  0
  1  9  1  0  0  0  0
  2  1  1  0  0  0  0
  2  4  1  0  0  0  0
  2  3  1  0  0  0  0
  3  7  1  0  0  0  0
  5  2  1  0  0  0  0
  6  3  1  0  0  0  0
  8  9  2  0  0  0  0
  8 13  1  0  0  0  0
  9 10  1  0  0  0  0
 10 15  1  0  0  0  0
 10 11  2  0  0  0  0
 12 11  1  0  0  0  0
 12 16  1  0  0  0  0
 13 12  2  0  0  0  0
 14  8  1  0  0  0  0
 17  1  1  0  0  0  0
 18 17  1  0  0  0  0
 19 18  1  0  0  0  0
 20 19  1  0  0  0  0
 20 21  1  0  0  0  0
 21 17  1  0  0  0  0
M  END
>  <minimizedAffinity>
-4.678092

>  <minimizedRMSD>
0.254065871

$$$$
