
 OpenBabel03252504453D

 17 18  0  0  0  0  0  0  0  0999 V2000
   37.2590   32.2190   39.5050 C   0  0  0  0  0  0  0  0  0  0  0  0
   37.3550   31.6110   38.2350 C   0  0  0  0  0  0  0  0  0  0  0  0
   37.2900   30.2010   38.1930 C   0  0  0  0  0  0  0  0  0  0  0  0
   37.1410   29.5260   39.3620 N   0  0  0  0  0  0  0  0  0  0  0  0
   37.0540   30.1740   40.5640 C   0  0  0  0  0  0  0  0  0  0  0  0
   37.1150   31.5160   40.6200 N   0  0  0  0  0  0  0  0  0  0  0  0
   37.4720   32.1780   37.3230 H   0  0  0  0  0  0  0  0  0  0  0  0
   37.3570   29.6930   37.2430 H   0  0  0  0  0  0  0  0  0  0  0  0
   36.8950   29.3590   41.7590 C   0  0  0  0  0  3  0  0  0  0  0  0
   38.0910   29.2980   42.6540 C   0  0  0  0  0  2  0  0  0  0  0  0
   37.6280   28.2790   43.6800 C   0  0  0  0  0  2  0  0  0  0  0  0
   36.6710   27.3630   42.9390 C   0  0  0  0  0  2  0  0  0  0  0  0
   36.6340   27.8910   41.5060 C   0  0  0  0  0  2  0  0  0  0  0  0
   37.3300   33.7180   39.5360 C   0  0  0  0  0  0  0  0  0  0  0  0
   36.9130   34.0410   40.5210 H   0  0  0  0  0  0  0  0  0  0  0  0
   36.7350   34.1130   38.6880 H   0  0  0  0  0  0  0  0  0  0  0  0
   38.3990   33.9860   39.4320 H   0  0  0  0  0  0  0  0  0  0  0  0
  1 14  1  0  0  0  0
  1  6  1  0  0  0  0
  2  1  2  0  0  0  0
  3  2  1  0  0  0  0
  3  4  2  0  0  0  0
  4  5  1  0  0  0  0
  5  6  2  0  0  0  0
  5  9  1  0  0  0  0
  7  2  1  0  0  0  0
  8  3  1  0  0  0  0
  9 10  1  0  0  0  0
 10 11  1  0  0  0  0
 12 11  1  0  0  0  0
 13  9  1  0  0  0  0
 13 12  1  0  0  0  0
 14 15  1  0  0  0  0
 16 14  1  0  0  0  0
 17 14  1  0  0  0  0
M  END
>  <minimizedAffinity>
-4.3297267

$$$$

 OpenBabel03252504453D

 17 18  0  0  0  0  0  0  0  0999 V2000
   37.2580   26.9570   41.7140 C   0  0  0  0  0  0  0  0  0  0  0  0
   37.3020   27.2270   43.0990 C   0  0  0  0  0  0  0  0  0  0  0  0
   37.4590   28.5770   43.4840 C   0  0  0  0  0  0  0  0  0  0  0  0
   37.5570   29.5190   42.5100 N   0  0  0  0  0  0  0  0  0  0  0  0
   37.5070   29.1940   41.1820 C   0  0  0  0  0  0  0  0  0  0  0  0
   37.3580   27.9130   40.8010 N   0  0  0  0  0  0  0  0  0  0  0  0
   37.2210   26.4540   43.8480 H   0  0  0  0  0  0  0  0  0  0  0  0
   37.4970   28.8300   44.5320 H   0  0  0  0  0  0  0  0  0  0  0  0
   37.6200   30.2770   40.2180 C   0  0  0  0  0  3  0  0  0  0  0  0
   36.9240   31.5440   40.5960 C   0  0  0  0  0  2  0  0  0  0  0  0
   37.1250   32.3670   39.3360 C   0  0  0  0  0  2  0  0  0  0  0  0
   37.1930   31.3630   38.2010 C   0  0  0  0  0  2  0  0  0  0  0  0
   37.0150   29.9960   38.8610 C   0  0  0  0  0  2  0  0  0  0  0  0
   37.0910   25.5190   41.3180 C   0  0  0  0  0  0  0  0  0  0  0  0
   36.7440   25.5150   40.2560 H   0  0  0  0  0  0  0  0  0  0  0  0
   36.3460   25.0550   41.9950 H   0  0  0  0  0  0  0  0  0  0  0  0
   38.0830   25.0430   41.4310 H   0  0  0  0  0  0  0  0  0  0  0  0
  1  2  1  0  0  0  0
  2  3  2  0  0  0  0
  2  7  1  0  0  0  0
  3  8  1  0  0  0  0
  4  3  1  0  0  0  0
  5  4  2  0  0  0  0
  6  5  1  0  0  0  0
  6  1  2  0  0  0  0
  9 10  1  0  0  0  0
  9  5  1  0  0  0  0
 11 10  1  0  0  0  0
 12 13  1  0  0  0  0
 12 11  1  0  0  0  0
 13  9  1  0  0  0  0
 14 17  1  0  0  0  0
 14  1  1  0  0  0  0
 14 16  1  0  0  0  0
 15 14  1  0  0  0  0
M  END
>  <minimizedAffinity>
-3.9831779

$$$$

 OpenBabel03252504453D

 17 18  0  0  0  0  0  0  0  0999 V2000
   37.6100   28.1660   42.4200 C   0  0  0  0  0  0  0  0  0  0  0  0
   36.9700   27.2600   41.5480 C   0  0  0  0  0  0  0  0  0  0  0  0
   36.4110   27.7950   40.3660 C   0  0  0  0  0  0  0  0  0  0  0  0
   36.5240   29.1310   40.1450 N   0  0  0  0  0  0  0  0  0  0  0  0
   37.1580   29.9580   41.0310 C   0  0  0  0  0  0  0  0  0  0  0  0
   37.6940   29.4640   42.1600 N   0  0  0  0  0  0  0  0  0  0  0  0
   36.8980   26.2020   41.7530 H   0  0  0  0  0  0  0  0  0  0  0  0
   35.9130   27.1390   39.6690 H   0  0  0  0  0  0  0  0  0  0  0  0
   37.2250   31.3740   40.7020 C   0  0  0  0  0  3  0  0  0  0  0  0
   36.9560   31.7100   39.2710 C   0  0  0  0  0  2  0  0  0  0  0  0
   37.2490   33.2000   39.2680 C   0  0  0  0  0  2  0  0  0  0  0  0
   38.3000   33.4100   40.3420 C   0  0  0  0  0  2  0  0  0  0  0  0
   38.5760   32.0190   40.9130 C   0  0  0  0  0  2  0  0  0  0  0  0
   38.1990   27.5850   43.6730 C   0  0  0  0  0  0  0  0  0  0  0  0
   38.9310   28.3330   44.0630 H   0  0  0  0  0  0  0  0  0  0  0  0
   38.6900   26.6250   43.4150 H   0  0  0  0  0  0  0  0  0  0  0  0
   37.3570   27.4260   44.3730 H   0  0  0  0  0  0  0  0  0  0  0  0
  1 14  1  0  0  0  0
  2  7  1  0  0  0  0
  2  1  2  0  0  0  0
  3  2  1  0  0  0  0
  4  3  2  0  0  0  0
  4  5  1  0  0  0  0
  5  6  2  0  0  0  0
  6  1  1  0  0  0  0
  8  3  1  0  0  0  0
  9 13  1  0  0  0  0
  9  5  1  0  0  0  0
 10  9  1  0  0  0  0
 11 10  1  0  0  0  0
 11 12  1  0  0  0  0
 12 13  1  0  0  0  0
 14 15  1  0  0  0  0
 14 17  1  0  0  0  0
 16 14  1  0  0  0  0
M  END
>  <minimizedAffinity>
-3.97868729

$$$$

 OpenBabel03252504453D

 17 18  0  0  0  0  0  0  0  0999 V2000
   38.2820   32.0310   40.4340 C   0  0  0  0  0  0  0  0  0  0  0  0
   39.6130   32.4990   40.4850 C   0  0  0  0  0  0  0  0  0  0  0  0
   40.4970   31.8240   41.3550 C   0  0  0  0  0  0  0  0  0  0  0  0
   40.0180   30.7790   42.0790 N   0  0  0  0  0  0  0  0  0  0  0  0
   38.7150   30.3720   41.9850 C   0  0  0  0  0  0  0  0  0  0  0  0
   37.8620   31.0050   41.1620 N   0  0  0  0  0  0  0  0  0  0  0  0
   39.9620   33.3340   39.8960 H   0  0  0  0  0  0  0  0  0  0  0  0
   41.5240   32.1470   41.4260 H   0  0  0  0  0  0  0  0  0  0  0  0
   38.3020   29.2410   42.8020 C   0  0  0  0  0  3  0  0  0  0  0  0
   39.2940   28.1290   42.9020 C   0  0  0  0  0  2  0  0  0  0  0  0
   38.4920   27.0990   43.6790 C   0  0  0  0  0  2  0  0  0  0  0  0
   37.0430   27.3460   43.3030 C   0  0  0  0  0  2  0  0  0  0  0  0
   37.0750   28.5070   42.3090 C   0  0  0  0  0  2  0  0  0  0  0  0
   37.3530   32.7580   39.5070 C   0  0  0  0  0  0  0  0  0  0  0  0
   36.4790   32.0840   39.3310 H   0  0  0  0  0  0  0  0  0  0  0  0
   37.8980   32.9770   38.5660 H   0  0  0  0  0  0  0  0  0  0  0  0
   37.0580   33.6920   40.0220 H   0  0  0  0  0  0  0  0  0  0  0  0
  1  2  2  0  0  0  0
  1  6  1  0  0  0  0
  2  3  1  0  0  0  0
  3  8  1  0  0  0  0
  3  4  2  0  0  0  0
  5  4  1  0  0  0  0
  5  9  1  0  0  0  0
  6  5  2  0  0  0  0
  7  2  1  0  0  0  0
  9 10  1  0  0  0  0
 10 11  1  0  0  0  0
 12 11  1  0  0  0  0
 13  9  1  0  0  0  0
 13 12  1  0  0  0  0
 14 17  1  0  0  0  0
 14  1  1  0  0  0  0
 15 14  1  0  0  0  0
 16 14  1  0  0  0  0
M  END
>  <minimizedAffinity>
-3.95359898

$$$$

 OpenBabel03252504453D

 17 18  0  0  0  0  0  0  0  0999 V2000
   37.1280   26.9560   42.1910 C   0  0  0  0  0  0  0  0  0  0  0  0
   37.5280   27.4100   43.4660 C   0  0  0  0  0  0  0  0  0  0  0  0
   37.6990   28.8030   43.6250 C   0  0  0  0  0  0  0  0  0  0  0  0
   37.4710   29.6080   42.5560 N   0  0  0  0  0  0  0  0  0  0  0  0
   37.0840   29.1060   41.3430 C   0  0  0  0  0  0  0  0  0  0  0  0
   36.9170   27.7830   41.1760 N   0  0  0  0  0  0  0  0  0  0  0  0
   37.7010   26.7420   44.2970 H   0  0  0  0  0  0  0  0  0  0  0  0
   38.0030   29.1950   44.5830 H   0  0  0  0  0  0  0  0  0  0  0  0
   36.8650   30.0540   40.2610 C   0  0  0  0  0  3  0  0  0  0  0  0
   37.7330   29.8630   39.0590 C   0  0  0  0  0  2  0  0  0  0  0  0
   37.3440   31.0750   38.2310 C   0  0  0  0  0  2  0  0  0  0  0  0
   36.9490   32.1430   39.2330 C   0  0  0  0  0  2  0  0  0  0  0  0
   37.1420   31.5000   40.6060 C   0  0  0  0  0  2  0  0  0  0  0  0
   36.9500   25.4740   42.0340 C   0  0  0  0  0  0  0  0  0  0  0  0
   36.3290   25.3180   41.1180 H   0  0  0  0  0  0  0  0  0  0  0  0
   36.4460   25.0850   42.9420 H   0  0  0  0  0  0  0  0  0  0  0  0
   37.9630   25.0430   41.9260 H   0  0  0  0  0  0  0  0  0  0  0  0
  1  2  1  0  0  0  0
  2  3  2  0  0  0  0
  2  7  1  0  0  0  0
  3  8  1  0  0  0  0
  4  3  1  0  0  0  0
  5  4  2  0  0  0  0
  6  5  1  0  0  0  0
  6  1  2  0  0  0  0
  9 13  1  0  0  0  0
  9  5  1  0  0  0  0
 10  9  1  0  0  0  0
 11 10  1  0  0  0  0
 11 12  1  0  0  0  0
 12 13  1  0  0  0  0
 14  1  1  0  0  0  0
 14 16  1  0  0  0  0
 15 14  1  0  0  0  0
 17 14  1  0  0  0  0
M  END
>  <minimizedAffinity>
-3.95226669

$$$$

 OpenBabel03252504453D

 17 18  0  0  0  0  0  0  0  0999 V2000
   38.4640   31.6510   40.9740 C   0  0  0  0  0  0  0  0  0  0  0  0
   37.1540   31.8370   40.4820 C   0  0  0  0  0  0  0  0  0  0  0  0
   36.2160   30.8180   40.7560 C   0  0  0  0  0  0  0  0  0  0  0  0
   36.6270   29.7360   41.4670 N   0  0  0  0  0  0  0  0  0  0  0  0
   37.9130   29.6140   41.9180 C   0  0  0  0  0  0  0  0  0  0  0  0
   38.8170   30.5760   41.6640 N   0  0  0  0  0  0  0  0  0  0  0  0
   36.8600   32.7110   39.9190 H   0  0  0  0  0  0  0  0  0  0  0  0
   35.2020   30.9180   40.4000 H   0  0  0  0  0  0  0  0  0  0  0  0
   38.2520   28.4170   42.6720 C   0  0  0  0  0  3  0  0  0  0  0  0
   39.6930   28.2840   43.0450 C   0  0  0  0  0  2  0  0  0  0  0  0
   39.7000   26.8980   43.6660 C   0  0  0  0  0  2  0  0  0  0  0  0
   38.5970   26.1310   42.9610 C   0  0  0  0  0  2  0  0  0  0  0  0
   38.0070   27.1110   41.9480 C   0  0  0  0  0  2  0  0  0  0  0  0
   39.4520   32.7410   40.6750 C   0  0  0  0  0  0  0  0  0  0  0  0
   40.3000   32.6140   41.3910 H   0  0  0  0  0  0  0  0  0  0  0  0
   38.9440   33.7180   40.8090 H   0  0  0  0  0  0  0  0  0  0  0  0
   39.7710   32.5990   39.6250 H   0  0  0  0  0  0  0  0  0  0  0  0
  1  6  1  0  0  0  0
  2  3  1  0  0  0  0
  2  1  2  0  0  0  0
  3  4  2  0  0  0  0
  4  5  1  0  0  0  0
  5  9  1  0  0  0  0
  6  5  2  0  0  0  0
  7  2  1  0  0  0  0
  8  3  1  0  0  0  0
  9 10  1  0  0  0  0
 10 11  1  0  0  0  0
 12 11  1  0  0  0  0
 13  9  1  0  0  0  0
 13 12  1  0  0  0  0
 14 16  1  0  0  0  0
 14  1  1  0  0  0  0
 14 15  1  0  0  0  0
 17 14  1  0  0  0  0
M  END
>  <minimizedAffinity>
-3.88763881

$$$$

 OpenBabel03252504453D

 17 18  0  0  0  0  0  0  0  0999 V2000
   35.9530   29.5480   37.9200 C   0  0  0  0  0  0  0  0  0  0  0  0
   35.1100   28.8030   38.7720 C   0  0  0  0  0  0  0  0  0  0  0  0
   35.0800   29.1810   40.1330 C   0  0  0  0  0  0  0  0  0  0  0  0
   35.8550   30.2230   40.5310 N   0  0  0  0  0  0  0  0  0  0  0  0
   36.6530   30.9060   39.6550 C   0  0  0  0  0  0  0  0  0  0  0  0
   36.6920   30.5590   38.3570 N   0  0  0  0  0  0  0  0  0  0  0  0
   34.5060   27.9790   38.4230 H   0  0  0  0  0  0  0  0  0  0  0  0
   34.4490   28.6400   40.8210 H   0  0  0  0  0  0  0  0  0  0  0  0
   37.4440   32.0080   40.1820 C   0  0  0  0  0  3  0  0  0  0  0  0
   37.2610   33.3160   39.4840 C   0  0  0  0  0  2  0  0  0  0  0  0
   38.3130   34.1610   40.1810 C   0  0  0  0  0  2  0  0  0  0  0  0
   39.4090   33.1930   40.5860 C   0  0  0  0  0  2  0  0  0  0  0  0
   38.9420   31.8250   40.0900 C   0  0  0  0  0  2  0  0  0  0  0  0
   35.9760   29.1370   36.4760 C   0  0  0  0  0  0  0  0  0  0  0  0
   36.4000   29.9960   35.9020 H   0  0  0  0  0  0  0  0  0  0  0  0
   34.9380   28.9060   36.1620 H   0  0  0  0  0  0  0  0  0  0  0  0
   36.6200   28.2390   36.4130 H   0  0  0  0  0  0  0  0  0  0  0  0
  1  6  2  0  0  0  0
  1  2  1  0  0  0  0
  2  3  2  0  0  0  0
  3  4  1  0  0  0  0
  3  8  1  0  0  0  0
  5  9  1  0  0  0  0
  5  4  2  0  0  0  0
  6  5  1  0  0  0  0
  7  2  1  0  0  0  0
 10 11  1  0  0  0  0
 10  9  1  0  0  0  0
 11 12  1  0  0  0  0
 13  9  1  0  0  0  0
 13 12  1  0  0  0  0
 14  1  1  0  0  0  0
 15 14  1  0  0  0  0
 16 14  1  0  0  0  0
 17 14  1  0  0  0  0
M  END
>  <minimizedAffinity>
-3.85135055

$$$$

 OpenBabel03252504453D

 17 18  0  0  0  0  0  0  0  0999 V2000
   39.4140   27.7090   42.8560 C   0  0  0  0  0  0  0  0  0  0  0  0
   38.4390   28.6080   43.3360 C   0  0  0  0  0  0  0  0  0  0  0  0
   37.0890   28.2010   43.2420 C   0  0  0  0  0  0  0  0  0  0  0  0
   36.8190   26.9840   42.7020 N   0  0  0  0  0  0  0  0  0  0  0  0
   37.8110   26.1560   42.2530 C   0  0  0  0  0  0  0  0  0  0  0  0
   39.0990   26.5300   42.3360 N   0  0  0  0  0  0  0  0  0  0  0  0
   38.6880   29.5700   43.7610 H   0  0  0  0  0  0  0  0  0  0  0  0
   36.3100   28.8560   43.5980 H   0  0  0  0  0  0  0  0  0  0  0  0
   37.4150   24.8730   41.6920 C   0  0  0  0  0  3  0  0  0  0  0  0
   38.5410   23.9490   41.3550 C   0  0  0  0  0  2  0  0  0  0  0  0
   37.7870   22.8160   40.6810 C   0  0  0  0  0  2  0  0  0  0  0  0
   36.5700   23.4600   40.0440 C   0  0  0  0  0  2  0  0  0  0  0  0
   36.6820   24.9480   40.3710 C   0  0  0  0  0  2  0  0  0  0  0  0
   40.8440   28.1540   42.9620 C   0  0  0  0  0  0  0  0  0  0  0  0
   41.4760   27.2370   42.8650 H   0  0  0  0  0  0  0  0  0  0  0  0
   40.9840   28.6480   43.9440 H   0  0  0  0  0  0  0  0  0  0  0  0
   41.0160   28.8640   42.1310 H   0  0  0  0  0  0  0  0  0  0  0  0
  1 14  1  0  0  0  0
  1  2  1  0  0  0  0
  2  7  1  0  0  0  0
  3  2  2  0  0  0  0
  3  8  1  0  0  0  0
  4  3  1  0  0  0  0
  5  6  1  0  0  0  0
  5  4  2  0  0  0  0
  6  1  2  0  0  0  0
  9  5  1  0  0  0  0
 10  9  1  0  0  0  0
 11 10  1  0  0  0  0
 12 13  1  0  0  0  0
 12 11  1  0  0  0  0
 13  9  1  0  0  0  0
 14 16  1  0  0  0  0
 15 14  1  0  0  0  0
 17 14  1  0  0  0  0
M  END
>  <minimizedAffinity>
-3.79471946

$$$$

 OpenBabel03252504453D

 17 18  0  0  0  0  0  0  0  0999 V2000
   35.0380   29.0570   38.3030 C   0  0  0  0  0  0  0  0  0  0  0  0
   36.0620   29.6800   37.5580 C   0  0  0  0  0  0  0  0  0  0  0  0
   37.2630   29.9730   38.2400 C   0  0  0  0  0  0  0  0  0  0  0  0
   37.3570   29.6400   39.5540 N   0  0  0  0  0  0  0  0  0  0  0  0
   36.3280   29.0360   40.2220 C   0  0  0  0  0  0  0  0  0  0  0  0
   35.1780   28.7510   39.5850 N   0  0  0  0  0  0  0  0  0  0  0  0
   35.9540   29.9320   36.5130 H   0  0  0  0  0  0  0  0  0  0  0  0
   38.0740   30.4490   37.7100 H   0  0  0  0  0  0  0  0  0  0  0  0
   36.5290   28.7200   41.6270 C   0  0  0  0  0  3  0  0  0  0  0  0
   37.7050   29.3820   42.2680 C   0  0  0  0  0  2  0  0  0  0  0  0
   37.6900   28.7280   43.6380 C   0  0  0  0  0  2  0  0  0  0  0  0
   37.0970   27.3480   43.4230 C   0  0  0  0  0  2  0  0  0  0  0  0
   36.8060   27.2630   41.9250 C   0  0  0  0  0  2  0  0  0  0  0  0
   33.7660   28.7510   37.5660 C   0  0  0  0  0  0  0  0  0  0  0  0
   33.2190   27.9870   38.1700 H   0  0  0  0  0  0  0  0  0  0  0  0
   34.0290   28.3680   36.5590 H   0  0  0  0  0  0  0  0  0  0  0  0
   33.2060   29.7020   37.4960 H   0  0  0  0  0  0  0  0  0  0  0  0
  1  6  1  0  0  0  0
  2  3  1  0  0  0  0
  2  1  2  0  0  0  0
  3  4  2  0  0  0  0
  4  5  1  0  0  0  0
  5  9  1  0  0  0  0
  6  5  2  0  0  0  0
  7  2  1  0  0  0  0
  8  3  1  0  0  0  0
  9 13  1  0  0  0  0
  9 10  1  0  0  0  0
 10 11  1  0  0  0  0
 12 11  1  0  0  0  0
 13 12  1  0  0  0  0
 14 15  1  0  0  0  0
 14  1  1  0  0  0  0
 16 14  1  0  0  0  0
 17 14  1  0  0  0  0
M  END
>  <minimizedAffinity>
-3.79139733

$$$$
