
 OpenBabel03252508263D

 37 41  0  0  1  0  0  0  0  0999 V2000
   46.3600   32.5250   45.9680 C   0  0  1  0  0  0  0  0  0  0  0  0
   46.9950   32.6560   47.2880 C   0  0  0  0  0  0  0  0  0  0  0  0
   45.5460   32.0660   47.0760 C   0  0  2  0  0  0  0  0  0  0  0  0
   47.0830   31.8770   45.3550 H   0  0  0  0  0  0  0  0  0  0  0  0
   47.0390   33.6100   47.8290 H   0  0  0  0  0  0  0  0  0  0  0  0
   47.6300   31.8760   47.7450 H   0  0  0  0  0  0  0  0  0  0  0  0
   44.9050   32.7520   47.7160 H   0  0  0  0  0  0  0  0  0  0  0  0
   45.2760   30.6660   47.4100 C   0  0  0  0  0  0  0  0  0  0  0  0
   45.1480   30.1190   48.6480 C   0  0  0  0  0  0  0  0  0  0  0  0
   45.0220   28.7640   48.9310 C   0  0  0  0  0  0  0  0  0  0  0  0
   45.0290   27.8950   47.8280 C   0  0  0  0  0  0  0  0  0  0  0  0
   45.1560   28.4340   46.5470 C   0  0  0  0  0  0  0  0  0  0  0  0
   45.0950   27.5400   45.4950 C   0  0  0  0  0  0  0  0  0  0  0  0
   45.1470   28.0330   44.1920 C   0  0  0  0  0  0  0  0  0  0  0  0
   45.2530   29.3880   43.9560 C   0  0  0  0  0  0  0  0  0  0  0  0
   45.3110   30.2270   45.0440 C   0  0  0  0  0  0  0  0  0  0  0  0
   45.2720   29.7860   46.3570 C   0  0  0  0  0  0  0  0  0  0  0  0
   45.1480   30.8350   49.4730 H   0  0  0  0  0  0  0  0  0  0  0  0
   44.9250   28.4120   49.9520 H   0  0  0  0  0  0  0  0  0  0  0  0
   44.9350   26.8440   48.0490 H   0  0  0  0  0  0  0  0  0  0  0  0
   45.0090   26.4750   45.7060 H   0  0  0  0  0  0  0  0  0  0  0  0
   45.0930   27.2360   43.4360 H   0  0  0  0  0  0  0  0  0  0  0  0
   45.2740   29.5660   42.9100 H   0  0  0  0  0  0  0  0  0  0  0  0
   45.3020   31.1900   44.6190 H   0  0  0  0  0  0  0  0  0  0  0  0
   44.5700   35.6090   45.0110 C   0  0  0  0  0  0  0  0  0  0  0  0
   45.1350   35.8950   43.7180 C   0  0  0  0  0  0  0  0  0  0  0  0
   46.1380   35.0070   43.2200 C   0  0  0  0  0  0  0  0  0  0  0  0
   46.5100   33.9570   43.9640 N   0  0  0  0  0  0  0  0  0  0  0  0
   45.9340   33.7290   45.1970 C   0  0  0  0  0  0  0  0  0  0  0  0
   44.9990   34.5300   45.6990 N   0  0  0  0  0  0  0  0  0  0  0  0
   43.8150   36.3010   45.3550 H   0  0  0  0  0  0  0  0  0  0  0  0
   44.8350   36.7310   43.1310 H   0  0  0  0  0  0  0  0  0  0  0  0
   46.7700   35.2270   41.9060 C   0  0  0  0  0  3  0  0  0  0  0  0
   48.2800   35.1400   41.9760 C   0  0  0  0  0  2  0  0  0  0  0  0
   48.6970   34.0910   40.9830 C   0  0  0  0  0  2  0  0  0  0  0  0
   47.5600   34.0430   39.9990 C   0  0  0  0  0  2  0  0  0  0  0  0
   46.3520   34.1790   40.8790 C   0  0  0  0  0  2  0  0  0  0  0  0
  1  4  1  6  0  0  0
  1  3  1  0  0  0  0
  1  2  1  0  0  0  0
  2  6  1  0  0  0  0
  2  5  1  0  0  0  0
  3  2  1  0  0  0  0
  3  8  1  0  0  0  0
  3  7  1  1  0  0  0
  8  9  1  0  0  0  0
  9 10  2  0  0  0  0
  9 18  1  0  0  0  0
 10 19  1  0  0  0  0
 11 20  1  0  0  0  0
 11 10  1  0  0  0  0
 12 11  2  0  0  0  0
 13 21  1  0  0  0  0
 13 12  1  0  0  0  0
 14 13  2  0  0  0  0
 15 14  1  0  0  0  0
 15 16  2  0  0  0  0
 16 17  1  0  0  0  0
 17 12  1  0  0  0  0
 17  8  2  0  0  0  0
 22 14  1  0  0  0  0
 23 15  1  0  0  0  0
 24 16  1  0  0  0  0
 25 31  1  0  0  0  0
 25 30  1  0  0  0  0
 26 25  2  0  0  0  0
 27 26  1  0  0  0  0
 27 28  2  0  0  0  0
 28 29  1  0  0  0  0
 29 30  2  0  0  0  0
 29  1  1  0  0  0  0
 32 26  1  0  0  0  0
 33 34  1  0  0  0  0
 33 27  1  0  0  0  0
 35 34  1  0  0  0  0
 36 37  1  0  0  0  0
 36 35  1  0  0  0  0
 37 33  1  0  0  0  0
M  END
>  <minimizedAffinity>
-5.97060966

>  <minimizedRMSD>
0.75453347

$$$$
