
 OpenBabel03242523543D

 41 44  0  0  1  0  0  0  0  0999 V2000
   42.8040   34.5050   38.7280 C   0  0  1  0  0  0  0  0  0  0  0  0
   42.9680   35.1770   40.0860 C   0  0  1  0  0  0  0  0  0  0  0  0
   41.6860   35.4180   40.6160 O   0  0  0  0  0  0  0  0  0  0  0  0
   40.7550   35.7640   39.6340 C   0  0  0  0  0  0  0  0  0  0  0  0
   40.4240   34.5940   38.7300 C   0  0  2  0  0  0  0  0  0  0  0  0
   41.6270   33.5910   38.8510 C   0  0  1  0  0  0  0  0  0  0  0  0
   43.7450   33.9640   38.4990 H   0  0  0  0  0  0  0  0  0  0  0  0
   43.5620   36.1000   40.0370 H   0  0  0  0  0  0  0  0  0  0  0  0
   41.0520   36.6730   39.0720 H   0  0  0  0  0  0  0  0  0  0  0  0
   39.8360   36.0270   40.1650 H   0  0  0  0  0  0  0  0  0  0  0  0
   39.5000   34.0620   39.0160 H   0  0  0  0  0  0  0  0  0  0  0  0
   41.4220   33.3160   39.9360 H   0  0  0  0  0  0  0  0  0  0  0  0
   42.5890   35.4560   37.7230 O   0  0  0  0  0  0  0  0  0  0  0  0
   43.4570   35.7520   37.4080 H   0  0  0  0  0  0  0  0  0  0  0  0
   40.4320   35.0070   37.4070 O   0  0  0  0  0  0  0  0  0  0  0  0
   39.9530   34.3840   36.8060 H   0  0  0  0  0  0  0  0  0  0  0  0
   43.5000   34.1860   40.9250 O   0  0  0  0  0  0  0  0  0  0  0  0
   44.6030   34.3280   41.6680 C   0  0  0  0  0  0  0  0  0  0  0  0
   45.8710   34.4280   41.0760 C   0  0  0  0  0  0  0  0  0  0  0  0
   46.9730   34.5750   41.9020 C   0  0  0  0  0  0  0  0  0  0  0  0
   46.7960   34.6210   43.2740 N   0  0  0  0  0  0  0  0  0  0  0  0
   45.5570   34.5220   43.8090 C   0  0  0  0  0  0  0  0  0  0  0  0
   44.4670   34.3760   43.0130 N   0  0  0  0  0  0  0  0  0  0  0  0
   45.9850   34.3880   40.0020 H   0  0  0  0  0  0  0  0  0  0  0  0
   45.4350   34.5590   44.8830 H   0  0  0  0  0  0  0  0  0  0  0  0
   48.3590   34.6770   41.3410 C   0  0  0  0  0  0  0  0  0  0  0  0
   49.0730   36.0160   41.5150 C   0  0  0  0  0  0  0  0  0  0  0  0
   49.4980   34.7150   42.2020 C   0  0  0  0  0  0  0  0  0  0  0  0
   48.4060   34.3360   40.2930 H   0  0  0  0  0  0  0  0  0  0  0  0
   48.6200   36.7690   42.1920 H   0  0  0  0  0  0  0  0  0  0  0  0
   49.7370   36.3810   40.7180 H   0  0  0  0  0  0  0  0  0  0  0  0
   49.3900   34.6780   43.3060 H   0  0  0  0  0  0  0  0  0  0  0  0
   50.4690   34.2940   41.8560 H   0  0  0  0  0  0  0  0  0  0  0  0
   41.4780   32.6560   37.8950 O   0  0  0  0  0  0  0  0  0  0  0  0
   40.7320   31.5240   37.9290 C   0  0  0  0  0  0  0  0  0  0  0  0
   39.5120   31.5150   37.4530 O   0  0  0  0  0  0  0  0  0  0  0  0
   40.6560   30.0810   38.3150 C   0  0  0  0  0  3  0  0  0  0  0  0
   41.9470   29.4420   37.7960 C   0  0  0  0  0  2  0  0  0  0  0  0
   41.6660   27.9890   38.1090 C   0  0  0  0  0  2  0  0  0  0  0  0
   40.2330   27.8540   37.6410 C   0  0  0  0  0  2  0  0  0  0  0  0
   39.6460   29.2650   37.6160 C   0  0  0  0  0  2  0  0  0  0  0  0
  1  7  1  6  0  0  0
  1  6  1  0  0  0  0
  1  2  1  0  0  0  0
  2  8  1  6  0  0  0
  2  3  1  0  0  0  0
  2 17  1  0  0  0  0
  4 10  1  0  0  0  0
  4  3  1  0  0  0  0
  5  6  1  0  0  0  0
  5 11  1  1  0  0  0
  5  4  1  0  0  0  0
  6 12  1  1  0  0  0
  9  4  1  0  0  0  0
 13  1  1  0  0  0  0
 14 13  1  0  0  0  0
 15  5  1  0  0  0  0
 16 15  1  0  0  0  0
 17 18  1  0  0  0  0
 18 23  1  0  0  0  0
 19 18  2  0  0  0  0
 19 20  1  0  0  0  0
 20 21  2  0  0  0  0
 21 22  1  0  0  0  0
 22 25  1  0  0  0  0
 23 22  2  0  0  0  0
 24 19  1  0  0  0  0
 26 27  1  0  0  0  0
 26 20  1  0  0  0  0
 26 28  1  0  0  0  0
 27 30  1  0  0  0  0
 27 28  1  0  0  0  0
 28 32  1  0  0  0  0
 29 26  1  0  0  0  0
 31 27  1  0  0  0  0
 33 28  1  0  0  0  0
 34 35  1  0  0  0  0
 34  6  1  0  0  0  0
 35 37  1  0  0  0  0
 36 35  2  0  0  0  0
 38 39  1  0  0  0  0
 38 37  1  0  0  0  0
 40 39  1  0  0  0  0
 41 40  1  0  0  0  0
 41 37  1  0  0  0  0
M  END
>  <minimizedAffinity>
-5.65031528

>  <minimizedRMSD>
0.210613623

$$$$
