
 OpenBabel03242523543D

 41 44  0  0  1  0  0  0  0  0999 V2000
   42.8180   34.5210   38.7530 C   0  0  1  0  0  0  0  0  0  0  0  0
   42.9550   35.1860   40.1160 C   0  0  1  0  0  0  0  0  0  0  0  0
   41.6630   35.4030   40.6330 O   0  0  0  0  0  0  0  0  0  0  0  0
   40.7390   35.7420   39.6410 C   0  0  0  0  0  0  0  0  0  0  0  0
   40.4370   34.5730   38.7260 C   0  0  2  0  0  0  0  0  0  0  0  0
   41.6540   33.5880   38.8550 C   0  0  1  0  0  0  0  0  0  0  0  0
   43.7700   33.9960   38.5310 H   0  0  0  0  0  0  0  0  0  0  0  0
   43.5350   36.1190   40.0810 H   0  0  0  0  0  0  0  0  0  0  0  0
   41.0290   36.6590   39.0890 H   0  0  0  0  0  0  0  0  0  0  0  0
   39.8090   35.9870   40.1640 H   0  0  0  0  0  0  0  0  0  0  0  0
   39.5180   34.0250   38.9970 H   0  0  0  0  0  0  0  0  0  0  0  0
   41.4400   33.3030   39.9360 H   0  0  0  0  0  0  0  0  0  0  0  0
   42.6000   35.4750   37.7510 O   0  0  0  0  0  0  0  0  0  0  0  0
   43.4680   35.7870   37.4490 H   0  0  0  0  0  0  0  0  0  0  0  0
   40.4540   34.9950   37.4060 O   0  0  0  0  0  0  0  0  0  0  0  0
   39.9920   34.3690   36.7960 H   0  0  0  0  0  0  0  0  0  0  0  0
   43.4920   34.1980   40.9560 O   0  0  0  0  0  0  0  0  0  0  0  0
   44.6010   34.3410   41.6890 C   0  0  0  0  0  0  0  0  0  0  0  0
   45.8650   34.4370   41.0870 C   0  0  0  0  0  0  0  0  0  0  0  0
   46.9740   34.5870   41.9040 C   0  0  0  0  0  0  0  0  0  0  0  0
   46.8070   34.6380   43.2770 N   0  0  0  0  0  0  0  0  0  0  0  0
   45.5720   34.5420   43.8220 C   0  0  0  0  0  0  0  0  0  0  0  0
   44.4760   34.3950   43.0350 N   0  0  0  0  0  0  0  0  0  0  0  0
   45.9700   34.3940   40.0120 H   0  0  0  0  0  0  0  0  0  0  0  0
   45.4580   34.5840   44.8970 H   0  0  0  0  0  0  0  0  0  0  0  0
   48.3550   34.6850   41.3330 C   0  0  0  0  0  0  0  0  0  0  0  0
   49.0760   36.0190   41.5070 C   0  0  0  0  0  0  0  0  0  0  0  0
   49.5020   34.7130   42.1840 C   0  0  0  0  0  0  0  0  0  0  0  0
   48.3920   34.3490   40.2820 H   0  0  0  0  0  0  0  0  0  0  0  0
   48.6330   36.7710   42.1910 H   0  0  0  0  0  0  0  0  0  0  0  0
   49.7360   36.3860   40.7070 H   0  0  0  0  0  0  0  0  0  0  0  0
   49.4020   34.6700   43.2880 H   0  0  0  0  0  0  0  0  0  0  0  0
   50.4670   34.2900   41.8270 H   0  0  0  0  0  0  0  0  0  0  0  0
   41.5300   32.6570   37.8910 O   0  0  0  0  0  0  0  0  0  0  0  0
   40.8440   31.4890   37.9280 C   0  0  0  0  0  0  0  0  0  0  0  0
   39.6220   31.4180   37.4590 O   0  0  0  0  0  0  0  0  0  0  0  0
   40.8440   30.0430   38.3110 C   0  0  0  0  0  3  0  0  0  0  0  0
   40.9050   29.2630   36.9950 C   0  0  0  0  0  2  0  0  0  0  0  0
   40.7410   27.8530   37.5180 C   0  0  0  0  0  2  0  0  0  0  0  0
   39.6180   28.0320   38.5170 C   0  0  0  0  0  2  0  0  0  0  0  0
   39.5940   29.5140   38.8880 C   0  0  0  0  0  2  0  0  0  0  0  0
  1  7  1  6  0  0  0
  1  6  1  0  0  0  0
  1  2  1  0  0  0  0
  2  8  1  6  0  0  0
  2  3  1  0  0  0  0
  2 17  1  0  0  0  0
  4 10  1  0  0  0  0
  4  3  1  0  0  0  0
  5  6  1  0  0  0  0
  5 11  1  1  0  0  0
  5  4  1  0  0  0  0
  6 12  1  1  0  0  0
  9  4  1  0  0  0  0
 13  1  1  0  0  0  0
 14 13  1  0  0  0  0
 15  5  1  0  0  0  0
 16 15  1  0  0  0  0
 17 18  1  0  0  0  0
 18 23  1  0  0  0  0
 19 18  2  0  0  0  0
 19 20  1  0  0  0  0
 20 21  2  0  0  0  0
 21 22  1  0  0  0  0
 22 25  1  0  0  0  0
 23 22  2  0  0  0  0
 24 19  1  0  0  0  0
 26 27  1  0  0  0  0
 26 20  1  0  0  0  0
 26 28  1  0  0  0  0
 27 28  1  0  0  0  0
 27 30  1  0  0  0  0
 28 32  1  0  0  0  0
 29 26  1  0  0  0  0
 31 27  1  0  0  0  0
 33 28  1  0  0  0  0
 34 35  1  0  0  0  0
 34  6  1  0  0  0  0
 35 37  1  0  0  0  0
 36 35  2  0  0  0  0
 37 41  1  0  0  0  0
 38 39  1  0  0  0  0
 38 37  1  0  0  0  0
 39 40  1  0  0  0  0
 40 41  1  0  0  0  0
M  END
>  <minimizedAffinity>
-5.72917891

>  <minimizedRMSD>
0.10928528

$$$$
