
 OpenBabel03242523543D

 41 44  0  0  1  0  0  0  0  0999 V2000
   42.8120   34.2930   39.0190 C   0  0  1  0  0  0  0  0  0  0  0  0
   43.0470   35.1720   40.2410 C   0  0  1  0  0  0  0  0  0  0  0  0
   41.8000   35.6600   40.6790 O   0  0  0  0  0  0  0  0  0  0  0  0
   40.9310   35.9370   39.6210 C   0  0  0  0  0  0  0  0  0  0  0  0
   40.4630   34.6740   38.9280 C   0  0  2  0  0  0  0  0  0  0  0  0
   41.5280   33.5680   39.2630 C   0  0  1  0  0  0  0  0  0  0  0  0
   43.6790   33.6080   38.9200 H   0  0  0  0  0  0  0  0  0  0  0  0
   43.7540   35.9920   40.0500 H   0  0  0  0  0  0  0  0  0  0  0  0
   41.3470   36.6870   38.9180 H   0  0  0  0  0  0  0  0  0  0  0  0
   40.0470   36.4020   40.0680 H   0  0  0  0  0  0  0  0  0  0  0  0
   39.4760   34.3200   39.2730 H   0  0  0  0  0  0  0  0  0  0  0  0
   41.2780   33.5200   40.3730 H   0  0  0  0  0  0  0  0  0  0  0  0
   42.7290   35.0680   37.8550 O   0  0  0  0  0  0  0  0  0  0  0  0
   43.6310   35.1940   37.5210 H   0  0  0  0  0  0  0  0  0  0  0  0
   40.5360   34.8390   37.5540 O   0  0  0  0  0  0  0  0  0  0  0  0
   39.9880   34.1820   37.0580 H   0  0  0  0  0  0  0  0  0  0  0  0
   43.4400   34.2900   41.2590 O   0  0  0  0  0  0  0  0  0  0  0  0
   44.6000   34.3590   41.9220 C   0  0  0  0  0  0  0  0  0  0  0  0
   45.8190   34.5010   41.2420 C   0  0  0  0  0  0  0  0  0  0  0  0
   46.9850   34.5680   41.9870 C   0  0  0  0  0  0  0  0  0  0  0  0
   46.9160   34.4970   43.3680 N   0  0  0  0  0  0  0  0  0  0  0  0
   45.7220   34.3600   43.9890 C   0  0  0  0  0  0  0  0  0  0  0  0
   44.5700   34.2920   43.2720 N   0  0  0  0  0  0  0  0  0  0  0  0
   45.8480   34.5540   40.1630 H   0  0  0  0  0  0  0  0  0  0  0  0
   45.6850   34.3060   45.0690 H   0  0  0  0  0  0  0  0  0  0  0  0
   48.3240   34.7080   41.3300 C   0  0  0  0  0  0  0  0  0  0  0  0
   49.0590   36.0290   41.5450 C   0  0  0  0  0  0  0  0  0  0  0  0
   49.5260   34.6810   42.0990 C   0  0  0  0  0  0  0  0  0  0  0  0
   48.2870   34.4460   40.2590 H   0  0  0  0  0  0  0  0  0  0  0  0
   48.6660   36.7320   42.3080 H   0  0  0  0  0  0  0  0  0  0  0  0
   49.6620   36.4510   40.7280 H   0  0  0  0  0  0  0  0  0  0  0  0
   49.5030   34.5620   43.2020 H   0  0  0  0  0  0  0  0  0  0  0  0
   50.4630   34.2840   41.6480 H   0  0  0  0  0  0  0  0  0  0  0  0
   41.2690   32.5020   38.4830 O   0  0  0  0  0  0  0  0  0  0  0  0
   40.3150   31.5530   38.6390 C   0  0  0  0  0  0  0  0  0  0  0  0
   39.7660   30.9810   37.5960 O   0  0  0  0  0  0  0  0  0  0  0  0
   39.4890   30.7460   39.5900 C   0  0  0  0  0  0  0  0  0  0  0  0
   38.2520   30.3090   38.8020 C   0  0  0  0  0  0  0  0  0  0  0  0
   37.4530   29.6540   39.9080 C   0  0  0  0  0  0  0  0  0  0  0  0
   37.6140   30.6590   41.0270 C   0  0  0  0  0  0  0  0  0  0  0  0
   38.8600   31.4810   40.7030 C   0  0  0  0  0  0  0  0  0  0  0  0
  1  7  1  6  0  0  0
  1  6  1  0  0  0  0
  1  2  1  0  0  0  0
  2  8  1  6  0  0  0
  2  3  1  0  0  0  0
  2 17  1  0  0  0  0
  4 10  1  0  0  0  0
  4  3  1  0  0  0  0
  5  6  1  0  0  0  0
  5 11  1  1  0  0  0
  5  4  1  0  0  0  0
  6 12  1  1  0  0  0
  9  4  1  0  0  0  0
 13  1  1  0  0  0  0
 14 13  1  0  0  0  0
 15  5  1  0  0  0  0
 16 15  1  0  0  0  0
 17 18  1  0  0  0  0
 18 23  1  0  0  0  0
 19 18  2  0  0  0  0
 19 20  1  0  0  0  0
 20 21  2  0  0  0  0
 21 22  1  0  0  0  0
 22 25  1  0  0  0  0
 23 22  2  0  0  0  0
 24 19  1  0  0  0  0
 26 27  1  0  0  0  0
 26 20  1  0  0  0  0
 26 28  1  0  0  0  0
 27 28  1  0  0  0  0
 27 30  1  0  0  0  0
 28 32  1  0  0  0  0
 29 26  1  0  0  0  0
 31 27  1  0  0  0  0
 33 28  1  0  0  0  0
 34 35  1  0  0  0  0
 34  6  1  0  0  0  0
 35 37  1  0  0  0  0
 36 35  2  0  0  0  0
 37 41  1  0  0  0  0
 38 37  1  0  0  0  0
 38 39  1  0  0  0  0
 39 40  1  0  0  0  0
 41 40  1  0  0  0  0
M  END
>  <minimizedAffinity>
-6.33586168

>  <minimizedRMSD>
1.42533708

$$$$
