
 OpenBabel03242523543D

 41 44  0  0  1  0  0  0  0  0999 V2000
   42.6790   34.4010   38.9330 C   0  0  1  0  0  0  0  0  0  0  0  0
   43.0170   35.1900   40.1920 C   0  0  1  0  0  0  0  0  0  0  0  0
   41.8130   35.6400   40.7670 O   0  0  0  0  0  0  0  0  0  0  0  0
   40.8590   35.9910   39.8080 C   0  0  0  0  0  0  0  0  0  0  0  0
   40.3320   34.7800   39.0670 C   0  0  2  0  0  0  0  0  0  0  0  0
   41.4180   33.6560   39.2300 C   0  0  1  0  0  0  0  0  0  0  0  0
   43.5330   33.7280   38.7120 H   0  0  0  0  0  0  0  0  0  0  0  0
   43.7080   36.0230   40.0020 H   0  0  0  0  0  0  0  0  0  0  0  0
   41.2170   36.7900   39.1290 H   0  0  0  0  0  0  0  0  0  0  0  0
   40.0170   36.4180   40.3600 H   0  0  0  0  0  0  0  0  0  0  0  0
   39.3760   34.3970   39.4660 H   0  0  0  0  0  0  0  0  0  0  0  0
   41.2620   33.5260   40.3500 H   0  0  0  0  0  0  0  0  0  0  0  0
   42.5010   35.2580   37.8400 O   0  0  0  0  0  0  0  0  0  0  0  0
   43.3730   35.4110   37.4420 H   0  0  0  0  0  0  0  0  0  0  0  0
   40.2900   35.0450   37.7060 O   0  0  0  0  0  0  0  0  0  0  0  0
   39.7010   34.4230   37.2110 H   0  0  0  0  0  0  0  0  0  0  0  0
   43.4920   34.2370   41.1070 O   0  0  0  0  0  0  0  0  0  0  0  0
   44.6260   34.3510   41.8060 C   0  0  0  0  0  0  0  0  0  0  0  0
   45.8680   34.4770   41.1640 C   0  0  0  0  0  0  0  0  0  0  0  0
   47.0050   34.5930   41.9470 C   0  0  0  0  0  0  0  0  0  0  0  0
   46.8880   34.5840   43.3260 N   0  0  0  0  0  0  0  0  0  0  0  0
   45.6730   34.4610   43.9100 C   0  0  0  0  0  0  0  0  0  0  0  0
   44.5490   34.3460   43.1560 N   0  0  0  0  0  0  0  0  0  0  0  0
   45.9350   34.4800   40.0850 H   0  0  0  0  0  0  0  0  0  0  0  0
   45.5970   34.4560   44.9890 H   0  0  0  0  0  0  0  0  0  0  0  0
   48.3650   34.7190   41.3320 C   0  0  0  0  0  0  0  0  0  0  0  0
   49.0860   36.0510   41.5280 C   0  0  0  0  0  0  0  0  0  0  0  0
   49.5410   34.7250   42.1430 C   0  0  0  0  0  0  0  0  0  0  0  0
   48.3670   34.4210   40.2690 H   0  0  0  0  0  0  0  0  0  0  0  0
   48.6630   36.7760   42.2530 H   0  0  0  0  0  0  0  0  0  0  0  0
   49.7150   36.4490   40.7180 H   0  0  0  0  0  0  0  0  0  0  0  0
   49.4800   34.6430   43.2480 H   0  0  0  0  0  0  0  0  0  0  0  0
   50.4950   34.3200   41.7380 H   0  0  0  0  0  0  0  0  0  0  0  0
   41.0930   32.6490   38.3980 O   0  0  0  0  0  0  0  0  0  0  0  0
   40.1810   31.6630   38.5820 C   0  0  0  0  0  0  0  0  0  0  0  0
   39.6170   31.0770   37.5550 O   0  0  0  0  0  0  0  0  0  0  0  0
   39.4200   30.8200   39.5560 C   0  0  0  0  0  3  0  0  0  0  0  0
   38.1970   30.3030   38.7940 C   0  0  0  0  0  2  0  0  0  0  0  0
   37.4570   29.6170   39.9210 C   0  0  0  0  0  2  0  0  0  0  0  0
   37.5780   30.6410   41.0270 C   0  0  0  0  0  2  0  0  0  0  0  0
   38.7680   31.5300   40.6730 C   0  0  0  0  0  2  0  0  0  0  0  0
  1  7  1  6  0  0  0
  1  6  1  0  0  0  0
  1  2  1  0  0  0  0
  2  8  1  6  0  0  0
  2  3  1  0  0  0  0
  2 17  1  0  0  0  0
  4 10  1  0  0  0  0
  4  3  1  0  0  0  0
  5  6  1  0  0  0  0
  5 11  1  1  0  0  0
  5  4  1  0  0  0  0
  6 12  1  1  0  0  0
  9  4  1  0  0  0  0
 13  1  1  0  0  0  0
 14 13  1  0  0  0  0
 15  5  1  0  0  0  0
 16 15  1  0  0  0  0
 17 18  1  0  0  0  0
 18 23  1  0  0  0  0
 19 18  2  0  0  0  0
 19 20  1  0  0  0  0
 20 21  2  0  0  0  0
 21 22  1  0  0  0  0
 22 25  1  0  0  0  0
 23 22  2  0  0  0  0
 24 19  1  0  0  0  0
 26 27  1  0  0  0  0
 26 20  1  0  0  0  0
 26 28  1  0  0  0  0
 27 28  1  0  0  0  0
 27 30  1  0  0  0  0
 28 32  1  0  0  0  0
 29 26  1  0  0  0  0
 31 27  1  0  0  0  0
 33 28  1  0  0  0  0
 34 35  1  0  0  0  0
 34  6  1  0  0  0  0
 35 37  1  0  0  0  0
 36 35  2  0  0  0  0
 37 41  1  0  0  0  0
 38 37  1  0  0  0  0
 38 39  1  0  0  0  0
 39 40  1  0  0  0  0
 41 40  1  0  0  0  0
M  END
>  <minimizedAffinity>
-6.32572889

>  <minimizedRMSD>
1.96433818

$$$$
