
 OpenBabel03242523543D

 41 44  0  0  1  0  0  0  0  0999 V2000
   42.8060   34.3380   38.9380 C   0  0  1  0  0  0  0  0  0  0  0  0
   42.9920   35.1610   40.2060 C   0  0  1  0  0  0  0  0  0  0  0  0
   41.7210   35.5500   40.6700 O   0  0  0  0  0  0  0  0  0  0  0  0
   40.8340   35.8330   39.6290 C   0  0  0  0  0  0  0  0  0  0  0  0
   40.4380   34.5840   38.8670 C   0  0  2  0  0  0  0  0  0  0  0  0
   41.5680   33.5260   39.1410 C   0  0  1  0  0  0  0  0  0  0  0  0
   43.7120   33.7110   38.8010 H   0  0  0  0  0  0  0  0  0  0  0  0
   43.6490   36.0300   40.0600 H   0  0  0  0  0  0  0  0  0  0  0  0
   41.2020   36.6420   38.9670 H   0  0  0  0  0  0  0  0  0  0  0  0
   39.9250   36.2190   40.1000 H   0  0  0  0  0  0  0  0  0  0  0  0
   39.4760   34.1530   39.1920 H   0  0  0  0  0  0  0  0  0  0  0  0
   41.3250   33.4030   40.2470 H   0  0  0  0  0  0  0  0  0  0  0  0
   42.6740   35.1680   37.8180 O   0  0  0  0  0  0  0  0  0  0  0  0
   43.5660   35.3660   37.4910 H   0  0  0  0  0  0  0  0  0  0  0  0
   40.4970   34.8280   37.5040 O   0  0  0  0  0  0  0  0  0  0  0  0
   39.9870   34.1670   36.9730 H   0  0  0  0  0  0  0  0  0  0  0  0
   43.4410   34.2490   41.1740 O   0  0  0  0  0  0  0  0  0  0  0  0
   44.5870   34.3610   41.8530 C   0  0  0  0  0  0  0  0  0  0  0  0
   45.8180   34.4790   41.1890 C   0  0  0  0  0  0  0  0  0  0  0  0
   46.9690   34.5930   41.9510 C   0  0  0  0  0  0  0  0  0  0  0  0
   46.8760   34.5890   43.3320 N   0  0  0  0  0  0  0  0  0  0  0  0
   45.6710   34.4730   43.9380 C   0  0  0  0  0  0  0  0  0  0  0  0
   44.5340   34.3600   43.2040 N   0  0  0  0  0  0  0  0  0  0  0  0
   45.8660   34.4790   40.1090 H   0  0  0  0  0  0  0  0  0  0  0  0
   45.6150   34.4710   45.0180 H   0  0  0  0  0  0  0  0  0  0  0  0
   48.3190   34.7120   41.3110 C   0  0  0  0  0  0  0  0  0  0  0  0
   49.0630   36.0290   41.5210 C   0  0  0  0  0  0  0  0  0  0  0  0
   49.5100   34.6830   42.0990 C   0  0  0  0  0  0  0  0  0  0  0  0
   48.2950   34.4360   40.2430 H   0  0  0  0  0  0  0  0  0  0  0  0
   48.6660   36.7450   42.2690 H   0  0  0  0  0  0  0  0  0  0  0  0
   49.6820   36.4340   40.7070 H   0  0  0  0  0  0  0  0  0  0  0  0
   49.4700   34.5790   43.2030 H   0  0  0  0  0  0  0  0  0  0  0  0
   50.4500   34.2720   41.6670 H   0  0  0  0  0  0  0  0  0  0  0  0
   41.3710   32.4910   38.3040 O   0  0  0  0  0  0  0  0  0  0  0  0
   40.4390   31.5100   38.3790 C   0  0  0  0  0  0  0  0  0  0  0  0
   39.8110   31.1030   37.3030 O   0  0  0  0  0  0  0  0  0  0  0  0
   39.6990   30.5430   39.2480 C   0  0  0  0  0  3  0  0  0  0  0  0
   38.2530   31.0470   39.2980 C   0  0  0  0  0  2  0  0  0  0  0  0
   37.6770   30.0870   40.3150 C   0  0  0  0  0  2  0  0  0  0  0  0
   38.7610   30.0800   41.3690 C   0  0  0  0  0  2  0  0  0  0  0  0
   40.0420   30.5530   40.6840 C   0  0  0  0  0  2  0  0  0  0  0  0
  1  7  1  6  0  0  0
  1  6  1  0  0  0  0
  1  2  1  0  0  0  0
  2  8  1  6  0  0  0
  2  3  1  0  0  0  0
  2 17  1  0  0  0  0
  4 10  1  0  0  0  0
  4  3  1  0  0  0  0
  5  6  1  0  0  0  0
  5 11  1  1  0  0  0
  5  4  1  0  0  0  0
  6 12  1  1  0  0  0
  9  4  1  0  0  0  0
 13  1  1  0  0  0  0
 14 13  1  0  0  0  0
 15  5  1  0  0  0  0
 16 15  1  0  0  0  0
 17 18  1  0  0  0  0
 18 23  1  0  0  0  0
 19 18  2  0  0  0  0
 19 20  1  0  0  0  0
 20 21  2  0  0  0  0
 21 22  1  0  0  0  0
 22 25  1  0  0  0  0
 23 22  2  0  0  0  0
 24 19  1  0  0  0  0
 26 27  1  0  0  0  0
 26 20  1  0  0  0  0
 26 28  1  0  0  0  0
 27 28  1  0  0  0  0
 27 30  1  0  0  0  0
 28 32  1  0  0  0  0
 29 26  1  0  0  0  0
 31 27  1  0  0  0  0
 33 28  1  0  0  0  0
 34 35  1  0  0  0  0
 34  6  1  0  0  0  0
 35 37  1  0  0  0  0
 36 35  2  0  0  0  0
 37 38  1  0  0  0  0
 37 41  1  0  0  0  0
 38 39  1  0  0  0  0
 39 40  1  0  0  0  0
 41 40  1  0  0  0  0
M  END
>  <minimizedAffinity>
-6.16806555

>  <minimizedRMSD>
1.32546949

$$$$
