
 OpenBabel03242523543D

 41 44  0  0  1  0  0  0  0  0999 V2000
   42.8160   34.5120   38.7530 C   0  0  1  0  0  0  0  0  0  0  0  0
   42.9550   35.1820   40.1140 C   0  0  1  0  0  0  0  0  0  0  0  0
   41.6640   35.4060   40.6290 O   0  0  0  0  0  0  0  0  0  0  0  0
   40.7410   35.7440   39.6370 C   0  0  0  0  0  0  0  0  0  0  0  0
   40.4350   34.5730   38.7260 C   0  0  2  0  0  0  0  0  0  0  0  0
   41.6490   33.5830   38.8590 C   0  0  1  0  0  0  0  0  0  0  0  0
   43.7660   33.9820   38.5340 H   0  0  0  0  0  0  0  0  0  0  0  0
   43.5390   36.1130   40.0740 H   0  0  0  0  0  0  0  0  0  0  0  0
   41.0340   36.6570   39.0800 H   0  0  0  0  0  0  0  0  0  0  0  0
   39.8120   35.9940   40.1580 H   0  0  0  0  0  0  0  0  0  0  0  0
   39.5140   34.0280   39.0000 H   0  0  0  0  0  0  0  0  0  0  0  0
   41.4330   33.3040   39.9420 H   0  0  0  0  0  0  0  0  0  0  0  0
   42.6010   35.4620   37.7470 O   0  0  0  0  0  0  0  0  0  0  0  0
   43.4700   35.7700   37.4430 H   0  0  0  0  0  0  0  0  0  0  0  0
   40.4530   34.9890   37.4040 O   0  0  0  0  0  0  0  0  0  0  0  0
   39.9900   34.3610   36.7970 H   0  0  0  0  0  0  0  0  0  0  0  0
   43.4890   34.1960   40.9570 O   0  0  0  0  0  0  0  0  0  0  0  0
   44.5980   34.3390   41.6900 C   0  0  0  0  0  0  0  0  0  0  0  0
   45.8620   34.4360   41.0870 C   0  0  0  0  0  0  0  0  0  0  0  0
   46.9710   34.5850   41.9030 C   0  0  0  0  0  0  0  0  0  0  0  0
   46.8060   34.6340   43.2760 N   0  0  0  0  0  0  0  0  0  0  0  0
   45.5710   34.5370   43.8230 C   0  0  0  0  0  0  0  0  0  0  0  0
   44.4740   34.3900   43.0360 N   0  0  0  0  0  0  0  0  0  0  0  0
   45.9660   34.3940   40.0120 H   0  0  0  0  0  0  0  0  0  0  0  0
   45.4590   34.5770   44.8970 H   0  0  0  0  0  0  0  0  0  0  0  0
   48.3520   34.6840   41.3300 C   0  0  0  0  0  0  0  0  0  0  0  0
   49.0740   36.0180   41.5090 C   0  0  0  0  0  0  0  0  0  0  0  0
   49.5000   34.7090   42.1810 C   0  0  0  0  0  0  0  0  0  0  0  0
   48.3880   34.3510   40.2790 H   0  0  0  0  0  0  0  0  0  0  0  0
   48.6310   36.7680   42.1950 H   0  0  0  0  0  0  0  0  0  0  0  0
   49.7330   36.3860   40.7080 H   0  0  0  0  0  0  0  0  0  0  0  0
   49.4010   34.6630   43.2850 H   0  0  0  0  0  0  0  0  0  0  0  0
   50.4640   34.2860   41.8220 H   0  0  0  0  0  0  0  0  0  0  0  0
   41.5220   32.6490   37.8990 O   0  0  0  0  0  0  0  0  0  0  0  0
   40.8220   31.4890   37.9370 C   0  0  0  0  0  0  0  0  0  0  0  0
   39.5960   31.4340   37.4800 O   0  0  0  0  0  0  0  0  0  0  0  0
   40.8090   30.0410   38.3140 C   0  0  0  0  0  3  0  0  0  0  0  0
   41.7340   29.9160   39.5290 C   0  0  0  0  0  2  0  0  0  0  0  0
   41.7490   28.4120   39.6940 C   0  0  0  0  0  2  0  0  0  0  0  0
   41.9220   27.9550   38.2630 C   0  0  0  0  0  2  0  0  0  0  0  0
   41.4650   29.1110   37.3750 C   0  0  0  0  0  2  0  0  0  0  0  0
  1  7  1  6  0  0  0
  1  6  1  0  0  0  0
  1  2  1  0  0  0  0
  2  8  1  6  0  0  0
  2  3  1  0  0  0  0
  2 17  1  0  0  0  0
  4 10  1  0  0  0  0
  4  3  1  0  0  0  0
  5  6  1  0  0  0  0
  5 11  1  1  0  0  0
  5  4  1  0  0  0  0
  6 12  1  1  0  0  0
  9  4  1  0  0  0  0
 13  1  1  0  0  0  0
 14 13  1  0  0  0  0
 15  5  1  0  0  0  0
 16 15  1  0  0  0  0
 17 18  1  0  0  0  0
 18 23  1  0  0  0  0
 19 18  2  0  0  0  0
 19 20  1  0  0  0  0
 20 21  2  0  0  0  0
 21 22  1  0  0  0  0
 22 25  1  0  0  0  0
 23 22  2  0  0  0  0
 24 19  1  0  0  0  0
 26 27  1  0  0  0  0
 26 20  1  0  0  0  0
 26 28  1  0  0  0  0
 27 28  1  0  0  0  0
 27 30  1  0  0  0  0
 28 32  1  0  0  0  0
 29 26  1  0  0  0  0
 31 27  1  0  0  0  0
 33 28  1  0  0  0  0
 34 35  1  0  0  0  0
 34  6  1  0  0  0  0
 35 37  1  0  0  0  0
 36 35  2  0  0  0  0
 37 38  1  0  0  0  0
 38 39  1  0  0  0  0
 40 39  1  0  0  0  0
 41 40  1  0  0  0  0
 41 37  1  0  0  0  0
M  END
>  <minimizedAffinity>
-5.62577343

>  <minimizedRMSD>
0.114182219

$$$$
