
 OpenBabel03242523543D

 41 44  0  0  1  0  0  0  0  0999 V2000
   42.8160   34.3690   38.9470 C   0  0  1  0  0  0  0  0  0  0  0  0
   43.0320   35.1950   40.2090 C   0  0  1  0  0  0  0  0  0  0  0  0
   41.7750   35.6250   40.6760 O   0  0  0  0  0  0  0  0  0  0  0  0
   40.8910   35.9250   39.6380 C   0  0  0  0  0  0  0  0  0  0  0  0
   40.4560   34.6830   38.8880 C   0  0  2  0  0  0  0  0  0  0  0  0
   41.5550   33.5950   39.1630 C   0  0  1  0  0  0  0  0  0  0  0  0
   43.7020   33.7150   38.8100 H   0  0  0  0  0  0  0  0  0  0  0  0
   43.7140   36.0440   40.0530 H   0  0  0  0  0  0  0  0  0  0  0  0
   41.2790   36.7190   38.9690 H   0  0  0  0  0  0  0  0  0  0  0  0
   39.9970   36.3420   40.1110 H   0  0  0  0  0  0  0  0  0  0  0  0
   39.4820   34.2830   39.2210 H   0  0  0  0  0  0  0  0  0  0  0  0
   41.3150   33.4870   40.2710 H   0  0  0  0  0  0  0  0  0  0  0  0
   42.7020   35.1950   37.8220 O   0  0  0  0  0  0  0  0  0  0  0  0
   43.5980   35.3640   37.4900 H   0  0  0  0  0  0  0  0  0  0  0  0
   40.5140   34.9160   37.5220 O   0  0  0  0  0  0  0  0  0  0  0  0
   39.9820   34.2670   36.9990 H   0  0  0  0  0  0  0  0  0  0  0  0
   43.4590   34.2780   41.1810 O   0  0  0  0  0  0  0  0  0  0  0  0
   44.6050   34.3690   41.8640 C   0  0  0  0  0  0  0  0  0  0  0  0
   45.8380   34.4920   41.2040 C   0  0  0  0  0  0  0  0  0  0  0  0
   46.9880   34.5840   41.9700 C   0  0  0  0  0  0  0  0  0  0  0  0
   46.8930   34.5530   43.3510 N   0  0  0  0  0  0  0  0  0  0  0  0
   45.6860   34.4330   43.9520 C   0  0  0  0  0  0  0  0  0  0  0  0
   44.5500   34.3410   43.2150 N   0  0  0  0  0  0  0  0  0  0  0  0
   45.8880   34.5130   40.1250 H   0  0  0  0  0  0  0  0  0  0  0  0
   45.6280   34.4100   45.0320 H   0  0  0  0  0  0  0  0  0  0  0  0
   48.3400   34.7060   41.3350 C   0  0  0  0  0  0  0  0  0  0  0  0
   49.0690   36.0340   41.5270 C   0  0  0  0  0  0  0  0  0  0  0  0
   49.5270   34.7030   42.1290 C   0  0  0  0  0  0  0  0  0  0  0  0
   48.3240   34.4130   40.2720 H   0  0  0  0  0  0  0  0  0  0  0  0
   48.6610   36.7580   42.2620 H   0  0  0  0  0  0  0  0  0  0  0  0
   49.6880   36.4330   40.7100 H   0  0  0  0  0  0  0  0  0  0  0  0
   49.4830   34.6160   43.2340 H   0  0  0  0  0  0  0  0  0  0  0  0
   50.4730   34.2950   41.7080 H   0  0  0  0  0  0  0  0  0  0  0  0
   41.3230   32.5600   38.3340 O   0  0  0  0  0  0  0  0  0  0  0  0
   40.3860   31.5870   38.4400 C   0  0  0  0  0  0  0  0  0  0  0  0
   39.8530   31.0550   37.3680 O   0  0  0  0  0  0  0  0  0  0  0  0
   39.5710   30.7210   39.3470 C   0  0  0  0  0  3  0  0  0  0  0  0
   38.3240   30.3350   38.5470 C   0  0  0  0  0  2  0  0  0  0  0  0
   37.5390   29.6100   39.6190 C   0  0  0  0  0  2  0  0  0  0  0  0
   37.7120   30.5420   40.7980 C   0  0  0  0  0  2  0  0  0  0  0  0
   38.9540   31.3840   40.5130 C   0  0  0  0  0  2  0  0  0  0  0  0
  1  7  1  6  0  0  0
  1  6  1  0  0  0  0
  1  2  1  0  0  0  0
  2  8  1  6  0  0  0
  2  3  1  0  0  0  0
  2 17  1  0  0  0  0
  4 10  1  0  0  0  0
  4  3  1  0  0  0  0
  5  6  1  0  0  0  0
  5 11  1  1  0  0  0
  5  4  1  0  0  0  0
  6 12  1  1  0  0  0
  9  4  1  0  0  0  0
 13  1  1  0  0  0  0
 14 13  1  0  0  0  0
 15  5  1  0  0  0  0
 16 15  1  0  0  0  0
 17 18  1  0  0  0  0
 18 23  1  0  0  0  0
 19 18  2  0  0  0  0
 19 20  1  0  0  0  0
 20 21  2  0  0  0  0
 21 22  1  0  0  0  0
 22 25  1  0  0  0  0
 23 22  2  0  0  0  0
 24 19  1  0  0  0  0
 26 27  1  0  0  0  0
 26 20  1  0  0  0  0
 26 28  1  0  0  0  0
 27 28  1  0  0  0  0
 27 30  1  0  0  0  0
 28 32  1  0  0  0  0
 29 26  1  0  0  0  0
 31 27  1  0  0  0  0
 33 28  1  0  0  0  0
 34 35  1  0  0  0  0
 34  6  1  0  0  0  0
 35 37  1  0  0  0  0
 36 35  2  0  0  0  0
 37 41  1  0  0  0  0
 38 37  1  0  0  0  0
 38 39  1  0  0  0  0
 39 40  1  0  0  0  0
 41 40  1  0  0  0  0
M  END
>  <minimizedAffinity>
-6.33018112

>  <minimizedRMSD>
1.1970588

$$$$
