
 OpenBabel03242523543D

 41 44  0  0  1  0  0  0  0  0999 V2000
   42.8270   34.3070   38.9970 C   0  0  1  0  0  0  0  0  0  0  0  0
   43.0160   35.1700   40.2380 C   0  0  1  0  0  0  0  0  0  0  0  0
   41.7460   35.5840   40.6850 O   0  0  0  0  0  0  0  0  0  0  0  0
   40.8640   35.8390   39.6330 C   0  0  0  0  0  0  0  0  0  0  0  0
   40.4610   34.5680   38.9120 C   0  0  2  0  0  0  0  0  0  0  0  0
   41.5820   33.5110   39.2240 C   0  0  1  0  0  0  0  0  0  0  0  0
   43.7280   33.6690   38.8830 H   0  0  0  0  0  0  0  0  0  0  0  0
   43.6800   36.0290   40.0650 H   0  0  0  0  0  0  0  0  0  0  0  0
   41.2400   36.6230   38.9460 H   0  0  0  0  0  0  0  0  0  0  0  0
   39.9570   36.2470   40.0890 H   0  0  0  0  0  0  0  0  0  0  0  0
   39.4940   34.1560   39.2480 H   0  0  0  0  0  0  0  0  0  0  0  0
   41.3350   33.4270   40.3320 H   0  0  0  0  0  0  0  0  0  0  0  0
   42.7040   35.1010   37.8500 O   0  0  0  0  0  0  0  0  0  0  0  0
   43.5990   35.2810   37.5200 H   0  0  0  0  0  0  0  0  0  0  0  0
   40.5250   34.7670   37.5410 O   0  0  0  0  0  0  0  0  0  0  0  0
   40.0120   34.0930   37.0310 H   0  0  0  0  0  0  0  0  0  0  0  0
   43.4540   34.2870   41.2370 O   0  0  0  0  0  0  0  0  0  0  0  0
   44.6100   34.4010   41.9000 C   0  0  0  0  0  0  0  0  0  0  0  0
   45.8310   34.5190   41.2200 C   0  0  0  0  0  0  0  0  0  0  0  0
   46.9930   34.6350   41.9660 C   0  0  0  0  0  0  0  0  0  0  0  0
   46.9180   34.6320   43.3480 N   0  0  0  0  0  0  0  0  0  0  0  0
   45.7220   34.5150   43.9700 C   0  0  0  0  0  0  0  0  0  0  0  0
   44.5750   34.4010   43.2520 N   0  0  0  0  0  0  0  0  0  0  0  0
   45.8650   34.5190   40.1390 H   0  0  0  0  0  0  0  0  0  0  0  0
   45.6800   34.5140   45.0510 H   0  0  0  0  0  0  0  0  0  0  0  0
   48.3340   34.7550   41.3080 C   0  0  0  0  0  0  0  0  0  0  0  0
   49.0910   36.0620   41.5290 C   0  0  0  0  0  0  0  0  0  0  0  0
   49.5360   34.7040   42.0770 C   0  0  0  0  0  0  0  0  0  0  0  0
   48.2920   34.4970   40.2360 H   0  0  0  0  0  0  0  0  0  0  0  0
   48.7110   36.7680   42.2950 H   0  0  0  0  0  0  0  0  0  0  0  0
   49.7020   36.4770   40.7130 H   0  0  0  0  0  0  0  0  0  0  0  0
   49.5110   34.5800   43.1800 H   0  0  0  0  0  0  0  0  0  0  0  0
   50.4660   34.2930   41.6240 H   0  0  0  0  0  0  0  0  0  0  0  0
   41.3790   32.4510   38.4200 O   0  0  0  0  0  0  0  0  0  0  0  0
   40.3300   31.5930   38.4030 C   0  0  0  0  0  0  0  0  0  0  0  0
   39.4510   31.6330   37.4310 O   0  0  0  0  0  0  0  0  0  0  0  0
   39.6180   30.4640   39.0790 C   0  0  0  0  0  3  0  0  0  0  0  0
   38.1570   30.9070   39.2060 C   0  0  0  0  0  2  0  0  0  0  0  0
   37.6080   29.7630   40.0280 C   0  0  0  0  0  2  0  0  0  0  0  0
   38.6900   29.5970   41.0720 C   0  0  0  0  0  2  0  0  0  0  0  0
   39.9560   30.2250   40.4940 C   0  0  0  0  0  2  0  0  0  0  0  0
  1  7  1  6  0  0  0
  1  6  1  0  0  0  0
  1  2  1  0  0  0  0
  2  8  1  6  0  0  0
  2  3  1  0  0  0  0
  2 17  1  0  0  0  0
  4 10  1  0  0  0  0
  4  3  1  0  0  0  0
  5  6  1  0  0  0  0
  5 11  1  1  0  0  0
  5  4  1  0  0  0  0
  6 12  1  1  0  0  0
  9  4  1  0  0  0  0
 13  1  1  0  0  0  0
 14 13  1  0  0  0  0
 15  5  1  0  0  0  0
 16 15  1  0  0  0  0
 17 18  1  0  0  0  0
 18 23  1  0  0  0  0
 19 18  2  0  0  0  0
 19 20  1  0  0  0  0
 20 21  2  0  0  0  0
 21 22  1  0  0  0  0
 22 25  1  0  0  0  0
 23 22  2  0  0  0  0
 24 19  1  0  0  0  0
 26 27  1  0  0  0  0
 26 20  1  0  0  0  0
 26 28  1  0  0  0  0
 27 28  1  0  0  0  0
 27 30  1  0  0  0  0
 28 32  1  0  0  0  0
 29 26  1  0  0  0  0
 31 27  1  0  0  0  0
 33 28  1  0  0  0  0
 34  6  1  0  0  0  0
 35 34  1  0  0  0  0
 35 37  1  0  0  0  0
 36 35  2  0  0  0  0
 37 38  1  0  0  0  0
 37 41  1  0  0  0  0
 38 39  1  0  0  0  0
 39 40  1  0  0  0  0
 41 40  1  0  0  0  0
M  END
>  <minimizedAffinity>
-6.12283945

>  <minimizedRMSD>
1.71657968

$$$$
