
 OpenBabel03242523543D

 41 44  0  0  1  0  0  0  0  0999 V2000
   42.8100   34.4970   38.7630 C   0  0  1  0  0  0  0  0  0  0  0  0
   42.9600   35.1830   40.1150 C   0  0  1  0  0  0  0  0  0  0  0  0
   41.6730   35.4270   40.6310 O   0  0  0  0  0  0  0  0  0  0  0  0
   40.7510   35.7610   39.6370 C   0  0  0  0  0  0  0  0  0  0  0  0
   40.4300   34.5810   38.7420 C   0  0  2  0  0  0  0  0  0  0  0  0
   41.6340   33.5820   38.8840 C   0  0  1  0  0  0  0  0  0  0  0  0
   43.7550   33.9560   38.5480 H   0  0  0  0  0  0  0  0  0  0  0  0
   43.5530   36.1080   40.0620 H   0  0  0  0  0  0  0  0  0  0  0  0
   41.0510   36.6650   39.0680 H   0  0  0  0  0  0  0  0  0  0  0  0
   39.8260   36.0270   40.1580 H   0  0  0  0  0  0  0  0  0  0  0  0
   39.5050   34.0500   39.0250 H   0  0  0  0  0  0  0  0  0  0  0  0
   41.4190   33.3180   39.9710 H   0  0  0  0  0  0  0  0  0  0  0  0
   42.6020   35.4370   37.7460 O   0  0  0  0  0  0  0  0  0  0  0  0
   43.4730   35.7320   37.4360 H   0  0  0  0  0  0  0  0  0  0  0  0
   40.4490   34.9810   37.4150 O   0  0  0  0  0  0  0  0  0  0  0  0
   39.9770   34.3500   36.8170 H   0  0  0  0  0  0  0  0  0  0  0  0
   43.4870   34.2020   40.9690 O   0  0  0  0  0  0  0  0  0  0  0  0
   44.5990   34.3440   41.6990 C   0  0  0  0  0  0  0  0  0  0  0  0
   45.8600   34.4410   41.0910 C   0  0  0  0  0  0  0  0  0  0  0  0
   46.9720   34.5890   41.9030 C   0  0  0  0  0  0  0  0  0  0  0  0
   46.8120   34.6360   43.2770 N   0  0  0  0  0  0  0  0  0  0  0  0
   45.5790   34.5390   43.8280 C   0  0  0  0  0  0  0  0  0  0  0  0
   44.4790   34.3940   43.0450 N   0  0  0  0  0  0  0  0  0  0  0  0
   45.9610   34.4010   40.0160 H   0  0  0  0  0  0  0  0  0  0  0  0
   45.4700   34.5780   44.9030 H   0  0  0  0  0  0  0  0  0  0  0  0
   48.3510   34.6880   41.3260 C   0  0  0  0  0  0  0  0  0  0  0  0
   49.0790   36.0180   41.5120 C   0  0  0  0  0  0  0  0  0  0  0  0
   49.5020   34.7030   42.1720 C   0  0  0  0  0  0  0  0  0  0  0  0
   48.3820   34.3640   40.2720 H   0  0  0  0  0  0  0  0  0  0  0  0
   48.6410   36.7640   42.2070 H   0  0  0  0  0  0  0  0  0  0  0  0
   49.7350   36.3910   40.7130 H   0  0  0  0  0  0  0  0  0  0  0  0
   49.4080   34.6470   43.2760 H   0  0  0  0  0  0  0  0  0  0  0  0
   50.4640   34.2790   41.8050 H   0  0  0  0  0  0  0  0  0  0  0  0
   41.4950   32.6370   37.9370 O   0  0  0  0  0  0  0  0  0  0  0  0
   40.7840   31.4850   37.9910 C   0  0  0  0  0  0  0  0  0  0  0  0
   39.5960   31.4070   37.4440 O   0  0  0  0  0  0  0  0  0  0  0  0
   40.7280   30.0630   38.4530 C   0  0  0  0  0  3  0  0  0  0  0  0
   42.1350   29.7340   38.9620 C   0  0  0  0  0  2  0  0  0  0  0  0
   41.9740   28.2560   39.2410 C   0  0  0  0  0  2  0  0  0  0  0  0
   41.2330   27.7970   38.0040 C   0  0  0  0  0  2  0  0  0  0  0  0
   40.5690   29.0350   37.4060 C   0  0  0  0  0  2  0  0  0  0  0  0
  1  7  1  6  0  0  0
  1  6  1  0  0  0  0
  1  2  1  0  0  0  0
  2  8  1  6  0  0  0
  2  3  1  0  0  0  0
  2 17  1  0  0  0  0
  4 10  1  0  0  0  0
  4  3  1  0  0  0  0
  5  6  1  0  0  0  0
  5 11  1  1  0  0  0
  5  4  1  0  0  0  0
  6 12  1  1  0  0  0
  9  4  1  0  0  0  0
 13  1  1  0  0  0  0
 14 13  1  0  0  0  0
 15  5  1  0  0  0  0
 16 15  1  0  0  0  0
 17 18  1  0  0  0  0
 18 23  1  0  0  0  0
 19 18  2  0  0  0  0
 19 20  1  0  0  0  0
 20 21  2  0  0  0  0
 21 22  1  0  0  0  0
 22 25  1  0  0  0  0
 23 22  2  0  0  0  0
 24 19  1  0  0  0  0
 26 27  1  0  0  0  0
 26 20  1  0  0  0  0
 26 28  1  0  0  0  0
 27 28  1  0  0  0  0
 27 30  1  0  0  0  0
 28 32  1  0  0  0  0
 29 26  1  0  0  0  0
 31 27  1  0  0  0  0
 33 28  1  0  0  0  0
 34 35  1  0  0  0  0
 34  6  1  0  0  0  0
 35 37  1  0  0  0  0
 36 35  2  0  0  0  0
 37 38  1  0  0  0  0
 38 39  1  0  0  0  0
 40 39  1  0  0  0  0
 41 40  1  0  0  0  0
 41 37  1  0  0  0  0
M  END
>  <minimizedAffinity>
-5.61493206

>  <minimizedRMSD>
0.195694298

$$$$
