
 OpenBabel03242523543D

 41 44  0  0  1  0  0  0  0  0999 V2000
   42.6560   34.4580   38.8630 C   0  0  1  0  0  0  0  0  0  0  0  0
   42.9960   35.1780   40.1620 C   0  0  1  0  0  0  0  0  0  0  0  0
   41.7920   35.5550   40.7860 O   0  0  0  0  0  0  0  0  0  0  0  0
   40.8080   35.9340   39.8690 C   0  0  0  0  0  0  0  0  0  0  0  0
   40.3010   34.7550   39.0640 C   0  0  2  0  0  0  0  0  0  0  0  0
   41.4240   33.6570   39.1360 C   0  0  1  0  0  0  0  0  0  0  0  0
   43.5250   33.8270   38.5850 H   0  0  0  0  0  0  0  0  0  0  0  0
   43.6580   36.0430   40.0120 H   0  0  0  0  0  0  0  0  0  0  0  0
   41.1280   36.7850   39.2340 H   0  0  0  0  0  0  0  0  0  0  0  0
   39.9650   36.3010   40.4620 H   0  0  0  0  0  0  0  0  0  0  0  0
   39.3660   34.3200   39.4560 H   0  0  0  0  0  0  0  0  0  0  0  0
   41.2940   33.4550   40.2490 H   0  0  0  0  0  0  0  0  0  0  0  0
   42.4300   35.3750   37.8290 O   0  0  0  0  0  0  0  0  0  0  0  0
   43.2890   35.5790   37.4250 H   0  0  0  0  0  0  0  0  0  0  0  0
   40.2240   35.1020   37.7240 O   0  0  0  0  0  0  0  0  0  0  0  0
   39.6440   34.4950   37.2020 H   0  0  0  0  0  0  0  0  0  0  0  0
   43.5180   34.1860   41.0070 O   0  0  0  0  0  0  0  0  0  0  0  0
   44.6340   34.3120   41.7320 C   0  0  0  0  0  0  0  0  0  0  0  0
   45.8900   34.4390   41.1180 C   0  0  0  0  0  0  0  0  0  0  0  0
   47.0080   34.5670   41.9260 C   0  0  0  0  0  0  0  0  0  0  0  0
   46.8580   34.5690   43.3020 N   0  0  0  0  0  0  0  0  0  0  0  0
   45.6310   34.4440   43.8590 C   0  0  0  0  0  0  0  0  0  0  0  0
   44.5260   34.3170   43.0800 N   0  0  0  0  0  0  0  0  0  0  0  0
   45.9830   34.4340   40.0410 H   0  0  0  0  0  0  0  0  0  0  0  0
   45.5300   34.4470   44.9350 H   0  0  0  0  0  0  0  0  0  0  0  0
   48.3820   34.6960   41.3420 C   0  0  0  0  0  0  0  0  0  0  0  0
   49.0810   36.0420   41.5230 C   0  0  0  0  0  0  0  0  0  0  0  0
   49.5360   34.7360   42.1820 C   0  0  0  0  0  0  0  0  0  0  0  0
   48.4140   34.3720   40.2870 H   0  0  0  0  0  0  0  0  0  0  0  0
   48.6310   36.7780   42.2200 H   0  0  0  0  0  0  0  0  0  0  0  0
   49.7250   36.4280   40.7200 H   0  0  0  0  0  0  0  0  0  0  0  0
   49.4490   34.6800   43.2860 H   0  0  0  0  0  0  0  0  0  0  0  0
   50.5050   34.3340   41.8100 H   0  0  0  0  0  0  0  0  0  0  0  0
   41.1110   32.6940   38.2500 O   0  0  0  0  0  0  0  0  0  0  0  0
   40.0350   31.8720   38.2420 C   0  0  0  0  0  0  0  0  0  0  0  0
   39.0050   32.1290   37.4730 O   0  0  0  0  0  0  0  0  0  0  0  0
   39.3970   30.6310   38.7810 C   0  0  0  0  0  3  0  0  0  0  0  0
   38.5980   30.0330   37.6210 C   0  0  0  0  0  2  0  0  0  0  0  0
   37.8970   28.9000   38.3400 C   0  0  0  0  0  2  0  0  0  0  0  0
   37.4430   29.5880   39.6090 C   0  0  0  0  0  2  0  0  0  0  0  0
   38.3300   30.8200   39.7820 C   0  0  0  0  0  2  0  0  0  0  0  0
  1  7  1  6  0  0  0
  1  6  1  0  0  0  0
  1  2  1  0  0  0  0
  2  8  1  6  0  0  0
  2  3  1  0  0  0  0
  2 17  1  0  0  0  0
  4 10  1  0  0  0  0
  4  3  1  0  0  0  0
  5  6  1  0  0  0  0
  5 11  1  1  0  0  0
  5  4  1  0  0  0  0
  6 12  1  1  0  0  0
  9  4  1  0  0  0  0
 13  1  1  0  0  0  0
 14 13  1  0  0  0  0
 15  5  1  0  0  0  0
 16 15  1  0  0  0  0
 17 18  1  0  0  0  0
 18 23  1  0  0  0  0
 19 18  2  0  0  0  0
 19 20  1  0  0  0  0
 20 21  2  0  0  0  0
 21 22  1  0  0  0  0
 22 25  1  0  0  0  0
 23 22  2  0  0  0  0
 24 19  1  0  0  0  0
 26 27  1  0  0  0  0
 26 20  1  0  0  0  0
 26 28  1  0  0  0  0
 27 28  1  0  0  0  0
 27 30  1  0  0  0  0
 28 32  1  0  0  0  0
 29 26  1  0  0  0  0
 31 27  1  0  0  0  0
 33 28  1  0  0  0  0
 34  6  1  0  0  0  0
 35 34  1  0  0  0  0
 35 37  1  0  0  0  0
 36 35  2  0  0  0  0
 37 41  1  0  0  0  0
 38 39  1  0  0  0  0
 38 37  1  0  0  0  0
 39 40  1  0  0  0  0
 40 41  1  0  0  0  0
M  END
>  <minimizedAffinity>
-6.23721075

>  <minimizedRMSD>
1.14680481

$$$$
