
 OpenBabel03242523563D

 41 44  0  0  1  0  0  0  0  0999 V2000
   37.8390   29.2400   42.3860 C   0  0  1  0  0  0  0  0  0  0  0  0
   39.3190   28.8940   42.4900 C   0  0  1  0  0  0  0  0  0  0  0  0
   39.4340   27.5080   42.7110 O   0  0  0  0  0  0  0  0  0  0  0  0
   38.4140   27.0080   43.5240 C   0  0  0  0  0  0  0  0  0  0  0  0
   37.0710   27.0280   42.8220 C   0  0  2  0  0  0  0  0  0  0  0  0
   37.1890   28.0960   41.6760 C   0  0  1  0  0  0  0  0  0  0  0  0
   37.7490   30.1960   41.8300 H   0  0  0  0  0  0  0  0  0  0  0  0
   39.8390   29.4690   43.2690 H   0  0  0  0  0  0  0  0  0  0  0  0
   38.3880   27.4970   44.5190 H   0  0  0  0  0  0  0  0  0  0  0  0
   38.6610   25.9590   43.7100 H   0  0  0  0  0  0  0  0  0  0  0  0
   36.7960   26.0610   42.3670 H   0  0  0  0  0  0  0  0  0  0  0  0
   37.9420   27.5020   41.0620 H   0  0  0  0  0  0  0  0  0  0  0  0
   37.2770   29.4160   43.6560 O   0  0  0  0  0  0  0  0  0  0  0  0
   37.4160   30.3410   43.9140 H   0  0  0  0  0  0  0  0  0  0  0  0
   36.1020   27.5260   43.6790 O   0  0  0  0  0  0  0  0  0  0  0  0
   35.1830   27.2990   43.3930 H   0  0  0  0  0  0  0  0  0  0  0  0
   39.8310   29.0730   41.1960 O   0  0  0  0  0  0  0  0  0  0  0  0
   40.4000   30.1980   40.7500 C   0  0  0  0  0  0  0  0  0  0  0  0
   40.6090   30.4140   39.3790 C   0  0  0  0  0  0  0  0  0  0  0  0
   41.2010   31.6020   38.9820 C   0  0  0  0  0  0  0  0  0  0  0  0
   41.5670   32.5340   39.9380 N   0  0  0  0  0  0  0  0  0  0  0  0
   41.3500   32.2910   41.2520 C   0  0  0  0  0  0  0  0  0  0  0  0
   40.7700   31.1310   41.6560 N   0  0  0  0  0  0  0  0  0  0  0  0
   40.3160   29.6720   38.6510 H   0  0  0  0  0  0  0  0  0  0  0  0
   41.6410   33.0290   41.9870 H   0  0  0  0  0  0  0  0  0  0  0  0
   41.4660   31.8970   37.5380 C   0  0  0  0  0  0  0  0  0  0  0  0
   42.2190   33.1890   37.2280 C   0  0  0  0  0  0  0  0  0  0  0  0
   42.7820   31.7850   36.9940 C   0  0  0  0  0  0  0  0  0  0  0  0
   40.5510   31.8160   36.9260 H   0  0  0  0  0  0  0  0  0  0  0  0
   42.6860   33.7400   38.0700 H   0  0  0  0  0  0  0  0  0  0  0  0
   41.9600   33.7630   36.3260 H   0  0  0  0  0  0  0  0  0  0  0  0
   43.6430   31.4830   37.6240 H   0  0  0  0  0  0  0  0  0  0  0  0
   42.9170   31.5030   35.9250 H   0  0  0  0  0  0  0  0  0  0  0  0
   35.9550   28.3050   41.1820 O   0  0  0  0  0  0  0  0  0  0  0  0
   35.5570   29.2140   40.2600 C   0  0  0  0  0  0  0  0  0  0  0  0
   34.3230   29.2190   39.8170 O   0  0  0  0  0  0  0  0  0  0  0  0
   35.9330   30.3760   39.3970 C   0  0  0  0  0  3  0  0  0  0  0  0
   37.0160   29.8600   38.4470 C   0  0  0  0  0  2  0  0  0  0  0  0
   37.4030   31.1520   37.7610 C   0  0  0  0  0  2  0  0  0  0  0  0
   37.4840   32.1000   38.9360 C   0  0  0  0  0  2  0  0  0  0  0  0
   36.6540   31.4800   40.0590 C   0  0  0  0  0  2  0  0  0  0  0  0
  1  7  1  6  0  0  0
  1  2  1  0  0  0  0
  1 13  1  0  0  0  0
  2  3  1  0  0  0  0
  2  8  1  1  0  0  0
  3  4  1  0  0  0  0
  4 10  1  0  0  0  0
  4  9  1  0  0  0  0
  5 11  1  6  0  0  0
  5  4  1  0  0  0  0
  5 15  1  0  0  0  0
  6 12  1  6  0  0  0
  6  1  1  0  0  0  0
  6  5  1  0  0  0  0
 13 14  1  0  0  0  0
 16 15  1  0  0  0  0
 17  2  1  0  0  0  0
 18 17  1  0  0  0  0
 18 23  1  0  0  0  0
 19 18  2  0  0  0  0
 20 19  1  0  0  0  0
 20 21  2  0  0  0  0
 21 22  1  0  0  0  0
 22 23  2  0  0  0  0
 22 25  1  0  0  0  0
 24 19  1  0  0  0  0
 26 20  1  0  0  0  0
 27 26  1  0  0  0  0
 27 30  1  0  0  0  0
 28 27  1  0  0  0  0
 28 26  1  0  0  0  0
 28 32  1  0  0  0  0
 29 26  1  0  0  0  0
 31 27  1  0  0  0  0
 33 28  1  0  0  0  0
 34  6  1  0  0  0  0
 35 34  1  0  0  0  0
 36 35  2  0  0  0  0
 37 41  1  0  0  0  0
 37 35  1  0  0  0  0
 38 37  1  0  0  0  0
 39 38  1  0  0  0  0
 39 40  1  0  0  0  0
 40 41  1  0  0  0  0
M  END
>  <minimizedAffinity>
-5.85241032

$$$$

 OpenBabel03242523563D

 41 44  0  0  1  0  0  0  0  0999 V2000
   37.2750   31.7310   39.9010 C   0  0  1  0  0  0  0  0  0  0  0  0
   37.6570   31.7610   38.4260 C   0  0  1  0  0  0  0  0  0  0  0  0
   39.0170   32.1150   38.3310 O   0  0  0  0  0  0  0  0  0  0  0  0
   39.3990   33.0460   39.2990 C   0  0  0  0  0  0  0  0  0  0  0  0
   39.4050   32.4460   40.6900 C   0  0  2  0  0  0  0  0  0  0  0  0
   38.4620   31.1910   40.6320 C   0  0  1  0  0  0  0  0  0  0  0  0
   36.3770   31.0880   40.0080 H   0  0  0  0  0  0  0  0  0  0  0  0
   37.0250   32.4380   37.8340 H   0  0  0  0  0  0  0  0  0  0  0  0
   38.8120   33.9850   39.2370 H   0  0  0  0  0  0  0  0  0  0  0  0
   40.4320   33.3210   39.0660 H   0  0  0  0  0  0  0  0  0  0  0  0
   40.4030   32.1130   41.0240 H   0  0  0  0  0  0  0  0  0  0  0  0
   39.1390   30.5880   39.9430 H   0  0  0  0  0  0  0  0  0  0  0  0
   36.9530   33.0140   40.3610 O   0  0  0  0  0  0  0  0  0  0  0  0
   36.0120   33.1640   40.1780 H   0  0  0  0  0  0  0  0  0  0  0  0
   38.7910   33.3160   41.5780 O   0  0  0  0  0  0  0  0  0  0  0  0
   39.0150   33.1230   42.5220 H   0  0  0  0  0  0  0  0  0  0  0  0
   37.6260   30.4220   38.0100 O   0  0  0  0  0  0  0  0  0  0  0  0
   36.7270   29.9070   37.1650 C   0  0  0  0  0  0  0  0  0  0  0  0
   35.6860   29.0840   37.6230 C   0  0  0  0  0  0  0  0  0  0  0  0
   34.7850   28.5840   36.6970 C   0  0  0  0  0  0  0  0  0  0  0  0
   34.9340   28.9060   35.3590 N   0  0  0  0  0  0  0  0  0  0  0  0
   35.9510   29.7030   34.9540 C   0  0  0  0  0  0  0  0  0  0  0  0
   36.8420   30.2000   35.8500 N   0  0  0  0  0  0  0  0  0  0  0  0
   35.5900   28.8460   38.6730 H   0  0  0  0  0  0  0  0  0  0  0  0
   36.0540   29.9460   33.9050 H   0  0  0  0  0  0  0  0  0  0  0  0
   33.6560   27.6910   37.1100 C   0  0  0  0  0  0  0  0  0  0  0  0
   32.7970   27.1090   35.9900 C   0  0  0  0  0  0  0  0  0  0  0  0
   33.7170   26.2810   36.8920 C   0  0  0  0  0  0  0  0  0  0  0  0
   33.0280   28.1550   37.8910 H   0  0  0  0  0  0  0  0  0  0  0  0
   33.1510   27.2180   34.9450 H   0  0  0  0  0  0  0  0  0  0  0  0
   31.7170   26.9770   36.1510 H   0  0  0  0  0  0  0  0  0  0  0  0
   34.5960   25.8090   36.4070 H   0  0  0  0  0  0  0  0  0  0  0  0
   33.1950   25.5900   37.5910 H   0  0  0  0  0  0  0  0  0  0  0  0
   38.2630   30.7700   41.8950 O   0  0  0  0  0  0  0  0  0  0  0  0
   37.8300   29.5590   42.3230 C   0  0  0  0  0  0  0  0  0  0  0  0
   38.0810   29.1550   43.5440 O   0  0  0  0  0  0  0  0  0  0  0  0
   37.0940   28.2990   41.9940 C   0  0  0  0  0  3  0  0  0  0  0  0
   37.7210   27.2080   42.8650 C   0  0  0  0  0  2  0  0  0  0  0  0
   37.0030   25.9920   42.3210 C   0  0  0  0  0  2  0  0  0  0  0  0
   37.0810   26.2410   40.8320 C   0  0  0  0  0  2  0  0  0  0  0  0
   37.3180   27.7380   40.6480 C   0  0  0  0  0  2  0  0  0  0  0  0
  1  7  1  1  0  0  0
  1 13  1  0  0  0  0
  1  6  1  0  0  0  0
  2  8  1  6  0  0  0
  2  1  1  0  0  0  0
  3  2  1  0  0  0  0
  3  4  1  0  0  0  0
  4  5  1  0  0  0  0
  5 11  1  1  0  0  0
  5 15  1  0  0  0  0
  6 12  1  6  0  0  0
  6  5  1  0  0  0  0
  6 34  1  0  0  0  0
  9  4  1  0  0  0  0
 10  4  1  0  0  0  0
 14 13  1  0  0  0  0
 15 16  1  0  0  0  0
 17  2  1  0  0  0  0
 18 19  1  0  0  0  0
 18 17  1  0  0  0  0
 19 24  1  0  0  0  0
 20 26  1  0  0  0  0
 20 19  2  0  0  0  0
 21 20  1  0  0  0  0
 22 21  2  0  0  0  0
 22 23  1  0  0  0  0
 23 18  2  0  0  0  0
 25 22  1  0  0  0  0
 26 29  1  0  0  0  0
 27 31  1  0  0  0  0
 27 28  1  0  0  0  0
 27 26  1  0  0  0  0
 28 26  1  0  0  0  0
 28 33  1  0  0  0  0
 30 27  1  0  0  0  0
 32 28  1  0  0  0  0
 34 35  1  0  0  0  0
 35 36  2  0  0  0  0
 37 35  1  0  0  0  0
 37 38  1  0  0  0  0
 39 38  1  0  0  0  0
 40 39  1  0  0  0  0
 41 40  1  0  0  0  0
 41 37  1  0  0  0  0
M  END
>  <minimizedAffinity>
-5.84398794

$$$$

 OpenBabel03242523563D

 41 44  0  0  1  0  0  0  0  0999 V2000
   37.1200   30.7270   40.1380 C   0  0  1  0  0  0  0  0  0  0  0  0
   36.7850   30.3920   38.6900 C   0  0  1  0  0  0  0  0  0  0  0  0
   37.3640   31.3750   37.8640 O   0  0  0  0  0  0  0  0  0  0  0  0
   37.3340   32.6460   38.4410 C   0  0  0  0  0  0  0  0  0  0  0  0
   38.2690   32.7500   39.6290 C   0  0  2  0  0  0  0  0  0  0  0  0
   38.5090   31.2810   40.1310 C   0  0  1  0  0  0  0  0  0  0  0  0
   37.0320   29.7960   40.7340 H   0  0  0  0  0  0  0  0  0  0  0  0
   35.7040   30.3020   38.5100 H   0  0  0  0  0  0  0  0  0  0  0  0
   36.3030   32.9800   38.6740 H   0  0  0  0  0  0  0  0  0  0  0  0
   37.7090   33.3350   37.6790 H   0  0  0  0  0  0  0  0  0  0  0  0
   39.2490   33.1950   39.3830 H   0  0  0  0  0  0  0  0  0  0  0  0
   39.0860   30.9510   39.2070 H   0  0  0  0  0  0  0  0  0  0  0  0
   36.2170   31.6650   40.6540 O   0  0  0  0  0  0  0  0  0  0  0  0
   35.4540   31.1770   41.0030 H   0  0  0  0  0  0  0  0  0  0  0  0
   37.6250   33.3880   40.6780 O   0  0  0  0  0  0  0  0  0  0  0  0
   38.2520   33.7380   41.3580 H   0  0  0  0  0  0  0  0  0  0  0  0
   37.5210   29.2320   38.4010 O   0  0  0  0  0  0  0  0  0  0  0  0
   37.1010   27.9850   38.6370 C   0  0  0  0  0  0  0  0  0  0  0  0
   37.6830   27.1980   39.6420 C   0  0  0  0  0  0  0  0  0  0  0  0
   37.2010   25.9140   39.8370 C   0  0  0  0  0  0  0  0  0  0  0  0
   36.1670   25.4470   39.0430 N   0  0  0  0  0  0  0  0  0  0  0  0
   35.6290   26.2350   38.0830 C   0  0  0  0  0  0  0  0  0  0  0  0
   36.0920   27.4950   37.8800 N   0  0  0  0  0  0  0  0  0  0  0  0
   38.4900   27.5840   40.2490 H   0  0  0  0  0  0  0  0  0  0  0  0
   34.8230   25.8550   37.4710 H   0  0  0  0  0  0  0  0  0  0  0  0
   37.7810   25.0130   40.8830 C   0  0  0  0  0  0  0  0  0  0  0  0
   36.8030   24.4190   41.8950 C   0  0  0  0  0  0  0  0  0  0  0  0
   37.5590   23.6030   40.8440 C   0  0  0  0  0  0  0  0  0  0  0  0
   38.6450   25.4740   41.3910 H   0  0  0  0  0  0  0  0  0  0  0  0
   35.7160   24.5280   41.7030 H   0  0  0  0  0  0  0  0  0  0  0  0
   37.1240   24.2790   42.9380 H   0  0  0  0  0  0  0  0  0  0  0  0
   36.9480   23.1370   40.0430 H   0  0  0  0  0  0  0  0  0  0  0  0
   38.3300   22.9090   41.2490 H   0  0  0  0  0  0  0  0  0  0  0  0
   39.1440   31.3510   41.3150 O   0  0  0  0  0  0  0  0  0  0  0  0
   39.4760   30.3430   42.1570 C   0  0  0  0  0  0  0  0  0  0  0  0
   40.7230   29.9600   42.2800 O   0  0  0  0  0  0  0  0  0  0  0  0
   39.0050   29.3270   43.1480 C   0  0  0  0  0  3  0  0  0  0  0  0
   39.6100   27.9940   42.7020 C   0  0  0  0  0  2  0  0  0  0  0  0
   38.9340   27.0570   43.6800 C   0  0  0  0  0  2  0  0  0  0  0  0
   37.5100   27.5630   43.6420 C   0  0  0  0  0  2  0  0  0  0  0  0
   37.5670   28.9980   43.1210 C   0  0  0  0  0  2  0  0  0  0  0  0
  1 13  1  0  0  0  0
  1  7  1  1  0  0  0
  2  8  1  6  0  0  0
  2  1  1  0  0  0  0
  3  4  1  0  0  0  0
  3  2  1  0  0  0  0
  4  9  1  0  0  0  0
  4  5  1  0  0  0  0
  5 11  1  6  0  0  0
  5  6  1  0  0  0  0
  5 15  1  0  0  0  0
  6 12  1  6  0  0  0
  6  1  1  0  0  0  0
  6 34  1  0  0  0  0
 10  4  1  0  0  0  0
 13 14  1  0  0  0  0
 15 16  1  0  0  0  0
 17 18  1  0  0  0  0
 17  2  1  0  0  0  0
 18 19  1  0  0  0  0
 19 20  2  0  0  0  0
 19 24  1  0  0  0  0
 20 26  1  0  0  0  0
 21 20  1  0  0  0  0
 22 21  2  0  0  0  0
 23 22  1  0  0  0  0
 23 18  2  0  0  0  0
 25 22  1  0  0  0  0
 26 29  1  0  0  0  0
 26 27  1  0  0  0  0
 27 31  1  0  0  0  0
 28 26  1  0  0  0  0
 28 33  1  0  0  0  0
 28 27  1  0  0  0  0
 30 27  1  0  0  0  0
 32 28  1  0  0  0  0
 34 35  1  0  0  0  0
 35 36  2  0  0  0  0
 35 37  1  0  0  0  0
 38 37  1  0  0  0  0
 38 39  1  0  0  0  0
 40 39  1  0  0  0  0
 41 37  1  0  0  0  0
 41 40  1  0  0  0  0
M  END
>  <minimizedAffinity>
-5.82557774

$$$$

 OpenBabel03242523563D

 41 44  0  0  1  0  0  0  0  0999 V2000
   37.6450   29.4670   42.3210 C   0  0  1  0  0  0  0  0  0  0  0  0
   39.1200   29.7240   42.6010 C   0  0  1  0  0  0  0  0  0  0  0  0
   39.7600   28.4820   42.7710 O   0  0  0  0  0  0  0  0  0  0  0  0
   38.9510   27.5460   43.4200 C   0  0  0  0  0  0  0  0  0  0  0  0
   37.7920   27.1010   42.5520 C   0  0  2  0  0  0  0  0  0  0  0  0
   37.5850   28.2320   41.4800 C   0  0  1  0  0  0  0  0  0  0  0  0
   37.2340   30.3580   41.8030 H   0  0  0  0  0  0  0  0  0  0  0  0
   39.2830   30.3820   43.4670 H   0  0  0  0  0  0  0  0  0  0  0  0
   38.6300   27.8890   44.4240 H   0  0  0  0  0  0  0  0  0  0  0  0
   39.5790   26.6660   43.5890 H   0  0  0  0  0  0  0  0  0  0  0  0
   37.9770   26.1510   42.0200 H   0  0  0  0  0  0  0  0  0  0  0  0
   38.5710   28.0440   40.9430 H   0  0  0  0  0  0  0  0  0  0  0  0
   36.9340   29.2870   43.5140 O   0  0  0  0  0  0  0  0  0  0  0  0
   36.6630   30.1640   43.8300 H   0  0  0  0  0  0  0  0  0  0  0  0
   36.6230   27.0940   43.2970 O   0  0  0  0  0  0  0  0  0  0  0  0
   35.9070   26.5510   42.8840 H   0  0  0  0  0  0  0  0  0  0  0  0
   39.6440   30.2110   41.3940 O   0  0  0  0  0  0  0  0  0  0  0  0
   39.7840   31.5060   41.0910 C   0  0  0  0  0  0  0  0  0  0  0  0
   41.0530   32.1000   41.0040 C   0  0  0  0  0  0  0  0  0  0  0  0
   41.1300   33.4460   40.6840 C   0  0  0  0  0  0  0  0  0  0  0  0
   39.9660   34.1610   40.4620 N   0  0  0  0  0  0  0  0  0  0  0  0
   38.7600   33.5550   40.5550 C   0  0  0  0  0  0  0  0  0  0  0  0
   38.6680   32.2360   40.8670 N   0  0  0  0  0  0  0  0  0  0  0  0
   41.9480   31.5210   41.1830 H   0  0  0  0  0  0  0  0  0  0  0  0
   37.8590   34.1270   40.3780 H   0  0  0  0  0  0  0  0  0  0  0  0
   42.4490   34.1490   40.5840 C   0  0  0  0  0  0  0  0  0  0  0  0
   43.5590   33.6610   41.5130 C   0  0  0  0  0  0  0  0  0  0  0  0
   43.5790   33.5090   39.9900 C   0  0  0  0  0  0  0  0  0  0  0  0
   42.3380   35.2450   40.6420 H   0  0  0  0  0  0  0  0  0  0  0  0
   43.4010   32.7150   42.0700 H   0  0  0  0  0  0  0  0  0  0  0  0
   44.2680   34.3880   41.9360 H   0  0  0  0  0  0  0  0  0  0  0  0
   43.5150   32.4760   39.5920 H   0  0  0  0  0  0  0  0  0  0  0  0
   44.3480   34.1200   39.4650 H   0  0  0  0  0  0  0  0  0  0  0  0
   36.4280   27.9830   40.8410 O   0  0  0  0  0  0  0  0  0  0  0  0
   35.7560   28.7750   39.9710 C   0  0  0  0  0  0  0  0  0  0  0  0
   34.5650   29.2330   40.2680 O   0  0  0  0  0  0  0  0  0  0  0  0
   35.7540   29.4640   38.6430 C   0  0  0  0  0  3  0  0  0  0  0  0
   35.9690   28.3640   37.6000 C   0  0  0  0  0  2  0  0  0  0  0  0
   36.1010   29.2070   36.3510 C   0  0  0  0  0  2  0  0  0  0  0  0
   37.0150   30.3120   36.8320 C   0  0  0  0  0  2  0  0  0  0  0  0
   36.9030   30.3430   38.3550 C   0  0  0  0  0  2  0  0  0  0  0  0
  1  7  1  6  0  0  0
  1  2  1  0  0  0  0
  1 13  1  0  0  0  0
  2  3  1  0  0  0  0
  2  8  1  1  0  0  0
  3  4  1  0  0  0  0
  4 10  1  0  0  0  0
  4  9  1  0  0  0  0
  5 11  1  6  0  0  0
  5 15  1  0  0  0  0
  5  4  1  0  0  0  0
  6 12  1  6  0  0  0
  6  1  1  0  0  0  0
  6  5  1  0  0  0  0
 13 14  1  0  0  0  0
 16 15  1  0  0  0  0
 17  2  1  0  0  0  0
 18 17  1  0  0  0  0
 19 18  1  0  0  0  0
 19 24  1  0  0  0  0
 20 19  2  0  0  0  0
 21 22  2  0  0  0  0
 21 20  1  0  0  0  0
 22 23  1  0  0  0  0
 23 18  2  0  0  0  0
 25 22  1  0  0  0  0
 26 29  1  0  0  0  0
 26 20  1  0  0  0  0
 26 27  1  0  0  0  0
 27 31  1  0  0  0  0
 27 30  1  0  0  0  0
 28 26  1  0  0  0  0
 28 27  1  0  0  0  0
 32 28  1  0  0  0  0
 33 28  1  0  0  0  0
 34  6  1  0  0  0  0
 35 36  2  0  0  0  0
 35 34  1  0  0  0  0
 37 35  1  0  0  0  0
 38 37  1  0  0  0  0
 39 40  1  0  0  0  0
 39 38  1  0  0  0  0
 40 41  1  0  0  0  0
 41 37  1  0  0  0  0
M  END
>  <minimizedAffinity>
-5.81312227

$$$$

 OpenBabel03242523563D

 41 44  0  0  1  0  0  0  0  0999 V2000
   38.7450   31.4450   40.0600 C   0  0  1  0  0  0  0  0  0  0  0  0
   39.7670   32.1460   40.9460 C   0  0  1  0  0  0  0  0  0  0  0  0
   39.3640   33.4850   41.1090 O   0  0  0  0  0  0  0  0  0  0  0  0
   38.7740   34.0120   39.9580 C   0  0  0  0  0  0  0  0  0  0  0  0
   37.4220   33.3880   39.6780 C   0  0  2  0  0  0  0  0  0  0  0  0
   37.4100   32.0080   40.4300 C   0  0  1  0  0  0  0  0  0  0  0  0
   38.8180   30.3540   40.2520 H   0  0  0  0  0  0  0  0  0  0  0  0
   40.7910   32.0800   40.5520 H   0  0  0  0  0  0  0  0  0  0  0  0
   39.4530   33.9800   39.0820 H   0  0  0  0  0  0  0  0  0  0  0  0
   38.5990   35.0720   40.1640 H   0  0  0  0  0  0  0  0  0  0  0  0
   36.5730   33.9890   40.0460 H   0  0  0  0  0  0  0  0  0  0  0  0
   37.4230   32.4620   41.4740 H   0  0  0  0  0  0  0  0  0  0  0  0
   39.0180   31.6710   38.7050 O   0  0  0  0  0  0  0  0  0  0  0  0
   39.6500   30.9940   38.4160 H   0  0  0  0  0  0  0  0  0  0  0  0
   37.3240   33.0660   38.3340 O   0  0  0  0  0  0  0  0  0  0  0  0
   36.3900   32.9290   38.0380 H   0  0  0  0  0  0  0  0  0  0  0  0
   39.5970   31.5840   42.2200 O   0  0  0  0  0  0  0  0  0  0  0  0
   39.8210   30.3010   42.5240 C   0  0  0  0  0  0  0  0  0  0  0  0
   38.7670   29.4380   42.8590 C   0  0  0  0  0  0  0  0  0  0  0  0
   39.0660   28.1190   43.1620 C   0  0  0  0  0  0  0  0  0  0  0  0
   40.3820   27.6930   43.1250 N   0  0  0  0  0  0  0  0  0  0  0  0
   41.3740   28.5550   42.7960 C   0  0  0  0  0  0  0  0  0  0  0  0
   41.0950   29.8500   42.4980 N   0  0  0  0  0  0  0  0  0  0  0  0
   37.7460   29.7930   42.8830 H   0  0  0  0  0  0  0  0  0  0  0  0
   42.3970   28.2070   42.7720 H   0  0  0  0  0  0  0  0  0  0  0  0
   37.9940   27.1430   43.5390 C   0  0  0  0  0  0  0  0  0  0  0  0
   36.5600   27.5270   43.1820 C   0  0  0  0  0  0  0  0  0  0  0  0
   37.3260   26.3650   42.5450 C   0  0  0  0  0  0  0  0  0  0  0  0
   38.0700   26.8350   44.5960 H   0  0  0  0  0  0  0  0  0  0  0  0
   36.4000   28.3970   42.5130 H   0  0  0  0  0  0  0  0  0  0  0  0
   35.7410   27.2510   43.8630 H   0  0  0  0  0  0  0  0  0  0  0  0
   37.5770   26.4650   41.4690 H   0  0  0  0  0  0  0  0  0  0  0  0
   36.9440   25.3510   42.8010 H   0  0  0  0  0  0  0  0  0  0  0  0
   36.3240   31.3280   40.0200 O   0  0  0  0  0  0  0  0  0  0  0  0
   36.2680   30.1490   39.3540 C   0  0  0  0  0  0  0  0  0  0  0  0
   36.3760   30.1150   38.0490 O   0  0  0  0  0  0  0  0  0  0  0  0
   36.1200   28.6630   39.4400 C   0  0  0  0  0  3  0  0  0  0  0  0
   37.4760   28.0830   39.0330 C   0  0  0  0  0  2  0  0  0  0  0  0
   37.1370   26.6090   39.0120 C   0  0  0  0  0  2  0  0  0  0  0  0
   35.8060   26.6190   38.2950 C   0  0  0  0  0  2  0  0  0  0  0  0
   35.2400   28.0300   38.4400 C   0  0  0  0  0  2  0  0  0  0  0  0
  1  7  1  1  0  0  0
  1  6  1  0  0  0  0
  1  2  1  0  0  0  0
  2  8  1  6  0  0  0
  2  3  1  0  0  0  0
  2 17  1  0  0  0  0
  4 10  1  0  0  0  0
  4  3  1  0  0  0  0
  5  4  1  0  0  0  0
  5 11  1  1  0  0  0
  5  6  1  0  0  0  0
  6 12  1  1  0  0  0
  9  4  1  0  0  0  0
 13  1  1  0  0  0  0
 14 13  1  0  0  0  0
 15  5  1  0  0  0  0
 16 15  1  0  0  0  0
 17 18  1  0  0  0  0
 18 19  1  0  0  0  0
 19 24  1  0  0  0  0
 19 20  2  0  0  0  0
 20 26  1  0  0  0  0
 21 20  1  0  0  0  0
 22 21  2  0  0  0  0
 23 18  2  0  0  0  0
 23 22  1  0  0  0  0
 25 22  1  0  0  0  0
 26 29  1  0  0  0  0
 27 26  1  0  0  0  0
 27 31  1  0  0  0  0
 28 33  1  0  0  0  0
 28 27  1  0  0  0  0
 28 26  1  0  0  0  0
 30 27  1  0  0  0  0
 32 28  1  0  0  0  0
 34  6  1  0  0  0  0
 35 37  1  0  0  0  0
 35 34  1  0  0  0  0
 36 35  2  0  0  0  0
 38 37  1  0  0  0  0
 39 38  1  0  0  0  0
 40 41  1  0  0  0  0
 40 39  1  0  0  0  0
 41 37  1  0  0  0  0
M  END
>  <minimizedAffinity>
-5.78026724

$$$$

 OpenBabel03242523563D

 41 44  0  0  1  0  0  0  0  0999 V2000
   39.8440   30.1170   38.3240 C   0  0  1  0  0  0  0  0  0  0  0  0
   41.2160   29.5540   38.6720 C   0  0  1  0  0  0  0  0  0  0  0  0
   42.1630   30.5890   38.5440 O   0  0  0  0  0  0  0  0  0  0  0  0
   41.8730   31.4540   37.4860 C   0  0  0  0  0  0  0  0  0  0  0  0
   40.6400   32.2900   37.7610 C   0  0  2  0  0  0  0  0  0  0  0  0
   39.8170   31.5160   38.8530 C   0  0  1  0  0  0  0  0  0  0  0  0
   39.0780   29.4670   38.7940 H   0  0  0  0  0  0  0  0  0  0  0  0
   41.4890   28.6830   38.0600 H   0  0  0  0  0  0  0  0  0  0  0  0
   41.8290   30.9280   36.5110 H   0  0  0  0  0  0  0  0  0  0  0  0
   42.7180   32.1450   37.4180 H   0  0  0  0  0  0  0  0  0  0  0  0
   40.8660   33.2980   38.1500 H   0  0  0  0  0  0  0  0  0  0  0  0
   40.5830   31.6650   39.6820 H   0  0  0  0  0  0  0  0  0  0  0  0
   39.6370   30.1090   36.9390 O   0  0  0  0  0  0  0  0  0  0  0  0
   39.2770   29.2390   36.7010 H   0  0  0  0  0  0  0  0  0  0  0  0
   39.8250   32.3060   36.6400 O   0  0  0  0  0  0  0  0  0  0  0  0
   39.1700   33.0470   36.6510 H   0  0  0  0  0  0  0  0  0  0  0  0
   41.1720   29.3050   40.0530 O   0  0  0  0  0  0  0  0  0  0  0  0
   40.5710   28.2540   40.6190 C   0  0  0  0  0  0  0  0  0  0  0  0
   39.7390   28.4070   41.7380 C   0  0  0  0  0  0  0  0  0  0  0  0
   39.1440   27.2770   42.2760 C   0  0  0  0  0  0  0  0  0  0  0  0
   39.3830   26.0410   41.7010 N   0  0  0  0  0  0  0  0  0  0  0  0
   40.1920   25.9320   40.6210 C   0  0  0  0  0  0  0  0  0  0  0  0
   40.7830   27.0300   40.0830 N   0  0  0  0  0  0  0  0  0  0  0  0
   39.5670   29.3820   42.1710 H   0  0  0  0  0  0  0  0  0  0  0  0
   40.3700   24.9590   40.1830 H   0  0  0  0  0  0  0  0  0  0  0  0
   38.2520   27.3620   43.4770 C   0  0  0  0  0  0  0  0  0  0  0  0
   37.4980   28.6750   43.6800 C   0  0  0  0  0  0  0  0  0  0  0  0
   36.8310   27.3400   43.3390 C   0  0  0  0  0  0  0  0  0  0  0  0
   38.7740   27.0580   44.4000 H   0  0  0  0  0  0  0  0  0  0  0  0
   37.5000   29.4150   42.8540 H   0  0  0  0  0  0  0  0  0  0  0  0
   37.3340   29.0510   44.7000 H   0  0  0  0  0  0  0  0  0  0  0  0
   36.3480   27.2650   42.3430 H   0  0  0  0  0  0  0  0  0  0  0  0
   36.2030   26.9060   44.1490 H   0  0  0  0  0  0  0  0  0  0  0  0
   38.6120   32.1080   38.9540 O   0  0  0  0  0  0  0  0  0  0  0  0
   37.4830   31.6320   39.5320 C   0  0  0  0  0  0  0  0  0  0  0  0
   37.1910   31.9360   40.7730 O   0  0  0  0  0  0  0  0  0  0  0  0
   36.2450   30.8060   39.3810 C   0  0  0  0  0  3  0  0  0  0  0  0
   36.1710   29.9300   40.6330 C   0  0  0  0  0  2  0  0  0  0  0  0
   34.9880   29.0570   40.2740 C   0  0  0  0  0  2  0  0  0  0  0  0
   35.3000   28.7090   38.8360 C   0  0  0  0  0  2  0  0  0  0  0  0
   36.2670   29.7750   38.3260 C   0  0  0  0  0  2  0  0  0  0  0  0
  1  2  1  0  0  0  0
  1  7  1  1  0  0  0
  1  6  1  0  0  0  0
  2  8  1  6  0  0  0
  2 17  1  0  0  0  0
  3  2  1  0  0  0  0
  4  5  1  0  0  0  0
  4  3  1  0  0  0  0
  5 11  1  1  0  0  0
  5  6  1  0  0  0  0
  6 34  1  0  0  0  0
  6 12  1  1  0  0  0
  9  4  1  0  0  0  0
 10  4  1  0  0  0  0
 13  1  1  0  0  0  0
 14 13  1  0  0  0  0
 15 16  1  0  0  0  0
 15  5  1  0  0  0  0
 17 18  1  0  0  0  0
 18 19  1  0  0  0  0
 19 24  1  0  0  0  0
 19 20  2  0  0  0  0
 20 26  1  0  0  0  0
 21 20  1  0  0  0  0
 22 21  2  0  0  0  0
 23 18  2  0  0  0  0
 23 22  1  0  0  0  0
 25 22  1  0  0  0  0
 26 27  1  0  0  0  0
 26 29  1  0  0  0  0
 27 31  1  0  0  0  0
 28 26  1  0  0  0  0
 28 27  1  0  0  0  0
 28 33  1  0  0  0  0
 30 27  1  0  0  0  0
 32 28  1  0  0  0  0
 34 35  1  0  0  0  0
 35 36  2  0  0  0  0
 37 35  1  0  0  0  0
 37 38  1  0  0  0  0
 39 38  1  0  0  0  0
 40 39  1  0  0  0  0
 41 40  1  0  0  0  0
 41 37  1  0  0  0  0
M  END
>  <minimizedAffinity>
-5.75776339

$$$$

 OpenBabel03242523563D

 41 44  0  0  1  0  0  0  0  0999 V2000
   38.5490   30.4510   39.6730 C   0  0  1  0  0  0  0  0  0  0  0  0
   37.9010   30.9080   40.9740 C   0  0  1  0  0  0  0  0  0  0  0  0
   36.9630   31.9130   40.6710 O   0  0  0  0  0  0  0  0  0  0  0  0
   37.3820   32.7400   39.6260 C   0  0  0  0  0  0  0  0  0  0  0  0
   37.3900   32.0130   38.2970 C   0  0  2  0  0  0  0  0  0  0  0  0
   37.4730   30.4800   38.6350 C   0  0  1  0  0  0  0  0  0  0  0  0
   38.9600   29.4330   39.8350 H   0  0  0  0  0  0  0  0  0  0  0  0
   38.6330   31.2530   41.7180 H   0  0  0  0  0  0  0  0  0  0  0  0
   38.3430   33.2460   39.8470 H   0  0  0  0  0  0  0  0  0  0  0  0
   36.6340   33.5350   39.5500 H   0  0  0  0  0  0  0  0  0  0  0  0
   36.4830   32.1850   37.6920 H   0  0  0  0  0  0  0  0  0  0  0  0
   36.4370   30.4240   39.1050 H   0  0  0  0  0  0  0  0  0  0  0  0
   39.6030   31.3000   39.3150 O   0  0  0  0  0  0  0  0  0  0  0  0
   40.4030   30.9780   39.7600 H   0  0  0  0  0  0  0  0  0  0  0  0
   38.5650   32.2940   37.6160 O   0  0  0  0  0  0  0  0  0  0  0  0
   38.5060   32.0930   36.6500 H   0  0  0  0  0  0  0  0  0  0  0  0
   37.1130   29.8250   41.3930 O   0  0  0  0  0  0  0  0  0  0  0  0
   37.5880   28.7050   41.9480 C   0  0  0  0  0  0  0  0  0  0  0  0
   36.9870   27.4610   41.7050 C   0  0  0  0  0  0  0  0  0  0  0  0
   37.5300   26.3380   42.3100 C   0  0  0  0  0  0  0  0  0  0  0  0
   38.6390   26.4730   43.1270 N   0  0  0  0  0  0  0  0  0  0  0  0
   39.1920   27.6910   43.3380 C   0  0  0  0  0  0  0  0  0  0  0  0
   38.6710   28.8000   42.7530 N   0  0  0  0  0  0  0  0  0  0  0  0
   36.1210   27.3800   41.0640 H   0  0  0  0  0  0  0  0  0  0  0  0
   40.0580   27.7800   43.9800 H   0  0  0  0  0  0  0  0  0  0  0  0
   36.9360   24.9780   42.1050 C   0  0  0  0  0  0  0  0  0  0  0  0
   36.7400   24.5260   40.6600 C   0  0  0  0  0  0  0  0  0  0  0  0
   37.7340   23.8910   41.6360 C   0  0  0  0  0  0  0  0  0  0  0  0
   36.0120   24.8390   42.6930 H   0  0  0  0  0  0  0  0  0  0  0  0
   37.2050   25.1280   39.8530 H   0  0  0  0  0  0  0  0  0  0  0  0
   35.8620   23.9160   40.4000 H   0  0  0  0  0  0  0  0  0  0  0  0
   38.8110   24.0230   41.4050 H   0  0  0  0  0  0  0  0  0  0  0  0
   37.4900   22.8510   41.9480 H   0  0  0  0  0  0  0  0  0  0  0  0
   37.7120   29.8210   37.4870 O   0  0  0  0  0  0  0  0  0  0  0  0
   36.8800   29.0120   36.7880 C   0  0  0  0  0  0  0  0  0  0  0  0
   37.3520   28.1860   35.8870 O   0  0  0  0  0  0  0  0  0  0  0  0
   35.4720   28.5670   36.5420 C   0  0  0  0  0  3  0  0  0  0  0  0
   35.0170   29.2980   35.2770 C   0  0  0  0  0  2  0  0  0  0  0  0
   33.5620   28.8850   35.2440 C   0  0  0  0  0  2  0  0  0  0  0  0
   33.1670   29.0670   36.6920 C   0  0  0  0  0  2  0  0  0  0  0  0
   34.4580   29.0320   37.5070 C   0  0  0  0  0  2  0  0  0  0  0  0
  1  7  1  1  0  0  0
  1  2  1  0  0  0  0
  2 17  1  0  0  0  0
  2  8  1  1  0  0  0
  3  2  1  0  0  0  0
  4  9  1  0  0  0  0
  4  3  1  0  0  0  0
  5 11  1  6  0  0  0
  5  6  1  0  0  0  0
  5  4  1  0  0  0  0
  6 12  1  1  0  0  0
  6  1  1  0  0  0  0
 10  4  1  0  0  0  0
 13  1  1  0  0  0  0
 13 14  1  0  0  0  0
 15  5  1  0  0  0  0
 16 15  1  0  0  0  0
 17 18  1  0  0  0  0
 18 23  1  0  0  0  0
 19 18  2  0  0  0  0
 19 20  1  0  0  0  0
 20 21  2  0  0  0  0
 21 22  1  0  0  0  0
 22 25  1  0  0  0  0
 23 22  2  0  0  0  0
 24 19  1  0  0  0  0
 26 20  1  0  0  0  0
 26 29  1  0  0  0  0
 27 28  1  0  0  0  0
 27 26  1  0  0  0  0
 28 33  1  0  0  0  0
 28 26  1  0  0  0  0
 30 27  1  0  0  0  0
 31 27  1  0  0  0  0
 32 28  1  0  0  0  0
 34  6  1  0  0  0  0
 35 34  1  0  0  0  0
 36 35  2  0  0  0  0
 37 35  1  0  0  0  0
 37 41  1  0  0  0  0
 38 37  1  0  0  0  0
 39 38  1  0  0  0  0
 39 40  1  0  0  0  0
 40 41  1  0  0  0  0
M  END
>  <minimizedAffinity>
-5.75174141

$$$$

 OpenBabel03242523563D

 41 44  0  0  1  0  0  0  0  0999 V2000
   39.7730   30.9300   39.8810 C   0  0  1  0  0  0  0  0  0  0  0  0
   40.5380   31.0130   41.1960 C   0  0  1  0  0  0  0  0  0  0  0  0
   40.9600   32.3450   41.3770 O   0  0  0  0  0  0  0  0  0  0  0  0
   41.3170   32.9620   40.1760 C   0  0  0  0  0  0  0  0  0  0  0  0
   40.1160   33.2110   39.2880 C   0  0  2  0  0  0  0  0  0  0  0  0
   39.0030   32.2060   39.7610 C   0  0  1  0  0  0  0  0  0  0  0  0
   39.1160   30.0360   39.9240 H   0  0  0  0  0  0  0  0  0  0  0  0
   41.3860   30.3150   41.2420 H   0  0  0  0  0  0  0  0  0  0  0  0
   42.1370   32.4290   39.6540 H   0  0  0  0  0  0  0  0  0  0  0  0
   41.7220   33.9420   40.4470 H   0  0  0  0  0  0  0  0  0  0  0  0
   39.7110   34.2350   39.3660 H   0  0  0  0  0  0  0  0  0  0  0  0
   38.8480   32.6980   40.7760 H   0  0  0  0  0  0  0  0  0  0  0  0
   40.6500   30.7790   38.8000 O   0  0  0  0  0  0  0  0  0  0  0  0
   40.8240   29.8300   38.6940 H   0  0  0  0  0  0  0  0  0  0  0  0
   40.4090   32.8360   37.9860 O   0  0  0  0  0  0  0  0  0  0  0  0
   39.7910   33.2310   37.3230 H   0  0  0  0  0  0  0  0  0  0  0  0
   39.5730   30.8260   42.1970 O   0  0  0  0  0  0  0  0  0  0  0  0
   39.1650   29.6350   42.6480 C   0  0  0  0  0  0  0  0  0  0  0  0
   40.0710   28.5800   42.8400 C   0  0  0  0  0  0  0  0  0  0  0  0
   39.5850   27.3720   43.3130 C   0  0  0  0  0  0  0  0  0  0  0  0
   38.2330   27.2390   43.5810 N   0  0  0  0  0  0  0  0  0  0  0  0
   37.3890   28.2790   43.3830 C   0  0  0  0  0  0  0  0  0  0  0  0
   37.8510   29.4690   42.9200 N   0  0  0  0  0  0  0  0  0  0  0  0
   41.1220   28.7070   42.6240 H   0  0  0  0  0  0  0  0  0  0  0  0
   36.3360   28.1590   43.5970 H   0  0  0  0  0  0  0  0  0  0  0  0
   40.4910   26.1990   43.5320 C   0  0  0  0  0  0  0  0  0  0  0  0
   39.8920   24.8160   43.2860 C   0  0  0  0  0  0  0  0  0  0  0  0
   40.9940   25.4440   42.4290 C   0  0  0  0  0  0  0  0  0  0  0  0
   40.9950   26.2440   44.5120 H   0  0  0  0  0  0  0  0  0  0  0  0
   38.9020   24.7510   42.7910 H   0  0  0  0  0  0  0  0  0  0  0  0
   40.1980   23.9740   43.9250 H   0  0  0  0  0  0  0  0  0  0  0  0
   40.7250   25.7000   41.3830 H   0  0  0  0  0  0  0  0  0  0  0  0
   41.9890   24.9510   42.5040 H   0  0  0  0  0  0  0  0  0  0  0  0
   38.0100   32.2390   38.8530 O   0  0  0  0  0  0  0  0  0  0  0  0
   37.2480   31.2150   38.3990 C   0  0  0  0  0  0  0  0  0  0  0  0
   37.1700   30.9580   37.1170 O   0  0  0  0  0  0  0  0  0  0  0  0
   36.3290   30.0850   38.7400 C   0  0  0  0  0  3  0  0  0  0  0  0
   35.8770   30.3330   40.1820 C   0  0  0  0  0  2  0  0  0  0  0  0
   35.1010   29.0590   40.4370 C   0  0  0  0  0  2  0  0  0  0  0  0
   36.0310   28.0200   39.8530 C   0  0  0  0  0  2  0  0  0  0  0  0
   36.9450   28.7510   38.8720 C   0  0  0  0  0  2  0  0  0  0  0  0
  1  7  1  1  0  0  0
  1  2  1  0  0  0  0
  2  8  1  1  0  0  0
  2  3  1  0  0  0  0
  2 17  1  0  0  0  0
  4 10  1  0  0  0  0
  4  3  1  0  0  0  0
  5 11  1  1  0  0  0
  5  6  1  0  0  0  0
  5  4  1  0  0  0  0
  6  1  1  0  0  0  0
  6 12  1  1  0  0  0
  9  4  1  0  0  0  0
 13  1  1  0  0  0  0
 14 13  1  0  0  0  0
 15  5  1  0  0  0  0
 16 15  1  0  0  0  0
 17 18  1  0  0  0  0
 18 19  2  0  0  0  0
 18 23  1  0  0  0  0
 19 20  1  0  0  0  0
 20 26  1  0  0  0  0
 20 21  2  0  0  0  0
 22 21  1  0  0  0  0
 22 25  1  0  0  0  0
 23 22  2  0  0  0  0
 24 19  1  0  0  0  0
 26 29  1  0  0  0  0
 27 26  1  0  0  0  0
 27 31  1  0  0  0  0
 28 33  1  0  0  0  0
 28 27  1  0  0  0  0
 28 26  1  0  0  0  0
 30 27  1  0  0  0  0
 32 28  1  0  0  0  0
 34  6  1  0  0  0  0
 35 37  1  0  0  0  0
 35 34  1  0  0  0  0
 36 35  2  0  0  0  0
 37 41  1  0  0  0  0
 37 38  1  0  0  0  0
 38 39  1  0  0  0  0
 40 39  1  0  0  0  0
 41 40  1  0  0  0  0
M  END
>  <minimizedAffinity>
-5.72986364

$$$$

 OpenBabel03242523563D

 41 44  0  0  1  0  0  0  0  0999 V2000
   36.0190   29.3370   40.3360 C   0  0  1  0  0  0  0  0  0  0  0  0
   36.6550   30.2120   39.2630 C   0  0  1  0  0  0  0  0  0  0  0  0
   37.9600   30.5410   39.6790 O   0  0  0  0  0  0  0  0  0  0  0  0
   38.0500   30.7350   41.0590 C   0  0  0  0  0  0  0  0  0  0  0  0
   37.8750   29.4410   41.8260 C   0  0  2  0  0  0  0  0  0  0  0  0
   37.1090   28.4600   40.8650 C   0  0  1  0  0  0  0  0  0  0  0  0
   35.1970   28.7600   39.8640 H   0  0  0  0  0  0  0  0  0  0  0  0
   36.0660   31.1120   39.0410 H   0  0  0  0  0  0  0  0  0  0  0  0
   37.3800   31.5430   41.4170 H   0  0  0  0  0  0  0  0  0  0  0  0
   39.0700   31.0830   41.2500 H   0  0  0  0  0  0  0  0  0  0  0  0
   38.8280   28.9650   42.1160 H   0  0  0  0  0  0  0  0  0  0  0  0
   37.9640   28.3610   40.1200 H   0  0  0  0  0  0  0  0  0  0  0  0
   35.4740   30.1200   41.3610 O   0  0  0  0  0  0  0  0  0  0  0  0
   34.5700   30.3580   41.1000 H   0  0  0  0  0  0  0  0  0  0  0  0
   37.0150   29.6420   42.8940 O   0  0  0  0  0  0  0  0  0  0  0  0
   37.0850   28.9350   43.5830 H   0  0  0  0  0  0  0  0  0  0  0  0
   36.8550   29.3610   38.1650 O   0  0  0  0  0  0  0  0  0  0  0  0
   36.0870   29.3370   37.0700 C   0  0  0  0  0  0  0  0  0  0  0  0
   34.6980   29.1630   37.1590 C   0  0  0  0  0  0  0  0  0  0  0  0
   33.9590   29.1500   35.9870 C   0  0  0  0  0  0  0  0  0  0  0  0
   34.6050   29.3070   34.7730 N   0  0  0  0  0  0  0  0  0  0  0  0
   35.9480   29.4720   34.7260 C   0  0  0  0  0  0  0  0  0  0  0  0
   36.6850   29.4870   35.8670 N   0  0  0  0  0  0  0  0  0  0  0  0
   34.2150   29.0410   38.1190 H   0  0  0  0  0  0  0  0  0  0  0  0
   36.4370   29.5940   33.7700 H   0  0  0  0  0  0  0  0  0  0  0  0
   32.4740   28.9580   36.0040 C   0  0  0  0  0  0  0  0  0  0  0  0
   31.7100   29.6180   37.1500 C   0  0  0  0  0  0  0  0  0  0  0  0
   31.5910   30.0330   35.6810 C   0  0  0  0  0  0  0  0  0  0  0  0
   32.1930   27.8960   35.9010 H   0  0  0  0  0  0  0  0  0  0  0  0
   32.2490   30.3420   37.7930 H   0  0  0  0  0  0  0  0  0  0  0  0
   30.8350   29.1080   37.5800 H   0  0  0  0  0  0  0  0  0  0  0  0
   31.9780   31.0380   35.4160 H   0  0  0  0  0  0  0  0  0  0  0  0
   30.6060   29.8180   35.2080 H   0  0  0  0  0  0  0  0  0  0  0  0
   36.7360   27.3890   41.5880 O   0  0  0  0  0  0  0  0  0  0  0  0
   37.1630   26.1070   41.4800 C   0  0  0  0  0  0  0  0  0  0  0  0
   37.4500   25.4080   42.5500 O   0  0  0  0  0  0  0  0  0  0  0  0
   37.5030   24.9680   40.5730 C   0  0  0  0  0  3  0  0  0  0  0  0
   36.3020   24.0200   40.6220 C   0  0  0  0  0  2  0  0  0  0  0  0
   36.8420   22.8670   39.8040 C   0  0  0  0  0  2  0  0  0  0  0  0
   38.2390   22.7300   40.3670 C   0  0  0  0  0  2  0  0  0  0  0  0
   38.5810   24.0670   41.0220 C   0  0  0  0  0  2  0  0  0  0  0  0
  1  7  1  6  0  0  0
  1  6  1  0  0  0  0
  1 13  1  0  0  0  0
  2  8  1  6  0  0  0
  2  3  1  0  0  0  0
  2  1  1  0  0  0  0
  3  4  1  0  0  0  0
  4 10  1  0  0  0  0
  4  9  1  0  0  0  0
  4  5  1  0  0  0  0
  5 11  1  1  0  0  0
  5 15  1  0  0  0  0
  6 12  1  6  0  0  0
  6 34  1  0  0  0  0
  6  5  1  0  0  0  0
 14 13  1  0  0  0  0
 15 16  1  0  0  0  0
 17  2  1  0  0  0  0
 18 19  1  0  0  0  0
 18 17  1  0  0  0  0
 19 24  1  0  0  0  0
 20 26  1  0  0  0  0
 20 19  2  0  0  0  0
 21 20  1  0  0  0  0
 22 21  2  0  0  0  0
 22 23  1  0  0  0  0
 23 18  2  0  0  0  0
 25 22  1  0  0  0  0
 26 27  1  0  0  0  0
 27 31  1  0  0  0  0
 27 30  1  0  0  0  0
 28 26  1  0  0  0  0
 28 27  1  0  0  0  0
 29 26  1  0  0  0  0
 32 28  1  0  0  0  0
 33 28  1  0  0  0  0
 35 34  1  0  0  0  0
 35 36  2  0  0  0  0
 37 38  1  0  0  0  0
 37 41  1  0  0  0  0
 37 35  1  0  0  0  0
 39 40  1  0  0  0  0
 39 38  1  0  0  0  0
 40 41  1  0  0  0  0
M  END
>  <minimizedAffinity>
-5.64075756

$$$$
