
 OpenBabel03242523543D

 41 44  0  0  1  0  0  0  0  0999 V2000
   42.6600   34.4230   38.8770 C   0  0  1  0  0  0  0  0  0  0  0  0
   43.0010   35.1660   40.1630 C   0  0  1  0  0  0  0  0  0  0  0  0
   41.7970   35.5630   40.7750 O   0  0  0  0  0  0  0  0  0  0  0  0
   40.8190   35.9300   39.8470 C   0  0  0  0  0  0  0  0  0  0  0  0
   40.3070   34.7390   39.0640 C   0  0  2  0  0  0  0  0  0  0  0  0
   41.4210   33.6350   39.1620 C   0  0  1  0  0  0  0  0  0  0  0  0
   43.5250   33.7800   38.6140 H   0  0  0  0  0  0  0  0  0  0  0  0
   43.6690   36.0230   39.9970 H   0  0  0  0  0  0  0  0  0  0  0  0
   41.1460   36.7660   39.1960 H   0  0  0  0  0  0  0  0  0  0  0  0
   39.9760   36.3140   40.4300 H   0  0  0  0  0  0  0  0  0  0  0  0
   39.3670   34.3180   39.4620 H   0  0  0  0  0  0  0  0  0  0  0  0
   41.2870   33.4560   40.2780 H   0  0  0  0  0  0  0  0  0  0  0  0
   42.4440   35.3200   37.8240 O   0  0  0  0  0  0  0  0  0  0  0  0
   43.3050   35.5100   37.4180 H   0  0  0  0  0  0  0  0  0  0  0  0
   40.2360   35.0590   37.7170 O   0  0  0  0  0  0  0  0  0  0  0  0
   39.6530   34.4450   37.2050 H   0  0  0  0  0  0  0  0  0  0  0  0
   43.5130   34.1870   41.0280 O   0  0  0  0  0  0  0  0  0  0  0  0
   44.6330   34.3170   41.7470 C   0  0  0  0  0  0  0  0  0  0  0  0
   45.8850   34.4430   41.1260 C   0  0  0  0  0  0  0  0  0  0  0  0
   47.0080   34.5760   41.9280 C   0  0  0  0  0  0  0  0  0  0  0  0
   46.8650   34.5810   43.3050 N   0  0  0  0  0  0  0  0  0  0  0  0
   45.6410   34.4560   43.8680 C   0  0  0  0  0  0  0  0  0  0  0  0
   44.5320   34.3250   43.0960 N   0  0  0  0  0  0  0  0  0  0  0  0
   45.9720   34.4360   40.0490 H   0  0  0  0  0  0  0  0  0  0  0  0
   45.5460   34.4620   44.9460 H   0  0  0  0  0  0  0  0  0  0  0  0
   48.3780   34.7050   41.3360 C   0  0  0  0  0  0  0  0  0  0  0  0
   49.0830   36.0460   41.5260 C   0  0  0  0  0  0  0  0  0  0  0  0
   49.5380   34.7330   42.1690 C   0  0  0  0  0  0  0  0  0  0  0  0
   48.4020   34.3910   40.2790 H   0  0  0  0  0  0  0  0  0  0  0  0
   48.6410   36.7780   42.2320 H   0  0  0  0  0  0  0  0  0  0  0  0
   49.7240   36.4370   40.7220 H   0  0  0  0  0  0  0  0  0  0  0  0
   49.4570   34.6660   43.2740 H   0  0  0  0  0  0  0  0  0  0  0  0
   50.5030   34.3300   41.7880 H   0  0  0  0  0  0  0  0  0  0  0  0
   41.1050   32.6570   38.2940 O   0  0  0  0  0  0  0  0  0  0  0  0
   40.0280   31.8350   38.3030 C   0  0  0  0  0  0  0  0  0  0  0  0
   39.0160   32.0530   37.5000 O   0  0  0  0  0  0  0  0  0  0  0  0
   39.3760   30.6240   38.8920 C   0  0  0  0  0  3  0  0  0  0  0  0
   38.5580   29.9980   37.7600 C   0  0  0  0  0  2  0  0  0  0  0  0
   37.8470   28.9020   38.5250 C   0  0  0  0  0  2  0  0  0  0  0  0
   37.4130   29.6410   39.7720 C   0  0  0  0  0  2  0  0  0  0  0  0
   38.3190   30.8650   39.8930 C   0  0  0  0  0  2  0  0  0  0  0  0
  1  7  1  6  0  0  0
  1  6  1  0  0  0  0
  1  2  1  0  0  0  0
  2  8  1  6  0  0  0
  2  3  1  0  0  0  0
  2 17  1  0  0  0  0
  4 10  1  0  0  0  0
  4  3  1  0  0  0  0
  5  6  1  0  0  0  0
  5 11  1  1  0  0  0
  5  4  1  0  0  0  0
  6 12  1  1  0  0  0
  9  4  1  0  0  0  0
 13  1  1  0  0  0  0
 14 13  1  0  0  0  0
 15  5  1  0  0  0  0
 16 15  1  0  0  0  0
 17 18  1  0  0  0  0
 18 23  1  0  0  0  0
 19 18  2  0  0  0  0
 19 20  1  0  0  0  0
 20 21  2  0  0  0  0
 21 22  1  0  0  0  0
 22 25  1  0  0  0  0
 23 22  2  0  0  0  0
 24 19  1  0  0  0  0
 26 27  1  0  0  0  0
 26 20  1  0  0  0  0
 26 28  1  0  0  0  0
 27 28  1  0  0  0  0
 27 30  1  0  0  0  0
 28 32  1  0  0  0  0
 29 26  1  0  0  0  0
 31 27  1  0  0  0  0
 33 28  1  0  0  0  0
 34 35  1  0  0  0  0
 34  6  1  0  0  0  0
 35 37  1  0  0  0  0
 36 35  2  0  0  0  0
 37 41  1  0  0  0  0
 38 39  1  0  0  0  0
 38 37  1  0  0  0  0
 39 40  1  0  0  0  0
 40 41  1  0  0  0  0
M  END
>  <minimizedAffinity>
-6.23267221

>  <minimizedRMSD>
1.07776785

$$$$
