
 OpenBabel03242522473D

 39 42  0  0  0  0  0  0  0  0999 V2000
   45.6440   34.7210   44.1910 C   0  0  0  0  0  0  0  0  0  0  0  0
   46.7090   34.0130   43.6230 C   0  0  0  0  0  0  0  0  0  0  0  0
   47.2930   32.9390   44.3650 C   0  0  0  0  0  0  0  0  0  0  0  0
   46.7640   32.6780   45.5870 N   0  0  0  0  0  0  0  0  0  0  0  0
   45.7430   33.3710   46.1070 C   0  0  0  0  0  0  0  0  0  0  0  0
   45.1980   34.3840   45.4000 N   0  0  0  0  0  0  0  0  0  0  0  0
   45.0800   35.7690   43.4590 N   0  0  0  0  0  0  0  0  0  0  0  0
   48.1020   32.3670   43.9870 H   0  0  0  0  0  0  0  0  0  0  0  0
   45.5750   36.6700   43.2410 H   0  0  0  0  0  0  0  0  0  0  0  0
   44.0970   35.5610   43.1440 H   0  0  0  0  0  0  0  0  0  0  0  0
   47.2650   34.3030   42.3130 C   0  0  0  0  0  0  0  0  0  0  0  0
   48.2760   35.1680   41.9840 C   0  0  0  0  0  0  0  0  0  0  0  0
   48.6720   35.3130   40.6660 C   0  0  0  0  0  0  0  0  0  0  0  0
   48.0730   34.6060   39.6430 C   0  0  0  0  0  0  0  0  0  0  0  0
   48.5300   34.8200   38.4010 N   0  0  0  0  0  0  0  0  0  0  0  0
   47.9480   34.1270   37.3660 C   0  0  0  0  0  0  0  0  0  0  0  0
   46.9200   33.2450   37.6780 C   0  0  0  0  0  0  0  0  0  0  0  0
   46.4480   33.0230   38.9490 C   0  0  0  0  0  0  0  0  0  0  0  0
   47.0540   33.7360   39.9750 C   0  0  0  0  0  0  0  0  0  0  0  0
   46.6420   33.5750   41.2910 C   0  0  0  0  0  0  0  0  0  0  0  0
   48.7070   35.6930   42.8270 H   0  0  0  0  0  0  0  0  0  0  0  0
   49.4780   36.0200   40.5210 H   0  0  0  0  0  0  0  0  0  0  0  0
   48.3000   34.2830   36.3570 H   0  0  0  0  0  0  0  0  0  0  0  0
   46.5000   32.7280   36.8240 H   0  0  0  0  0  0  0  0  0  0  0  0
   45.6510   32.3340   39.1560 H   0  0  0  0  0  0  0  0  0  0  0  0
   45.8330   32.8680   41.4470 H   0  0  0  0  0  0  0  0  0  0  0  0
   45.2430   32.9940   47.4540 C   0  0  0  0  0  0  0  0  0  0  0  0
   44.4130   32.2550   47.2560 H   0  0  0  0  0  0  0  0  0  0  0  0
   44.8930   33.8240   48.0640 H   0  0  0  0  0  0  0  0  0  0  0  0
   46.3300   32.1850   48.1850 C   0  0  0  0  0  0  0  0  0  0  0  0
   47.3210   32.5520   47.8900 H   0  0  0  0  0  0  0  0  0  0  0  0
   46.2330   32.3650   49.2600 H   0  0  0  0  0  0  0  0  0  0  0  0
   46.1460   30.7450   47.8290 C   0  0  0  0  0  0  0  0  0  0  0  0
   47.2600   29.8650   47.7860 C   0  0  0  0  0  0  0  0  0  0  0  0
   48.2850   30.1290   47.9910 H   0  0  0  0  0  0  0  0  0  0  0  0
   46.4850   28.2630   47.3090 S   0  0  0  0  0  0  0  0  0  0  0  0
   44.7710   29.0860   47.2560 C   0  0  0  0  0  0  0  0  0  0  0  0
   43.7810   28.6190   47.0090 H   0  0  0  0  0  0  0  0  0  0  0  0
   44.9960   30.1590   47.5340 N   0  0  0  0  0  0  0  0  0  0  0  0
  1  6  1  0  0  0  0
  2  1  2  0  0  0  0
  2  3  1  0  0  0  0
  3  4  2  0  0  0  0
  4  5  1  0  0  0  0
  5 27  1  0  0  0  0
  6  5  2  0  0  0  0
  7  1  1  0  0  0  0
  8  3  1  0  0  0  0
  9  7  1  0  0  0  0
 10  7  1  0  0  0  0
 11  2  1  0  0  0  0
 12 11  1  0  0  0  0
 12 21  1  0  0  0  0
 13 12  2  0  0  0  0
 14 19  1  0  0  0  0
 14 13  1  0  0  0  0
 15 14  2  0  0  0  0
 16 17  2  0  0  0  0
 16 15  1  0  0  0  0
 17 18  1  0  0  0  0
 18 25  1  0  0  0  0
 18 19  2  0  0  0  0
 19 20  1  0  0  0  0
 20 26  1  0  0  0  0
 20 11  2  0  0  0  0
 22 13  1  0  0  0  0
 23 16  1  0  0  0  0
 24 17  1  0  0  0  0
 27 29  1  0  0  0  0
 27 30  1  0  0  0  0
 28 27  1  0  0  0  0
 30 32  1  0  0  0  0
 31 30  1  0  0  0  0
 33 30  1  0  0  0  0
 34 33  2  0  0  0  0
 34 35  1  0  0  0  0
 36 34  1  0  0  0  0
 37 36  1  0  0  0  0
 37 39  2  0  0  0  0
 38 37  1  0  0  0  0
 39 33  1  0  0  0  0
M  END
>  <minimizedAffinity>
-6.1819396

>  <minimizedRMSD>
2.18874788

$$$$
