
 OpenBabel03252506073D

 41 45  0  0  0  0  0  0  0  0999 V2000
   40.5900   31.1740   43.0310 Cl  0  0  0  0  0  0  0  0  0  0  0  0
   39.2930   30.7150   41.9920 C   0  0  0  0  0  0  0  0  0  0  0  0
   38.8960   31.5480   40.9540 C   0  0  0  0  0  0  0  0  0  0  0  0
   37.8520   31.0850   40.1780 C   0  0  0  0  0  0  0  0  0  0  0  0
   37.1980   29.8760   40.3730 C   0  0  0  0  0  0  0  0  0  0  0  0
   37.6160   29.0780   41.4090 C   0  0  0  0  0  0  0  0  0  0  0  0
   36.7630   27.5630   41.6160 Cl  0  0  0  0  0  0  0  0  0  0  0  0
   38.6560   29.4980   42.2090 C   0  0  0  0  0  0  0  0  0  0  0  0
   37.5640   31.7580   39.3730 H   0  0  0  0  0  0  0  0  0  0  0  0
   38.9710   28.8570   43.0200 H   0  0  0  0  0  0  0  0  0  0  0  0
   36.1140   29.5650   39.4420 C   0  0  0  0  0  0  0  0  0  0  0  0
   34.8230   29.3440   39.8400 C   0  0  0  0  0  0  0  0  0  0  0  0
   33.7770   29.0510   38.9820 C   0  0  0  0  0  0  0  0  0  0  0  0
   34.0440   28.9720   37.6200 C   0  0  0  0  0  0  0  0  0  0  0  0
   33.0180   28.6860   36.8150 N   0  0  0  0  0  0  0  0  0  0  0  0
   33.1730   28.5850   35.4670 C   0  0  0  0  0  0  0  0  0  0  0  0
   34.4640   28.7960   34.9740 C   0  0  0  0  0  0  0  0  0  0  0  0
   35.5060   29.0890   35.8220 C   0  0  0  0  0  0  0  0  0  0  0  0
   35.3110   29.1830   37.1810 C   0  0  0  0  0  0  0  0  0  0  0  0
   36.3470   29.4770   38.0640 C   0  0  0  0  0  0  0  0  0  0  0  0
   34.6550   29.4170   40.9220 H   0  0  0  0  0  0  0  0  0  0  0  0
   32.7880   28.8920   39.3930 H   0  0  0  0  0  0  0  0  0  0  0  0
   32.3690   28.3570   34.7790 H   0  0  0  0  0  0  0  0  0  0  0  0
   34.6670   28.7320   33.9060 H   0  0  0  0  0  0  0  0  0  0  0  0
   36.5080   29.2500   35.4310 H   0  0  0  0  0  0  0  0  0  0  0  0
   37.3460   29.6380   37.6490 H   0  0  0  0  0  0  0  0  0  0  0  0
   39.3660   35.1330   40.5930 C   0  0  0  0  0  0  0  0  0  0  0  0
   40.7200   35.2510   40.2400 C   0  0  0  0  0  0  0  0  0  0  0  0
   41.4750   34.0750   40.1280 C   0  0  0  0  0  0  0  0  0  0  0  0
   40.8290   32.9250   40.3680 N   0  0  0  0  0  0  0  0  0  0  0  0
   39.5390   32.8200   40.7030 C   0  0  0  0  0  0  0  0  0  0  0  0
   38.7850   33.9400   40.8210 N   0  0  0  0  0  0  0  0  0  0  0  0
   38.9000   36.0910   40.6470 H   0  0  0  0  0  0  0  0  0  0  0  0
   41.2170   36.1930   40.0520 H   0  0  0  0  0  0  0  0  0  0  0  0
   42.8730   34.0930   39.7750 C   0  0  0  0  0  0  0  0  0  0  0  0
   43.3000   34.0480   38.3960 C   0  0  0  0  0  0  0  0  0  0  0  0
   42.7260   34.0050   37.4610 H   0  0  0  0  0  0  0  0  0  0  0  0
   45.1860   34.0830   38.5700 S   0  0  0  0  0  0  0  0  0  0  0  0
   45.0730   34.1530   40.4620 C   0  0  0  0  0  0  0  0  0  0  0  0
   45.8800   34.1910   41.1620 H   0  0  0  0  0  0  0  0  0  0  0  0
   44.0000   34.1310   40.3010 N   0  0  0  0  0  0  0  0  0  0  0  0
  2  8  1  0  0  0  0
  2  1  1  0  0  0  0
  3  2  2  0  0  0  0
  4  5  2  0  0  0  0
  4  3  1  0  0  0  0
  5  6  1  0  0  0  0
  6  7  1  0  0  0  0
  6  8  2  0  0  0  0
  8 10  1  0  0  0  0
  9  4  1  0  0  0  0
 11 12  1  0  0  0  0
 11  5  1  0  0  0  0
 12 21  1  0  0  0  0
 13 22  1  0  0  0  0
 13 12  2  0  0  0  0
 14 13  1  0  0  0  0
 15 14  2  0  0  0  0
 16 15  1  0  0  0  0
 17 16  2  0  0  0  0
 17 18  1  0  0  0  0
 18 19  2  0  0  0  0
 19 14  1  0  0  0  0
 19 20  1  0  0  0  0
 20 11  2  0  0  0  0
 23 16  1  0  0  0  0
 24 17  1  0  0  0  0
 25 18  1  0  0  0  0
 26 20  1  0  0  0  0
 27 33  1  0  0  0  0
 27 32  1  0  0  0  0
 28 27  2  0  0  0  0
 29 28  1  0  0  0  0
 29 30  2  0  0  0  0
 30 31  1  0  0  0  0
 31 32  2  0  0  0  0
 31  3  1  0  0  0  0
 34 28  1  0  0  0  0
 35 29  1  0  0  0  0
 35 41  1  0  0  0  0
 36 38  1  0  0  0  0
 36 35  2  0  0  0  0
 37 36  1  0  0  0  0
 38 39  1  0  0  0  0
 39 40  1  0  0  0  0
 41 39  2  0  0  0  0
M  END
>  <minimizedAffinity>
-6.85113811

$$$$

 OpenBabel03252506073D

 41 45  0  0  0  0  0  0  0  0999 V2000
   36.9780   26.1270   38.9080 Cl  0  0  0  0  0  0  0  0  0  0  0  0
   35.6440   27.0870   38.3860 C   0  0  0  0  0  0  0  0  0  0  0  0
   35.3790   28.3090   38.9900 C   0  0  0  0  0  0  0  0  0  0  0  0
   34.2910   29.0010   38.4940 C   0  0  0  0  0  0  0  0  0  0  0  0
   33.4770   28.5580   37.4620 C   0  0  0  0  0  0  0  0  0  0  0  0
   33.7670   27.3450   36.8880 C   0  0  0  0  0  0  0  0  0  0  0  0
   32.7130   26.8280   35.5900 Cl  0  0  0  0  0  0  0  0  0  0  0  0
   34.8440   26.6190   37.3480 C   0  0  0  0  0  0  0  0  0  0  0  0
   34.1100   29.9540   38.9870 H   0  0  0  0  0  0  0  0  0  0  0  0
   35.0570   25.6680   36.8850 H   0  0  0  0  0  0  0  0  0  0  0  0
   32.3730   29.4390   37.0810 C   0  0  0  0  0  0  0  0  0  0  0  0
   31.3310   29.7400   37.9160 C   0  0  0  0  0  0  0  0  0  0  0  0
   30.2750   30.5710   37.5830 C   0  0  0  0  0  0  0  0  0  0  0  0
   30.2600   31.1440   36.3180 C   0  0  0  0  0  0  0  0  0  0  0  0
   29.2300   31.9410   36.0230 N   0  0  0  0  0  0  0  0  0  0  0  0
   29.1210   32.5510   34.8100 C   0  0  0  0  0  0  0  0  0  0  0  0
   30.1460   32.2960   33.8950 C   0  0  0  0  0  0  0  0  0  0  0  0
   31.1980   31.4720   34.2200 C   0  0  0  0  0  0  0  0  0  0  0  0
   31.2740   30.8730   35.4560 C   0  0  0  0  0  0  0  0  0  0  0  0
   32.3270   30.0330   35.8140 C   0  0  0  0  0  0  0  0  0  0  0  0
   31.3810   29.2670   38.9050 H   0  0  0  0  0  0  0  0  0  0  0  0
   29.4950   30.7490   38.3140 H   0  0  0  0  0  0  0  0  0  0  0  0
   28.3050   33.2030   34.5310 H   0  0  0  0  0  0  0  0  0  0  0  0
   30.1300   32.7470   32.9040 H   0  0  0  0  0  0  0  0  0  0  0  0
   31.9900   31.2780   33.5010 H   0  0  0  0  0  0  0  0  0  0  0  0
   33.1130   29.8540   35.0770 H   0  0  0  0  0  0  0  0  0  0  0  0
   36.9370   28.6020   42.2600 C   0  0  0  0  0  0  0  0  0  0  0  0
   37.7230   29.7590   42.1440 C   0  0  0  0  0  0  0  0  0  0  0  0
   37.7120   30.4420   40.9200 C   0  0  0  0  0  0  0  0  0  0  0  0
   36.9390   29.9250   39.9540 N   0  0  0  0  0  0  0  0  0  0  0  0
   36.1920   28.8210   40.0720 C   0  0  0  0  0  0  0  0  0  0  0  0
   36.1850   28.1400   41.2420 N   0  0  0  0  0  0  0  0  0  0  0  0
   37.0280   28.1720   43.2320 H   0  0  0  0  0  0  0  0  0  0  0  0
   38.3380   30.1550   42.9410 H   0  0  0  0  0  0  0  0  0  0  0  0
   38.4890   31.6370   40.7030 C   0  0  0  0  0  0  0  0  0  0  0  0
   37.8720   32.8600   40.2440 C   0  0  0  0  0  0  0  0  0  0  0  0
   36.8280   33.1000   40.0070 H   0  0  0  0  0  0  0  0  0  0  0  0
   39.3580   34.0310   40.1360 S   0  0  0  0  0  0  0  0  0  0  0  0
   40.5480   32.6750   40.7270 C   0  0  0  0  0  0  0  0  0  0  0  0
   41.6030   32.7540   40.8720 H   0  0  0  0  0  0  0  0  0  0  0  0
   39.6590   32.0520   40.7690 N   0  0  0  0  0  0  0  0  0  0  0  0
  2  1  1  0  0  0  0
  2  3  1  0  0  0  0
  3 31  1  0  0  0  0
  4  9  1  0  0  0  0
  4  3  2  0  0  0  0
  5  4  1  0  0  0  0
  6  8  1  0  0  0  0
  6  5  2  0  0  0  0
  7  6  1  0  0  0  0
  8  2  2  0  0  0  0
 10  8  1  0  0  0  0
 11  5  1  0  0  0  0
 11 12  1  0  0  0  0
 12 21  1  0  0  0  0
 13 12  2  0  0  0  0
 13 22  1  0  0  0  0
 14 13  1  0  0  0  0
 15 14  1  0  0  0  0
 16 15  2  0  0  0  0
 17 18  2  0  0  0  0
 17 16  1  0  0  0  0
 18 19  1  0  0  0  0
 19 20  1  0  0  0  0
 19 14  2  0  0  0  0
 20 11  2  0  0  0  0
 23 16  1  0  0  0  0
 24 17  1  0  0  0  0
 25 18  1  0  0  0  0
 26 20  1  0  0  0  0
 27 33  1  0  0  0  0
 28 27  1  0  0  0  0
 28 34  1  0  0  0  0
 29 28  2  0  0  0  0
 30 31  2  0  0  0  0
 30 29  1  0  0  0  0
 31 32  1  0  0  0  0
 32 27  2  0  0  0  0
 35 41  1  0  0  0  0
 35 29  1  0  0  0  0
 36 35  2  0  0  0  0
 37 36  1  0  0  0  0
 38 36  1  0  0  0  0
 38 39  1  0  0  0  0
 39 41  2  0  0  0  0
 39 40  1  0  0  0  0
M  END
>  <minimizedAffinity>
-6.79437065

$$$$

 OpenBabel03252506073D

 41 45  0  0  0  0  0  0  0  0999 V2000
   36.9190   34.1230   39.0680 Cl  0  0  0  0  0  0  0  0  0  0  0  0
   37.3350   32.6370   39.8390 C   0  0  0  0  0  0  0  0  0  0  0  0
   38.6010   32.4570   40.3800 C   0  0  0  0  0  0  0  0  0  0  0  0
   38.8300   31.2330   40.9790 C   0  0  0  0  0  0  0  0  0  0  0  0
   37.8970   30.2090   41.0650 C   0  0  0  0  0  0  0  0  0  0  0  0
   36.6550   30.4210   40.5180 C   0  0  0  0  0  0  0  0  0  0  0  0
   35.5120   29.1020   40.6510 Cl  0  0  0  0  0  0  0  0  0  0  0  0
   36.3810   31.6280   39.9120 C   0  0  0  0  0  0  0  0  0  0  0  0
   39.8290   31.1220   41.3930 H   0  0  0  0  0  0  0  0  0  0  0  0
   35.3990   31.7770   39.4870 H   0  0  0  0  0  0  0  0  0  0  0  0
   38.3330   28.9870   41.7400 C   0  0  0  0  0  0  0  0  0  0  0  0
   38.4530   28.8830   43.0990 C   0  0  0  0  0  0  0  0  0  0  0  0
   38.8620   27.7390   43.7640 C   0  0  0  0  0  0  0  0  0  0  0  0
   39.1750   26.6150   43.0110 C   0  0  0  0  0  0  0  0  0  0  0  0
   39.5670   25.5260   43.6780 N   0  0  0  0  0  0  0  0  0  0  0  0
   39.8970   24.3730   43.0340 C   0  0  0  0  0  0  0  0  0  0  0  0
   39.8020   24.3930   41.6400 C   0  0  0  0  0  0  0  0  0  0  0  0
   39.3960   25.5260   40.9740 C   0  0  0  0  0  0  0  0  0  0  0  0
   39.0710   26.6740   41.6590 C   0  0  0  0  0  0  0  0  0  0  0  0
   38.6570   27.8360   41.0120 C   0  0  0  0  0  0  0  0  0  0  0  0
   38.1960   29.7930   43.6560 H   0  0  0  0  0  0  0  0  0  0  0  0
   38.9260   27.7540   44.8460 H   0  0  0  0  0  0  0  0  0  0  0  0
   40.2180   23.4700   43.5350 H   0  0  0  0  0  0  0  0  0  0  0  0
   40.0490   23.5090   41.0540 H   0  0  0  0  0  0  0  0  0  0  0  0
   39.3270   25.5340   39.8890 H   0  0  0  0  0  0  0  0  0  0  0  0
   38.5920   27.8210   39.9210 H   0  0  0  0  0  0  0  0  0  0  0  0
   40.2590   35.6590   40.8290 C   0  0  0  0  0  0  0  0  0  0  0  0
   41.5120   35.4650   40.2250 C   0  0  0  0  0  0  0  0  0  0  0  0
   41.7810   34.2120   39.6580 C   0  0  0  0  0  0  0  0  0  0  0  0
   40.8060   33.2960   39.7420 N   0  0  0  0  0  0  0  0  0  0  0  0
   39.6150   33.4870   40.3190 C   0  0  0  0  0  0  0  0  0  0  0  0
   39.3270   34.6880   40.8760 N   0  0  0  0  0  0  0  0  0  0  0  0
   40.1730   36.6460   41.2230 H   0  0  0  0  0  0  0  0  0  0  0  0
   42.2820   36.2230   40.1720 H   0  0  0  0  0  0  0  0  0  0  0  0
   43.0390   33.9150   39.0190 C   0  0  0  0  0  0  0  0  0  0  0  0
   43.0940   33.1970   37.7660 C   0  0  0  0  0  0  0  0  0  0  0  0
   42.2980   32.7940   37.1280 H   0  0  0  0  0  0  0  0  0  0  0  0
   44.9600   33.1030   37.4520 S   0  0  0  0  0  0  0  0  0  0  0  0
   45.3420   34.0440   39.0550 C   0  0  0  0  0  0  0  0  0  0  0  0
   46.3010   34.3100   39.4410 H   0  0  0  0  0  0  0  0  0  0  0  0
   44.2630   34.0670   39.1820 N   0  0  0  0  0  0  0  0  0  0  0  0
  1  2  1  0  0  0  0
  2  8  2  0  0  0  0
  2  3  1  0  0  0  0
  3  4  2  0  0  0  0
  4  5  1  0  0  0  0
  4  9  1  0  0  0  0
  5 11  1  0  0  0  0
  6  7  1  0  0  0  0
  6  5  2  0  0  0  0
  8  6  1  0  0  0  0
 10  8  1  0  0  0  0
 11 12  1  0  0  0  0
 12 21  1  0  0  0  0
 12 13  2  0  0  0  0
 13 22  1  0  0  0  0
 14 15  1  0  0  0  0
 14 13  1  0  0  0  0
 16 23  1  0  0  0  0
 16 15  2  0  0  0  0
 17 16  1  0  0  0  0
 18 17  2  0  0  0  0
 18 19  1  0  0  0  0
 19 14  2  0  0  0  0
 20 19  1  0  0  0  0
 20 11  2  0  0  0  0
 24 17  1  0  0  0  0
 25 18  1  0  0  0  0
 26 20  1  0  0  0  0
 27 32  1  0  0  0  0
 27 33  1  0  0  0  0
 28 27  2  0  0  0  0
 29 30  2  0  0  0  0
 29 28  1  0  0  0  0
 30 31  1  0  0  0  0
 31  3  1  0  0  0  0
 31 32  2  0  0  0  0
 34 28  1  0  0  0  0
 35 41  1  0  0  0  0
 35 29  1  0  0  0  0
 36 35  2  0  0  0  0
 37 36  1  0  0  0  0
 38 36  1  0  0  0  0
 38 39  1  0  0  0  0
 39 41  2  0  0  0  0
 39 40  1  0  0  0  0
M  END
>  <minimizedAffinity>
-6.73459768

$$$$

 OpenBabel03252506073D

 41 45  0  0  0  0  0  0  0  0999 V2000
   39.2600   34.8750   39.7970 Cl  0  0  0  0  0  0  0  0  0  0  0  0
   39.0030   33.2420   40.2880 C   0  0  0  0  0  0  0  0  0  0  0  0
   40.0830   32.4130   40.5630 C   0  0  0  0  0  0  0  0  0  0  0  0
   39.7680   31.1250   40.9520 C   0  0  0  0  0  0  0  0  0  0  0  0
   38.4770   30.6320   41.0790 C   0  0  0  0  0  0  0  0  0  0  0  0
   37.4330   31.4780   40.7980 C   0  0  0  0  0  0  0  0  0  0  0  0
   35.8240   30.8120   40.9720 Cl  0  0  0  0  0  0  0  0  0  0  0  0
   37.6990   32.7730   40.4070 C   0  0  0  0  0  0  0  0  0  0  0  0
   40.6340   30.5010   41.1610 H   0  0  0  0  0  0  0  0  0  0  0  0
   36.8650   33.4240   40.1910 H   0  0  0  0  0  0  0  0  0  0  0  0
   38.3530   29.2380   41.5050 C   0  0  0  0  0  0  0  0  0  0  0  0
   38.7520   28.7920   42.7360 C   0  0  0  0  0  0  0  0  0  0  0  0
   38.6450   27.4800   43.1670 C   0  0  0  0  0  0  0  0  0  0  0  0
   38.0970   26.5440   42.2990 C   0  0  0  0  0  0  0  0  0  0  0  0
   38.0070   25.2870   42.7390 N   0  0  0  0  0  0  0  0  0  0  0  0
   37.4860   24.2930   41.9660 C   0  0  0  0  0  0  0  0  0  0  0  0
   37.0540   24.6640   40.6900 C   0  0  0  0  0  0  0  0  0  0  0  0
   37.1560   25.9650   40.2580 C   0  0  0  0  0  0  0  0  0  0  0  0
   37.6890   26.9430   41.0670 C   0  0  0  0  0  0  0  0  0  0  0  0
   37.8060   28.2680   40.6560 C   0  0  0  0  0  0  0  0  0  0  0  0
   39.1790   29.5620   43.3910 H   0  0  0  0  0  0  0  0  0  0  0  0
   38.9890   27.2230   44.1610 H   0  0  0  0  0  0  0  0  0  0  0  0
   37.3940   23.2640   42.2840 H   0  0  0  0  0  0  0  0  0  0  0  0
   36.6250   23.9260   40.0140 H   0  0  0  0  0  0  0  0  0  0  0  0
   36.8190   26.2450   39.2620 H   0  0  0  0  0  0  0  0  0  0  0  0
   37.4590   28.5270   39.6530 H   0  0  0  0  0  0  0  0  0  0  0  0
   43.2990   33.2500   39.0940 C   0  0  0  0  0  0  0  0  0  0  0  0
   44.0390   33.7350   40.1850 C   0  0  0  0  0  0  0  0  0  0  0  0
   43.4150   33.7700   41.4390 C   0  0  0  0  0  0  0  0  0  0  0  0
   42.1490   33.3320   41.4900 N   0  0  0  0  0  0  0  0  0  0  0  0
   41.4500   32.8710   40.4460 C   0  0  0  0  0  0  0  0  0  0  0  0
   42.0270   32.8270   39.2220 N   0  0  0  0  0  0  0  0  0  0  0  0
   43.8780   33.2720   38.1990 H   0  0  0  0  0  0  0  0  0  0  0  0
   45.0610   34.0830   40.1150 H   0  0  0  0  0  0  0  0  0  0  0  0
   44.0910   34.2550   42.6170 C   0  0  0  0  0  0  0  0  0  0  0  0
   43.9710   35.6310   43.0390 C   0  0  0  0  0  0  0  0  0  0  0  0
   43.4130   36.4730   42.6120 H   0  0  0  0  0  0  0  0  0  0  0  0
   45.0610   35.6610   44.5890 S   0  0  0  0  0  0  0  0  0  0  0  0
   45.4860   33.8210   44.4020 C   0  0  0  0  0  0  0  0  0  0  0  0
   46.1130   33.2310   45.0330 H   0  0  0  0  0  0  0  0  0  0  0  0
   44.8490   33.8650   43.5230 N   0  0  0  0  0  0  0  0  0  0  0  0
  1  2  1  0  0  0  0
  2  8  2  0  0  0  0
  2  3  1  0  0  0  0
  3  4  2  0  0  0  0
  4  5  1  0  0  0  0
  4  9  1  0  0  0  0
  5 11  1  0  0  0  0
  6  7  1  0  0  0  0
  6  5  2  0  0  0  0
  8  6  1  0  0  0  0
 10  8  1  0  0  0  0
 11 12  1  0  0  0  0
 12 13  2  0  0  0  0
 12 21  1  0  0  0  0
 13 22  1  0  0  0  0
 14 15  1  0  0  0  0
 14 13  1  0  0  0  0
 16 23  1  0  0  0  0
 16 15  2  0  0  0  0
 17 16  1  0  0  0  0
 18 17  2  0  0  0  0
 18 19  1  0  0  0  0
 19 14  2  0  0  0  0
 20 19  1  0  0  0  0
 20 11  2  0  0  0  0
 24 17  1  0  0  0  0
 25 18  1  0  0  0  0
 26 20  1  0  0  0  0
 27 32  2  0  0  0  0
 27 28  1  0  0  0  0
 28 29  2  0  0  0  0
 29 30  1  0  0  0  0
 29 35  1  0  0  0  0
 31  3  1  0  0  0  0
 31 30  2  0  0  0  0
 32 31  1  0  0  0  0
 33 27  1  0  0  0  0
 34 28  1  0  0  0  0
 35 36  2  0  0  0  0
 35 41  1  0  0  0  0
 36 38  1  0  0  0  0
 37 36  1  0  0  0  0
 39 38  1  0  0  0  0
 39 40  1  0  0  0  0
 41 39  2  0  0  0  0
M  END
>  <minimizedAffinity>
-6.70653248

$$$$

 OpenBabel03252506073D

 41 45  0  0  0  0  0  0  0  0999 V2000
   38.4280   34.8180   39.7600 Cl  0  0  0  0  0  0  0  0  0  0  0  0
   38.5050   33.1240   40.0710 C   0  0  0  0  0  0  0  0  0  0  0  0
   39.7140   32.4470   39.9780 C   0  0  0  0  0  0  0  0  0  0  0  0
   39.6680   31.0940   40.2520 C   0  0  0  0  0  0  0  0  0  0  0  0
   38.5200   30.3980   40.6020 C   0  0  0  0  0  0  0  0  0  0  0  0
   37.3420   31.0980   40.6850 C   0  0  0  0  0  0  0  0  0  0  0  0
   35.9200   30.1790   41.1300 Cl  0  0  0  0  0  0  0  0  0  0  0  0
   37.3390   32.4510   40.4210 C   0  0  0  0  0  0  0  0  0  0  0  0
   40.6290   30.5920   40.1710 H   0  0  0  0  0  0  0  0  0  0  0  0
   36.4040   32.9850   40.4910 H   0  0  0  0  0  0  0  0  0  0  0  0
   38.6790   28.9660   40.8540 C   0  0  0  0  0  0  0  0  0  0  0  0
   38.3360   28.0020   39.9450 C   0  0  0  0  0  0  0  0  0  0  0  0
   38.4780   26.6400   40.1550 C   0  0  0  0  0  0  0  0  0  0  0  0
   39.0020   26.2110   41.3680 C   0  0  0  0  0  0  0  0  0  0  0  0
   39.1270   24.8940   41.5440 N   0  0  0  0  0  0  0  0  0  0  0  0
   39.6280   24.3700   42.6970 C   0  0  0  0  0  0  0  0  0  0  0  0
   40.0030   25.2880   43.6810 C   0  0  0  0  0  0  0  0  0  0  0  0
   39.8660   26.6410   43.4780 C   0  0  0  0  0  0  0  0  0  0  0  0
   39.3550   27.1340   42.3000 C   0  0  0  0  0  0  0  0  0  0  0  0
   39.2030   28.4980   42.0650 C   0  0  0  0  0  0  0  0  0  0  0  0
   37.9270   28.3820   39.0000 H   0  0  0  0  0  0  0  0  0  0  0  0
   38.1780   25.9540   39.3730 H   0  0  0  0  0  0  0  0  0  0  0  0
   39.7460   23.3110   42.8800 H   0  0  0  0  0  0  0  0  0  0  0  0
   40.4130   24.9470   44.6310 H   0  0  0  0  0  0  0  0  0  0  0  0
   40.1590   27.3490   44.2510 H   0  0  0  0  0  0  0  0  0  0  0  0
   39.5060   29.1910   42.8540 H   0  0  0  0  0  0  0  0  0  0  0  0
   42.3390   33.9160   37.9400 C   0  0  0  0  0  0  0  0  0  0  0  0
   43.2600   34.3920   38.8870 C   0  0  0  0  0  0  0  0  0  0  0  0
   42.9660   34.2000   40.2440 C   0  0  0  0  0  0  0  0  0  0  0  0
   41.8160   33.5700   40.5230 N   0  0  0  0  0  0  0  0  0  0  0  0
   40.9430   33.1190   39.6150 C   0  0  0  0  0  0  0  0  0  0  0  0
   41.2010   33.2920   38.2960 N   0  0  0  0  0  0  0  0  0  0  0  0
   42.6710   34.1200   36.9470 H   0  0  0  0  0  0  0  0  0  0  0  0
   44.1820   34.8980   38.6340 H   0  0  0  0  0  0  0  0  0  0  0  0
   43.8460   34.6570   41.2900 C   0  0  0  0  0  0  0  0  0  0  0  0
   45.2780   34.4870   41.1940 C   0  0  0  0  0  0  0  0  0  0  0  0
   45.9030   34.0430   40.4100 H   0  0  0  0  0  0  0  0  0  0  0  0
   45.8710   35.2470   42.8250 S   0  0  0  0  0  0  0  0  0  0  0  0
   44.0960   35.6610   43.3510 C   0  0  0  0  0  0  0  0  0  0  0  0
   43.7790   36.1370   44.2530 H   0  0  0  0  0  0  0  0  0  0  0  0
   43.8150   35.2140   42.4020 N   0  0  0  0  0  0  0  0  0  0  0  0
  1  2  1  0  0  0  0
  2  8  1  0  0  0  0
  3  2  2  0  0  0  0
  3  4  1  0  0  0  0
  4  5  2  0  0  0  0
  5  6  1  0  0  0  0
  5 11  1  0  0  0  0
  6  7  1  0  0  0  0
  8 10  1  0  0  0  0
  8  6  2  0  0  0  0
  9  4  1  0  0  0  0
 11 20  1  0  0  0  0
 12 13  1  0  0  0  0
 12 11  2  0  0  0  0
 13 14  2  0  0  0  0
 14 15  1  0  0  0  0
 14 19  1  0  0  0  0
 15 16  2  0  0  0  0
 16 23  1  0  0  0  0
 16 17  1  0  0  0  0
 17 24  1  0  0  0  0
 18 17  2  0  0  0  0
 18 25  1  0  0  0  0
 19 18  1  0  0  0  0
 20 19  2  0  0  0  0
 20 26  1  0  0  0  0
 21 12  1  0  0  0  0
 22 13  1  0  0  0  0
 27 32  2  0  0  0  0
 27 28  1  0  0  0  0
 28 29  2  0  0  0  0
 29 30  1  0  0  0  0
 29 35  1  0  0  0  0
 31  3  1  0  0  0  0
 31 30  2  0  0  0  0
 32 31  1  0  0  0  0
 33 27  1  0  0  0  0
 34 28  1  0  0  0  0
 35 41  1  0  0  0  0
 36 35  2  0  0  0  0
 36 38  1  0  0  0  0
 37 36  1  0  0  0  0
 38 39  1  0  0  0  0
 39 40  1  0  0  0  0
 41 39  2  0  0  0  0
M  END
>  <minimizedAffinity>
-6.56421804

$$$$

 OpenBabel03252506073D

 41 45  0  0  0  0  0  0  0  0999 V2000
   38.3160   34.6320   39.9250 Cl  0  0  0  0  0  0  0  0  0  0  0  0
   38.2600   32.9080   39.9430 C   0  0  0  0  0  0  0  0  0  0  0  0
   39.3910   32.1660   39.6310 C   0  0  0  0  0  0  0  0  0  0  0  0
   39.2410   30.7930   39.6790 C   0  0  0  0  0  0  0  0  0  0  0  0
   38.0630   30.1390   40.0100 C   0  0  0  0  0  0  0  0  0  0  0  0
   36.9640   30.9040   40.3120 C   0  0  0  0  0  0  0  0  0  0  0  0
   35.5010   30.0350   40.7240 Cl  0  0  0  0  0  0  0  0  0  0  0  0
   37.0670   32.2780   40.2790 C   0  0  0  0  0  0  0  0  0  0  0  0
   40.1440   30.2400   39.4310 H   0  0  0  0  0  0  0  0  0  0  0  0
   36.1920   32.8630   40.5190 H   0  0  0  0  0  0  0  0  0  0  0  0
   38.1090   28.6770   40.0050 C   0  0  0  0  0  0  0  0  0  0  0  0
   38.0740   27.9290   38.8590 C   0  0  0  0  0  0  0  0  0  0  0  0
   38.1180   26.5460   38.8240 C   0  0  0  0  0  0  0  0  0  0  0  0
   38.2010   25.8580   40.0280 C   0  0  0  0  0  0  0  0  0  0  0  0
   38.2400   24.5250   39.9660 N   0  0  0  0  0  0  0  0  0  0  0  0
   38.3210   23.7580   41.0880 C   0  0  0  0  0  0  0  0  0  0  0  0
   38.3600   24.4430   42.3050 C   0  0  0  0  0  0  0  0  0  0  0  0
   38.3180   25.8170   42.3460 C   0  0  0  0  0  0  0  0  0  0  0  0
   38.2360   26.5600   41.1900 C   0  0  0  0  0  0  0  0  0  0  0  0
   38.1920   27.9520   41.2000 C   0  0  0  0  0  0  0  0  0  0  0  0
   38.0090   28.5100   37.9300 H   0  0  0  0  0  0  0  0  0  0  0  0
   38.0860   26.0420   37.8650 H   0  0  0  0  0  0  0  0  0  0  0  0
   38.3560   22.6770   41.0820 H   0  0  0  0  0  0  0  0  0  0  0  0
   38.4240   23.8990   43.2460 H   0  0  0  0  0  0  0  0  0  0  0  0
   38.3470   26.3430   43.2970 H   0  0  0  0  0  0  0  0  0  0  0  0
   38.2250   28.4590   42.1670 H   0  0  0  0  0  0  0  0  0  0  0  0
   42.1340   33.4360   37.6140 C   0  0  0  0  0  0  0  0  0  0  0  0
   43.0150   33.9770   38.5640 C   0  0  0  0  0  0  0  0  0  0  0  0
   42.6510   33.9000   39.9160 C   0  0  0  0  0  0  0  0  0  0  0  0
   41.4800   33.3070   40.1870 N   0  0  0  0  0  0  0  0  0  0  0  0
   40.6460   32.7930   39.2760 C   0  0  0  0  0  0  0  0  0  0  0  0
   40.9700   32.8540   37.9630 N   0  0  0  0  0  0  0  0  0  0  0  0
   42.5170   33.5550   36.6260 H   0  0  0  0  0  0  0  0  0  0  0  0
   43.9550   34.4510   38.3170 H   0  0  0  0  0  0  0  0  0  0  0  0
   43.4860   34.4300   40.9650 C   0  0  0  0  0  0  0  0  0  0  0  0
   42.9450   35.2880   41.9940 C   0  0  0  0  0  0  0  0  0  0  0  0
   41.9260   35.6560   42.1680 H   0  0  0  0  0  0  0  0  0  0  0  0
   44.4810   35.6610   43.0390 S   0  0  0  0  0  0  0  0  0  0  0  0
   45.5810   34.6000   41.9150 C   0  0  0  0  0  0  0  0  0  0  0  0
   46.6290   34.4180   42.0130 H   0  0  0  0  0  0  0  0  0  0  0  0
   44.6670   34.4210   41.3550 N   0  0  0  0  0  0  0  0  0  0  0  0
  1  2  1  0  0  0  0
  2  8  1  0  0  0  0
  3  4  1  0  0  0  0
  3  2  2  0  0  0  0
  4  5  2  0  0  0  0
  5  6  1  0  0  0  0
  6  7  1  0  0  0  0
  8  6  2  0  0  0  0
  8 10  1  0  0  0  0
  9  4  1  0  0  0  0
 11  5  1  0  0  0  0
 11 20  1  0  0  0  0
 12 11  2  0  0  0  0
 13 12  1  0  0  0  0
 13 14  2  0  0  0  0
 14 19  1  0  0  0  0
 15 14  1  0  0  0  0
 15 16  2  0  0  0  0
 16 17  1  0  0  0  0
 17 18  2  0  0  0  0
 17 24  1  0  0  0  0
 18 25  1  0  0  0  0
 19 20  2  0  0  0  0
 19 18  1  0  0  0  0
 20 26  1  0  0  0  0
 21 12  1  0  0  0  0
 22 13  1  0  0  0  0
 23 16  1  0  0  0  0
 27 32  2  0  0  0  0
 27 28  1  0  0  0  0
 28 29  2  0  0  0  0
 29 30  1  0  0  0  0
 29 35  1  0  0  0  0
 31  3  1  0  0  0  0
 31 30  2  0  0  0  0
 32 31  1  0  0  0  0
 33 27  1  0  0  0  0
 34 28  1  0  0  0  0
 35 41  1  0  0  0  0
 35 36  2  0  0  0  0
 36 37  1  0  0  0  0
 36 38  1  0  0  0  0
 39 40  1  0  0  0  0
 39 38  1  0  0  0  0
 41 39  2  0  0  0  0
M  END
>  <minimizedAffinity>
-6.40947294

$$$$

 OpenBabel03252506073D

 41 45  0  0  0  0  0  0  0  0999 V2000
   39.6630   34.6470   40.0840 Cl  0  0  0  0  0  0  0  0  0  0  0  0
   39.2480   33.0160   40.4630 C   0  0  0  0  0  0  0  0  0  0  0  0
   40.2410   32.0830   40.7320 C   0  0  0  0  0  0  0  0  0  0  0  0
   39.8020   30.8080   41.0280 C   0  0  0  0  0  0  0  0  0  0  0  0
   38.4700   30.4200   41.0700 C   0  0  0  0  0  0  0  0  0  0  0  0
   37.5150   31.3680   40.7980 C   0  0  0  0  0  0  0  0  0  0  0  0
   35.8490   30.8340   40.8630 Cl  0  0  0  0  0  0  0  0  0  0  0  0
   37.9050   32.6550   40.4990 C   0  0  0  0  0  0  0  0  0  0  0  0
   40.6020   30.1000   41.2340 H   0  0  0  0  0  0  0  0  0  0  0  0
   37.1400   33.3870   40.2880 H   0  0  0  0  0  0  0  0  0  0  0  0
   38.2110   29.0200   41.4040 C   0  0  0  0  0  0  0  0  0  0  0  0
   38.4390   28.4910   42.6460 C   0  0  0  0  0  0  0  0  0  0  0  0
   38.2010   27.1710   42.9910 C   0  0  0  0  0  0  0  0  0  0  0  0
   37.6970   26.3160   42.0190 C   0  0  0  0  0  0  0  0  0  0  0  0
   37.4780   25.0490   42.3780 N   0  0  0  0  0  0  0  0  0  0  0  0
   36.9860   24.1310   41.5010 C   0  0  0  0  0  0  0  0  0  0  0  0
   36.7250   24.5890   40.2070 C   0  0  0  0  0  0  0  0  0  0  0  0
   36.9580   25.8990   39.8590 C   0  0  0  0  0  0  0  0  0  0  0  0
   37.4570   26.7990   40.7730 C   0  0  0  0  0  0  0  0  0  0  0  0
   37.7030   28.1310   40.4490 C   0  0  0  0  0  0  0  0  0  0  0  0
   38.8370   29.1990   43.3840 H   0  0  0  0  0  0  0  0  0  0  0  0
   38.4140   26.8450   44.0020 H   0  0  0  0  0  0  0  0  0  0  0  0
   36.7940   23.0960   41.7510 H   0  0  0  0  0  0  0  0  0  0  0  0
   36.3300   23.9150   39.4490 H   0  0  0  0  0  0  0  0  0  0  0  0
   36.7540   26.2470   38.8490 H   0  0  0  0  0  0  0  0  0  0  0  0
   37.4890   28.4590   39.4290 H   0  0  0  0  0  0  0  0  0  0  0  0
   43.4950   33.2870   41.8120 C   0  0  0  0  0  0  0  0  0  0  0  0
   44.3060   33.0930   40.6820 C   0  0  0  0  0  0  0  0  0  0  0  0
   43.7170   32.5400   39.5370 C   0  0  0  0  0  0  0  0  0  0  0  0
   42.4130   32.2410   39.6210 N   0  0  0  0  0  0  0  0  0  0  0  0
   41.6460   32.4290   40.7010 C   0  0  0  0  0  0  0  0  0  0  0  0
   42.1890   32.9600   41.8220 N   0  0  0  0  0  0  0  0  0  0  0  0
   44.0530   33.7110   42.6160 H   0  0  0  0  0  0  0  0  0  0  0  0
   45.3580   33.3440   40.6420 H   0  0  0  0  0  0  0  0  0  0  0  0
   44.4680   32.2990   38.3300 C   0  0  0  0  0  0  0  0  0  0  0  0
   44.4030   31.0270   37.6470 C   0  0  0  0  0  0  0  0  0  0  0  0
   43.8410   30.1120   37.8720 H   0  0  0  0  0  0  0  0  0  0  0  0
   45.5770   31.3080   36.1870 S   0  0  0  0  0  0  0  0  0  0  0  0
   45.9490   33.0830   36.7460 C   0  0  0  0  0  0  0  0  0  0  0  0
   46.5960   33.7910   36.2770 H   0  0  0  0  0  0  0  0  0  0  0  0
   45.2660   32.8640   37.5610 N   0  0  0  0  0  0  0  0  0  0  0  0
  1  2  1  0  0  0  0
  2  8  2  0  0  0  0
  2  3  1  0  0  0  0
  3  4  2  0  0  0  0
  4  5  1  0  0  0  0
  4  9  1  0  0  0  0
  5 11  1  0  0  0  0
  6  7  1  0  0  0  0
  6  5  2  0  0  0  0
  8  6  1  0  0  0  0
 10  8  1  0  0  0  0
 11 12  1  0  0  0  0
 12 13  2  0  0  0  0
 12 21  1  0  0  0  0
 13 22  1  0  0  0  0
 14 15  1  0  0  0  0
 14 13  1  0  0  0  0
 16 23  1  0  0  0  0
 16 15  2  0  0  0  0
 17 16  1  0  0  0  0
 18 17  2  0  0  0  0
 18 19  1  0  0  0  0
 19 14  2  0  0  0  0
 20 19  1  0  0  0  0
 20 11  2  0  0  0  0
 24 17  1  0  0  0  0
 25 18  1  0  0  0  0
 26 20  1  0  0  0  0
 27 32  1  0  0  0  0
 27 33  1  0  0  0  0
 28 27  2  0  0  0  0
 29 30  2  0  0  0  0
 29 28  1  0  0  0  0
 30 31  1  0  0  0  0
 31  3  1  0  0  0  0
 31 32  2  0  0  0  0
 34 28  1  0  0  0  0
 35 29  1  0  0  0  0
 36 37  1  0  0  0  0
 36 35  2  0  0  0  0
 38 39  1  0  0  0  0
 38 36  1  0  0  0  0
 39 41  2  0  0  0  0
 40 39  1  0  0  0  0
 41 35  1  0  0  0  0
M  END
>  <minimizedAffinity>
-6.3061614

$$$$

 OpenBabel03252506073D

 41 45  0  0  0  0  0  0  0  0999 V2000
   35.2550   26.2130   38.1160 Cl  0  0  0  0  0  0  0  0  0  0  0  0
   36.0330   27.7080   38.4830 C   0  0  0  0  0  0  0  0  0  0  0  0
   35.5760   28.8940   37.9230 C   0  0  0  0  0  0  0  0  0  0  0  0
   36.2660   30.0340   38.2860 C   0  0  0  0  0  0  0  0  0  0  0  0
   37.3530   30.0590   39.1490 C   0  0  0  0  0  0  0  0  0  0  0  0
   37.7780   28.8690   39.6840 C   0  0  0  0  0  0  0  0  0  0  0  0
   39.1510   28.9490   40.7660 Cl  0  0  0  0  0  0  0  0  0  0  0  0
   37.1200   27.7040   39.3510 C   0  0  0  0  0  0  0  0  0  0  0  0
   35.8850   30.9460   37.8320 H   0  0  0  0  0  0  0  0  0  0  0  0
   37.4680   26.7770   39.7820 H   0  0  0  0  0  0  0  0  0  0  0  0
   37.9470   31.3710   39.4080 C   0  0  0  0  0  0  0  0  0  0  0  0
   37.3130   32.3540   40.1170 C   0  0  0  0  0  0  0  0  0  0  0  0
   37.8510   33.6030   40.3790 C   0  0  0  0  0  0  0  0  0  0  0  0
   39.1210   33.8880   39.8940 C   0  0  0  0  0  0  0  0  0  0  0  0
   39.6160   35.0990   40.1600 N   0  0  0  0  0  0  0  0  0  0  0  0
   40.8500   35.4790   39.7290 C   0  0  0  0  0  0  0  0  0  0  0  0
   41.5670   34.5310   38.9940 C   0  0  0  0  0  0  0  0  0  0  0  0
   41.0380   33.2890   38.7310 C   0  0  0  0  0  0  0  0  0  0  0  0
   39.7860   32.9420   39.1830 C   0  0  0  0  0  0  0  0  0  0  0  0
   39.2240   31.6920   38.9330 C   0  0  0  0  0  0  0  0  0  0  0  0
   36.3130   32.0880   40.4830 H   0  0  0  0  0  0  0  0  0  0  0  0
   37.2710   34.3160   40.9520 H   0  0  0  0  0  0  0  0  0  0  0  0
   41.2880   36.4490   39.9230 H   0  0  0  0  0  0  0  0  0  0  0  0
   42.5620   34.7610   38.6150 H   0  0  0  0  0  0  0  0  0  0  0  0
   41.6030   32.5580   38.1570 H   0  0  0  0  0  0  0  0  0  0  0  0
   39.8100   30.9720   38.3560 H   0  0  0  0  0  0  0  0  0  0  0  0
   33.6320   28.6060   34.8670 C   0  0  0  0  0  0  0  0  0  0  0  0
   32.3380   28.9800   35.2670 C   0  0  0  0  0  0  0  0  0  0  0  0
   32.1420   29.3340   36.6090 C   0  0  0  0  0  0  0  0  0  0  0  0
   33.2200   29.2860   37.4040 N   0  0  0  0  0  0  0  0  0  0  0  0
   34.4490   28.9290   37.0160 C   0  0  0  0  0  0  0  0  0  0  0  0
   34.6690   28.5800   35.7260 N   0  0  0  0  0  0  0  0  0  0  0  0
   33.6550   28.3590   33.8300 H   0  0  0  0  0  0  0  0  0  0  0  0
   31.4840   29.0100   34.6030 H   0  0  0  0  0  0  0  0  0  0  0  0
   30.8510   29.7280   37.1150 C   0  0  0  0  0  0  0  0  0  0  0  0
   30.5740   31.0980   37.4820 C   0  0  0  0  0  0  0  0  0  0  0  0
   31.2020   31.9970   37.4480 H   0  0  0  0  0  0  0  0  0  0  0  0
   28.7770   30.9890   38.0720 S   0  0  0  0  0  0  0  0  0  0  0  0
   28.7090   29.1260   37.7230 C   0  0  0  0  0  0  0  0  0  0  0  0
   27.8830   28.4650   37.8720 H   0  0  0  0  0  0  0  0  0  0  0  0
   29.7380   29.2490   37.3970 N   0  0  0  0  0  0  0  0  0  0  0  0
  1  2  1  0  0  0  0
  2  8  1  0  0  0  0
  3  4  1  0  0  0  0
  3  2  2  0  0  0  0
  4  5  2  0  0  0  0
  5 11  1  0  0  0  0
  5  6  1  0  0  0  0
  6  7  1  0  0  0  0
  8  6  2  0  0  0  0
  8 10  1  0  0  0  0
  9  4  1  0  0  0  0
 11 12  1  0  0  0  0
 12 13  2  0  0  0  0
 12 21  1  0  0  0  0
 13 22  1  0  0  0  0
 14 15  1  0  0  0  0
 14 13  1  0  0  0  0
 16 23  1  0  0  0  0
 16 15  2  0  0  0  0
 17 16  1  0  0  0  0
 18 17  2  0  0  0  0
 18 19  1  0  0  0  0
 19 14  2  0  0  0  0
 20 19  1  0  0  0  0
 20 11  2  0  0  0  0
 24 17  1  0  0  0  0
 25 18  1  0  0  0  0
 26 20  1  0  0  0  0
 27 28  2  0  0  0  0
 27 32  1  0  0  0  0
 28 29  1  0  0  0  0
 29 35  1  0  0  0  0
 29 30  2  0  0  0  0
 31 30  1  0  0  0  0
 31  3  1  0  0  0  0
 32 31  2  0  0  0  0
 33 27  1  0  0  0  0
 34 28  1  0  0  0  0
 35 41  1  0  0  0  0
 35 36  2  0  0  0  0
 36 38  1  0  0  0  0
 37 36  1  0  0  0  0
 39 40  1  0  0  0  0
 39 38  1  0  0  0  0
 41 39  2  0  0  0  0
M  END
>  <minimizedAffinity>
-6.20839977

$$$$

 OpenBabel03252506073D

 41 45  0  0  0  0  0  0  0  0999 V2000
   36.2030   27.7590   42.9540 Cl  0  0  0  0  0  0  0  0  0  0  0  0
   37.2380   28.7330   41.9780 C   0  0  0  0  0  0  0  0  0  0  0  0
   38.4680   28.2460   41.5560 C   0  0  0  0  0  0  0  0  0  0  0  0
   39.2180   29.1040   40.7750 C   0  0  0  0  0  0  0  0  0  0  0  0
   38.8240   30.3820   40.4040 C   0  0  0  0  0  0  0  0  0  0  0  0
   37.6030   30.8320   40.8400 C   0  0  0  0  0  0  0  0  0  0  0  0
   37.1490   32.4490   40.3470 Cl  0  0  0  0  0  0  0  0  0  0  0  0
   36.8190   30.0100   41.6200 C   0  0  0  0  0  0  0  0  0  0  0  0
   40.1750   28.6950   40.4590 H   0  0  0  0  0  0  0  0  0  0  0  0
   35.8610   30.3810   41.9540 H   0  0  0  0  0  0  0  0  0  0  0  0
   39.7630   31.1350   39.5720 C   0  0  0  0  0  0  0  0  0  0  0  0
   39.6680   31.2030   38.2080 C   0  0  0  0  0  0  0  0  0  0  0  0
   40.5400   31.9090   37.3960 C   0  0  0  0  0  0  0  0  0  0  0  0
   41.5860   32.6000   37.9950 C   0  0  0  0  0  0  0  0  0  0  0  0
   42.4120   33.2710   37.1890 N   0  0  0  0  0  0  0  0  0  0  0  0
   43.4680   33.9790   37.6760 C   0  0  0  0  0  0  0  0  0  0  0  0
   43.6380   33.9630   39.0620 C   0  0  0  0  0  0  0  0  0  0  0  0
   42.7750   33.2650   39.8740 C   0  0  0  0  0  0  0  0  0  0  0  0
   41.7180   32.5590   39.3460 C   0  0  0  0  0  0  0  0  0  0  0  0
   40.8280   31.8420   40.1420 C   0  0  0  0  0  0  0  0  0  0  0  0
   38.8290   30.6440   37.7750 H   0  0  0  0  0  0  0  0  0  0  0  0
   40.3820   31.9020   36.3240 H   0  0  0  0  0  0  0  0  0  0  0  0
   44.1600   34.5360   37.0590 H   0  0  0  0  0  0  0  0  0  0  0  0
   44.4600   34.5060   39.5270 H   0  0  0  0  0  0  0  0  0  0  0  0
   42.9150   33.2560   40.9520 H   0  0  0  0  0  0  0  0  0  0  0  0
   40.9870   31.8490   41.2240 H   0  0  0  0  0  0  0  0  0  0  0  0
   40.0020   25.5530   43.4520 C   0  0  0  0  0  0  0  0  0  0  0  0
   39.8240   24.4300   42.6270 C   0  0  0  0  0  0  0  0  0  0  0  0
   39.1660   24.6120   41.4030 C   0  0  0  0  0  0  0  0  0  0  0  0
   38.7590   25.8580   41.1220 N   0  0  0  0  0  0  0  0  0  0  0  0
   38.9320   26.9230   41.9130 C   0  0  0  0  0  0  0  0  0  0  0  0
   39.5640   26.7770   43.1020 N   0  0  0  0  0  0  0  0  0  0  0  0
   40.5120   25.2900   44.3510 H   0  0  0  0  0  0  0  0  0  0  0  0
   40.1620   23.4340   42.8790 H   0  0  0  0  0  0  0  0  0  0  0  0
   38.9320   23.5210   40.4900 C   0  0  0  0  0  0  0  0  0  0  0  0
   39.4610   23.5400   39.1460 C   0  0  0  0  0  0  0  0  0  0  0  0
   40.0720   24.2840   38.6190 H   0  0  0  0  0  0  0  0  0  0  0  0
   38.8260   21.8950   38.4520 S   0  0  0  0  0  0  0  0  0  0  0  0
   37.9620   21.4680   40.0870 C   0  0  0  0  0  0  0  0  0  0  0  0
   37.3940   20.5920   40.3130 H   0  0  0  0  0  0  0  0  0  0  0  0
   38.3540   22.4210   40.4290 N   0  0  0  0  0  0  0  0  0  0  0  0
  2  1  1  0  0  0  0
  3 31  1  0  0  0  0
  3  2  2  0  0  0  0
  4  3  1  0  0  0  0
  5  4  2  0  0  0  0
  5  6  1  0  0  0  0
  6  8  2  0  0  0  0
  7  6  1  0  0  0  0
  8 10  1  0  0  0  0
  8  2  1  0  0  0  0
  9  4  1  0  0  0  0
 11 20  1  0  0  0  0
 11  5  1  0  0  0  0
 12 11  2  0  0  0  0
 13 14  2  0  0  0  0
 13 12  1  0  0  0  0
 14 19  1  0  0  0  0
 15 16  2  0  0  0  0
 15 14  1  0  0  0  0
 16 17  1  0  0  0  0
 17 24  1  0  0  0  0
 17 18  2  0  0  0  0
 18 25  1  0  0  0  0
 19 18  1  0  0  0  0
 19 20  2  0  0  0  0
 20 26  1  0  0  0  0
 21 12  1  0  0  0  0
 22 13  1  0  0  0  0
 23 16  1  0  0  0  0
 27 33  1  0  0  0  0
 28 34  1  0  0  0  0
 28 27  2  0  0  0  0
 29 28  1  0  0  0  0
 30 29  2  0  0  0  0
 30 31  1  0  0  0  0
 31 32  2  0  0  0  0
 32 27  1  0  0  0  0
 35 29  1  0  0  0  0
 36 35  2  0  0  0  0
 37 36  1  0  0  0  0
 38 36  1  0  0  0  0
 38 39  1  0  0  0  0
 39 40  1  0  0  0  0
 39 41  2  0  0  0  0
 41 35  1  0  0  0  0
M  END
>  <minimizedAffinity>
-6.16952801

$$$$
