
 OpenBabel03252509263D

 28 30  0  0  1  0  0  0  0  0999 V2000
   46.5970   35.0910   41.9200 C   0  0  1  0  0  0  0  0  0  0  0  0
   48.1450   35.2530   41.9350 C   0  0  0  0  0  0  0  0  0  0  0  0
   47.3350   34.0830   41.2820 C   0  0  2  0  0  0  0  0  0  0  0  0
   46.0800   35.9030   41.3690 H   0  0  0  0  0  0  0  0  0  0  0  0
   48.6900   35.0380   42.8530 H   0  0  0  0  0  0  0  0  0  0  0  0
   48.5310   35.9520   41.1840 H   0  0  0  0  0  0  0  0  0  0  0  0
   47.5720   33.0950   41.7870 H   0  0  0  0  0  0  0  0  0  0  0  0
   44.6490   35.3990   45.1160 C   0  0  0  0  0  0  0  0  0  0  0  0
   45.1270   35.7200   43.8040 C   0  0  0  0  0  0  0  0  0  0  0  0
   46.0780   34.8820   43.3230 C   0  0  0  0  0  0  0  0  0  0  0  0
   46.5460   33.8080   44.0460 N   0  0  0  0  0  0  0  0  0  0  0  0
   46.0720   33.5400   45.2750 C   0  0  0  0  0  0  0  0  0  0  0  0
   45.1210   34.3380   45.8100 N   0  0  0  0  0  0  0  0  0  0  0  0
   43.8820   36.0850   45.4880 H   0  0  0  0  0  0  0  0  0  0  0  0
   46.4570   32.6930   45.8180 H   0  0  0  0  0  0  0  0  0  0  0  0
   44.6670   36.8360   43.0860 N   0  0  0  0  0  0  0  0  0  0  0  0
   45.4140   37.5260   43.3790 H   0  0  0  0  0  0  0  0  0  0  0  0
   43.8510   36.9840   42.4510 H   0  0  0  0  0  0  0  0  0  0  0  0
   47.3970   33.9550   39.7810 C   0  0  0  0  0  0  0  0  0  0  0  0
   48.3990   33.5930   39.4700 H   0  0  0  0  0  0  0  0  0  0  0  0
   47.3250   34.9850   39.3780 H   0  0  0  0  0  0  0  0  0  0  0  0
   46.3280   33.0450   39.2580 C   0  0  0  0  0  0  0  0  0  0  0  0
   45.9750   33.0130   37.9110 C   0  0  0  0  0  0  0  0  0  0  0  0
   46.4520   33.6520   37.1250 H   0  0  0  0  0  0  0  0  0  0  0  0
   44.6370   31.7320   37.8770 S   0  0  0  0  0  0  0  0  0  0  0  0
   44.8100   31.4730   39.7370 C   0  0  0  0  0  0  0  0  0  0  0  0
   44.2180   30.7660   40.3330 H   0  0  0  0  0  0  0  0  0  0  0  0
   45.6450   32.2090   40.0310 N   0  0  0  0  0  0  0  0  0  0  0  0
  1  4  1  6  0  0  0
  1  2  1  0  0  0  0
  1 10  1  0  0  0  0
  2  5  1  0  0  0  0
  3  7  1  1  0  0  0
  3  1  1  0  0  0  0
  3  2  1  0  0  0  0
  6  2  1  0  0  0  0
  8 14  1  0  0  0  0
  8 13  1  0  0  0  0
  9  8  2  0  0  0  0
 10  9  1  0  0  0  0
 10 11  2  0  0  0  0
 11 12  1  0  0  0  0
 12 13  2  0  0  0  0
 12 15  1  0  0  0  0
 16 17  1  0  0  0  0
 16  9  1  0  0  0  0
 18 16  1  0  0  0  0
 19  3  1  0  0  0  0
 20 19  1  0  0  0  0
 21 19  1  0  0  0  0
 22 19  1  0  0  0  0
 22 28  1  0  0  0  0
 23 22  2  0  0  0  0
 24 23  1  0  0  0  0
 25 23  1  0  0  0  0
 25 26  1  0  0  0  0
 26 28  2  0  0  0  0
 26 27  1  0  0  0  0
M  END
>  <minimizedAffinity>
-4.42525005

>  <minimizedRMSD>
0.686688602

$$$$
