
 OpenBabel03252503193D

 37 40  0  0  0  0  0  0  0  0999 V2000
   45.8710   34.0440   40.5980 C   0  0  0  0  0  0  0  0  0  0  0  0
   44.5180   33.8820   40.4700 C   0  0  0  0  0  0  0  0  0  0  0  0
   44.3390   33.2210   39.2990 N   0  0  0  0  0  0  0  0  0  0  0  0
   45.5340   32.9960   38.7460 C   0  0  0  0  0  0  0  0  0  0  0  0
   46.4780   33.5030   39.5460 N   0  0  0  0  0  0  0  0  0  0  0  0
   45.8690   32.3440   37.5280 N   0  0  0  0  0  0  0  0  0  0  0  0
   43.7610   34.2050   41.1450 H   0  0  0  0  0  0  0  0  0  0  0  0
   45.9230   32.9950   36.6940 H   0  0  0  0  0  0  0  0  0  0  0  0
   46.0440   31.3060   37.4720 H   0  0  0  0  0  0  0  0  0  0  0  0
   43.0970   32.8010   38.6920 C   0  0  0  0  0  0  0  0  0  0  0  0
   43.2460   32.6890   37.5780 H   0  0  0  0  0  0  0  0  0  0  0  0
   42.8510   31.7760   39.0340 H   0  0  0  0  0  0  0  0  0  0  0  0
   41.9810   33.7720   38.9210 C   0  0  0  0  0  0  0  0  0  0  0  0
   40.8960   33.4730   39.8180 C   0  0  0  0  0  0  0  0  0  0  0  0
   40.8070   32.5770   40.3660 H   0  0  0  0  0  0  0  0  0  0  0  0
   39.8930   34.9730   39.6830 S   0  0  0  0  0  0  0  0  0  0  0  0
   41.0970   35.7620   38.4380 C   0  0  0  0  0  0  0  0  0  0  0  0
   40.9620   36.7470   37.9930 H   0  0  0  0  0  0  0  0  0  0  0  0
   41.8950   34.9550   38.3350 N   0  0  0  0  0  0  0  0  0  0  0  0
   46.6050   34.7180   41.7250 C   0  0  0  0  0  0  0  0  0  0  0  0
   47.7930   35.1310   41.6670 O   0  0  0  0  0  0  0  0  0  0  0  0
   45.3110   36.1500   43.2300 C   0  0  0  0  0  0  0  0  0  0  0  0
   45.9450   34.9240   42.9680 C   0  0  0  0  0  0  0  0  0  0  0  0
   45.8560   34.0030   43.9950 C   0  0  0  0  0  0  0  0  0  0  0  0
   45.2250   34.2420   45.1430 N   0  0  0  0  0  0  0  0  0  0  0  0
   44.6260   35.4520   45.3430 C   0  0  0  0  0  0  0  0  0  0  0  0
   44.6760   36.3870   44.3900 N   0  0  0  0  0  0  0  0  0  0  0  0
   45.3240   36.9460   42.4820 H   0  0  0  0  0  0  0  0  0  0  0  0
   44.1110   35.6580   46.2720 H   0  0  0  0  0  0  0  0  0  0  0  0
   46.4780   32.7310   43.8050 C   0  0  0  0  0  0  0  0  0  0  0  0
   47.7280   32.2250   43.9450 C   0  0  0  0  0  0  0  0  0  0  0  0
   48.0370   30.9760   43.6950 C   0  0  0  0  0  0  0  0  0  0  0  0
   47.0230   30.2050   43.2820 C   0  0  0  0  0  0  0  0  0  0  0  0
   45.5710   31.2970   43.2480 S   0  0  0  0  0  0  0  0  0  0  0  0
   48.4590   32.9840   44.2950 H   0  0  0  0  0  0  0  0  0  0  0  0
   49.0170   30.5250   43.7900 H   0  0  0  0  0  0  0  0  0  0  0  0
   47.0400   29.0670   42.9970 H   0  0  0  0  0  0  0  0  0  0  0  0
  1 20  1  0  0  0  0
  2  1  2  0  0  0  0
  2  7  1  0  0  0  0
  3  2  1  0  0  0  0
  4  3  1  0  0  0  0
  4  5  2  0  0  0  0
  5  1  1  0  0  0  0
  6  4  1  0  0  0  0
  8  6  1  0  0  0  0
  9  6  1  0  0  0  0
 10 13  1  0  0  0  0
 10 12  1  0  0  0  0
 10  3  1  0  0  0  0
 11 10  1  0  0  0  0
 13 14  2  0  0  0  0
 14 15  1  0  0  0  0
 16 14  1  0  0  0  0
 17 16  1  0  0  0  0
 18 17  1  0  0  0  0
 19 17  2  0  0  0  0
 19 13  1  0  0  0  0
 20 23  1  0  0  0  0
 21 20  2  0  0  0  0
 22 27  1  0  0  0  0
 23 22  2  0  0  0  0
 23 24  1  0  0  0  0
 24 25  2  0  0  0  0
 25 26  1  0  0  0  0
 26 29  1  0  0  0  0
 27 26  2  0  0  0  0
 28 22  1  0  0  0  0
 30 31  2  0  0  0  0
 30 24  1  0  0  0  0
 31 35  1  0  0  0  0
 32 36  1  0  0  0  0
 32 31  1  0  0  0  0
 33 32  2  0  0  0  0
 34 33  1  0  0  0  0
 34 30  1  0  0  0  0
 37 33  1  0  0  0  0
M  END
>  <minimizedAffinity>
-5.22003031

>  <minimizedRMSD>
1.21959507

$$$$
