
 OpenBabel03242523433D

 22 23  0  0  1  0  0  0  0  0999 V2000
   37.0020   27.3740   42.6630 C   0  0  2  0  0  0  0  0  0  0  0  0
   36.1310   27.0210   43.2670 H   0  0  0  0  0  0  0  0  0  0  0  0
   36.9630   24.9490   42.1400 C   0  0  0  0  0  0  0  0  0  0  0  0
   37.4880   26.2180   41.8960 C   0  0  0  0  0  0  0  0  0  0  0  0
   38.4910   26.3610   40.8990 C   0  0  0  0  0  0  0  0  0  0  0  0
   38.8800   25.2320   40.2420 N   0  0  0  0  0  0  0  0  0  0  0  0
   38.3490   24.0370   40.5120 C   0  0  0  0  0  0  0  0  0  0  0  0
   37.4040   23.9060   41.4490 N   0  0  0  0  0  0  0  0  0  0  0  0
   36.1990   24.7560   42.8790 H   0  0  0  0  0  0  0  0  0  0  0  0
   38.9180   27.3280   40.6820 H   0  0  0  0  0  0  0  0  0  0  0  0
   38.6780   23.1500   39.9710 H   0  0  0  0  0  0  0  0  0  0  0  0
   36.6170   28.5390   41.8220 C   0  0  0  0  0  0  0  0  0  0  0  0
   37.3750   29.7900   41.9220 C   0  0  0  0  0  0  0  0  0  0  0  0
   38.1900   29.9500   42.5500 H   0  0  0  0  0  0  0  0  0  0  0  0
   36.5290   30.8430   40.7340 S   0  0  0  0  0  0  0  0  0  0  0  0
   35.2880   29.4550   40.2810 C   0  0  0  0  0  0  0  0  0  0  0  0
   34.4990   29.5860   39.5460 H   0  0  0  0  0  0  0  0  0  0  0  0
   35.6170   28.5470   40.9610 N   0  0  0  0  0  0  0  0  0  0  0  0
   38.0590   27.7450   43.6800 C   0  0  0  0  0  0  0  0  0  0  0  0
   37.7500   27.5230   44.7320 H   0  0  0  0  0  0  0  0  0  0  0  0
   38.1410   28.8720   43.6500 H   0  0  0  0  0  0  0  0  0  0  0  0
   39.0020   27.2650   43.4070 H   0  0  0  0  0  0  0  0  0  0  0  0
  1  2  1  1  0  0  0
  1 19  1  0  0  0  0
  3  9  1  0  0  0  0
  4  3  1  0  0  0  0
  4  1  1  0  0  0  0
  5  4  2  0  0  0  0
  6  7  2  0  0  0  0
  6  5  1  0  0  0  0
  7  8  1  0  0  0  0
  8  3  2  0  0  0  0
 10  5  1  0  0  0  0
 11  7  1  0  0  0  0
 12 13  2  0  0  0  0
 12  1  1  0  0  0  0
 13 14  1  0  0  0  0
 15 13  1  0  0  0  0
 16 15  1  0  0  0  0
 16 18  2  0  0  0  0
 17 16  1  0  0  0  0
 18 12  1  0  0  0  0
 19 20  1  0  0  0  0
 21 19  1  0  0  0  0
 22 19  1  0  0  0  0
M  END
>  <minimizedAffinity>
-3.9865272

$$$$

 OpenBabel03242523433D

 22 23  0  0  1  0  0  0  0  0999 V2000
   37.9800   27.9520   43.5190 C   0  0  2  0  0  0  0  0  0  0  0  0
   38.2910   28.3110   44.5300 H   0  0  0  0  0  0  0  0  0  0  0  0
   36.9270   29.4270   41.8250 C   0  0  0  0  0  0  0  0  0  0  0  0
   38.0290   29.1150   42.6200 C   0  0  0  0  0  0  0  0  0  0  0  0
   39.1850   29.9370   42.5380 C   0  0  0  0  0  0  0  0  0  0  0  0
   39.1380   30.9910   41.6730 N   0  0  0  0  0  0  0  0  0  0  0  0
   38.0590   31.2510   40.9310 C   0  0  0  0  0  0  0  0  0  0  0  0
   36.9720   30.4750   41.0130 N   0  0  0  0  0  0  0  0  0  0  0  0
   36.0120   28.8530   41.8300 H   0  0  0  0  0  0  0  0  0  0  0  0
   40.0550   29.7270   43.1390 H   0  0  0  0  0  0  0  0  0  0  0  0
   38.0470   32.0990   40.2480 H   0  0  0  0  0  0  0  0  0  0  0  0
   38.8330   26.8150   43.0830 C   0  0  0  0  0  0  0  0  0  0  0  0
   40.1600   26.6290   43.6770 C   0  0  0  0  0  0  0  0  0  0  0  0
   40.5830   27.2420   44.4060 H   0  0  0  0  0  0  0  0  0  0  0  0
   40.7560   25.1590   42.8300 S   0  0  0  0  0  0  0  0  0  0  0  0
   39.1430   25.0100   41.8070 C   0  0  0  0  0  0  0  0  0  0  0  0
   38.9770   24.2210   41.0790 H   0  0  0  0  0  0  0  0  0  0  0  0
   38.4890   25.9230   42.1730 N   0  0  0  0  0  0  0  0  0  0  0  0
   36.5340   27.5370   43.6770 C   0  0  0  0  0  0  0  0  0  0  0  0
   36.1310   27.7420   44.7000 H   0  0  0  0  0  0  0  0  0  0  0  0
   36.5220   26.4090   43.5990 H   0  0  0  0  0  0  0  0  0  0  0  0
   35.9390   28.0020   42.8880 H   0  0  0  0  0  0  0  0  0  0  0  0
  1 19  1  0  0  0  0
  1  2  1  1  0  0  0
  3  9  1  0  0  0  0
  3  4  1  0  0  0  0
  4  1  1  0  0  0  0
  5  4  2  0  0  0  0
  5 10  1  0  0  0  0
  6  5  1  0  0  0  0
  7  8  1  0  0  0  0
  7  6  2  0  0  0  0
  8  3  2  0  0  0  0
 11  7  1  0  0  0  0
 12  1  1  0  0  0  0
 12 13  2  0  0  0  0
 13 14  1  0  0  0  0
 15 13  1  0  0  0  0
 16 18  2  0  0  0  0
 16 15  1  0  0  0  0
 17 16  1  0  0  0  0
 18 12  1  0  0  0  0
 19 20  1  0  0  0  0
 21 19  1  0  0  0  0
 22 19  1  0  0  0  0
M  END
>  <minimizedAffinity>
-3.93260884

$$$$

 OpenBabel03242523433D

 22 23  0  0  1  0  0  0  0  0999 V2000
   35.3770   29.3640   40.3200 C   0  0  2  0  0  0  0  0  0  0  0  0
   34.6840   29.7880   41.0850 H   0  0  0  0  0  0  0  0  0  0  0  0
   36.7060   31.4080   40.7780 C   0  0  0  0  0  0  0  0  0  0  0  0
   36.2370   30.4670   39.8630 C   0  0  0  0  0  0  0  0  0  0  0  0
   36.6050   30.5990   38.4970 C   0  0  0  0  0  0  0  0  0  0  0  0
   37.4020   31.6550   38.1670 N   0  0  0  0  0  0  0  0  0  0  0  0
   37.8270   32.5330   39.0800 C   0  0  0  0  0  0  0  0  0  0  0  0
   37.4800   32.4030   40.3650 N   0  0  0  0  0  0  0  0  0  0  0  0
   36.4730   31.3780   41.8320 H   0  0  0  0  0  0  0  0  0  0  0  0
   36.2620   29.8880   37.7620 H   0  0  0  0  0  0  0  0  0  0  0  0
   38.4650   33.3680   38.7900 H   0  0  0  0  0  0  0  0  0  0  0  0
   36.1260   28.2050   40.8750 C   0  0  0  0  0  0  0  0  0  0  0  0
   36.5830   27.1370   39.9810 C   0  0  0  0  0  0  0  0  0  0  0  0
   36.4290   27.1090   38.9510 H   0  0  0  0  0  0  0  0  0  0  0  0
   37.4070   26.0140   41.1180 S   0  0  0  0  0  0  0  0  0  0  0  0
   37.0180   27.1380   42.6200 C   0  0  0  0  0  0  0  0  0  0  0  0
   37.3240   26.8940   43.6340 H   0  0  0  0  0  0  0  0  0  0  0  0
   36.4260   28.0450   42.1500 N   0  0  0  0  0  0  0  0  0  0  0  0
   34.4860   28.9520   39.1690 C   0  0  0  0  0  0  0  0  0  0  0  0
   33.4120   29.2210   39.3310 H   0  0  0  0  0  0  0  0  0  0  0  0
   34.4870   27.8220   39.1600 H   0  0  0  0  0  0  0  0  0  0  0  0
   34.8870   29.3630   38.2390 H   0  0  0  0  0  0  0  0  0  0  0  0
  1 12  1  0  0  0  0
  1  2  1  1  0  0  0
  3  9  1  0  0  0  0
  4  1  1  0  0  0  0
  4  3  2  0  0  0  0
  5  4  1  0  0  0  0
  6  5  2  0  0  0  0
  6  7  1  0  0  0  0
  7  8  2  0  0  0  0
  8  3  1  0  0  0  0
 10  5  1  0  0  0  0
 11  7  1  0  0  0  0
 12 18  1  0  0  0  0
 13 12  2  0  0  0  0
 13 15  1  0  0  0  0
 14 13  1  0  0  0  0
 15 16  1  0  0  0  0
 16 17  1  0  0  0  0
 18 16  2  0  0  0  0
 19 20  1  0  0  0  0
 19  1  1  0  0  0  0
 21 19  1  0  0  0  0
 22 19  1  0  0  0  0
M  END
>  <minimizedAffinity>
-3.85742569

$$$$

 OpenBabel03242523433D

 22 23  0  0  1  0  0  0  0  0999 V2000
   37.3950   27.5410   42.6300 C   0  0  2  0  0  0  0  0  0  0  0  0
   38.3070   27.8350   43.2040 H   0  0  0  0  0  0  0  0  0  0  0  0
   37.8170   29.8400   41.7980 C   0  0  0  0  0  0  0  0  0  0  0  0
   37.0120   28.7020   41.8130 C   0  0  0  0  0  0  0  0  0  0  0  0
   35.8280   28.6940   41.0270 C   0  0  0  0  0  0  0  0  0  0  0  0
   35.5530   29.8170   40.3040 N   0  0  0  0  0  0  0  0  0  0  0  0
   36.3550   30.8850   40.3230 C   0  0  0  0  0  0  0  0  0  0  0  0
   37.4700   30.8870   41.0620 N   0  0  0  0  0  0  0  0  0  0  0  0
   38.7320   29.9250   42.3660 H   0  0  0  0  0  0  0  0  0  0  0  0
   35.1820   27.8300   41.0120 H   0  0  0  0  0  0  0  0  0  0  0  0
   36.1140   31.7700   39.7350 H   0  0  0  0  0  0  0  0  0  0  0  0
   37.6460   26.3040   41.8430 C   0  0  0  0  0  0  0  0  0  0  0  0
   38.6810   26.3000   40.8050 C   0  0  0  0  0  0  0  0  0  0  0  0
   39.2830   27.1120   40.5540 H   0  0  0  0  0  0  0  0  0  0  0  0
   38.5820   24.6180   40.1760 S   0  0  0  0  0  0  0  0  0  0  0  0
   37.1720   24.1710   41.3940 C   0  0  0  0  0  0  0  0  0  0  0  0
   36.7130   23.1870   41.4280 H   0  0  0  0  0  0  0  0  0  0  0  0
   36.9950   25.1670   42.0020 N   0  0  0  0  0  0  0  0  0  0  0  0
   36.3240   27.3280   43.6780 C   0  0  0  0  0  0  0  0  0  0  0  0
   36.6740   27.5680   44.7130 H   0  0  0  0  0  0  0  0  0  0  0  0
   36.1310   26.2140   43.7050 H   0  0  0  0  0  0  0  0  0  0  0  0
   35.4290   27.8860   43.3940 H   0  0  0  0  0  0  0  0  0  0  0  0
  1  2  1  1  0  0  0
  1 19  1  0  0  0  0
  3  4  1  0  0  0  0
  3  9  1  0  0  0  0
  4  1  1  0  0  0  0
  5  4  2  0  0  0  0
  6  7  2  0  0  0  0
  6  5  1  0  0  0  0
  7  8  1  0  0  0  0
  8  3  2  0  0  0  0
 10  5  1  0  0  0  0
 11  7  1  0  0  0  0
 12 18  1  0  0  0  0
 12  1  1  0  0  0  0
 13 12  2  0  0  0  0
 14 13  1  0  0  0  0
 15 13  1  0  0  0  0
 15 16  1  0  0  0  0
 16 17  1  0  0  0  0
 16 18  2  0  0  0  0
 19 21  1  0  0  0  0
 19 20  1  0  0  0  0
 22 19  1  0  0  0  0
M  END
>  <minimizedAffinity>
-3.82719326

$$$$

 OpenBabel03242523433D

 22 23  0  0  1  0  0  0  0  0999 V2000
   36.9330   27.0830   42.3530 C   0  0  2  0  0  0  0  0  0  0  0  0
   36.1780   26.4240   41.8610 H   0  0  0  0  0  0  0  0  0  0  0  0
   38.2140   24.9790   42.0600 C   0  0  0  0  0  0  0  0  0  0  0  0
   38.1160   26.2510   42.6210 C   0  0  0  0  0  0  0  0  0  0  0  0
   39.1740   26.7170   43.4480 C   0  0  0  0  0  0  0  0  0  0  0  0
   40.2290   25.8750   43.6410 N   0  0  0  0  0  0  0  0  0  0  0  0
   40.2780   24.6620   43.0830 C   0  0  0  0  0  0  0  0  0  0  0  0
   39.2810   24.2290   42.3040 N   0  0  0  0  0  0  0  0  0  0  0  0
   37.4550   24.5530   41.4210 H   0  0  0  0  0  0  0  0  0  0  0  0
   39.1330   27.6970   43.8960 H   0  0  0  0  0  0  0  0  0  0  0  0
   41.1330   24.0090   43.2530 H   0  0  0  0  0  0  0  0  0  0  0  0
   37.2120   28.2780   41.5130 C   0  0  0  0  0  0  0  0  0  0  0  0
   37.6660   28.1060   40.1300 C   0  0  0  0  0  0  0  0  0  0  0  0
   37.8180   27.1900   39.6570 H   0  0  0  0  0  0  0  0  0  0  0  0
   37.8520   29.8070   39.5760 S   0  0  0  0  0  0  0  0  0  0  0  0
   37.2970   30.4950   41.2760 C   0  0  0  0  0  0  0  0  0  0  0  0
   37.2310   31.5590   41.4880 H   0  0  0  0  0  0  0  0  0  0  0  0
   37.0830   29.5280   41.9180 N   0  0  0  0  0  0  0  0  0  0  0  0
   36.3140   27.4660   43.6800 C   0  0  0  0  0  0  0  0  0  0  0  0
   35.3290   26.9670   43.8610 H   0  0  0  0  0  0  0  0  0  0  0  0
   36.0540   28.5630   43.5990 H   0  0  0  0  0  0  0  0  0  0  0  0
   37.0350   27.2790   44.4790 H   0  0  0  0  0  0  0  0  0  0  0  0
  1  2  1  6  0  0  0
  1  4  1  0  0  0  0
  1 19  1  0  0  0  0
  3  8  2  0  0  0  0
  3  4  1  0  0  0  0
  4  5  2  0  0  0  0
  5  6  1  0  0  0  0
  5 10  1  0  0  0  0
  7 11  1  0  0  0  0
  7  6  2  0  0  0  0
  8  7  1  0  0  0  0
  9  3  1  0  0  0  0
 12 18  1  0  0  0  0
 12  1  1  0  0  0  0
 13 12  2  0  0  0  0
 14 13  1  0  0  0  0
 15 13  1  0  0  0  0
 15 16  1  0  0  0  0
 16 17  1  0  0  0  0
 16 18  2  0  0  0  0
 19 20  1  0  0  0  0
 19 22  1  0  0  0  0
 21 19  1  0  0  0  0
M  END
>  <minimizedAffinity>
-3.82560205

$$$$

 OpenBabel03242523433D

 22 23  0  0  1  0  0  0  0  0999 V2000
   37.4210   28.4490   43.1670 C   0  0  2  0  0  0  0  0  0  0  0  0
   37.3100   29.3190   43.8580 H   0  0  0  0  0  0  0  0  0  0  0  0
   36.7810   27.9650   40.8190 C   0  0  0  0  0  0  0  0  0  0  0  0
   36.9650   28.8940   41.8420 C   0  0  0  0  0  0  0  0  0  0  0  0
   36.7050   30.2660   41.5730 C   0  0  0  0  0  0  0  0  0  0  0  0
   36.2890   30.5840   40.3140 N   0  0  0  0  0  0  0  0  0  0  0  0
   36.1280   29.6570   39.3660 C   0  0  0  0  0  0  0  0  0  0  0  0
   36.3720   28.3680   39.6240 N   0  0  0  0  0  0  0  0  0  0  0  0
   36.9560   26.9060   40.9430 H   0  0  0  0  0  0  0  0  0  0  0  0
   36.8340   31.0120   42.3410 H   0  0  0  0  0  0  0  0  0  0  0  0
   35.7940   29.9380   38.3670 H   0  0  0  0  0  0  0  0  0  0  0  0
   38.8180   27.9400   43.1860 C   0  0  0  0  0  0  0  0  0  0  0  0
   39.9130   28.8010   42.7300 C   0  0  0  0  0  0  0  0  0  0  0  0
   39.8040   29.7760   42.3790 H   0  0  0  0  0  0  0  0  0  0  0  0
   41.3490   27.7420   42.9500 S   0  0  0  0  0  0  0  0  0  0  0  0
   40.2730   26.3040   43.6180 C   0  0  0  0  0  0  0  0  0  0  0  0
   40.6900   25.3480   43.9240 H   0  0  0  0  0  0  0  0  0  0  0  0
   39.1750   26.7350   43.5920 N   0  0  0  0  0  0  0  0  0  0  0  0
   36.4440   27.4130   43.6800 C   0  0  0  0  0  0  0  0  0  0  0  0
   35.8330   27.7800   44.5420 H   0  0  0  0  0  0  0  0  0  0  0  0
   37.0700   26.5830   44.1210 H   0  0  0  0  0  0  0  0  0  0  0  0
   35.8300   27.0580   42.8480 H   0  0  0  0  0  0  0  0  0  0  0  0
  1 12  1  0  0  0  0
  1 19  1  0  0  0  0
  1  2  1  1  0  0  0
  3  9  1  0  0  0  0
  3  4  1  0  0  0  0
  4  1  1  0  0  0  0
  5  4  2  0  0  0  0
  5 10  1  0  0  0  0
  6  5  1  0  0  0  0
  7  8  1  0  0  0  0
  7  6  2  0  0  0  0
  8  3  2  0  0  0  0
 11  7  1  0  0  0  0
 12 18  1  0  0  0  0
 13 15  1  0  0  0  0
 13 12  2  0  0  0  0
 14 13  1  0  0  0  0
 15 16  1  0  0  0  0
 16 17  1  0  0  0  0
 18 16  2  0  0  0  0
 19 21  1  0  0  0  0
 19 20  1  0  0  0  0
 22 19  1  0  0  0  0
M  END
>  <minimizedAffinity>
-3.75180459

$$$$

 OpenBabel03242523433D

 22 23  0  0  1  0  0  0  0  0999 V2000
   36.8140   28.6180   42.3820 C   0  0  2  0  0  0  0  0  0  0  0  0
   35.7550   28.7590   42.7100 H   0  0  0  0  0  0  0  0  0  0  0  0
   37.2290   26.1740   42.2970 C   0  0  0  0  0  0  0  0  0  0  0  0
   36.8670   27.3490   41.6410 C   0  0  0  0  0  0  0  0  0  0  0  0
   36.5550   27.2890   40.2560 C   0  0  0  0  0  0  0  0  0  0  0  0
   36.6340   26.0690   39.6530 N   0  0  0  0  0  0  0  0  0  0  0  0
   36.9880   24.9690   40.3230 C   0  0  0  0  0  0  0  0  0  0  0  0
   37.2780   25.0300   41.6280 N   0  0  0  0  0  0  0  0  0  0  0  0
   37.4800   26.1350   43.3470 H   0  0  0  0  0  0  0  0  0  0  0  0
   36.2680   28.1780   39.7160 H   0  0  0  0  0  0  0  0  0  0  0  0
   37.0430   24.0060   39.8180 H   0  0  0  0  0  0  0  0  0  0  0  0
   37.2810   29.7940   41.6010 C   0  0  0  0  0  0  0  0  0  0  0  0
   36.3090   30.7730   41.1070 C   0  0  0  0  0  0  0  0  0  0  0  0
   35.2790   30.7250   41.2560 H   0  0  0  0  0  0  0  0  0  0  0  0
   37.3600   31.9570   40.2540 S   0  0  0  0  0  0  0  0  0  0  0  0
   38.9430   30.9670   40.6840 C   0  0  0  0  0  0  0  0  0  0  0  0
   39.9360   31.2810   40.3750 H   0  0  0  0  0  0  0  0  0  0  0  0
   38.5420   30.0440   41.3010 N   0  0  0  0  0  0  0  0  0  0  0  0
   37.6010   28.4510   43.6640 C   0  0  0  0  0  0  0  0  0  0  0  0
   36.9530   28.4430   44.5760 H   0  0  0  0  0  0  0  0  0  0  0  0
   38.2210   29.3890   43.7750 H   0  0  0  0  0  0  0  0  0  0  0  0
   38.2290   27.5600   43.5840 H   0  0  0  0  0  0  0  0  0  0  0  0
  1  2  1  1  0  0  0
  1 19  1  0  0  0  0
  3  9  1  0  0  0  0
  4  3  1  0  0  0  0
  4  1  1  0  0  0  0
  5  4  2  0  0  0  0
  6  5  1  0  0  0  0
  6  7  2  0  0  0  0
  7  8  1  0  0  0  0
  8  3  2  0  0  0  0
 10  5  1  0  0  0  0
 11  7  1  0  0  0  0
 12  1  1  0  0  0  0
 13 14  1  0  0  0  0
 13 12  2  0  0  0  0
 15 16  1  0  0  0  0
 15 13  1  0  0  0  0
 16 18  2  0  0  0  0
 17 16  1  0  0  0  0
 18 12  1  0  0  0  0
 19 21  1  0  0  0  0
 19 20  1  0  0  0  0
 22 19  1  0  0  0  0
M  END
>  <minimizedAffinity>
-3.74560595

$$$$

 OpenBabel03242523433D

 22 23  0  0  1  0  0  0  0  0999 V2000
   36.0150   28.6620   40.3910 C   0  0  2  0  0  0  0  0  0  0  0  0
   34.9520   28.7690   40.7160 H   0  0  0  0  0  0  0  0  0  0  0  0
   36.7180   30.1970   38.5730 C   0  0  0  0  0  0  0  0  0  0  0  0
   36.4550   29.9850   39.9260 C   0  0  0  0  0  0  0  0  0  0  0  0
   36.6220   31.0680   40.8310 C   0  0  0  0  0  0  0  0  0  0  0  0
   37.0360   32.2580   40.3090 N   0  0  0  0  0  0  0  0  0  0  0  0
   37.2780   32.4120   39.0040 C   0  0  0  0  0  0  0  0  0  0  0  0
   37.1170   31.3910   38.1550 N   0  0  0  0  0  0  0  0  0  0  0  0
   36.6150   29.4270   37.8220 H   0  0  0  0  0  0  0  0  0  0  0  0
   36.4260   30.9420   41.8840 H   0  0  0  0  0  0  0  0  0  0  0  0
   37.6070   33.3730   38.6120 H   0  0  0  0  0  0  0  0  0  0  0  0
   36.8460   28.1000   41.4890 C   0  0  0  0  0  0  0  0  0  0  0  0
   38.2290   27.6940   41.2220 C   0  0  0  0  0  0  0  0  0  0  0  0
   38.7070   27.7640   40.2990 H   0  0  0  0  0  0  0  0  0  0  0  0
   38.7700   27.1030   42.8320 S   0  0  0  0  0  0  0  0  0  0  0  0
   37.0680   27.4860   43.6230 C   0  0  0  0  0  0  0  0  0  0  0  0
   36.8480   27.2960   44.6700 H   0  0  0  0  0  0  0  0  0  0  0  0
   36.4330   27.9280   42.7310 N   0  0  0  0  0  0  0  0  0  0  0  0
   35.9680   27.7330   39.1970 C   0  0  0  0  0  0  0  0  0  0  0  0
   34.9260   27.4480   38.9070 H   0  0  0  0  0  0  0  0  0  0  0  0
   36.4330   26.7610   39.5380 H   0  0  0  0  0  0  0  0  0  0  0  0
   36.5280   28.1810   38.3730 H   0  0  0  0  0  0  0  0  0  0  0  0
  1  2  1  1  0  0  0
  1 12  1  0  0  0  0
  3  4  1  0  0  0  0
  4  1  1  0  0  0  0
  4  5  2  0  0  0  0
  5 10  1  0  0  0  0
  6  5  1  0  0  0  0
  7  6  2  0  0  0  0
  8  3  2  0  0  0  0
  8  7  1  0  0  0  0
  9  3  1  0  0  0  0
 11  7  1  0  0  0  0
 12 18  1  0  0  0  0
 13 12  2  0  0  0  0
 13 15  1  0  0  0  0
 14 13  1  0  0  0  0
 15 16  1  0  0  0  0
 16 17  1  0  0  0  0
 18 16  2  0  0  0  0
 19 21  1  0  0  0  0
 19  1  1  0  0  0  0
 20 19  1  0  0  0  0
 22 19  1  0  0  0  0
M  END
>  <minimizedAffinity>
-3.66448712

$$$$

 OpenBabel03242523433D

 22 23  0  0  1  0  0  0  0  0999 V2000
   36.1950   29.8030   41.0690 C   0  0  2  0  0  0  0  0  0  0  0  0
   35.6690   30.4970   41.7680 H   0  0  0  0  0  0  0  0  0  0  0  0
   37.0830   32.0140   40.3770 C   0  0  0  0  0  0  0  0  0  0  0  0
   37.0240   30.6350   40.1840 C   0  0  0  0  0  0  0  0  0  0  0  0
   37.7770   30.0610   39.1230 C   0  0  0  0  0  0  0  0  0  0  0  0
   38.5140   30.9120   38.3540 N   0  0  0  0  0  0  0  0  0  0  0  0
   38.5380   32.2280   38.5770 C   0  0  0  0  0  0  0  0  0  0  0  0
   37.8300   32.7630   39.5770 N   0  0  0  0  0  0  0  0  0  0  0  0
   36.5420   32.5260   41.1600 H   0  0  0  0  0  0  0  0  0  0  0  0
   37.7570   28.9970   38.9460 H   0  0  0  0  0  0  0  0  0  0  0  0
   39.1370   32.8860   37.9470 H   0  0  0  0  0  0  0  0  0  0  0  0
   36.9600   28.7770   41.8260 C   0  0  0  0  0  0  0  0  0  0  0  0
   38.0980   29.1830   42.6570 C   0  0  0  0  0  0  0  0  0  0  0  0
   38.4370   30.1610   42.7740 H   0  0  0  0  0  0  0  0  0  0  0  0
   38.6540   27.6130   43.3340 S   0  0  0  0  0  0  0  0  0  0  0  0
   37.2840   26.6470   42.4060 C   0  0  0  0  0  0  0  0  0  0  0  0
   37.1700   25.5690   42.4810 H   0  0  0  0  0  0  0  0  0  0  0  0
   36.6960   27.4840   41.8170 N   0  0  0  0  0  0  0  0  0  0  0  0
   35.0960   29.1790   40.2370 C   0  0  0  0  0  0  0  0  0  0  0  0
   34.0830   29.5930   40.4700 H   0  0  0  0  0  0  0  0  0  0  0  0
   35.0310   28.0980   40.5640 H   0  0  0  0  0  0  0  0  0  0  0  0
   35.3540   29.2650   39.1790 H   0  0  0  0  0  0  0  0  0  0  0  0
  1  2  1  1  0  0  0
  1 12  1  0  0  0  0
  3  9  1  0  0  0  0
  4  3  1  0  0  0  0
  4  1  1  0  0  0  0
  5  4  2  0  0  0  0
  6  7  2  0  0  0  0
  6  5  1  0  0  0  0
  7  8  1  0  0  0  0
  8  3  2  0  0  0  0
 10  5  1  0  0  0  0
 11  7  1  0  0  0  0
 12 13  2  0  0  0  0
 13 14  1  0  0  0  0
 13 15  1  0  0  0  0
 16 17  1  0  0  0  0
 16 15  1  0  0  0  0
 18 12  1  0  0  0  0
 18 16  2  0  0  0  0
 19 20  1  0  0  0  0
 19 21  1  0  0  0  0
 19  1  1  0  0  0  0
 22 19  1  0  0  0  0
M  END
>  <minimizedAffinity>
-3.60976291

$$$$
