
 OpenBabel03252509263D

 28 30  0  0  1  0  0  0  0  0999 V2000
   46.6340   35.0910   41.8980 C   0  0  1  0  0  0  0  0  0  0  0  0
   48.1720   35.3350   41.9120 C   0  0  0  0  0  0  0  0  0  0  0  0
   47.4240   34.1260   41.2570 C   0  0  2  0  0  0  0  0  0  0  0  0
   46.0750   35.8760   41.3490 H   0  0  0  0  0  0  0  0  0  0  0  0
   48.7280   35.1470   42.8290 H   0  0  0  0  0  0  0  0  0  0  0  0
   48.5190   36.0560   41.1630 H   0  0  0  0  0  0  0  0  0  0  0  0
   47.7130   33.1510   41.7590 H   0  0  0  0  0  0  0  0  0  0  0  0
   44.6930   35.3050   45.1060 C   0  0  0  0  0  0  0  0  0  0  0  0
   45.1540   35.6540   43.7950 C   0  0  0  0  0  0  0  0  0  0  0  0
   46.1290   34.8520   43.3010 C   0  0  0  0  0  0  0  0  0  0  0  0
   46.6330   33.7850   44.0110 N   0  0  0  0  0  0  0  0  0  0  0  0
   46.1740   33.4910   45.2390 C   0  0  0  0  0  0  0  0  0  0  0  0
   45.2000   34.2530   45.7870 N   0  0  0  0  0  0  0  0  0  0  0  0
   43.9060   35.9630   45.4880 H   0  0  0  0  0  0  0  0  0  0  0  0
   46.5880   32.6500   45.7720 H   0  0  0  0  0  0  0  0  0  0  0  0
   44.6560   36.7630   43.0910 N   0  0  0  0  0  0  0  0  0  0  0  0
   45.3820   37.4730   43.3880 H   0  0  0  0  0  0  0  0  0  0  0  0
   43.8330   36.8920   42.4610 H   0  0  0  0  0  0  0  0  0  0  0  0
   47.4910   34.0050   39.7560 C   0  0  0  0  0  0  0  0  0  0  0  0
   48.5440   33.8830   39.4290 H   0  0  0  0  0  0  0  0  0  0  0  0
   47.1760   34.9870   39.3500 H   0  0  0  0  0  0  0  0  0  0  0  0
   46.6550   32.8680   39.2540 C   0  0  0  0  0  0  0  0  0  0  0  0
   45.3880   33.0630   38.7090 C   0  0  0  0  0  0  0  0  0  0  0  0
   44.9010   34.0660   38.6050 H   0  0  0  0  0  0  0  0  0  0  0  0
   44.8640   31.3390   38.2820 S   0  0  0  0  0  0  0  0  0  0  0  0
   46.4970   30.6590   38.9360 C   0  0  0  0  0  0  0  0  0  0  0  0
   46.7810   29.5980   38.9440 H   0  0  0  0  0  0  0  0  0  0  0  0
   47.0540   31.6020   39.2900 N   0  0  0  0  0  0  0  0  0  0  0  0
  1  4  1  6  0  0  0
  1  2  1  0  0  0  0
  1 10  1  0  0  0  0
  2  5  1  0  0  0  0
  3  7  1  1  0  0  0
  3  1  1  0  0  0  0
  3  2  1  0  0  0  0
  6  2  1  0  0  0  0
  8 14  1  0  0  0  0
  8 13  1  0  0  0  0
  9  8  2  0  0  0  0
 10  9  1  0  0  0  0
 10 11  2  0  0  0  0
 11 12  1  0  0  0  0
 12 15  1  0  0  0  0
 12 13  2  0  0  0  0
 16 17  1  0  0  0  0
 16  9  1  0  0  0  0
 18 16  1  0  0  0  0
 19  3  1  0  0  0  0
 20 19  1  0  0  0  0
 21 19  1  0  0  0  0
 22 28  1  0  0  0  0
 22 19  1  0  0  0  0
 23 22  2  0  0  0  0
 24 23  1  0  0  0  0
 25 23  1  0  0  0  0
 25 26  1  0  0  0  0
 26 27  1  0  0  0  0
 26 28  2  0  0  0  0
M  END
>  <minimizedAffinity>
-4.33976555

>  <minimizedRMSD>
1.07884836

$$$$
