
 OpenBabel03242511063D

 25 27  0  0  1  0  0  0  0  0999 V2000
   46.1160   32.6450   45.7210 C   0  0  1  0  0  0  0  0  0  0  0  0
   46.9460   32.7720   46.9650 C   0  0  0  0  0  0  0  0  0  0  0  0
   45.4740   32.3900   47.0180 C   0  0  2  0  0  0  0  0  0  0  0  0
   46.3880   31.7850   45.0770 H   0  0  0  0  0  0  0  0  0  0  0  0
   47.7280   32.0400   47.1660 H   0  0  0  0  0  0  0  0  0  0  0  0
   47.2460   33.8180   47.2250 H   0  0  0  0  0  0  0  0  0  0  0  0
   44.8650   33.2820   47.4070 H   0  0  0  0  0  0  0  0  0  0  0  0
   44.5720   35.8730   44.7450 C   0  0  0  0  0  0  0  0  0  0  0  0
   45.1630   36.0970   43.4510 C   0  0  0  0  0  0  0  0  0  0  0  0
   46.0880   35.1220   42.9630 C   0  0  0  0  0  0  0  0  0  0  0  0
   46.3610   34.0540   43.7190 N   0  0  0  0  0  0  0  0  0  0  0  0
   45.7840   33.8730   44.9390 C   0  0  0  0  0  0  0  0  0  0  0  0
   44.8990   34.7780   45.4420 N   0  0  0  0  0  0  0  0  0  0  0  0
   43.8780   36.6300   45.0820 H   0  0  0  0  0  0  0  0  0  0  0  0
   44.8930   36.9820   42.8990 H   0  0  0  0  0  0  0  0  0  0  0  0
   46.5170   35.3130   41.9890 H   0  0  0  0  0  0  0  0  0  0  0  0
   45.1160   31.0990   47.4710 N   0  0  0  0  0  0  0  0  0  0  0  0
   44.6870   31.3810   48.4140 H   0  0  0  0  0  0  0  0  0  0  0  0
   45.0440   29.7130   47.2780 C   0  0  0  0  0  0  0  0  0  0  0  0
   44.9650   29.4160   45.8280 C   0  0  0  0  0  0  0  0  0  0  0  0
   44.9270   29.5840   44.8890 H   0  0  0  0  0  0  0  0  0  0  0  0
   44.8940   27.5170   45.9890 S   0  0  0  0  0  0  0  0  0  0  0  0
   44.9830   27.5580   47.8940 C   0  0  0  0  0  0  0  0  0  0  0  0
   44.9910   26.8410   48.7170 H   0  0  0  0  0  0  0  0  0  0  0  0
   45.0510   28.8060   48.2470 N   0  0  0  0  0  0  0  0  0  0  0  0
  1  4  1  6  0  0  0
  1  2  1  0  0  0  0
  1  3  1  0  0  0  0
  2  3  1  0  0  0  0
  2  5  1  0  0  0  0
  2  6  1  0  0  0  0
  3  7  1  1  0  0  0
  3 17  1  0  0  0  0
  8 14  1  0  0  0  0
  8 13  1  0  0  0  0
  9  8  2  0  0  0  0
 10  9  1  0  0  0  0
 10 11  2  0  0  0  0
 11 12  1  0  0  0  0
 12 13  2  0  0  0  0
 12  1  1  0  0  0  0
 15  9  1  0  0  0  0
 16 10  1  0  0  0  0
 17 18  1  0  0  0  0
 19 17  1  0  0  0  0
 19 25  1  0  0  0  0
 20 22  1  0  0  0  0
 20 19  2  0  0  0  0
 21 20  1  0  0  0  0
 22 23  1  0  0  0  0
 23 25  2  0  0  0  0
 23 24  1  0  0  0  0
M  END
>  <minimizedAffinity>
-4.22954082

>  <minimizedRMSD>
1.18311083

$$$$
