
 OpenBabel03252507453D

 35 37  0  0  0  0  0  0  0  0999 V2000
   46.9750   34.3010   40.9990 C   0  0  0  0  0  0  0  0  0  0  0  0
   46.4370   33.3840   40.7290 H   0  0  0  0  0  0  0  0  0  0  0  0
   47.0830   35.0050   40.1270 H   0  0  0  0  0  0  0  0  0  0  0  0
   48.3450   34.0180   41.4630 C   0  0  0  0  0  0  0  0  0  0  0  0
   48.9320   32.8420   41.0120 C   0  0  0  0  0  0  0  0  0  0  0  0
   50.2240   32.5030   41.4040 C   0  0  0  0  0  0  0  0  0  0  0  0
   50.8700   33.3680   42.2370 N   0  0  0  0  0  0  0  0  0  0  0  0
   50.2740   34.5000   42.6560 C   0  0  0  0  0  0  0  0  0  0  0  0
   49.0400   34.8120   42.2740 N   0  0  0  0  0  0  0  0  0  0  0  0
   50.6470   31.5770   41.0320 H   0  0  0  0  0  0  0  0  0  0  0  0
   50.8970   35.1080   43.3210 H   0  0  0  0  0  0  0  0  0  0  0  0
   48.0270   31.7440   39.9160 S   0  0  0  0  0  0  0  0  0  0  0  0
   48.2150   32.2760   38.1980 C   0  0  0  0  0  0  0  0  0  0  0  0
   48.1150   31.4080   37.0910 C   0  0  0  0  0  0  0  0  0  0  0  0
   47.9110   30.3370   37.2160 H   0  0  0  0  0  0  0  0  0  0  0  0
   48.4030   32.5670   35.6850 S   0  0  0  0  0  0  0  0  0  0  0  0
   48.6080   34.0300   36.8760 C   0  0  0  0  0  0  0  0  0  0  0  0
   48.8110   35.0190   36.4690 H   0  0  0  0  0  0  0  0  0  0  0  0
   48.4630   33.5470   37.9380 N   0  0  0  0  0  0  0  0  0  0  0  0
   46.1440   35.0240   42.0220 C   0  0  0  0  0  0  0  0  0  0  0  0
   46.2840   34.4940   42.9980 H   0  0  0  0  0  0  0  0  0  0  0  0
   46.4880   36.0720   42.1780 H   0  0  0  0  0  0  0  0  0  0  0  0
   44.6810   34.9810   41.7560 C   0  0  0  0  0  0  0  0  0  0  0  0
   43.7620   35.4560   42.7400 C   0  0  0  0  0  0  0  0  0  0  0  0
   42.1290   35.1910   41.9450 S   0  0  0  0  0  0  0  0  0  0  0  0
   42.9710   34.4730   40.3990 C   0  0  0  0  0  0  0  0  0  0  0  0
   44.0710   34.5440   40.6880 N   0  0  0  0  0  0  0  0  0  0  0  0
   44.0000   35.8670   43.7080 H   0  0  0  0  0  0  0  0  0  0  0  0
   42.2520   34.0250   39.2920 O   0  0  0  0  0  0  0  0  0  0  0  0
   40.3420   34.5510   37.5410 O   0  0  0  0  0  0  0  0  0  0  0  0
   41.4440   35.1980   38.3540 P   0  0  0  0  0  0  0  0  0  0  0  0
   40.7570   36.3110   39.4280 O   0  0  0  0  0  0  0  0  0  0  0  0
   39.9510   35.8550   39.8090 H   0  0  0  0  0  0  0  0  0  0  0  0
   42.5430   36.0160   37.3660 O   0  0  0  0  0  0  0  0  0  0  0  0
   42.7660   36.9050   37.7420 H   0  0  0  0  0  0  0  0  0  0  0  0
  1  4  1  0  0  0  0
  1 20  1  0  0  0  0
  2  1  1  0  0  0  0
  3  1  1  0  0  0  0
  4  9  1  0  0  0  0
  5  6  1  0  0  0  0
  5  4  2  0  0  0  0
  6  7  2  0  0  0  0
  7  8  1  0  0  0  0
  8 11  1  0  0  0  0
  9  8  2  0  0  0  0
 10  6  1  0  0  0  0
 12  5  1  0  0  0  0
 13 12  1  0  0  0  0
 14 15  1  0  0  0  0
 14 13  2  0  0  0  0
 16 17  1  0  0  0  0
 16 14  1  0  0  0  0
 17 19  2  0  0  0  0
 18 17  1  0  0  0  0
 19 13  1  0  0  0  0
 20 22  1  0  0  0  0
 20 21  1  0  0  0  0
 23 20  1  0  0  0  0
 23 24  2  0  0  0  0
 24 28  1  0  0  0  0
 25 24  1  0  0  0  0
 26 27  2  0  0  0  0
 26 25  1  0  0  0  0
 27 23  1  0  0  0  0
 29 26  1  0  0  0  0
 30 31  2  0  0  0  0
 31 29  1  0  0  0  0
 31 32  1  0  0  0  0
 32 33  1  0  0  0  0
 34 35  1  0  0  0  0
 34 31  1  0  0  0  0
M  END
>  <minimizedAffinity>
-4.86270618

>  <minimizedRMSD>
0.549973249

$$$$
