
 OpenBabel03252503193D

 37 40  0  0  0  0  0  0  0  0999 V2000
   46.1660   34.4020   41.7200 C   0  0  0  0  0  0  0  0  0  0  0  0
   46.3300   33.9120   40.4520 C   0  0  0  0  0  0  0  0  0  0  0  0
   47.5350   34.3760   40.0350 N   0  0  0  0  0  0  0  0  0  0  0  0
   48.0710   35.1150   41.0100 C   0  0  0  0  0  0  0  0  0  0  0  0
   47.2290   35.1320   42.0480 N   0  0  0  0  0  0  0  0  0  0  0  0
   49.3110   35.8090   41.0530 N   0  0  0  0  0  0  0  0  0  0  0  0
   45.6570   33.2960   39.9050 H   0  0  0  0  0  0  0  0  0  0  0  0
   49.2530   36.8120   40.7150 H   0  0  0  0  0  0  0  0  0  0  0  0
   50.2010   35.3570   41.3920 H   0  0  0  0  0  0  0  0  0  0  0  0
   48.1880   34.1510   38.7660 C   0  0  0  0  0  0  0  0  0  0  0  0
   48.1540   35.1010   38.1560 H   0  0  0  0  0  0  0  0  0  0  0  0
   49.2690   33.9790   38.9360 H   0  0  0  0  0  0  0  0  0  0  0  0
   47.5450   33.0590   37.9690 C   0  0  0  0  0  0  0  0  0  0  0  0
   46.5500   33.3430   36.9690 C   0  0  0  0  0  0  0  0  0  0  0  0
   46.2080   34.3100   36.7280 H   0  0  0  0  0  0  0  0  0  0  0  0
   46.1610   31.6810   36.3640 S   0  0  0  0  0  0  0  0  0  0  0  0
   47.4010   30.8710   37.5580 C   0  0  0  0  0  0  0  0  0  0  0  0
   47.5840   29.7980   37.6200 H   0  0  0  0  0  0  0  0  0  0  0  0
   47.8270   31.7740   38.1070 N   0  0  0  0  0  0  0  0  0  0  0  0
   44.9930   34.1830   42.6360 C   0  0  0  0  0  0  0  0  0  0  0  0
   44.7150   34.8990   43.6340 O   0  0  0  0  0  0  0  0  0  0  0  0
   42.9120   33.3140   41.6870 C   0  0  0  0  0  0  0  0  0  0  0  0
   44.1070   33.0980   42.3930 C   0  0  0  0  0  0  0  0  0  0  0  0
   44.3040   31.7910   42.7980 C   0  0  0  0  0  0  0  0  0  0  0  0
   43.4440   30.8060   42.5460 N   0  0  0  0  0  0  0  0  0  0  0  0
   42.2980   31.0740   41.8550 C   0  0  0  0  0  0  0  0  0  0  0  0
   42.0460   32.3170   41.4350 N   0  0  0  0  0  0  0  0  0  0  0  0
   42.6610   34.3130   41.3220 H   0  0  0  0  0  0  0  0  0  0  0  0
   41.5910   30.2820   41.6440 H   0  0  0  0  0  0  0  0  0  0  0  0
   45.4970   31.4920   43.5260 C   0  0  0  0  0  0  0  0  0  0  0  0
   45.9060   31.5930   44.8140 C   0  0  0  0  0  0  0  0  0  0  0  0
   47.0960   31.2320   45.2280 C   0  0  0  0  0  0  0  0  0  0  0  0
   47.9100   30.7440   44.2820 C   0  0  0  0  0  0  0  0  0  0  0  0
   46.9450   30.8000   42.7420 S   0  0  0  0  0  0  0  0  0  0  0  0
   45.1220   32.0140   45.4790 H   0  0  0  0  0  0  0  0  0  0  0  0
   47.4700   31.2920   46.2420 H   0  0  0  0  0  0  0  0  0  0  0  0
   49.0120   30.3570   44.3950 H   0  0  0  0  0  0  0  0  0  0  0  0
  1  5  1  0  0  0  0
  1 20  1  0  0  0  0
  2  1  2  0  0  0  0
  3  2  1  0  0  0  0
  3  4  1  0  0  0  0
  4  6  1  0  0  0  0
  4  5  2  0  0  0  0
  6  9  1  0  0  0  0
  7  2  1  0  0  0  0
  8  6  1  0  0  0  0
 10 12  1  0  0  0  0
 10  3  1  0  0  0  0
 11 10  1  0  0  0  0
 13 19  1  0  0  0  0
 13 10  1  0  0  0  0
 14 13  2  0  0  0  0
 15 14  1  0  0  0  0
 16 14  1  0  0  0  0
 16 17  1  0  0  0  0
 17 18  1  0  0  0  0
 17 19  2  0  0  0  0
 20 21  2  0  0  0  0
 22 23  1  0  0  0  0
 23 20  1  0  0  0  0
 23 24  2  0  0  0  0
 24 30  1  0  0  0  0
 25 24  1  0  0  0  0
 26 25  2  0  0  0  0
 27 22  2  0  0  0  0
 27 26  1  0  0  0  0
 28 22  1  0  0  0  0
 29 26  1  0  0  0  0
 30 31  2  0  0  0  0
 31 32  1  0  0  0  0
 31 35  1  0  0  0  0
 32 36  1  0  0  0  0
 33 37  1  0  0  0  0
 33 32  2  0  0  0  0
 34 30  1  0  0  0  0
 34 33  1  0  0  0  0
M  END
>  <minimizedAffinity>
-4.39875937

>  <minimizedRMSD>
4.21055126

$$$$
