
 OpenBabel03242518033D

 35 37  0  0  0  0  0  0  0  0999 V2000
   33.6440   28.7390   36.7570 C   0  0  0  0  0  0  0  0  0  0  0  0
   34.0860   29.6200   36.1990 H   0  0  0  0  0  0  0  0  0  0  0  0
   33.6590   27.9410   36.0010 H   0  0  0  0  0  0  0  0  0  0  0  0
   34.1680   29.2340   39.1350 C   0  0  0  0  0  0  0  0  0  0  0  0
   34.4650   28.5400   37.9390 C   0  0  0  0  0  0  0  0  0  0  0  0
   35.5620   27.6820   37.9710 C   0  0  0  0  0  0  0  0  0  0  0  0
   36.2700   27.5550   39.1100 N   0  0  0  0  0  0  0  0  0  0  0  0
   35.9570   28.2340   40.2310 C   0  0  0  0  0  0  0  0  0  0  0  0
   34.9130   29.0660   40.2420 N   0  0  0  0  0  0  0  0  0  0  0  0
   33.3530   29.9070   39.2050 H   0  0  0  0  0  0  0  0  0  0  0  0
   35.7960   27.1440   37.0520 H   0  0  0  0  0  0  0  0  0  0  0  0
   36.8260   27.9950   41.4100 C   0  0  0  0  0  0  0  0  0  0  0  0
   37.3700   26.7460   41.8580 C   0  0  0  0  0  0  0  0  0  0  0  0
   37.1020   25.8930   41.2510 H   0  0  0  0  0  0  0  0  0  0  0  0
   38.3040   27.3520   43.3530 S   0  0  0  0  0  0  0  0  0  0  0  0
   37.7730   29.1570   43.0700 C   0  0  0  0  0  0  0  0  0  0  0  0
   38.1720   29.8170   43.8140 H   0  0  0  0  0  0  0  0  0  0  0  0
   37.0130   29.1790   41.9900 N   0  0  0  0  0  0  0  0  0  0  0  0
   32.2500   29.1220   37.2240 C   0  0  0  0  0  0  0  0  0  0  0  0
   32.2900   29.4100   38.2820 H   0  0  0  0  0  0  0  0  0  0  0  0
   31.5560   28.2290   37.2140 H   0  0  0  0  0  0  0  0  0  0  0  0
   30.4780   30.7850   36.8790 C   0  0  0  0  0  0  0  0  0  0  0  0
   31.5860   30.1250   36.3800 C   0  0  0  0  0  0  0  0  0  0  0  0
   32.1030   30.3570   35.1370 C   0  0  0  0  0  0  0  0  0  0  0  0
   31.4840   31.2990   34.3410 C   0  0  0  0  0  0  0  0  0  0  0  0
   30.3910   31.9980   34.7430 C   0  0  0  0  0  0  0  0  0  0  0  0
   29.9170   31.7120   36.0180 C   0  0  0  0  0  0  0  0  0  0  0  0
   32.9410   29.8880   34.7020 H   0  0  0  0  0  0  0  0  0  0  0  0
   31.8460   31.5320   33.3370 H   0  0  0  0  0  0  0  0  0  0  0  0
   29.8880   32.7450   34.1280 H   0  0  0  0  0  0  0  0  0  0  0  0
   29.0360   32.2730   36.3450 H   0  0  0  0  0  0  0  0  0  0  0  0
   29.7800   30.5240   38.4530 S   0  0  0  0  0  0  0  0  0  0  0  0
   28.9180   29.2810   38.4960 O   0  0  0  0  0  0  0  0  0  0  0  0
   28.8190   31.6470   38.7550 O   0  0  0  0  0  0  0  0  0  0  0  0
   30.6810   30.5260   39.4670 H   0  0  0  0  0  0  0  0  0  0  0  0
  1 19  1  0  0  0  0
  1  5  1  0  0  0  0
  2  1  1  0  0  0  0
  3  1  1  0  0  0  0
  4 10  1  0  0  0  0
  4  9  1  0  0  0  0
  5  6  1  0  0  0  0
  5  4  2  0  0  0  0
  6  7  2  0  0  0  0
  7  8  1  0  0  0  0
  8  9  2  0  0  0  0
  8 12  1  0  0  0  0
 11  6  1  0  0  0  0
 12 13  2  0  0  0  0
 12 18  1  0  0  0  0
 13 15  1  0  0  0  0
 14 13  1  0  0  0  0
 16 15  1  0  0  0  0
 16 17  1  0  0  0  0
 18 16  2  0  0  0  0
 19 20  1  0  0  0  0
 21 19  1  0  0  0  0
 22 32  1  0  0  0  0
 23 22  1  0  0  0  0
 23 19  1  0  0  0  0
 24 23  2  0  0  0  0
 25 26  2  0  0  0  0
 25 24  1  0  0  0  0
 26 27  1  0  0  0  0
 27 31  1  0  0  0  0
 27 22  2  0  0  0  0
 28 24  1  0  0  0  0
 29 25  1  0  0  0  0
 30 26  1  0  0  0  0
 32 33  2  0  0  0  0
 32 34  2  0  0  0  0
 32 35  1  0  0  0  0
M  END
>  <minimizedAffinity>
-5.21787071

$$$$

 OpenBabel03242518033D

 35 37  0  0  0  0  0  0  0  0999 V2000
   38.4440   27.1930   43.6320 C   0  0  0  0  0  0  0  0  0  0  0  0
   38.9910   26.2640   43.2880 H   0  0  0  0  0  0  0  0  0  0  0  0
   38.3690   27.0430   44.7190 H   0  0  0  0  0  0  0  0  0  0  0  0
   38.6030   29.5800   42.9580 C   0  0  0  0  0  0  0  0  0  0  0  0
   39.2270   28.3300   43.1790 C   0  0  0  0  0  0  0  0  0  0  0  0
   40.5980   28.2660   42.9410 C   0  0  0  0  0  0  0  0  0  0  0  0
   41.2490   29.3690   42.5220 N   0  0  0  0  0  0  0  0  0  0  0  0
   40.6200   30.5430   42.3210 C   0  0  0  0  0  0  0  0  0  0  0  0
   39.3060   30.6460   42.5380 N   0  0  0  0  0  0  0  0  0  0  0  0
   37.5650   29.7230   43.1130 H   0  0  0  0  0  0  0  0  0  0  0  0
   41.0860   27.3060   43.1110 H   0  0  0  0  0  0  0  0  0  0  0  0
   41.4640   31.6720   41.8590 C   0  0  0  0  0  0  0  0  0  0  0  0
   41.2270   32.5460   40.7470 C   0  0  0  0  0  0  0  0  0  0  0  0
   40.3200   32.3380   40.1960 H   0  0  0  0  0  0  0  0  0  0  0  0
   42.7370   33.6280   40.8960 S   0  0  0  0  0  0  0  0  0  0  0  0
   43.3780   32.6870   42.4200 C   0  0  0  0  0  0  0  0  0  0  0  0
   44.3020   33.0870   42.7840 H   0  0  0  0  0  0  0  0  0  0  0  0
   42.5090   31.7270   42.6840 N   0  0  0  0  0  0  0  0  0  0  0  0
   37.1020   27.2470   42.9220 C   0  0  0  0  0  0  0  0  0  0  0  0
   36.9090   28.2750   42.5900 H   0  0  0  0  0  0  0  0  0  0  0  0
   36.2530   27.0290   43.6360 H   0  0  0  0  0  0  0  0  0  0  0  0
   36.6910   26.7060   40.5630 C   0  0  0  0  0  0  0  0  0  0  0  0
   36.9510   26.2580   41.8450 C   0  0  0  0  0  0  0  0  0  0  0  0
   37.0770   24.9370   42.1690 C   0  0  0  0  0  0  0  0  0  0  0  0
   36.9370   24.0050   41.1610 C   0  0  0  0  0  0  0  0  0  0  0  0
   36.6820   24.3470   39.8720 C   0  0  0  0  0  0  0  0  0  0  0  0
   36.5650   25.7080   39.6130 C   0  0  0  0  0  0  0  0  0  0  0  0
   37.2730   24.5340   43.1240 H   0  0  0  0  0  0  0  0  0  0  0  0
   37.0260   22.9320   41.3520 H   0  0  0  0  0  0  0  0  0  0  0  0
   36.5670   23.6250   39.0630 H   0  0  0  0  0  0  0  0  0  0  0  0
   36.3590   25.9870   38.5750 H   0  0  0  0  0  0  0  0  0  0  0  0
   36.5210   28.3750   40.1000 S   0  0  0  0  0  0  0  0  0  0  0  0
   35.1880   28.9530   40.5280 O   0  0  0  0  0  0  0  0  0  0  0  0
   36.4920   28.4670   38.5940 O   0  0  0  0  0  0  0  0  0  0  0  0
   37.5440   29.1700   40.4990 H   0  0  0  0  0  0  0  0  0  0  0  0
  1  3  1  0  0  0  0
  2  1  1  0  0  0  0
  4 10  1  0  0  0  0
  4  5  1  0  0  0  0
  5  1  1  0  0  0  0
  6 11  1  0  0  0  0
  6  5  2  0  0  0  0
  7  6  1  0  0  0  0
  8  7  2  0  0  0  0
  8  9  1  0  0  0  0
  9  4  2  0  0  0  0
 12  8  1  0  0  0  0
 12 18  1  0  0  0  0
 13 15  1  0  0  0  0
 13 12  2  0  0  0  0
 14 13  1  0  0  0  0
 15 16  1  0  0  0  0
 16 18  2  0  0  0  0
 16 17  1  0  0  0  0
 19  1  1  0  0  0  0
 19 21  1  0  0  0  0
 20 19  1  0  0  0  0
 22 23  1  0  0  0  0
 23 24  2  0  0  0  0
 23 19  1  0  0  0  0
 24 28  1  0  0  0  0
 25 29  1  0  0  0  0
 25 24  1  0  0  0  0
 26 25  2  0  0  0  0
 27 26  1  0  0  0  0
 27 22  2  0  0  0  0
 30 26  1  0  0  0  0
 31 27  1  0  0  0  0
 32 35  1  0  0  0  0
 32 33  2  0  0  0  0
 32 22  1  0  0  0  0
 34 32  2  0  0  0  0
M  END
>  <minimizedAffinity>
-5.08533049

$$$$

 OpenBabel03242518033D

 35 37  0  0  0  0  0  0  0  0999 V2000
   35.9230   30.4660   40.6260 C   0  0  0  0  0  0  0  0  0  0  0  0
   36.1080   30.3000   41.7310 H   0  0  0  0  0  0  0  0  0  0  0  0
   35.0010   31.0660   40.6210 H   0  0  0  0  0  0  0  0  0  0  0  0
   38.1130   31.5880   40.9720 C   0  0  0  0  0  0  0  0  0  0  0  0
   37.1190   31.0970   40.0940 C   0  0  0  0  0  0  0  0  0  0  0  0
   37.3570   31.2540   38.7310 C   0  0  0  0  0  0  0  0  0  0  0  0
   38.4940   31.8500   38.3220 N   0  0  0  0  0  0  0  0  0  0  0  0
   39.4190   32.3070   39.1880 C   0  0  0  0  0  0  0  0  0  0  0  0
   39.2280   32.1760   40.5030 N   0  0  0  0  0  0  0  0  0  0  0  0
   38.0190   31.5130   42.0240 H   0  0  0  0  0  0  0  0  0  0  0  0
   36.5940   30.8770   38.0490 H   0  0  0  0  0  0  0  0  0  0  0  0
   40.6210   32.9420   38.5940 C   0  0  0  0  0  0  0  0  0  0  0  0
   41.2780   32.5970   37.3670 C   0  0  0  0  0  0  0  0  0  0  0  0
   40.8270   31.7750   36.8300 H   0  0  0  0  0  0  0  0  0  0  0  0
   42.6450   33.8630   37.4000 S   0  0  0  0  0  0  0  0  0  0  0  0
   42.0560   34.5960   39.0540 C   0  0  0  0  0  0  0  0  0  0  0  0
   42.6740   35.4080   39.3800 H   0  0  0  0  0  0  0  0  0  0  0  0
   40.9880   33.9140   39.4280 N   0  0  0  0  0  0  0  0  0  0  0  0
   35.7820   29.1100   39.9570 C   0  0  0  0  0  0  0  0  0  0  0  0
   36.2180   29.1550   38.9510 H   0  0  0  0  0  0  0  0  0  0  0  0
   34.6960   28.8580   39.7680 H   0  0  0  0  0  0  0  0  0  0  0  0
   36.6420   26.8150   40.1090 C   0  0  0  0  0  0  0  0  0  0  0  0
   36.2950   27.9880   40.7550 C   0  0  0  0  0  0  0  0  0  0  0  0
   36.4050   28.1630   42.1050 C   0  0  0  0  0  0  0  0  0  0  0  0
   36.8880   27.1130   42.8590 C   0  0  0  0  0  0  0  0  0  0  0  0
   37.2540   25.9230   42.3160 C   0  0  0  0  0  0  0  0  0  0  0  0
   37.1160   25.8130   40.9360 C   0  0  0  0  0  0  0  0  0  0  0  0
   36.1570   29.0280   42.6550 H   0  0  0  0  0  0  0  0  0  0  0  0
   37.0010   27.1860   43.9440 H   0  0  0  0  0  0  0  0  0  0  0  0
   37.6370   25.0820   42.8950 H   0  0  0  0  0  0  0  0  0  0  0  0
   37.4100   24.8570   40.4950 H   0  0  0  0  0  0  0  0  0  0  0  0
   36.5190   26.5430   38.3940 S   0  0  0  0  0  0  0  0  0  0  0  0
   35.9230   25.1890   38.0720 O   0  0  0  0  0  0  0  0  0  0  0  0
   37.9070   26.4800   37.8060 O   0  0  0  0  0  0  0  0  0  0  0  0
   35.8760   27.5270   37.7190 H   0  0  0  0  0  0  0  0  0  0  0  0
  1  2  1  0  0  0  0
  3  1  1  0  0  0  0
  4 10  1  0  0  0  0
  5  1  1  0  0  0  0
  5  4  2  0  0  0  0
  6  5  1  0  0  0  0
  7  6  2  0  0  0  0
  7  8  1  0  0  0  0
  8  9  2  0  0  0  0
  9  4  1  0  0  0  0
 11  6  1  0  0  0  0
 12  8  1  0  0  0  0
 12 18  1  0  0  0  0
 13 15  1  0  0  0  0
 13 12  2  0  0  0  0
 14 13  1  0  0  0  0
 15 16  1  0  0  0  0
 16 17  1  0  0  0  0
 16 18  2  0  0  0  0
 19  1  1  0  0  0  0
 19 23  1  0  0  0  0
 20 19  1  0  0  0  0
 21 19  1  0  0  0  0
 22 23  2  0  0  0  0
 22 27  1  0  0  0  0
 23 24  1  0  0  0  0
 24 28  1  0  0  0  0
 24 25  2  0  0  0  0
 25 29  1  0  0  0  0
 26 25  1  0  0  0  0
 26 30  1  0  0  0  0
 27 26  2  0  0  0  0
 31 27  1  0  0  0  0
 32 22  1  0  0  0  0
 33 32  2  0  0  0  0
 34 32  2  0  0  0  0
 35 32  1  0  0  0  0
M  END
>  <minimizedAffinity>
-5.06308651

$$$$

 OpenBabel03242518033D

 35 37  0  0  0  0  0  0  0  0999 V2000
   35.7750   29.7310   40.4060 C   0  0  0  0  0  0  0  0  0  0  0  0
   35.5920   30.0520   41.4760 H   0  0  0  0  0  0  0  0  0  0  0  0
   34.8100   29.9380   39.9210 H   0  0  0  0  0  0  0  0  0  0  0  0
   37.2600   30.4810   38.5600 C   0  0  0  0  0  0  0  0  0  0  0  0
   36.9230   30.4860   39.9340 C   0  0  0  0  0  0  0  0  0  0  0  0
   37.7380   31.2390   40.7750 C   0  0  0  0  0  0  0  0  0  0  0  0
   38.7840   31.9110   40.2550 N   0  0  0  0  0  0  0  0  0  0  0  0
   39.0760   31.8820   38.9390 C   0  0  0  0  0  0  0  0  0  0  0  0
   38.3180   31.1720   38.1000 N   0  0  0  0  0  0  0  0  0  0  0  0
   36.6970   29.9380   37.8470 H   0  0  0  0  0  0  0  0  0  0  0  0
   37.4830   31.2470   41.8350 H   0  0  0  0  0  0  0  0  0  0  0  0
   40.2570   32.6700   38.5090 C   0  0  0  0  0  0  0  0  0  0  0  0
   41.1330   32.4040   37.4060 C   0  0  0  0  0  0  0  0  0  0  0  0
   40.8840   31.5210   36.8350 H   0  0  0  0  0  0  0  0  0  0  0  0
   42.2970   33.8470   37.6000 S   0  0  0  0  0  0  0  0  0  0  0  0
   41.3700   34.5120   39.1220 C   0  0  0  0  0  0  0  0  0  0  0  0
   41.8160   35.4050   39.5100 H   0  0  0  0  0  0  0  0  0  0  0  0
   40.3590   33.6940   39.3560 N   0  0  0  0  0  0  0  0  0  0  0  0
   36.1620   28.2610   40.4100 C   0  0  0  0  0  0  0  0  0  0  0  0
   36.5750   27.9930   39.4290 H   0  0  0  0  0  0  0  0  0  0  0  0
   35.2500   27.5990   40.5090 H   0  0  0  0  0  0  0  0  0  0  0  0
   38.3010   27.3950   41.2460 C   0  0  0  0  0  0  0  0  0  0  0  0
   37.0330   27.8710   41.5270 C   0  0  0  0  0  0  0  0  0  0  0  0
   36.5430   28.0010   42.7950 C   0  0  0  0  0  0  0  0  0  0  0  0
   37.3580   27.6370   43.8470 C   0  0  0  0  0  0  0  0  0  0  0  0
   38.6170   27.1590   43.6720 C   0  0  0  0  0  0  0  0  0  0  0  0
   39.0530   27.0520   42.3550 C   0  0  0  0  0  0  0  0  0  0  0  0
   35.5890   28.3550   43.0720 H   0  0  0  0  0  0  0  0  0  0  0  0
   37.0270   27.7160   44.8860 H   0  0  0  0  0  0  0  0  0  0  0  0
   39.2760   26.8660   44.4900 H   0  0  0  0  0  0  0  0  0  0  0  0
   40.0660   26.6680   42.2110 H   0  0  0  0  0  0  0  0  0  0  0  0
   38.9700   27.2090   39.6490 S   0  0  0  0  0  0  0  0  0  0  0  0
   39.8280   25.9670   39.5310 O   0  0  0  0  0  0  0  0  0  0  0  0
   39.9310   28.3430   39.3850 O   0  0  0  0  0  0  0  0  0  0  0  0
   38.0530   27.2620   38.6520 H   0  0  0  0  0  0  0  0  0  0  0  0
  1 19  1  0  0  0  0
  1  2  1  0  0  0  0
  3  1  1  0  0  0  0
  4  5  1  0  0  0  0
  5  1  1  0  0  0  0
  5  6  2  0  0  0  0
  6 11  1  0  0  0  0
  7  6  1  0  0  0  0
  8  7  2  0  0  0  0
  9  4  2  0  0  0  0
  9  8  1  0  0  0  0
 10  4  1  0  0  0  0
 12  8  1  0  0  0  0
 12 18  1  0  0  0  0
 13 15  1  0  0  0  0
 13 12  2  0  0  0  0
 14 13  1  0  0  0  0
 15 16  1  0  0  0  0
 16 18  2  0  0  0  0
 16 17  1  0  0  0  0
 19 21  1  0  0  0  0
 19 23  1  0  0  0  0
 20 19  1  0  0  0  0
 22 23  2  0  0  0  0
 22 27  1  0  0  0  0
 23 24  1  0  0  0  0
 24 28  1  0  0  0  0
 24 25  2  0  0  0  0
 25 29  1  0  0  0  0
 26 25  1  0  0  0  0
 26 30  1  0  0  0  0
 27 26  2  0  0  0  0
 31 27  1  0  0  0  0
 32 22  1  0  0  0  0
 33 32  2  0  0  0  0
 34 32  2  0  0  0  0
 35 32  1  0  0  0  0
M  END
>  <minimizedAffinity>
-5.02575874

$$$$

 OpenBabel03242518033D

 35 37  0  0  0  0  0  0  0  0999 V2000
   37.1810   27.9140   42.9680 C   0  0  0  0  0  0  0  0  0  0  0  0
   38.0150   27.2530   43.3580 H   0  0  0  0  0  0  0  0  0  0  0  0
   36.5330   28.0330   43.8490 H   0  0  0  0  0  0  0  0  0  0  0  0
   37.0800   29.9960   41.6160 C   0  0  0  0  0  0  0  0  0  0  0  0
   37.8100   29.1160   42.4490 C   0  0  0  0  0  0  0  0  0  0  0  0
   39.1280   29.4690   42.7270 C   0  0  0  0  0  0  0  0  0  0  0  0
   39.6350   30.6030   42.2040 N   0  0  0  0  0  0  0  0  0  0  0  0
   38.9090   31.4170   41.4130 C   0  0  0  0  0  0  0  0  0  0  0  0
   37.6410   31.1140   41.1220 N   0  0  0  0  0  0  0  0  0  0  0  0
   36.0730   29.8090   41.3500 H   0  0  0  0  0  0  0  0  0  0  0  0
   39.6960   28.7950   43.3700 H   0  0  0  0  0  0  0  0  0  0  0  0
   39.5970   32.6300   40.9090 C   0  0  0  0  0  0  0  0  0  0  0  0
   40.9960   32.7960   40.6410 C   0  0  0  0  0  0  0  0  0  0  0  0
   41.5990   31.9210   40.8370 H   0  0  0  0  0  0  0  0  0  0  0  0
   40.9760   34.5670   40.0620 S   0  0  0  0  0  0  0  0  0  0  0  0
   39.0950   34.7240   40.2980 C   0  0  0  0  0  0  0  0  0  0  0  0
   38.7330   35.6960   40.0330 H   0  0  0  0  0  0  0  0  0  0  0  0
   38.6570   33.5600   40.7470 N   0  0  0  0  0  0  0  0  0  0  0  0
   36.5160   27.2020   41.8020 C   0  0  0  0  0  0  0  0  0  0  0  0
   36.3370   27.9220   40.9940 H   0  0  0  0  0  0  0  0  0  0  0  0
   35.4790   26.8450   42.0800 H   0  0  0  0  0  0  0  0  0  0  0  0
   37.8500   26.0130   40.1200 C   0  0  0  0  0  0  0  0  0  0  0  0
   37.2220   25.9940   41.3510 C   0  0  0  0  0  0  0  0  0  0  0  0
   37.2210   24.9080   42.1790 C   0  0  0  0  0  0  0  0  0  0  0  0
   37.8830   23.7720   41.7610 C   0  0  0  0  0  0  0  0  0  0  0  0
   38.5300   23.6940   40.5690 C   0  0  0  0  0  0  0  0  0  0  0  0
   38.4900   24.8350   39.7760 C   0  0  0  0  0  0  0  0  0  0  0  0
   36.7600   24.8320   43.1250 H   0  0  0  0  0  0  0  0  0  0  0  0
   37.9210   22.8680   42.3740 H   0  0  0  0  0  0  0  0  0  0  0  0
   39.0580   22.8050   40.2210 H   0  0  0  0  0  0  0  0  0  0  0  0
   39.0100   24.7760   38.8160 H   0  0  0  0  0  0  0  0  0  0  0  0
   37.8790   27.3700   39.0300 S   0  0  0  0  0  0  0  0  0  0  0  0
   38.0280   26.9390   37.5860 O   0  0  0  0  0  0  0  0  0  0  0  0
   39.1180   28.1880   39.2970 O   0  0  0  0  0  0  0  0  0  0  0  0
   36.8350   28.2220   39.1750 H   0  0  0  0  0  0  0  0  0  0  0  0
  1  2  1  0  0  0  0
  1  3  1  0  0  0  0
  4  5  1  0  0  0  0
  5  6  2  0  0  0  0
  5  1  1  0  0  0  0
  6 11  1  0  0  0  0
  7  6  1  0  0  0  0
  8  7  2  0  0  0  0
  9  8  1  0  0  0  0
  9  4  2  0  0  0  0
 10  4  1  0  0  0  0
 12  8  1  0  0  0  0
 13 14  1  0  0  0  0
 13 12  2  0  0  0  0
 15 16  1  0  0  0  0
 15 13  1  0  0  0  0
 16 18  2  0  0  0  0
 17 16  1  0  0  0  0
 18 12  1  0  0  0  0
 19 21  1  0  0  0  0
 19  1  1  0  0  0  0
 20 19  1  0  0  0  0
 22 23  1  0  0  0  0
 23 19  1  0  0  0  0
 23 24  2  0  0  0  0
 24 28  1  0  0  0  0
 25 24  1  0  0  0  0
 25 29  1  0  0  0  0
 26 25  2  0  0  0  0
 27 22  2  0  0  0  0
 27 26  1  0  0  0  0
 30 26  1  0  0  0  0
 31 27  1  0  0  0  0
 32 35  1  0  0  0  0
 32 34  2  0  0  0  0
 32 22  1  0  0  0  0
 33 32  2  0  0  0  0
M  END
>  <minimizedAffinity>
-4.97174168

$$$$

 OpenBabel03242518033D

 35 37  0  0  0  0  0  0  0  0999 V2000
   36.4530   30.4210   38.8030 C   0  0  0  0  0  0  0  0  0  0  0  0
   35.7290   31.2140   38.4440 H   0  0  0  0  0  0  0  0  0  0  0  0
   36.5830   29.7890   37.9130 H   0  0  0  0  0  0  0  0  0  0  0  0
   37.4870   32.2630   40.1110 C   0  0  0  0  0  0  0  0  0  0  0  0
   37.6290   31.1210   39.2900 C   0  0  0  0  0  0  0  0  0  0  0  0
   38.9310   30.7250   38.9890 C   0  0  0  0  0  0  0  0  0  0  0  0
   39.9670   31.4310   39.4820 N   0  0  0  0  0  0  0  0  0  0  0  0
   39.7930   32.5160   40.2620 C   0  0  0  0  0  0  0  0  0  0  0  0
   38.5610   32.9280   40.5730 N   0  0  0  0  0  0  0  0  0  0  0  0
   36.5370   32.6370   40.3920 H   0  0  0  0  0  0  0  0  0  0  0  0
   39.0470   29.8450   38.3570 H   0  0  0  0  0  0  0  0  0  0  0  0
   41.0260   33.1940   40.7320 C   0  0  0  0  0  0  0  0  0  0  0  0
   41.4080   34.5610   40.5240 C   0  0  0  0  0  0  0  0  0  0  0  0
   40.6990   35.1460   39.9560 H   0  0  0  0  0  0  0  0  0  0  0  0
   43.0410   34.5490   41.4230 S   0  0  0  0  0  0  0  0  0  0  0  0
   42.8770   32.7130   41.8930 C   0  0  0  0  0  0  0  0  0  0  0  0
   43.7170   32.3630   42.4590 H   0  0  0  0  0  0  0  0  0  0  0  0
   41.7320   32.2800   41.3960 N   0  0  0  0  0  0  0  0  0  0  0  0
   35.8240   29.7030   39.9850 C   0  0  0  0  0  0  0  0  0  0  0  0
   34.7310   29.7670   39.9080 H   0  0  0  0  0  0  0  0  0  0  0  0
   36.0570   30.2320   40.9570 H   0  0  0  0  0  0  0  0  0  0  0  0
   36.9900   28.0220   41.3420 C   0  0  0  0  0  0  0  0  0  0  0  0
   36.3050   28.3280   40.1810 C   0  0  0  0  0  0  0  0  0  0  0  0
   36.0490   27.4160   39.1970 C   0  0  0  0  0  0  0  0  0  0  0  0
   36.4980   26.1230   39.3760 C   0  0  0  0  0  0  0  0  0  0  0  0
   37.1790   25.7270   40.4820 C   0  0  0  0  0  0  0  0  0  0  0  0
   37.4060   26.7070   41.4430 C   0  0  0  0  0  0  0  0  0  0  0  0
   35.5350   27.5870   38.2920 H   0  0  0  0  0  0  0  0  0  0  0  0
   36.3260   25.3450   38.6280 H   0  0  0  0  0  0  0  0  0  0  0  0
   37.5420   24.7110   40.6410 H   0  0  0  0  0  0  0  0  0  0  0  0
   37.9540   26.3910   42.3360 H   0  0  0  0  0  0  0  0  0  0  0  0
   37.3440   29.1480   42.6230 S   0  0  0  0  0  0  0  0  0  0  0  0
   38.6720   29.8460   42.4190 O   0  0  0  0  0  0  0  0  0  0  0  0
   37.5260   28.3840   43.9110 O   0  0  0  0  0  0  0  0  0  0  0  0
   36.3560   30.0460   42.8620 H   0  0  0  0  0  0  0  0  0  0  0  0
  1  5  1  0  0  0  0
  1 19  1  0  0  0  0
  2  1  1  0  0  0  0
  3  1  1  0  0  0  0
  4 10  1  0  0  0  0
  4  9  1  0  0  0  0
  5  4  2  0  0  0  0
  6  5  1  0  0  0  0
  6  7  2  0  0  0  0
  7  8  1  0  0  0  0
  8  9  2  0  0  0  0
  8 12  1  0  0  0  0
 11  6  1  0  0  0  0
 12 18  1  0  0  0  0
 13 12  2  0  0  0  0
 13 15  1  0  0  0  0
 14 13  1  0  0  0  0
 15 16  1  0  0  0  0
 16 17  1  0  0  0  0
 18 16  2  0  0  0  0
 19 23  1  0  0  0  0
 19 21  1  0  0  0  0
 20 19  1  0  0  0  0
 22 27  1  0  0  0  0
 22 32  1  0  0  0  0
 23 22  2  0  0  0  0
 24 25  2  0  0  0  0
 24 23  1  0  0  0  0
 25 26  1  0  0  0  0
 26 30  1  0  0  0  0
 26 27  2  0  0  0  0
 27 31  1  0  0  0  0
 28 24  1  0  0  0  0
 29 25  1  0  0  0  0
 32 35  1  0  0  0  0
 32 34  2  0  0  0  0
 33 32  2  0  0  0  0
M  END
>  <minimizedAffinity>
-4.96849966

$$$$

 OpenBabel03242518033D

 35 37  0  0  0  0  0  0  0  0999 V2000
   35.9110   29.4360   38.9880 C   0  0  0  0  0  0  0  0  0  0  0  0
   34.9990   30.1000   38.8950 H   0  0  0  0  0  0  0  0  0  0  0  0
   35.7370   28.6730   38.2150 H   0  0  0  0  0  0  0  0  0  0  0  0
   37.5220   31.1030   39.8830 C   0  0  0  0  0  0  0  0  0  0  0  0
   37.0710   30.2940   38.8140 C   0  0  0  0  0  0  0  0  0  0  0  0
   37.7900   30.3730   37.6240 C   0  0  0  0  0  0  0  0  0  0  0  0
   38.8540   31.1960   37.5470 N   0  0  0  0  0  0  0  0  0  0  0  0
   39.2550   31.9530   38.5870 C   0  0  0  0  0  0  0  0  0  0  0  0
   38.5920   31.9050   39.7460 N   0  0  0  0  0  0  0  0  0  0  0  0
   37.0380   31.1080   40.8250 H   0  0  0  0  0  0  0  0  0  0  0  0
   37.4470   29.7520   36.7960 H   0  0  0  0  0  0  0  0  0  0  0  0
   40.4430   32.8110   38.3580 C   0  0  0  0  0  0  0  0  0  0  0  0
   41.4410   32.6710   37.3370 C   0  0  0  0  0  0  0  0  0  0  0  0
   41.2870   31.8360   36.6690 H   0  0  0  0  0  0  0  0  0  0  0  0
   42.5190   34.1250   37.7800 S   0  0  0  0  0  0  0  0  0  0  0  0
   41.4120   34.6230   39.2440 C   0  0  0  0  0  0  0  0  0  0  0  0
   41.7800   35.4910   39.7530 H   0  0  0  0  0  0  0  0  0  0  0  0
   40.4150   33.7570   39.2950 N   0  0  0  0  0  0  0  0  0  0  0  0
   35.9560   28.8840   40.4030 C   0  0  0  0  0  0  0  0  0  0  0  0
   34.9440   28.8960   40.8280 H   0  0  0  0  0  0  0  0  0  0  0  0
   36.5450   29.5640   41.0880 H   0  0  0  0  0  0  0  0  0  0  0  0
   37.4730   27.3520   41.5760 C   0  0  0  0  0  0  0  0  0  0  0  0
   36.6110   27.5740   40.5180 C   0  0  0  0  0  0  0  0  0  0  0  0
   36.3320   26.6340   39.5670 C   0  0  0  0  0  0  0  0  0  0  0  0
   36.9440   25.4020   39.6710 C   0  0  0  0  0  0  0  0  0  0  0  0
   37.8050   25.0900   40.6740 C   0  0  0  0  0  0  0  0  0  0  0  0
   38.0450   26.0930   41.6070 C   0  0  0  0  0  0  0  0  0  0  0  0
   35.6870   26.7430   38.7390 H   0  0  0  0  0  0  0  0  0  0  0  0
   36.7640   24.6060   38.9440 H   0  0  0  0  0  0  0  0  0  0  0  0
   38.2990   24.1230   40.7730 H   0  0  0  0  0  0  0  0  0  0  0  0
   38.7380   25.8450   42.4160 H   0  0  0  0  0  0  0  0  0  0  0  0
   37.8630   28.5160   42.8110 S   0  0  0  0  0  0  0  0  0  0  0  0
   39.3050   28.4090   43.2620 O   0  0  0  0  0  0  0  0  0  0  0  0
   37.0670   28.1980   44.0540 O   0  0  0  0  0  0  0  0  0  0  0  0
   37.5500   29.7950   42.4890 H   0  0  0  0  0  0  0  0  0  0  0  0
  1 19  1  0  0  0  0
  2  1  1  0  0  0  0
  3  1  1  0  0  0  0
  4 10  1  0  0  0  0
  5  1  1  0  0  0  0
  5  4  2  0  0  0  0
  6  5  1  0  0  0  0
  7  6  2  0  0  0  0
  7  8  1  0  0  0  0
  8  9  2  0  0  0  0
  9  4  1  0  0  0  0
 11  6  1  0  0  0  0
 12  8  1  0  0  0  0
 12 18  1  0  0  0  0
 13 15  1  0  0  0  0
 13 12  2  0  0  0  0
 14 13  1  0  0  0  0
 15 16  1  0  0  0  0
 16 18  2  0  0  0  0
 16 17  1  0  0  0  0
 19 23  1  0  0  0  0
 19 20  1  0  0  0  0
 19 21  1  0  0  0  0
 22 27  1  0  0  0  0
 22 32  1  0  0  0  0
 23 22  2  0  0  0  0
 24 25  2  0  0  0  0
 24 23  1  0  0  0  0
 25 26  1  0  0  0  0
 26 30  1  0  0  0  0
 26 27  2  0  0  0  0
 27 31  1  0  0  0  0
 28 24  1  0  0  0  0
 29 25  1  0  0  0  0
 32 33  2  0  0  0  0
 32 34  2  0  0  0  0
 35 32  1  0  0  0  0
M  END
>  <minimizedAffinity>
-4.92329502

$$$$

 OpenBabel03242518033D

 35 37  0  0  0  0  0  0  0  0999 V2000
   36.6340   28.3670   41.9980 C   0  0  0  0  0  0  0  0  0  0  0  0
   36.9070   28.4820   43.0910 H   0  0  0  0  0  0  0  0  0  0  0  0
   35.5610   28.6060   41.9880 H   0  0  0  0  0  0  0  0  0  0  0  0
   37.5990   29.1510   39.8460 C   0  0  0  0  0  0  0  0  0  0  0  0
   37.5110   29.2560   41.2540 C   0  0  0  0  0  0  0  0  0  0  0  0
   38.2950   30.2350   41.8570 C   0  0  0  0  0  0  0  0  0  0  0  0
   39.0810   31.0180   41.0930 N   0  0  0  0  0  0  0  0  0  0  0  0
   39.1400   30.8890   39.7530 C   0  0  0  0  0  0  0  0  0  0  0  0
   38.4030   29.9610   39.1360 N   0  0  0  0  0  0  0  0  0  0  0  0
   37.0390   28.4360   39.3010 H   0  0  0  0  0  0  0  0  0  0  0  0
   38.2310   30.3210   42.9430 H   0  0  0  0  0  0  0  0  0  0  0  0
   40.0500   31.8190   39.0410 C   0  0  0  0  0  0  0  0  0  0  0  0
   40.8590   31.5440   37.8890 C   0  0  0  0  0  0  0  0  0  0  0  0
   40.7790   30.5330   37.5140 H   0  0  0  0  0  0  0  0  0  0  0  0
   41.6500   33.2180   37.6790 S   0  0  0  0  0  0  0  0  0  0  0  0
   40.7330   33.9450   39.1790 C   0  0  0  0  0  0  0  0  0  0  0  0
   40.9830   34.9730   39.3470 H   0  0  0  0  0  0  0  0  0  0  0  0
   39.9780   32.9850   39.6820 N   0  0  0  0  0  0  0  0  0  0  0  0
   36.9550   26.9440   41.5740 C   0  0  0  0  0  0  0  0  0  0  0  0
   37.0690   26.9080   40.4840 H   0  0  0  0  0  0  0  0  0  0  0  0
   36.0850   26.2510   41.7780 H   0  0  0  0  0  0  0  0  0  0  0  0
   38.5650   25.1150   41.8720 C   0  0  0  0  0  0  0  0  0  0  0  0
   38.0900   26.3440   42.2910 C   0  0  0  0  0  0  0  0  0  0  0  0
   38.6200   27.0370   43.3410 C   0  0  0  0  0  0  0  0  0  0  0  0
   39.6860   26.4780   44.0160 C   0  0  0  0  0  0  0  0  0  0  0  0
   40.2230   25.2770   43.6790 C   0  0  0  0  0  0  0  0  0  0  0  0
   39.6340   24.6250   42.6010 C   0  0  0  0  0  0  0  0  0  0  0  0
   38.3020   27.9740   43.7080 H   0  0  0  0  0  0  0  0  0  0  0  0
   40.1570   26.9800   44.8650 H   0  0  0  0  0  0  0  0  0  0  0  0
   41.0640   24.8190   44.2010 H   0  0  0  0  0  0  0  0  0  0  0  0
   40.0630   23.6580   42.3270 H   0  0  0  0  0  0  0  0  0  0  0  0
   37.9230   24.1920   40.5420 S   0  0  0  0  0  0  0  0  0  0  0  0
   37.8760   24.9950   39.2600 O   0  0  0  0  0  0  0  0  0  0  0  0
   36.4760   23.8680   40.8230 O   0  0  0  0  0  0  0  0  0  0  0  0
   38.5370   22.9990   40.3450 H   0  0  0  0  0  0  0  0  0  0  0  0
  1  2  1  0  0  0  0
  3  1  1  0  0  0  0
  4  5  1  0  0  0  0
  5  6  2  0  0  0  0
  5  1  1  0  0  0  0
  6 11  1  0  0  0  0
  7  6  1  0  0  0  0
  8  7  2  0  0  0  0
  9  8  1  0  0  0  0
  9  4  2  0  0  0  0
 10  4  1  0  0  0  0
 12 18  1  0  0  0  0
 12  8  1  0  0  0  0
 13 12  2  0  0  0  0
 14 13  1  0  0  0  0
 15 13  1  0  0  0  0
 15 16  1  0  0  0  0
 16 17  1  0  0  0  0
 16 18  2  0  0  0  0
 19 21  1  0  0  0  0
 19  1  1  0  0  0  0
 19 23  1  0  0  0  0
 20 19  1  0  0  0  0
 22 23  2  0  0  0  0
 22 27  1  0  0  0  0
 23 24  1  0  0  0  0
 24 28  1  0  0  0  0
 24 25  2  0  0  0  0
 25 29  1  0  0  0  0
 26 25  1  0  0  0  0
 26 30  1  0  0  0  0
 27 26  2  0  0  0  0
 31 27  1  0  0  0  0
 32 34  2  0  0  0  0
 32 22  1  0  0  0  0
 33 32  2  0  0  0  0
 35 32  1  0  0  0  0
M  END
>  <minimizedAffinity>
-4.8850174

$$$$

 OpenBabel03242518033D

 35 37  0  0  0  0  0  0  0  0999 V2000
   36.5740   27.2820   42.9950 C   0  0  0  0  0  0  0  0  0  0  0  0
   35.5250   27.4850   43.3680 H   0  0  0  0  0  0  0  0  0  0  0  0
   36.7360   26.2330   43.2840 H   0  0  0  0  0  0  0  0  0  0  0  0
   37.1310   26.6560   40.6560 C   0  0  0  0  0  0  0  0  0  0  0  0
   36.5760   27.5790   41.5730 C   0  0  0  0  0  0  0  0  0  0  0  0
   36.0500   28.7520   41.0370 C   0  0  0  0  0  0  0  0  0  0  0  0
   36.0920   28.9480   39.7050 N   0  0  0  0  0  0  0  0  0  0  0  0
   36.6300   28.0460   38.8610 C   0  0  0  0  0  0  0  0  0  0  0  0
   37.1450   26.9090   39.3350 N   0  0  0  0  0  0  0  0  0  0  0  0
   37.5550   25.7380   40.9710 H   0  0  0  0  0  0  0  0  0  0  0  0
   35.6200   29.4670   41.7390 H   0  0  0  0  0  0  0  0  0  0  0  0
   36.6070   28.3970   37.4200 C   0  0  0  0  0  0  0  0  0  0  0  0
   36.4460   27.5100   36.3040 C   0  0  0  0  0  0  0  0  0  0  0  0
   36.3290   26.4690   36.5700 H   0  0  0  0  0  0  0  0  0  0  0  0
   36.5380   28.7570   34.9220 S   0  0  0  0  0  0  0  0  0  0  0  0
   36.7740   30.2130   36.1230 C   0  0  0  0  0  0  0  0  0  0  0  0
   36.8670   31.1490   35.6110 H   0  0  0  0  0  0  0  0  0  0  0  0
   36.7690   29.7180   37.3480 N   0  0  0  0  0  0  0  0  0  0  0  0
   37.5180   28.2630   43.6710 C   0  0  0  0  0  0  0  0  0  0  0  0
   37.2040   28.4080   44.7120 H   0  0  0  0  0  0  0  0  0  0  0  0
   37.4290   29.2940   43.2160 H   0  0  0  0  0  0  0  0  0  0  0  0
   39.7890   28.8110   42.9190 C   0  0  0  0  0  0  0  0  0  0  0  0
   38.9400   27.9160   43.5430 C   0  0  0  0  0  0  0  0  0  0  0  0
   39.3530   26.7170   44.0520 C   0  0  0  0  0  0  0  0  0  0  0  0
   40.6880   26.3880   43.9350 C   0  0  0  0  0  0  0  0  0  0  0  0
   41.5980   27.2010   43.3400 C   0  0  0  0  0  0  0  0  0  0  0  0
   41.1100   28.4040   42.8430 C   0  0  0  0  0  0  0  0  0  0  0  0
   38.7560   25.9940   44.5350 H   0  0  0  0  0  0  0  0  0  0  0  0
   41.0840   25.4440   44.3210 H   0  0  0  0  0  0  0  0  0  0  0  0
   42.6560   26.9570   43.2380 H   0  0  0  0  0  0  0  0  0  0  0  0
   41.8400   29.0620   42.3630 H   0  0  0  0  0  0  0  0  0  0  0  0
   39.3120   30.3470   42.2530 S   0  0  0  0  0  0  0  0  0  0  0  0
   39.1680   30.2970   40.7470 O   0  0  0  0  0  0  0  0  0  0  0  0
   40.4200   31.3460   42.4810 O   0  0  0  0  0  0  0  0  0  0  0  0
   38.2070   30.8830   42.8280 H   0  0  0  0  0  0  0  0  0  0  0  0
  1  3  1  0  0  0  0
  1  2  1  0  0  0  0
  1 19  1  0  0  0  0
  4 10  1  0  0  0  0
  4  5  1  0  0  0  0
  5  1  1  0  0  0  0
  6  5  2  0  0  0  0
  6 11  1  0  0  0  0
  7  6  1  0  0  0  0
  8  9  1  0  0  0  0
  8  7  2  0  0  0  0
  9  4  2  0  0  0  0
 12  8  1  0  0  0  0
 13 14  1  0  0  0  0
 13 12  2  0  0  0  0
 15 16  1  0  0  0  0
 15 13  1  0  0  0  0
 16 18  2  0  0  0  0
 17 16  1  0  0  0  0
 18 12  1  0  0  0  0
 19 20  1  0  0  0  0
 21 19  1  0  0  0  0
 22 23  1  0  0  0  0
 23 19  1  0  0  0  0
 23 24  2  0  0  0  0
 24 28  1  0  0  0  0
 25 24  1  0  0  0  0
 25 29  1  0  0  0  0
 26 25  2  0  0  0  0
 27 22  2  0  0  0  0
 27 26  1  0  0  0  0
 30 26  1  0  0  0  0
 31 27  1  0  0  0  0
 32 34  2  0  0  0  0
 32 35  1  0  0  0  0
 32 22  1  0  0  0  0
 33 32  2  0  0  0  0
M  END
>  <minimizedAffinity>
-4.86690235

$$$$
