
 OpenBabel03252508593D

 43 45  0  0  1  0  0  0  0  0999 V2000
   47.2340   34.1080   43.0180 N   0  0  0  0  0  0  0  0  0  0  0  0
   46.7490   35.3460   42.5180 C   0  0  0  0  0  0  0  0  0  0  0  0
   45.2740   35.5930   42.7440 C   0  0  0  0  0  0  0  0  0  0  0  0
   44.7160   34.9840   44.0030 C   0  0  0  0  0  0  0  0  0  0  0  0
   45.8140   34.3670   44.8400 C   0  0  0  0  0  0  0  0  0  0  0  0
   46.4650   33.3240   43.8600 C   0  0  2  0  0  0  0  0  0  0  0  0
   46.9530   35.5470   41.4610 H   0  0  0  0  0  0  0  0  0  0  0  0
   47.3080   36.1410   43.0870 H   0  0  0  0  0  0  0  0  0  0  0  0
   44.6800   35.2880   41.8430 H   0  0  0  0  0  0  0  0  0  0  0  0
   45.1220   36.6910   42.8260 H   0  0  0  0  0  0  0  0  0  0  0  0
   44.0550   34.1470   43.6910 H   0  0  0  0  0  0  0  0  0  0  0  0
   44.0880   35.6920   44.5690 H   0  0  0  0  0  0  0  0  0  0  0  0
   46.5320   35.1600   45.0730 H   0  0  0  0  0  0  0  0  0  0  0  0
   45.3880   33.8410   45.6980 H   0  0  0  0  0  0  0  0  0  0  0  0
   45.6250   32.7620   43.4040 H   0  0  0  0  0  0  0  0  0  0  0  0
   48.1990   33.4710   42.1730 C   0  0  0  0  0  0  0  0  0  0  0  0
   48.8810   32.8380   42.7790 H   0  0  0  0  0  0  0  0  0  0  0  0
   48.8160   34.2720   41.7010 H   0  0  0  0  0  0  0  0  0  0  0  0
   47.4840   32.6520   41.1490 C   0  0  0  0  0  0  0  0  0  0  0  0
   47.5170   31.5760   41.3320 H   0  0  0  0  0  0  0  0  0  0  0  0
   46.3990   32.9490   41.0970 H   0  0  0  0  0  0  0  0  0  0  0  0
   49.3650   32.3390   37.9090 C   0  0  0  0  0  0  0  0  0  0  0  0
   48.8400   32.0450   39.1820 C   0  0  0  0  0  0  0  0  0  0  0  0
   48.0340   32.9710   39.8050 C   0  0  0  0  0  0  0  0  0  0  0  0
   47.7870   34.1210   39.1560 N   0  0  0  0  0  0  0  0  0  0  0  0
   48.2920   34.3920   37.9430 C   0  0  0  0  0  0  0  0  0  0  0  0
   49.0830   33.5100   37.3070 N   0  0  0  0  0  0  0  0  0  0  0  0
   50.0020   31.5960   37.4270 H   0  0  0  0  0  0  0  0  0  0  0  0
   49.1050   31.0880   39.6090 H   0  0  0  0  0  0  0  0  0  0  0  0
   47.9770   35.3660   37.5930 H   0  0  0  0  0  0  0  0  0  0  0  0
   47.2450   32.5740   44.7270 O   0  0  0  0  0  0  0  0  0  0  0  0
   46.0110   30.4960   43.6210 O   0  0  0  0  0  0  0  0  0  0  0  0
   46.7030   30.9930   44.8950 P   0  0  2  0  0  0  0  0  0  0  0  0
   45.4640   31.0400   46.0740 O   0  0  0  0  0  0  0  0  0  0  0  0
   45.7260   31.6490   46.8040 H   0  0  0  0  0  0  0  0  0  0  0  0
   47.8900   29.9680   45.4340 O   0  0  0  0  0  0  0  0  0  0  0  0
   47.6760   28.7500   46.0630 C   0  0  0  0  0  0  0  0  0  0  0  0
   47.9220   28.4380   47.4530 C   0  0  0  0  0  0  0  0  0  0  0  0
   48.3360   29.3070   48.0710 H   0  0  0  0  0  0  0  0  0  0  0  0
   47.3870   26.6240   47.5150 S   0  0  0  0  0  0  0  0  0  0  0  0
   46.9520   26.6780   45.6670 C   0  0  0  0  0  0  0  0  0  0  0  0
   46.5650   25.7400   45.2460 H   0  0  0  0  0  0  0  0  0  0  0  0
   47.1930   27.7750   45.2980 N   0  0  0  0  0  0  0  0  0  0  0  0
  1  6  1  0  0  0  0
  2  3  1  0  0  0  0
  2  1  1  0  0  0  0
  2  8  1  0  0  0  0
  3 10  1  0  0  0  0
  3  4  1  0  0  0  0
  4 12  1  0  0  0  0
  4  5  1  0  0  0  0
  5 13  1  0  0  0  0
  5 14  1  0  0  0  0
  6 15  1  6  0  0  0
  6 31  1  0  0  0  0
  6  5  1  0  0  0  0
  7  2  1  0  0  0  0
  9  3  1  0  0  0  0
 11  4  1  0  0  0  0
 16 17  1  0  0  0  0
 16  1  1  0  0  0  0
 18 16  1  0  0  0  0
 19 20  1  0  0  0  0
 19 16  1  0  0  0  0
 21 19  1  0  0  0  0
 22 23  1  0  0  0  0
 23 29  1  0  0  0  0
 23 24  2  0  0  0  0
 24 19  1  0  0  0  0
 25 24  1  0  0  0  0
 26 25  2  0  0  0  0
 27 22  2  0  0  0  0
 27 26  1  0  0  0  0
 28 22  1  0  0  0  0
 30 26  1  0  0  0  0
 31 33  1  0  0  0  0
 33 32  2  6  0  0  0
 33 36  1  0  0  0  0
 33 34  1  0  0  0  0
 34 35  1  0  0  0  0
 36 37  1  0  0  0  0
 37 38  2  0  0  0  0
 38 40  1  0  0  0  0
 38 39  1  0  0  0  0
 41 40  1  0  0  0  0
 42 41  1  0  0  0  0
 43 41  2  0  0  0  0
 43 37  1  0  0  0  0
M  END
>  <minimizedAffinity>
-3.81607008

>  <minimizedRMSD>
0.290503651

$$$$
