
 OpenBabel03252506033D

 26 28  0  0  0  0  0  0  0  0999 V2000
   35.4570   28.9020   41.0480 Cl  0  0  0  0  0  0  0  0  0  0  0  0
   36.7900   29.9470   40.6770 C   0  0  0  0  0  0  0  0  0  0  0  0
   38.0790   29.4940   40.7580 C   0  0  0  0  0  0  0  0  0  0  0  0
   39.0480   30.4070   40.4420 C   0  0  0  0  0  0  0  0  0  0  0  0
   38.8460   31.7060   40.0590 C   0  0  0  0  0  0  0  0  0  0  0  0
   37.5290   32.1260   39.9880 C   0  0  0  0  0  0  0  0  0  0  0  0
   37.2870   33.7960   39.4940 Cl  0  0  0  0  0  0  0  0  0  0  0  0
   36.5040   31.2560   40.2930 C   0  0  0  0  0  0  0  0  0  0  0  0
   40.0800   30.0230   40.5140 H   0  0  0  0  0  0  0  0  0  0  0  0
   35.4920   31.6240   40.2260 H   0  0  0  0  0  0  0  0  0  0  0  0
   38.8460   26.6370   42.9000 C   0  0  0  0  0  0  0  0  0  0  0  0
   39.0040   25.5820   42.0060 C   0  0  0  0  0  0  0  0  0  0  0  0
   38.8430   25.8640   40.6430 C   0  0  0  0  0  0  0  0  0  0  0  0
   38.5430   27.1410   40.2690 N   0  0  0  0  0  0  0  0  0  0  0  0
   38.3980   28.1310   41.1480 C   0  0  0  0  0  0  0  0  0  0  0  0
   38.5510   27.8760   42.4820 N   0  0  0  0  0  0  0  0  0  0  0  0
   38.9530   26.5090   43.9750 H   0  0  0  0  0  0  0  0  0  0  0  0
   39.2410   24.5920   42.3640 H   0  0  0  0  0  0  0  0  0  0  0  0
   38.9570   25.0720   39.9100 H   0  0  0  0  0  0  0  0  0  0  0  0
   39.9740   32.6080   39.7380 C   0  0  0  0  0  0  0  0  0  0  0  0
   40.5200   32.6410   38.4460 C   0  0  0  0  0  0  0  0  0  0  0  0
   40.2530   32.0810   37.5480 H   0  0  0  0  0  0  0  0  0  0  0  0
   41.8530   33.8940   38.5990 S   0  0  0  0  0  0  0  0  0  0  0  0
   41.4250   34.1600   40.4320 C   0  0  0  0  0  0  0  0  0  0  0  0
   41.8700   34.8430   41.2250 H   0  0  0  0  0  0  0  0  0  0  0  0
   40.5560   33.4340   40.5880 N   0  0  0  0  0  0  0  0  0  0  0  0
  2  3  1  0  0  0  0
  2  1  1  0  0  0  0
  3 15  1  0  0  0  0
  4  9  1  0  0  0  0
  4  3  2  0  0  0  0
  5  4  1  0  0  0  0
  6  5  2  0  0  0  0
  6  8  1  0  0  0  0
  7  6  1  0  0  0  0
  8  2  2  0  0  0  0
 10  8  1  0  0  0  0
 11 17  1  0  0  0  0
 12 18  1  0  0  0  0
 12 11  2  0  0  0  0
 13 12  1  0  0  0  0
 14 13  2  0  0  0  0
 14 15  1  0  0  0  0
 15 16  2  0  0  0  0
 16 11  1  0  0  0  0
 19 13  1  0  0  0  0
 20  5  1  0  0  0  0
 20 26  1  0  0  0  0
 21 23  1  0  0  0  0
 21 20  2  0  0  0  0
 22 21  1  0  0  0  0
 23 24  1  0  0  0  0
 24 26  2  0  0  0  0
 24 25  1  0  0  0  0
M  END
>  <minimizedAffinity>
-4.70903349

$$$$

 OpenBabel03252506033D

 26 28  0  0  0  0  0  0  0  0999 V2000
   37.3060   33.8400   39.5560 Cl  0  0  0  0  0  0  0  0  0  0  0  0
   37.6420   32.1970   39.9990 C   0  0  0  0  0  0  0  0  0  0  0  0
   38.9280   31.7360   40.0540 C   0  0  0  0  0  0  0  0  0  0  0  0
   39.0720   30.4230   40.4160 C   0  0  0  0  0  0  0  0  0  0  0  0
   38.0620   29.5510   40.7220 C   0  0  0  0  0  0  0  0  0  0  0  0
   36.7750   30.0560   40.6560 C   0  0  0  0  0  0  0  0  0  0  0  0
   35.4910   28.9220   41.0520 Cl  0  0  0  0  0  0  0  0  0  0  0  0
   36.5600   31.3700   40.2980 C   0  0  0  0  0  0  0  0  0  0  0  0
   40.1170   30.0710   40.4530 H   0  0  0  0  0  0  0  0  0  0  0  0
   35.5420   31.7230   40.2570 H   0  0  0  0  0  0  0  0  0  0  0  0
   41.5640   33.3740   38.1280 C   0  0  0  0  0  0  0  0  0  0  0  0
   42.2280   34.1580   39.0670 C   0  0  0  0  0  0  0  0  0  0  0  0
   41.7540   34.1180   40.3870 C   0  0  0  0  0  0  0  0  0  0  0  0
   40.6840   33.3240   40.6760 N   0  0  0  0  0  0  0  0  0  0  0  0
   40.0700   32.5840   39.7540 C   0  0  0  0  0  0  0  0  0  0  0  0
   40.5150   32.6090   38.4630 N   0  0  0  0  0  0  0  0  0  0  0  0
   41.8630   33.3430   37.0820 H   0  0  0  0  0  0  0  0  0  0  0  0
   43.0700   34.7660   38.7770 H   0  0  0  0  0  0  0  0  0  0  0  0
   42.2410   34.7130   41.1530 H   0  0  0  0  0  0  0  0  0  0  0  0
   38.3340   28.1470   41.1030 C   0  0  0  0  0  0  0  0  0  0  0  0
   38.4840   27.1550   40.1210 C   0  0  0  0  0  0  0  0  0  0  0  0
   38.4340   27.2200   39.0330 H   0  0  0  0  0  0  0  0  0  0  0  0
   38.7980   25.6430   41.1150 S   0  0  0  0  0  0  0  0  0  0  0  0
   38.6680   26.6460   42.7250 C   0  0  0  0  0  0  0  0  0  0  0  0
   38.7620   26.3460   43.8180 H   0  0  0  0  0  0  0  0  0  0  0  0
   38.4600   27.7020   42.3390 N   0  0  0  0  0  0  0  0  0  0  0  0
  1  2  1  0  0  0  0
  2  3  2  0  0  0  0
  2  8  1  0  0  0  0
  3  4  1  0  0  0  0
  4  9  1  0  0  0  0
  4  5  2  0  0  0  0
  5 20  1  0  0  0  0
  6  5  1  0  0  0  0
  6  7  1  0  0  0  0
  8  6  2  0  0  0  0
 10  8  1  0  0  0  0
 11 16  2  0  0  0  0
 11 12  1  0  0  0  0
 12 13  2  0  0  0  0
 13 14  1  0  0  0  0
 13 19  1  0  0  0  0
 15  3  1  0  0  0  0
 15 14  2  0  0  0  0
 16 15  1  0  0  0  0
 17 11  1  0  0  0  0
 18 12  1  0  0  0  0
 20 26  1  0  0  0  0
 21 20  2  0  0  0  0
 21 23  1  0  0  0  0
 22 21  1  0  0  0  0
 23 24  1  0  0  0  0
 24 25  1  0  0  0  0
 26 24  2  0  0  0  0
M  END
>  <minimizedAffinity>
-4.6486187

$$$$

 OpenBabel03252506033D

 26 28  0  0  0  0  0  0  0  0999 V2000
   37.6640   32.0560   36.4740 Cl  0  0  0  0  0  0  0  0  0  0  0  0
   37.7820   31.1160   37.9270 C   0  0  0  0  0  0  0  0  0  0  0  0
   38.9660   31.0220   38.6060 C   0  0  0  0  0  0  0  0  0  0  0  0
   38.9410   30.2540   39.7380 C   0  0  0  0  0  0  0  0  0  0  0  0
   37.8560   29.5860   40.2410 C   0  0  0  0  0  0  0  0  0  0  0  0
   36.6780   29.7060   39.5260 C   0  0  0  0  0  0  0  0  0  0  0  0
   35.2950   28.8410   40.1860 Cl  0  0  0  0  0  0  0  0  0  0  0  0
   36.6340   30.4650   38.3760 C   0  0  0  0  0  0  0  0  0  0  0  0
   39.9050   30.1910   40.2700 H   0  0  0  0  0  0  0  0  0  0  0  0
   35.6960   30.5310   37.8490 H   0  0  0  0  0  0  0  0  0  0  0  0
   41.4890   33.6390   38.2420 C   0  0  0  0  0  0  0  0  0  0  0  0
   42.4260   33.0820   37.3770 C   0  0  0  0  0  0  0  0  0  0  0  0
   42.1810   31.7820   36.9130 C   0  0  0  0  0  0  0  0  0  0  0  0
   41.0510   31.1400   37.3280 N   0  0  0  0  0  0  0  0  0  0  0  0
   40.1720   31.7000   38.1580 C   0  0  0  0  0  0  0  0  0  0  0  0
   40.3930   32.9660   38.6220 N   0  0  0  0  0  0  0  0  0  0  0  0
   41.5990   34.6410   38.6510 H   0  0  0  0  0  0  0  0  0  0  0  0
   43.3020   33.6410   37.0850 H   0  0  0  0  0  0  0  0  0  0  0  0
   42.8840   31.3080   36.2370 H   0  0  0  0  0  0  0  0  0  0  0  0
   37.9430   28.7810   41.4800 C   0  0  0  0  0  0  0  0  0  0  0  0
   38.4810   27.4850   41.4550 C   0  0  0  0  0  0  0  0  0  0  0  0
   38.8840   26.8990   40.6280 H   0  0  0  0  0  0  0  0  0  0  0  0
   38.3530   26.9580   43.2100 S   0  0  0  0  0  0  0  0  0  0  0  0
   37.5740   28.6290   43.6790 C   0  0  0  0  0  0  0  0  0  0  0  0
   37.2090   29.0450   44.6720 H   0  0  0  0  0  0  0  0  0  0  0  0
   37.5470   29.1760   42.6750 N   0  0  0  0  0  0  0  0  0  0  0  0
  1  2  1  0  0  0  0
  2  8  2  0  0  0  0
  2  3  1  0  0  0  0
  3  4  2  0  0  0  0
  4  5  1  0  0  0  0
  4  9  1  0  0  0  0
  5 20  1  0  0  0  0
  6  7  1  0  0  0  0
  6  5  2  0  0  0  0
  8  6  1  0  0  0  0
 10  8  1  0  0  0  0
 11 16  1  0  0  0  0
 11 17  1  0  0  0  0
 12 11  2  0  0  0  0
 13 14  2  0  0  0  0
 13 12  1  0  0  0  0
 14 15  1  0  0  0  0
 15  3  1  0  0  0  0
 15 16  2  0  0  0  0
 18 12  1  0  0  0  0
 19 13  1  0  0  0  0
 20 26  1  0  0  0  0
 21 20  2  0  0  0  0
 21 23  1  0  0  0  0
 22 21  1  0  0  0  0
 23 24  1  0  0  0  0
 24 25  1  0  0  0  0
 26 24  2  0  0  0  0
M  END
>  <minimizedAffinity>
-4.5858531

$$$$

 OpenBabel03252506033D

 26 28  0  0  0  0  0  0  0  0999 V2000
   40.0070   31.0080   42.8250 Cl  0  0  0  0  0  0  0  0  0  0  0  0
   39.4710   29.4330   42.3350 C   0  0  0  0  0  0  0  0  0  0  0  0
   38.7030   29.2720   41.2140 C   0  0  0  0  0  0  0  0  0  0  0  0
   38.3400   27.9850   40.9240 C   0  0  0  0  0  0  0  0  0  0  0  0
   38.6710   26.8670   41.6430 C   0  0  0  0  0  0  0  0  0  0  0  0
   39.4480   27.0710   42.7690 C   0  0  0  0  0  0  0  0  0  0  0  0
   39.8640   25.6250   43.6800 Cl  0  0  0  0  0  0  0  0  0  0  0  0
   39.8490   28.3430   43.1180 C   0  0  0  0  0  0  0  0  0  0  0  0
   37.7210   27.8770   40.0170 H   0  0  0  0  0  0  0  0  0  0  0  0
   40.4540   28.4580   44.0030 H   0  0  0  0  0  0  0  0  0  0  0  0
   38.6720   31.6130   38.4090 C   0  0  0  0  0  0  0  0  0  0  0  0
   37.6370   32.4920   38.7180 C   0  0  0  0  0  0  0  0  0  0  0  0
   36.9410   32.2690   39.9150 C   0  0  0  0  0  0  0  0  0  0  0  0
   37.3090   31.2190   40.7020 N   0  0  0  0  0  0  0  0  0  0  0  0
   38.3050   30.3950   40.3800 C   0  0  0  0  0  0  0  0  0  0  0  0
   38.9960   30.5940   39.2180 N   0  0  0  0  0  0  0  0  0  0  0  0
   39.2650   31.7100   37.5030 H   0  0  0  0  0  0  0  0  0  0  0  0
   37.3930   33.3050   38.0530 H   0  0  0  0  0  0  0  0  0  0  0  0
   36.1270   32.9290   40.1960 H   0  0  0  0  0  0  0  0  0  0  0  0
   38.2210   25.5180   41.2350 C   0  0  0  0  0  0  0  0  0  0  0  0
   39.1010   24.6330   40.5930 C   0  0  0  0  0  0  0  0  0  0  0  0
   40.1470   24.7550   40.3080 H   0  0  0  0  0  0  0  0  0  0  0  0
   38.0560   23.1480   40.3180 S   0  0  0  0  0  0  0  0  0  0  0  0
   36.5740   24.0090   41.1420 C   0  0  0  0  0  0  0  0  0  0  0  0
   35.5090   23.6630   41.3420 H   0  0  0  0  0  0  0  0  0  0  0  0
   37.0090   25.0290   41.4210 N   0  0  0  0  0  0  0  0  0  0  0  0
  2  1  1  0  0  0  0
  2  8  1  0  0  0  0
  3  2  2  0  0  0  0
  4  3  1  0  0  0  0
  4  5  2  0  0  0  0
  5  6  1  0  0  0  0
  6  8  2  0  0  0  0
  6  7  1  0  0  0  0
  8 10  1  0  0  0  0
  9  4  1  0  0  0  0
 11 12  2  0  0  0  0
 11 16  1  0  0  0  0
 12 13  1  0  0  0  0
 13 19  1  0  0  0  0
 13 14  2  0  0  0  0
 15 14  1  0  0  0  0
 15  3  1  0  0  0  0
 16 15  2  0  0  0  0
 17 11  1  0  0  0  0
 18 12  1  0  0  0  0
 20 26  1  0  0  0  0
 20  5  1  0  0  0  0
 21 20  2  0  0  0  0
 22 21  1  0  0  0  0
 23 21  1  0  0  0  0
 23 24  1  0  0  0  0
 24 25  1  0  0  0  0
 24 26  2  0  0  0  0
M  END
>  <minimizedAffinity>
-4.54255772

$$$$

 OpenBabel03252506033D

 26 28  0  0  0  0  0  0  0  0999 V2000
   39.8850   25.7690   43.6800 Cl  0  0  0  0  0  0  0  0  0  0  0  0
   39.4430   27.1170   42.6820 C   0  0  0  0  0  0  0  0  0  0  0  0
   38.7270   26.9310   41.5310 C   0  0  0  0  0  0  0  0  0  0  0  0
   38.4360   28.0670   40.8240 C   0  0  0  0  0  0  0  0  0  0  0  0
   38.7910   29.3460   41.1610 C   0  0  0  0  0  0  0  0  0  0  0  0
   39.5140   29.4920   42.3320 C   0  0  0  0  0  0  0  0  0  0  0  0
   39.9610   31.1400   42.7500 Cl  0  0  0  0  0  0  0  0  0  0  0  0
   39.8410   28.3880   43.0910 C   0  0  0  0  0  0  0  0  0  0  0  0
   37.8590   27.8950   39.8990 H   0  0  0  0  0  0  0  0  0  0  0  0
   40.4060   28.5460   43.9960 H   0  0  0  0  0  0  0  0  0  0  0  0
   36.5740   24.0240   41.0260 C   0  0  0  0  0  0  0  0  0  0  0  0
   37.3700   23.1380   40.3050 C   0  0  0  0  0  0  0  0  0  0  0  0
   38.6710   23.5550   39.9900 C   0  0  0  0  0  0  0  0  0  0  0  0
   39.0830   24.7890   40.4000 N   0  0  0  0  0  0  0  0  0  0  0  0
   38.2960   25.6140   41.0890 C   0  0  0  0  0  0  0  0  0  0  0  0
   37.0250   25.2270   41.4070 N   0  0  0  0  0  0  0  0  0  0  0  0
   35.5530   23.7840   41.3140 H   0  0  0  0  0  0  0  0  0  0  0  0
   36.9870   22.1740   40.0090 H   0  0  0  0  0  0  0  0  0  0  0  0
   39.3270   22.8980   39.4290 H   0  0  0  0  0  0  0  0  0  0  0  0
   38.4210   30.5040   40.3190 C   0  0  0  0  0  0  0  0  0  0  0  0
   37.2320   31.2120   40.5570 C   0  0  0  0  0  0  0  0  0  0  0  0
   36.4560   31.0620   41.3090 H   0  0  0  0  0  0  0  0  0  0  0  0
   37.2650   32.5110   39.2610 S   0  0  0  0  0  0  0  0  0  0  0  0
   38.9250   31.8510   38.6080 C   0  0  0  0  0  0  0  0  0  0  0  0
   39.5950   32.1900   37.7540 H   0  0  0  0  0  0  0  0  0  0  0  0
   39.1300   30.9710   39.3090 N   0  0  0  0  0  0  0  0  0  0  0  0
  2  8  1  0  0  0  0
  2  1  1  0  0  0  0
  3  2  2  0  0  0  0
  4  5  2  0  0  0  0
  4  3  1  0  0  0  0
  5  6  1  0  0  0  0
  6  7  1  0  0  0  0
  6  8  2  0  0  0  0
  8 10  1  0  0  0  0
  9  4  1  0  0  0  0
 11 17  1  0  0  0  0
 11 16  1  0  0  0  0
 12 11  2  0  0  0  0
 13 12  1  0  0  0  0
 13 14  2  0  0  0  0
 14 15  1  0  0  0  0
 15 16  2  0  0  0  0
 15  3  1  0  0  0  0
 18 12  1  0  0  0  0
 19 13  1  0  0  0  0
 20 21  2  0  0  0  0
 20  5  1  0  0  0  0
 21 22  1  0  0  0  0
 23 21  1  0  0  0  0
 24 23  1  0  0  0  0
 24 26  2  0  0  0  0
 25 24  1  0  0  0  0
 26 20  1  0  0  0  0
M  END
>  <minimizedAffinity>
-4.52133322

$$$$

 OpenBabel03252506033D

 26 28  0  0  0  0  0  0  0  0999 V2000
   35.2350   27.8950   38.5190 Cl  0  0  0  0  0  0  0  0  0  0  0  0
   36.4690   29.1080   38.6310 C   0  0  0  0  0  0  0  0  0  0  0  0
   37.3370   29.1280   39.6880 C   0  0  0  0  0  0  0  0  0  0  0  0
   38.2690   30.1310   39.6710 C   0  0  0  0  0  0  0  0  0  0  0  0
   38.4060   31.0950   38.7070 C   0  0  0  0  0  0  0  0  0  0  0  0
   37.5100   31.0400   37.6550 C   0  0  0  0  0  0  0  0  0  0  0  0
   37.7000   32.2850   36.4270 Cl  0  0  0  0  0  0  0  0  0  0  0  0
   36.5460   30.0560   37.6110 C   0  0  0  0  0  0  0  0  0  0  0  0
   38.9590   30.1300   40.5320 H   0  0  0  0  0  0  0  0  0  0  0  0
   35.8660   30.0500   36.7730 H   0  0  0  0  0  0  0  0  0  0  0  0
   37.9140   26.0180   41.5150 C   0  0  0  0  0  0  0  0  0  0  0  0
   37.2380   26.2060   42.7170 C   0  0  0  0  0  0  0  0  0  0  0  0
   36.5740   27.4270   42.8970 C   0  0  0  0  0  0  0  0  0  0  0  0
   36.6230   28.3540   41.8980 N   0  0  0  0  0  0  0  0  0  0  0  0
   37.2790   28.1450   40.7580 C   0  0  0  0  0  0  0  0  0  0  0  0
   37.9340   26.9620   40.5630 N   0  0  0  0  0  0  0  0  0  0  0  0
   38.4570   25.1030   41.2900 H   0  0  0  0  0  0  0  0  0  0  0  0
   37.2360   25.4330   43.4700 H   0  0  0  0  0  0  0  0  0  0  0  0
   36.0330   27.6170   43.8190 H   0  0  0  0  0  0  0  0  0  0  0  0
   39.4550   32.1350   38.7910 C   0  0  0  0  0  0  0  0  0  0  0  0
   40.6240   32.0360   38.0200 C   0  0  0  0  0  0  0  0  0  0  0  0
   40.9420   31.2740   37.3080 H   0  0  0  0  0  0  0  0  0  0  0  0
   41.5550   33.5460   38.4980 S   0  0  0  0  0  0  0  0  0  0  0  0
   40.1610   34.0580   39.6860 C   0  0  0  0  0  0  0  0  0  0  0  0
   40.0400   34.9550   40.3730 H   0  0  0  0  0  0  0  0  0  0  0  0
   39.4060   33.2090   39.5560 N   0  0  0  0  0  0  0  0  0  0  0  0
  1  2  1  0  0  0  0
  2  3  1  0  0  0  0
  3 15  1  0  0  0  0
  4  3  2  0  0  0  0
  4  9  1  0  0  0  0
  5 20  1  0  0  0  0
  5  4  1  0  0  0  0
  6  5  2  0  0  0  0
  7  6  1  0  0  0  0
  8  6  1  0  0  0  0
  8  2  2  0  0  0  0
 10  8  1  0  0  0  0
 11 12  1  0  0  0  0
 12 13  2  0  0  0  0
 12 18  1  0  0  0  0
 13 19  1  0  0  0  0
 14 13  1  0  0  0  0
 15 14  2  0  0  0  0
 16 15  1  0  0  0  0
 16 11  2  0  0  0  0
 17 11  1  0  0  0  0
 20 26  1  0  0  0  0
 21 23  1  0  0  0  0
 21 20  2  0  0  0  0
 22 21  1  0  0  0  0
 23 24  1  0  0  0  0
 24 25  1  0  0  0  0
 26 24  2  0  0  0  0
M  END
>  <minimizedAffinity>
-4.4203968

$$$$

 OpenBabel03252506033D

 26 28  0  0  0  0  0  0  0  0999 V2000
   37.6970   28.8990   43.6720 Cl  0  0  0  0  0  0  0  0  0  0  0  0
   37.4500   27.9630   42.2330 C   0  0  0  0  0  0  0  0  0  0  0  0
   37.5190   28.5460   40.9970 C   0  0  0  0  0  0  0  0  0  0  0  0
   37.3080   27.7090   39.9350 C   0  0  0  0  0  0  0  0  0  0  0  0
   37.0400   26.3680   39.9990 C   0  0  0  0  0  0  0  0  0  0  0  0
   36.9790   25.8160   41.2660 C   0  0  0  0  0  0  0  0  0  0  0  0
   36.6340   24.0920   41.3290 Cl  0  0  0  0  0  0  0  0  0  0  0  0
   37.1820   26.6020   42.3790 C   0  0  0  0  0  0  0  0  0  0  0  0
   37.3670   28.2000   38.9480 H   0  0  0  0  0  0  0  0  0  0  0  0
   37.1250   26.1320   43.3480 H   0  0  0  0  0  0  0  0  0  0  0  0
   39.4200   31.6620   40.8470 C   0  0  0  0  0  0  0  0  0  0  0  0
   38.4660   32.6200   40.5180 C   0  0  0  0  0  0  0  0  0  0  0  0
   37.1460   32.1800   40.3460 C   0  0  0  0  0  0  0  0  0  0  0  0
   36.8700   30.8550   40.5080 N   0  0  0  0  0  0  0  0  0  0  0  0
   37.8050   29.9610   40.8230 C   0  0  0  0  0  0  0  0  0  0  0  0
   39.0980   30.3690   40.9950 N   0  0  0  0  0  0  0  0  0  0  0  0
   40.4670   31.9130   40.9980 H   0  0  0  0  0  0  0  0  0  0  0  0
   38.7470   33.6550   40.4030 H   0  0  0  0  0  0  0  0  0  0  0  0
   36.3690   32.8930   40.0890 H   0  0  0  0  0  0  0  0  0  0  0  0
   36.8280   25.5580   38.7790 C   0  0  0  0  0  0  0  0  0  0  0  0
   37.9200   25.0340   38.0690 C   0  0  0  0  0  0  0  0  0  0  0  0
   38.9920   25.1150   38.2550 H   0  0  0  0  0  0  0  0  0  0  0  0
   37.1120   24.1390   36.6840 S   0  0  0  0  0  0  0  0  0  0  0  0
   35.3950   24.6430   37.3270 C   0  0  0  0  0  0  0  0  0  0  0  0
   34.3470   24.4290   36.9440 H   0  0  0  0  0  0  0  0  0  0  0  0
   35.6540   25.2560   38.2570 N   0  0  0  0  0  0  0  0  0  0  0  0
  2  8  1  0  0  0  0
  2  1  1  0  0  0  0
  3  2  2  0  0  0  0
  4  5  2  0  0  0  0
  4  3  1  0  0  0  0
  5  6  1  0  0  0  0
  6  7  1  0  0  0  0
  6  8  2  0  0  0  0
  8 10  1  0  0  0  0
  9  4  1  0  0  0  0
 11 16  1  0  0  0  0
 11 17  1  0  0  0  0
 12 11  2  0  0  0  0
 13 14  2  0  0  0  0
 13 12  1  0  0  0  0
 14 15  1  0  0  0  0
 15 16  2  0  0  0  0
 15  3  1  0  0  0  0
 18 12  1  0  0  0  0
 19 13  1  0  0  0  0
 20  5  1  0  0  0  0
 21 22  1  0  0  0  0
 21 20  2  0  0  0  0
 23 24  1  0  0  0  0
 23 21  1  0  0  0  0
 24 26  2  0  0  0  0
 25 24  1  0  0  0  0
 26 20  1  0  0  0  0
M  END
>  <minimizedAffinity>
-4.3905282

$$$$

 OpenBabel03252506033D

 26 28  0  0  0  0  0  0  0  0999 V2000
   37.4460   28.2180   43.6770 Cl  0  0  0  0  0  0  0  0  0  0  0  0
   37.0850   27.8970   42.0110 C   0  0  0  0  0  0  0  0  0  0  0  0
   37.8330   27.0040   41.2920 C   0  0  0  0  0  0  0  0  0  0  0  0
   37.4560   26.8310   39.9870 C   0  0  0  0  0  0  0  0  0  0  0  0
   36.4190   27.4600   39.3520 C   0  0  0  0  0  0  0  0  0  0  0  0
   35.6870   28.3550   40.1120 C   0  0  0  0  0  0  0  0  0  0  0  0
   34.3590   29.1530   39.2810 Cl  0  0  0  0  0  0  0  0  0  0  0  0
   36.0130   28.5760   41.4330 C   0  0  0  0  0  0  0  0  0  0  0  0
   38.0720   26.1080   39.4260 H   0  0  0  0  0  0  0  0  0  0  0  0
   35.4180   29.2820   41.9900 H   0  0  0  0  0  0  0  0  0  0  0  0
   41.2560   26.2240   42.3000 C   0  0  0  0  0  0  0  0  0  0  0  0
   41.1420   24.9980   42.9500 C   0  0  0  0  0  0  0  0  0  0  0  0
   39.8620   24.4350   43.0400 C   0  0  0  0  0  0  0  0  0  0  0  0
   38.8090   25.1070   42.4940 N   0  0  0  0  0  0  0  0  0  0  0  0
   38.9500   26.2800   41.8770 C   0  0  0  0  0  0  0  0  0  0  0  0
   40.1890   26.8460   41.7790 N   0  0  0  0  0  0  0  0  0  0  0  0
   42.2100   26.7340   42.1850 H   0  0  0  0  0  0  0  0  0  0  0  0
   42.0140   24.5150   43.3630 H   0  0  0  0  0  0  0  0  0  0  0  0
   39.7260   23.4800   43.5380 H   0  0  0  0  0  0  0  0  0  0  0  0
   36.1010   27.1950   37.9320 C   0  0  0  0  0  0  0  0  0  0  0  0
   35.2210   26.1600   37.5760 C   0  0  0  0  0  0  0  0  0  0  0  0
   34.6770   25.4470   38.1960 H   0  0  0  0  0  0  0  0  0  0  0  0
   35.1850   26.2700   35.7430 S   0  0  0  0  0  0  0  0  0  0  0  0
   36.3970   27.7340   35.7830 C   0  0  0  0  0  0  0  0  0  0  0  0
   36.8570   28.3620   34.9540 H   0  0  0  0  0  0  0  0  0  0  0  0
   36.5840   27.8660   36.9030 N   0  0  0  0  0  0  0  0  0  0  0  0
  2  1  1  0  0  0  0
  3 15  1  0  0  0  0
  3  2  2  0  0  0  0
  4  3  1  0  0  0  0
  5  4  2  0  0  0  0
  5  6  1  0  0  0  0
  6  8  2  0  0  0  0
  7  6  1  0  0  0  0
  8 10  1  0  0  0  0
  8  2  1  0  0  0  0
  9  4  1  0  0  0  0
 11 12  1  0  0  0  0
 12 13  2  0  0  0  0
 12 18  1  0  0  0  0
 13 19  1  0  0  0  0
 14 13  1  0  0  0  0
 15 14  2  0  0  0  0
 16 15  1  0  0  0  0
 16 11  2  0  0  0  0
 17 11  1  0  0  0  0
 20  5  1  0  0  0  0
 21 20  2  0  0  0  0
 21 22  1  0  0  0  0
 23 24  1  0  0  0  0
 23 21  1  0  0  0  0
 24 26  2  0  0  0  0
 25 24  1  0  0  0  0
 26 20  1  0  0  0  0
M  END
>  <minimizedAffinity>
-4.37217712

$$$$

 OpenBabel03252506033D

 26 28  0  0  0  0  0  0  0  0999 V2000
   39.8660   34.1610   39.6210 Cl  0  0  0  0  0  0  0  0  0  0  0  0
   39.3780   32.6370   40.2900 C   0  0  0  0  0  0  0  0  0  0  0  0
   40.3070   31.7440   40.7490 C   0  0  0  0  0  0  0  0  0  0  0  0
   39.8060   30.5750   41.2550 C   0  0  0  0  0  0  0  0  0  0  0  0
   38.4840   30.2290   41.3400 C   0  0  0  0  0  0  0  0  0  0  0  0
   37.5760   31.1580   40.8660 C   0  0  0  0  0  0  0  0  0  0  0  0
   35.8830   30.6970   40.9830 Cl  0  0  0  0  0  0  0  0  0  0  0  0
   38.0140   32.3560   40.3430 C   0  0  0  0  0  0  0  0  0  0  0  0
   40.5720   29.8690   41.6200 H   0  0  0  0  0  0  0  0  0  0  0  0
   37.2720   33.0520   39.9830 H   0  0  0  0  0  0  0  0  0  0  0  0
   43.5880   32.9680   41.7910 C   0  0  0  0  0  0  0  0  0  0  0  0
   44.4290   32.6010   40.7450 C   0  0  0  0  0  0  0  0  0  0  0  0
   43.8520   31.9200   39.6640 C   0  0  0  0  0  0  0  0  0  0  0  0
   42.5140   31.6570   39.6930 N   0  0  0  0  0  0  0  0  0  0  0  0
   41.7340   32.0210   40.7100 C   0  0  0  0  0  0  0  0  0  0  0  0
   42.2770   32.6850   41.7730 N   0  0  0  0  0  0  0  0  0  0  0  0
   43.9500   33.4980   42.6690 H   0  0  0  0  0  0  0  0  0  0  0  0
   45.4810   32.8380   40.7800 H   0  0  0  0  0  0  0  0  0  0  0  0
   44.4700   31.6150   38.8260 H   0  0  0  0  0  0  0  0  0  0  0  0
   38.0550   28.9320   41.9090 C   0  0  0  0  0  0  0  0  0  0  0  0
   38.0350   27.7740   41.1170 C   0  0  0  0  0  0  0  0  0  0  0  0
   38.2970   27.6270   40.0680 H   0  0  0  0  0  0  0  0  0  0  0  0
   37.4400   26.4900   42.2870 S   0  0  0  0  0  0  0  0  0  0  0  0
   37.3200   27.7810   43.6790 C   0  0  0  0  0  0  0  0  0  0  0  0
   36.9990   27.6980   44.7670 H   0  0  0  0  0  0  0  0  0  0  0  0
   37.6660   28.7370   43.1550 N   0  0  0  0  0  0  0  0  0  0  0  0
  1  2  1  0  0  0  0
  2  8  2  0  0  0  0
  2  3  1  0  0  0  0
  3  4  2  0  0  0  0
  4  5  1  0  0  0  0
  4  9  1  0  0  0  0
  5 20  1  0  0  0  0
  6  7  1  0  0  0  0
  6  5  2  0  0  0  0
  8  6  1  0  0  0  0
 10  8  1  0  0  0  0
 11 17  1  0  0  0  0
 12 18  1  0  0  0  0
 12 11  2  0  0  0  0
 13 14  2  0  0  0  0
 13 12  1  0  0  0  0
 14 15  1  0  0  0  0
 15  3  1  0  0  0  0
 15 16  2  0  0  0  0
 16 11  1  0  0  0  0
 19 13  1  0  0  0  0
 20 26  1  0  0  0  0
 21 20  2  0  0  0  0
 21 23  1  0  0  0  0
 22 21  1  0  0  0  0
 23 24  1  0  0  0  0
 24 25  1  0  0  0  0
 26 24  2  0  0  0  0
M  END
>  <minimizedAffinity>
-4.25645018

$$$$
