
 OpenBabel03252509263D

 28 30  0  0  1  0  0  0  0  0999 V2000
   46.5590   35.0800   41.9470 C   0  0  1  0  0  0  0  0  0  0  0  0
   48.1020   35.2930   41.9460 C   0  0  0  0  0  0  0  0  0  0  0  0
   47.3250   34.0900   41.3130 C   0  0  2  0  0  0  0  0  0  0  0  0
   46.0110   35.8680   41.3910 H   0  0  0  0  0  0  0  0  0  0  0  0
   48.6600   35.1070   42.8620 H   0  0  0  0  0  0  0  0  0  0  0  0
   48.4570   35.9970   41.1850 H   0  0  0  0  0  0  0  0  0  0  0  0
   47.5990   33.1160   41.8260 H   0  0  0  0  0  0  0  0  0  0  0  0
   44.6580   35.3870   45.1710 C   0  0  0  0  0  0  0  0  0  0  0  0
   45.1190   35.7100   43.8530 C   0  0  0  0  0  0  0  0  0  0  0  0
   46.0590   34.8690   43.3560 C   0  0  0  0  0  0  0  0  0  0  0  0
   46.5320   33.7900   44.0690 N   0  0  0  0  0  0  0  0  0  0  0  0
   46.0750   33.5210   45.3040 C   0  0  0  0  0  0  0  0  0  0  0  0
   45.1340   34.3220   45.8550 N   0  0  0  0  0  0  0  0  0  0  0  0
   43.8990   36.0760   45.5560 H   0  0  0  0  0  0  0  0  0  0  0  0
   46.4630   32.6700   45.8400 H   0  0  0  0  0  0  0  0  0  0  0  0
   44.6540   36.8310   43.1450 N   0  0  0  0  0  0  0  0  0  0  0  0
   45.4080   37.5160   43.4290 H   0  0  0  0  0  0  0  0  0  0  0  0
   43.8300   36.9840   42.5220 H   0  0  0  0  0  0  0  0  0  0  0  0
   47.3790   33.9480   39.8130 C   0  0  0  0  0  0  0  0  0  0  0  0
   48.4210   33.7540   39.4850 H   0  0  0  0  0  0  0  0  0  0  0  0
   47.1280   34.9440   39.3970 H   0  0  0  0  0  0  0  0  0  0  0  0
   46.4680   32.8630   39.3260 C   0  0  0  0  0  0  0  0  0  0  0  0
   45.1120   33.0810   39.0960 C   0  0  0  0  0  0  0  0  0  0  0  0
   44.6020   34.0660   39.2530 H   0  0  0  0  0  0  0  0  0  0  0  0
   44.5290   31.4180   38.5250 S   0  0  0  0  0  0  0  0  0  0  0  0
   46.2720   30.7220   38.7090 C   0  0  0  0  0  0  0  0  0  0  0  0
   46.5630   29.6850   38.4920 H   0  0  0  0  0  0  0  0  0  0  0  0
   46.8810   31.6250   39.0820 N   0  0  0  0  0  0  0  0  0  0  0  0
  1  4  1  6  0  0  0
  1 10  1  0  0  0  0
  2  1  1  0  0  0  0
  2  5  1  0  0  0  0
  3  7  1  1  0  0  0
  3  2  1  0  0  0  0
  3  1  1  0  0  0  0
  6  2  1  0  0  0  0
  8 14  1  0  0  0  0
  8 13  1  0  0  0  0
  9  8  2  0  0  0  0
 10  9  1  0  0  0  0
 10 11  2  0  0  0  0
 11 12  1  0  0  0  0
 12 15  1  0  0  0  0
 12 13  2  0  0  0  0
 16 17  1  0  0  0  0
 16  9  1  0  0  0  0
 18 16  1  0  0  0  0
 19  3  1  0  0  0  0
 20 19  1  0  0  0  0
 21 19  1  0  0  0  0
 22 19  1  0  0  0  0
 23 24  1  0  0  0  0
 23 22  2  0  0  0  0
 25 26  1  0  0  0  0
 25 23  1  0  0  0  0
 26 28  2  0  0  0  0
 27 26  1  0  0  0  0
 28 22  1  0  0  0  0
M  END
>  <minimizedAffinity>
-4.37093019

>  <minimizedRMSD>
0.97642225

$$$$
