
 OpenBabel03252509263D

 28 30  0  0  1  0  0  0  0  0999 V2000
   46.7300   35.1470   42.0620 C   0  0  1  0  0  0  0  0  0  0  0  0
   48.2750   34.9660   42.1410 C   0  0  0  0  0  0  0  0  0  0  0  0
   47.2660   34.0550   41.3640 C   0  0  2  0  0  0  0  0  0  0  0  0
   46.4290   36.0920   41.5660 H   0  0  0  0  0  0  0  0  0  0  0  0
   48.7130   34.5680   43.0550 H   0  0  0  0  0  0  0  0  0  0  0  0
   48.8390   35.6200   41.4660 H   0  0  0  0  0  0  0  0  0  0  0  0
   47.2590   33.0040   41.7900 H   0  0  0  0  0  0  0  0  0  0  0  0
   44.5610   35.4910   45.1080 C   0  0  0  0  0  0  0  0  0  0  0  0
   45.1360   35.8010   43.8330 C   0  0  0  0  0  0  0  0  0  0  0  0
   46.1090   34.9500   43.4240 C   0  0  0  0  0  0  0  0  0  0  0  0
   46.5090   33.8720   44.1820 N   0  0  0  0  0  0  0  0  0  0  0  0
   45.9450   33.6150   45.3740 C   0  0  0  0  0  0  0  0  0  0  0  0
   44.9670   34.4270   45.8370 N   0  0  0  0  0  0  0  0  0  0  0  0
   43.7770   36.1880   45.4220 H   0  0  0  0  0  0  0  0  0  0  0  0
   46.2780   32.7640   45.9460 H   0  0  0  0  0  0  0  0  0  0  0  0
   44.7440   36.9210   43.0810 N   0  0  0  0  0  0  0  0  0  0  0  0
   45.4760   37.6020   43.4250 H   0  0  0  0  0  0  0  0  0  0  0  0
   43.9780   37.0770   42.3880 H   0  0  0  0  0  0  0  0  0  0  0  0
   47.3750   34.0320   39.8610 C   0  0  0  0  0  0  0  0  0  0  0  0
   48.3440   33.5870   39.5550 H   0  0  0  0  0  0  0  0  0  0  0  0
   47.4290   35.0900   39.5370 H   0  0  0  0  0  0  0  0  0  0  0  0
   46.2370   33.2840   39.2350 C   0  0  0  0  0  0  0  0  0  0  0  0
   46.2810   32.8380   37.9160 C   0  0  0  0  0  0  0  0  0  0  0  0
   47.1500   32.9970   37.2300 H   0  0  0  0  0  0  0  0  0  0  0  0
   44.6350   32.0080   37.7200 S   0  0  0  0  0  0  0  0  0  0  0  0
   44.1870   32.4310   39.5010 C   0  0  0  0  0  0  0  0  0  0  0  0
   43.2410   32.1670   39.9930 H   0  0  0  0  0  0  0  0  0  0  0  0
   45.1160   32.9950   39.8830 N   0  0  0  0  0  0  0  0  0  0  0  0
  1  4  1  6  0  0  0
  1  2  1  0  0  0  0
  1 10  1  0  0  0  0
  2  5  1  0  0  0  0
  3  7  1  1  0  0  0
  3  1  1  0  0  0  0
  3  2  1  0  0  0  0
  6  2  1  0  0  0  0
  8 14  1  0  0  0  0
  8 13  1  0  0  0  0
  9  8  2  0  0  0  0
 10  9  1  0  0  0  0
 10 11  2  0  0  0  0
 11 12  1  0  0  0  0
 12 13  2  0  0  0  0
 12 15  1  0  0  0  0
 16 17  1  0  0  0  0
 16  9  1  0  0  0  0
 18 16  1  0  0  0  0
 19  3  1  0  0  0  0
 20 19  1  0  0  0  0
 21 19  1  0  0  0  0
 22 19  1  0  0  0  0
 22 28  1  0  0  0  0
 23 22  2  0  0  0  0
 24 23  1  0  0  0  0
 25 23  1  0  0  0  0
 25 26  1  0  0  0  0
 26 28  2  0  0  0  0
 26 27  1  0  0  0  0
M  END
>  <minimizedAffinity>
-4.47208738

>  <minimizedRMSD>
0.56748426

$$$$
