
 OpenBabel03252509233D

 25 27  0  0  1  0  0  0  0  0999 V2000
   46.4470   34.7940   42.0290 C   0  0  1  0  0  0  0  0  0  0  0  0
   47.9320   35.2400   42.0020 C   0  0  0  0  0  0  0  0  0  0  0  0
   47.3930   33.8240   41.6150 C   0  0  2  0  0  0  0  0  0  0  0  0
   45.8150   35.3750   41.3300 H   0  0  0  0  0  0  0  0  0  0  0  0
   48.2580   35.8490   41.1300 H   0  0  0  0  0  0  0  0  0  0  0  0
   48.4930   35.3080   42.9270 H   0  0  0  0  0  0  0  0  0  0  0  0
   47.6920   33.0040   42.3190 H   0  0  0  0  0  0  0  0  0  0  0  0
   44.5320   35.6010   45.1550 C   0  0  0  0  0  0  0  0  0  0  0  0
   45.0330   35.7360   43.8210 C   0  0  0  0  0  0  0  0  0  0  0  0
   45.9340   34.7750   43.4460 C   0  0  0  0  0  0  0  0  0  0  0  0
   46.3180   33.7630   44.3050 N   0  0  0  0  0  0  0  0  0  0  0  0
   45.8160   33.6850   45.5470 C   0  0  0  0  0  0  0  0  0  0  0  0
   44.9170   34.6100   45.9720 N   0  0  0  0  0  0  0  0  0  0  0  0
   43.8180   36.3550   45.4610 H   0  0  0  0  0  0  0  0  0  0  0  0
   46.0850   32.9130   46.2530 H   0  0  0  0  0  0  0  0  0  0  0  0
   44.6510   36.8040   42.9570 N   0  0  0  0  0  0  0  0  0  0  0  0
   44.7810   37.8190   43.2220 H   0  0  0  0  0  0  0  0  0  0  0  0
   44.2300   36.5970   42.0390 H   0  0  0  0  0  0  0  0  0  0  0  0
   47.5080   33.4670   40.1760 C   0  0  0  0  0  0  0  0  0  0  0  0
   46.2890   33.3740   39.4010 C   0  0  0  0  0  0  0  0  0  0  0  0
   45.2560   33.5440   39.7710 H   0  0  0  0  0  0  0  0  0  0  0  0
   46.8990   32.9110   37.6850 S   0  0  0  0  0  0  0  0  0  0  0  0
   48.6770   32.9320   38.3470 C   0  0  0  0  0  0  0  0  0  0  0  0
   49.7920   32.7440   37.9230 H   0  0  0  0  0  0  0  0  0  0  0  0
   48.5800   33.2030   39.4300 N   0  0  0  0  0  0  0  0  0  0  0  0
  1  4  1  6  0  0  0
  1 10  1  0  0  0  0
  2  1  1  0  0  0  0
  2  6  1  0  0  0  0
  3  2  1  0  0  0  0
  3  1  1  0  0  0  0
  3  7  1  1  0  0  0
  5  2  1  0  0  0  0
  8 14  1  0  0  0  0
  8 13  1  0  0  0  0
  9  8  2  0  0  0  0
 10  9  1  0  0  0  0
 10 11  2  0  0  0  0
 11 12  1  0  0  0  0
 12 13  2  0  0  0  0
 12 15  1  0  0  0  0
 16 17  1  0  0  0  0
 16  9  1  0  0  0  0
 18 16  1  0  0  0  0
 19  3  1  0  0  0  0
 20 21  1  0  0  0  0
 20 19  2  0  0  0  0
 22 23  1  0  0  0  0
 22 20  1  0  0  0  0
 23 25  2  0  0  0  0
 24 23  1  0  0  0  0
 25 19  1  0  0  0  0
M  END
>  <minimizedAffinity>
-4.58741951

>  <minimizedRMSD>
0.449991763

$$$$
