
 OpenBabel03252509263D

 28 30  0  0  1  0  0  0  0  0999 V2000
   46.6500   35.1070   41.9030 C   0  0  1  0  0  0  0  0  0  0  0  0
   48.1950   35.3020   41.9230 C   0  0  0  0  0  0  0  0  0  0  0  0
   47.4100   34.1260   41.2500 C   0  0  2  0  0  0  0  0  0  0  0  0
   46.1160   35.9170   41.3650 H   0  0  0  0  0  0  0  0  0  0  0  0
   48.7430   35.0840   42.8380 H   0  0  0  0  0  0  0  0  0  0  0  0
   48.5650   36.0220   41.1840 H   0  0  0  0  0  0  0  0  0  0  0  0
   47.6670   33.1360   41.7380 H   0  0  0  0  0  0  0  0  0  0  0  0
   44.6860   35.3130   45.0980 C   0  0  0  0  0  0  0  0  0  0  0  0
   45.1570   35.6660   43.7910 C   0  0  0  0  0  0  0  0  0  0  0  0
   46.1340   34.8650   43.3020 C   0  0  0  0  0  0  0  0  0  0  0  0
   46.6330   33.7950   44.0120 N   0  0  0  0  0  0  0  0  0  0  0  0
   46.1650   33.4970   45.2360 C   0  0  0  0  0  0  0  0  0  0  0  0
   45.1880   34.2590   45.7790 N   0  0  0  0  0  0  0  0  0  0  0  0
   43.8970   35.9710   45.4770 H   0  0  0  0  0  0  0  0  0  0  0  0
   46.5750   32.6540   45.7690 H   0  0  0  0  0  0  0  0  0  0  0  0
   44.6650   36.7770   43.0870 N   0  0  0  0  0  0  0  0  0  0  0  0
   45.3890   37.4860   43.3910 H   0  0  0  0  0  0  0  0  0  0  0  0
   43.8460   36.9090   42.4510 H   0  0  0  0  0  0  0  0  0  0  0  0
   47.4770   34.0240   39.7470 C   0  0  0  0  0  0  0  0  0  0  0  0
   48.4950   33.7190   39.4290 H   0  0  0  0  0  0  0  0  0  0  0  0
   47.3510   35.0550   39.3600 H   0  0  0  0  0  0  0  0  0  0  0  0
   46.4540   33.0690   39.2110 C   0  0  0  0  0  0  0  0  0  0  0  0
   46.1050   33.0380   37.8630 C   0  0  0  0  0  0  0  0  0  0  0  0
   46.5480   33.7090   37.0860 H   0  0  0  0  0  0  0  0  0  0  0  0
   44.8310   31.6920   37.8120 S   0  0  0  0  0  0  0  0  0  0  0  0
   45.0160   31.4180   39.6680 C   0  0  0  0  0  0  0  0  0  0  0  0
   44.4590   30.6740   40.2540 H   0  0  0  0  0  0  0  0  0  0  0  0
   45.8130   32.1910   39.9720 N   0  0  0  0  0  0  0  0  0  0  0  0
  1  4  1  6  0  0  0
  1  2  1  0  0  0  0
  1 10  1  0  0  0  0
  2  5  1  0  0  0  0
  3  7  1  1  0  0  0
  3  1  1  0  0  0  0
  3  2  1  0  0  0  0
  6  2  1  0  0  0  0
  8 14  1  0  0  0  0
  8 13  1  0  0  0  0
  9  8  2  0  0  0  0
 10  9  1  0  0  0  0
 10 11  2  0  0  0  0
 11 12  1  0  0  0  0
 12 15  1  0  0  0  0
 12 13  2  0  0  0  0
 16 17  1  0  0  0  0
 16  9  1  0  0  0  0
 18 16  1  0  0  0  0
 19  3  1  0  0  0  0
 20 19  1  0  0  0  0
 21 19  1  0  0  0  0
 22 19  1  0  0  0  0
 22 28  1  0  0  0  0
 23 22  2  0  0  0  0
 24 23  1  0  0  0  0
 25 23  1  0  0  0  0
 25 26  1  0  0  0  0
 26 28  2  0  0  0  0
 26 27  1  0  0  0  0
M  END
>  <minimizedAffinity>
-4.42761087

>  <minimizedRMSD>
0.773471236

$$$$
