
 OpenBabel03252506393D

 42 45  0  0  1  0  0  0  0  0999 V2000
   38.6990   27.4980   36.2590 C   0  0  0  0  0  0  0  0  0  0  0  0
   37.4550   28.0690   35.9330 C   0  0  0  0  0  0  0  0  0  0  0  0
   36.4530   28.0360   36.8470 C   0  0  0  0  0  0  0  0  0  0  0  0
   36.7230   27.4420   38.0340 N   0  0  0  0  0  0  0  0  0  0  0  0
   37.8970   26.9050   38.3330 C   0  0  0  0  0  0  0  0  0  0  0  0
   38.8940   26.9260   37.4560 N   0  0  0  0  0  0  0  0  0  0  0  0
   38.0680   26.2960   39.6250 N   0  0  0  0  0  0  0  0  0  0  0  0
   39.3140   25.8970   40.1680 C   0  0  0  0  0  0  0  0  0  0  0  0
   38.9760   24.6100   40.8990 C   0  0  0  0  0  0  0  0  0  0  0  0
   37.4810   24.5030   40.8850 C   0  0  0  0  0  0  0  0  0  0  0  0
   37.0440   25.9370   40.5850 C   0  0  1  0  0  0  0  0  0  0  0  0
   39.5140   27.5190   35.5290 H   0  0  0  0  0  0  0  0  0  0  0  0
   35.5040   28.4630   36.6200 H   0  0  0  0  0  0  0  0  0  0  0  0
   39.9380   26.4700   40.7720 H   0  0  0  0  0  0  0  0  0  0  0  0
   39.9500   25.5570   39.2910 H   0  0  0  0  0  0  0  0  0  0  0  0
   39.3550   23.7020   40.3880 H   0  0  0  0  0  0  0  0  0  0  0  0
   39.4110   24.5880   41.9220 H   0  0  0  0  0  0  0  0  0  0  0  0
   37.0820   24.2060   41.8750 H   0  0  0  0  0  0  0  0  0  0  0  0
   37.1090   23.8680   40.0480 H   0  0  0  0  0  0  0  0  0  0  0  0
   36.0490   25.8780   40.1440 H   0  0  0  0  0  0  0  0  0  0  0  0
   37.3290   28.6620   34.6310 N   0  0  0  0  0  0  0  0  0  0  0  0
   37.8970   29.5300   34.5180 H   0  0  0  0  0  0  0  0  0  0  0  0
   36.7210   28.2500   33.8790 H   0  0  0  0  0  0  0  0  0  0  0  0
   37.1660   26.8880   42.0770 S   0  0  0  0  0  0  0  0  0  0  0  0
   39.3550   29.2870   41.2800 O   0  0  0  0  0  0  0  0  0  0  0  0
   38.1330   29.4030   41.4630 C   0  0  0  0  0  0  0  0  0  0  0  0
   36.9630   28.6120   41.9430 C   0  0  1  0  0  0  0  0  0  0  0  0
   35.8840   29.0740   41.0020 C   0  0  0  0  0  0  0  0  0  0  0  0
   36.0490   30.5950   41.2270 C   0  0  0  0  0  0  0  0  0  0  0  0
   37.5250   30.6640   41.1470 N   0  0  0  0  0  0  0  0  0  0  0  0
   36.7100   29.1980   42.8700 H   0  0  0  0  0  0  0  0  0  0  0  0
   34.8880   28.7380   41.3170 H   0  0  0  0  0  0  0  0  0  0  0  0
   36.1330   28.8620   39.9490 H   0  0  0  0  0  0  0  0  0  0  0  0
   35.5810   31.1320   40.3900 H   0  0  0  0  0  0  0  0  0  0  0  0
   35.6790   30.8800   42.2190 H   0  0  0  0  0  0  0  0  0  0  0  0
   38.0760   31.9530   40.7710 C   0  0  0  0  0  0  0  0  0  0  0  0
   39.3310   32.3920   41.1490 C   0  0  0  0  0  0  0  0  0  0  0  0
   39.9960   31.7330   41.7910 H   0  0  0  0  0  0  0  0  0  0  0  0
   39.3290   34.0950   40.3050 S   0  0  0  0  0  0  0  0  0  0  0  0
   37.5930   33.8150   39.6210 C   0  0  0  0  0  0  0  0  0  0  0  0
   37.1250   34.5850   39.0180 H   0  0  0  0  0  0  0  0  0  0  0  0
   37.2620   32.6900   40.0210 N   0  0  0  0  0  0  0  0  0  0  0  0
  1  6  1  0  0  0  0
  2  1  2  0  0  0  0
  2  3  1  0  0  0  0
  3  4  2  0  0  0  0
  4  5  1  0  0  0  0
  5  7  1  0  0  0  0
  6  5  2  0  0  0  0
  7  8  1  0  0  0  0
  7 11  1  0  0  0  0
  8 14  1  0  0  0  0
  8  9  1  0  0  0  0
  9 17  1  0  0  0  0
 10  9  1  0  0  0  0
 10 18  1  0  0  0  0
 11 20  1  6  0  0  0
 11 10  1  0  0  0  0
 11 24  1  0  0  0  0
 12  1  1  0  0  0  0
 13  3  1  0  0  0  0
 15  8  1  0  0  0  0
 16  9  1  0  0  0  0
 19 10  1  0  0  0  0
 21  2  1  0  0  0  0
 22 21  1  0  0  0  0
 23 21  1  0  0  0  0
 25 26  2  0  0  0  0
 26 27  1  0  0  0  0
 27 24  1  0  0  0  0
 27 31  1  1  0  0  0
 28 29  1  0  0  0  0
 28 32  1  0  0  0  0
 28 27  1  0  0  0  0
 29 35  1  0  0  0  0
 30 29  1  0  0  0  0
 30 26  1  0  0  0  0
 33 28  1  0  0  0  0
 34 29  1  0  0  0  0
 36 30  1  0  0  0  0
 36 37  2  0  0  0  0
 37 38  1  0  0  0  0
 39 37  1  0  0  0  0
 40 42  2  0  0  0  0
 40 39  1  0  0  0  0
 41 40  1  0  0  0  0
 42 36  1  0  0  0  0
M  END
>  <minimizedAffinity>
-5.47120667

$$$$

 OpenBabel03252506393D

 42 45  0  0  1  0  0  0  0  0999 V2000
   37.5540   25.3050   42.2280 C   0  0  0  0  0  0  0  0  0  0  0  0
   38.9610   25.3320   42.2860 C   0  0  0  0  0  0  0  0  0  0  0  0
   39.6220   26.4140   41.8050 C   0  0  0  0  0  0  0  0  0  0  0  0
   38.8680   27.4150   41.2890 N   0  0  0  0  0  0  0  0  0  0  0  0
   37.5450   27.3830   41.2370 C   0  0  0  0  0  0  0  0  0  0  0  0
   36.8750   26.3350   41.7030 N   0  0  0  0  0  0  0  0  0  0  0  0
   36.8490   28.5040   40.6630 N   0  0  0  0  0  0  0  0  0  0  0  0
   35.4520   28.7130   40.7500 C   0  0  0  0  0  0  0  0  0  0  0  0
   35.1030   29.2910   39.3900 C   0  0  0  0  0  0  0  0  0  0  0  0
   36.4090   29.5650   38.7060 C   0  0  0  0  0  0  0  0  0  0  0  0
   37.4000   29.5840   39.8700 C   0  0  1  0  0  0  0  0  0  0  0  0
   37.0110   24.4380   42.6140 H   0  0  0  0  0  0  0  0  0  0  0  0
   40.6850   26.4540   41.8390 H   0  0  0  0  0  0  0  0  0  0  0  0
   34.9510   29.2590   41.4810 H   0  0  0  0  0  0  0  0  0  0  0  0
   34.9730   27.6830   40.7430 H   0  0  0  0  0  0  0  0  0  0  0  0
   34.5570   28.5790   38.7370 H   0  0  0  0  0  0  0  0  0  0  0  0
   34.4520   30.1880   39.4740 H   0  0  0  0  0  0  0  0  0  0  0  0
   36.4130   30.5570   38.2140 H   0  0  0  0  0  0  0  0  0  0  0  0
   36.7170   28.7330   38.0310 H   0  0  0  0  0  0  0  0  0  0  0  0
   38.3800   29.3520   39.4550 H   0  0  0  0  0  0  0  0  0  0  0  0
   39.6130   24.1900   42.8640 N   0  0  0  0  0  0  0  0  0  0  0  0
   39.4480   24.0990   43.8910 H   0  0  0  0  0  0  0  0  0  0  0  0
   40.1930   23.5230   42.2960 H   0  0  0  0  0  0  0  0  0  0  0  0
   37.2690   31.1490   40.6950 S   0  0  0  0  0  0  0  0  0  0  0  0
   40.2230   30.7780   39.1720 O   0  0  0  0  0  0  0  0  0  0  0  0
   39.7840   31.7880   39.7450 C   0  0  0  0  0  0  0  0  0  0  0  0
   38.6400   32.2180   40.6000 C   0  0  1  0  0  0  0  0  0  0  0  0
   38.3620   33.5930   40.0570 C   0  0  0  0  0  0  0  0  0  0  0  0
   39.7950   34.1610   40.1830 C   0  0  0  0  0  0  0  0  0  0  0  0
   40.5320   33.0080   39.6200 N   0  0  0  0  0  0  0  0  0  0  0  0
   39.1970   32.4660   41.5460 H   0  0  0  0  0  0  0  0  0  0  0  0
   37.6620   34.1550   40.6890 H   0  0  0  0  0  0  0  0  0  0  0  0
   38.1030   33.5720   38.9850 H   0  0  0  0  0  0  0  0  0  0  0  0
   39.8870   35.0440   39.5360 H   0  0  0  0  0  0  0  0  0  0  0  0
   40.0490   34.3340   41.2360 H   0  0  0  0  0  0  0  0  0  0  0  0
   41.8350   33.3060   39.0570 C   0  0  0  0  0  0  0  0  0  0  0  0
   42.0900   33.3750   37.7010 C   0  0  0  0  0  0  0  0  0  0  0  0
   41.2550   33.1920   36.9540 H   0  0  0  0  0  0  0  0  0  0  0  0
   43.9430   33.7920   37.7550 S   0  0  0  0  0  0  0  0  0  0  0  0
   43.9470   33.7770   39.6420 C   0  0  0  0  0  0  0  0  0  0  0  0
   44.8680   33.9800   40.1770 H   0  0  0  0  0  0  0  0  0  0  0  0
   42.7820   33.5110   39.9690 N   0  0  0  0  0  0  0  0  0  0  0  0
  1  2  1  0  0  0  0
  1 12  1  0  0  0  0
  2 21  1  0  0  0  0
  3 13  1  0  0  0  0
  3  2  2  0  0  0  0
  4  3  1  0  0  0  0
  5  4  2  0  0  0  0
  5  6  1  0  0  0  0
  6  1  2  0  0  0  0
  7  8  1  0  0  0  0
  7  5  1  0  0  0  0
  8 14  1  0  0  0  0
  9 17  1  0  0  0  0
  9  8  1  0  0  0  0
 10  9  1  0  0  0  0
 10 11  1  0  0  0  0
 11 20  1  6  0  0  0
 11  7  1  0  0  0  0
 11 24  1  0  0  0  0
 15  8  1  0  0  0  0
 16  9  1  0  0  0  0
 18 10  1  0  0  0  0
 19 10  1  0  0  0  0
 21 22  1  0  0  0  0
 23 21  1  0  0  0  0
 25 26  2  0  0  0  0
 26 27  1  0  0  0  0
 27 24  1  0  0  0  0
 27 31  1  1  0  0  0
 28 29  1  0  0  0  0
 28 27  1  0  0  0  0
 28 32  1  0  0  0  0
 29 35  1  0  0  0  0
 30 26  1  0  0  0  0
 30 29  1  0  0  0  0
 33 28  1  0  0  0  0
 34 29  1  0  0  0  0
 36 30  1  0  0  0  0
 36 42  1  0  0  0  0
 37 39  1  0  0  0  0
 37 36  2  0  0  0  0
 38 37  1  0  0  0  0
 39 40  1  0  0  0  0
 40 42  2  0  0  0  0
 40 41  1  0  0  0  0
M  END
>  <minimizedAffinity>
-5.36487436

$$$$

 OpenBabel03252506393D

 42 45  0  0  1  0  0  0  0  0999 V2000
   38.0790   27.6110   36.5830 C   0  0  0  0  0  0  0  0  0  0  0  0
   37.4050   28.7500   36.1050 C   0  0  0  0  0  0  0  0  0  0  0  0
   36.8740   29.6260   36.9950 C   0  0  0  0  0  0  0  0  0  0  0  0
   37.0310   29.3380   38.3090 N   0  0  0  0  0  0  0  0  0  0  0  0
   37.6660   28.2630   38.7520 C   0  0  0  0  0  0  0  0  0  0  0  0
   38.1950   27.3910   37.9010 N   0  0  0  0  0  0  0  0  0  0  0  0
   37.7680   28.0570   40.1720 N   0  0  0  0  0  0  0  0  0  0  0  0
   38.6050   27.0950   40.7870 C   0  0  0  0  0  0  0  0  0  0  0  0
   37.7660   26.6020   41.9530 C   0  0  0  0  0  0  0  0  0  0  0  0
   36.5750   27.5080   42.0220 C   0  0  0  0  0  0  0  0  0  0  0  0
   37.0350   28.7290   41.2250 C   0  0  1  0  0  0  0  0  0  0  0  0
   38.5110   26.8980   35.8750 H   0  0  0  0  0  0  0  0  0  0  0  0
   36.3590   30.4940   36.6540 H   0  0  0  0  0  0  0  0  0  0  0  0
   39.5810   27.2440   41.1190 H   0  0  0  0  0  0  0  0  0  0  0  0
   38.6460   26.2070   40.0810 H   0  0  0  0  0  0  0  0  0  0  0  0
   37.3660   25.5780   41.8020 H   0  0  0  0  0  0  0  0  0  0  0  0
   38.3500   26.5650   42.8980 H   0  0  0  0  0  0  0  0  0  0  0  0
   36.3580   27.8200   43.0630 H   0  0  0  0  0  0  0  0  0  0  0  0
   35.6900   27.0890   41.4910 H   0  0  0  0  0  0  0  0  0  0  0  0
   36.1360   29.2300   40.8660 H   0  0  0  0  0  0  0  0  0  0  0  0
   37.3240   28.9120   34.6800 N   0  0  0  0  0  0  0  0  0  0  0  0
   38.2470   29.1190   34.2380 H   0  0  0  0  0  0  0  0  0  0  0  0
   36.4200   28.8270   34.1520 H   0  0  0  0  0  0  0  0  0  0  0  0
   38.0970   29.7070   42.2560 S   0  0  0  0  0  0  0  0  0  0  0  0
   40.8080   30.1020   40.3380 O   0  0  0  0  0  0  0  0  0  0  0  0
   39.9670   30.9590   40.6510 C   0  0  0  0  0  0  0  0  0  0  0  0
   38.7920   31.1410   41.5520 C   0  0  1  0  0  0  0  0  0  0  0  0
   37.8740   31.9570   40.6840 C   0  0  0  0  0  0  0  0  0  0  0  0
   38.8710   33.0840   40.3270 C   0  0  0  0  0  0  0  0  0  0  0  0
   40.0420   32.2390   40.0050 N   0  0  0  0  0  0  0  0  0  0  0  0
   39.2040   31.9320   42.2380 H   0  0  0  0  0  0  0  0  0  0  0  0
   37.0180   32.3550   41.2440 H   0  0  0  0  0  0  0  0  0  0  0  0
   37.6120   31.4330   39.7490 H   0  0  0  0  0  0  0  0  0  0  0  0
   38.5060   33.6130   39.4360 H   0  0  0  0  0  0  0  0  0  0  0  0
   39.0550   33.7240   41.1980 H   0  0  0  0  0  0  0  0  0  0  0  0
   41.0240   32.8340   39.1190 C   0  0  0  0  0  0  0  0  0  0  0  0
   41.0380   32.6490   37.7490 C   0  0  0  0  0  0  0  0  0  0  0  0
   40.2490   31.9990   37.2550 H   0  0  0  0  0  0  0  0  0  0  0  0
   42.5560   33.7030   37.3090 S   0  0  0  0  0  0  0  0  0  0  0  0
   42.8300   34.1610   39.1190 C   0  0  0  0  0  0  0  0  0  0  0  0
   43.6580   34.8080   39.3880 H   0  0  0  0  0  0  0  0  0  0  0  0
   41.9280   33.5860   39.7420 N   0  0  0  0  0  0  0  0  0  0  0  0
  1  6  1  0  0  0  0
  2  1  2  0  0  0  0
  2  3  1  0  0  0  0
  3  4  2  0  0  0  0
  4  5  1  0  0  0  0
  5  7  1  0  0  0  0
  6  5  2  0  0  0  0
  7  8  1  0  0  0  0
  7 11  1  0  0  0  0
  8 14  1  0  0  0  0
  8  9  1  0  0  0  0
  9 10  1  0  0  0  0
  9 17  1  0  0  0  0
 10 18  1  0  0  0  0
 11 20  1  6  0  0  0
 11 10  1  0  0  0  0
 11 24  1  0  0  0  0
 12  1  1  0  0  0  0
 13  3  1  0  0  0  0
 15  8  1  0  0  0  0
 16  9  1  0  0  0  0
 19 10  1  0  0  0  0
 21  2  1  0  0  0  0
 22 21  1  0  0  0  0
 23 21  1  0  0  0  0
 25 26  2  0  0  0  0
 26 27  1  0  0  0  0
 27 31  1  1  0  0  0
 27 24  1  0  0  0  0
 28 32  1  0  0  0  0
 28 27  1  0  0  0  0
 29 28  1  0  0  0  0
 29 35  1  0  0  0  0
 30 29  1  0  0  0  0
 30 26  1  0  0  0  0
 33 28  1  0  0  0  0
 34 29  1  0  0  0  0
 36 42  1  0  0  0  0
 36 30  1  0  0  0  0
 37 36  2  0  0  0  0
 38 37  1  0  0  0  0
 39 37  1  0  0  0  0
 39 40  1  0  0  0  0
 40 41  1  0  0  0  0
 40 42  2  0  0  0  0
M  END
>  <minimizedAffinity>
-5.16668701

$$$$

 OpenBabel03252506393D

 42 45  0  0  1  0  0  0  0  0999 V2000
   38.9840   32.1240   39.0110 C   0  0  0  0  0  0  0  0  0  0  0  0
   39.6020   31.5250   37.8970 C   0  0  0  0  0  0  0  0  0  0  0  0
   39.7780   30.1810   37.8820 C   0  0  0  0  0  0  0  0  0  0  0  0
   39.3400   29.4910   38.9630 N   0  0  0  0  0  0  0  0  0  0  0  0
   38.7610   30.0610   40.0090 C   0  0  0  0  0  0  0  0  0  0  0  0
   38.5760   31.3760   40.0470 N   0  0  0  0  0  0  0  0  0  0  0  0
   38.3390   29.2290   41.1040 N   0  0  0  0  0  0  0  0  0  0  0  0
   37.5080   29.6580   42.1670 C   0  0  0  0  0  0  0  0  0  0  0  0
   38.0910   28.9400   43.3720 C   0  0  0  0  0  0  0  0  0  0  0  0
   39.1000   27.9710   42.8330 C   0  0  0  0  0  0  0  0  0  0  0  0
   38.6960   27.8490   41.3630 C   0  0  1  0  0  0  0  0  0  0  0  0
   38.8370   33.2080   39.0340 H   0  0  0  0  0  0  0  0  0  0  0  0
   40.2430   29.7080   37.0480 H   0  0  0  0  0  0  0  0  0  0  0  0
   36.4710   29.5890   42.2090 H   0  0  0  0  0  0  0  0  0  0  0  0
   37.7600   30.7500   42.3490 H   0  0  0  0  0  0  0  0  0  0  0  0
   38.6460   29.6130   44.0570 H   0  0  0  0  0  0  0  0  0  0  0  0
   37.3020   28.4590   43.9890 H   0  0  0  0  0  0  0  0  0  0  0  0
   39.0110   26.9780   43.3130 H   0  0  0  0  0  0  0  0  0  0  0  0
   40.1350   28.3830   42.8510 H   0  0  0  0  0  0  0  0  0  0  0  0
   39.5830   27.5280   40.8170 H   0  0  0  0  0  0  0  0  0  0  0  0
   40.0090   32.3960   36.8290 N   0  0  0  0  0  0  0  0  0  0  0  0
   39.2060   32.8180   36.3150 H   0  0  0  0  0  0  0  0  0  0  0  0
   41.0190   32.5790   36.6040 H   0  0  0  0  0  0  0  0  0  0  0  0
   37.2950   26.7670   41.2530 S   0  0  0  0  0  0  0  0  0  0  0  0
   35.2200   28.8350   39.6390 O   0  0  0  0  0  0  0  0  0  0  0  0
   35.7230   27.7810   39.2180 C   0  0  0  0  0  0  0  0  0  0  0  0
   36.5230   26.6170   39.6990 C   0  0  1  0  0  0  0  0  0  0  0  0
   37.4410   26.3840   38.5300 C   0  0  0  0  0  0  0  0  0  0  0  0
   36.3590   26.2920   37.4300 C   0  0  0  0  0  0  0  0  0  0  0  0
   35.5480   27.4630   37.8290 N   0  0  0  0  0  0  0  0  0  0  0  0
   35.7670   25.7970   39.5490 H   0  0  0  0  0  0  0  0  0  0  0  0
   37.9910   25.4370   38.6180 H   0  0  0  0  0  0  0  0  0  0  0  0
   38.0680   27.2640   38.3110 H   0  0  0  0  0  0  0  0  0  0  0  0
   36.8320   26.4510   36.4500 H   0  0  0  0  0  0  0  0  0  0  0  0
   35.7960   25.3540   37.5210 H   0  0  0  0  0  0  0  0  0  0  0  0
   34.7490   28.0640   36.7780 C   0  0  0  0  0  0  0  0  0  0  0  0
   33.3740   27.9500   36.6950 C   0  0  0  0  0  0  0  0  0  0  0  0
   32.8040   27.3570   37.4780 H   0  0  0  0  0  0  0  0  0  0  0  0
   33.0740   28.9650   35.1180 S   0  0  0  0  0  0  0  0  0  0  0  0
   34.9170   29.3190   34.9280 C   0  0  0  0  0  0  0  0  0  0  0  0
   35.2650   29.9180   34.0940 H   0  0  0  0  0  0  0  0  0  0  0  0
   35.4590   28.7480   35.8840 N   0  0  0  0  0  0  0  0  0  0  0  0
  1 12  1  0  0  0  0
  1  6  1  0  0  0  0
  2  1  2  0  0  0  0
  3  2  1  0  0  0  0
  3  4  2  0  0  0  0
  4  5  1  0  0  0  0
  5  6  2  0  0  0  0
  5  7  1  0  0  0  0
  7 11  1  0  0  0  0
  7  8  1  0  0  0  0
  8 14  1  0  0  0  0
  8 15  1  0  0  0  0
  8  9  1  0  0  0  0
  9 17  1  0  0  0  0
  9 16  1  0  0  0  0
 10 19  1  0  0  0  0
 10 18  1  0  0  0  0
 10  9  1  0  0  0  0
 11 20  1  6  0  0  0
 11 10  1  0  0  0  0
 13  3  1  0  0  0  0
 21  2  1  0  0  0  0
 22 21  1  0  0  0  0
 23 21  1  0  0  0  0
 24 11  1  0  0  0  0
 26 25  2  0  0  0  0
 26 27  1  0  0  0  0
 27 31  1  1  0  0  0
 27 24  1  0  0  0  0
 28 32  1  0  0  0  0
 28 27  1  0  0  0  0
 29 35  1  0  0  0  0
 29 30  1  0  0  0  0
 29 28  1  0  0  0  0
 30 26  1  0  0  0  0
 33 28  1  0  0  0  0
 34 29  1  0  0  0  0
 36 30  1  0  0  0  0
 37 36  2  0  0  0  0
 37 38  1  0  0  0  0
 39 37  1  0  0  0  0
 40 39  1  0  0  0  0
 40 42  2  0  0  0  0
 41 40  1  0  0  0  0
 42 36  1  0  0  0  0
M  END
>  <minimizedAffinity>
-5.1151309

$$$$

 OpenBabel03252506393D

 42 45  0  0  1  0  0  0  0  0999 V2000
   36.5700   31.5180   39.5580 C   0  0  0  0  0  0  0  0  0  0  0  0
   37.4180   32.5950   39.8780 C   0  0  0  0  0  0  0  0  0  0  0  0
   38.4050   32.4100   40.7900 C   0  0  0  0  0  0  0  0  0  0  0  0
   38.5080   31.1770   41.3420 N   0  0  0  0  0  0  0  0  0  0  0  0
   37.7060   30.1690   41.0370 C   0  0  0  0  0  0  0  0  0  0  0  0
   36.7320   30.3240   40.1470 N   0  0  0  0  0  0  0  0  0  0  0  0
   37.9070   28.9030   41.6910 N   0  0  0  0  0  0  0  0  0  0  0  0
   37.2900   27.6900   41.3030 C   0  0  0  0  0  0  0  0  0  0  0  0
   37.0010   27.0090   42.6290 C   0  0  0  0  0  0  0  0  0  0  0  0
   37.6930   27.8270   43.6770 C   0  0  0  0  0  0  0  0  0  0  0  0
   38.7130   28.6230   42.8620 C   0  0  1  0  0  0  0  0  0  0  0  0
   35.7700   31.6550   38.8240 H   0  0  0  0  0  0  0  0  0  0  0  0
   39.0570   33.2110   41.0460 H   0  0  0  0  0  0  0  0  0  0  0  0
   37.6740   26.9820   40.6430 H   0  0  0  0  0  0  0  0  0  0  0  0
   36.2630   27.9660   40.9050 H   0  0  0  0  0  0  0  0  0  0  0  0
   35.9250   27.0110   42.8980 H   0  0  0  0  0  0  0  0  0  0  0  0
   37.3110   25.9420   42.6240 H   0  0  0  0  0  0  0  0  0  0  0  0
   38.2340   27.1880   44.4030 H   0  0  0  0  0  0  0  0  0  0  0  0
   37.0130   28.5660   44.1580 H   0  0  0  0  0  0  0  0  0  0  0  0
   38.9510   29.5170   43.4400 H   0  0  0  0  0  0  0  0  0  0  0  0
   37.1770   33.8390   39.2030 N   0  0  0  0  0  0  0  0  0  0  0  0
   37.4010   33.8040   38.1840 H   0  0  0  0  0  0  0  0  0  0  0  0
   36.8120   34.6900   39.7000 H   0  0  0  0  0  0  0  0  0  0  0  0
   40.0860   27.5650   42.4880 S   0  0  0  0  0  0  0  0  0  0  0  0
   40.1540   28.2400   39.2130 O   0  0  0  0  0  0  0  0  0  0  0  0
   41.0230   28.4990   40.0620 C   0  0  0  0  0  0  0  0  0  0  0  0
   41.3520   28.2240   41.4900 C   0  0  1  0  0  0  0  0  0  0  0  0
   41.9100   29.5500   41.9280 C   0  0  0  0  0  0  0  0  0  0  0  0
   42.9690   29.7100   40.8130 C   0  0  0  0  0  0  0  0  0  0  0  0
   42.1250   29.3270   39.6600 N   0  0  0  0  0  0  0  0  0  0  0  0
   42.2950   27.6250   41.3510 H   0  0  0  0  0  0  0  0  0  0  0  0
   42.3860   29.4930   42.9160 H   0  0  0  0  0  0  0  0  0  0  0  0
   41.1770   30.3670   41.8150 H   0  0  0  0  0  0  0  0  0  0  0  0
   43.2670   30.7660   40.7540 H   0  0  0  0  0  0  0  0  0  0  0  0
   43.7970   29.0070   40.9660 H   0  0  0  0  0  0  0  0  0  0  0  0
   42.5470   29.8420   38.3710 C   0  0  0  0  0  0  0  0  0  0  0  0
   43.5640   29.2890   37.6170 C   0  0  0  0  0  0  0  0  0  0  0  0
   44.1240   28.3780   37.9960 H   0  0  0  0  0  0  0  0  0  0  0  0
   43.5220   30.4700   36.1290 S   0  0  0  0  0  0  0  0  0  0  0  0
   42.1080   31.4620   36.8870 C   0  0  0  0  0  0  0  0  0  0  0  0
   41.7060   32.3160   36.3520 H   0  0  0  0  0  0  0  0  0  0  0  0
   41.8630   30.9100   37.9680 N   0  0  0  0  0  0  0  0  0  0  0  0
  1  2  2  0  0  0  0
  1  6  1  0  0  0  0
  2  3  1  0  0  0  0
  3 13  1  0  0  0  0
  3  4  2  0  0  0  0
  5  4  1  0  0  0  0
  5  7  1  0  0  0  0
  6  5  2  0  0  0  0
  7 11  1  0  0  0  0
  8  7  1  0  0  0  0
  8  9  1  0  0  0  0
  9 16  1  0  0  0  0
  9 10  1  0  0  0  0
 10 19  1  0  0  0  0
 10 18  1  0  0  0  0
 11 20  1  1  0  0  0
 11 10  1  0  0  0  0
 12  1  1  0  0  0  0
 14  8  1  0  0  0  0
 15  8  1  0  0  0  0
 17  9  1  0  0  0  0
 21 23  1  0  0  0  0
 21  2  1  0  0  0  0
 22 21  1  0  0  0  0
 24 11  1  0  0  0  0
 25 26  2  0  0  0  0
 26 27  1  0  0  0  0
 27 31  1  1  0  0  0
 27 28  1  0  0  0  0
 27 24  1  0  0  0  0
 28 32  1  0  0  0  0
 29 35  1  0  0  0  0
 29 28  1  0  0  0  0
 30 26  1  0  0  0  0
 30 29  1  0  0  0  0
 33 28  1  0  0  0  0
 34 29  1  0  0  0  0
 36 30  1  0  0  0  0
 37 38  1  0  0  0  0
 37 36  2  0  0  0  0
 39 40  1  0  0  0  0
 39 37  1  0  0  0  0
 40 42  2  0  0  0  0
 41 40  1  0  0  0  0
 42 36  1  0  0  0  0
M  END
>  <minimizedAffinity>
-5.07955503

$$$$

 OpenBabel03252506393D

 42 45  0  0  1  0  0  0  0  0999 V2000
   41.1990   29.5410   37.4610 C   0  0  0  0  0  0  0  0  0  0  0  0
   41.8300   28.8000   38.4770 C   0  0  0  0  0  0  0  0  0  0  0  0
   41.3120   28.8230   39.7310 C   0  0  0  0  0  0  0  0  0  0  0  0
   40.2010   29.5740   39.9230 N   0  0  0  0  0  0  0  0  0  0  0  0
   39.6120   30.2700   38.9620 C   0  0  0  0  0  0  0  0  0  0  0  0
   40.1000   30.2630   37.7260 N   0  0  0  0  0  0  0  0  0  0  0  0
   38.4380   31.0350   39.2830 N   0  0  0  0  0  0  0  0  0  0  0  0
   37.5790   31.6300   38.3280 C   0  0  0  0  0  0  0  0  0  0  0  0
   37.1920   32.9450   38.9810 C   0  0  0  0  0  0  0  0  0  0  0  0
   37.7130   32.8810   40.3860 C   0  0  0  0  0  0  0  0  0  0  0  0
   37.9310   31.3830   40.5950 C   0  0  1  0  0  0  0  0  0  0  0  0
   41.6080   29.5300   36.4460 H   0  0  0  0  0  0  0  0  0  0  0  0
   41.7750   28.2700   40.5140 H   0  0  0  0  0  0  0  0  0  0  0  0
   36.7260   31.2030   37.9090 H   0  0  0  0  0  0  0  0  0  0  0  0
   38.2360   31.9390   37.4550 H   0  0  0  0  0  0  0  0  0  0  0  0
   37.6760   33.8270   38.5130 H   0  0  0  0  0  0  0  0  0  0  0  0
   36.0980   33.1310   38.9240 H   0  0  0  0  0  0  0  0  0  0  0  0
   36.9630   33.2400   41.1170 H   0  0  0  0  0  0  0  0  0  0  0  0
   38.7080   33.3720   40.4920 H   0  0  0  0  0  0  0  0  0  0  0  0
   38.6790   31.2790   41.3820 H   0  0  0  0  0  0  0  0  0  0  0  0
   43.0020   28.0540   38.1110 N   0  0  0  0  0  0  0  0  0  0  0  0
   42.7950   27.2490   37.4810 H   0  0  0  0  0  0  0  0  0  0  0  0
   43.9630   28.3080   38.4520 H   0  0  0  0  0  0  0  0  0  0  0  0
   36.3620   30.6250   40.9250 S   0  0  0  0  0  0  0  0  0  0  0  0
   37.0660   27.8130   39.2590 O   0  0  0  0  0  0  0  0  0  0  0  0
   36.8360   27.9410   40.4720 C   0  0  0  0  0  0  0  0  0  0  0  0
   36.3720   28.9660   41.4510 C   0  0  1  0  0  0  0  0  0  0  0  0
   37.2430   28.6590   42.6390 C   0  0  0  0  0  0  0  0  0  0  0  0
   36.9210   27.1500   42.7500 C   0  0  0  0  0  0  0  0  0  0  0  0
   37.0450   26.8000   41.3180 N   0  0  0  0  0  0  0  0  0  0  0  0
   35.3990   28.4940   41.7670 H   0  0  0  0  0  0  0  0  0  0  0  0
   36.9190   29.1950   43.5400 H   0  0  0  0  0  0  0  0  0  0  0  0
   38.3160   28.7560   42.4030 H   0  0  0  0  0  0  0  0  0  0  0  0
   37.7040   26.6620   43.3470 H   0  0  0  0  0  0  0  0  0  0  0  0
   35.9000   27.0010   43.1200 H   0  0  0  0  0  0  0  0  0  0  0  0
   37.3500   25.4100   41.0330 C   0  0  0  0  0  0  0  0  0  0  0  0
   36.5310   24.5780   40.2940 C   0  0  0  0  0  0  0  0  0  0  0  0
   35.5530   24.9710   39.8710 H   0  0  0  0  0  0  0  0  0  0  0  0
   37.5680   22.9870   40.3570 S   0  0  0  0  0  0  0  0  0  0  0  0
   38.9010   23.8320   41.3910 C   0  0  0  0  0  0  0  0  0  0  0  0
   39.7750   23.2700   41.7000 H   0  0  0  0  0  0  0  0  0  0  0  0
   38.5030   24.9940   41.5500 N   0  0  0  0  0  0  0  0  0  0  0  0
  1  6  2  0  0  0  0
  1  2  1  0  0  0  0
  2  3  2  0  0  0  0
  3  4  1  0  0  0  0
  3 13  1  0  0  0  0
  5  7  1  0  0  0  0
  5  4  2  0  0  0  0
  6  5  1  0  0  0  0
  7 11  1  0  0  0  0
  8  9  1  0  0  0  0
  8  7  1  0  0  0  0
  9 10  1  0  0  0  0
 10 19  1  0  0  0  0
 10 11  1  0  0  0  0
 10 18  1  0  0  0  0
 11 24  1  0  0  0  0
 11 20  1  1  0  0  0
 12  1  1  0  0  0  0
 14  8  1  0  0  0  0
 15  8  1  0  0  0  0
 16  9  1  0  0  0  0
 17  9  1  0  0  0  0
 21 23  1  0  0  0  0
 21  2  1  0  0  0  0
 22 21  1  0  0  0  0
 24 27  1  0  0  0  0
 25 26  2  0  0  0  0
 26 30  1  0  0  0  0
 26 27  1  0  0  0  0
 27 31  1  1  0  0  0
 27 28  1  0  0  0  0
 28 29  1  0  0  0  0
 28 32  1  0  0  0  0
 29 35  1  0  0  0  0
 29 34  1  0  0  0  0
 30 29  1  0  0  0  0
 33 28  1  0  0  0  0
 36 30  1  0  0  0  0
 36 42  1  0  0  0  0
 37 39  1  0  0  0  0
 37 36  2  0  0  0  0
 38 37  1  0  0  0  0
 39 40  1  0  0  0  0
 40 42  2  0  0  0  0
 40 41  1  0  0  0  0
M  END
>  <minimizedAffinity>
-5.05014181

$$$$

 OpenBabel03252506393D

 42 45  0  0  1  0  0  0  0  0999 V2000
   35.4540   26.7360   37.6080 C   0  0  0  0  0  0  0  0  0  0  0  0
   34.7420   27.9030   37.2730 C   0  0  0  0  0  0  0  0  0  0  0  0
   34.7370   28.9460   38.1410 C   0  0  0  0  0  0  0  0  0  0  0  0
   35.4300   28.7890   39.2950 N   0  0  0  0  0  0  0  0  0  0  0  0
   36.0970   27.6870   39.6040 C   0  0  0  0  0  0  0  0  0  0  0  0
   36.1180   26.6530   38.7700 N   0  0  0  0  0  0  0  0  0  0  0  0
   36.7950   27.6310   40.8600 N   0  0  0  0  0  0  0  0  0  0  0  0
   37.7280   26.6280   41.2180 C   0  0  0  0  0  0  0  0  0  0  0  0
   37.4470   26.4060   42.6940 C   0  0  0  0  0  0  0  0  0  0  0  0
   36.4940   27.4870   43.1050 C   0  0  0  0  0  0  0  0  0  0  0  0
   36.6630   28.5240   41.9940 C   0  0  1  0  0  0  0  0  0  0  0  0
   35.4650   25.8890   36.9160 H   0  0  0  0  0  0  0  0  0  0  0  0
   34.2050   29.8380   37.9070 H   0  0  0  0  0  0  0  0  0  0  0  0
   38.7590   26.6620   41.0780 H   0  0  0  0  0  0  0  0  0  0  0  0
   37.3740   25.6700   40.7230 H   0  0  0  0  0  0  0  0  0  0  0  0
   36.9320   25.4460   42.9030 H   0  0  0  0  0  0  0  0  0  0  0  0
   38.3810   26.3880   43.2960 H   0  0  0  0  0  0  0  0  0  0  0  0
   36.7850   27.9450   44.0700 H   0  0  0  0  0  0  0  0  0  0  0  0
   35.4320   27.1510   43.0760 H   0  0  0  0  0  0  0  0  0  0  0  0
   35.7460   29.1130   41.9680 H   0  0  0  0  0  0  0  0  0  0  0  0
   34.0580   27.9120   36.0110 N   0  0  0  0  0  0  0  0  0  0  0  0
   34.7060   27.9230   35.1930 H   0  0  0  0  0  0  0  0  0  0  0  0
   33.0090   27.9070   35.9360 H   0  0  0  0  0  0  0  0  0  0  0  0
   38.1520   29.4380   42.2980 S   0  0  0  0  0  0  0  0  0  0  0  0
   39.3060   32.4480   41.4070 O   0  0  0  0  0  0  0  0  0  0  0  0
   39.5270   31.3560   40.8600 C   0  0  0  0  0  0  0  0  0  0  0  0
   39.0810   29.9330   40.9110 C   0  0  1  0  0  0  0  0  0  0  0  0
   40.3800   29.2060   40.6970 C   0  0  0  0  0  0  0  0  0  0  0  0
   40.8140   29.9290   39.4000 C   0  0  0  0  0  0  0  0  0  0  0  0
   40.5170   31.3160   39.8200 N   0  0  0  0  0  0  0  0  0  0  0  0
   38.6130   29.8490   39.8900 H   0  0  0  0  0  0  0  0  0  0  0  0
   40.2290   28.1340   40.5150 H   0  0  0  0  0  0  0  0  0  0  0  0
   41.1220   29.4420   41.4770 H   0  0  0  0  0  0  0  0  0  0  0  0
   41.8930   29.7800   39.2530 H   0  0  0  0  0  0  0  0  0  0  0  0
   40.1880   29.6140   38.5570 H   0  0  0  0  0  0  0  0  0  0  0  0
   41.2580   32.3550   39.1310 C   0  0  0  0  0  0  0  0  0  0  0  0
   41.0380   32.7140   37.8150 C   0  0  0  0  0  0  0  0  0  0  0  0
   40.2390   32.1850   37.2060 H   0  0  0  0  0  0  0  0  0  0  0  0
   42.3420   34.0860   37.6460 S   0  0  0  0  0  0  0  0  0  0  0  0
   42.8980   33.8530   39.4340 C   0  0  0  0  0  0  0  0  0  0  0  0
   43.6940   34.4720   39.8320 H   0  0  0  0  0  0  0  0  0  0  0  0
   42.1840   32.9460   39.8830 N   0  0  0  0  0  0  0  0  0  0  0  0
  1  6  1  0  0  0  0
  2  1  2  0  0  0  0
  2  3  1  0  0  0  0
  3  4  2  0  0  0  0
  4  5  1  0  0  0  0
  5  7  1  0  0  0  0
  6  5  2  0  0  0  0
  7  8  1  0  0  0  0
  7 11  1  0  0  0  0
  8  9  1  0  0  0  0
  9 16  1  0  0  0  0
  9 10  1  0  0  0  0
  9 17  1  0  0  0  0
 10 18  1  0  0  0  0
 11 20  1  6  0  0  0
 11 24  1  0  0  0  0
 11 10  1  0  0  0  0
 12  1  1  0  0  0  0
 13  3  1  0  0  0  0
 14  8  1  0  0  0  0
 15  8  1  0  0  0  0
 19 10  1  0  0  0  0
 21  2  1  0  0  0  0
 22 21  1  0  0  0  0
 23 21  1  0  0  0  0
 26 27  1  0  0  0  0
 26 25  2  0  0  0  0
 27 31  1  6  0  0  0
 27 24  1  0  0  0  0
 28 27  1  0  0  0  0
 28 33  1  0  0  0  0
 29 30  1  0  0  0  0
 29 28  1  0  0  0  0
 30 26  1  0  0  0  0
 32 28  1  0  0  0  0
 34 29  1  0  0  0  0
 35 29  1  0  0  0  0
 36 30  1  0  0  0  0
 36 42  1  0  0  0  0
 37 36  2  0  0  0  0
 38 37  1  0  0  0  0
 39 37  1  0  0  0  0
 39 40  1  0  0  0  0
 40 41  1  0  0  0  0
 40 42  2  0  0  0  0
M  END
>  <minimizedAffinity>
-5.01047325

$$$$

 OpenBabel03252506393D

 42 45  0  0  1  0  0  0  0  0999 V2000
   37.9250   27.2490   37.0190 C   0  0  0  0  0  0  0  0  0  0  0  0
   37.4570   28.4490   36.4510 C   0  0  0  0  0  0  0  0  0  0  0  0
   37.1130   29.4760   37.2660 C   0  0  0  0  0  0  0  0  0  0  0  0
   37.2450   29.2740   38.5990 N   0  0  0  0  0  0  0  0  0  0  0  0
   37.6860   28.1420   39.1280 C   0  0  0  0  0  0  0  0  0  0  0  0
   38.0290   27.1210   38.3500 N   0  0  0  0  0  0  0  0  0  0  0  0
   37.7810   28.0400   40.5590 N   0  0  0  0  0  0  0  0  0  0  0  0
   38.4450   26.9960   41.2480 C   0  0  0  0  0  0  0  0  0  0  0  0
   37.5570   26.7610   42.4580 C   0  0  0  0  0  0  0  0  0  0  0  0
   36.5500   27.8720   42.4580 C   0  0  0  0  0  0  0  0  0  0  0  0
   37.2050   28.9180   41.5570 C   0  0  1  0  0  0  0  0  0  0  0  0
   38.2050   26.4130   36.3710 H   0  0  0  0  0  0  0  0  0  0  0  0
   36.7560   30.3920   36.8560 H   0  0  0  0  0  0  0  0  0  0  0  0
   39.4380   26.9920   41.5590 H   0  0  0  0  0  0  0  0  0  0  0  0
   38.3080   26.0600   40.6200 H   0  0  0  0  0  0  0  0  0  0  0  0
   36.9750   25.8180   42.3980 H   0  0  0  0  0  0  0  0  0  0  0  0
   38.1460   26.6970   43.3980 H   0  0  0  0  0  0  0  0  0  0  0  0
   36.4170   28.3030   43.4700 H   0  0  0  0  0  0  0  0  0  0  0  0
   35.5930   27.5770   41.9710 H   0  0  0  0  0  0  0  0  0  0  0  0
   36.4030   29.5430   41.1630 H   0  0  0  0  0  0  0  0  0  0  0  0
   37.3750   28.5040   35.0180 N   0  0  0  0  0  0  0  0  0  0  0  0
   38.3090   28.5030   34.5530 H   0  0  0  0  0  0  0  0  0  0  0  0
   36.4580   28.5410   34.5050 H   0  0  0  0  0  0  0  0  0  0  0  0
   38.4500   29.7690   42.4920 S   0  0  0  0  0  0  0  0  0  0  0  0
   38.8480   31.7070   39.7960 O   0  0  0  0  0  0  0  0  0  0  0  0
   39.7300   31.2210   40.5210 C   0  0  0  0  0  0  0  0  0  0  0  0
   39.8910   30.2550   41.6450 C   0  0  1  0  0  0  0  0  0  0  0  0
   40.9420   30.9370   42.4770 C   0  0  0  0  0  0  0  0  0  0  0  0
   41.9910   31.1450   41.3590 C   0  0  0  0  0  0  0  0  0  0  0  0
   41.0840   31.6500   40.3060 N   0  0  0  0  0  0  0  0  0  0  0  0
   40.5030   29.4650   41.1250 H   0  0  0  0  0  0  0  0  0  0  0  0
   41.3360   30.2840   43.2660 H   0  0  0  0  0  0  0  0  0  0  0  0
   40.6180   31.9340   42.8210 H   0  0  0  0  0  0  0  0  0  0  0  0
   42.7020   31.9200   41.6770 H   0  0  0  0  0  0  0  0  0  0  0  0
   42.4500   30.1880   41.0800 H   0  0  0  0  0  0  0  0  0  0  0  0
   41.7030   32.4670   39.2790 C   0  0  0  0  0  0  0  0  0  0  0  0
   41.9710   33.8140   39.4240 C   0  0  0  0  0  0  0  0  0  0  0  0
   41.7030   34.3470   40.3900 H   0  0  0  0  0  0  0  0  0  0  0  0
   42.7510   34.1600   37.7270 S   0  0  0  0  0  0  0  0  0  0  0  0
   42.5320   32.3620   37.1990 C   0  0  0  0  0  0  0  0  0  0  0  0
   42.8600   32.0490   36.2140 H   0  0  0  0  0  0  0  0  0  0  0  0
   41.9980   31.8000   38.1660 N   0  0  0  0  0  0  0  0  0  0  0  0
  1  6  1  0  0  0  0
  2  1  2  0  0  0  0
  2  3  1  0  0  0  0
  3  4  2  0  0  0  0
  4  5  1  0  0  0  0
  5  7  1  0  0  0  0
  6  5  2  0  0  0  0
  7  8  1  0  0  0  0
  7 11  1  0  0  0  0
  8 14  1  0  0  0  0
  8  9  1  0  0  0  0
  9 17  1  0  0  0  0
 10  9  1  0  0  0  0
 10 18  1  0  0  0  0
 11 20  1  6  0  0  0
 11 10  1  0  0  0  0
 11 24  1  0  0  0  0
 12  1  1  0  0  0  0
 13  3  1  0  0  0  0
 15  8  1  0  0  0  0
 16  9  1  0  0  0  0
 19 10  1  0  0  0  0
 21  2  1  0  0  0  0
 22 21  1  0  0  0  0
 23 21  1  0  0  0  0
 25 26  2  0  0  0  0
 26 27  1  0  0  0  0
 27 31  1  6  0  0  0
 27 28  1  0  0  0  0
 27 24  1  0  0  0  0
 28 33  1  0  0  0  0
 28 32  1  0  0  0  0
 29 34  1  0  0  0  0
 29 28  1  0  0  0  0
 30 26  1  0  0  0  0
 30 29  1  0  0  0  0
 35 29  1  0  0  0  0
 36 37  2  0  0  0  0
 36 30  1  0  0  0  0
 37 38  1  0  0  0  0
 39 37  1  0  0  0  0
 40 39  1  0  0  0  0
 40 42  2  0  0  0  0
 41 40  1  0  0  0  0
 42 36  1  0  0  0  0
M  END
>  <minimizedAffinity>
-5.00553942

$$$$

 OpenBabel03252506393D

 42 45  0  0  1  0  0  0  0  0999 V2000
   35.9280   28.6300   40.7040 C   0  0  0  0  0  0  0  0  0  0  0  0
   36.4600   29.7600   41.3530 C   0  0  0  0  0  0  0  0  0  0  0  0
   37.6600   29.6580   41.9780 C   0  0  0  0  0  0  0  0  0  0  0  0
   38.2760   28.4520   41.9350 N   0  0  0  0  0  0  0  0  0  0  0  0
   37.7680   27.3930   41.3230 C   0  0  0  0  0  0  0  0  0  0  0  0
   36.5960   27.4670   40.7030 N   0  0  0  0  0  0  0  0  0  0  0  0
   38.5100   26.1610   41.3460 N   0  0  0  0  0  0  0  0  0  0  0  0
   38.2130   25.0280   40.5500 C   0  0  0  0  0  0  0  0  0  0  0  0
   38.5050   23.8650   41.4820 C   0  0  0  0  0  0  0  0  0  0  0  0
   39.1650   24.4550   42.6920 C   0  0  0  0  0  0  0  0  0  0  0  0
   39.6410   25.8160   42.1840 C   0  0  1  0  0  0  0  0  0  0  0  0
   34.9610   28.7000   40.1970 H   0  0  0  0  0  0  0  0  0  0  0  0
   38.0800   30.5010   42.4750 H   0  0  0  0  0  0  0  0  0  0  0  0
   38.6070   24.8090   39.6120 H   0  0  0  0  0  0  0  0  0  0  0  0
   37.0840   25.0080   40.4300 H   0  0  0  0  0  0  0  0  0  0  0  0
   37.5900   23.3560   41.8490 H   0  0  0  0  0  0  0  0  0  0  0  0
   39.1130   23.0780   40.9860 H   0  0  0  0  0  0  0  0  0  0  0  0
   40.0460   23.8620   43.0070 H   0  0  0  0  0  0  0  0  0  0  0  0
   38.4430   24.6510   43.5170 H   0  0  0  0  0  0  0  0  0  0  0  0
   39.7380   26.4630   43.0560 H   0  0  0  0  0  0  0  0  0  0  0  0
   35.6830   30.9670   41.3070 N   0  0  0  0  0  0  0  0  0  0  0  0
   35.6310   31.3850   40.3530 H   0  0  0  0  0  0  0  0  0  0  0  0
   35.2200   31.3730   42.1580 H   0  0  0  0  0  0  0  0  0  0  0  0
   41.1220   25.5780   41.2370 S   0  0  0  0  0  0  0  0  0  0  0  0
   40.2300   27.6140   38.7380 O   0  0  0  0  0  0  0  0  0  0  0  0
   41.1780   27.7500   39.5280 C   0  0  0  0  0  0  0  0  0  0  0  0
   41.8980   27.0010   40.5980 C   0  0  1  0  0  0  0  0  0  0  0  0
   42.1800   28.0960   41.5900 C   0  0  0  0  0  0  0  0  0  0  0  0
   42.8640   29.0860   40.6200 C   0  0  0  0  0  0  0  0  0  0  0  0
   41.8990   28.9910   39.5030 N   0  0  0  0  0  0  0  0  0  0  0  0
   42.9030   26.8900   40.1040 H   0  0  0  0  0  0  0  0  0  0  0  0
   42.8760   27.7740   42.3760 H   0  0  0  0  0  0  0  0  0  0  0  0
   41.2550   28.5710   41.9580 H   0  0  0  0  0  0  0  0  0  0  0  0
   42.8540   30.0890   41.0680 H   0  0  0  0  0  0  0  0  0  0  0  0
   43.8580   28.7200   40.3340 H   0  0  0  0  0  0  0  0  0  0  0  0
   41.8530   30.1340   38.6100 C   0  0  0  0  0  0  0  0  0  0  0  0
   41.1830   31.3080   38.8980 C   0  0  0  0  0  0  0  0  0  0  0  0
   40.6260   31.4200   39.8810 H   0  0  0  0  0  0  0  0  0  0  0  0
   41.5700   32.2820   37.3140 S   0  0  0  0  0  0  0  0  0  0  0  0
   42.5700   30.8450   36.6100 C   0  0  0  0  0  0  0  0  0  0  0  0
   43.0320   30.9420   35.6340 H   0  0  0  0  0  0  0  0  0  0  0  0
   42.5180   29.9570   37.4720 N   0  0  0  0  0  0  0  0  0  0  0  0
  1  2  1  0  0  0  0
  2  3  2  0  0  0  0
  3 13  1  0  0  0  0
  4  3  1  0  0  0  0
  5  7  1  0  0  0  0
  5  4  2  0  0  0  0
  6  1  2  0  0  0  0
  6  5  1  0  0  0  0
  7 11  1  0  0  0  0
  8  7  1  0  0  0  0
  8  9  1  0  0  0  0
  9 16  1  0  0  0  0
  9 10  1  0  0  0  0
 10 18  1  0  0  0  0
 10 19  1  0  0  0  0
 11 10  1  0  0  0  0
 11 20  1  1  0  0  0
 12  1  1  0  0  0  0
 14  8  1  0  0  0  0
 15  8  1  0  0  0  0
 17  9  1  0  0  0  0
 21  2  1  0  0  0  0
 21 23  1  0  0  0  0
 22 21  1  0  0  0  0
 24 11  1  0  0  0  0
 25 26  2  0  0  0  0
 26 27  1  0  0  0  0
 27 31  1  6  0  0  0
 27 24  1  0  0  0  0
 27 28  1  0  0  0  0
 28 33  1  0  0  0  0
 28 32  1  0  0  0  0
 29 34  1  0  0  0  0
 29 28  1  0  0  0  0
 30 26  1  0  0  0  0
 30 29  1  0  0  0  0
 35 29  1  0  0  0  0
 36 37  2  0  0  0  0
 36 30  1  0  0  0  0
 37 38  1  0  0  0  0
 39 37  1  0  0  0  0
 40 39  1  0  0  0  0
 40 42  2  0  0  0  0
 41 40  1  0  0  0  0
 42 36  1  0  0  0  0
M  END
>  <minimizedAffinity>
-4.99463367

$$$$
