
 OpenBabel03252503193D

 37 40  0  0  0  0  0  0  0  0999 V2000
   45.5720   33.9150   40.6680 C   0  0  0  0  0  0  0  0  0  0  0  0
   44.2540   33.5510   40.7290 C   0  0  0  0  0  0  0  0  0  0  0  0
   43.9830   32.9540   39.5410 N   0  0  0  0  0  0  0  0  0  0  0  0
   45.0920   32.9600   38.7960 C   0  0  0  0  0  0  0  0  0  0  0  0
   46.0710   33.5510   39.4900 N   0  0  0  0  0  0  0  0  0  0  0  0
   45.3150   32.4560   37.4860 N   0  0  0  0  0  0  0  0  0  0  0  0
   43.5780   33.7020   41.5380 H   0  0  0  0  0  0  0  0  0  0  0  0
   45.1390   33.1640   36.7190 H   0  0  0  0  0  0  0  0  0  0  0  0
   45.6270   31.4650   37.3060 H   0  0  0  0  0  0  0  0  0  0  0  0
   42.7330   32.3870   39.0900 C   0  0  0  0  0  0  0  0  0  0  0  0
   42.9350   31.6670   38.2450 H   0  0  0  0  0  0  0  0  0  0  0  0
   42.3110   31.7490   39.8920 H   0  0  0  0  0  0  0  0  0  0  0  0
   41.7680   33.4230   38.6050 C   0  0  0  0  0  0  0  0  0  0  0  0
   40.4100   33.0860   38.2690 C   0  0  0  0  0  0  0  0  0  0  0  0
   40.0020   32.1170   38.3370 H   0  0  0  0  0  0  0  0  0  0  0  0
   39.7540   34.6950   37.7630 S   0  0  0  0  0  0  0  0  0  0  0  0
   41.4170   35.5630   38.0850 C   0  0  0  0  0  0  0  0  0  0  0  0
   41.5950   36.6280   37.9310 H   0  0  0  0  0  0  0  0  0  0  0  0
   42.0690   34.7020   38.4450 N   0  0  0  0  0  0  0  0  0  0  0  0
   46.3740   34.6140   41.7300 C   0  0  0  0  0  0  0  0  0  0  0  0
   47.5500   35.0390   41.5830 O   0  0  0  0  0  0  0  0  0  0  0  0
   45.1490   36.0480   43.2910 C   0  0  0  0  0  0  0  0  0  0  0  0
   45.7990   34.8330   43.0130 C   0  0  0  0  0  0  0  0  0  0  0  0
   45.8120   33.9370   44.0650 C   0  0  0  0  0  0  0  0  0  0  0  0
   45.2590   34.1870   45.2500 N   0  0  0  0  0  0  0  0  0  0  0  0
   44.6400   35.3850   45.4640 C   0  0  0  0  0  0  0  0  0  0  0  0
   44.5930   36.2960   44.4890 N   0  0  0  0  0  0  0  0  0  0  0  0
   45.0840   36.8240   42.5250 H   0  0  0  0  0  0  0  0  0  0  0  0
   44.1870   35.6000   46.4230 H   0  0  0  0  0  0  0  0  0  0  0  0
   46.4580   32.6790   43.8600 C   0  0  0  0  0  0  0  0  0  0  0  0
   47.7320   32.2190   43.8870 C   0  0  0  0  0  0  0  0  0  0  0  0
   48.0590   30.9720   43.6540 C   0  0  0  0  0  0  0  0  0  0  0  0
   47.0370   30.1510   43.3810 C   0  0  0  0  0  0  0  0  0  0  0  0
   45.5500   31.1940   43.4570 S   0  0  0  0  0  0  0  0  0  0  0  0
   48.4680   33.0160   44.1280 H   0  0  0  0  0  0  0  0  0  0  0  0
   49.0590   30.5570   43.6640 H   0  0  0  0  0  0  0  0  0  0  0  0
   47.0650   29.0030   43.1410 H   0  0  0  0  0  0  0  0  0  0  0  0
  1  2  2  0  0  0  0
  1 20  1  0  0  0  0
  2  7  1  0  0  0  0
  3  2  1  0  0  0  0
  4  5  2  0  0  0  0
  4  3  1  0  0  0  0
  5  1  1  0  0  0  0
  6  4  1  0  0  0  0
  8  6  1  0  0  0  0
  9  6  1  0  0  0  0
 10  3  1  0  0  0  0
 10 12  1  0  0  0  0
 11 10  1  0  0  0  0
 13 10  1  0  0  0  0
 14 15  1  0  0  0  0
 14 13  2  0  0  0  0
 16 17  1  0  0  0  0
 16 14  1  0  0  0  0
 17 19  2  0  0  0  0
 18 17  1  0  0  0  0
 19 13  1  0  0  0  0
 20 23  1  0  0  0  0
 21 20  2  0  0  0  0
 22 27  1  0  0  0  0
 23 22  2  0  0  0  0
 23 24  1  0  0  0  0
 24 25  2  0  0  0  0
 25 26  1  0  0  0  0
 26 29  1  0  0  0  0
 27 26  2  0  0  0  0
 28 22  1  0  0  0  0
 30 31  2  0  0  0  0
 30 24  1  0  0  0  0
 31 35  1  0  0  0  0
 32 36  1  0  0  0  0
 32 31  1  0  0  0  0
 33 34  1  0  0  0  0
 33 32  2  0  0  0  0
 34 30  1  0  0  0  0
 37 33  1  0  0  0  0
M  END
>  <minimizedAffinity>
-5.1715517

>  <minimizedRMSD>
0.935929596

$$$$
