
 OpenBabel03252504513D

 32 34  0  0  0  0  0  0  0  0999 V2000
   37.6020   27.0940   40.7730 C   0  0  0  0  0  0  0  0  0  0  0  0
   37.0770   26.7050   42.0140 C   0  0  0  0  0  0  0  0  0  0  0  0
   36.8490   27.7280   42.9230 C   0  0  0  0  0  0  0  0  0  0  0  0
   37.1390   29.0130   42.5670 N   0  0  0  0  0  0  0  0  0  0  0  0
   37.6350   29.3330   41.3760 C   0  0  0  0  0  0  0  0  0  0  0  0
   37.8750   28.3690   40.4570 N   0  0  0  0  0  0  0  0  0  0  0  0
   37.8120   26.3530   40.0010 H   0  0  0  0  0  0  0  0  0  0  0  0
   36.4440   27.4600   43.8880 H   0  0  0  0  0  0  0  0  0  0  0  0
   40.3110   30.3740   42.3970 Cl  0  0  0  0  0  0  0  0  0  0  0  0
   39.1160   31.2840   41.4760 C   0  0  0  0  0  0  0  0  0  0  0  0
   37.9240   30.7250   41.0550 C   0  0  0  0  0  0  0  0  0  0  0  0
   37.0120   31.4660   40.3360 C   0  0  0  0  0  0  0  0  0  0  0  0
   37.2900   32.7900   40.0320 C   0  0  0  0  0  0  0  0  0  0  0  0
   38.4980   33.3110   40.4750 C   0  0  0  0  0  0  0  0  0  0  0  0
   38.8130   34.9860   40.0710 Cl  0  0  0  0  0  0  0  0  0  0  0  0
   39.4390   32.6000   41.1980 C   0  0  0  0  0  0  0  0  0  0  0  0
   36.0890   31.0010   40.0200 H   0  0  0  0  0  0  0  0  0  0  0  0
   36.5910   33.3940   39.4690 H   0  0  0  0  0  0  0  0  0  0  0  0
   40.3600   33.0770   41.5090 H   0  0  0  0  0  0  0  0  0  0  0  0
   36.8270   25.3090   42.2330 C   0  0  0  0  0  0  0  0  0  0  0  0
   36.0270   24.9540   41.5520 H   0  0  0  0  0  0  0  0  0  0  0  0
   36.5180   25.1030   43.2610 H   0  0  0  0  0  0  0  0  0  0  0  0
   38.0820   24.5290   41.8720 C   0  0  0  0  0  0  0  0  0  0  0  0
   38.5230   24.0260   42.7630 H   0  0  0  0  0  0  0  0  0  0  0  0
   38.8090   25.2380   41.4790 H   0  0  0  0  0  0  0  0  0  0  0  0
   37.6420   23.5050   40.8560 C   0  0  0  0  0  0  0  0  0  0  0  0
   36.3610   23.6080   40.2330 C   0  0  0  0  0  0  0  0  0  0  0  0
   35.6520   24.3460   40.4040 H   0  0  0  0  0  0  0  0  0  0  0  0
   36.3780   22.1450   39.1370 S   0  0  0  0  0  0  0  0  0  0  0  0
   38.1270   21.6490   39.7180 C   0  0  0  0  0  0  0  0  0  0  0  0
   38.7670   20.7790   39.4100 H   0  0  0  0  0  0  0  0  0  0  0  0
   38.3820   22.4750   40.4810 N   0  0  0  0  0  0  0  0  0  0  0  0
  1  2  1  0  0  0  0
  2 20  1  0  0  0  0
  2  3  2  0  0  0  0
  3  8  1  0  0  0  0
  4  3  1  0  0  0  0
  5  4  2  0  0  0  0
  6  1  2  0  0  0  0
  6  5  1  0  0  0  0
  7  1  1  0  0  0  0
 10  9  1  0  0  0  0
 11  5  1  0  0  0  0
 11 10  2  0  0  0  0
 12 11  1  0  0  0  0
 13 12  2  0  0  0  0
 13 14  1  0  0  0  0
 14 16  2  0  0  0  0
 15 14  1  0  0  0  0
 16 10  1  0  0  0  0
 16 19  1  0  0  0  0
 17 12  1  0  0  0  0
 18 13  1  0  0  0  0
 20 22  1  0  0  0  0
 21 20  1  0  0  0  0
 23 20  1  0  0  0  0
 23 24  1  0  0  0  0
 25 23  1  0  0  0  0
 26 23  1  0  0  0  0
 27 28  1  0  0  0  0
 27 26  2  0  0  0  0
 29 30  1  0  0  0  0
 29 27  1  0  0  0  0
 30 32  2  0  0  0  0
 31 30  1  0  0  0  0
 32 26  1  0  0  0  0
M  END
>  <minimizedAffinity>
-5.29346657

$$$$

 OpenBabel03252504513D

 32 34  0  0  0  0  0  0  0  0999 V2000
   38.2440   27.2790   39.9610 C   0  0  0  0  0  0  0  0  0  0  0  0
   37.2950   26.7440   40.8450 C   0  0  0  0  0  0  0  0  0  0  0  0
   36.5700   27.6660   41.5860 C   0  0  0  0  0  0  0  0  0  0  0  0
   36.8150   28.9970   41.4180 N   0  0  0  0  0  0  0  0  0  0  0  0
   37.7260   29.4570   40.5660 C   0  0  0  0  0  0  0  0  0  0  0  0
   38.4590   28.5960   39.8210 N   0  0  0  0  0  0  0  0  0  0  0  0
   38.8580   26.6250   39.3410 H   0  0  0  0  0  0  0  0  0  0  0  0
   35.8310   27.2840   42.2750 H   0  0  0  0  0  0  0  0  0  0  0  0
   40.0250   30.5880   42.2160 Cl  0  0  0  0  0  0  0  0  0  0  0  0
   38.9630   31.4940   41.1410 C   0  0  0  0  0  0  0  0  0  0  0  0
   37.9420   30.8920   40.4310 C   0  0  0  0  0  0  0  0  0  0  0  0
   37.1300   31.6310   39.5990 C   0  0  0  0  0  0  0  0  0  0  0  0
   37.3380   32.9970   39.4730 C   0  0  0  0  0  0  0  0  0  0  0  0
   38.3740   33.5600   40.2040 C   0  0  0  0  0  0  0  0  0  0  0  0
   38.6060   35.2860   40.0180 Cl  0  0  0  0  0  0  0  0  0  0  0  0
   39.2100   32.8510   41.0490 C   0  0  0  0  0  0  0  0  0  0  0  0
   36.3400   31.1330   39.0560 H   0  0  0  0  0  0  0  0  0  0  0  0
   36.7150   33.6010   38.8260 H   0  0  0  0  0  0  0  0  0  0  0  0
   39.9990   33.3620   41.5880 H   0  0  0  0  0  0  0  0  0  0  0  0
   37.1590   25.3170   40.9040 C   0  0  0  0  0  0  0  0  0  0  0  0
   37.9590   24.8320   40.3090 H   0  0  0  0  0  0  0  0  0  0  0  0
   36.1930   24.9800   40.5180 H   0  0  0  0  0  0  0  0  0  0  0  0
   37.3580   24.8700   42.3440 C   0  0  0  0  0  0  0  0  0  0  0  0
   37.1390   23.7840   42.4710 H   0  0  0  0  0  0  0  0  0  0  0  0
   36.6660   25.4380   42.9630 H   0  0  0  0  0  0  0  0  0  0  0  0
   38.8060   25.1520   42.6570 C   0  0  0  0  0  0  0  0  0  0  0  0
   39.8440   24.4450   41.9780 C   0  0  0  0  0  0  0  0  0  0  0  0
   39.7170   23.7150   41.2510 H   0  0  0  0  0  0  0  0  0  0  0  0
   41.3350   25.1780   42.7400 S   0  0  0  0  0  0  0  0  0  0  0  0
   40.2850   26.3210   43.8510 C   0  0  0  0  0  0  0  0  0  0  0  0
   40.6090   27.0800   44.6120 H   0  0  0  0  0  0  0  0  0  0  0  0
   39.2060   26.0430   43.5500 N   0  0  0  0  0  0  0  0  0  0  0  0
  1  2  1  0  0  0  0
  2 20  1  0  0  0  0
  2  3  2  0  0  0  0
  3  8  1  0  0  0  0
  4  3  1  0  0  0  0
  5  4  2  0  0  0  0
  6  1  2  0  0  0  0
  6  5  1  0  0  0  0
  7  1  1  0  0  0  0
 10  9  1  0  0  0  0
 11  5  1  0  0  0  0
 11 10  2  0  0  0  0
 12 11  1  0  0  0  0
 13 12  2  0  0  0  0
 13 14  1  0  0  0  0
 14 16  2  0  0  0  0
 15 14  1  0  0  0  0
 16 10  1  0  0  0  0
 16 19  1  0  0  0  0
 17 12  1  0  0  0  0
 18 13  1  0  0  0  0
 20 23  1  0  0  0  0
 21 20  1  0  0  0  0
 22 20  1  0  0  0  0
 23 24  1  0  0  0  0
 23 26  1  0  0  0  0
 23 25  1  0  0  0  0
 26 32  1  0  0  0  0
 27 26  2  0  0  0  0
 27 29  1  0  0  0  0
 28 27  1  0  0  0  0
 29 30  1  0  0  0  0
 30 31  1  0  0  0  0
 32 30  2  0  0  0  0
M  END
>  <minimizedAffinity>
-5.11258364

$$$$

 OpenBabel03252504513D

 32 34  0  0  0  0  0  0  0  0999 V2000
   38.1730   30.0800   40.4310 C   0  0  0  0  0  0  0  0  0  0  0  0
   36.9260   30.7200   40.3750 C   0  0  0  0  0  0  0  0  0  0  0  0
   35.8180   29.8850   40.3210 C   0  0  0  0  0  0  0  0  0  0  0  0
   36.0020   28.5340   40.3240 N   0  0  0  0  0  0  0  0  0  0  0  0
   37.2060   27.9720   40.3790 C   0  0  0  0  0  0  0  0  0  0  0  0
   38.3160   28.7460   40.4330 N   0  0  0  0  0  0  0  0  0  0  0  0
   39.0940   30.6610   40.4760 H   0  0  0  0  0  0  0  0  0  0  0  0
   34.8440   30.3480   40.2780 H   0  0  0  0  0  0  0  0  0  0  0  0
   36.8310   26.6340   43.0910 Cl  0  0  0  0  0  0  0  0  0  0  0  0
   37.1820   25.8270   41.5640 C   0  0  0  0  0  0  0  0  0  0  0  0
   37.3370   26.5210   40.3800 C   0  0  0  0  0  0  0  0  0  0  0  0
   37.6120   25.8580   39.2040 C   0  0  0  0  0  0  0  0  0  0  0  0
   37.7360   24.4760   39.2080 C   0  0  0  0  0  0  0  0  0  0  0  0
   37.5730   23.8200   40.4200 C   0  0  0  0  0  0  0  0  0  0  0  0
   37.7370   22.0760   40.3850 Cl  0  0  0  0  0  0  0  0  0  0  0  0
   37.2970   24.4500   41.6200 C   0  0  0  0  0  0  0  0  0  0  0  0
   37.7270   26.4270   38.2930 H   0  0  0  0  0  0  0  0  0  0  0  0
   37.9510   23.9310   38.2990 H   0  0  0  0  0  0  0  0  0  0  0  0
   37.1840   23.8680   42.5260 H   0  0  0  0  0  0  0  0  0  0  0  0
   36.9030   32.1540   40.3800 C   0  0  0  0  0  0  0  0  0  0  0  0
   37.4900   32.5420   41.2360 H   0  0  0  0  0  0  0  0  0  0  0  0
   35.8860   32.5490   40.4540 H   0  0  0  0  0  0  0  0  0  0  0  0
   37.5920   32.6540   39.1190 C   0  0  0  0  0  0  0  0  0  0  0  0
   36.9030   33.2620   38.4880 H   0  0  0  0  0  0  0  0  0  0  0  0
   37.9060   31.7820   38.5480 H   0  0  0  0  0  0  0  0  0  0  0  0
   38.7460   33.4980   39.5990 C   0  0  0  0  0  0  0  0  0  0  0  0
   40.0870   33.1630   39.2390 C   0  0  0  0  0  0  0  0  0  0  0  0
   40.3840   32.3600   38.6530 H   0  0  0  0  0  0  0  0  0  0  0  0
   41.0250   34.4900   40.0760 S   0  0  0  0  0  0  0  0  0  0  0  0
   39.4270   35.2710   40.7690 C   0  0  0  0  0  0  0  0  0  0  0  0
   39.2920   36.1800   41.4150 H   0  0  0  0  0  0  0  0  0  0  0  0
   38.6070   34.5720   40.3590 N   0  0  0  0  0  0  0  0  0  0  0  0
  1  6  1  0  0  0  0
  1  7  1  0  0  0  0
  2 20  1  0  0  0  0
  2  1  2  0  0  0  0
  3  4  2  0  0  0  0
  3  2  1  0  0  0  0
  4  5  1  0  0  0  0
  5 11  1  0  0  0  0
  5  6  2  0  0  0  0
  8  3  1  0  0  0  0
 10 16  1  0  0  0  0
 10  9  1  0  0  0  0
 11 10  2  0  0  0  0
 12 13  2  0  0  0  0
 12 11  1  0  0  0  0
 13 14  1  0  0  0  0
 14 16  2  0  0  0  0
 15 14  1  0  0  0  0
 16 19  1  0  0  0  0
 17 12  1  0  0  0  0
 18 13  1  0  0  0  0
 20 22  1  0  0  0  0
 20 21  1  0  0  0  0
 23 26  1  0  0  0  0
 23 20  1  0  0  0  0
 24 23  1  0  0  0  0
 25 23  1  0  0  0  0
 26 32  1  0  0  0  0
 27 26  2  0  0  0  0
 27 29  1  0  0  0  0
 28 27  1  0  0  0  0
 29 30  1  0  0  0  0
 30 31  1  0  0  0  0
 32 30  2  0  0  0  0
M  END
>  <minimizedAffinity>
-5.02788782

$$$$

 OpenBabel03252504513D

 32 34  0  0  0  0  0  0  0  0999 V2000
   39.9240   31.4880   41.1840 C   0  0  0  0  0  0  0  0  0  0  0  0
   39.0440   32.5070   40.7920 C   0  0  0  0  0  0  0  0  0  0  0  0
   37.7430   32.1110   40.5140 C   0  0  0  0  0  0  0  0  0  0  0  0
   37.4070   30.7940   40.6350 N   0  0  0  0  0  0  0  0  0  0  0  0
   38.2780   29.8630   41.0110 C   0  0  0  0  0  0  0  0  0  0  0  0
   39.5590   30.2010   41.2930 N   0  0  0  0  0  0  0  0  0  0  0  0
   40.9640   31.7120   41.4210 H   0  0  0  0  0  0  0  0  0  0  0  0
   37.0410   32.8730   40.2100 H   0  0  0  0  0  0  0  0  0  0  0  0
   37.6890   28.9040   43.8430 Cl  0  0  0  0  0  0  0  0  0  0  0  0
   37.5690   27.9480   42.3680 C   0  0  0  0  0  0  0  0  0  0  0  0
   37.8590   28.4720   41.1220 C   0  0  0  0  0  0  0  0  0  0  0  0
   37.7550   27.6950   39.9890 C   0  0  0  0  0  0  0  0  0  0  0  0
   37.3540   26.3720   40.0980 C   0  0  0  0  0  0  0  0  0  0  0  0
   37.0740   25.8870   41.3680 C   0  0  0  0  0  0  0  0  0  0  0  0
   36.5720   24.2120   41.4650 Cl  0  0  0  0  0  0  0  0  0  0  0  0
   37.1670   26.6350   42.5280 C   0  0  0  0  0  0  0  0  0  0  0  0
   37.9870   28.1320   39.0280 H   0  0  0  0  0  0  0  0  0  0  0  0
   37.2640   25.7400   39.2240 H   0  0  0  0  0  0  0  0  0  0  0  0
   36.9310   26.1850   43.4850 H   0  0  0  0  0  0  0  0  0  0  0  0
   39.5540   33.8460   40.7130 C   0  0  0  0  0  0  0  0  0  0  0  0
   40.1190   34.0930   41.6350 H   0  0  0  0  0  0  0  0  0  0  0  0
   38.7570   34.5830   40.5910 H   0  0  0  0  0  0  0  0  0  0  0  0
   40.5480   33.9190   39.5630 C   0  0  0  0  0  0  0  0  0  0  0  0
   40.2830   34.7280   38.8440 H   0  0  0  0  0  0  0  0  0  0  0  0
   40.5160   32.9650   39.0400 H   0  0  0  0  0  0  0  0  0  0  0  0
   41.8840   34.2030   40.2030 C   0  0  0  0  0  0  0  0  0  0  0  0
   43.0720   33.5900   39.7010 C   0  0  0  0  0  0  0  0  0  0  0  0
   43.1330   32.9320   38.9000 H   0  0  0  0  0  0  0  0  0  0  0  0
   44.3350   34.2790   40.8280 S   0  0  0  0  0  0  0  0  0  0  0  0
   43.0250   35.2830   41.7870 C   0  0  0  0  0  0  0  0  0  0  0  0
   43.1480   35.9720   42.6650 H   0  0  0  0  0  0  0  0  0  0  0  0
   42.0480   35.0100   41.2380 N   0  0  0  0  0  0  0  0  0  0  0  0
  1  6  1  0  0  0  0
  1  7  1  0  0  0  0
  2  1  2  0  0  0  0
  3  4  2  0  0  0  0
  3  2  1  0  0  0  0
  4  5  1  0  0  0  0
  5 11  1  0  0  0  0
  5  6  2  0  0  0  0
  8  3  1  0  0  0  0
 10 16  1  0  0  0  0
 10  9  1  0  0  0  0
 11 10  2  0  0  0  0
 12 13  2  0  0  0  0
 12 11  1  0  0  0  0
 13 14  1  0  0  0  0
 14 15  1  0  0  0  0
 14 16  2  0  0  0  0
 16 19  1  0  0  0  0
 17 12  1  0  0  0  0
 18 13  1  0  0  0  0
 20  2  1  0  0  0  0
 20 21  1  0  0  0  0
 22 20  1  0  0  0  0
 23 26  1  0  0  0  0
 23 20  1  0  0  0  0
 24 23  1  0  0  0  0
 25 23  1  0  0  0  0
 26 32  1  0  0  0  0
 27 26  2  0  0  0  0
 27 29  1  0  0  0  0
 28 27  1  0  0  0  0
 29 30  1  0  0  0  0
 30 31  1  0  0  0  0
 32 30  2  0  0  0  0
M  END
>  <minimizedAffinity>
-4.93131828

$$$$

 OpenBabel03252504513D

 32 34  0  0  0  0  0  0  0  0999 V2000
   40.7400   31.4810   39.1970 C   0  0  0  0  0  0  0  0  0  0  0  0
   40.4510   32.8540   39.2240 C   0  0  0  0  0  0  0  0  0  0  0  0
   39.4060   33.2360   40.0530 C   0  0  0  0  0  0  0  0  0  0  0  0
   38.7420   32.2850   40.7700 N   0  0  0  0  0  0  0  0  0  0  0  0
   39.0530   30.9940   40.7110 C   0  0  0  0  0  0  0  0  0  0  0  0
   40.0650   30.5720   39.9160 N   0  0  0  0  0  0  0  0  0  0  0  0
   41.5460   31.0950   38.5710 H   0  0  0  0  0  0  0  0  0  0  0  0
   39.1600   34.2870   40.0970 H   0  0  0  0  0  0  0  0  0  0  0  0
   36.6610   29.7360   39.3030 Cl  0  0  0  0  0  0  0  0  0  0  0  0
   37.2040   29.4010   40.9450 C   0  0  0  0  0  0  0  0  0  0  0  0
   38.3050   30.0240   41.5010 C   0  0  0  0  0  0  0  0  0  0  0  0
   38.7020   29.7390   42.7890 C   0  0  0  0  0  0  0  0  0  0  0  0
   37.9880   28.8150   43.5390 C   0  0  0  0  0  0  0  0  0  0  0  0
   36.8890   28.2140   42.9410 C   0  0  0  0  0  0  0  0  0  0  0  0
   36.0140   27.0540   43.9190 Cl  0  0  0  0  0  0  0  0  0  0  0  0
   36.4600   28.4740   41.6520 C   0  0  0  0  0  0  0  0  0  0  0  0
   39.5670   30.2410   43.1970 H   0  0  0  0  0  0  0  0  0  0  0  0
   38.2780   28.5730   44.5520 H   0  0  0  0  0  0  0  0  0  0  0  0
   35.5910   27.9640   41.2550 H   0  0  0  0  0  0  0  0  0  0  0  0
   41.2470   33.7270   38.4090 C   0  0  0  0  0  0  0  0  0  0  0  0
   40.6710   34.0440   37.5160 H   0  0  0  0  0  0  0  0  0  0  0  0
   42.1690   33.2460   38.0700 H   0  0  0  0  0  0  0  0  0  0  0  0
   41.5480   34.9890   39.2030 C   0  0  0  0  0  0  0  0  0  0  0  0
   40.6610   35.3260   39.7890 H   0  0  0  0  0  0  0  0  0  0  0  0
   41.8120   35.7700   38.4930 H   0  0  0  0  0  0  0  0  0  0  0  0
   42.6790   34.6210   40.1310 C   0  0  0  0  0  0  0  0  0  0  0  0
   43.8340   33.9440   39.6310 C   0  0  0  0  0  0  0  0  0  0  0  0
   44.0000   33.6560   38.6480 H   0  0  0  0  0  0  0  0  0  0  0  0
   44.8300   33.7660   41.1530 S   0  0  0  0  0  0  0  0  0  0  0  0
   43.5010   34.6440   42.2040 C   0  0  0  0  0  0  0  0  0  0  0  0
   43.4910   34.8780   43.3030 H   0  0  0  0  0  0  0  0  0  0  0  0
   42.6850   34.8880   41.4260 N   0  0  0  0  0  0  0  0  0  0  0  0
  1  2  2  0  0  0  0
  1  6  1  0  0  0  0
  2  3  1  0  0  0  0
  3  8  1  0  0  0  0
  3  4  2  0  0  0  0
  5  4  1  0  0  0  0
  5 11  1  0  0  0  0
  6  5  2  0  0  0  0
  7  1  1  0  0  0  0
  9 10  1  0  0  0  0
 10 11  2  0  0  0  0
 10 16  1  0  0  0  0
 11 12  1  0  0  0  0
 12 17  1  0  0  0  0
 12 13  2  0  0  0  0
 13 18  1  0  0  0  0
 14 13  1  0  0  0  0
 14 15  1  0  0  0  0
 16 14  2  0  0  0  0
 19 16  1  0  0  0  0
 20 23  1  0  0  0  0
 20  2  1  0  0  0  0
 21 20  1  0  0  0  0
 22 20  1  0  0  0  0
 23 24  1  0  0  0  0
 23 26  1  0  0  0  0
 25 23  1  0  0  0  0
 26 32  1  0  0  0  0
 27 26  2  0  0  0  0
 27 29  1  0  0  0  0
 28 27  1  0  0  0  0
 29 30  1  0  0  0  0
 30 31  1  0  0  0  0
 32 30  2  0  0  0  0
M  END
>  <minimizedAffinity>
-4.87492466

$$$$

 OpenBabel03252504513D

 32 34  0  0  0  0  0  0  0  0999 V2000
   33.6090   28.9570   38.0990 C   0  0  0  0  0  0  0  0  0  0  0  0
   34.1840   28.9790   36.8200 C   0  0  0  0  0  0  0  0  0  0  0  0
   35.5440   28.7090   36.7620 C   0  0  0  0  0  0  0  0  0  0  0  0
   36.2210   28.4470   37.9170 N   0  0  0  0  0  0  0  0  0  0  0  0
   35.6310   28.4380   39.1090 C   0  0  0  0  0  0  0  0  0  0  0  0
   34.3060   28.6960   39.2150 N   0  0  0  0  0  0  0  0  0  0  0  0
   32.5460   29.1590   38.2340 H   0  0  0  0  0  0  0  0  0  0  0  0
   36.0160   28.7170   35.7910 H   0  0  0  0  0  0  0  0  0  0  0  0
   36.2070   30.8410   40.8910 Cl  0  0  0  0  0  0  0  0  0  0  0  0
   36.7180   29.1790   41.1770 C   0  0  0  0  0  0  0  0  0  0  0  0
   36.4090   28.1510   40.3070 C   0  0  0  0  0  0  0  0  0  0  0  0
   36.8250   26.8620   40.5620 C   0  0  0  0  0  0  0  0  0  0  0  0
   37.5650   26.5930   41.7040 C   0  0  0  0  0  0  0  0  0  0  0  0
   37.8530   27.6550   42.5480 C   0  0  0  0  0  0  0  0  0  0  0  0
   38.7890   27.2750   43.9790 Cl  0  0  0  0  0  0  0  0  0  0  0  0
   37.4530   28.9610   42.3280 C   0  0  0  0  0  0  0  0  0  0  0  0
   36.5670   26.0790   39.8640 H   0  0  0  0  0  0  0  0  0  0  0  0
   37.9040   25.5900   41.9270 H   0  0  0  0  0  0  0  0  0  0  0  0
   37.7180   29.7380   43.0350 H   0  0  0  0  0  0  0  0  0  0  0  0
   33.3320   29.2710   35.7030 C   0  0  0  0  0  0  0  0  0  0  0  0
   33.3810   28.4500   34.9600 H   0  0  0  0  0  0  0  0  0  0  0  0
   33.6140   30.2020   35.2030 H   0  0  0  0  0  0  0  0  0  0  0  0
   31.8930   29.3280   36.1930 C   0  0  0  0  0  0  0  0  0  0  0  0
   31.8410   29.4130   37.3030 H   0  0  0  0  0  0  0  0  0  0  0  0
   31.4060   28.4030   35.8920 H   0  0  0  0  0  0  0  0  0  0  0  0
   31.2960   30.5530   35.5460 C   0  0  0  0  0  0  0  0  0  0  0  0
   31.3750   30.7360   34.1320 C   0  0  0  0  0  0  0  0  0  0  0  0
   31.8220   30.0910   33.4520 H   0  0  0  0  0  0  0  0  0  0  0  0
   30.5140   32.3350   33.9290 S   0  0  0  0  0  0  0  0  0  0  0  0
   30.1950   32.4760   35.8050 C   0  0  0  0  0  0  0  0  0  0  0  0
   29.6720   33.2810   36.3880 H   0  0  0  0  0  0  0  0  0  0  0  0
   30.6770   31.5110   36.2150 N   0  0  0  0  0  0  0  0  0  0  0  0
  1  7  1  0  0  0  0
  1  6  1  0  0  0  0
  2  1  2  0  0  0  0
  3  2  1  0  0  0  0
  3  4  2  0  0  0  0
  4  5  1  0  0  0  0
  5  6  2  0  0  0  0
  5 11  1  0  0  0  0
  8  3  1  0  0  0  0
  9 10  1  0  0  0  0
 10 16  1  0  0  0  0
 11 12  1  0  0  0  0
 11 10  2  0  0  0  0
 12 13  2  0  0  0  0
 13 18  1  0  0  0  0
 13 14  1  0  0  0  0
 14 15  1  0  0  0  0
 16 14  2  0  0  0  0
 16 19  1  0  0  0  0
 17 12  1  0  0  0  0
 20 23  1  0  0  0  0
 20  2  1  0  0  0  0
 21 20  1  0  0  0  0
 22 20  1  0  0  0  0
 23 24  1  0  0  0  0
 25 23  1  0  0  0  0
 26 23  1  0  0  0  0
 26 32  1  0  0  0  0
 27 26  2  0  0  0  0
 28 27  1  0  0  0  0
 29 27  1  0  0  0  0
 29 30  1  0  0  0  0
 30 32  2  0  0  0  0
 30 31  1  0  0  0  0
M  END
>  <minimizedAffinity>
-4.85605478

$$$$

 OpenBabel03252504513D

 32 34  0  0  0  0  0  0  0  0999 V2000
   37.2040   31.1680   38.3170 C   0  0  0  0  0  0  0  0  0  0  0  0
   36.9680   31.6750   39.6040 C   0  0  0  0  0  0  0  0  0  0  0  0
   36.2650   30.8420   40.4630 C   0  0  0  0  0  0  0  0  0  0  0  0
   35.8570   29.6190   40.0200 N   0  0  0  0  0  0  0  0  0  0  0  0
   36.1040   29.1820   38.7890 C   0  0  0  0  0  0  0  0  0  0  0  0
   36.7870   29.9590   37.9150 N   0  0  0  0  0  0  0  0  0  0  0  0
   37.7490   31.7580   37.5790 H   0  0  0  0  0  0  0  0  0  0  0  0
   36.0690   31.2030   41.4620 H   0  0  0  0  0  0  0  0  0  0  0  0
   33.6270   29.1730   37.0140 Cl  0  0  0  0  0  0  0  0  0  0  0  0
   34.5250   27.7600   37.5660 C   0  0  0  0  0  0  0  0  0  0  0  0
   35.6410   27.8640   38.3740 C   0  0  0  0  0  0  0  0  0  0  0  0
   36.3200   26.7380   38.7880 C   0  0  0  0  0  0  0  0  0  0  0  0
   35.8770   25.4850   38.3900 C   0  0  0  0  0  0  0  0  0  0  0  0
   34.7510   25.4280   37.5800 C   0  0  0  0  0  0  0  0  0  0  0  0
   34.2230   23.8290   37.1000 Cl  0  0  0  0  0  0  0  0  0  0  0  0
   34.0440   26.5350   37.1440 C   0  0  0  0  0  0  0  0  0  0  0  0
   37.1900   26.8500   39.4180 H   0  0  0  0  0  0  0  0  0  0  0  0
   36.3910   24.5850   38.7010 H   0  0  0  0  0  0  0  0  0  0  0  0
   33.1730   26.4090   36.5130 H   0  0  0  0  0  0  0  0  0  0  0  0
   37.4660   32.9840   39.9150 C   0  0  0  0  0  0  0  0  0  0  0  0
   36.7230   33.5400   40.5220 H   0  0  0  0  0  0  0  0  0  0  0  0
   37.6800   33.5670   39.0150 H   0  0  0  0  0  0  0  0  0  0  0  0
   38.7090   32.8370   40.7790 C   0  0  0  0  0  0  0  0  0  0  0  0
   38.9330   31.7660   40.9980 H   0  0  0  0  0  0  0  0  0  0  0  0
   38.5200   33.3500   41.7190 H   0  0  0  0  0  0  0  0  0  0  0  0
   39.8300   33.4520   39.9800 C   0  0  0  0  0  0  0  0  0  0  0  0
   40.6150   32.6500   39.0970 C   0  0  0  0  0  0  0  0  0  0  0  0
   40.5030   31.6330   38.9270 H   0  0  0  0  0  0  0  0  0  0  0  0
   41.7780   33.8900   38.4250 S   0  0  0  0  0  0  0  0  0  0  0  0
   40.9930   35.2860   39.4640 C   0  0  0  0  0  0  0  0  0  0  0  0
   41.2580   36.3760   39.5220 H   0  0  0  0  0  0  0  0  0  0  0  0
   40.1560   34.7330   40.0350 N   0  0  0  0  0  0  0  0  0  0  0  0
  1  2  1  0  0  0  0
  2 20  1  0  0  0  0
  2  3  2  0  0  0  0
  3  8  1  0  0  0  0
  4  3  1  0  0  0  0
  5  4  2  0  0  0  0
  6  1  2  0  0  0  0
  6  5  1  0  0  0  0
  7  1  1  0  0  0  0
  9 10  1  0  0  0  0
 10 11  1  0  0  0  0
 11 12  2  0  0  0  0
 11  5  1  0  0  0  0
 12 17  1  0  0  0  0
 13 18  1  0  0  0  0
 13 12  1  0  0  0  0
 14 13  2  0  0  0  0
 15 14  1  0  0  0  0
 16 10  2  0  0  0  0
 16 14  1  0  0  0  0
 19 16  1  0  0  0  0
 20 21  1  0  0  0  0
 20 23  1  0  0  0  0
 22 20  1  0  0  0  0
 23 24  1  0  0  0  0
 23 25  1  0  0  0  0
 26 32  1  0  0  0  0
 26 23  1  0  0  0  0
 27 26  2  0  0  0  0
 28 27  1  0  0  0  0
 29 27  1  0  0  0  0
 29 30  1  0  0  0  0
 30 31  1  0  0  0  0
 30 32  2  0  0  0  0
M  END
>  <minimizedAffinity>
-4.75525093

$$$$

 OpenBabel03252504513D

 32 34  0  0  0  0  0  0  0  0999 V2000
   35.3190   29.5390   40.3860 C   0  0  0  0  0  0  0  0  0  0  0  0
   34.9720   28.7290   39.2940 C   0  0  0  0  0  0  0  0  0  0  0  0
   35.7740   27.6150   39.0880 C   0  0  0  0  0  0  0  0  0  0  0  0
   36.8180   27.3800   39.9330 N   0  0  0  0  0  0  0  0  0  0  0  0
   37.1080   28.1780   40.9560 C   0  0  0  0  0  0  0  0  0  0  0  0
   36.3550   29.2770   41.1970 N   0  0  0  0  0  0  0  0  0  0  0  0
   34.7420   30.4340   40.6200 H   0  0  0  0  0  0  0  0  0  0  0  0
   35.5320   26.9710   38.2560 H   0  0  0  0  0  0  0  0  0  0  0  0
   36.3780   27.1820   43.7420 Cl  0  0  0  0  0  0  0  0  0  0  0  0
   38.0050   27.4140   43.1060 C   0  0  0  0  0  0  0  0  0  0  0  0
   38.2380   27.8730   41.8240 C   0  0  0  0  0  0  0  0  0  0  0  0
   39.5240   28.0430   41.3590 C   0  0  0  0  0  0  0  0  0  0  0  0
   40.5980   27.7520   42.1870 C   0  0  0  0  0  0  0  0  0  0  0  0
   40.3170   27.2940   43.4670 C   0  0  0  0  0  0  0  0  0  0  0  0
   41.6990   26.9370   44.4830 Cl  0  0  0  0  0  0  0  0  0  0  0  0
   39.0410   27.1100   43.9700 C   0  0  0  0  0  0  0  0  0  0  0  0
   39.6760   28.4030   40.3510 H   0  0  0  0  0  0  0  0  0  0  0  0
   41.6170   27.8770   41.8470 H   0  0  0  0  0  0  0  0  0  0  0  0
   38.9020   26.7490   44.9810 H   0  0  0  0  0  0  0  0  0  0  0  0
   33.8410   29.1150   38.5010 C   0  0  0  0  0  0  0  0  0  0  0  0
   33.8420   30.2130   38.3440 H   0  0  0  0  0  0  0  0  0  0  0  0
   32.8940   28.8370   38.9720 H   0  0  0  0  0  0  0  0  0  0  0  0
   33.9750   28.4790   37.1250 C   0  0  0  0  0  0  0  0  0  0  0  0
   33.8720   27.3700   37.1750 H   0  0  0  0  0  0  0  0  0  0  0  0
   34.9660   28.7200   36.7460 H   0  0  0  0  0  0  0  0  0  0  0  0
   32.8610   29.0710   36.2980 C   0  0  0  0  0  0  0  0  0  0  0  0
   32.8270   28.8750   34.8840 C   0  0  0  0  0  0  0  0  0  0  0  0
   33.5170   28.3430   34.3200 H   0  0  0  0  0  0  0  0  0  0  0  0
   31.3080   29.7870   34.4330 S   0  0  0  0  0  0  0  0  0  0  0  0
   30.9840   30.2760   36.2490 C   0  0  0  0  0  0  0  0  0  0  0  0
   30.1500   30.8830   36.6930 H   0  0  0  0  0  0  0  0  0  0  0  0
   31.8710   29.7880   36.8030 N   0  0  0  0  0  0  0  0  0  0  0  0
  1  7  1  0  0  0  0
  1  6  1  0  0  0  0
  2  1  2  0  0  0  0
  3  2  1  0  0  0  0
  3  4  2  0  0  0  0
  4  5  1  0  0  0  0
  5  6  2  0  0  0  0
  5 11  1  0  0  0  0
  8  3  1  0  0  0  0
 10  9  1  0  0  0  0
 10 16  1  0  0  0  0
 11 10  2  0  0  0  0
 12 11  1  0  0  0  0
 12 13  2  0  0  0  0
 13 14  1  0  0  0  0
 14 16  2  0  0  0  0
 14 15  1  0  0  0  0
 16 19  1  0  0  0  0
 17 12  1  0  0  0  0
 18 13  1  0  0  0  0
 20 22  1  0  0  0  0
 20  2  1  0  0  0  0
 21 20  1  0  0  0  0
 23 24  1  0  0  0  0
 23 20  1  0  0  0  0
 25 23  1  0  0  0  0
 26 32  1  0  0  0  0
 26 23  1  0  0  0  0
 27 26  2  0  0  0  0
 28 27  1  0  0  0  0
 29 27  1  0  0  0  0
 29 30  1  0  0  0  0
 30 31  1  0  0  0  0
 30 32  2  0  0  0  0
M  END
>  <minimizedAffinity>
-4.75252867

$$$$

 OpenBabel03252504513D

 32 34  0  0  0  0  0  0  0  0999 V2000
   36.8680   27.8040   41.3240 C   0  0  0  0  0  0  0  0  0  0  0  0
   37.2300   28.9760   42.0060 C   0  0  0  0  0  0  0  0  0  0  0  0
   36.7950   30.1650   41.4380 C   0  0  0  0  0  0  0  0  0  0  0  0
   36.0660   30.1270   40.2870 N   0  0  0  0  0  0  0  0  0  0  0  0
   35.7470   28.9890   39.6760 C   0  0  0  0  0  0  0  0  0  0  0  0
   36.1490   27.8030   40.1920 N   0  0  0  0  0  0  0  0  0  0  0  0
   37.1690   26.8260   41.7020 H   0  0  0  0  0  0  0  0  0  0  0  0
   37.0570   31.0850   41.9400 H   0  0  0  0  0  0  0  0  0  0  0  0
   37.3710   28.9400   37.0980 Cl  0  0  0  0  0  0  0  0  0  0  0  0
   35.6140   28.9920   37.2280 C   0  0  0  0  0  0  0  0  0  0  0  0
   34.9640   29.0130   38.4480 C   0  0  0  0  0  0  0  0  0  0  0  0
   33.5880   29.0540   38.5120 C   0  0  0  0  0  0  0  0  0  0  0  0
   32.8460   29.0760   37.3410 C   0  0  0  0  0  0  0  0  0  0  0  0
   33.5400   29.0550   36.1390 C   0  0  0  0  0  0  0  0  0  0  0  0
   32.5690   29.0840   34.6820 Cl  0  0  0  0  0  0  0  0  0  0  0  0
   34.9190   29.0140   36.0330 C   0  0  0  0  0  0  0  0  0  0  0  0
   33.1070   29.0680   39.4800 H   0  0  0  0  0  0  0  0  0  0  0  0
   31.7650   29.1090   37.3640 H   0  0  0  0  0  0  0  0  0  0  0  0
   35.3890   29.0000   35.0580 H   0  0  0  0  0  0  0  0  0  0  0  0
   38.0020   28.8450   43.2080 C   0  0  0  0  0  0  0  0  0  0  0  0
   37.9140   27.8150   43.6080 H   0  0  0  0  0  0  0  0  0  0  0  0
   37.6760   29.5440   43.9840 H   0  0  0  0  0  0  0  0  0  0  0  0
   39.4690   29.0550   42.8660 C   0  0  0  0  0  0  0  0  0  0  0  0
   39.9640   29.7470   43.5880 H   0  0  0  0  0  0  0  0  0  0  0  0
   39.5160   29.4970   41.8730 H   0  0  0  0  0  0  0  0  0  0  0  0
   40.0990   27.6860   42.9390 C   0  0  0  0  0  0  0  0  0  0  0  0
   41.3570   27.4340   42.3120 C   0  0  0  0  0  0  0  0  0  0  0  0
   41.9260   28.1190   41.7780 H   0  0  0  0  0  0  0  0  0  0  0  0
   41.6110   25.6700   42.7170 S   0  0  0  0  0  0  0  0  0  0  0  0
   39.9610   25.5830   43.6710 C   0  0  0  0  0  0  0  0  0  0  0  0
   39.4840   24.7190   44.2070 H   0  0  0  0  0  0  0  0  0  0  0  0
   39.5530   26.6570   43.5660 N   0  0  0  0  0  0  0  0  0  0  0  0
  1  7  1  0  0  0  0
  1  2  1  0  0  0  0
  2 20  1  0  0  0  0
  3  8  1  0  0  0  0
  3  2  2  0  0  0  0
  4  3  1  0  0  0  0
  5  6  1  0  0  0  0
  5  4  2  0  0  0  0
  6  1  2  0  0  0  0
  9 10  1  0  0  0  0
 10 11  1  0  0  0  0
 11 12  2  0  0  0  0
 11  5  1  0  0  0  0
 12 17  1  0  0  0  0
 13 18  1  0  0  0  0
 13 12  1  0  0  0  0
 14 13  2  0  0  0  0
 15 14  1  0  0  0  0
 16 14  1  0  0  0  0
 16 10  2  0  0  0  0
 19 16  1  0  0  0  0
 20 21  1  0  0  0  0
 20 22  1  0  0  0  0
 23 26  1  0  0  0  0
 23 20  1  0  0  0  0
 23 24  1  0  0  0  0
 25 23  1  0  0  0  0
 26 32  1  0  0  0  0
 27 29  1  0  0  0  0
 27 26  2  0  0  0  0
 28 27  1  0  0  0  0
 29 30  1  0  0  0  0
 30 31  1  0  0  0  0
 32 30  2  0  0  0  0
M  END
>  <minimizedAffinity>
-4.7286005

$$$$
