
 OpenBabel03252503173D

 34 37  0  0  0  0  0  0  0  0999 V2000
   35.9550   29.4100   39.5370 C   0  0  0  0  0  0  0  0  0  0  0  0
   34.9990   29.7510   40.3030 O   0  0  0  0  0  0  0  0  0  0  0  0
   36.9640   30.3670   38.9820 C   0  0  0  0  0  0  0  0  0  0  0  0
   37.9550   30.9890   39.6980 C   0  0  0  0  0  0  0  0  0  0  0  0
   38.6340   31.7610   38.8220 N   0  0  0  0  0  0  0  0  0  0  0  0
   38.0450   31.5940   37.6030 C   0  0  0  0  0  0  0  0  0  0  0  0
   37.0160   30.7330   37.7040 N   0  0  0  0  0  0  0  0  0  0  0  0
   38.3690   32.1770   36.3390 N   0  0  0  0  0  0  0  0  0  0  0  0
   38.1690   30.8930   40.7560 H   0  0  0  0  0  0  0  0  0  0  0  0
   39.0570   31.7300   35.7210 H   0  0  0  0  0  0  0  0  0  0  0  0
   37.8230   33.0690   36.1720 H   0  0  0  0  0  0  0  0  0  0  0  0
   39.7730   32.6170   39.0900 C   0  0  0  0  0  0  0  0  0  0  0  0
   39.9780   33.2240   40.3160 C   0  0  0  0  0  0  0  0  0  0  0  0
   39.4000   33.2060   41.2600 H   0  0  0  0  0  0  0  0  0  0  0  0
   41.5190   34.1610   40.1050 S   0  0  0  0  0  0  0  0  0  0  0  0
   41.6560   33.5590   38.3070 C   0  0  0  0  0  0  0  0  0  0  0  0
   42.4240   33.7720   37.5430 H   0  0  0  0  0  0  0  0  0  0  0  0
   40.6810   32.8620   38.1670 N   0  0  0  0  0  0  0  0  0  0  0  0
   35.4970   27.5450   38.0080 C   0  0  0  0  0  0  0  0  0  0  0  0
   36.0250   28.0220   39.2210 C   0  0  0  0  0  0  0  0  0  0  0  0
   36.5900   27.0590   40.0330 C   0  0  0  0  0  0  0  0  0  0  0  0
   36.6320   25.7570   39.6900 N   0  0  0  0  0  0  0  0  0  0  0  0
   36.1050   25.3500   38.5020 C   0  0  0  0  0  0  0  0  0  0  0  0
   35.5420   26.2460   37.6730 N   0  0  0  0  0  0  0  0  0  0  0  0
   35.0390   28.2430   37.3230 H   0  0  0  0  0  0  0  0  0  0  0  0
   36.1670   24.2870   38.2760 H   0  0  0  0  0  0  0  0  0  0  0  0
   37.1460   27.4510   41.2750 C   0  0  0  0  0  0  0  0  0  0  0  0
   36.6520   27.6460   42.5290 C   0  0  0  0  0  0  0  0  0  0  0  0
   37.4280   28.0220   43.5320 C   0  0  0  0  0  0  0  0  0  0  0  0
   38.7400   28.2070   43.2680 C   0  0  0  0  0  0  0  0  0  0  0  0
   38.8680   27.8210   41.4810 S   0  0  0  0  0  0  0  0  0  0  0  0
   35.5620   27.4630   42.6240 H   0  0  0  0  0  0  0  0  0  0  0  0
   37.1080   28.1960   44.5520 H   0  0  0  0  0  0  0  0  0  0  0  0
   39.5870   28.5090   43.8870 H   0  0  0  0  0  0  0  0  0  0  0  0
  1  2  2  0  0  0  0
  3  1  1  0  0  0  0
  3  4  2  0  0  0  0
  4  9  1  0  0  0  0
  5 12  1  0  0  0  0
  5  4  1  0  0  0  0
  6  7  2  0  0  0  0
  6  5  1  0  0  0  0
  7  3  1  0  0  0  0
  8  6  1  0  0  0  0
 10  8  1  0  0  0  0
 11  8  1  0  0  0  0
 12 13  2  0  0  0  0
 13 14  1  0  0  0  0
 15 13  1  0  0  0  0
 16 15  1  0  0  0  0
 17 16  1  0  0  0  0
 18 16  2  0  0  0  0
 18 12  1  0  0  0  0
 19 20  1  0  0  0  0
 20  1  1  0  0  0  0
 20 21  2  0  0  0  0
 21 27  1  0  0  0  0
 22 21  1  0  0  0  0
 23 22  2  0  0  0  0
 24 19  2  0  0  0  0
 24 23  1  0  0  0  0
 25 19  1  0  0  0  0
 26 23  1  0  0  0  0
 27 31  1  0  0  0  0
 27 28  2  0  0  0  0
 28 32  1  0  0  0  0
 28 29  1  0  0  0  0
 29 33  1  0  0  0  0
 30 29  2  0  0  0  0
 30 34  1  0  0  0  0
 31 30  1  0  0  0  0
M  END
>  <minimizedAffinity>
-5.6659379

$$$$

 OpenBabel03252503173D

 34 37  0  0  0  0  0  0  0  0999 V2000
   37.5590   30.8240   40.5670 C   0  0  0  0  0  0  0  0  0  0  0  0
   36.7270   31.7600   40.7880 O   0  0  0  0  0  0  0  0  0  0  0  0
   38.5720   30.8490   39.4630 C   0  0  0  0  0  0  0  0  0  0  0  0
   39.4200   29.8230   39.1330 C   0  0  0  0  0  0  0  0  0  0  0  0
   40.1600   30.2590   38.0910 N   0  0  0  0  0  0  0  0  0  0  0  0
   39.7500   31.5300   37.8130 C   0  0  0  0  0  0  0  0  0  0  0  0
   38.7700   31.8920   38.6610 N   0  0  0  0  0  0  0  0  0  0  0  0
   40.2020   32.4430   36.8120 N   0  0  0  0  0  0  0  0  0  0  0  0
   39.4970   28.8490   39.6000 H   0  0  0  0  0  0  0  0  0  0  0  0
   39.7820   32.4360   35.8740 H   0  0  0  0  0  0  0  0  0  0  0  0
   40.9750   33.0680   37.1760 H   0  0  0  0  0  0  0  0  0  0  0  0
   41.2000   29.5430   37.3790 C   0  0  0  0  0  0  0  0  0  0  0  0
   41.3590   28.1720   37.4700 C   0  0  0  0  0  0  0  0  0  0  0  0
   40.8050   27.3960   38.0340 H   0  0  0  0  0  0  0  0  0  0  0  0
   42.7790   27.8070   36.4010 S   0  0  0  0  0  0  0  0  0  0  0  0
   42.9480   29.6520   35.9720 C   0  0  0  0  0  0  0  0  0  0  0  0
   43.6720   30.1640   35.3160 H   0  0  0  0  0  0  0  0  0  0  0  0
   42.0570   30.1700   36.5990 N   0  0  0  0  0  0  0  0  0  0  0  0
   38.2800   29.6640   42.6070 C   0  0  0  0  0  0  0  0  0  0  0  0
   37.4800   29.7090   41.4510 C   0  0  0  0  0  0  0  0  0  0  0  0
   36.6520   28.6190   41.2690 C   0  0  0  0  0  0  0  0  0  0  0  0
   36.6120   27.5880   42.1340 N   0  0  0  0  0  0  0  0  0  0  0  0
   37.4090   27.5960   43.2390 C   0  0  0  0  0  0  0  0  0  0  0  0
   38.2360   28.6330   43.4650 N   0  0  0  0  0  0  0  0  0  0  0  0
   38.9530   30.4830   42.8130 H   0  0  0  0  0  0  0  0  0  0  0  0
   37.3360   26.7370   43.9030 H   0  0  0  0  0  0  0  0  0  0  0  0
   35.8110   28.5810   40.1300 C   0  0  0  0  0  0  0  0  0  0  0  0
   34.6010   29.1170   39.8130 C   0  0  0  0  0  0  0  0  0  0  0  0
   34.0350   28.9100   38.6350 C   0  0  0  0  0  0  0  0  0  0  0  0
   34.7070   28.1420   37.7480 C   0  0  0  0  0  0  0  0  0  0  0  0
   36.2340   27.6910   38.6550 S   0  0  0  0  0  0  0  0  0  0  0  0
   34.1460   29.7280   40.6190 H   0  0  0  0  0  0  0  0  0  0  0  0
   33.0780   29.3020   38.3120 H   0  0  0  0  0  0  0  0  0  0  0  0
   34.4840   27.8150   36.7300 H   0  0  0  0  0  0  0  0  0  0  0  0
  1  2  2  0  0  0  0
  1 20  1  0  0  0  0
  3  1  1  0  0  0  0
  4  3  2  0  0  0  0
  4  9  1  0  0  0  0
  5  4  1  0  0  0  0
  6  5  1  0  0  0  0
  6  7  2  0  0  0  0
  7  3  1  0  0  0  0
  8 11  1  0  0  0  0
  8  6  1  0  0  0  0
 10  8  1  0  0  0  0
 12 13  2  0  0  0  0
 12  5  1  0  0  0  0
 13 14  1  0  0  0  0
 15 13  1  0  0  0  0
 16 15  1  0  0  0  0
 16 18  2  0  0  0  0
 17 16  1  0  0  0  0
 18 12  1  0  0  0  0
 19 25  1  0  0  0  0
 19 24  1  0  0  0  0
 20 19  2  0  0  0  0
 21 20  1  0  0  0  0
 21 22  2  0  0  0  0
 22 23  1  0  0  0  0
 23 24  2  0  0  0  0
 23 26  1  0  0  0  0
 27 21  1  0  0  0  0
 28 27  2  0  0  0  0
 28 32  1  0  0  0  0
 29 28  1  0  0  0  0
 30 29  2  0  0  0  0
 30 31  1  0  0  0  0
 31 27  1  0  0  0  0
 33 29  1  0  0  0  0
 34 30  1  0  0  0  0
M  END
>  <minimizedAffinity>
-5.62331676

$$$$

 OpenBabel03252503173D

 34 37  0  0  0  0  0  0  0  0999 V2000
   35.1830   28.9180   39.3410 C   0  0  0  0  0  0  0  0  0  0  0  0
   33.9470   29.1990   39.4450 O   0  0  0  0  0  0  0  0  0  0  0  0
   36.0530   28.5380   40.5000 C   0  0  0  0  0  0  0  0  0  0  0  0
   36.8250   27.4070   40.5830 C   0  0  0  0  0  0  0  0  0  0  0  0
   37.4430   27.4530   41.7830 N   0  0  0  0  0  0  0  0  0  0  0  0
   37.0370   28.6010   42.3980 C   0  0  0  0  0  0  0  0  0  0  0  0
   36.1790   29.2680   41.6050 N   0  0  0  0  0  0  0  0  0  0  0  0
   37.3860   29.1290   43.6790 N   0  0  0  0  0  0  0  0  0  0  0  0
   36.9320   26.6220   39.8440 H   0  0  0  0  0  0  0  0  0  0  0  0
   38.2110   29.7340   43.7840 H   0  0  0  0  0  0  0  0  0  0  0  0
   36.7070   28.8150   44.4270 H   0  0  0  0  0  0  0  0  0  0  0  0
   38.3670   26.4860   42.3430 C   0  0  0  0  0  0  0  0  0  0  0  0
   38.3030   25.1360   42.0500 C   0  0  0  0  0  0  0  0  0  0  0  0
   37.6220   24.5480   41.4040 H   0  0  0  0  0  0  0  0  0  0  0  0
   39.6630   24.4000   43.0000 S   0  0  0  0  0  0  0  0  0  0  0  0
   40.1330   26.1130   43.6790 C   0  0  0  0  0  0  0  0  0  0  0  0
   40.9410   26.4040   44.3730 H   0  0  0  0  0  0  0  0  0  0  0  0
   39.3250   26.8500   43.1700 N   0  0  0  0  0  0  0  0  0  0  0  0
   35.2480   28.1180   37.0220 C   0  0  0  0  0  0  0  0  0  0  0  0
   35.7210   28.9840   38.0240 C   0  0  0  0  0  0  0  0  0  0  0  0
   36.7080   29.8620   37.6210 C   0  0  0  0  0  0  0  0  0  0  0  0
   37.1850   29.8870   36.3620 N   0  0  0  0  0  0  0  0  0  0  0  0
   36.6910   29.0240   35.4310 C   0  0  0  0  0  0  0  0  0  0  0  0
   35.7280   28.1480   35.7690 N   0  0  0  0  0  0  0  0  0  0  0  0
   34.4750   27.4040   37.2650 H   0  0  0  0  0  0  0  0  0  0  0  0
   37.1130   29.0880   34.4300 H   0  0  0  0  0  0  0  0  0  0  0  0
   37.2430   30.7710   38.5660 C   0  0  0  0  0  0  0  0  0  0  0  0
   36.8070   31.9270   39.1380 C   0  0  0  0  0  0  0  0  0  0  0  0
   37.5390   32.5870   40.0210 C   0  0  0  0  0  0  0  0  0  0  0  0
   38.7460   32.0680   40.3400 C   0  0  0  0  0  0  0  0  0  0  0  0
   38.8350   30.5500   39.3150 S   0  0  0  0  0  0  0  0  0  0  0  0
   35.8030   32.2550   38.7990 H   0  0  0  0  0  0  0  0  0  0  0  0
   37.2600   33.5080   40.5160 H   0  0  0  0  0  0  0  0  0  0  0  0
   39.5370   32.3910   41.0180 H   0  0  0  0  0  0  0  0  0  0  0  0
  1  2  2  0  0  0  0
  1  3  1  0  0  0  0
  3  4  2  0  0  0  0
  3  7  1  0  0  0  0
  4  5  1  0  0  0  0
  5 12  1  0  0  0  0
  5  6  1  0  0  0  0
  6  8  1  0  0  0  0
  7  6  2  0  0  0  0
  8 10  1  0  0  0  0
  8 11  1  0  0  0  0
  9  4  1  0  0  0  0
 12 18  1  0  0  0  0
 13 12  2  0  0  0  0
 13 15  1  0  0  0  0
 14 13  1  0  0  0  0
 15 16  1  0  0  0  0
 16 17  1  0  0  0  0
 18 16  2  0  0  0  0
 19 25  1  0  0  0  0
 19 20  1  0  0  0  0
 20  1  1  0  0  0  0
 21 20  2  0  0  0  0
 21 27  1  0  0  0  0
 22 21  1  0  0  0  0
 23 24  1  0  0  0  0
 23 22  2  0  0  0  0
 24 19  2  0  0  0  0
 26 23  1  0  0  0  0
 27 28  2  0  0  0  0
 27 31  1  0  0  0  0
 28 29  1  0  0  0  0
 29 30  2  0  0  0  0
 29 33  1  0  0  0  0
 30 34  1  0  0  0  0
 31 30  1  0  0  0  0
 32 28  1  0  0  0  0
M  END
>  <minimizedAffinity>
-5.59250021

$$$$

 OpenBabel03252503173D

 34 37  0  0  0  0  0  0  0  0999 V2000
   37.6230   27.5020   42.7270 C   0  0  0  0  0  0  0  0  0  0  0  0
   36.5820   27.0570   43.3070 O   0  0  0  0  0  0  0  0  0  0  0  0
   37.7200   28.8690   42.1200 C   0  0  0  0  0  0  0  0  0  0  0  0
   38.8670   29.6120   42.0050 C   0  0  0  0  0  0  0  0  0  0  0  0
   38.5130   30.7690   41.4050 N   0  0  0  0  0  0  0  0  0  0  0  0
   37.1710   30.7050   41.1710 C   0  0  0  0  0  0  0  0  0  0  0  0
   36.6840   29.5310   41.6130 N   0  0  0  0  0  0  0  0  0  0  0  0
   36.2970   31.6590   40.5630 N   0  0  0  0  0  0  0  0  0  0  0  0
   39.8660   29.3430   42.3240 H   0  0  0  0  0  0  0  0  0  0  0  0
   36.1590   31.6620   39.5450 H   0  0  0  0  0  0  0  0  0  0  0  0
   35.8610   32.3000   41.2830 H   0  0  0  0  0  0  0  0  0  0  0  0
   39.3680   31.8890   41.0610 C   0  0  0  0  0  0  0  0  0  0  0  0
   40.7490   31.8020   41.0660 C   0  0  0  0  0  0  0  0  0  0  0  0
   41.4400   30.9700   41.3040 H   0  0  0  0  0  0  0  0  0  0  0  0
   41.3090   33.4550   40.5680 S   0  0  0  0  0  0  0  0  0  0  0  0
   39.5050   34.0370   40.4200 C   0  0  0  0  0  0  0  0  0  0  0  0
   39.0980   35.0220   40.1330 H   0  0  0  0  0  0  0  0  0  0  0  0
   38.8670   33.0580   40.7210 N   0  0  0  0  0  0  0  0  0  0  0  0
   39.7210   26.6570   43.6800 C   0  0  0  0  0  0  0  0  0  0  0  0
   38.7320   26.6100   42.6810 C   0  0  0  0  0  0  0  0  0  0  0  0
   38.9340   25.6570   41.7020 C   0  0  0  0  0  0  0  0  0  0  0  0
   39.9990   24.8340   41.7010 N   0  0  0  0  0  0  0  0  0  0  0  0
   40.9280   24.9240   42.6940 C   0  0  0  0  0  0  0  0  0  0  0  0
   40.7810   25.8340   43.6730 N   0  0  0  0  0  0  0  0  0  0  0  0
   39.6280   27.3780   44.4780 H   0  0  0  0  0  0  0  0  0  0  0  0
   41.7680   24.2340   42.6430 H   0  0  0  0  0  0  0  0  0  0  0  0
   37.9860   25.5400   40.6560 C   0  0  0  0  0  0  0  0  0  0  0  0
   36.8590   24.8010   40.4610 C   0  0  0  0  0  0  0  0  0  0  0  0
   36.1450   24.9000   39.3510 C   0  0  0  0  0  0  0  0  0  0  0  0
   36.5760   25.7680   38.4090 C   0  0  0  0  0  0  0  0  0  0  0  0
   38.0900   26.4820   39.1570 S   0  0  0  0  0  0  0  0  0  0  0  0
   36.6050   24.1240   41.3020 H   0  0  0  0  0  0  0  0  0  0  0  0
   35.2420   24.3470   39.1260 H   0  0  0  0  0  0  0  0  0  0  0  0
   36.1950   26.0460   37.4250 H   0  0  0  0  0  0  0  0  0  0  0  0
  1  2  2  0  0  0  0
  3  1  1  0  0  0  0
  4  3  2  0  0  0  0
  4  9  1  0  0  0  0
  5  4  1  0  0  0  0
  6  5  1  0  0  0  0
  6  7  2  0  0  0  0
  7  3  1  0  0  0  0
  8  6  1  0  0  0  0
  8 11  1  0  0  0  0
 10  8  1  0  0  0  0
 12 13  2  0  0  0  0
 12  5  1  0  0  0  0
 13 14  1  0  0  0  0
 15 13  1  0  0  0  0
 16 15  1  0  0  0  0
 16 18  2  0  0  0  0
 17 16  1  0  0  0  0
 18 12  1  0  0  0  0
 19 25  1  0  0  0  0
 20  1  1  0  0  0  0
 20 19  2  0  0  0  0
 21 20  1  0  0  0  0
 22 21  2  0  0  0  0
 22 23  1  0  0  0  0
 23 24  2  0  0  0  0
 24 19  1  0  0  0  0
 26 23  1  0  0  0  0
 27 21  1  0  0  0  0
 28 27  2  0  0  0  0
 28 32  1  0  0  0  0
 29 28  1  0  0  0  0
 30 31  1  0  0  0  0
 30 29  2  0  0  0  0
 31 27  1  0  0  0  0
 33 29  1  0  0  0  0
 34 30  1  0  0  0  0
M  END
>  <minimizedAffinity>
-5.57165956

$$$$

 OpenBabel03252503173D

 34 37  0  0  0  0  0  0  0  0999 V2000
   37.2020   30.7100   40.7320 C   0  0  0  0  0  0  0  0  0  0  0  0
   36.1710   31.3240   41.1520 O   0  0  0  0  0  0  0  0  0  0  0  0
   38.2100   31.3080   39.7980 C   0  0  0  0  0  0  0  0  0  0  0  0
   39.4220   31.8350   40.1610 C   0  0  0  0  0  0  0  0  0  0  0  0
   40.0100   32.2620   39.0230 N   0  0  0  0  0  0  0  0  0  0  0  0
   39.1490   31.9880   38.0010 C   0  0  0  0  0  0  0  0  0  0  0  0
   38.0390   31.4000   38.4820 N   0  0  0  0  0  0  0  0  0  0  0  0
   39.2790   32.2350   36.6000 N   0  0  0  0  0  0  0  0  0  0  0  0
   39.8440   31.9030   41.1570 H   0  0  0  0  0  0  0  0  0  0  0  0
   39.7310   31.5410   35.9900 H   0  0  0  0  0  0  0  0  0  0  0  0
   38.8650   33.1710   36.3300 H   0  0  0  0  0  0  0  0  0  0  0  0
   41.3060   32.8950   38.8760 C   0  0  0  0  0  0  0  0  0  0  0  0
   42.2890   32.8160   39.8460 C   0  0  0  0  0  0  0  0  0  0  0  0
   42.3190   32.3190   40.8350 H   0  0  0  0  0  0  0  0  0  0  0  0
   43.6780   33.7660   39.1640 S   0  0  0  0  0  0  0  0  0  0  0  0
   42.6680   34.1410   37.5960 C   0  0  0  0  0  0  0  0  0  0  0  0
   42.9410   34.7220   36.6990 H   0  0  0  0  0  0  0  0  0  0  0  0
   41.6160   33.5860   37.7980 N   0  0  0  0  0  0  0  0  0  0  0  0
   38.1030   29.1260   42.3770 C   0  0  0  0  0  0  0  0  0  0  0  0
   37.3610   29.3770   41.2090 C   0  0  0  0  0  0  0  0  0  0  0  0
   36.8270   28.2560   40.6020 C   0  0  0  0  0  0  0  0  0  0  0  0
   37.0040   27.0140   41.0920 N   0  0  0  0  0  0  0  0  0  0  0  0
   37.7330   26.8290   42.2280 C   0  0  0  0  0  0  0  0  0  0  0  0
   38.2760   27.8860   42.8590 N   0  0  0  0  0  0  0  0  0  0  0  0
   38.5500   29.9560   42.9040 H   0  0  0  0  0  0  0  0  0  0  0  0
   37.8440   25.8050   42.5780 H   0  0  0  0  0  0  0  0  0  0  0  0
   36.0650   28.4160   39.4190 C   0  0  0  0  0  0  0  0  0  0  0  0
   34.8110   28.8670   39.1400 C   0  0  0  0  0  0  0  0  0  0  0  0
   34.3460   28.9090   37.9020 C   0  0  0  0  0  0  0  0  0  0  0  0
   35.1660   28.4850   36.9140 C   0  0  0  0  0  0  0  0  0  0  0  0
   36.6890   27.9990   37.8130 S   0  0  0  0  0  0  0  0  0  0  0  0
   34.2320   29.1880   40.0290 H   0  0  0  0  0  0  0  0  0  0  0  0
   33.3640   29.2540   37.6030 H   0  0  0  0  0  0  0  0  0  0  0  0
   35.0490   28.4100   35.8320 H   0  0  0  0  0  0  0  0  0  0  0  0
  1  2  2  0  0  0  0
  1 20  1  0  0  0  0
  3  4  2  0  0  0  0
  3  1  1  0  0  0  0
  4  9  1  0  0  0  0
  5  4  1  0  0  0  0
  6  7  2  0  0  0  0
  6  5  1  0  0  0  0
  7  3  1  0  0  0  0
  8  6  1  0  0  0  0
 10  8  1  0  0  0  0
 11  8  1  0  0  0  0
 12  5  1  0  0  0  0
 12 13  2  0  0  0  0
 13 14  1  0  0  0  0
 15 13  1  0  0  0  0
 16 18  2  0  0  0  0
 16 15  1  0  0  0  0
 17 16  1  0  0  0  0
 18 12  1  0  0  0  0
 19 24  1  0  0  0  0
 19 25  1  0  0  0  0
 20 19  2  0  0  0  0
 21 22  2  0  0  0  0
 21 20  1  0  0  0  0
 22 23  1  0  0  0  0
 23 26  1  0  0  0  0
 23 24  2  0  0  0  0
 27 21  1  0  0  0  0
 28 27  2  0  0  0  0
 28 32  1  0  0  0  0
 29 28  1  0  0  0  0
 30 31  1  0  0  0  0
 30 29  2  0  0  0  0
 31 27  1  0  0  0  0
 33 29  1  0  0  0  0
 34 30  1  0  0  0  0
M  END
>  <minimizedAffinity>
-5.53713608

$$$$

 OpenBabel03252503173D

 34 37  0  0  0  0  0  0  0  0999 V2000
   36.6940   30.7010   40.3430 C   0  0  0  0  0  0  0  0  0  0  0  0
   35.8220   30.9830   41.2240 O   0  0  0  0  0  0  0  0  0  0  0  0
   37.9420   31.4990   40.1170 C   0  0  0  0  0  0  0  0  0  0  0  0
   38.8970   31.2380   39.1690 C   0  0  0  0  0  0  0  0  0  0  0  0
   39.8440   32.1910   39.3070 N   0  0  0  0  0  0  0  0  0  0  0  0
   39.4470   33.0040   40.3280 C   0  0  0  0  0  0  0  0  0  0  0  0
   38.2730   32.5760   40.8260 N   0  0  0  0  0  0  0  0  0  0  0  0
   40.0800   34.1590   40.8820 N   0  0  0  0  0  0  0  0  0  0  0  0
   38.9090   30.4340   38.4430 H   0  0  0  0  0  0  0  0  0  0  0  0
   39.9010   35.0910   40.4850 H   0  0  0  0  0  0  0  0  0  0  0  0
   40.7070   33.9060   41.6960 H   0  0  0  0  0  0  0  0  0  0  0  0
   41.0620   32.3510   38.5370 C   0  0  0  0  0  0  0  0  0  0  0  0
   41.9280   31.3030   38.2850 C   0  0  0  0  0  0  0  0  0  0  0  0
   41.9040   30.2330   38.5710 H   0  0  0  0  0  0  0  0  0  0  0  0
   43.2610   32.0420   37.3000 S   0  0  0  0  0  0  0  0  0  0  0  0
   42.4020   33.7370   37.3830 C   0  0  0  0  0  0  0  0  0  0  0  0
   42.7050   34.7080   36.9560 H   0  0  0  0  0  0  0  0  0  0  0  0
   41.4090   33.5180   38.0340 N   0  0  0  0  0  0  0  0  0  0  0  0
   35.8680   29.6880   38.2650 C   0  0  0  0  0  0  0  0  0  0  0  0
   36.4190   29.5490   39.5510 C   0  0  0  0  0  0  0  0  0  0  0  0
   36.6570   28.2480   39.9490 C   0  0  0  0  0  0  0  0  0  0  0  0
   36.3810   27.1890   39.1640 N   0  0  0  0  0  0  0  0  0  0  0  0
   35.8470   27.3820   37.9250 C   0  0  0  0  0  0  0  0  0  0  0  0
   35.5950   28.6290   37.4880 N   0  0  0  0  0  0  0  0  0  0  0  0
   35.6560   30.6780   37.8880 H   0  0  0  0  0  0  0  0  0  0  0  0
   35.6440   26.4910   37.3350 H   0  0  0  0  0  0  0  0  0  0  0  0
   37.2110   28.0150   41.2310 C   0  0  0  0  0  0  0  0  0  0  0  0
   36.6980   27.7910   42.4720 C   0  0  0  0  0  0  0  0  0  0  0  0
   37.4770   27.5970   43.5230 C   0  0  0  0  0  0  0  0  0  0  0  0
   38.8140   27.6260   43.3210 C   0  0  0  0  0  0  0  0  0  0  0  0
   38.9590   27.9520   41.5230 S   0  0  0  0  0  0  0  0  0  0  0  0
   35.5900   27.7900   42.5150 H   0  0  0  0  0  0  0  0  0  0  0  0
   37.1430   27.4140   44.5370 H   0  0  0  0  0  0  0  0  0  0  0  0
   39.6690   27.5010   43.9880 H   0  0  0  0  0  0  0  0  0  0  0  0
  1  2  2  0  0  0  0
  3  1  1  0  0  0  0
  3  7  1  0  0  0  0
  4  5  1  0  0  0  0
  4  3  2  0  0  0  0
  5  6  1  0  0  0  0
  6  7  2  0  0  0  0
  6  8  1  0  0  0  0
  8 11  1  0  0  0  0
  9  4  1  0  0  0  0
 10  8  1  0  0  0  0
 12  5  1  0  0  0  0
 13 12  2  0  0  0  0
 13 14  1  0  0  0  0
 15 16  1  0  0  0  0
 15 13  1  0  0  0  0
 16 18  2  0  0  0  0
 17 16  1  0  0  0  0
 18 12  1  0  0  0  0
 19 20  1  0  0  0  0
 20 21  2  0  0  0  0
 20  1  1  0  0  0  0
 21 27  1  0  0  0  0
 22 21  1  0  0  0  0
 23 22  2  0  0  0  0
 24 23  1  0  0  0  0
 24 19  2  0  0  0  0
 25 19  1  0  0  0  0
 26 23  1  0  0  0  0
 27 31  1  0  0  0  0
 27 28  2  0  0  0  0
 28 32  1  0  0  0  0
 28 29  1  0  0  0  0
 29 33  1  0  0  0  0
 30 29  2  0  0  0  0
 30 34  1  0  0  0  0
 31 30  1  0  0  0  0
M  END
>  <minimizedAffinity>
-5.40034819

$$$$

 OpenBabel03252503173D

 34 37  0  0  0  0  0  0  0  0999 V2000
   38.0170   31.7470   40.3980 C   0  0  0  0  0  0  0  0  0  0  0  0
   36.9530   32.4340   40.2740 O   0  0  0  0  0  0  0  0  0  0  0  0
   38.1350   30.5430   41.2810 C   0  0  0  0  0  0  0  0  0  0  0  0
   39.2740   29.8040   41.4780 C   0  0  0  0  0  0  0  0  0  0  0  0
   38.9450   28.8160   42.3380 N   0  0  0  0  0  0  0  0  0  0  0  0
   37.6250   28.9740   42.6430 C   0  0  0  0  0  0  0  0  0  0  0  0
   37.1270   30.0400   41.9900 N   0  0  0  0  0  0  0  0  0  0  0  0
   36.7820   28.2040   43.5020 N   0  0  0  0  0  0  0  0  0  0  0  0
   40.2520   29.9640   41.0400 H   0  0  0  0  0  0  0  0  0  0  0  0
   36.7200   28.4260   44.5040 H   0  0  0  0  0  0  0  0  0  0  0  0
   36.2830   27.4370   42.9710 H   0  0  0  0  0  0  0  0  0  0  0  0
   39.8040   27.7710   42.8590 C   0  0  0  0  0  0  0  0  0  0  0  0
   41.1720   27.9270   42.9950 C   0  0  0  0  0  0  0  0  0  0  0  0
   41.8480   28.7740   42.7690 H   0  0  0  0  0  0  0  0  0  0  0  0
   41.7430   26.3460   43.6800 S   0  0  0  0  0  0  0  0  0  0  0  0
   39.9600   25.6850   43.6780 C   0  0  0  0  0  0  0  0  0  0  0  0
   39.5670   24.7040   43.9950 H   0  0  0  0  0  0  0  0  0  0  0  0
   39.3180   26.6050   43.2340 N   0  0  0  0  0  0  0  0  0  0  0  0
   40.0310   33.1300   40.1670 C   0  0  0  0  0  0  0  0  0  0  0  0
   39.1300   32.1930   39.6300 C   0  0  0  0  0  0  0  0  0  0  0  0
   39.4210   31.7690   38.3480 C   0  0  0  0  0  0  0  0  0  0  0  0
   40.4870   32.2190   37.6610 N   0  0  0  0  0  0  0  0  0  0  0  0
   41.3280   33.1280   38.2300 C   0  0  0  0  0  0  0  0  0  0  0  0
   41.0920   33.5760   39.4760 N   0  0  0  0  0  0  0  0  0  0  0  0
   39.8660   33.5060   41.1650 H   0  0  0  0  0  0  0  0  0  0  0  0
   42.1730   33.4580   37.6290 H   0  0  0  0  0  0  0  0  0  0  0  0
   38.5660   30.8250   37.7300 C   0  0  0  0  0  0  0  0  0  0  0  0
   37.3850   30.8960   37.0560 C   0  0  0  0  0  0  0  0  0  0  0  0
   36.7940   29.8170   36.5690 C   0  0  0  0  0  0  0  0  0  0  0  0
   37.4090   28.6290   36.7660 C   0  0  0  0  0  0  0  0  0  0  0  0
   38.9180   29.0870   37.7000 S   0  0  0  0  0  0  0  0  0  0  0  0
   36.9760   31.9230   36.9570 H   0  0  0  0  0  0  0  0  0  0  0  0
   35.8580   29.7960   36.0250 H   0  0  0  0  0  0  0  0  0  0  0  0
   37.1550   27.6060   36.4820 H   0  0  0  0  0  0  0  0  0  0  0  0
  1  3  1  0  0  0  0
  2  1  2  0  0  0  0
  3  4  2  0  0  0  0
  3  7  1  0  0  0  0
  4  5  1  0  0  0  0
  5  6  1  0  0  0  0
  5 12  1  0  0  0  0
  6  8  1  0  0  0  0
  7  6  2  0  0  0  0
  8 10  1  0  0  0  0
  9  4  1  0  0  0  0
 11  8  1  0  0  0  0
 12 13  2  0  0  0  0
 12 18  1  0  0  0  0
 13 15  1  0  0  0  0
 14 13  1  0  0  0  0
 16 15  1  0  0  0  0
 16 17  1  0  0  0  0
 18 16  2  0  0  0  0
 19 25  1  0  0  0  0
 20 19  1  0  0  0  0
 20  1  1  0  0  0  0
 21 20  2  0  0  0  0
 22 23  2  0  0  0  0
 22 21  1  0  0  0  0
 23 24  1  0  0  0  0
 24 19  2  0  0  0  0
 26 23  1  0  0  0  0
 27 21  1  0  0  0  0
 28 27  2  0  0  0  0
 29 30  2  0  0  0  0
 29 28  1  0  0  0  0
 30 31  1  0  0  0  0
 31 27  1  0  0  0  0
 32 28  1  0  0  0  0
 33 29  1  0  0  0  0
 34 30  1  0  0  0  0
M  END
>  <minimizedAffinity>
-5.37371778

$$$$

 OpenBabel03252503173D

 34 37  0  0  0  0  0  0  0  0999 V2000
   37.0250   28.8110   41.4820 C   0  0  0  0  0  0  0  0  0  0  0  0
   35.7990   28.4810   41.5630 O   0  0  0  0  0  0  0  0  0  0  0  0
   37.5030   30.1280   40.9510 C   0  0  0  0  0  0  0  0  0  0  0  0
   38.7930   30.4250   40.5920 C   0  0  0  0  0  0  0  0  0  0  0  0
   38.7870   31.7080   40.1710 N   0  0  0  0  0  0  0  0  0  0  0  0
   37.5050   32.1590   40.2830 C   0  0  0  0  0  0  0  0  0  0  0  0
   36.7140   31.1830   40.7640 N   0  0  0  0  0  0  0  0  0  0  0  0
   36.9520   33.4400   39.9740 N   0  0  0  0  0  0  0  0  0  0  0  0
   39.6580   29.7740   40.6300 H   0  0  0  0  0  0  0  0  0  0  0  0
   36.6110   33.6450   39.0260 H   0  0  0  0  0  0  0  0  0  0  0  0
   36.9570   34.0790   40.8180 H   0  0  0  0  0  0  0  0  0  0  0  0
   39.9090   32.4890   39.6870 C   0  0  0  0  0  0  0  0  0  0  0  0
   40.3100   32.4760   38.3640 C   0  0  0  0  0  0  0  0  0  0  0  0
   39.9240   31.9390   37.4750 H   0  0  0  0  0  0  0  0  0  0  0  0
   41.7290   33.6070   38.3090 S   0  0  0  0  0  0  0  0  0  0  0  0
   41.5530   33.9390   40.1740 C   0  0  0  0  0  0  0  0  0  0  0  0
   42.1490   34.5880   40.8380 H   0  0  0  0  0  0  0  0  0  0  0  0
   40.6100   33.2590   40.4940 N   0  0  0  0  0  0  0  0  0  0  0  0
   38.5380   27.9510   43.2130 C   0  0  0  0  0  0  0  0  0  0  0  0
   37.9560   27.8340   41.9380 C   0  0  0  0  0  0  0  0  0  0  0  0
   38.3580   26.7310   41.2100 C   0  0  0  0  0  0  0  0  0  0  0  0
   39.2430   25.8330   41.6840 N   0  0  0  0  0  0  0  0  0  0  0  0
   39.7760   25.9960   42.9270 C   0  0  0  0  0  0  0  0  0  0  0  0
   39.4200   27.0520   43.6790 N   0  0  0  0  0  0  0  0  0  0  0  0
   38.2700   28.7890   43.8390 H   0  0  0  0  0  0  0  0  0  0  0  0
   40.4850   25.2400   43.2590 H   0  0  0  0  0  0  0  0  0  0  0  0
   37.8220   26.5350   39.9140 C   0  0  0  0  0  0  0  0  0  0  0  0
   36.7320   25.8910   39.4140 C   0  0  0  0  0  0  0  0  0  0  0  0
   36.4670   25.8720   38.1180 C   0  0  0  0  0  0  0  0  0  0  0  0
   37.3240   26.5210   37.2980 C   0  0  0  0  0  0  0  0  0  0  0  0
   38.5790   27.1960   38.4520 S   0  0  0  0  0  0  0  0  0  0  0  0
   36.1030   25.3940   40.1810 H   0  0  0  0  0  0  0  0  0  0  0  0
   35.6230   25.3830   37.6490 H   0  0  0  0  0  0  0  0  0  0  0  0
   37.3520   26.6660   36.2170 H   0  0  0  0  0  0  0  0  0  0  0  0
  1  2  2  0  0  0  0
  1 20  1  0  0  0  0
  3  1  1  0  0  0  0
  4  9  1  0  0  0  0
  4  3  2  0  0  0  0
  5  6  1  0  0  0  0
  5  4  1  0  0  0  0
  6  7  2  0  0  0  0
  7  3  1  0  0  0  0
  8  6  1  0  0  0  0
  8 11  1  0  0  0  0
 10  8  1  0  0  0  0
 12  5  1  0  0  0  0
 12 18  1  0  0  0  0
 13 12  2  0  0  0  0
 14 13  1  0  0  0  0
 15 13  1  0  0  0  0
 15 16  1  0  0  0  0
 16 18  2  0  0  0  0
 16 17  1  0  0  0  0
 19 24  1  0  0  0  0
 19 25  1  0  0  0  0
 20 19  2  0  0  0  0
 21 22  2  0  0  0  0
 21 20  1  0  0  0  0
 22 23  1  0  0  0  0
 23 26  1  0  0  0  0
 23 24  2  0  0  0  0
 27 21  1  0  0  0  0
 28 27  2  0  0  0  0
 28 32  1  0  0  0  0
 29 28  1  0  0  0  0
 30 29  2  0  0  0  0
 30 31  1  0  0  0  0
 31 27  1  0  0  0  0
 33 29  1  0  0  0  0
 34 30  1  0  0  0  0
M  END
>  <minimizedAffinity>
-5.32622194

$$$$

 OpenBabel03252503173D

 34 37  0  0  0  0  0  0  0  0999 V2000
   36.7640   28.0670   38.9740 C   0  0  0  0  0  0  0  0  0  0  0  0
   35.5430   27.7630   38.7910 O   0  0  0  0  0  0  0  0  0  0  0  0
   37.2620   29.4720   39.1290 C   0  0  0  0  0  0  0  0  0  0  0  0
   38.4790   29.9400   38.7050 C   0  0  0  0  0  0  0  0  0  0  0  0
   38.5230   31.2480   39.0400 N   0  0  0  0  0  0  0  0  0  0  0  0
   37.3420   31.5430   39.6540 C   0  0  0  0  0  0  0  0  0  0  0  0
   36.5650   30.4460   39.7080 N   0  0  0  0  0  0  0  0  0  0  0  0
   36.8740   32.7780   40.2010 N   0  0  0  0  0  0  0  0  0  0  0  0
   39.2620   29.3880   38.2010 H   0  0  0  0  0  0  0  0  0  0  0  0
   36.3760   33.4540   39.6080 H   0  0  0  0  0  0  0  0  0  0  0  0
   37.1120   32.8620   41.2290 H   0  0  0  0  0  0  0  0  0  0  0  0
   39.6020   32.1880   38.8070 C   0  0  0  0  0  0  0  0  0  0  0  0
   40.5080   32.0420   37.7720 C   0  0  0  0  0  0  0  0  0  0  0  0
   40.6140   31.2750   36.9800 H   0  0  0  0  0  0  0  0  0  0  0  0
   41.6200   33.4670   37.9390 S   0  0  0  0  0  0  0  0  0  0  0  0
   40.6420   34.0710   39.4540 C   0  0  0  0  0  0  0  0  0  0  0  0
   40.7980   34.9570   40.0920 H   0  0  0  0  0  0  0  0  0  0  0  0
   39.7740   33.2420   39.5780 N   0  0  0  0  0  0  0  0  0  0  0  0
   38.0950   26.3420   37.8440 C   0  0  0  0  0  0  0  0  0  0  0  0
   37.6700   26.9690   39.0290 C   0  0  0  0  0  0  0  0  0  0  0  0
   38.1940   26.4400   40.1920 C   0  0  0  0  0  0  0  0  0  0  0  0
   39.0490   25.3990   40.1940 N   0  0  0  0  0  0  0  0  0  0  0  0
   39.4280   24.8300   39.0150 C   0  0  0  0  0  0  0  0  0  0  0  0
   38.9480   25.3050   37.8530 N   0  0  0  0  0  0  0  0  0  0  0  0
   37.7260   26.7030   36.8960 H   0  0  0  0  0  0  0  0  0  0  0  0
   40.1200   23.9920   39.0760 H   0  0  0  0  0  0  0  0  0  0  0  0
   37.8190   27.0100   41.4330 C   0  0  0  0  0  0  0  0  0  0  0  0
   36.7930   26.8180   42.3070 C   0  0  0  0  0  0  0  0  0  0  0  0
   36.6920   27.5140   43.4270 C   0  0  0  0  0  0  0  0  0  0  0  0
   37.6520   28.4320   43.6780 C   0  0  0  0  0  0  0  0  0  0  0  0
   38.7610   28.2880   42.2250 S   0  0  0  0  0  0  0  0  0  0  0  0
   36.0670   26.0390   41.9950 H   0  0  0  0  0  0  0  0  0  0  0  0
   35.9080   27.4170   44.1670 H   0  0  0  0  0  0  0  0  0  0  0  0
   37.8170   29.1300   44.5010 H   0  0  0  0  0  0  0  0  0  0  0  0
  1 20  1  0  0  0  0
  1  3  1  0  0  0  0
  2  1  2  0  0  0  0
  3  7  1  0  0  0  0
  4  5  1  0  0  0  0
  4  3  2  0  0  0  0
  5  6  1  0  0  0  0
  6  7  2  0  0  0  0
  6  8  1  0  0  0  0
  8 11  1  0  0  0  0
  9  4  1  0  0  0  0
 10  8  1  0  0  0  0
 12  5  1  0  0  0  0
 12 18  1  0  0  0  0
 13 15  1  0  0  0  0
 13 12  2  0  0  0  0
 14 13  1  0  0  0  0
 15 16  1  0  0  0  0
 16 18  2  0  0  0  0
 16 17  1  0  0  0  0
 19 24  2  0  0  0  0
 19 20  1  0  0  0  0
 20 21  2  0  0  0  0
 21 22  1  0  0  0  0
 21 27  1  0  0  0  0
 23 26  1  0  0  0  0
 23 22  2  0  0  0  0
 24 23  1  0  0  0  0
 25 19  1  0  0  0  0
 27 31  1  0  0  0  0
 27 28  2  0  0  0  0
 28 29  1  0  0  0  0
 29 30  2  0  0  0  0
 29 33  1  0  0  0  0
 30 34  1  0  0  0  0
 31 30  1  0  0  0  0
 32 28  1  0  0  0  0
M  END
>  <minimizedAffinity>
-5.24999619

$$$$
