
 OpenBabel03242523423D

 22 23  0  0  1  0  0  0  0  0999 V2000
   47.0640   35.1010   41.8830 C   0  0  2  0  0  0  0  0  0  0  0  0
   47.1290   36.1700   41.5660 H   0  0  0  0  0  0  0  0  0  0  0  0
   45.3290   36.0820   43.3610 C   0  0  0  0  0  0  0  0  0  0  0  0
   46.2510   35.0670   43.1080 C   0  0  0  0  0  0  0  0  0  0  0  0
   46.3830   34.0140   44.0530 C   0  0  0  0  0  0  0  0  0  0  0  0
   45.5890   34.0690   45.1600 N   0  0  0  0  0  0  0  0  0  0  0  0
   44.7200   35.0630   45.3600 C   0  0  0  0  0  0  0  0  0  0  0  0
   44.5980   36.0510   44.4670 N   0  0  0  0  0  0  0  0  0  0  0  0
   45.1690   36.9160   42.6930 H   0  0  0  0  0  0  0  0  0  0  0  0
   47.0850   33.2110   43.8890 H   0  0  0  0  0  0  0  0  0  0  0  0
   44.0970   35.0830   46.2530 H   0  0  0  0  0  0  0  0  0  0  0  0
   46.5300   34.2590   40.7800 C   0  0  0  0  0  0  0  0  0  0  0  0
   47.4530   33.6580   39.8110 C   0  0  0  0  0  0  0  0  0  0  0  0
   48.4880   33.7670   39.8200 H   0  0  0  0  0  0  0  0  0  0  0  0
   46.3320   32.7670   38.7210 S   0  0  0  0  0  0  0  0  0  0  0  0
   44.7980   33.3310   39.7220 C   0  0  0  0  0  0  0  0  0  0  0  0
   43.7840   33.0410   39.4600 H   0  0  0  0  0  0  0  0  0  0  0  0
   45.2520   33.9940   40.5880 N   0  0  0  0  0  0  0  0  0  0  0  0
   48.4810   34.7130   42.2450 C   0  0  0  0  0  0  0  0  0  0  0  0
   49.1990   35.5670   42.1730 H   0  0  0  0  0  0  0  0  0  0  0  0
   48.8250   33.9970   41.4410 H   0  0  0  0  0  0  0  0  0  0  0  0
   48.4820   34.2420   43.2310 H   0  0  0  0  0  0  0  0  0  0  0  0
  1  2  1  6  0  0  0
  1 19  1  0  0  0  0
  1  4  1  0  0  0  0
  3  8  1  0  0  0  0
  4  3  2  0  0  0  0
  4  5  1  0  0  0  0
  5  6  2  0  0  0  0
  6  7  1  0  0  0  0
  7 11  1  0  0  0  0
  8  7  2  0  0  0  0
  9  3  1  0  0  0  0
 10  5  1  0  0  0  0
 12  1  1  0  0  0  0
 13 14  1  0  0  0  0
 13 12  2  0  0  0  0
 15 16  1  0  0  0  0
 15 13  1  0  0  0  0
 16 18  2  0  0  0  0
 17 16  1  0  0  0  0
 18 12  1  0  0  0  0
 19 22  1  0  0  0  0
 20 19  1  0  0  0  0
 21 19  1  0  0  0  0
M  END
>  <minimizedAffinity>
-3.98982477

>  <minimizedRMSD>
1.14128888

$$$$
