
 OpenBabel03252508023D

 40 43  0  0  1  0  0  0  0  0999 V2000
   44.2300   34.3540   41.5440 C   0  0  0  0  0  0  0  0  0  0  0  0
   45.1090   34.2320   40.6190 O   0  0  0  0  0  0  0  0  0  0  0  0
   42.0450   33.2770   41.1150 C   0  0  0  0  0  0  0  0  0  0  0  0
   42.7810   34.4080   41.3190 C   0  0  0  0  0  0  0  0  0  0  0  0
   42.1330   35.6510   41.2940 C   0  0  0  0  0  0  0  0  0  0  0  0
   40.7860   35.7910   41.0730 C   0  0  0  0  0  0  0  0  0  0  0  0
   40.0450   34.6610   40.8710 C   0  0  0  0  0  0  0  0  0  0  0  0
   40.6660   33.4520   40.8930 C   0  0  0  0  0  0  0  0  0  0  0  0
   42.6500   36.5880   41.4360 H   0  0  0  0  0  0  0  0  0  0  0  0
   40.2880   36.7440   41.0540 H   0  0  0  0  0  0  0  0  0  0  0  0
   38.9840   34.6390   40.6890 H   0  0  0  0  0  0  0  0  0  0  0  0
   40.0850   32.5290   40.7310 H   0  0  0  0  0  0  0  0  0  0  0  0
   42.7040   31.7200   41.1750 S   0  0  0  0  0  0  0  0  0  0  0  0
   41.5390   30.8840   40.6100 O   0  0  0  0  0  0  0  0  0  0  0  0
   42.9080   31.2480   42.5740 O   0  0  0  0  0  0  0  0  0  0  0  0
   43.7330   31.0360   39.9930 C   0  0  0  0  0  0  0  0  0  0  0  0
   43.6510   29.4690   40.0280 C   0  0  0  0  0  0  0  0  0  0  0  0
   43.0170   28.6840   40.7810 H   0  0  0  0  0  0  0  0  0  0  0  0
   44.6550   28.9710   38.7630 S   0  0  0  0  0  0  0  0  0  0  0  0
   45.1500   30.6570   38.2230 C   0  0  0  0  0  0  0  0  0  0  0  0
   45.8020   30.9990   37.4310 H   0  0  0  0  0  0  0  0  0  0  0  0
   44.5410   31.2810   39.0030 N   0  0  0  0  0  0  0  0  0  0  0  0
   44.5750   34.4560   42.9310 C   0  0  0  0  0  0  0  0  0  0  0  0
   44.3060   35.7090   43.5560 C   0  0  0  0  0  0  0  0  0  0  0  0
   44.6320   35.8170   44.8970 C   0  0  0  0  0  0  0  0  0  0  0  0
   45.1770   34.7450   45.5290 N   0  0  0  0  0  0  0  0  0  0  0  0
   45.4200   33.5570   44.8880 C   0  0  0  0  0  0  0  0  0  0  0  0
   45.1100   33.4820   43.6470 N   0  0  0  0  0  0  0  0  0  0  0  0
   43.8900   36.5910   43.1500 H   0  0  0  0  0  0  0  0  0  0  0  0
   44.4700   36.7320   45.4770 H   0  0  0  0  0  0  0  0  0  0  0  0
   46.0090   32.4430   45.6550 C   0  0  1  0  0  0  0  0  0  0  0  0
   46.9700   32.7670   46.7800 C   0  0  0  0  0  0  0  0  0  0  0  0
   45.5450   32.3610   47.0670 C   0  0  1  0  0  0  0  0  0  0  0  0
   46.1040   31.4670   45.1530 H   0  0  0  0  0  0  0  0  0  0  0  0
   47.7760   32.0050   46.9190 H   0  0  0  0  0  0  0  0  0  0  0  0
   47.2870   33.8140   46.7850 H   0  0  0  0  0  0  0  0  0  0  0  0
   45.4290   31.3740   47.5530 H   0  0  0  0  0  0  0  0  0  0  0  0
   44.7630   33.4140   47.6430 N   0  0  0  0  0  0  0  0  0  0  0  0
   43.9180   33.0950   48.1370 H   0  0  0  0  0  0  0  0  0  0  0  0
   45.3170   34.1400   48.1400 H   0  0  0  0  0  0  0  0  0  0  0  0
  1 23  1  0  0  0  0
  2  1  2  0  0  0  0
  3 13  1  0  0  0  0
  3  4  1  0  0  0  0
  4  1  1  0  0  0  0
  5  4  2  0  0  0  0
  5  9  1  0  0  0  0
  6  5  1  0  0  0  0
  7  8  1  0  0  0  0
  7  6  2  0  0  0  0
  8  3  2  0  0  0  0
 10  6  1  0  0  0  0
 11  7  1  0  0  0  0
 12  8  1  0  0  0  0
 13 15  2  0  0  0  0
 14 13  2  0  0  0  0
 16 17  2  0  0  0  0
 16 13  1  0  0  0  0
 17 18  1  0  0  0  0
 19 17  1  0  0  0  0
 20 19  1  0  0  0  0
 20 22  2  0  0  0  0
 21 20  1  0  0  0  0
 22 16  1  0  0  0  0
 23 24  2  0  0  0  0
 23 28  1  0  0  0  0
 24 25  1  0  0  0  0
 25 30  1  0  0  0  0
 25 26  2  0  0  0  0
 27 26  1  0  0  0  0
 27 31  1  0  0  0  0
 28 27  2  0  0  0  0
 29 24  1  0  0  0  0
 31 34  1  6  0  0  0
 31 32  1  0  0  0  0
 31 33  1  0  0  0  0
 32 36  1  0  0  0  0
 32 35  1  0  0  0  0
 32 33  1  0  0  0  0
 33 37  1  1  0  0  0
 33 38  1  0  0  0  0
 38 39  1  0  0  0  0
 38 40  1  0  0  0  0
M  END
>  <minimizedAffinity>
-5.69681025

>  <minimizedRMSD>
1.21284235

$$$$
