
 OpenBabel03242511173D

 17 18  0  0  0  0  0  0  0  0999 V2000
   36.7480   27.4100   42.3700 C   0  0  0  0  0  0  0  0  0  0  0  0
   36.3350   28.4850   41.5590 C   0  0  0  0  0  0  0  0  0  0  0  0
   37.0570   29.6810   41.6600 C   0  0  0  0  0  0  0  0  0  0  0  0
   38.1050   29.7300   42.5300 N   0  0  0  0  0  0  0  0  0  0  0  0
   38.4580   28.6620   43.2870 C   0  0  0  0  0  0  0  0  0  0  0  0
   37.7860   27.5120   43.2090 N   0  0  0  0  0  0  0  0  0  0  0  0
   36.0990   26.5510   42.1870 H   0  0  0  0  0  0  0  0  0  0  0  0
   35.5190   28.4750   40.8690 H   0  0  0  0  0  0  0  0  0  0  0  0
   39.2860   28.6820   43.9820 H   0  0  0  0  0  0  0  0  0  0  0  0
   36.6110   31.0930   40.6750 S   0  0  0  0  0  0  0  0  0  0  0  0
   38.0550   32.0620   40.1770 C   0  0  0  0  0  0  0  0  0  0  0  0
   38.9740   31.4080   39.3170 C   0  0  0  0  0  0  0  0  0  0  0  0
   39.0120   30.5100   38.9110 H   0  0  0  0  0  0  0  0  0  0  0  0
   40.1910   32.7670   39.1290 S   0  0  0  0  0  0  0  0  0  0  0  0
   39.2600   33.9490   40.2210 C   0  0  0  0  0  0  0  0  0  0  0  0
   39.5580   34.9460   40.4570 H   0  0  0  0  0  0  0  0  0  0  0  0
   38.2280   33.3160   40.6020 N   0  0  0  0  0  0  0  0  0  0  0  0
  1  6  1  0  0  0  0
  2  3  1  0  0  0  0
  2  1  2  0  0  0  0
  3  4  2  0  0  0  0
  4  5  1  0  0  0  0
  5  9  1  0  0  0  0
  6  5  2  0  0  0  0
  7  1  1  0  0  0  0
  8  2  1  0  0  0  0
 10  3  1  0  0  0  0
 11 17  1  0  0  0  0
 11 10  1  0  0  0  0
 12 11  2  0  0  0  0
 13 12  1  0  0  0  0
 14 12  1  0  0  0  0
 14 15  1  0  0  0  0
 15 16  1  0  0  0  0
 15 17  2  0  0  0  0
M  END
>  <minimizedAffinity>
-3.53205204

$$$$

 OpenBabel03242511173D

 17 18  0  0  0  0  0  0  0  0999 V2000
   39.9950   25.4270   43.4600 C   0  0  0  0  0  0  0  0  0  0  0  0
   39.5340   26.7400   43.6780 C   0  0  0  0  0  0  0  0  0  0  0  0
   38.3040   27.0910   43.1070 C   0  0  0  0  0  0  0  0  0  0  0  0
   37.6370   26.1490   42.3820 N   0  0  0  0  0  0  0  0  0  0  0  0
   38.1310   24.8990   42.2050 C   0  0  0  0  0  0  0  0  0  0  0  0
   39.3000   24.5400   42.7390 N   0  0  0  0  0  0  0  0  0  0  0  0
   40.9580   25.2970   43.9610 H   0  0  0  0  0  0  0  0  0  0  0  0
   40.0340   27.4970   44.2410 H   0  0  0  0  0  0  0  0  0  0  0  0
   37.6170   24.1390   41.6340 H   0  0  0  0  0  0  0  0  0  0  0  0
   37.6370   28.7250   43.3270 S   0  0  0  0  0  0  0  0  0  0  0  0
   37.5290   29.6350   41.7670 C   0  0  0  0  0  0  0  0  0  0  0  0
   38.6520   29.5250   40.9070 C   0  0  0  0  0  0  0  0  0  0  0  0
   39.5140   29.0500   40.9630 H   0  0  0  0  0  0  0  0  0  0  0  0
   38.0530   30.5850   39.5360 S   0  0  0  0  0  0  0  0  0  0  0  0
   36.4290   30.9780   40.3530 C   0  0  0  0  0  0  0  0  0  0  0  0
   35.6610   31.5960   39.9460 H   0  0  0  0  0  0  0  0  0  0  0  0
   36.4510   30.3590   41.4610 N   0  0  0  0  0  0  0  0  0  0  0  0
  1  2  1  0  0  0  0
  1  7  1  0  0  0  0
  2  8  1  0  0  0  0
  3 10  1  0  0  0  0
  3  2  2  0  0  0  0
  4  3  1  0  0  0  0
  5  4  2  0  0  0  0
  5  6  1  0  0  0  0
  6  1  2  0  0  0  0
  9  5  1  0  0  0  0
 11 10  1  0  0  0  0
 12 13  1  0  0  0  0
 12 11  2  0  0  0  0
 14 15  1  0  0  0  0
 14 12  1  0  0  0  0
 15 17  2  0  0  0  0
 16 15  1  0  0  0  0
 17 11  1  0  0  0  0
M  END
>  <minimizedAffinity>
-3.5256238

$$$$

 OpenBabel03242511173D

 17 18  0  0  0  0  0  0  0  0999 V2000
   37.3210   31.4290   37.9590 C   0  0  0  0  0  0  0  0  0  0  0  0
   36.6550   30.3150   38.5050 C   0  0  0  0  0  0  0  0  0  0  0  0
   36.3480   30.3550   39.8710 C   0  0  0  0  0  0  0  0  0  0  0  0
   36.7130   31.4600   40.5810 N   0  0  0  0  0  0  0  0  0  0  0  0
   37.3540   32.5040   40.0020 C   0  0  0  0  0  0  0  0  0  0  0  0
   37.6570   32.4900   38.7030 N   0  0  0  0  0  0  0  0  0  0  0  0
   37.4940   31.2600   36.8940 H   0  0  0  0  0  0  0  0  0  0  0  0
   36.3580   29.4370   37.9730 H   0  0  0  0  0  0  0  0  0  0  0  0
   37.6500   33.3880   40.5490 H   0  0  0  0  0  0  0  0  0  0  0  0
   35.5070   28.9950   40.6500 S   0  0  0  0  0  0  0  0  0  0  0  0
   36.6310   27.9620   41.6200 C   0  0  0  0  0  0  0  0  0  0  0  0
   37.0580   26.7590   41.0000 C   0  0  0  0  0  0  0  0  0  0  0  0
   36.8770   26.3360   40.1280 H   0  0  0  0  0  0  0  0  0  0  0  0
   38.1280   26.1210   42.3450 S   0  0  0  0  0  0  0  0  0  0  0  0
   37.8140   27.5610   43.4790 C   0  0  0  0  0  0  0  0  0  0  0  0
   38.2290   27.6880   44.4540 H   0  0  0  0  0  0  0  0  0  0  0  0
   37.0250   28.3250   42.8430 N   0  0  0  0  0  0  0  0  0  0  0  0
  1  2  2  0  0  0  0
  1  6  1  0  0  0  0
  2  3  1  0  0  0  0
  3  4  2  0  0  0  0
  3 10  1  0  0  0  0
  5  9  1  0  0  0  0
  5  4  1  0  0  0  0
  6  5  2  0  0  0  0
  7  1  1  0  0  0  0
  8  2  1  0  0  0  0
 10 11  1  0  0  0  0
 11 17  1  0  0  0  0
 12 11  2  0  0  0  0
 12 14  1  0  0  0  0
 13 12  1  0  0  0  0
 14 15  1  0  0  0  0
 15 16  1  0  0  0  0
 17 15  2  0  0  0  0
M  END
>  <minimizedAffinity>
-3.4900372

$$$$

 OpenBabel03242511173D

 17 18  0  0  0  0  0  0  0  0999 V2000
   38.7850   28.2340   43.2820 C   0  0  0  0  0  0  0  0  0  0  0  0
   38.3630   29.3830   42.5850 C   0  0  0  0  0  0  0  0  0  0  0  0
   37.1290   29.3170   41.9250 C   0  0  0  0  0  0  0  0  0  0  0  0
   36.4210   28.1540   41.9960 N   0  0  0  0  0  0  0  0  0  0  0  0
   36.8780   27.0790   42.6830 C   0  0  0  0  0  0  0  0  0  0  0  0
   38.0500   27.1170   43.3200 N   0  0  0  0  0  0  0  0  0  0  0  0
   39.7550   28.4300   43.7450 H   0  0  0  0  0  0  0  0  0  0  0  0
   38.8960   30.3060   42.5120 H   0  0  0  0  0  0  0  0  0  0  0  0
   36.3310   26.1490   42.7510 H   0  0  0  0  0  0  0  0  0  0  0  0
   36.5110   30.7170   41.0180 S   0  0  0  0  0  0  0  0  0  0  0  0
   37.8350   31.6440   40.2070 C   0  0  0  0  0  0  0  0  0  0  0  0
   38.5320   30.9580   39.1790 C   0  0  0  0  0  0  0  0  0  0  0  0
   38.4620   30.0560   38.7870 H   0  0  0  0  0  0  0  0  0  0  0  0
   39.7110   32.2840   38.7140 S   0  0  0  0  0  0  0  0  0  0  0  0
   39.0640   33.5000   39.9640 C   0  0  0  0  0  0  0  0  0  0  0  0
   39.4290   34.4910   40.1160 H   0  0  0  0  0  0  0  0  0  0  0  0
   38.1240   32.8970   40.5670 N   0  0  0  0  0  0  0  0  0  0  0  0
  1  6  1  0  0  0  0
  1  7  1  0  0  0  0
  2  1  2  0  0  0  0
  3  4  2  0  0  0  0
  3  2  1  0  0  0  0
  4  5  1  0  0  0  0
  5  9  1  0  0  0  0
  5  6  2  0  0  0  0
  8  2  1  0  0  0  0
 10  3  1  0  0  0  0
 11 17  1  0  0  0  0
 11 10  1  0  0  0  0
 12 11  2  0  0  0  0
 13 12  1  0  0  0  0
 14 12  1  0  0  0  0
 14 15  1  0  0  0  0
 15 16  1  0  0  0  0
 15 17  2  0  0  0  0
M  END
>  <minimizedAffinity>
-3.47575951

$$$$

 OpenBabel03242511173D

 17 18  0  0  0  0  0  0  0  0999 V2000
   36.4960   29.5780   37.1730 C   0  0  0  0  0  0  0  0  0  0  0  0
   36.2170   29.5890   38.5540 C   0  0  0  0  0  0  0  0  0  0  0  0
   36.7020   30.6720   39.2990 C   0  0  0  0  0  0  0  0  0  0  0  0
   37.4080   31.6380   38.6470 N   0  0  0  0  0  0  0  0  0  0  0  0
   37.6460   31.5750   37.3140 C   0  0  0  0  0  0  0  0  0  0  0  0
   37.1960   30.5540   36.5830 N   0  0  0  0  0  0  0  0  0  0  0  0
   36.0600   28.6820   36.7250 H   0  0  0  0  0  0  0  0  0  0  0  0
   35.6670   28.8470   39.0900 H   0  0  0  0  0  0  0  0  0  0  0  0
   38.2040   32.3320   36.7800 H   0  0  0  0  0  0  0  0  0  0  0  0
   36.3990   30.7750   41.0480 S   0  0  0  0  0  0  0  0  0  0  0  0
   37.0430   29.3380   41.9390 C   0  0  0  0  0  0  0  0  0  0  0  0
   38.2570   29.5390   42.6440 C   0  0  0  0  0  0  0  0  0  0  0  0
   38.8590   30.3100   42.7670 H   0  0  0  0  0  0  0  0  0  0  0  0
   38.4570   27.8520   43.3350 S   0  0  0  0  0  0  0  0  0  0  0  0
   36.8980   27.1920   42.5640 C   0  0  0  0  0  0  0  0  0  0  0  0
   36.5270   26.1970   42.6620 H   0  0  0  0  0  0  0  0  0  0  0  0
   36.4000   28.1670   41.9220 N   0  0  0  0  0  0  0  0  0  0  0  0
  1  2  1  0  0  0  0
  2  8  1  0  0  0  0
  2  3  2  0  0  0  0
  3 10  1  0  0  0  0
  4  3  1  0  0  0  0
  5  4  2  0  0  0  0
  6  1  2  0  0  0  0
  6  5  1  0  0  0  0
  7  1  1  0  0  0  0
  9  5  1  0  0  0  0
 10 11  1  0  0  0  0
 11 12  2  0  0  0  0
 12 13  1  0  0  0  0
 12 14  1  0  0  0  0
 15 16  1  0  0  0  0
 15 14  1  0  0  0  0
 17 11  1  0  0  0  0
 17 15  2  0  0  0  0
M  END
>  <minimizedAffinity>
-3.45901346

$$$$

 OpenBabel03242511173D

 17 18  0  0  0  0  0  0  0  0999 V2000
   36.9500   32.1420   39.7960 C   0  0  0  0  0  0  0  0  0  0  0  0
   37.5850   31.1930   40.6210 C   0  0  0  0  0  0  0  0  0  0  0  0
   38.7640   31.5890   41.2660 C   0  0  0  0  0  0  0  0  0  0  0  0
   39.2190   32.8560   41.0550 N   0  0  0  0  0  0  0  0  0  0  0  0
   38.5650   33.7280   40.2490 C   0  0  0  0  0  0  0  0  0  0  0  0
   37.4410   33.3750   39.6240 N   0  0  0  0  0  0  0  0  0  0  0  0
   36.0500   31.6980   39.3630 H   0  0  0  0  0  0  0  0  0  0  0  0
   37.2510   30.1950   40.8040 H   0  0  0  0  0  0  0  0  0  0  0  0
   38.9110   34.7370   40.0710 H   0  0  0  0  0  0  0  0  0  0  0  0
   39.6370   30.4610   42.3280 S   0  0  0  0  0  0  0  0  0  0  0  0
   38.7020   28.9430   42.6290 C   0  0  0  0  0  0  0  0  0  0  0  0
   39.1040   27.8080   41.8790 C   0  0  0  0  0  0  0  0  0  0  0  0
   39.8020   27.6460   41.2020 H   0  0  0  0  0  0  0  0  0  0  0  0
   37.8890   26.6010   42.5340 S   0  0  0  0  0  0  0  0  0  0  0  0
   37.0750   27.8190   43.6800 C   0  0  0  0  0  0  0  0  0  0  0  0
   36.2570   27.6100   44.3330 H   0  0  0  0  0  0  0  0  0  0  0  0
   37.6970   28.9110   43.5090 N   0  0  0  0  0  0  0  0  0  0  0  0
  1  2  1  0  0  0  0
  2  8  1  0  0  0  0
  2  3  2  0  0  0  0
  3 10  1  0  0  0  0
  4  3  1  0  0  0  0
  5  4  2  0  0  0  0
  6  1  2  0  0  0  0
  6  5  1  0  0  0  0
  7  1  1  0  0  0  0
  9  5  1  0  0  0  0
 10 11  1  0  0  0  0
 11 17  1  0  0  0  0
 12 14  1  0  0  0  0
 12 11  2  0  0  0  0
 13 12  1  0  0  0  0
 14 15  1  0  0  0  0
 15 16  1  0  0  0  0
 17 15  2  0  0  0  0
M  END
>  <minimizedAffinity>
-3.44652224

$$$$

 OpenBabel03242511173D

 17 18  0  0  0  0  0  0  0  0999 V2000
   40.0880   32.1990   38.9590 C   0  0  0  0  0  0  0  0  0  0  0  0
   38.9670   31.4130   39.2940 C   0  0  0  0  0  0  0  0  0  0  0  0
   38.0260   31.9750   40.1660 C   0  0  0  0  0  0  0  0  0  0  0  0
   38.2520   33.2360   40.6330 N   0  0  0  0  0  0  0  0  0  0  0  0
   39.3500   33.9450   40.2760 C   0  0  0  0  0  0  0  0  0  0  0  0
   40.2620   33.4320   39.4480 N   0  0  0  0  0  0  0  0  0  0  0  0
   40.7310   31.6360   38.2780 H   0  0  0  0  0  0  0  0  0  0  0  0
   38.7650   30.4240   38.9440 H   0  0  0  0  0  0  0  0  0  0  0  0
   39.5460   34.9460   40.6360 H   0  0  0  0  0  0  0  0  0  0  0  0
   36.5780   31.0610   40.6460 S   0  0  0  0  0  0  0  0  0  0  0  0
   36.9840   29.6260   41.6700 C   0  0  0  0  0  0  0  0  0  0  0  0
   36.2080   28.4610   41.4400 C   0  0  0  0  0  0  0  0  0  0  0  0
   35.4670   28.2410   40.8270 H   0  0  0  0  0  0  0  0  0  0  0  0
   36.9920   27.3600   42.6790 S   0  0  0  0  0  0  0  0  0  0  0  0
   38.2010   28.6420   43.2720 C   0  0  0  0  0  0  0  0  0  0  0  0
   38.9330   28.5020   44.0350 H   0  0  0  0  0  0  0  0  0  0  0  0
   37.9590   29.6790   42.5810 N   0  0  0  0  0  0  0  0  0  0  0  0
  1  2  2  0  0  0  0
  1  6  1  0  0  0  0
  2  3  1  0  0  0  0
  3  4  2  0  0  0  0
  3 10  1  0  0  0  0
  5  4  1  0  0  0  0
  5  9  1  0  0  0  0
  6  5  2  0  0  0  0
  7  1  1  0  0  0  0
  8  2  1  0  0  0  0
 10 11  1  0  0  0  0
 11 17  1  0  0  0  0
 12 11  2  0  0  0  0
 12 14  1  0  0  0  0
 13 12  1  0  0  0  0
 14 15  1  0  0  0  0
 15 16  1  0  0  0  0
 17 15  2  0  0  0  0
M  END
>  <minimizedAffinity>
-3.43885875

$$$$

 OpenBabel03242511173D

 17 18  0  0  0  0  0  0  0  0999 V2000
   35.8050   29.7480   40.0530 C   0  0  0  0  0  0  0  0  0  0  0  0
   36.0400   28.9840   41.2130 C   0  0  0  0  0  0  0  0  0  0  0  0
   37.1590   29.3180   41.9860 C   0  0  0  0  0  0  0  0  0  0  0  0
   37.9440   30.3520   41.5700 N   0  0  0  0  0  0  0  0  0  0  0  0
   37.6690   31.0520   40.4430 C   0  0  0  0  0  0  0  0  0  0  0  0
   36.6090   30.7540   39.6900 N   0  0  0  0  0  0  0  0  0  0  0  0
   34.9060   29.3770   39.5540 H   0  0  0  0  0  0  0  0  0  0  0  0
   35.4420   28.1700   41.5610 H   0  0  0  0  0  0  0  0  0  0  0  0
   38.2790   31.8750   40.0990 H   0  0  0  0  0  0  0  0  0  0  0  0
   37.5380   28.4120   43.4680 S   0  0  0  0  0  0  0  0  0  0  0  0
   38.3120   26.8160   43.1140 C   0  0  0  0  0  0  0  0  0  0  0  0
   39.5980   26.6130   43.6790 C   0  0  0  0  0  0  0  0  0  0  0  0
   40.1940   27.1610   44.2420 H   0  0  0  0  0  0  0  0  0  0  0  0
   39.9130   24.9220   43.0430 S   0  0  0  0  0  0  0  0  0  0  0  0
   38.2870   24.7950   42.1500 C   0  0  0  0  0  0  0  0  0  0  0  0
   37.9510   23.9560   41.5830 H   0  0  0  0  0  0  0  0  0  0  0  0
   37.6960   25.8970   42.3660 N   0  0  0  0  0  0  0  0  0  0  0  0
  1  2  1  0  0  0  0
  2  8  1  0  0  0  0
  2  3  2  0  0  0  0
  3 10  1  0  0  0  0
  4  3  1  0  0  0  0
  5  4  2  0  0  0  0
  6  1  2  0  0  0  0
  6  5  1  0  0  0  0
  7  1  1  0  0  0  0
  9  5  1  0  0  0  0
 11 10  1  0  0  0  0
 11 12  2  0  0  0  0
 12 13  1  0  0  0  0
 14 12  1  0  0  0  0
 15 17  2  0  0  0  0
 15 14  1  0  0  0  0
 16 15  1  0  0  0  0
 17 11  1  0  0  0  0
M  END
>  <minimizedAffinity>
-3.41658735

$$$$

 OpenBabel03242511173D

 17 18  0  0  0  0  0  0  0  0999 V2000
   39.5250   24.6020   41.5100 C   0  0  0  0  0  0  0  0  0  0  0  0
   39.1060   25.7960   42.1300 C   0  0  0  0  0  0  0  0  0  0  0  0
   37.7330   25.9540   42.3570 C   0  0  0  0  0  0  0  0  0  0  0  0
   36.8950   24.9530   41.9670 N   0  0  0  0  0  0  0  0  0  0  0  0
   37.3560   23.8250   41.3730 C   0  0  0  0  0  0  0  0  0  0  0  0
   38.6590   23.6500   41.1460 N   0  0  0  0  0  0  0  0  0  0  0  0
   40.6120   24.6170   41.3970 H   0  0  0  0  0  0  0  0  0  0  0  0
   39.7390   26.5960   42.4450 H   0  0  0  0  0  0  0  0  0  0  0  0
   36.7070   23.0190   41.0580 H   0  0  0  0  0  0  0  0  0  0  0  0
   37.1080   27.4270   43.1340 S   0  0  0  0  0  0  0  0  0  0  0  0
   36.6670   28.7010   41.9290 C   0  0  0  0  0  0  0  0  0  0  0  0
   37.4420   29.8890   41.9720 C   0  0  0  0  0  0  0  0  0  0  0  0
   38.1950   30.1960   42.5290 H   0  0  0  0  0  0  0  0  0  0  0  0
   36.6200   30.8030   40.6110 S   0  0  0  0  0  0  0  0  0  0  0  0
   35.4050   29.4460   40.2360 C   0  0  0  0  0  0  0  0  0  0  0  0
   34.6540   29.4730   39.4790 H   0  0  0  0  0  0  0  0  0  0  0  0
   35.6710   28.5170   41.0590 N   0  0  0  0  0  0  0  0  0  0  0  0
  1  2  1  0  0  0  0
  2  3  2  0  0  0  0
  2  8  1  0  0  0  0
  3 10  1  0  0  0  0
  4  3  1  0  0  0  0
  5  4  2  0  0  0  0
  6  5  1  0  0  0  0
  6  1  2  0  0  0  0
  7  1  1  0  0  0  0
  9  5  1  0  0  0  0
 11 12  2  0  0  0  0
 11 10  1  0  0  0  0
 12 13  1  0  0  0  0
 14 12  1  0  0  0  0
 15 14  1  0  0  0  0
 15 17  2  0  0  0  0
 16 15  1  0  0  0  0
 17 11  1  0  0  0  0
M  END
>  <minimizedAffinity>
-3.34983158

$$$$
