
 OpenBabel03252505513D

 23 24  0  0  0  0  0  0  0  0999 V2000
   44.6640   35.4520   45.0940 C   0  0  0  0  0  0  0  0  0  0  0  0
   45.5140   35.0150   44.0800 C   0  0  0  0  0  0  0  0  0  0  0  0
   46.2570   33.8610   44.3080 C   0  0  0  0  0  0  0  0  0  0  0  0
   46.1250   33.2210   45.4830 N   0  0  0  0  0  0  0  0  0  0  0  0
   45.3030   33.6590   46.4410 C   0  0  0  0  0  0  0  0  0  0  0  0
   44.5580   34.7750   46.2720 N   0  0  0  0  0  0  0  0  0  0  0  0
   44.0550   36.3400   44.9910 H   0  0  0  0  0  0  0  0  0  0  0  0
   46.9060   33.5530   43.4970 H   0  0  0  0  0  0  0  0  0  0  0  0
   45.5480   35.8390   42.8200 C   0  0  0  0  0  0  0  0  0  0  0  0
   45.2080   37.1080   43.1880 F   0  0  0  0  0  0  0  0  0  0  0  0
   44.5700   35.3030   41.9870 F   0  0  0  0  0  0  0  0  0  0  0  0
   46.8000   35.7260   42.2770 F   0  0  0  0  0  0  0  0  0  0  0  0
   45.1470   33.0240   47.6560 O   0  0  0  0  0  0  0  0  0  0  0  0
   46.1670   32.2760   48.2650 C   0  0  0  0  0  0  0  0  0  0  0  0
   47.1680   32.7290   48.1110 H   0  0  0  0  0  0  0  0  0  0  0  0
   46.0160   32.2890   49.3630 H   0  0  0  0  0  0  0  0  0  0  0  0
   46.1410   30.8250   47.8560 C   0  0  0  0  0  0  0  0  0  0  0  0
   47.3140   30.0410   47.7360 C   0  0  0  0  0  0  0  0  0  0  0  0
   48.3360   30.2990   47.8970 H   0  0  0  0  0  0  0  0  0  0  0  0
   46.6800   28.4210   47.2270 S   0  0  0  0  0  0  0  0  0  0  0  0
   44.8940   29.0730   47.2570 C   0  0  0  0  0  0  0  0  0  0  0  0
   43.7890   28.6350   47.0390 H   0  0  0  0  0  0  0  0  0  0  0  0
   45.0470   30.1410   47.5700 N   0  0  0  0  0  0  0  0  0  0  0  0
  1  6  1  0  0  0  0
  2  3  1  0  0  0  0
  2  1  2  0  0  0  0
  3  4  2  0  0  0  0
  4  5  1  0  0  0  0
  5 13  1  0  0  0  0
  6  5  2  0  0  0  0
  7  1  1  0  0  0  0
  8  3  1  0  0  0  0
  9 10  1  0  0  0  0
  9  2  1  0  0  0  0
 11  9  1  0  0  0  0
 12  9  1  0  0  0  0
 13 14  1  0  0  0  0
 14 16  1  0  0  0  0
 15 14  1  0  0  0  0
 17 14  1  0  0  0  0
 18 17  2  0  0  0  0
 18 19  1  0  0  0  0
 20 21  1  0  0  0  0
 20 18  1  0  0  0  0
 21 23  2  0  0  0  0
 22 21  1  0  0  0  0
 23 17  1  0  0  0  0
M  END
>  <minimizedAffinity>
-4.64022017

>  <minimizedRMSD>
0.780009687

$$$$
