
 OpenBabel03242514583D

 23 24  0  0  0  0  0  0  0  0999 V2000
   37.8690   29.1410   43.0240 C   0  0  0  0  0  0  0  0  0  0  0  0
   38.9680   29.0540   42.8980 H   0  0  0  0  0  0  0  0  0  0  0  0
   37.7300   29.9590   43.7590 H   0  0  0  0  0  0  0  0  0  0  0  0
   37.3090   27.8860   43.6100 C   0  0  0  0  0  0  0  0  0  0  0  0
   36.2050   27.9350   43.6960 H   0  0  0  0  0  0  0  0  0  0  0  0
   37.6560   27.8660   44.6860 H   0  0  0  0  0  0  0  0  0  0  0  0
   37.7470   26.6620   42.8930 C   0  0  0  0  0  0  0  0  0  0  0  0
   39.0530   26.4220   42.7020 C   0  0  0  0  0  0  0  0  0  0  0  0
   40.0980   27.0450   43.0140 H   0  0  0  0  0  0  0  0  0  0  0  0
   39.1440   24.7950   41.7680 S   0  0  0  0  0  0  0  0  0  0  0  0
   37.2460   24.7520   41.8230 C   0  0  0  0  0  0  0  0  0  0  0  0
   36.4360   24.0040   41.4290 H   0  0  0  0  0  0  0  0  0  0  0  0
   37.0130   25.7240   42.3880 N   0  0  0  0  0  0  0  0  0  0  0  0
   37.1850   29.6450   41.4700 S   0  0  0  0  0  0  0  0  0  0  0  0
   37.7870   31.2460   40.8910 C   0  0  0  0  0  0  0  0  0  0  0  0
   36.9490   31.9030   39.9910 C   0  0  0  0  0  0  0  0  0  0  0  0
   37.3410   33.1500   39.4920 C   0  0  0  0  0  0  0  0  0  0  0  0
   38.5290   33.6350   39.9280 N   0  0  0  0  0  0  0  0  0  0  0  0
   39.3290   32.9910   40.7970 C   0  0  0  0  0  0  0  0  0  0  0  0
   38.9660   31.8030   41.2800 N   0  0  0  0  0  0  0  0  0  0  0  0
   36.0060   31.5330   39.6360 H   0  0  0  0  0  0  0  0  0  0  0  0
   36.7250   33.6870   38.7970 H   0  0  0  0  0  0  0  0  0  0  0  0
   40.2730   33.4350   41.1100 H   0  0  0  0  0  0  0  0  0  0  0  0
  1  4  1  0  0  0  0
  1  3  1  0  0  0  0
  2  1  1  0  0  0  0
  4  5  1  0  0  0  0
  4  6  1  0  0  0  0
  7  4  1  0  0  0  0
  8  7  2  0  0  0  0
  8  9  1  0  0  0  0
 10 11  1  0  0  0  0
 10  8  1  0  0  0  0
 11 13  2  0  0  0  0
 12 11  1  0  0  0  0
 13  7  1  0  0  0  0
 14  1  1  0  0  0  0
 15 20  1  0  0  0  0
 15 14  1  0  0  0  0
 16 15  2  0  0  0  0
 17 18  2  0  0  0  0
 17 16  1  0  0  0  0
 18 19  1  0  0  0  0
 19 23  1  0  0  0  0
 19 20  2  0  0  0  0
 21 16  1  0  0  0  0
 22 17  1  0  0  0  0
M  END
>  <minimizedAffinity>
-3.82696795

$$$$

 OpenBabel03242514583D

 23 24  0  0  0  0  0  0  0  0999 V2000
   36.7210   30.6390   39.0000 C   0  0  0  0  0  0  0  0  0  0  0  0
   37.5040   29.8590   38.8910 H   0  0  0  0  0  0  0  0  0  0  0  0
   35.8860   30.2950   38.3560 H   0  0  0  0  0  0  0  0  0  0  0  0
   37.2090   31.9480   38.4710 C   0  0  0  0  0  0  0  0  0  0  0  0
   36.3740   32.6580   38.3110 H   0  0  0  0  0  0  0  0  0  0  0  0
   37.5810   31.7390   37.4240 H   0  0  0  0  0  0  0  0  0  0  0  0
   38.2840   32.5480   39.3010 C   0  0  0  0  0  0  0  0  0  0  0  0
   39.4910   31.9660   39.3650 C   0  0  0  0  0  0  0  0  0  0  0  0
   39.9800   30.9350   38.8410 H   0  0  0  0  0  0  0  0  0  0  0  0
   40.5200   33.0430   40.5100 S   0  0  0  0  0  0  0  0  0  0  0  0
   38.9940   34.1610   40.6940 C   0  0  0  0  0  0  0  0  0  0  0  0
   38.7710   35.1440   41.2880 H   0  0  0  0  0  0  0  0  0  0  0  0
   38.2340   33.6190   40.0240 N   0  0  0  0  0  0  0  0  0  0  0  0
   36.1840   30.6340   40.6870 S   0  0  0  0  0  0  0  0  0  0  0  0
   37.0770   29.4650   41.7360 C   0  0  0  0  0  0  0  0  0  0  0  0
   36.4660   28.2220   41.8890 C   0  0  0  0  0  0  0  0  0  0  0  0
   37.0920   27.2580   42.6880 C   0  0  0  0  0  0  0  0  0  0  0  0
   38.2670   27.6110   43.2630 N   0  0  0  0  0  0  0  0  0  0  0  0
   38.8460   28.8160   43.1060 C   0  0  0  0  0  0  0  0  0  0  0  0
   38.2600   29.7420   42.3480 N   0  0  0  0  0  0  0  0  0  0  0  0
   35.5370   27.9260   41.4410 H   0  0  0  0  0  0  0  0  0  0  0  0
   36.6540   26.2890   42.8310 H   0  0  0  0  0  0  0  0  0  0  0  0
   39.7940   29.0390   43.5960 H   0  0  0  0  0  0  0  0  0  0  0  0
  1 14  1  0  0  0  0
  2  1  1  0  0  0  0
  3  1  1  0  0  0  0
  4  1  1  0  0  0  0
  4  7  1  0  0  0  0
  5  4  1  0  0  0  0
  6  4  1  0  0  0  0
  7  8  2  0  0  0  0
  7 13  1  0  0  0  0
  8 10  1  0  0  0  0
  9  8  1  0  0  0  0
 10 11  1  0  0  0  0
 11 12  1  0  0  0  0
 13 11  2  0  0  0  0
 14 15  1  0  0  0  0
 15 16  2  0  0  0  0
 15 20  1  0  0  0  0
 16 17  1  0  0  0  0
 17 22  1  0  0  0  0
 17 18  2  0  0  0  0
 19 18  1  0  0  0  0
 19 23  1  0  0  0  0
 20 19  2  0  0  0  0
 21 16  1  0  0  0  0
M  END
>  <minimizedAffinity>
-3.80851579

$$$$

 OpenBabel03242514583D

 23 24  0  0  0  0  0  0  0  0999 V2000
   36.0780   29.6560   38.7670 C   0  0  0  0  0  0  0  0  0  0  0  0
   35.8780   28.8270   38.0550 H   0  0  0  0  0  0  0  0  0  0  0  0
   35.5140   30.5210   38.3620 H   0  0  0  0  0  0  0  0  0  0  0  0
   37.5300   30.0050   38.7690 C   0  0  0  0  0  0  0  0  0  0  0  0
   37.9840   29.8610   37.7690 H   0  0  0  0  0  0  0  0  0  0  0  0
   38.0360   29.2170   39.4030 H   0  0  0  0  0  0  0  0  0  0  0  0
   37.8020   31.3640   39.3020 C   0  0  0  0  0  0  0  0  0  0  0  0
   38.8800   31.5850   40.0690 C   0  0  0  0  0  0  0  0  0  0  0  0
   39.8060   30.8470   40.4860 H   0  0  0  0  0  0  0  0  0  0  0  0
   38.8290   33.4090   40.5120 S   0  0  0  0  0  0  0  0  0  0  0  0
   37.2310   33.5280   39.4910 C   0  0  0  0  0  0  0  0  0  0  0  0
   36.4920   34.3980   39.2320 H   0  0  0  0  0  0  0  0  0  0  0  0
   37.1120   32.4450   39.1290 N   0  0  0  0  0  0  0  0  0  0  0  0
   35.3850   29.2020   40.3320 S   0  0  0  0  0  0  0  0  0  0  0  0
   36.6080   28.6560   41.5430 C   0  0  0  0  0  0  0  0  0  0  0  0
   36.8670   27.2860   41.5450 C   0  0  0  0  0  0  0  0  0  0  0  0
   37.8020   26.7790   42.4550 C   0  0  0  0  0  0  0  0  0  0  0  0
   38.3970   27.6740   43.2820 N   0  0  0  0  0  0  0  0  0  0  0  0
   38.1360   28.9940   43.2690 C   0  0  0  0  0  0  0  0  0  0  0  0
   37.2480   29.4890   42.4070 N   0  0  0  0  0  0  0  0  0  0  0  0
   36.4060   26.5640   40.8980 H   0  0  0  0  0  0  0  0  0  0  0  0
   38.0300   25.7310   42.4890 H   0  0  0  0  0  0  0  0  0  0  0  0
   38.6480   29.6630   43.9600 H   0  0  0  0  0  0  0  0  0  0  0  0
  1  4  1  0  0  0  0
  1 14  1  0  0  0  0
  2  1  1  0  0  0  0
  3  1  1  0  0  0  0
  4  7  1  0  0  0  0
  4  6  1  0  0  0  0
  5  4  1  0  0  0  0
  7  8  2  0  0  0  0
  8  9  1  0  0  0  0
  8 10  1  0  0  0  0
 11 10  1  0  0  0  0
 12 11  1  0  0  0  0
 13  7  1  0  0  0  0
 13 11  2  0  0  0  0
 14 15  1  0  0  0  0
 15 16  2  0  0  0  0
 15 20  1  0  0  0  0
 16 17  1  0  0  0  0
 17 22  1  0  0  0  0
 17 18  2  0  0  0  0
 19 18  1  0  0  0  0
 19 23  1  0  0  0  0
 20 19  2  0  0  0  0
 21 16  1  0  0  0  0
M  END
>  <minimizedAffinity>
-3.6468873

$$$$

 OpenBabel03242514583D

 23 24  0  0  0  0  0  0  0  0999 V2000
   35.9180   28.6980   39.3560 C   0  0  0  0  0  0  0  0  0  0  0  0
   35.0530   28.1930   38.8780 H   0  0  0  0  0  0  0  0  0  0  0  0
   36.7100   27.9230   39.4010 H   0  0  0  0  0  0  0  0  0  0  0  0
   35.5820   29.1040   40.7530 C   0  0  0  0  0  0  0  0  0  0  0  0
   34.6070   28.6850   41.0740 H   0  0  0  0  0  0  0  0  0  0  0  0
   35.3890   30.2180   40.7130 H   0  0  0  0  0  0  0  0  0  0  0  0
   36.6570   28.7900   41.7270 C   0  0  0  0  0  0  0  0  0  0  0  0
   36.8020   27.5410   42.1920 C   0  0  0  0  0  0  0  0  0  0  0  0
   36.1880   26.4660   41.9830 H   0  0  0  0  0  0  0  0  0  0  0  0
   38.2580   27.6010   43.3780 S   0  0  0  0  0  0  0  0  0  0  0  0
   38.3980   29.4540   42.9810 C   0  0  0  0  0  0  0  0  0  0  0  0
   39.1120   30.3110   43.3340 H   0  0  0  0  0  0  0  0  0  0  0  0
   37.5380   29.5910   42.2330 N   0  0  0  0  0  0  0  0  0  0  0  0
   36.4490   29.9970   38.2750 S   0  0  0  0  0  0  0  0  0  0  0  0
   37.6090   31.1540   39.0360 C   0  0  0  0  0  0  0  0  0  0  0  0
   37.0810   32.4070   39.3400 C   0  0  0  0  0  0  0  0  0  0  0  0
   37.9140   33.3640   39.9310 C   0  0  0  0  0  0  0  0  0  0  0  0
   39.1960   32.9940   40.1690 N   0  0  0  0  0  0  0  0  0  0  0  0
   39.6930   31.7800   39.8690 C   0  0  0  0  0  0  0  0  0  0  0  0
   38.9100   30.8600   39.3070 N   0  0  0  0  0  0  0  0  0  0  0  0
   36.0690   32.7160   39.1600 H   0  0  0  0  0  0  0  0  0  0  0  0
   37.5450   34.3400   40.1800 H   0  0  0  0  0  0  0  0  0  0  0  0
   40.7340   31.5430   40.0860 H   0  0  0  0  0  0  0  0  0  0  0  0
  1  3  1  0  0  0  0
  1  4  1  0  0  0  0
  2  1  1  0  0  0  0
  4  5  1  0  0  0  0
  4  7  1  0  0  0  0
  6  4  1  0  0  0  0
  7  8  2  0  0  0  0
  7 13  1  0  0  0  0
  8 10  1  0  0  0  0
  9  8  1  0  0  0  0
 11 12  1  0  0  0  0
 11 10  1  0  0  0  0
 13 11  2  0  0  0  0
 14 15  1  0  0  0  0
 14  1  1  0  0  0  0
 15 20  2  0  0  0  0
 15 16  1  0  0  0  0
 16 17  2  0  0  0  0
 17 18  1  0  0  0  0
 17 22  1  0  0  0  0
 19 23  1  0  0  0  0
 19 18  2  0  0  0  0
 20 19  1  0  0  0  0
 21 16  1  0  0  0  0
M  END
>  <minimizedAffinity>
-3.61235404

$$$$

 OpenBabel03242514583D

 23 24  0  0  0  0  0  0  0  0999 V2000
   39.3200   28.2100   42.9530 C   0  0  0  0  0  0  0  0  0  0  0  0
   40.1930   28.7630   43.3600 H   0  0  0  0  0  0  0  0  0  0  0  0
   39.4550   28.2360   41.8520 H   0  0  0  0  0  0  0  0  0  0  0  0
   38.0500   28.9220   43.2840 C   0  0  0  0  0  0  0  0  0  0  0  0
   38.2350   29.8070   43.9240 H   0  0  0  0  0  0  0  0  0  0  0  0
   37.4720   28.2250   43.9610 H   0  0  0  0  0  0  0  0  0  0  0  0
   37.2490   29.2750   42.0850 C   0  0  0  0  0  0  0  0  0  0  0  0
   37.5510   30.3690   41.3700 C   0  0  0  0  0  0  0  0  0  0  0  0
   38.4350   31.2540   41.4790 H   0  0  0  0  0  0  0  0  0  0  0  0
   36.3000   30.4270   39.9690 S   0  0  0  0  0  0  0  0  0  0  0  0
   35.5520   28.8320   40.6810 C   0  0  0  0  0  0  0  0  0  0  0  0
   34.6580   28.1430   40.3730 H   0  0  0  0  0  0  0  0  0  0  0  0
   36.2330   28.6470   41.5870 N   0  0  0  0  0  0  0  0  0  0  0  0
   39.4380   26.5320   43.5050 S   0  0  0  0  0  0  0  0  0  0  0  0
   38.7200   25.3330   42.3610 C   0  0  0  0  0  0  0  0  0  0  0  0
   37.3270   25.3270   42.3080 C   0  0  0  0  0  0  0  0  0  0  0  0
   36.6900   24.4260   41.4470 C   0  0  0  0  0  0  0  0  0  0  0  0
   37.4900   23.6110   40.7160 N   0  0  0  0  0  0  0  0  0  0  0  0
   38.8340   23.6270   40.7780 C   0  0  0  0  0  0  0  0  0  0  0  0
   39.4520   24.4810   41.5940 N   0  0  0  0  0  0  0  0  0  0  0  0
   36.6800   25.9650   42.8780 H   0  0  0  0  0  0  0  0  0  0  0  0
   35.6200   24.3900   41.3770 H   0  0  0  0  0  0  0  0  0  0  0  0
   39.4220   22.9460   40.1640 H   0  0  0  0  0  0  0  0  0  0  0  0
  1  4  1  0  0  0  0
  1  2  1  0  0  0  0
  1 14  1  0  0  0  0
  3  1  1  0  0  0  0
  4  5  1  0  0  0  0
  4  6  1  0  0  0  0
  7  4  1  0  0  0  0
  8  9  1  0  0  0  0
  8  7  2  0  0  0  0
 10 11  1  0  0  0  0
 10  8  1  0  0  0  0
 11 13  2  0  0  0  0
 12 11  1  0  0  0  0
 13  7  1  0  0  0  0
 15 14  1  0  0  0  0
 16 15  1  0  0  0  0
 16 21  1  0  0  0  0
 17 16  2  0  0  0  0
 18 19  2  0  0  0  0
 18 17  1  0  0  0  0
 19 20  1  0  0  0  0
 20 15  2  0  0  0  0
 22 17  1  0  0  0  0
 23 19  1  0  0  0  0
M  END
>  <minimizedAffinity>
-3.60845399

$$$$

 OpenBabel03242514583D

 23 24  0  0  0  0  0  0  0  0999 V2000
   36.8650   31.1260   39.7120 C   0  0  0  0  0  0  0  0  0  0  0  0
   36.1700   30.9480   38.8650 H   0  0  0  0  0  0  0  0  0  0  0  0
   37.7010   30.4170   39.5470 H   0  0  0  0  0  0  0  0  0  0  0  0
   36.2090   30.7820   41.0080 C   0  0  0  0  0  0  0  0  0  0  0  0
   35.1220   30.6090   40.8800 H   0  0  0  0  0  0  0  0  0  0  0  0
   36.2530   31.7220   41.6360 H   0  0  0  0  0  0  0  0  0  0  0  0
   36.8630   29.6490   41.7100 C   0  0  0  0  0  0  0  0  0  0  0  0
   36.3060   28.4290   41.6860 C   0  0  0  0  0  0  0  0  0  0  0  0
   35.2630   27.9680   41.1600 H   0  0  0  0  0  0  0  0  0  0  0  0
   37.4490   27.3240   42.6860 S   0  0  0  0  0  0  0  0  0  0  0  0
   38.5460   28.8500   42.9650 C   0  0  0  0  0  0  0  0  0  0  0  0
   39.5480   29.0400   43.5380 H   0  0  0  0  0  0  0  0  0  0  0  0
   37.9630   29.6560   42.3910 N   0  0  0  0  0  0  0  0  0  0  0  0
   37.4800   32.7810   39.5670 S   0  0  0  0  0  0  0  0  0  0  0  0
   39.2330   32.9480   39.9660 C   0  0  0  0  0  0  0  0  0  0  0  0
   39.8940   31.7510   40.2400 C   0  0  0  0  0  0  0  0  0  0  0  0
   41.2560   31.7920   40.5610 C   0  0  0  0  0  0  0  0  0  0  0  0
   41.8420   33.0140   40.5800 N   0  0  0  0  0  0  0  0  0  0  0  0
   41.1920   34.1610   40.3130 C   0  0  0  0  0  0  0  0  0  0  0  0
   39.8950   34.1360   40.0070 N   0  0  0  0  0  0  0  0  0  0  0  0
   39.4450   30.7760   40.2290 H   0  0  0  0  0  0  0  0  0  0  0  0
   41.8000   30.8930   40.7780 H   0  0  0  0  0  0  0  0  0  0  0  0
   41.7200   35.1140   40.3450 H   0  0  0  0  0  0  0  0  0  0  0  0
  1  4  1  0  0  0  0
  2  1  1  0  0  0  0
  3  1  1  0  0  0  0
  4  6  1  0  0  0  0
  4  7  1  0  0  0  0
  5  4  1  0  0  0  0
  7 13  1  0  0  0  0
  8  7  2  0  0  0  0
  8 10  1  0  0  0  0
  9  8  1  0  0  0  0
 10 11  1  0  0  0  0
 11 12  1  0  0  0  0
 13 11  2  0  0  0  0
 14  1  1  0  0  0  0
 14 15  1  0  0  0  0
 15 20  2  0  0  0  0
 15 16  1  0  0  0  0
 16 17  2  0  0  0  0
 17 18  1  0  0  0  0
 17 22  1  0  0  0  0
 19 23  1  0  0  0  0
 19 18  2  0  0  0  0
 20 19  1  0  0  0  0
 21 16  1  0  0  0  0
M  END
>  <minimizedAffinity>
-3.51668501

$$$$

 OpenBabel03242514583D

 23 24  0  0  0  0  0  0  0  0999 V2000
   37.2570   29.2500   41.8860 C   0  0  0  0  0  0  0  0  0  0  0  0
   37.2620   28.8230   40.8620 H   0  0  0  0  0  0  0  0  0  0  0  0
   36.3940   29.9460   41.9010 H   0  0  0  0  0  0  0  0  0  0  0  0
   38.4990   30.0440   42.1270 C   0  0  0  0  0  0  0  0  0  0  0  0
   39.4000   29.3990   42.1240 H   0  0  0  0  0  0  0  0  0  0  0  0
   38.4350   30.4010   43.1980 H   0  0  0  0  0  0  0  0  0  0  0  0
   38.6470   31.1920   41.1980 C   0  0  0  0  0  0  0  0  0  0  0  0
   39.8660   31.5840   40.7980 C   0  0  0  0  0  0  0  0  0  0  0  0
   41.0270   31.1740   41.0430 H   0  0  0  0  0  0  0  0  0  0  0  0
   39.5850   33.0450   39.6510 S   0  0  0  0  0  0  0  0  0  0  0  0
   37.7230   32.8240   39.9600 C   0  0  0  0  0  0  0  0  0  0  0  0
   36.7630   33.3780   39.5860 H   0  0  0  0  0  0  0  0  0  0  0  0
   37.7180   31.9260   40.6770 N   0  0  0  0  0  0  0  0  0  0  0  0
   36.9480   27.9280   43.0220 S   0  0  0  0  0  0  0  0  0  0  0  0
   38.1980   26.6240   42.9860 C   0  0  0  0  0  0  0  0  0  0  0  0
   37.8870   25.5290   42.1820 C   0  0  0  0  0  0  0  0  0  0  0  0
   38.8020   24.4730   42.0990 C   0  0  0  0  0  0  0  0  0  0  0  0
   39.9430   24.5970   42.8200 N   0  0  0  0  0  0  0  0  0  0  0  0
   40.2310   25.6600   43.5930 C   0  0  0  0  0  0  0  0  0  0  0  0
   39.3680   26.6720   43.6800 N   0  0  0  0  0  0  0  0  0  0  0  0
   36.9890   25.4160   41.6050 H   0  0  0  0  0  0  0  0  0  0  0  0
   38.6000   23.6120   41.4910 H   0  0  0  0  0  0  0  0  0  0  0  0
   41.1670   25.7000   44.1480 H   0  0  0  0  0  0  0  0  0  0  0  0
  1  3  1  0  0  0  0
  1  4  1  0  0  0  0
  1 14  1  0  0  0  0
  2  1  1  0  0  0  0
  4  6  1  0  0  0  0
  5  4  1  0  0  0  0
  7  4  1  0  0  0  0
  8  9  1  0  0  0  0
  8  7  2  0  0  0  0
 10 11  1  0  0  0  0
 10  8  1  0  0  0  0
 11 13  2  0  0  0  0
 12 11  1  0  0  0  0
 13  7  1  0  0  0  0
 15 14  1  0  0  0  0
 15 20  1  0  0  0  0
 16 15  2  0  0  0  0
 17 16  1  0  0  0  0
 17 18  2  0  0  0  0
 18 19  1  0  0  0  0
 19 20  2  0  0  0  0
 19 23  1  0  0  0  0
 21 16  1  0  0  0  0
 22 17  1  0  0  0  0
M  END
>  <minimizedAffinity>
-3.50468206

$$$$

 OpenBabel03242514583D

 23 24  0  0  0  0  0  0  0  0999 V2000
   37.2920   28.9900   38.5470 C   0  0  0  0  0  0  0  0  0  0  0  0
   37.0870   28.1530   37.8480 H   0  0  0  0  0  0  0  0  0  0  0  0
   38.2450   28.7170   39.0460 H   0  0  0  0  0  0  0  0  0  0  0  0
   36.2270   29.0730   39.5910 C   0  0  0  0  0  0  0  0  0  0  0  0
   35.3680   28.4160   39.3480 H   0  0  0  0  0  0  0  0  0  0  0  0
   35.7920   30.1140   39.5070 H   0  0  0  0  0  0  0  0  0  0  0  0
   36.7340   28.8230   40.9630 C   0  0  0  0  0  0  0  0  0  0  0  0
   37.6630   29.6310   41.4970 C   0  0  0  0  0  0  0  0  0  0  0  0
   38.2660   30.6480   41.0750 H   0  0  0  0  0  0  0  0  0  0  0  0
   38.0060   28.9530   43.2150 S   0  0  0  0  0  0  0  0  0  0  0  0
   36.7230   27.6010   42.8480 C   0  0  0  0  0  0  0  0  0  0  0  0
   36.3010   26.6920   43.4520 H   0  0  0  0  0  0  0  0  0  0  0  0
   36.3970   27.8810   41.7830 N   0  0  0  0  0  0  0  0  0  0  0  0
   37.5490   30.4510   37.5810 S   0  0  0  0  0  0  0  0  0  0  0  0
   38.2080   31.8450   38.5220 C   0  0  0  0  0  0  0  0  0  0  0  0
   37.2490   32.6650   39.1140 C   0  0  0  0  0  0  0  0  0  0  0  0
   37.6750   33.7690   39.8600 C   0  0  0  0  0  0  0  0  0  0  0  0
   39.0130   33.9630   39.9540 N   0  0  0  0  0  0  0  0  0  0  0  0
   39.9280   33.1640   39.3760 C   0  0  0  0  0  0  0  0  0  0  0  0
   39.5350   32.1090   38.6630 N   0  0  0  0  0  0  0  0  0  0  0  0
   36.1860   32.5260   39.0510 H   0  0  0  0  0  0  0  0  0  0  0  0
   36.9680   34.4250   40.3320 H   0  0  0  0  0  0  0  0  0  0  0  0
   40.9920   33.3730   39.4880 H   0  0  0  0  0  0  0  0  0  0  0  0
  1  3  1  0  0  0  0
  1  4  1  0  0  0  0
  2  1  1  0  0  0  0
  4  7  1  0  0  0  0
  5  4  1  0  0  0  0
  6  4  1  0  0  0  0
  7  8  2  0  0  0  0
  7 13  1  0  0  0  0
  8 10  1  0  0  0  0
  9  8  1  0  0  0  0
 11 10  1  0  0  0  0
 11 12  1  0  0  0  0
 13 11  2  0  0  0  0
 14 15  1  0  0  0  0
 14  1  1  0  0  0  0
 15 20  2  0  0  0  0
 15 16  1  0  0  0  0
 16 17  2  0  0  0  0
 17 18  1  0  0  0  0
 17 22  1  0  0  0  0
 19 23  1  0  0  0  0
 19 18  2  0  0  0  0
 20 19  1  0  0  0  0
 21 16  1  0  0  0  0
M  END
>  <minimizedAffinity>
-3.48268986

$$$$

 OpenBabel03242514583D

 23 24  0  0  0  0  0  0  0  0999 V2000
   37.1830   28.2930   42.9110 C   0  0  0  0  0  0  0  0  0  0  0  0
   36.4410   28.7420   43.6050 H   0  0  0  0  0  0  0  0  0  0  0  0
   36.6220   27.5090   42.3640 H   0  0  0  0  0  0  0  0  0  0  0  0
   38.2820   27.6330   43.6760 C   0  0  0  0  0  0  0  0  0  0  0  0
   38.0230   27.5250   44.7480 H   0  0  0  0  0  0  0  0  0  0  0  0
   39.1390   28.3710   43.6850 H   0  0  0  0  0  0  0  0  0  0  0  0
   38.7080   26.3390   43.0850 C   0  0  0  0  0  0  0  0  0  0  0  0
   37.9980   25.7850   42.0920 C   0  0  0  0  0  0  0  0  0  0  0  0
   36.9580   26.1300   41.4790 H   0  0  0  0  0  0  0  0  0  0  0  0
   38.8820   24.1850   41.6600 S   0  0  0  0  0  0  0  0  0  0  0  0
   40.1420   24.6110   43.0170 C   0  0  0  0  0  0  0  0  0  0  0  0
   41.1020   24.0870   43.4320 H   0  0  0  0  0  0  0  0  0  0  0  0
   39.7300   25.6110   43.4030 N   0  0  0  0  0  0  0  0  0  0  0  0
   37.6780   29.5490   41.7650 S   0  0  0  0  0  0  0  0  0  0  0  0
   36.7310   29.5510   40.2270 C   0  0  0  0  0  0  0  0  0  0  0  0
   35.4440   29.0250   40.3250 C   0  0  0  0  0  0  0  0  0  0  0  0
   34.6430   28.9880   39.1780 C   0  0  0  0  0  0  0  0  0  0  0  0
   35.1880   29.4760   38.0370 N   0  0  0  0  0  0  0  0  0  0  0  0
   36.4320   29.9820   37.9570 C   0  0  0  0  0  0  0  0  0  0  0  0
   37.2050   30.0230   39.0420 N   0  0  0  0  0  0  0  0  0  0  0  0
   34.9970   28.6340   41.2190 H   0  0  0  0  0  0  0  0  0  0  0  0
   33.6470   28.5900   39.2110 H   0  0  0  0  0  0  0  0  0  0  0  0
   36.8130   30.3600   37.0090 H   0  0  0  0  0  0  0  0  0  0  0  0
  1  2  1  0  0  0  0
  1  4  1  0  0  0  0
  3  1  1  0  0  0  0
  4  6  1  0  0  0  0
  4  5  1  0  0  0  0
  7 13  1  0  0  0  0
  7  4  1  0  0  0  0
  8  7  2  0  0  0  0
  9  8  1  0  0  0  0
 10  8  1  0  0  0  0
 10 11  1  0  0  0  0
 11 13  2  0  0  0  0
 11 12  1  0  0  0  0
 14  1  1  0  0  0  0
 15 16  1  0  0  0  0
 15 14  1  0  0  0  0
 16 21  1  0  0  0  0
 17 22  1  0  0  0  0
 17 16  2  0  0  0  0
 18 17  1  0  0  0  0
 19 18  2  0  0  0  0
 19 20  1  0  0  0  0
 20 15  2  0  0  0  0
 23 19  1  0  0  0  0
M  END
>  <minimizedAffinity>
-3.42010117

$$$$
