
 OpenBabel03242515093D

 34 36  0  0  0  0  0  0  0  0999 V2000
   46.3770   33.6780   44.7430 C   0  0  0  0  0  0  0  0  0  0  0  0
   45.1930   34.3470   44.9480 C   0  0  0  0  0  0  0  0  0  0  0  0
   44.7090   35.3450   44.1340 C   0  0  0  0  0  0  0  0  0  0  0  0
   45.4370   35.7110   43.0440 C   0  0  0  0  0  0  0  0  0  0  0  0
   46.6230   35.0720   42.8000 C   0  0  0  0  0  0  0  0  0  0  0  0
   47.0870   34.0670   43.6410 C   0  0  0  0  0  0  0  0  0  0  0  0
   44.5760   34.0920   45.8040 H   0  0  0  0  0  0  0  0  0  0  0  0
   43.7700   35.8320   44.3500 H   0  0  0  0  0  0  0  0  0  0  0  0
   45.0640   36.4970   42.3940 H   0  0  0  0  0  0  0  0  0  0  0  0
   47.1720   35.3980   41.9150 H   0  0  0  0  0  0  0  0  0  0  0  0
   47.3180   31.9730   47.8300 C   0  0  0  0  0  0  0  0  0  0  0  0
   47.7070   30.6990   47.3960 C   0  0  0  0  0  0  0  0  0  0  0  0
   47.6410   30.4390   46.0360 C   0  0  0  0  0  0  0  0  0  0  0  0
   47.2100   31.3940   45.1470 N   0  0  0  0  0  0  0  0  0  0  0  0
   46.8400   32.6320   45.6330 C   0  0  0  0  0  0  0  0  0  0  0  0
   46.9070   32.8750   46.9420 N   0  0  0  0  0  0  0  0  0  0  0  0
   47.3580   32.2080   48.8860 H   0  0  0  0  0  0  0  0  0  0  0  0
   48.0480   29.9370   48.0870 H   0  0  0  0  0  0  0  0  0  0  0  0
   47.9270   29.4690   45.6260 H   0  0  0  0  0  0  0  0  0  0  0  0
   48.3260   33.5070   43.2520 N   0  0  0  0  0  0  0  0  0  0  0  0
   48.3570   32.4680   43.4580 H   0  0  0  0  0  0  0  0  0  0  0  0
   49.7250   34.1940   42.5330 S   0  0  0  0  0  0  0  0  0  0  0  0
   49.3920   34.5150   41.0810 O   0  0  0  0  0  0  0  0  0  0  0  0
   48.8890   33.8930   40.5080 H   0  0  0  0  0  0  0  0  0  0  0  0
   50.2330   35.4180   43.1820 O   0  0  0  0  0  0  0  0  0  0  0  0
   50.1960   36.3520   42.8410 H   0  0  0  0  0  0  0  0  0  0  0  0
   50.8830   32.9610   42.4540 O   0  0  0  0  0  0  0  0  0  0  0  0
   50.7240   32.0560   41.4020 C   0  0  0  0  0  0  0  0  0  0  0  0
   51.3770   30.9640   41.8340 C   0  0  0  0  0  0  0  0  0  0  0  0
   51.9750   30.4100   42.5940 H   0  0  0  0  0  0  0  0  0  0  0  0
   51.1340   29.7710   40.3770 S   0  0  0  0  0  0  0  0  0  0  0  0
   50.1420   31.1100   39.4610 C   0  0  0  0  0  0  0  0  0  0  0  0
   49.4930   31.5330   38.4940 H   0  0  0  0  0  0  0  0  0  0  0  0
   50.1860   31.9340   40.2190 N   0  0  0  0  0  0  0  0  0  0  0  0
  1  2  1  0  0  0  0
  1 15  1  0  0  0  0
  2  7  1  0  0  0  0
  3  8  1  0  0  0  0
  3  2  2  0  0  0  0
  4  3  1  0  0  0  0
  5  4  2  0  0  0  0
  5  6  1  0  0  0  0
  6  1  2  0  0  0  0
  9  4  1  0  0  0  0
 10  5  1  0  0  0  0
 11 17  1  0  0  0  0
 12 11  1  0  0  0  0
 12 18  1  0  0  0  0
 13 12  2  0  0  0  0
 14 15  2  0  0  0  0
 14 13  1  0  0  0  0
 15 16  1  0  0  0  0
 16 11  2  0  0  0  0
 19 13  1  0  0  0  0
 20 21  1  0  0  0  0
 20  6  1  0  0  0  0
 22 25  1  0  0  0  0
 22 20  1  0  0  0  0
 23 22  1  0  0  0  0
 24 23  1  0  0  0  0
 26 25  1  0  0  0  0
 27 22  1  0  0  0  0
 28 29  2  0  0  0  0
 28 27  1  0  0  0  0
 29 30  1  0  0  0  0
 31 29  1  0  0  0  0
 32 34  2  0  0  0  0
 32 31  1  0  0  0  0
 33 32  1  0  0  0  0
 34 28  1  0  0  0  0
M  END
>  <minimizedAffinity>
-6.00558329

>  <minimizedRMSD>
3.01492739

$$$$
