
 OpenBabel03252508593D

 43 45  0  0  1  0  0  0  0  0999 V2000
   46.6790   34.4690   43.6400 N   0  0  0  0  0  0  0  0  0  0  0  0
   46.2300   35.4080   42.6740 C   0  0  0  0  0  0  0  0  0  0  0  0
   44.7290   35.5750   42.5960 C   0  0  0  0  0  0  0  0  0  0  0  0
   44.0020   35.3860   43.9000 C   0  0  0  0  0  0  0  0  0  0  0  0
   44.9760   35.2020   45.0420 C   0  0  0  0  0  0  0  0  0  0  0  0
   45.8180   33.9520   44.5930 C   0  0  2  0  0  0  0  0  0  0  0  0
   46.5920   35.2520   41.6520 H   0  0  0  0  0  0  0  0  0  0  0  0
   46.6570   36.3990   42.9950 H   0  0  0  0  0  0  0  0  0  0  0  0
   44.3000   34.9250   41.7890 H   0  0  0  0  0  0  0  0  0  0  0  0
   44.5200   36.6150   42.2620 H   0  0  0  0  0  0  0  0  0  0  0  0
   43.4350   34.4340   43.8180 H   0  0  0  0  0  0  0  0  0  0  0  0
   43.2620   36.1820   44.0880 H   0  0  0  0  0  0  0  0  0  0  0  0
   45.6140   36.0900   45.0750 H   0  0  0  0  0  0  0  0  0  0  0  0
   44.4400   34.9640   45.9650 H   0  0  0  0  0  0  0  0  0  0  0  0
   45.0860   33.1900   44.2560 H   0  0  0  0  0  0  0  0  0  0  0  0
   47.7930   33.6760   43.2150 C   0  0  0  0  0  0  0  0  0  0  0  0
   48.3710   33.3230   44.0940 H   0  0  0  0  0  0  0  0  0  0  0  0
   48.4650   34.3310   42.6120 H   0  0  0  0  0  0  0  0  0  0  0  0
   47.2900   32.5200   42.4130 C   0  0  0  0  0  0  0  0  0  0  0  0
   47.4890   31.5430   42.8600 H   0  0  0  0  0  0  0  0  0  0  0  0
   46.1760   32.5990   42.2680 H   0  0  0  0  0  0  0  0  0  0  0  0
   49.5290   31.9120   39.4570 C   0  0  0  0  0  0  0  0  0  0  0  0
   48.9810   31.8470   40.7510 C   0  0  0  0  0  0  0  0  0  0  0  0
   47.8620   32.5950   41.0440 C   0  0  0  0  0  0  0  0  0  0  0  0
   47.3460   33.3560   40.0650 N   0  0  0  0  0  0  0  0  0  0  0  0
   47.8780   33.4120   38.8330 C   0  0  0  0  0  0  0  0  0  0  0  0
   48.9690   32.6940   38.5150 N   0  0  0  0  0  0  0  0  0  0  0  0
   50.4160   31.3140   39.2390 H   0  0  0  0  0  0  0  0  0  0  0  0
   49.4790   31.2000   41.4600 H   0  0  0  0  0  0  0  0  0  0  0  0
   47.3180   34.0800   38.1930 H   0  0  0  0  0  0  0  0  0  0  0  0
   46.4800   33.6240   45.7660 O   0  0  0  0  0  0  0  0  0  0  0  0
   45.5990   31.1960   45.1410 O   0  0  0  0  0  0  0  0  0  0  0  0
   46.1700   32.0530   46.2750 P   0  0  2  0  0  0  0  0  0  0  0  0
   44.9000   32.1670   47.4170 O   0  0  0  0  0  0  0  0  0  0  0  0
   45.0470   32.9510   47.9960 H   0  0  0  0  0  0  0  0  0  0  0  0
   47.4760   31.3570   47.0240 O   0  0  0  0  0  0  0  0  0  0  0  0
   47.7220   29.9950   47.1080 C   0  0  0  0  0  0  0  0  0  0  0  0
   46.7870   28.9680   47.5110 C   0  0  0  0  0  0  0  0  0  0  0  0
   45.7440   29.3520   47.7810 H   0  0  0  0  0  0  0  0  0  0  0  0
   47.8670   27.4210   47.3660 S   0  0  0  0  0  0  0  0  0  0  0  0
   49.3350   28.4850   46.7990 C   0  0  0  0  0  0  0  0  0  0  0  0
   50.2600   27.9350   46.5840 H   0  0  0  0  0  0  0  0  0  0  0  0
   48.9510   29.6030   46.7840 N   0  0  0  0  0  0  0  0  0  0  0  0
  1  6  1  0  0  0  0
  2  8  1  0  0  0  0
  2  1  1  0  0  0  0
  3  2  1  0  0  0  0
  3  4  1  0  0  0  0
  4 12  1  0  0  0  0
  4  5  1  0  0  0  0
  5 13  1  0  0  0  0
  5 14  1  0  0  0  0
  6 15  1  6  0  0  0
  6  5  1  0  0  0  0
  6 31  1  0  0  0  0
  7  2  1  0  0  0  0
  9  3  1  0  0  0  0
 10  3  1  0  0  0  0
 11  4  1  0  0  0  0
 16  1  1  0  0  0  0
 16 17  1  0  0  0  0
 18 16  1  0  0  0  0
 19 20  1  0  0  0  0
 19 16  1  0  0  0  0
 21 19  1  0  0  0  0
 22 23  1  0  0  0  0
 23 24  2  0  0  0  0
 23 29  1  0  0  0  0
 24 19  1  0  0  0  0
 25 24  1  0  0  0  0
 26 25  2  0  0  0  0
 27 26  1  0  0  0  0
 27 22  2  0  0  0  0
 28 22  1  0  0  0  0
 30 26  1  0  0  0  0
 31 33  1  0  0  0  0
 33 32  2  6  0  0  0
 33 36  1  0  0  0  0
 33 34  1  0  0  0  0
 34 35  1  0  0  0  0
 36 37  1  0  0  0  0
 37 38  2  0  0  0  0
 38 39  1  0  0  0  0
 40 38  1  0  0  0  0
 41 40  1  0  0  0  0
 42 41  1  0  0  0  0
 43 41  2  0  0  0  0
 43 37  1  0  0  0  0
M  END
>  <minimizedAffinity>
-4.22042322

>  <minimizedRMSD>
1.25784278

$$$$
