
 OpenBabel03252506373D

 42 45  0  0  1  0  0  0  0  0999 V2000
   44.5110   35.5150   45.1300 C   0  0  0  0  0  0  0  0  0  0  0  0
   45.1730   35.5020   43.8880 C   0  0  0  0  0  0  0  0  0  0  0  0
   46.0980   34.5410   43.6420 C   0  0  0  0  0  0  0  0  0  0  0  0
   46.3270   33.6410   44.6280 N   0  0  0  0  0  0  0  0  0  0  0  0
   45.7000   33.6600   45.7950 C   0  0  0  0  0  0  0  0  0  0  0  0
   44.7900   34.5900   46.0600 N   0  0  0  0  0  0  0  0  0  0  0  0
   46.0280   32.6550   46.7710 N   0  0  0  0  0  0  0  0  0  0  0  0
   45.2870   32.4090   47.9520 C   0  0  0  0  0  0  0  0  0  0  0  0
   46.3630   32.0900   48.9750 C   0  0  0  0  0  0  0  0  0  0  0  0
   47.6450   31.9710   48.2080 C   0  0  0  0  0  0  0  0  0  0  0  0
   47.1600   31.7510   46.7750 C   0  0  1  0  0  0  0  0  0  0  0  0
   43.7640   36.2860   45.3390 H   0  0  0  0  0  0  0  0  0  0  0  0
   46.6110   34.5140   42.7090 H   0  0  0  0  0  0  0  0  0  0  0  0
   44.5080   31.7270   48.0650 H   0  0  0  0  0  0  0  0  0  0  0  0
   44.8760   33.4130   48.2880 H   0  0  0  0  0  0  0  0  0  0  0  0
   46.5200   32.9020   49.7140 H   0  0  0  0  0  0  0  0  0  0  0  0
   46.1160   31.1820   49.5670 H   0  0  0  0  0  0  0  0  0  0  0  0
   48.2330   31.0890   48.5280 H   0  0  0  0  0  0  0  0  0  0  0  0
   48.2310   32.9190   48.2110 H   0  0  0  0  0  0  0  0  0  0  0  0
   47.9660   32.0750   46.1160 H   0  0  0  0  0  0  0  0  0  0  0  0
   44.8170   36.5270   42.9460 N   0  0  0  0  0  0  0  0  0  0  0  0
   43.8490   36.4210   42.5720 H   0  0  0  0  0  0  0  0  0  0  0  0
   45.4770   37.2990   42.6740 H   0  0  0  0  0  0  0  0  0  0  0  0
   46.6620   30.0580   46.6030 S   0  0  0  0  0  0  0  0  0  0  0  0
   45.6510   30.5250   43.4490 O   0  0  0  0  0  0  0  0  0  0  0  0
   45.0290   29.9800   44.3750 C   0  0  0  0  0  0  0  0  0  0  0  0
   45.1230   29.7530   45.8460 C   0  0  1  0  0  0  0  0  0  0  0  0
   44.6020   28.3470   45.9640 C   0  0  0  0  0  0  0  0  0  0  0  0
   43.2690   28.5540   45.2060 C   0  0  0  0  0  0  0  0  0  0  0  0
   43.7960   29.3180   44.0540 N   0  0  0  0  0  0  0  0  0  0  0  0
   44.2290   30.3460   46.1840 H   0  0  0  0  0  0  0  0  0  0  0  0
   44.4170   28.0590   47.0070 H   0  0  0  0  0  0  0  0  0  0  0  0
   45.2080   27.6290   45.3860 H   0  0  0  0  0  0  0  0  0  0  0  0
   42.8830   27.5750   44.8910 H   0  0  0  0  0  0  0  0  0  0  0  0
   42.5730   29.1500   45.8090 H   0  0  0  0  0  0  0  0  0  0  0  0
   42.9990   29.2600   42.8420 C   0  0  0  0  0  0  0  0  0  0  0  0
   41.9520   30.1180   42.5680 C   0  0  0  0  0  0  0  0  0  0  0  0
   41.6680   30.9280   43.3130 H   0  0  0  0  0  0  0  0  0  0  0  0
   41.4330   29.4410   40.8710 S   0  0  0  0  0  0  0  0  0  0  0  0
   42.7820   28.1240   40.9230 C   0  0  0  0  0  0  0  0  0  0  0  0
   42.8880   27.4330   40.0940 H   0  0  0  0  0  0  0  0  0  0  0  0
   43.3670   28.2980   42.0010 N   0  0  0  0  0  0  0  0  0  0  0  0
  1 12  1  0  0  0  0
  1  6  1  0  0  0  0
  2  1  2  0  0  0  0
  3  2  1  0  0  0  0
  3  4  2  0  0  0  0
  4  5  1  0  0  0  0
  5  6  2  0  0  0  0
  5  7  1  0  0  0  0
  7 11  1  0  0  0  0
  7  8  1  0  0  0  0
  8 14  1  0  0  0  0
  8 15  1  0  0  0  0
  8  9  1  0  0  0  0
  9 17  1  0  0  0  0
  9 16  1  0  0  0  0
 10 19  1  0  0  0  0
 10 18  1  0  0  0  0
 10  9  1  0  0  0  0
 11 20  1  6  0  0  0
 11 10  1  0  0  0  0
 13  3  1  0  0  0  0
 21  2  1  0  0  0  0
 22 21  1  0  0  0  0
 23 21  1  0  0  0  0
 24 11  1  0  0  0  0
 25 26  2  0  0  0  0
 26 27  1  0  0  0  0
 27 28  1  0  0  0  0
 27 31  1  1  0  0  0
 27 24  1  0  0  0  0
 28 32  1  0  0  0  0
 29 35  1  0  0  0  0
 29 28  1  0  0  0  0
 30 26  1  0  0  0  0
 30 29  1  0  0  0  0
 33 28  1  0  0  0  0
 34 29  1  0  0  0  0
 36 30  1  0  0  0  0
 37 36  2  0  0  0  0
 37 38  1  0  0  0  0
 39 40  1  0  0  0  0
 39 37  1  0  0  0  0
 40 42  2  0  0  0  0
 41 40  1  0  0  0  0
 42 36  1  0  0  0  0
M  END
>  <minimizedAffinity>
-5.17387056

>  <minimizedRMSD>
0.318009883

$$$$
