
 OpenBabel03252509243D

 25 27  0  0  1  0  0  0  0  0999 V2000
   46.4480   34.7950   42.0280 C   0  0  1  0  0  0  0  0  0  0  0  0
   47.9330   35.2400   42.0020 C   0  0  0  0  0  0  0  0  0  0  0  0
   47.3940   33.8250   41.6140 C   0  0  2  0  0  0  0  0  0  0  0  0
   45.8160   35.3770   41.3300 H   0  0  0  0  0  0  0  0  0  0  0  0
   48.2590   35.8490   41.1300 H   0  0  0  0  0  0  0  0  0  0  0  0
   48.4930   35.3080   42.9260 H   0  0  0  0  0  0  0  0  0  0  0  0
   47.6920   33.0040   42.3180 H   0  0  0  0  0  0  0  0  0  0  0  0
   44.5320   35.6010   45.1540 C   0  0  0  0  0  0  0  0  0  0  0  0
   45.0330   35.7370   43.8200 C   0  0  0  0  0  0  0  0  0  0  0  0
   45.9340   34.7750   43.4460 C   0  0  0  0  0  0  0  0  0  0  0  0
   46.3190   33.7640   44.3050 N   0  0  0  0  0  0  0  0  0  0  0  0
   45.8170   33.6860   45.5470 C   0  0  0  0  0  0  0  0  0  0  0  0
   44.9170   34.6110   45.9710 N   0  0  0  0  0  0  0  0  0  0  0  0
   43.8170   36.3550   45.4600 H   0  0  0  0  0  0  0  0  0  0  0  0
   46.0870   32.9140   46.2520 H   0  0  0  0  0  0  0  0  0  0  0  0
   44.6510   36.8040   42.9560 N   0  0  0  0  0  0  0  0  0  0  0  0
   44.7800   37.8200   43.2210 H   0  0  0  0  0  0  0  0  0  0  0  0
   44.2300   36.5970   42.0380 H   0  0  0  0  0  0  0  0  0  0  0  0
   47.5090   33.4680   40.1760 C   0  0  0  0  0  0  0  0  0  0  0  0
   46.2890   33.3740   39.4010 C   0  0  0  0  0  0  0  0  0  0  0  0
   45.2570   33.5440   39.7700 H   0  0  0  0  0  0  0  0  0  0  0  0
   46.9000   32.9120   37.6850 S   0  0  0  0  0  0  0  0  0  0  0  0
   48.6780   32.9340   38.3460 C   0  0  0  0  0  0  0  0  0  0  0  0
   49.7930   32.7460   37.9230 H   0  0  0  0  0  0  0  0  0  0  0  0
   48.5810   33.2040   39.4300 N   0  0  0  0  0  0  0  0  0  0  0  0
  1  4  1  6  0  0  0
  1 10  1  0  0  0  0
  2  1  1  0  0  0  0
  2  6  1  0  0  0  0
  3  2  1  0  0  0  0
  3  1  1  0  0  0  0
  3  7  1  1  0  0  0
  5  2  1  0  0  0  0
  8 14  1  0  0  0  0
  8 13  1  0  0  0  0
  9  8  2  0  0  0  0
 10  9  1  0  0  0  0
 10 11  2  0  0  0  0
 11 12  1  0  0  0  0
 12 13  2  0  0  0  0
 12 15  1  0  0  0  0
 16 17  1  0  0  0  0
 16  9  1  0  0  0  0
 18 16  1  0  0  0  0
 19  3  1  0  0  0  0
 20 21  1  0  0  0  0
 20 19  2  0  0  0  0
 22 23  1  0  0  0  0
 22 20  1  0  0  0  0
 23 25  2  0  0  0  0
 24 23  1  0  0  0  0
 25 19  1  0  0  0  0
M  END
>  <minimizedAffinity>
-4.58711624

>  <minimizedRMSD>
0.640892684

$$$$
