
 OpenBabel03242516053D

 34 37  0  0  0  0  0  0  0  0999 V2000
   45.3970   32.9950   41.1450 Cl  0  0  0  0  0  0  0  0  0  0  0  0
   46.7810   34.0620   41.0450 C   0  0  0  0  0  0  0  0  0  0  0  0
   47.1190   34.8880   42.0730 C   0  0  0  0  0  0  0  0  0  0  0  0
   48.2240   35.6820   41.8850 C   0  0  0  0  0  0  0  0  0  0  0  0
   48.9550   35.6610   40.7440 C   0  0  0  0  0  0  0  0  0  0  0  0
   48.6110   34.8280   39.7110 C   0  0  0  0  0  0  0  0  0  0  0  0
   47.5050   34.0240   39.8830 C   0  0  0  0  0  0  0  0  0  0  0  0
   48.5140   36.3500   42.6930 H   0  0  0  0  0  0  0  0  0  0  0  0
   49.8190   36.3060   40.6410 H   0  0  0  0  0  0  0  0  0  0  0  0
   49.1990   34.8130   38.7930 H   0  0  0  0  0  0  0  0  0  0  0  0
   44.4960   35.7740   44.6710 C   0  0  0  0  0  0  0  0  0  0  0  0
   45.2770   35.8020   43.5100 C   0  0  0  0  0  0  0  0  0  0  0  0
   46.3020   34.8710   43.2730 C   0  0  0  0  0  0  0  0  0  0  0  0
   46.4740   33.9500   44.2510 N   0  0  0  0  0  0  0  0  0  0  0  0
   45.7190   33.9310   45.3610 C   0  0  0  0  0  0  0  0  0  0  0  0
   44.7460   34.8330   45.5630 N   0  0  0  0  0  0  0  0  0  0  0  0
   43.7190   36.5070   44.8150 H   0  0  0  0  0  0  0  0  0  0  0  0
   45.0920   36.5670   42.7600 H   0  0  0  0  0  0  0  0  0  0  0  0
   46.0000   33.1150   46.0430 H   0  0  0  0  0  0  0  0  0  0  0  0
   47.1160   33.1120   38.7730 C   0  0  0  0  0  0  0  0  0  0  0  0
   47.5760   31.7950   38.6640 C   0  0  0  0  0  0  0  0  0  0  0  0
   46.8090   31.1590   37.1620 S   0  0  0  0  0  0  0  0  0  0  0  0
   45.9320   32.8470   36.8790 C   0  0  0  0  0  0  0  0  0  0  0  0
   46.3140   33.4020   37.7700 N   0  0  0  0  0  0  0  0  0  0  0  0
   45.0540   33.1810   35.7930 N   0  0  0  0  0  0  0  0  0  0  0  0
   44.1740   32.6310   35.6190 H   0  0  0  0  0  0  0  0  0  0  0  0
   45.3950   34.0020   35.2260 H   0  0  0  0  0  0  0  0  0  0  0  0
   48.4920   31.1120   39.5980 C   0  0  0  0  0  0  0  0  0  0  0  0
   48.0180   30.2740   40.7410 C   0  0  0  0  0  0  0  0  0  0  0  0
   47.0330   30.1660   40.8880 H   0  0  0  0  0  0  0  0  0  0  0  0
   49.5660   29.7700   41.4320 S   0  0  0  0  0  0  0  0  0  0  0  0
   50.6210   30.7180   40.1410 C   0  0  0  0  0  0  0  0  0  0  0  0
   51.7550   30.8160   40.0090 H   0  0  0  0  0  0  0  0  0  0  0  0
   49.7740   31.3110   39.3290 N   0  0  0  0  0  0  0  0  0  0  0  0
  2  1  1  0  0  0  0
  2  3  1  0  0  0  0
  3 13  1  0  0  0  0
  4  3  2  0  0  0  0
  4  8  1  0  0  0  0
  5  4  1  0  0  0  0
  6  7  1  0  0  0  0
  6  5  2  0  0  0  0
  7  2  2  0  0  0  0
  9  5  1  0  0  0  0
 10  6  1  0  0  0  0
 11 17  1  0  0  0  0
 11 16  1  0  0  0  0
 12 11  2  0  0  0  0
 13 12  1  0  0  0  0
 13 14  2  0  0  0  0
 14 15  1  0  0  0  0
 15 16  2  0  0  0  0
 15 19  1  0  0  0  0
 18 12  1  0  0  0  0
 20  7  1  0  0  0  0
 21 20  2  0  0  0  0
 21 28  1  0  0  0  0
 22 21  1  0  0  0  0
 23 22  1  0  0  0  0
 23 24  2  0  0  0  0
 24 20  1  0  0  0  0
 25 23  1  0  0  0  0
 26 25  1  0  0  0  0
 27 25  1  0  0  0  0
 28 29  2  0  0  0  0
 29 30  1  0  0  0  0
 29 31  1  0  0  0  0
 32 31  1  0  0  0  0
 33 32  1  0  0  0  0
 34 28  1  0  0  0  0
 34 32  2  0  0  0  0
M  END
>  <minimizedAffinity>
-5.97080135

>  <minimizedRMSD>
1.05905426

$$$$
