
 OpenBabel03252506483D

 40 43  0  0  1  0  0  0  0  0999 V2000
   37.7740   31.2570   39.4910 N   0  0  1  0  0  0  0  0  0  0  0  0
   36.9510   32.3280   40.0000 C   0  0  0  0  0  0  0  0  0  0  0  0
   37.3910   33.6960   39.5540 C   0  0  0  0  0  0  0  0  0  0  0  0
   38.7320   34.0030   40.1950 C   0  0  0  0  0  0  0  0  0  0  0  0
   39.5730   32.7570   40.2790 C   0  0  0  0  0  0  0  0  0  0  0  0
   39.0900   31.7460   39.2530 C   0  0  2  0  0  0  0  0  0  0  0  0
   37.1040   32.3330   41.1200 H   0  0  0  0  0  0  0  0  0  0  0  0
   35.8740   32.1550   39.8740 H   0  0  0  0  0  0  0  0  0  0  0  0
   36.6340   34.4050   39.9670 H   0  0  0  0  0  0  0  0  0  0  0  0
   37.3860   33.8670   38.4760 H   0  0  0  0  0  0  0  0  0  0  0  0
   39.2200   34.8040   39.5840 H   0  0  0  0  0  0  0  0  0  0  0  0
   38.5670   34.4800   41.1910 H   0  0  0  0  0  0  0  0  0  0  0  0
   39.5780   32.3200   41.2970 H   0  0  0  0  0  0  0  0  0  0  0  0
   40.6080   33.0150   40.0080 H   0  0  0  0  0  0  0  0  0  0  0  0
   39.7990   30.8720   39.3440 H   0  0  0  0  0  0  0  0  0  0  0  0
   36.5670   29.2070   40.4700 C   0  0  1  0  0  0  0  0  0  0  0  0
   36.6040   30.2980   41.4480 C   0  0  0  0  0  0  0  0  0  0  0  0
   37.6930   30.1960   40.4430 C   0  0  2  0  0  0  0  0  0  0  0  0
   35.8680   29.3130   39.6040 H   0  0  0  0  0  0  0  0  0  0  0  0
   36.8130   30.0040   42.5160 H   0  0  0  0  0  0  0  0  0  0  0  0
   35.8710   31.1000   41.3620 H   0  0  0  0  0  0  0  0  0  0  0  0
   38.6500   29.8110   40.8550 H   0  0  0  0  0  0  0  0  0  0  0  0
   36.9880   26.7810   39.9440 C   0  0  0  0  0  0  0  0  0  0  0  0
   36.8370   27.8120   40.8970 C   0  0  0  0  0  0  0  0  0  0  0  0
   36.9480   27.4700   42.2490 C   0  0  0  0  0  0  0  0  0  0  0  0
   37.1940   26.1780   42.5540 N   0  0  0  0  0  0  0  0  0  0  0  0
   37.3350   25.2080   41.6450 C   0  0  0  0  0  0  0  0  0  0  0  0
   37.2330   25.5020   40.3140 N   0  0  0  0  0  0  0  0  0  0  0  0
   36.8950   27.0730   38.9180 H   0  0  0  0  0  0  0  0  0  0  0  0
   36.8380   28.2400   43.0000 H   0  0  0  0  0  0  0  0  0  0  0  0
   37.5280   24.2140   42.0210 H   0  0  0  0  0  0  0  0  0  0  0  0
   39.3060   32.2940   37.9390 N   0  0  0  0  0  0  0  0  0  0  0  0
   38.5830   32.6390   37.2760 H   0  0  0  0  0  0  0  0  0  0  0  0
   40.7220   32.2850   37.6510 C   0  0  0  0  0  0  0  0  0  0  0  0
   41.1890   30.9370   37.4260 C   0  0  0  0  0  0  0  0  0  0  0  0
   40.8280   29.9130   37.4010 H   0  0  0  0  0  0  0  0  0  0  0  0
   43.0420   31.1540   37.0760 S   0  0  0  0  0  0  0  0  0  0  0  0
   42.8130   33.0280   37.3040 C   0  0  0  0  0  0  0  0  0  0  0  0
   43.2460   34.2210   37.3360 H   0  0  0  0  0  0  0  0  0  0  0  0
   41.7220   33.1240   37.5320 N   0  0  0  0  0  0  0  0  0  0  0  0
  1  2  1  1  0  0  0
  1 18  1  0  0  0  0
  2  7  1  0  0  0  0
  3  9  1  0  0  0  0
  3  2  1  0  0  0  0
  3  4  1  0  0  0  0
  4  5  1  0  0  0  0
  4 12  1  0  0  0  0
  5 13  1  0  0  0  0
  6 15  1  1  0  0  0
  6  1  1  0  0  0  0
  6  5  1  0  0  0  0
  8  2  1  0  0  0  0
 10  3  1  0  0  0  0
 11  4  1  0  0  0  0
 14  5  1  0  0  0  0
 16 19  1  6  0  0  0
 16 24  1  0  0  0  0
 16 17  1  0  0  0  0
 17 20  1  0  0  0  0
 18 16  1  0  0  0  0
 18 22  1  1  0  0  0
 18 17  1  0  0  0  0
 21 17  1  0  0  0  0
 23 28  2  0  0  0  0
 23 24  1  0  0  0  0
 24 25  2  0  0  0  0
 25 26  1  0  0  0  0
 25 30  1  0  0  0  0
 27 31  1  0  0  0  0
 27 26  2  0  0  0  0
 28 27  1  0  0  0  0
 29 23  1  0  0  0  0
 32  6  1  0  0  0  0
 33 32  1  0  0  0  0
 34 32  1  0  0  0  0
 35 34  2  0  0  0  0
 36 35  1  0  0  0  0
 37 38  1  0  0  0  0
 37 35  1  0  0  0  0
 38 39  1  0  0  0  0
 38 40  2  0  0  0  0
 40 34  1  0  0  0  0
M  END
>  <minimizedAffinity>
-5.04010534

$$$$

 OpenBabel03252506483D

 40 43  0  0  1  0  0  0  0  0999 V2000
   37.9620   26.4900   42.4010 N   0  0  1  0  0  0  0  0  0  0  0  0
   37.0170   25.4630   42.0310 C   0  0  0  0  0  0  0  0  0  0  0  0
   37.5690   24.0670   42.1240 C   0  0  0  0  0  0  0  0  0  0  0  0
   38.6400   23.9020   41.0620 C   0  0  0  0  0  0  0  0  0  0  0  0
   39.4170   25.1810   40.8920 C   0  0  0  0  0  0  0  0  0  0  0  0
   39.2850   26.0270   42.1460 C   0  0  2  0  0  0  0  0  0  0  0  0
   36.8100   25.6120   40.9290 H   0  0  0  0  0  0  0  0  0  0  0  0
   36.0340   25.5750   42.5090 H   0  0  0  0  0  0  0  0  0  0  0  0
   36.7200   23.3900   41.8750 H   0  0  0  0  0  0  0  0  0  0  0  0
   37.9030   23.7550   43.1160 H   0  0  0  0  0  0  0  0  0  0  0  0
   39.2930   23.0470   41.3730 H   0  0  0  0  0  0  0  0  0  0  0  0
   38.1690   23.5540   40.1110 H   0  0  0  0  0  0  0  0  0  0  0  0
   39.1030   25.7470   39.9940 H   0  0  0  0  0  0  0  0  0  0  0  0
   40.4840   24.9310   40.7880 H   0  0  0  0  0  0  0  0  0  0  0  0
   39.9320   26.9330   41.9600 H   0  0  0  0  0  0  0  0  0  0  0  0
   37.2730   28.9680   42.3420 C   0  0  1  0  0  0  0  0  0  0  0  0
   36.1870   28.1210   41.8440 C   0  0  0  0  0  0  0  0  0  0  0  0
   37.5890   27.6630   41.6760 C   0  0  2  0  0  0  0  0  0  0  0  0
   37.4720   28.9600   43.4420 H   0  0  0  0  0  0  0  0  0  0  0  0
   35.6230   28.5060   40.9470 H   0  0  0  0  0  0  0  0  0  0  0  0
   35.5440   27.6180   42.5670 H   0  0  0  0  0  0  0  0  0  0  0  0
   37.9720   27.7600   40.6380 H   0  0  0  0  0  0  0  0  0  0  0  0
   38.9140   30.7730   41.7140 C   0  0  0  0  0  0  0  0  0  0  0  0
   37.6080   30.2360   41.6480 C   0  0  0  0  0  0  0  0  0  0  0  0
   36.6510   30.9420   40.9120 C   0  0  0  0  0  0  0  0  0  0  0  0
   37.0370   32.0880   40.3130 N   0  0  0  0  0  0  0  0  0  0  0  0
   38.2740   32.5890   40.3800 C   0  0  0  0  0  0  0  0  0  0  0  0
   39.2380   31.9290   41.0900 N   0  0  0  0  0  0  0  0  0  0  0  0
   39.6230   30.2120   42.2870 H   0  0  0  0  0  0  0  0  0  0  0  0
   35.6440   30.5540   40.8450 H   0  0  0  0  0  0  0  0  0  0  0  0
   38.4530   33.5160   39.8550 H   0  0  0  0  0  0  0  0  0  0  0  0
   39.9000   25.3190   43.2380 N   0  0  0  0  0  0  0  0  0  0  0  0
   39.4500   24.6280   43.8720 H   0  0  0  0  0  0  0  0  0  0  0  0
   41.2810   25.7300   43.3470 C   0  0  0  0  0  0  0  0  0  0  0  0
   41.3770   27.1530   43.5740 C   0  0  0  0  0  0  0  0  0  0  0  0
   40.7490   28.0310   43.6930 H   0  0  0  0  0  0  0  0  0  0  0  0
   43.2450   27.4700   43.6800 S   0  0  0  0  0  0  0  0  0  0  0  0
   43.5240   25.6100   43.3940 C   0  0  0  0  0  0  0  0  0  0  0  0
   44.2670   24.5910   43.2520 H   0  0  0  0  0  0  0  0  0  0  0  0
   42.4840   25.2090   43.3010 N   0  0  0  0  0  0  0  0  0  0  0  0
  1  2  1  6  0  0  0
  2  3  1  0  0  0  0
  2  8  1  0  0  0  0
  3 10  1  0  0  0  0
  4 11  1  0  0  0  0
  4  3  1  0  0  0  0
  5  4  1  0  0  0  0
  5  6  1  0  0  0  0
  6 15  1  6  0  0  0
  6  1  1  0  0  0  0
  6 32  1  0  0  0  0
  7  2  1  0  0  0  0
  9  3  1  0  0  0  0
 12  4  1  0  0  0  0
 13  5  1  0  0  0  0
 14  5  1  0  0  0  0
 16 19  1  1  0  0  0
 17 16  1  0  0  0  0
 17 21  1  0  0  0  0
 18 22  1  6  0  0  0
 18 17  1  0  0  0  0
 18 16  1  0  0  0  0
 18  1  1  0  0  0  0
 20 17  1  0  0  0  0
 23 29  1  0  0  0  0
 24 23  1  0  0  0  0
 24 16  1  0  0  0  0
 25 24  2  0  0  0  0
 26 27  2  0  0  0  0
 26 25  1  0  0  0  0
 27 28  1  0  0  0  0
 28 23  2  0  0  0  0
 30 25  1  0  0  0  0
 31 27  1  0  0  0  0
 32 34  1  0  0  0  0
 32 33  1  0  0  0  0
 34 35  2  0  0  0  0
 35 37  1  0  0  0  0
 35 36  1  0  0  0  0
 38 37  1  0  0  0  0
 39 38  1  0  0  0  0
 40 34  1  0  0  0  0
 40 38  2  0  0  0  0
M  END
>  <minimizedAffinity>
-4.90082073

$$$$

 OpenBabel03252506483D

 40 43  0  0  1  0  0  0  0  0999 V2000
   37.2850   29.3720   41.5550 N   0  0  1  0  0  0  0  0  0  0  0  0
   36.8780   28.4460   42.5850 C   0  0  0  0  0  0  0  0  0  0  0  0
   37.8950   28.2690   43.6790 C   0  0  0  0  0  0  0  0  0  0  0  0
   39.1100   27.5710   43.0970 C   0  0  0  0  0  0  0  0  0  0  0  0
   39.3590   28.0350   41.6860 C   0  0  0  0  0  0  0  0  0  0  0  0
   38.7070   29.3900   41.4740 C   0  0  2  0  0  0  0  0  0  0  0  0
   36.8180   27.4330   42.0870 H   0  0  0  0  0  0  0  0  0  0  0  0
   35.8610   28.6250   42.9610 H   0  0  0  0  0  0  0  0  0  0  0  0
   37.4210   27.5860   44.4230 H   0  0  0  0  0  0  0  0  0  0  0  0
   38.1500   29.1700   44.2390 H   0  0  0  0  0  0  0  0  0  0  0  0
   39.9760   27.7850   43.7730 H   0  0  0  0  0  0  0  0  0  0  0  0
   38.9730   26.4650   43.1680 H   0  0  0  0  0  0  0  0  0  0  0  0
   39.0100   27.3020   40.9340 H   0  0  0  0  0  0  0  0  0  0  0  0
   40.4420   28.1790   41.5520 H   0  0  0  0  0  0  0  0  0  0  0  0
   38.9820   29.6880   40.4200 H   0  0  0  0  0  0  0  0  0  0  0  0
   35.8510   29.9100   39.4880 C   0  0  1  0  0  0  0  0  0  0  0  0
   35.1370   28.9970   40.3850 C   0  0  0  0  0  0  0  0  0  0  0  0
   36.6220   28.9640   40.3580 C   0  0  2  0  0  0  0  0  0  0  0  0
   35.9470   30.9770   39.8050 H   0  0  0  0  0  0  0  0  0  0  0  0
   34.5600   28.1630   39.8940 H   0  0  0  0  0  0  0  0  0  0  0  0
   34.6290   29.4130   41.2550 H   0  0  0  0  0  0  0  0  0  0  0  0
   37.0420   28.0870   39.8210 H   0  0  0  0  0  0  0  0  0  0  0  0
   34.7190   29.0550   37.4080 C   0  0  0  0  0  0  0  0  0  0  0  0
   35.8230   29.6870   38.0220 C   0  0  0  0  0  0  0  0  0  0  0  0
   36.8830   30.0890   37.2000 C   0  0  0  0  0  0  0  0  0  0  0  0
   36.7790   29.8470   35.8760 N   0  0  0  0  0  0  0  0  0  0  0  0
   35.7300   29.2480   35.3040 C   0  0  0  0  0  0  0  0  0  0  0  0
   34.6760   28.8410   36.0720 N   0  0  0  0  0  0  0  0  0  0  0  0
   33.9260   28.7570   38.0620 H   0  0  0  0  0  0  0  0  0  0  0  0
   37.7400   30.5750   37.6440 H   0  0  0  0  0  0  0  0  0  0  0  0
   35.7730   29.1130   34.2320 H   0  0  0  0  0  0  0  0  0  0  0  0
   39.3520   30.3450   42.3360 N   0  0  0  0  0  0  0  0  0  0  0  0
   39.6420   30.2040   43.3250 H   0  0  0  0  0  0  0  0  0  0  0  0
   39.5360   31.5830   41.6140 C   0  0  0  0  0  0  0  0  0  0  0  0
   40.9320   31.8000   41.3160 C   0  0  0  0  0  0  0  0  0  0  0  0
   41.9050   31.3370   41.4530 H   0  0  0  0  0  0  0  0  0  0  0  0
   40.9450   33.4540   40.3860 S   0  0  0  0  0  0  0  0  0  0  0  0
   39.0550   33.5230   40.5880 C   0  0  0  0  0  0  0  0  0  0  0  0
   37.9240   34.0750   40.4260 H   0  0  0  0  0  0  0  0  0  0  0  0
   38.8250   32.5800   41.1450 N   0  0  0  0  0  0  0  0  0  0  0  0
  1  2  1  1  0  0  0
  2  8  1  0  0  0  0
  2  3  1  0  0  0  0
  3 10  1  0  0  0  0
  3  9  1  0  0  0  0
  4 12  1  0  0  0  0
  4  3  1  0  0  0  0
  4 11  1  0  0  0  0
  5  4  1  0  0  0  0
  6 15  1  6  0  0  0
  6  1  1  0  0  0  0
  6  5  1  0  0  0  0
  6 32  1  0  0  0  0
  7  2  1  0  0  0  0
 13  5  1  0  0  0  0
 14  5  1  0  0  0  0
 16 19  1  1  0  0  0
 16 18  1  0  0  0  0
 16 17  1  0  0  0  0
 17 21  1  0  0  0  0
 18 22  1  6  0  0  0
 18 17  1  0  0  0  0
 18  1  1  0  0  0  0
 20 17  1  0  0  0  0
 23 24  1  0  0  0  0
 23 29  1  0  0  0  0
 24 16  1  0  0  0  0
 25 30  1  0  0  0  0
 25 24  2  0  0  0  0
 26 25  1  0  0  0  0
 27 26  2  0  0  0  0
 27 28  1  0  0  0  0
 28 23  2  0  0  0  0
 31 27  1  0  0  0  0
 32 33  1  0  0  0  0
 34 32  1  0  0  0  0
 35 36  1  0  0  0  0
 35 34  2  0  0  0  0
 37 38  1  0  0  0  0
 37 35  1  0  0  0  0
 38 40  2  0  0  0  0
 39 38  1  0  0  0  0
 40 34  1  0  0  0  0
M  END
>  <minimizedAffinity>
-4.88287783

$$$$

 OpenBabel03252506483D

 40 43  0  0  1  0  0  0  0  0999 V2000
   37.1290   30.3910   40.9730 N   0  0  1  0  0  0  0  0  0  0  0  0
   35.8880   30.4410   40.2380 C   0  0  0  0  0  0  0  0  0  0  0  0
   35.0710   29.1820   40.3380 C   0  0  0  0  0  0  0  0  0  0  0  0
   35.8130   28.0700   39.6200 C   0  0  0  0  0  0  0  0  0  0  0  0
   37.2990   28.2110   39.8200 C   0  0  0  0  0  0  0  0  0  0  0  0
   37.5670   29.0390   41.0650 C   0  0  2  0  0  0  0  0  0  0  0  0
   36.1750   30.5060   39.1460 H   0  0  0  0  0  0  0  0  0  0  0  0
   35.3050   31.3540   40.4200 H   0  0  0  0  0  0  0  0  0  0  0  0
   34.1270   29.3910   39.7820 H   0  0  0  0  0  0  0  0  0  0  0  0
   34.7550   28.9010   41.3450 H   0  0  0  0  0  0  0  0  0  0  0  0
   35.4220   27.0970   40.0140 H   0  0  0  0  0  0  0  0  0  0  0  0
   35.5220   28.0650   38.5420 H   0  0  0  0  0  0  0  0  0  0  0  0
   37.8030   28.6460   38.9360 H   0  0  0  0  0  0  0  0  0  0  0  0
   37.7230   27.2130   40.0040 H   0  0  0  0  0  0  0  0  0  0  0  0
   38.6910   29.0530   41.1730 H   0  0  0  0  0  0  0  0  0  0  0  0
   38.7130   32.4180   40.9830 C   0  0  1  0  0  0  0  0  0  0  0  0
   37.5680   32.6640   40.1010 C   0  0  0  0  0  0  0  0  0  0  0  0
   38.0340   31.2690   40.3020 C   0  0  2  0  0  0  0  0  0  0  0  0
   38.5320   32.4460   42.0850 H   0  0  0  0  0  0  0  0  0  0  0  0
   37.7900   33.1830   39.1260 H   0  0  0  0  0  0  0  0  0  0  0  0
   36.6260   32.9810   40.5480 H   0  0  0  0  0  0  0  0  0  0  0  0
   38.5940   30.8540   39.4370 H   0  0  0  0  0  0  0  0  0  0  0  0
   40.2720   33.7930   39.5610 C   0  0  0  0  0  0  0  0  0  0  0  0
   40.0790   32.8090   40.5570 C   0  0  0  0  0  0  0  0  0  0  0  0
   41.2180   32.2200   41.1180 C   0  0  0  0  0  0  0  0  0  0  0  0
   42.4240   32.6310   40.6730 N   0  0  0  0  0  0  0  0  0  0  0  0
   42.5960   33.5620   39.7300 C   0  0  0  0  0  0  0  0  0  0  0  0
   41.5100   34.1610   39.1570 N   0  0  0  0  0  0  0  0  0  0  0  0
   39.3830   34.2220   39.1480 H   0  0  0  0  0  0  0  0  0  0  0  0
   41.0990   31.4650   41.8830 H   0  0  0  0  0  0  0  0  0  0  0  0
   43.6170   33.8000   39.4630 H   0  0  0  0  0  0  0  0  0  0  0  0
   37.0710   28.3160   42.2070 N   0  0  0  0  0  0  0  0  0  0  0  0
   36.1910   28.4980   42.7310 H   0  0  0  0  0  0  0  0  0  0  0  0
   38.0090   27.2710   42.5480 C   0  0  0  0  0  0  0  0  0  0  0  0
   39.1330   27.8100   43.2770 C   0  0  0  0  0  0  0  0  0  0  0  0
   39.5150   28.7520   43.6610 H   0  0  0  0  0  0  0  0  0  0  0  0
   40.2220   26.2930   43.6150 S   0  0  0  0  0  0  0  0  0  0  0  0
   38.9370   25.2310   42.7000 C   0  0  0  0  0  0  0  0  0  0  0  0
   38.5010   24.1270   42.2520 H   0  0  0  0  0  0  0  0  0  0  0  0
   38.1590   25.9780   42.3990 N   0  0  0  0  0  0  0  0  0  0  0  0
  1  2  1  6  0  0  0
  1  6  1  0  0  0  0
  2  3  1  0  0  0  0
  2  8  1  0  0  0  0
  3 10  1  0  0  0  0
  4  5  1  0  0  0  0
  4 11  1  0  0  0  0
  4  3  1  0  0  0  0
  5 14  1  0  0  0  0
  5  6  1  0  0  0  0
  6 15  1  1  0  0  0
  6 32  1  0  0  0  0
  7  2  1  0  0  0  0
  9  3  1  0  0  0  0
 12  4  1  0  0  0  0
 13  5  1  0  0  0  0
 16 19  1  1  0  0  0
 17 18  1  0  0  0  0
 17 21  1  0  0  0  0
 17 16  1  0  0  0  0
 18 22  1  6  0  0  0
 18  1  1  0  0  0  0
 18 16  1  0  0  0  0
 20 17  1  0  0  0  0
 23 24  1  0  0  0  0
 24 16  1  0  0  0  0
 24 25  2  0  0  0  0
 25 30  1  0  0  0  0
 26 25  1  0  0  0  0
 27 26  2  0  0  0  0
 28 23  2  0  0  0  0
 28 27  1  0  0  0  0
 29 23  1  0  0  0  0
 31 27  1  0  0  0  0
 32 34  1  0  0  0  0
 32 33  1  0  0  0  0
 34 35  2  0  0  0  0
 35 37  1  0  0  0  0
 35 36  1  0  0  0  0
 38 37  1  0  0  0  0
 39 38  1  0  0  0  0
 40 34  1  0  0  0  0
 40 38  2  0  0  0  0
M  END
>  <minimizedAffinity>
-4.81722498

$$$$

 OpenBabel03252506483D

 40 43  0  0  1  0  0  0  0  0999 V2000
   36.9750   29.7900   40.6810 N   0  0  1  0  0  0  0  0  0  0  0  0
   37.2820   31.1610   41.0100 C   0  0  0  0  0  0  0  0  0  0  0  0
   36.9490   32.1380   39.9160 C   0  0  0  0  0  0  0  0  0  0  0  0
   37.8800   31.8830   38.7450 C   0  0  0  0  0  0  0  0  0  0  0  0
   38.1550   30.4100   38.6000 C   0  0  0  0  0  0  0  0  0  0  0  0
   37.0450   29.6170   39.2690 C   0  0  2  0  0  0  0  0  0  0  0  0
   38.4070   31.2140   41.1050 H   0  0  0  0  0  0  0  0  0  0  0  0
   36.9120   31.4710   41.9970 H   0  0  0  0  0  0  0  0  0  0  0  0
   37.1770   33.1470   40.3330 H   0  0  0  0  0  0  0  0  0  0  0  0
   35.8980   32.1800   39.6220 H   0  0  0  0  0  0  0  0  0  0  0  0
   37.3980   32.3170   37.8320 H   0  0  0  0  0  0  0  0  0  0  0  0
   38.8120   32.4850   38.8740 H   0  0  0  0  0  0  0  0  0  0  0  0
   39.1470   30.1250   39.0020 H   0  0  0  0  0  0  0  0  0  0  0  0
   38.1290   30.1530   37.5300 H   0  0  0  0  0  0  0  0  0  0  0  0
   37.2960   28.5350   39.0710 H   0  0  0  0  0  0  0  0  0  0  0  0
   37.4380   28.0180   42.4880 C   0  0  1  0  0  0  0  0  0  0  0  0
   38.0210   29.3080   42.8710 C   0  0  0  0  0  0  0  0  0  0  0  0
   37.8830   28.9810   41.4290 C   0  0  2  0  0  0  0  0  0  0  0  0
   36.3270   27.9150   42.5500 H   0  0  0  0  0  0  0  0  0  0  0  0
   39.0410   29.2730   43.3470 H   0  0  0  0  0  0  0  0  0  0  0  0
   37.3700   30.0630   43.3100 H   0  0  0  0  0  0  0  0  0  0  0  0
   38.8410   28.7080   40.9370 H   0  0  0  0  0  0  0  0  0  0  0  0
   37.8240   25.5710   42.0410 C   0  0  0  0  0  0  0  0  0  0  0  0
   38.2020   26.7640   42.6960 C   0  0  0  0  0  0  0  0  0  0  0  0
   39.3140   26.7170   43.5440 C   0  0  0  0  0  0  0  0  0  0  0  0
   39.9530   25.5350   43.6800 N   0  0  0  0  0  0  0  0  0  0  0  0
   39.5880   24.4110   43.0560 C   0  0  0  0  0  0  0  0  0  0  0  0
   38.5070   24.4160   42.2200 N   0  0  0  0  0  0  0  0  0  0  0  0
   36.9680   25.6380   41.4020 H   0  0  0  0  0  0  0  0  0  0  0  0
   39.6250   27.6150   44.0580 H   0  0  0  0  0  0  0  0  0  0  0  0
   40.1850   23.5310   43.2520 H   0  0  0  0  0  0  0  0  0  0  0  0
   35.8170   29.8720   38.5640 N   0  0  0  0  0  0  0  0  0  0  0  0
   35.0390   30.4960   38.8620 H   0  0  0  0  0  0  0  0  0  0  0  0
   35.8040   29.1000   37.3430 C   0  0  0  0  0  0  0  0  0  0  0  0
   35.7500   27.6860   37.6330 C   0  0  0  0  0  0  0  0  0  0  0  0
   35.7150   26.9990   38.4730 H   0  0  0  0  0  0  0  0  0  0  0  0
   35.7460   26.8730   35.9180 S   0  0  0  0  0  0  0  0  0  0  0  0
   35.8190   28.6120   35.1510 C   0  0  0  0  0  0  0  0  0  0  0  0
   35.8640   29.4060   34.1620 H   0  0  0  0  0  0  0  0  0  0  0  0
   35.8290   29.2830   36.0460 N   0  0  0  0  0  0  0  0  0  0  0  0
  1  2  1  6  0  0  0
  1 18  1  0  0  0  0
  2  7  1  0  0  0  0
  2  8  1  0  0  0  0
  3  9  1  0  0  0  0
  3  2  1  0  0  0  0
  4 12  1  0  0  0  0
  4  3  1  0  0  0  0
  5  4  1  0  0  0  0
  5 13  1  0  0  0  0
  5  6  1  0  0  0  0
  6 15  1  6  0  0  0
  6  1  1  0  0  0  0
 10  3  1  0  0  0  0
 11  4  1  0  0  0  0
 14  5  1  0  0  0  0
 16 19  1  1  0  0  0
 16 24  1  0  0  0  0
 16 17  1  0  0  0  0
 17 21  1  0  0  0  0
 17 20  1  0  0  0  0
 18 22  1  6  0  0  0
 18 16  1  0  0  0  0
 18 17  1  0  0  0  0
 23 28  2  0  0  0  0
 23 24  1  0  0  0  0
 24 25  2  0  0  0  0
 25 26  1  0  0  0  0
 25 30  1  0  0  0  0
 27 31  1  0  0  0  0
 27 26  2  0  0  0  0
 28 27  1  0  0  0  0
 29 23  1  0  0  0  0
 32 33  1  0  0  0  0
 32  6  1  0  0  0  0
 34 35  2  0  0  0  0
 34 32  1  0  0  0  0
 35 36  1  0  0  0  0
 37 35  1  0  0  0  0
 38 37  1  0  0  0  0
 38 40  2  0  0  0  0
 39 38  1  0  0  0  0
 40 34  1  0  0  0  0
M  END
>  <minimizedAffinity>
-4.72053003

$$$$

 OpenBabel03252506483D

 40 43  0  0  1  0  0  0  0  0999 V2000
   38.6680   28.7290   41.6650 N   0  0  1  0  0  0  0  0  0  0  0  0
   38.6250   27.2900   41.7630 C   0  0  0  0  0  0  0  0  0  0  0  0
   37.2420   26.7360   41.9730 C   0  0  0  0  0  0  0  0  0  0  0  0
   36.7610   27.1560   43.3500 C   0  0  0  0  0  0  0  0  0  0  0  0
   37.2480   28.5420   43.6800 C   0  0  0  0  0  0  0  0  0  0  0  0
   37.5790   29.2840   42.3960 C   0  0  2  0  0  0  0  0  0  0  0  0
   39.1830   27.0250   42.7100 H   0  0  0  0  0  0  0  0  0  0  0  0
   39.1820   26.7770   40.9670 H   0  0  0  0  0  0  0  0  0  0  0  0
   37.3570   25.6270   41.9640 H   0  0  0  0  0  0  0  0  0  0  0  0
   36.5190   26.9560   41.1850 H   0  0  0  0  0  0  0  0  0  0  0  0
   35.6430   27.0880   43.3490 H   0  0  0  0  0  0  0  0  0  0  0  0
   37.0810   26.3960   44.1030 H   0  0  0  0  0  0  0  0  0  0  0  0
   38.1160   28.5300   44.3680 H   0  0  0  0  0  0  0  0  0  0  0  0
   36.4300   29.0950   44.1640 H   0  0  0  0  0  0  0  0  0  0  0  0
   37.8830   30.3200   42.7240 H   0  0  0  0  0  0  0  0  0  0  0  0
   40.9890   29.7490   41.2280 C   0  0  1  0  0  0  0  0  0  0  0  0
   41.1110   28.3400   41.6120 C   0  0  0  0  0  0  0  0  0  0  0  0
   39.9610   29.1270   42.1240 C   0  0  2  0  0  0  0  0  0  0  0  0
   40.6030   29.9750   40.2050 H   0  0  0  0  0  0  0  0  0  0  0  0
   41.9570   28.0840   42.3110 H   0  0  0  0  0  0  0  0  0  0  0  0
   40.9390   27.5770   40.8520 H   0  0  0  0  0  0  0  0  0  0  0  0
   40.0530   29.4130   43.1930 H   0  0  0  0  0  0  0  0  0  0  0  0
   41.9250   32.0860   41.3070 C   0  0  0  0  0  0  0  0  0  0  0  0
   41.9230   30.7570   41.7880 C   0  0  0  0  0  0  0  0  0  0  0  0
   42.8310   30.4310   42.8010 C   0  0  0  0  0  0  0  0  0  0  0  0
   43.6470   31.4060   43.2530 N   0  0  0  0  0  0  0  0  0  0  0  0
   43.6420   32.6610   42.7920 C   0  0  0  0  0  0  0  0  0  0  0  0
   42.7710   33.0190   41.8030 N   0  0  0  0  0  0  0  0  0  0  0  0
   41.2220   32.3040   40.5300 H   0  0  0  0  0  0  0  0  0  0  0  0
   42.8500   29.4220   43.1880 H   0  0  0  0  0  0  0  0  0  0  0  0
   44.3480   33.3460   43.2400 H   0  0  0  0  0  0  0  0  0  0  0  0
   36.3640   29.4500   41.6420 N   0  0  0  0  0  0  0  0  0  0  0  0
   35.4120   29.1200   41.9030 H   0  0  0  0  0  0  0  0  0  0  0  0
   36.6620   30.1520   40.4150 C   0  0  0  0  0  0  0  0  0  0  0  0
   36.9760   31.5360   40.6810 C   0  0  0  0  0  0  0  0  0  0  0  0
   37.0650   32.2360   41.5060 H   0  0  0  0  0  0  0  0  0  0  0  0
   37.3250   32.2590   38.9610 S   0  0  0  0  0  0  0  0  0  0  0  0
   36.9750   30.5410   38.2240 C   0  0  0  0  0  0  0  0  0  0  0  0
   36.8680   29.7320   37.2530 H   0  0  0  0  0  0  0  0  0  0  0  0
   36.7340   29.9230   39.1260 N   0  0  0  0  0  0  0  0  0  0  0  0
  1  2  1  1  0  0  0
  1 18  1  0  0  0  0
  1  6  1  0  0  0  0
  2  3  1  0  0  0  0
  2  7  1  0  0  0  0
  3  4  1  0  0  0  0
  4  5  1  0  0  0  0
  4 12  1  0  0  0  0
  5 14  1  0  0  0  0
  5 13  1  0  0  0  0
  6 15  1  1  0  0  0
  6  5  1  0  0  0  0
  8  2  1  0  0  0  0
  9  3  1  0  0  0  0
 10  3  1  0  0  0  0
 11  4  1  0  0  0  0
 16 19  1  6  0  0  0
 16 17  1  0  0  0  0
 16 24  1  0  0  0  0
 16 18  1  0  0  0  0
 17 18  1  0  0  0  0
 17 20  1  0  0  0  0
 18 22  1  1  0  0  0
 21 17  1  0  0  0  0
 23 24  2  0  0  0  0
 23 28  1  0  0  0  0
 24 25  1  0  0  0  0
 25 30  1  0  0  0  0
 25 26  2  0  0  0  0
 27 31  1  0  0  0  0
 27 26  1  0  0  0  0
 28 27  2  0  0  0  0
 29 23  1  0  0  0  0
 32 33  1  0  0  0  0
 32  6  1  0  0  0  0
 34 35  2  0  0  0  0
 34 32  1  0  0  0  0
 35 36  1  0  0  0  0
 37 35  1  0  0  0  0
 38 37  1  0  0  0  0
 38 40  2  0  0  0  0
 39 38  1  0  0  0  0
 40 34  1  0  0  0  0
M  END
>  <minimizedAffinity>
-4.63116932

$$$$

 OpenBabel03252506483D

 40 43  0  0  1  0  0  0  0  0999 V2000
   37.6080   29.7950   40.3230 N   0  0  1  0  0  0  0  0  0  0  0  0
   36.8170   30.8490   40.9120 C   0  0  0  0  0  0  0  0  0  0  0  0
   37.0690   32.2050   40.3110 C   0  0  0  0  0  0  0  0  0  0  0  0
   38.4790   32.6360   40.6710 C   0  0  0  0  0  0  0  0  0  0  0  0
   39.4090   31.4520   40.6710 C   0  0  0  0  0  0  0  0  0  0  0  0
   38.8210   30.3430   39.8150 C   0  0  2  0  0  0  0  0  0  0  0  0
   37.1710   30.9440   41.9810 H   0  0  0  0  0  0  0  0  0  0  0  0
   35.7500   30.6040   40.9990 H   0  0  0  0  0  0  0  0  0  0  0  0
   36.3520   32.8950   40.8140 H   0  0  0  0  0  0  0  0  0  0  0  0
   36.8560   32.2980   39.2440 H   0  0  0  0  0  0  0  0  0  0  0  0
   38.7890   33.4190   39.9330 H   0  0  0  0  0  0  0  0  0  0  0  0
   38.4650   33.1730   41.6500 H   0  0  0  0  0  0  0  0  0  0  0  0
   39.6300   31.0910   41.6940 H   0  0  0  0  0  0  0  0  0  0  0  0
   40.3560   31.7510   40.1970 H   0  0  0  0  0  0  0  0  0  0  0  0
   39.5950   29.5210   39.8240 H   0  0  0  0  0  0  0  0  0  0  0  0
   37.4410   27.3570   41.1270 C   0  0  1  0  0  0  0  0  0  0  0  0
   36.5340   28.2150   41.8950 C   0  0  0  0  0  0  0  0  0  0  0  0
   37.7780   28.8030   41.3360 C   0  0  2  0  0  0  0  0  0  0  0  0
   37.1580   27.1190   40.0730 H   0  0  0  0  0  0  0  0  0  0  0  0
   36.4720   28.0120   43.0020 H   0  0  0  0  0  0  0  0  0  0  0  0
   35.5730   28.4820   41.4550 H   0  0  0  0  0  0  0  0  0  0  0  0
   38.5700   28.9830   42.0930 H   0  0  0  0  0  0  0  0  0  0  0  0
   38.9370   26.6150   43.0120 C   0  0  0  0  0  0  0  0  0  0  0  0
   38.2460   26.3180   41.8160 C   0  0  0  0  0  0  0  0  0  0  0  0
   38.3520   25.0180   41.3080 C   0  0  0  0  0  0  0  0  0  0  0  0
   39.1050   24.1340   41.9940 N   0  0  0  0  0  0  0  0  0  0  0  0
   39.7560   24.4230   43.1250 C   0  0  0  0  0  0  0  0  0  0  0  0
   39.6780   25.6810   43.6530 N   0  0  0  0  0  0  0  0  0  0  0  0
   38.8390   27.6170   43.3730 H   0  0  0  0  0  0  0  0  0  0  0  0
   37.8330   24.7650   40.3950 H   0  0  0  0  0  0  0  0  0  0  0  0
   40.3260   23.6230   43.5760 H   0  0  0  0  0  0  0  0  0  0  0  0
   38.7540   30.8070   38.4540 N   0  0  0  0  0  0  0  0  0  0  0  0
   38.9520   31.7680   38.1080 H   0  0  0  0  0  0  0  0  0  0  0  0
   38.3420   29.7150   37.6030 C   0  0  0  0  0  0  0  0  0  0  0  0
   39.3720   28.7050   37.5310 C   0  0  0  0  0  0  0  0  0  0  0  0
   40.3670   28.4880   37.9090 H   0  0  0  0  0  0  0  0  0  0  0  0
   38.6350   27.3900   36.3780 S   0  0  0  0  0  0  0  0  0  0  0  0
   37.0790   28.4710   36.2230 C   0  0  0  0  0  0  0  0  0  0  0  0
   35.9190   28.7180   35.7720 H   0  0  0  0  0  0  0  0  0  0  0  0
   37.3190   29.3540   36.8670 N   0  0  0  0  0  0  0  0  0  0  0  0
  1  2  1  1  0  0  0
  1 18  1  0  0  0  0
  2  8  1  0  0  0  0
  2  7  1  0  0  0  0
  3  4  1  0  0  0  0
  3  9  1  0  0  0  0
  3  2  1  0  0  0  0
  4 12  1  0  0  0  0
  5  4  1  0  0  0  0
  5 13  1  0  0  0  0
  6 15  1  1  0  0  0
  6  1  1  0  0  0  0
  6  5  1  0  0  0  0
 10  3  1  0  0  0  0
 11  4  1  0  0  0  0
 14  5  1  0  0  0  0
 16 19  1  6  0  0  0
 16 18  1  0  0  0  0
 16 24  1  0  0  0  0
 16 17  1  0  0  0  0
 17 20  1  0  0  0  0
 18 17  1  0  0  0  0
 18 22  1  1  0  0  0
 21 17  1  0  0  0  0
 23 29  1  0  0  0  0
 23 28  1  0  0  0  0
 24 23  2  0  0  0  0
 25 24  1  0  0  0  0
 25 26  2  0  0  0  0
 26 27  1  0  0  0  0
 27 31  1  0  0  0  0
 27 28  2  0  0  0  0
 30 25  1  0  0  0  0
 32  6  1  0  0  0  0
 33 32  1  0  0  0  0
 34 32  1  0  0  0  0
 35 34  2  0  0  0  0
 35 36  1  0  0  0  0
 37 35  1  0  0  0  0
 38 37  1  0  0  0  0
 38 40  2  0  0  0  0
 39 38  1  0  0  0  0
 40 34  1  0  0  0  0
M  END
>  <minimizedAffinity>
-4.62081718

$$$$

 OpenBabel03252506483D

 40 43  0  0  1  0  0  0  0  0999 V2000
   38.1490   30.7400   38.9160 N   0  0  1  0  0  0  0  0  0  0  0  0
   39.1600   31.6070   38.3600 C   0  0  0  0  0  0  0  0  0  0  0  0
   39.7700   32.5500   39.3620 C   0  0  0  0  0  0  0  0  0  0  0  0
   38.7080   33.5460   39.7910 C   0  0  0  0  0  0  0  0  0  0  0  0
   37.3590   32.8800   39.8680 C   0  0  0  0  0  0  0  0  0  0  0  0
   37.5420   31.3810   40.0330 C   0  0  2  0  0  0  0  0  0  0  0  0
   38.6250   32.2810   37.6270 H   0  0  0  0  0  0  0  0  0  0  0  0
   39.9070   31.0800   37.7500 H   0  0  0  0  0  0  0  0  0  0  0  0
   40.5660   33.1020   38.8100 H   0  0  0  0  0  0  0  0  0  0  0  0
   40.2780   32.0800   40.2060 H   0  0  0  0  0  0  0  0  0  0  0  0
   39.0270   33.9730   40.7760 H   0  0  0  0  0  0  0  0  0  0  0  0
   38.7170   34.4210   39.0980 H   0  0  0  0  0  0  0  0  0  0  0  0
   36.7260   33.1110   38.9890 H   0  0  0  0  0  0  0  0  0  0  0  0
   36.8430   33.2390   40.7710 H   0  0  0  0  0  0  0  0  0  0  0  0
   36.4960   30.9670   40.1350 H   0  0  0  0  0  0  0  0  0  0  0  0
   36.5540   29.1060   37.7320 C   0  0  1  0  0  0  0  0  0  0  0  0
   37.7170   29.3910   36.8870 C   0  0  0  0  0  0  0  0  0  0  0  0
   37.2550   30.4250   37.8470 C   0  0  2  0  0  0  0  0  0  0  0  0
   36.7090   28.4460   38.6200 H   0  0  0  0  0  0  0  0  0  0  0  0
   37.5140   29.5320   35.7880 H   0  0  0  0  0  0  0  0  0  0  0  0
   38.6470   28.8580   37.0840 H   0  0  0  0  0  0  0  0  0  0  0  0
   36.7170   31.2720   37.3710 H   0  0  0  0  0  0  0  0  0  0  0  0
   35.0180   29.0820   35.7360 C   0  0  0  0  0  0  0  0  0  0  0  0
   35.1950   29.0560   37.1380 C   0  0  0  0  0  0  0  0  0  0  0  0
   34.0490   28.9850   37.9370 C   0  0  0  0  0  0  0  0  0  0  0  0
   32.8510   28.9450   37.3170 N   0  0  0  0  0  0  0  0  0  0  0  0
   32.6930   28.9710   35.9900 C   0  0  0  0  0  0  0  0  0  0  0  0
   33.7870   29.0400   35.1760 N   0  0  0  0  0  0  0  0  0  0  0  0
   35.9130   29.1390   35.1520 H   0  0  0  0  0  0  0  0  0  0  0  0
   34.1560   28.9630   39.0120 H   0  0  0  0  0  0  0  0  0  0  0  0
   31.6770   28.9340   35.6210 H   0  0  0  0  0  0  0  0  0  0  0  0
   38.1870   31.1380   41.2970 N   0  0  0  0  0  0  0  0  0  0  0  0
   38.8850   31.7460   41.7720 H   0  0  0  0  0  0  0  0  0  0  0  0
   37.7250   29.8770   41.8280 C   0  0  0  0  0  0  0  0  0  0  0  0
   38.5390   29.4640   42.9470 C   0  0  0  0  0  0  0  0  0  0  0  0
   39.3940   29.7890   43.5320 H   0  0  0  0  0  0  0  0  0  0  0  0
   37.7720   27.8110   43.4770 S   0  0  0  0  0  0  0  0  0  0  0  0
   36.5020   28.0080   42.0760 C   0  0  0  0  0  0  0  0  0  0  0  0
   35.5050   27.6170   41.3950 H   0  0  0  0  0  0  0  0  0  0  0  0
   36.7930   28.9820   41.6060 N   0  0  0  0  0  0  0  0  0  0  0  0
  1  2  1  6  0  0  0
  1  6  1  0  0  0  0
  2  3  1  0  0  0  0
  3  4  1  0  0  0  0
  3 10  1  0  0  0  0
  4  5  1  0  0  0  0
  4 11  1  0  0  0  0
  5  6  1  0  0  0  0
  5 14  1  0  0  0  0
  6 15  1  1  0  0  0
  6 32  1  0  0  0  0
  7  2  1  0  0  0  0
  8  2  1  0  0  0  0
  9  3  1  0  0  0  0
 12  4  1  0  0  0  0
 13  5  1  0  0  0  0
 16 18  1  0  0  0  0
 16 19  1  1  0  0  0
 17 21  1  0  0  0  0
 17 16  1  0  0  0  0
 17 18  1  0  0  0  0
 18 22  1  6  0  0  0
 18  1  1  0  0  0  0
 20 17  1  0  0  0  0
 23 24  1  0  0  0  0
 24 16  1  0  0  0  0
 24 25  2  0  0  0  0
 25 30  1  0  0  0  0
 26 25  1  0  0  0  0
 27 26  2  0  0  0  0
 28 23  2  0  0  0  0
 28 27  1  0  0  0  0
 29 23  1  0  0  0  0
 31 27  1  0  0  0  0
 32 33  1  0  0  0  0
 32 34  1  0  0  0  0
 34 35  2  0  0  0  0
 35 37  1  0  0  0  0
 35 36  1  0  0  0  0
 38 37  1  0  0  0  0
 39 38  1  0  0  0  0
 40 34  1  0  0  0  0
 40 38  2  0  0  0  0
M  END
>  <minimizedAffinity>
-4.61624527

$$$$

 OpenBabel03252506483D

 40 43  0  0  1  0  0  0  0  0999 V2000
   36.7120   27.1630   41.2700 N   0  0  1  0  0  0  0  0  0  0  0  0
   36.7460   26.6420   42.6150 C   0  0  0  0  0  0  0  0  0  0  0  0
   36.7720   27.7060   43.6780 C   0  0  0  0  0  0  0  0  0  0  0  0
   38.0990   28.4380   43.5940 C   0  0  0  0  0  0  0  0  0  0  0  0
   38.5380   28.5700   42.1590 C   0  0  0  0  0  0  0  0  0  0  0  0
   37.3320   28.4440   41.2450 C   0  0  2  0  0  0  0  0  0  0  0  0
   37.7400   26.1140   42.7200 H   0  0  0  0  0  0  0  0  0  0  0  0
   36.0010   25.8570   42.8040 H   0  0  0  0  0  0  0  0  0  0  0  0
   36.7320   27.1620   44.6510 H   0  0  0  0  0  0  0  0  0  0  0  0
   35.9140   28.3820   43.6930 H   0  0  0  0  0  0  0  0  0  0  0  0
   37.9660   29.4330   44.0900 H   0  0  0  0  0  0  0  0  0  0  0  0
   38.8530   27.9140   44.2290 H   0  0  0  0  0  0  0  0  0  0  0  0
   39.3210   27.8360   41.8900 H   0  0  0  0  0  0  0  0  0  0  0  0
   38.9460   29.5810   42.0100 H   0  0  0  0  0  0  0  0  0  0  0  0
   37.7340   28.6060   40.2020 H   0  0  0  0  0  0  0  0  0  0  0  0
   36.6020   25.4440   39.3580 C   0  0  1  0  0  0  0  0  0  0  0  0
   36.8850   24.7780   40.6330 C   0  0  0  0  0  0  0  0  0  0  0  0
   37.3330   26.1810   40.4400 C   0  0  2  0  0  0  0  0  0  0  0  0
   35.5640   25.8230   39.1930 H   0  0  0  0  0  0  0  0  0  0  0  0
   37.6480   23.9490   40.6050 H   0  0  0  0  0  0  0  0  0  0  0  0
   36.0550   24.5720   41.3080 H   0  0  0  0  0  0  0  0  0  0  0  0
   38.4250   26.2830   40.2650 H   0  0  0  0  0  0  0  0  0  0  0  0
   37.9890   23.7970   38.0530 C   0  0  0  0  0  0  0  0  0  0  0  0
   37.3320   25.0450   38.1300 C   0  0  0  0  0  0  0  0  0  0  0  0
   37.4000   25.8860   37.0130 C   0  0  0  0  0  0  0  0  0  0  0  0
   38.0860   25.4490   35.9370 N   0  0  0  0  0  0  0  0  0  0  0  0
   38.7050   24.2660   35.8730 C   0  0  0  0  0  0  0  0  0  0  0  0
   38.6630   23.4170   36.9430 N   0  0  0  0  0  0  0  0  0  0  0  0
   37.9220   23.1780   38.9240 H   0  0  0  0  0  0  0  0  0  0  0  0
   36.9060   26.8470   37.0450 H   0  0  0  0  0  0  0  0  0  0  0  0
   39.2220   24.0360   34.9520 H   0  0  0  0  0  0  0  0  0  0  0  0
   36.4490   29.5510   41.5030 N   0  0  0  0  0  0  0  0  0  0  0  0
   35.6500   29.5760   42.1690 H   0  0  0  0  0  0  0  0  0  0  0  0
   36.8290   30.6640   40.6630 C   0  0  0  0  0  0  0  0  0  0  0  0
   36.8550   30.2720   39.2730 C   0  0  0  0  0  0  0  0  0  0  0  0
   36.6810   29.4080   38.6390 H   0  0  0  0  0  0  0  0  0  0  0  0
   37.3730   31.8560   38.3660 S   0  0  0  0  0  0  0  0  0  0  0  0
   37.4520   32.7340   40.0510 C   0  0  0  0  0  0  0  0  0  0  0  0
   37.6620   33.7480   40.7840 H   0  0  0  0  0  0  0  0  0  0  0  0
   37.1630   31.9270   40.7710 N   0  0  0  0  0  0  0  0  0  0  0  0
  1  2  1  1  0  0  0
  2  7  1  0  0  0  0
  2  8  1  0  0  0  0
  2  3  1  0  0  0  0
  3 10  1  0  0  0  0
  3  9  1  0  0  0  0
  4  3  1  0  0  0  0
  4 11  1  0  0  0  0
  4 12  1  0  0  0  0
  5  4  1  0  0  0  0
  6 15  1  6  0  0  0
  6  1  1  0  0  0  0
  6 32  1  0  0  0  0
  6  5  1  0  0  0  0
 13  5  1  0  0  0  0
 14  5  1  0  0  0  0
 16 19  1  6  0  0  0
 16 18  1  0  0  0  0
 16 17  1  0  0  0  0
 17 21  1  0  0  0  0
 18 22  1  6  0  0  0
 18 17  1  0  0  0  0
 18  1  1  0  0  0  0
 20 17  1  0  0  0  0
 23 24  1  0  0  0  0
 23 29  1  0  0  0  0
 24 16  1  0  0  0  0
 25 30  1  0  0  0  0
 25 24  2  0  0  0  0
 26 25  1  0  0  0  0
 27 26  2  0  0  0  0
 27 28  1  0  0  0  0
 28 23  2  0  0  0  0
 31 27  1  0  0  0  0
 32 33  1  0  0  0  0
 34 40  1  0  0  0  0
 34 32  1  0  0  0  0
 35 34  2  0  0  0  0
 36 35  1  0  0  0  0
 37 35  1  0  0  0  0
 37 38  1  0  0  0  0
 38 40  2  0  0  0  0
 38 39  1  0  0  0  0
M  END
>  <minimizedAffinity>
-4.55962133

$$$$
