
 OpenBabel03252502013D

 32 35  0  0  0  0  0  0  0  0999 V2000
   47.6190   32.2760   48.1600 C   0  0  0  0  0  0  0  0  0  0  0  0
   47.2250   30.9350   48.2110 C   0  0  0  0  0  0  0  0  0  0  0  0
   46.3440   30.5020   47.2670 C   0  0  0  0  0  0  0  0  0  0  0  0
   45.9150   31.3910   46.3540 N   0  0  0  0  0  0  0  0  0  0  0  0
   46.2720   32.6500   46.2900 C   0  0  0  0  0  0  0  0  0  0  0  0
   47.1300   33.0680   47.2100 N   0  0  0  0  0  0  0  0  0  0  0  0
   48.3320   32.6390   48.9200 H   0  0  0  0  0  0  0  0  0  0  0  0
   45.8990   33.7300   45.3700 C   0  0  0  0  0  0  0  0  0  0  0  0
   44.9260   34.6480   45.6290 N   0  0  0  0  0  0  0  0  0  0  0  0
   44.5610   35.6370   44.8330 C   0  0  0  0  0  0  0  0  0  0  0  0
   45.1760   35.7990   43.6400 N   0  0  0  0  0  0  0  0  0  0  0  0
   46.1610   34.9530   43.2610 C   0  0  0  0  0  0  0  0  0  0  0  0
   46.7890   35.1250   42.0360 C   0  0  0  0  0  0  0  0  0  0  0  0
   47.7890   34.2760   41.6410 C   0  0  0  0  0  0  0  0  0  0  0  0
   48.1350   33.2620   42.5020 C   0  0  0  0  0  0  0  0  0  0  0  0
   47.4850   33.1300   43.7070 C   0  0  0  0  0  0  0  0  0  0  0  0
   46.4720   33.9540   44.1550 C   0  0  0  0  0  0  0  0  0  0  0  0
   43.7700   36.3110   45.1430 H   0  0  0  0  0  0  0  0  0  0  0  0
   46.4460   35.9530   41.4300 H   0  0  0  0  0  0  0  0  0  0  0  0
   48.2660   34.4130   40.7000 H   0  0  0  0  0  0  0  0  0  0  0  0
   48.9190   32.5860   42.2070 H   0  0  0  0  0  0  0  0  0  0  0  0
   47.8070   32.3000   44.3490 H   0  0  0  0  0  0  0  0  0  0  0  0
   45.8480   29.1400   47.1960 C   0  0  0  0  0  0  0  0  0  0  0  0
   44.5160   28.8430   46.7070 C   0  0  0  0  0  0  0  0  0  0  0  0
   43.7000   29.4360   46.3390 H   0  0  0  0  0  0  0  0  0  0  0  0
   44.3960   27.0370   46.8210 S   0  0  0  0  0  0  0  0  0  0  0  0
   46.1650   26.9360   47.5130 C   0  0  0  0  0  0  0  0  0  0  0  0
   46.8620   26.0840   47.8580 H   0  0  0  0  0  0  0  0  0  0  0  0
   46.4710   28.0320   47.5340 N   0  0  0  0  0  0  0  0  0  0  0  0
   47.7710   30.1400   49.2390 N   0  0  0  0  0  0  0  0  0  0  0  0
   48.6350   29.7950   48.7270 H   0  0  0  0  0  0  0  0  0  0  0  0
   47.0270   30.3110   49.9800 H   0  0  0  0  0  0  0  0  0  0  0  0
  1  2  1  0  0  0  0
  1  7  1  0  0  0  0
  2 30  1  0  0  0  0
  3  2  2  0  0  0  0
  4  3  1  0  0  0  0
  5  4  2  0  0  0  0
  5  6  1  0  0  0  0
  6  1  2  0  0  0  0
  8  9  1  0  0  0  0
  8  5  1  0  0  0  0
 10 18  1  0  0  0  0
 10  9  2  0  0  0  0
 11 10  1  0  0  0  0
 12 11  2  0  0  0  0
 12 17  1  0  0  0  0
 13 12  1  0  0  0  0
 14 13  2  0  0  0  0
 14 15  1  0  0  0  0
 15 16  2  0  0  0  0
 16 17  1  0  0  0  0
 16 22  1  0  0  0  0
 17  8  2  0  0  0  0
 19 13  1  0  0  0  0
 20 14  1  0  0  0  0
 21 15  1  0  0  0  0
 23  3  1  0  0  0  0
 23 29  1  0  0  0  0
 24 26  1  0  0  0  0
 24 23  2  0  0  0  0
 25 24  1  0  0  0  0
 26 27  1  0  0  0  0
 27 29  2  0  0  0  0
 27 28  1  0  0  0  0
 30 32  1  0  0  0  0
 31 30  1  0  0  0  0
M  END
>  <minimizedAffinity>
-6.12277269

>  <minimizedRMSD>
0.15527226

$$$$
