
 OpenBabel03252509263D

 28 30  0  0  1  0  0  0  0  0999 V2000
   46.5710   35.0780   41.9270 C   0  0  1  0  0  0  0  0  0  0  0  0
   48.1130   35.2940   41.9310 C   0  0  0  0  0  0  0  0  0  0  0  0
   47.3400   34.0910   41.2950 C   0  0  2  0  0  0  0  0  0  0  0  0
   46.0240   35.8670   41.3710 H   0  0  0  0  0  0  0  0  0  0  0  0
   48.6700   35.1080   42.8490 H   0  0  0  0  0  0  0  0  0  0  0  0
   48.4700   35.9990   41.1720 H   0  0  0  0  0  0  0  0  0  0  0  0
   47.6140   33.1170   41.8080 H   0  0  0  0  0  0  0  0  0  0  0  0
   44.6600   35.3800   45.1460 C   0  0  0  0  0  0  0  0  0  0  0  0
   45.1240   35.7040   43.8300 C   0  0  0  0  0  0  0  0  0  0  0  0
   46.0680   34.8670   43.3350 C   0  0  0  0  0  0  0  0  0  0  0  0
   46.5410   33.7890   44.0490 N   0  0  0  0  0  0  0  0  0  0  0  0
   46.0810   33.5180   45.2830 C   0  0  0  0  0  0  0  0  0  0  0  0
   45.1370   34.3170   45.8320 N   0  0  0  0  0  0  0  0  0  0  0  0
   43.8980   36.0670   45.5290 H   0  0  0  0  0  0  0  0  0  0  0  0
   46.4700   32.6680   45.8190 H   0  0  0  0  0  0  0  0  0  0  0  0
   44.6580   36.8250   43.1210 N   0  0  0  0  0  0  0  0  0  0  0  0
   45.4100   37.5120   43.4070 H   0  0  0  0  0  0  0  0  0  0  0  0
   43.8350   36.9760   42.4950 H   0  0  0  0  0  0  0  0  0  0  0  0
   47.3990   33.9500   39.7950 C   0  0  0  0  0  0  0  0  0  0  0  0
   48.4270   33.6820   39.4770 H   0  0  0  0  0  0  0  0  0  0  0  0
   47.2230   34.9620   39.3810 H   0  0  0  0  0  0  0  0  0  0  0  0
   46.4170   32.9340   39.2960 C   0  0  0  0  0  0  0  0  0  0  0  0
   46.7160   31.5740   39.2500 C   0  0  0  0  0  0  0  0  0  0  0  0
   47.6950   31.1380   39.5740 H   0  0  0  0  0  0  0  0  0  0  0  0
   45.1580   30.8440   38.5620 S   0  0  0  0  0  0  0  0  0  0  0  0
   44.3750   32.5570   38.4650 C   0  0  0  0  0  0  0  0  0  0  0  0
   43.3600   32.7670   38.0990 H   0  0  0  0  0  0  0  0  0  0  0  0
   45.2020   33.2500   38.8660 N   0  0  0  0  0  0  0  0  0  0  0  0
  1  4  1  6  0  0  0
  1  2  1  0  0  0  0
  1 10  1  0  0  0  0
  2  5  1  0  0  0  0
  3  7  1  1  0  0  0
  3  1  1  0  0  0  0
  3  2  1  0  0  0  0
  6  2  1  0  0  0  0
  8 14  1  0  0  0  0
  8 13  1  0  0  0  0
  9  8  2  0  0  0  0
 10  9  1  0  0  0  0
 10 11  2  0  0  0  0
 11 12  1  0  0  0  0
 12 15  1  0  0  0  0
 12 13  2  0  0  0  0
 16 17  1  0  0  0  0
 16  9  1  0  0  0  0
 18 16  1  0  0  0  0
 19  3  1  0  0  0  0
 20 19  1  0  0  0  0
 21 19  1  0  0  0  0
 22 19  1  0  0  0  0
 23 22  2  0  0  0  0
 23 24  1  0  0  0  0
 25 23  1  0  0  0  0
 26 25  1  0  0  0  0
 26 28  2  0  0  0  0
 27 26  1  0  0  0  0
 28 22  1  0  0  0  0
M  END
>  <minimizedAffinity>
-4.41573191

>  <minimizedRMSD>
0.877540767

$$$$
