
 OpenBabel03252509233D

 25 27  0  0  1  0  0  0  0  0999 V2000
   46.8770   34.8140   41.9340 C   0  0  1  0  0  0  0  0  0  0  0  0
   48.2770   35.4780   42.0050 C   0  0  0  0  0  0  0  0  0  0  0  0
   47.9840   34.0010   41.5810 C   0  0  2  0  0  0  0  0  0  0  0  0
   46.2110   35.3010   41.1960 H   0  0  0  0  0  0  0  0  0  0  0  0
   48.5630   36.1380   41.1580 H   0  0  0  0  0  0  0  0  0  0  0  0
   48.7600   35.6180   42.9650 H   0  0  0  0  0  0  0  0  0  0  0  0
   48.3560   33.2280   42.3020 H   0  0  0  0  0  0  0  0  0  0  0  0
   44.7060   35.3390   44.9510 C   0  0  0  0  0  0  0  0  0  0  0  0
   45.2730   35.5620   43.6550 C   0  0  0  0  0  0  0  0  0  0  0  0
   46.2820   34.7010   43.3140 C   0  0  0  0  0  0  0  0  0  0  0  0
   46.7070   33.7030   44.1700 N   0  0  0  0  0  0  0  0  0  0  0  0
   46.1400   33.5390   45.3750 C   0  0  0  0  0  0  0  0  0  0  0  0
   45.1320   34.3630   45.7640 N   0  0  0  0  0  0  0  0  0  0  0  0
   43.9050   36.0130   45.2290 H   0  0  0  0  0  0  0  0  0  0  0  0
   46.4380   32.7740   46.0760 H   0  0  0  0  0  0  0  0  0  0  0  0
   44.8440   36.6160   42.7960 N   0  0  0  0  0  0  0  0  0  0  0  0
   44.8600   37.6310   43.0950 H   0  0  0  0  0  0  0  0  0  0  0  0
   44.5020   36.4000   41.8480 H   0  0  0  0  0  0  0  0  0  0  0  0
   48.2440   33.6820   40.1530 C   0  0  0  0  0  0  0  0  0  0  0  0
   48.9160   32.4370   39.8480 C   0  0  0  0  0  0  0  0  0  0  0  0
   49.2670   31.6790   40.5780 H   0  0  0  0  0  0  0  0  0  0  0  0
   49.0280   32.4530   37.9730 S   0  0  0  0  0  0  0  0  0  0  0  0
   48.1470   34.1330   37.9650 C   0  0  0  0  0  0  0  0  0  0  0  0
   47.7740   34.9440   37.1530 H   0  0  0  0  0  0  0  0  0  0  0  0
   47.9560   34.3650   39.0450 N   0  0  0  0  0  0  0  0  0  0  0  0
  1  4  1  6  0  0  0
  1  2  1  0  0  0  0
  1 10  1  0  0  0  0
  2  6  1  0  0  0  0
  3  1  1  0  0  0  0
  3  2  1  0  0  0  0
  3  7  1  1  0  0  0
  5  2  1  0  0  0  0
  8 14  1  0  0  0  0
  8 13  1  0  0  0  0
  9  8  2  0  0  0  0
 10  9  1  0  0  0  0
 10 11  2  0  0  0  0
 11 12  1  0  0  0  0
 12 13  2  0  0  0  0
 12 15  1  0  0  0  0
 16 17  1  0  0  0  0
 16  9  1  0  0  0  0
 18 16  1  0  0  0  0
 19  3  1  0  0  0  0
 20 19  2  0  0  0  0
 20 21  1  0  0  0  0
 22 20  1  0  0  0  0
 23 22  1  0  0  0  0
 23 25  2  0  0  0  0
 24 23  1  0  0  0  0
 25 19  1  0  0  0  0
M  END
>  <minimizedAffinity>
-4.75263548

>  <minimizedRMSD>
0.652826786

$$$$
