
 OpenBabel03252500473D

 24 26  0  0  0  0  0  0  0  0999 V2000
   38.2610   27.8770   39.8250 C   0  0  0  0  0  0  0  0  0  0  0  0
   37.3400   27.3490   40.7330 C   0  0  0  0  0  0  0  0  0  0  0  0
   36.6020   28.2120   41.5340 C   0  0  0  0  0  0  0  0  0  0  0  0
   36.8080   29.5590   41.3990 N   0  0  0  0  0  0  0  0  0  0  0  0
   37.7120   30.0300   40.5060 C   0  0  0  0  0  0  0  0  0  0  0  0
   38.4360   29.2030   39.7220 N   0  0  0  0  0  0  0  0  0  0  0  0
   38.8440   27.2340   39.1950 H   0  0  0  0  0  0  0  0  0  0  0  0
   35.8920   27.8600   42.2360 H   0  0  0  0  0  0  0  0  0  0  0  0
   37.9120   31.4680   40.3830 C   0  0  0  0  0  0  0  0  0  0  0  0
   37.0890   32.2600   39.6420 C   0  0  0  0  0  0  0  0  0  0  0  0
   37.2400   33.6140   39.4980 C   0  0  0  0  0  0  0  0  0  0  0  0
   38.2910   34.1600   40.1540 N   0  0  0  0  0  0  0  0  0  0  0  0
   39.1200   33.3900   40.8950 C   0  0  0  0  0  0  0  0  0  0  0  0
   38.9720   32.0410   41.0400 N   0  0  0  0  0  0  0  0  0  0  0  0
   36.2730   31.7410   39.1510 H   0  0  0  0  0  0  0  0  0  0  0  0
   36.5210   34.1380   38.8830 H   0  0  0  0  0  0  0  0  0  0  0  0
   39.9480   33.9030   41.3970 H   0  0  0  0  0  0  0  0  0  0  0  0
   37.1760   25.9010   40.8170 C   0  0  0  0  0  0  0  0  0  0  0  0
   36.6750   25.1710   39.6970 C   0  0  0  0  0  0  0  0  0  0  0  0
   36.3420   25.5650   38.6210 H   0  0  0  0  0  0  0  0  0  0  0  0
   36.6560   23.3990   40.3060 S   0  0  0  0  0  0  0  0  0  0  0  0
   37.3320   23.9840   41.9700 C   0  0  0  0  0  0  0  0  0  0  0  0
   37.5900   23.3770   42.9170 H   0  0  0  0  0  0  0  0  0  0  0  0
   37.4310   25.1070   41.8270 N   0  0  0  0  0  0  0  0  0  0  0  0
  1  2  1  0  0  0  0
  2 18  1  0  0  0  0
  2  3  2  0  0  0  0
  3  8  1  0  0  0  0
  4  3  1  0  0  0  0
  5  4  2  0  0  0  0
  6  1  2  0  0  0  0
  6  5  1  0  0  0  0
  7  1  1  0  0  0  0
  9  5  1  0  0  0  0
  9 14  1  0  0  0  0
 10  9  2  0  0  0  0
 11 10  1  0  0  0  0
 11 12  2  0  0  0  0
 12 13  1  0  0  0  0
 13 14  2  0  0  0  0
 13 17  1  0  0  0  0
 15 10  1  0  0  0  0
 16 11  1  0  0  0  0
 18 24  1  0  0  0  0
 19 21  1  0  0  0  0
 19 18  2  0  0  0  0
 20 19  1  0  0  0  0
 21 22  1  0  0  0  0
 22 23  1  0  0  0  0
 24 22  2  0  0  0  0
M  END
>  <minimizedAffinity>
-4.22328424

$$$$

 OpenBabel03252500473D

 24 26  0  0  0  0  0  0  0  0999 V2000
   38.0710   29.4160   39.4480 C   0  0  0  0  0  0  0  0  0  0  0  0
   37.9150   30.2430   40.5620 C   0  0  0  0  0  0  0  0  0  0  0  0
   37.6290   29.6750   41.7980 C   0  0  0  0  0  0  0  0  0  0  0  0
   37.5120   28.3120   41.8740 N   0  0  0  0  0  0  0  0  0  0  0  0
   37.6710   27.5460   40.7680 C   0  0  0  0  0  0  0  0  0  0  0  0
   37.9480   28.0840   39.5620 N   0  0  0  0  0  0  0  0  0  0  0  0
   38.2920   29.8280   38.4830 H   0  0  0  0  0  0  0  0  0  0  0  0
   37.5030   30.2600   42.6720 H   0  0  0  0  0  0  0  0  0  0  0  0
   37.5400   26.0980   40.8770 C   0  0  0  0  0  0  0  0  0  0  0  0
   36.6980   25.3790   40.0860 C   0  0  0  0  0  0  0  0  0  0  0  0
   36.5420   24.0190   40.1540 C   0  0  0  0  0  0  0  0  0  0  0  0
   37.2970   23.3890   41.0850 N   0  0  0  0  0  0  0  0  0  0  0  0
   38.1400   24.0860   41.8800 C   0  0  0  0  0  0  0  0  0  0  0  0
   38.2960   25.4400   41.8140 N   0  0  0  0  0  0  0  0  0  0  0  0
   36.1320   25.9640   39.3680 H   0  0  0  0  0  0  0  0  0  0  0  0
   35.8420   23.5580   39.4710 H   0  0  0  0  0  0  0  0  0  0  0  0
   38.7180   23.5070   42.6090 H   0  0  0  0  0  0  0  0  0  0  0  0
   38.0560   31.6860   40.4010 C   0  0  0  0  0  0  0  0  0  0  0  0
   39.1290   32.3770   41.0430 C   0  0  0  0  0  0  0  0  0  0  0  0
   39.9970   31.9500   41.7400 H   0  0  0  0  0  0  0  0  0  0  0  0
   38.8660   34.1610   40.5310 S   0  0  0  0  0  0  0  0  0  0  0  0
   37.3470   33.6320   39.5410 C   0  0  0  0  0  0  0  0  0  0  0  0
   36.6200   34.2670   38.9080 H   0  0  0  0  0  0  0  0  0  0  0  0
   37.3030   32.5100   39.7150 N   0  0  0  0  0  0  0  0  0  0  0  0
  1  6  2  0  0  0  0
  1  2  1  0  0  0  0
  2  3  2  0  0  0  0
  3  4  1  0  0  0  0
  3  8  1  0  0  0  0
  5  9  1  0  0  0  0
  5  4  2  0  0  0  0
  6  5  1  0  0  0  0
  7  1  1  0  0  0  0
  9 14  1  0  0  0  0
 10 11  1  0  0  0  0
 10  9  2  0  0  0  0
 11 12  2  0  0  0  0
 12 13  1  0  0  0  0
 13 17  1  0  0  0  0
 14 13  2  0  0  0  0
 15 10  1  0  0  0  0
 16 11  1  0  0  0  0
 18  2  1  0  0  0  0
 18 19  2  0  0  0  0
 19 20  1  0  0  0  0
 21 19  1  0  0  0  0
 22 24  2  0  0  0  0
 22 21  1  0  0  0  0
 23 22  1  0  0  0  0
 24 18  1  0  0  0  0
M  END
>  <minimizedAffinity>
-4.1324358

$$$$

 OpenBabel03252500473D

 24 26  0  0  0  0  0  0  0  0999 V2000
   34.3430   29.2580   39.5750 C   0  0  0  0  0  0  0  0  0  0  0  0
   34.4730   28.6260   38.3360 C   0  0  0  0  0  0  0  0  0  0  0  0
   35.4880   27.6960   38.1490 C   0  0  0  0  0  0  0  0  0  0  0  0
   36.3290   27.4320   39.1980 N   0  0  0  0  0  0  0  0  0  0  0  0
   36.1670   28.0670   40.3840 C   0  0  0  0  0  0  0  0  0  0  0  0
   35.1860   28.9740   40.5800 N   0  0  0  0  0  0  0  0  0  0  0  0
   33.5680   29.9790   39.7470 H   0  0  0  0  0  0  0  0  0  0  0  0
   35.6270   27.1910   37.2290 H   0  0  0  0  0  0  0  0  0  0  0  0
   37.0760   27.7690   41.4840 C   0  0  0  0  0  0  0  0  0  0  0  0
   37.5430   26.5130   41.7250 C   0  0  0  0  0  0  0  0  0  0  0  0
   38.3970   26.1870   42.7460 C   0  0  0  0  0  0  0  0  0  0  0  0
   38.7760   27.2130   43.5440 N   0  0  0  0  0  0  0  0  0  0  0  0
   38.3220   28.4680   43.3200 C   0  0  0  0  0  0  0  0  0  0  0  0
   37.4720   28.7940   42.3040 N   0  0  0  0  0  0  0  0  0  0  0  0
   37.1890   25.7520   41.0370 H   0  0  0  0  0  0  0  0  0  0  0  0
   38.7000   25.1520   42.8370 H   0  0  0  0  0  0  0  0  0  0  0  0
   38.6730   29.2450   44.0070 H   0  0  0  0  0  0  0  0  0  0  0  0
   33.5370   28.9600   37.2670 C   0  0  0  0  0  0  0  0  0  0  0  0
   33.9530   28.8890   35.9030 C   0  0  0  0  0  0  0  0  0  0  0  0
   35.0120   28.5810   35.4470 H   0  0  0  0  0  0  0  0  0  0  0  0
   32.4210   29.4020   34.9530 S   0  0  0  0  0  0  0  0  0  0  0  0
   31.5030   29.6170   36.5900 C   0  0  0  0  0  0  0  0  0  0  0  0
   30.4140   29.9460   36.7880 H   0  0  0  0  0  0  0  0  0  0  0  0
   32.2870   29.3430   37.3640 N   0  0  0  0  0  0  0  0  0  0  0  0
  1  7  1  0  0  0  0
  1  6  1  0  0  0  0
  2  1  2  0  0  0  0
  3  2  1  0  0  0  0
  3  4  2  0  0  0  0
  4  5  1  0  0  0  0
  5  6  2  0  0  0  0
  5  9  1  0  0  0  0
  8  3  1  0  0  0  0
  9 10  2  0  0  0  0
  9 14  1  0  0  0  0
 10 11  1  0  0  0  0
 11 16  1  0  0  0  0
 11 12  2  0  0  0  0
 13 12  1  0  0  0  0
 13 17  1  0  0  0  0
 14 13  2  0  0  0  0
 15 10  1  0  0  0  0
 18 24  1  0  0  0  0
 18  2  1  0  0  0  0
 19 18  2  0  0  0  0
 20 19  1  0  0  0  0
 21 19  1  0  0  0  0
 21 22  1  0  0  0  0
 22 23  1  0  0  0  0
 22 24  2  0  0  0  0
M  END
>  <minimizedAffinity>
-4.08184576

$$$$

 OpenBabel03252500473D

 24 26  0  0  0  0  0  0  0  0999 V2000
   39.4180   29.6510   41.2730 C   0  0  0  0  0  0  0  0  0  0  0  0
   38.7160   30.5610   40.4790 C   0  0  0  0  0  0  0  0  0  0  0  0
   37.5830   30.1360   39.7960 C   0  0  0  0  0  0  0  0  0  0  0  0
   37.1950   28.8290   39.9320 N   0  0  0  0  0  0  0  0  0  0  0  0
   37.9040   27.9790   40.7140 C   0  0  0  0  0  0  0  0  0  0  0  0
   39.0080   28.3790   41.3820 N   0  0  0  0  0  0  0  0  0  0  0  0
   40.2950   29.9530   41.8110 H   0  0  0  0  0  0  0  0  0  0  0  0
   37.0170   30.7870   39.1820 H   0  0  0  0  0  0  0  0  0  0  0  0
   37.4700   26.5940   40.8410 C   0  0  0  0  0  0  0  0  0  0  0  0
   37.2780   25.9960   42.0480 C   0  0  0  0  0  0  0  0  0  0  0  0
   36.8710   24.6980   42.2150 C   0  0  0  0  0  0  0  0  0  0  0  0
   36.6580   24.0000   41.0750 N   0  0  0  0  0  0  0  0  0  0  0  0
   36.8440   24.5770   39.8650 C   0  0  0  0  0  0  0  0  0  0  0  0
   37.2480   25.8690   39.6970 N   0  0  0  0  0  0  0  0  0  0  0  0
   37.4710   26.6280   42.9090 H   0  0  0  0  0  0  0  0  0  0  0  0
   36.7530   24.3340   43.2260 H   0  0  0  0  0  0  0  0  0  0  0  0
   36.6510   23.9490   38.9880 H   0  0  0  0  0  0  0  0  0  0  0  0
   39.1920   31.9370   40.3850 C   0  0  0  0  0  0  0  0  0  0  0  0
   40.5340   32.2050   39.9770 C   0  0  0  0  0  0  0  0  0  0  0  0
   41.4020   31.4440   39.6750 H   0  0  0  0  0  0  0  0  0  0  0  0
   40.6370   34.0760   40.0200 S   0  0  0  0  0  0  0  0  0  0  0  0
   38.8360   34.1420   40.5850 C   0  0  0  0  0  0  0  0  0  0  0  0
   38.1710   35.0530   40.8300 H   0  0  0  0  0  0  0  0  0  0  0  0
   38.5400   33.0460   40.6340 N   0  0  0  0  0  0  0  0  0  0  0  0
  1  6  1  0  0  0  0
  1  7  1  0  0  0  0
  2  1  2  0  0  0  0
  3  4  2  0  0  0  0
  3  2  1  0  0  0  0
  4  5  1  0  0  0  0
  5  9  1  0  0  0  0
  5  6  2  0  0  0  0
  8  3  1  0  0  0  0
  9 10  1  0  0  0  0
 10 11  2  0  0  0  0
 10 15  1  0  0  0  0
 11 16  1  0  0  0  0
 12 11  1  0  0  0  0
 13 12  2  0  0  0  0
 14 13  1  0  0  0  0
 14  9  2  0  0  0  0
 17 13  1  0  0  0  0
 18  2  1  0  0  0  0
 18 24  1  0  0  0  0
 19 21  1  0  0  0  0
 19 18  2  0  0  0  0
 20 19  1  0  0  0  0
 21 22  1  0  0  0  0
 22 24  2  0  0  0  0
 22 23  1  0  0  0  0
M  END
>  <minimizedAffinity>
-3.88329411

$$$$

 OpenBabel03252500473D

 24 26  0  0  0  0  0  0  0  0999 V2000
   36.3890   27.2070   39.2690 C   0  0  0  0  0  0  0  0  0  0  0  0
   36.3400   27.8710   40.4960 C   0  0  0  0  0  0  0  0  0  0  0  0
   35.4280   28.9040   40.6760 C   0  0  0  0  0  0  0  0  0  0  0  0
   34.6040   29.2310   39.6320 N   0  0  0  0  0  0  0  0  0  0  0  0
   34.6830   28.5600   38.4570 C   0  0  0  0  0  0  0  0  0  0  0  0
   35.5650   27.5560   38.2690 N   0  0  0  0  0  0  0  0  0  0  0  0
   37.0830   26.4060   39.1030 H   0  0  0  0  0  0  0  0  0  0  0  0
   35.3530   29.4370   41.5880 H   0  0  0  0  0  0  0  0  0  0  0  0
   33.7940   28.9290   37.3630 C   0  0  0  0  0  0  0  0  0  0  0  0
   34.1990   28.9350   36.0630 C   0  0  0  0  0  0  0  0  0  0  0  0
   33.4000   29.2740   35.0030 C   0  0  0  0  0  0  0  0  0  0  0  0
   32.1290   29.6210   35.3160 N   0  0  0  0  0  0  0  0  0  0  0  0
   31.7080   29.6210   36.6010 C   0  0  0  0  0  0  0  0  0  0  0  0
   32.5020   29.2830   37.6580 N   0  0  0  0  0  0  0  0  0  0  0  0
   35.2330   28.6430   35.9040 H   0  0  0  0  0  0  0  0  0  0  0  0
   33.8350   29.2400   34.0140 H   0  0  0  0  0  0  0  0  0  0  0  0
   30.6660   29.9130   36.7760 H   0  0  0  0  0  0  0  0  0  0  0  0
   37.2510   27.4640   41.5610 C   0  0  0  0  0  0  0  0  0  0  0  0
   38.2440   26.4680   41.3120 C   0  0  0  0  0  0  0  0  0  0  0  0
   38.4800   25.8650   40.3100 H   0  0  0  0  0  0  0  0  0  0  0  0
   39.1270   26.3130   42.9580 S   0  0  0  0  0  0  0  0  0  0  0  0
   37.9790   27.6300   43.6750 C   0  0  0  0  0  0  0  0  0  0  0  0
   37.9410   28.0770   44.7390 H   0  0  0  0  0  0  0  0  0  0  0  0
   37.3080   27.8930   42.7970 N   0  0  0  0  0  0  0  0  0  0  0  0
  1  2  1  0  0  0  0
  2  3  2  0  0  0  0
  2 18  1  0  0  0  0
  3  8  1  0  0  0  0
  4  3  1  0  0  0  0
  5  4  2  0  0  0  0
  6  5  1  0  0  0  0
  6  1  2  0  0  0  0
  7  1  1  0  0  0  0
  9 14  1  0  0  0  0
  9  5  1  0  0  0  0
 10  9  2  0  0  0  0
 11 12  2  0  0  0  0
 11 10  1  0  0  0  0
 12 13  1  0  0  0  0
 13 17  1  0  0  0  0
 13 14  2  0  0  0  0
 15 10  1  0  0  0  0
 16 11  1  0  0  0  0
 18 24  1  0  0  0  0
 19 18  2  0  0  0  0
 19 21  1  0  0  0  0
 20 19  1  0  0  0  0
 21 22  1  0  0  0  0
 22 23  1  0  0  0  0
 24 22  2  0  0  0  0
M  END
>  <minimizedAffinity>
-3.86488223

$$$$

 OpenBabel03252500473D

 24 26  0  0  0  0  0  0  0  0999 V2000
   35.2860   28.8670   40.4750 C   0  0  0  0  0  0  0  0  0  0  0  0
   36.2280   27.8570   40.2690 C   0  0  0  0  0  0  0  0  0  0  0  0
   36.2860   27.2220   39.0330 C   0  0  0  0  0  0  0  0  0  0  0  0
   35.4080   27.6170   38.0590 N   0  0  0  0  0  0  0  0  0  0  0  0
   34.5100   28.6020   38.3010 C   0  0  0  0  0  0  0  0  0  0  0  0
   34.4420   29.2270   39.4960 N   0  0  0  0  0  0  0  0  0  0  0  0
   35.2200   29.3740   41.4180 H   0  0  0  0  0  0  0  0  0  0  0  0
   36.9830   26.4520   38.8280 H   0  0  0  0  0  0  0  0  0  0  0  0
   33.5880   29.0030   37.2460 C   0  0  0  0  0  0  0  0  0  0  0  0
   32.3190   29.4220   37.5060 C   0  0  0  0  0  0  0  0  0  0  0  0
   31.4180   29.8070   36.5470 C   0  0  0  0  0  0  0  0  0  0  0  0
   31.8620   29.7510   35.2700 N   0  0  0  0  0  0  0  0  0  0  0  0
   33.1200   29.3370   34.9920 C   0  0  0  0  0  0  0  0  0  0  0  0
   34.0180   28.9540   35.9450 N   0  0  0  0  0  0  0  0  0  0  0  0
   32.0460   29.4360   38.5560 H   0  0  0  0  0  0  0  0  0  0  0  0
   30.4370   30.1220   36.8760 H   0  0  0  0  0  0  0  0  0  0  0  0
   33.4080   29.3200   33.9350 H   0  0  0  0  0  0  0  0  0  0  0  0
   37.1300   27.4930   41.3570 C   0  0  0  0  0  0  0  0  0  0  0  0
   37.6140   28.4950   42.2510 C   0  0  0  0  0  0  0  0  0  0  0  0
   37.3940   29.6680   42.2690 H   0  0  0  0  0  0  0  0  0  0  0  0
   38.7060   27.5340   43.4330 S   0  0  0  0  0  0  0  0  0  0  0  0
   38.2990   25.9500   42.4870 C   0  0  0  0  0  0  0  0  0  0  0  0
   38.6560   24.8680   42.6720 H   0  0  0  0  0  0  0  0  0  0  0  0
   37.6020   26.3110   41.6670 N   0  0  0  0  0  0  0  0  0  0  0  0
  1  7  1  0  0  0  0
  2  1  1  0  0  0  0
  2 18  1  0  0  0  0
  3  2  2  0  0  0  0
  4  5  2  0  0  0  0
  4  3  1  0  0  0  0
  5  6  1  0  0  0  0
  6  1  2  0  0  0  0
  8  3  1  0  0  0  0
  9 10  1  0  0  0  0
  9  5  1  0  0  0  0
 10 15  1  0  0  0  0
 11 16  1  0  0  0  0
 11 10  2  0  0  0  0
 12 11  1  0  0  0  0
 13 12  2  0  0  0  0
 13 14  1  0  0  0  0
 14  9  2  0  0  0  0
 17 13  1  0  0  0  0
 18 24  1  0  0  0  0
 18 19  2  0  0  0  0
 19 20  1  0  0  0  0
 19 21  1  0  0  0  0
 22 23  1  0  0  0  0
 22 21  1  0  0  0  0
 24 22  2  0  0  0  0
M  END
>  <minimizedAffinity>
-3.78929925

$$$$

 OpenBabel03252500473D

 24 26  0  0  0  0  0  0  0  0999 V2000
   35.9660   29.4220   37.8480 C   0  0  0  0  0  0  0  0  0  0  0  0
   34.7200   29.0500   38.3580 C   0  0  0  0  0  0  0  0  0  0  0  0
   34.5030   29.0980   39.7300 C   0  0  0  0  0  0  0  0  0  0  0  0
   35.5310   29.5130   40.5350 N   0  0  0  0  0  0  0  0  0  0  0  0
   36.7240   29.8660   39.9990 C   0  0  0  0  0  0  0  0  0  0  0  0
   36.9490   29.8230   38.6680 N   0  0  0  0  0  0  0  0  0  0  0  0
   36.1600   29.3940   36.7940 H   0  0  0  0  0  0  0  0  0  0  0  0
   33.5760   28.8270   40.1640 H   0  0  0  0  0  0  0  0  0  0  0  0
   37.8010   30.3030   40.8790 C   0  0  0  0  0  0  0  0  0  0  0  0
   38.5330   31.4250   40.6360 C   0  0  0  0  0  0  0  0  0  0  0  0
   39.5530   31.8730   41.4330 C   0  0  0  0  0  0  0  0  0  0  0  0
   39.8160   31.1190   42.5270 N   0  0  0  0  0  0  0  0  0  0  0  0
   39.1000   30.0010   42.7850 C   0  0  0  0  0  0  0  0  0  0  0  0
   38.0840   29.5530   41.9920 N   0  0  0  0  0  0  0  0  0  0  0  0
   38.2540   31.9690   39.7390 H   0  0  0  0  0  0  0  0  0  0  0  0
   40.0620   32.7790   41.1370 H   0  0  0  0  0  0  0  0  0  0  0  0
   39.3710   29.4430   43.6880 H   0  0  0  0  0  0  0  0  0  0  0  0
   33.6740   28.6200   37.4350 C   0  0  0  0  0  0  0  0  0  0  0  0
   33.7290   27.3200   36.8460 C   0  0  0  0  0  0  0  0  0  0  0  0
   34.5400   26.4560   36.9870 H   0  0  0  0  0  0  0  0  0  0  0  0
   32.1960   27.2640   35.7700 S   0  0  0  0  0  0  0  0  0  0  0  0
   31.7700   29.0200   36.3210 C   0  0  0  0  0  0  0  0  0  0  0  0
   30.8750   29.6890   36.0300 H   0  0  0  0  0  0  0  0  0  0  0  0
   32.6190   29.2820   37.0290 N   0  0  0  0  0  0  0  0  0  0  0  0
  1  2  2  0  0  0  0
  1  6  1  0  0  0  0
  2  3  1  0  0  0  0
  3  8  1  0  0  0  0
  3  4  2  0  0  0  0
  5  4  1  0  0  0  0
  5  9  1  0  0  0  0
  6  5  2  0  0  0  0
  7  1  1  0  0  0  0
  9 14  1  0  0  0  0
 10  9  2  0  0  0  0
 10 11  1  0  0  0  0
 11 12  2  0  0  0  0
 12 13  1  0  0  0  0
 13 17  1  0  0  0  0
 14 13  2  0  0  0  0
 15 10  1  0  0  0  0
 16 11  1  0  0  0  0
 18  2  1  0  0  0  0
 19 20  1  0  0  0  0
 19 18  2  0  0  0  0
 21 22  1  0  0  0  0
 21 19  1  0  0  0  0
 22 24  2  0  0  0  0
 23 22  1  0  0  0  0
 24 18  1  0  0  0  0
M  END
>  <minimizedAffinity>
-3.78789735

$$$$

 OpenBabel03252500473D

 24 26  0  0  0  0  0  0  0  0999 V2000
   36.5030   29.8850   36.6920 C   0  0  0  0  0  0  0  0  0  0  0  0
   35.6380   29.1690   37.5230 C   0  0  0  0  0  0  0  0  0  0  0  0
   35.6260   29.4370   38.8860 C   0  0  0  0  0  0  0  0  0  0  0  0
   36.4720   30.4020   39.3650 N   0  0  0  0  0  0  0  0  0  0  0  0
   37.2960   31.0730   38.5240 C   0  0  0  0  0  0  0  0  0  0  0  0
   37.3170   30.8230   37.1980 N   0  0  0  0  0  0  0  0  0  0  0  0
   36.5310   29.6980   35.6360 H   0  0  0  0  0  0  0  0  0  0  0  0
   34.9880   28.9220   39.5570 H   0  0  0  0  0  0  0  0  0  0  0  0
   38.1860   32.0950   39.0600 C   0  0  0  0  0  0  0  0  0  0  0  0
   37.7270   33.1770   39.7480 C   0  0  0  0  0  0  0  0  0  0  0  0
   38.5260   34.1600   40.2690 C   0  0  0  0  0  0  0  0  0  0  0  0
   39.8550   34.0070   40.0610 N   0  0  0  0  0  0  0  0  0  0  0  0
   40.3300   32.9390   39.3800 C   0  0  0  0  0  0  0  0  0  0  0  0
   39.5360   31.9580   38.8610 N   0  0  0  0  0  0  0  0  0  0  0  0
   36.6490   33.2200   39.8680 H   0  0  0  0  0  0  0  0  0  0  0  0
   38.0450   34.9720   40.7970 H   0  0  0  0  0  0  0  0  0  0  0  0
   41.4170   32.8830   39.2520 H   0  0  0  0  0  0  0  0  0  0  0  0
   34.7650   28.1570   36.9370 C   0  0  0  0  0  0  0  0  0  0  0  0
   34.0280   28.4470   35.7490 C   0  0  0  0  0  0  0  0  0  0  0  0
   33.9970   29.4480   35.1000 H   0  0  0  0  0  0  0  0  0  0  0  0
   33.0890   26.8590   35.4200 S   0  0  0  0  0  0  0  0  0  0  0  0
   33.8750   26.0990   36.9610 C   0  0  0  0  0  0  0  0  0  0  0  0
   33.7410   25.0470   37.4150 H   0  0  0  0  0  0  0  0  0  0  0  0
   34.5310   26.9370   37.3550 N   0  0  0  0  0  0  0  0  0  0  0  0
  1  6  2  0  0  0  0
  1  2  1  0  0  0  0
  2  3  2  0  0  0  0
  3  4  1  0  0  0  0
  3  8  1  0  0  0  0
  5  9  1  0  0  0  0
  5  4  2  0  0  0  0
  6  5  1  0  0  0  0
  7  1  1  0  0  0  0
  9 10  1  0  0  0  0
 10 15  1  0  0  0  0
 10 11  2  0  0  0  0
 11 16  1  0  0  0  0
 12 11  1  0  0  0  0
 13 12  2  0  0  0  0
 14  9  2  0  0  0  0
 14 13  1  0  0  0  0
 17 13  1  0  0  0  0
 18 24  1  0  0  0  0
 18  2  1  0  0  0  0
 19 18  2  0  0  0  0
 20 19  1  0  0  0  0
 21 19  1  0  0  0  0
 21 22  1  0  0  0  0
 22 24  2  0  0  0  0
 22 23  1  0  0  0  0
M  END
>  <minimizedAffinity>
-3.72687221

$$$$

 OpenBabel03252500473D

 24 26  0  0  0  0  0  0  0  0999 V2000
   38.0610   31.4650   37.8520 C   0  0  0  0  0  0  0  0  0  0  0  0
   37.7300   30.7200   38.9870 C   0  0  0  0  0  0  0  0  0  0  0  0
   38.6210   30.6710   40.0520 C   0  0  0  0  0  0  0  0  0  0  0  0
   39.7990   31.3620   39.9460 N   0  0  0  0  0  0  0  0  0  0  0  0
   40.0800   32.0730   38.8270 C   0  0  0  0  0  0  0  0  0  0  0  0
   39.2240   32.1290   37.7850 N   0  0  0  0  0  0  0  0  0  0  0  0
   37.3920   31.5200   37.0160 H   0  0  0  0  0  0  0  0  0  0  0  0
   38.4160   30.1210   40.9330 H   0  0  0  0  0  0  0  0  0  0  0  0
   41.3410   32.7990   38.7400 C   0  0  0  0  0  0  0  0  0  0  0  0
   41.8080   33.3140   37.5700 C   0  0  0  0  0  0  0  0  0  0  0  0
   42.9860   34.0020   37.4420 C   0  0  0  0  0  0  0  0  0  0  0  0
   43.7010   34.1570   38.5810 N   0  0  0  0  0  0  0  0  0  0  0  0
   43.2530   33.6530   39.7530 C   0  0  0  0  0  0  0  0  0  0  0  0
   42.0810   32.9680   39.8830 N   0  0  0  0  0  0  0  0  0  0  0  0
   41.1720   33.1440   36.7080 H   0  0  0  0  0  0  0  0  0  0  0  0
   43.2520   34.3640   36.4580 H   0  0  0  0  0  0  0  0  0  0  0  0
   43.8860   33.8190   40.6320 H   0  0  0  0  0  0  0  0  0  0  0  0
   36.4550   30.0110   39.0250 C   0  0  0  0  0  0  0  0  0  0  0  0
   35.7790   29.6870   37.8090 C   0  0  0  0  0  0  0  0  0  0  0  0
   36.0970   29.9100   36.6810 H   0  0  0  0  0  0  0  0  0  0  0  0
   34.2320   28.8050   38.3930 S   0  0  0  0  0  0  0  0  0  0  0  0
   34.7960   29.0430   40.1800 C   0  0  0  0  0  0  0  0  0  0  0  0
   34.2860   28.7200   41.1640 H   0  0  0  0  0  0  0  0  0  0  0  0
   35.7820   29.5950   40.0690 N   0  0  0  0  0  0  0  0  0  0  0  0
  1  2  1  0  0  0  0
  2 18  1  0  0  0  0
  2  3  2  0  0  0  0
  3  8  1  0  0  0  0
  4  3  1  0  0  0  0
  5  4  2  0  0  0  0
  6  1  2  0  0  0  0
  6  5  1  0  0  0  0
  7  1  1  0  0  0  0
  9  5  1  0  0  0  0
  9 14  1  0  0  0  0
 10  9  2  0  0  0  0
 11 10  1  0  0  0  0
 11 12  2  0  0  0  0
 12 13  1  0  0  0  0
 13 14  2  0  0  0  0
 13 17  1  0  0  0  0
 15 10  1  0  0  0  0
 16 11  1  0  0  0  0
 18 24  1  0  0  0  0
 19 21  1  0  0  0  0
 19 18  2  0  0  0  0
 20 19  1  0  0  0  0
 21 22  1  0  0  0  0
 22 23  1  0  0  0  0
 24 22  2  0  0  0  0
M  END
>  <minimizedAffinity>
-3.70095849

$$$$
