
 OpenBabel03242517563D

 41 43  0  0  0  0  0  0  0  0999 V2000
   46.4980   31.3290   45.3730 O   0  0  0  0  0  0  0  0  0  0  0  0
   45.4620   30.1660   47.2870 C   0  0  0  0  0  0  0  0  0  0  0  0
   46.0540   31.2270   46.6910 C   0  0  0  0  0  0  0  0  0  0  0  0
   46.2650   32.3660   47.4480 C   0  0  0  0  0  0  0  0  0  0  0  0
   45.9010   32.4610   48.7700 C   0  0  0  0  0  0  0  0  0  0  0  0
   45.3000   31.3730   49.3620 C   0  0  0  0  0  0  0  0  0  0  0  0
   45.0860   30.2280   48.6100 C   0  0  0  0  0  0  0  0  0  0  0  0
   46.7310   33.2570   47.0480 H   0  0  0  0  0  0  0  0  0  0  0  0
   46.0680   33.3570   49.3570 H   0  0  0  0  0  0  0  0  0  0  0  0
   45.0040   31.4250   50.4030 H   0  0  0  0  0  0  0  0  0  0  0  0
   44.6140   29.3630   49.0630 H   0  0  0  0  0  0  0  0  0  0  0  0
   45.1270   28.8000   46.2570 S   0  0  0  0  0  0  0  0  0  0  0  0
   44.2030   29.0720   45.1490 O   0  0  0  0  0  0  0  0  0  0  0  0
   44.3720   27.7930   47.1540 O   0  0  0  0  0  0  0  0  0  0  0  0
   46.5770   27.9020   45.8410 C   0  0  0  0  0  0  0  0  0  0  0  0
   47.3030   27.3540   46.9090 C   0  0  0  0  0  0  0  0  0  0  0  0
   47.1630   27.3640   47.9700 H   0  0  0  0  0  0  0  0  0  0  0  0
   48.7180   26.5030   46.1060 S   0  0  0  0  0  0  0  0  0  0  0  0
   48.0510   27.0610   44.3910 C   0  0  0  0  0  0  0  0  0  0  0  0
   48.4730   26.8650   43.3950 H   0  0  0  0  0  0  0  0  0  0  0  0
   47.1070   27.6490   44.6700 N   0  0  0  0  0  0  0  0  0  0  0  0
   45.3000   34.2400   43.7700 C   0  0  0  0  0  0  0  0  0  0  0  0
   46.4620   34.7440   43.1530 C   0  0  0  0  0  0  0  0  0  0  0  0
   47.6420   34.0710   43.2990 C   0  0  0  0  0  0  0  0  0  0  0  0
   47.6080   32.9540   44.0370 N   0  0  0  0  0  0  0  0  0  0  0  0
   46.5170   32.4780   44.6190 C   0  0  0  0  0  0  0  0  0  0  0  0
   45.3610   33.1230   44.4840 N   0  0  0  0  0  0  0  0  0  0  0  0
   44.3580   34.7610   43.6640 H   0  0  0  0  0  0  0  0  0  0  0  0
   46.3640   35.6300   42.5960 H   0  0  0  0  0  0  0  0  0  0  0  0
   48.8990   34.4990   42.6740 C   0  0  0  0  0  0  0  0  0  0  0  0
   49.6550   34.7180   43.4520 H   0  0  0  0  0  0  0  0  0  0  0  0
   49.2910   33.6320   42.1030 H   0  0  0  0  0  0  0  0  0  0  0  0
   48.7440   35.6510   41.7340 C   0  0  0  0  0  0  0  0  0  0  0  0
   49.7460   36.1830   41.7740 H   0  0  0  0  0  0  0  0  0  0  0  0
   48.0350   36.4210   42.0000 H   0  0  0  0  0  0  0  0  0  0  0  0
   48.6120   35.2610   40.3280 C   0  0  0  0  0  0  0  0  0  0  0  0
   48.0430   34.3490   39.5510 C   0  0  0  0  0  0  0  0  0  0  0  0
   48.2230   34.1970   38.0510 C   0  0  0  0  0  0  0  0  0  0  0  0
   47.2020   34.3260   37.6370 H   0  0  0  0  0  0  0  0  0  0  0  0
   48.8430   35.0420   37.7350 H   0  0  0  0  0  0  0  0  0  0  0  0
   48.6070   33.2120   37.7870 H   0  0  0  0  0  0  0  0  0  0  0  0
  1  3  1  0  0  0  0
  2  7  1  0  0  0  0
  3  2  2  0  0  0  0
  3  4  1  0  0  0  0
  4  5  2  0  0  0  0
  5  9  1  0  0  0  0
  5  6  1  0  0  0  0
  6 10  1  0  0  0  0
  7 11  1  0  0  0  0
  7  6  2  0  0  0  0
  8  4  1  0  0  0  0
 12 14  2  0  0  0  0
 12  2  1  0  0  0  0
 13 12  2  0  0  0  0
 15 12  1  0  0  0  0
 15 16  2  0  0  0  0
 16 17  1  0  0  0  0
 18 16  1  0  0  0  0
 19 21  2  0  0  0  0
 19 18  1  0  0  0  0
 20 19  1  0  0  0  0
 21 15  1  0  0  0  0
 22 27  1  0  0  0  0
 23 24  1  0  0  0  0
 23 22  2  0  0  0  0
 24 25  2  0  0  0  0
 25 26  1  0  0  0  0
 26  1  1  0  0  0  0
 27 26  2  0  0  0  0
 28 22  1  0  0  0  0
 29 23  1  0  0  0  0
 30 24  1  0  0  0  0
 30 31  1  0  0  0  0
 32 30  1  0  0  0  0
 33 34  1  0  0  0  0
 33 35  1  0  0  0  0
 33 30  1  0  0  0  0
 36 33  1  0  0  0  0
 37 36  2  0  0  0  0
 38 37  1  0  0  0  0
 39 38  1  0  0  0  0
 40 38  1  0  0  0  0
 41 38  1  0  0  0  0
M  END
>  <minimizedAffinity>
-5.52990055

>  <minimizedRMSD>
1.12314773

$$$$
