
 OpenBabel03242514573D

 23 24  0  0  0  0  0  0  0  0999 V2000
   44.4900   34.8640   41.2590 C   0  0  0  0  0  0  0  0  0  0  0  0
   44.2470   35.7930   40.7030 H   0  0  0  0  0  0  0  0  0  0  0  0
   45.0980   34.2610   40.5540 H   0  0  0  0  0  0  0  0  0  0  0  0
   43.2450   34.1010   41.5710 C   0  0  0  0  0  0  0  0  0  0  0  0
   43.0240   34.1120   42.6570 H   0  0  0  0  0  0  0  0  0  0  0  0
   43.4870   33.0160   41.3640 H   0  0  0  0  0  0  0  0  0  0  0  0
   42.0750   34.5410   40.7710 C   0  0  0  0  0  0  0  0  0  0  0  0
   40.8310   34.3530   41.2360 C   0  0  0  0  0  0  0  0  0  0  0  0
   40.3710   33.8460   42.2890 H   0  0  0  0  0  0  0  0  0  0  0  0
   39.6820   35.0470   39.9220 S   0  0  0  0  0  0  0  0  0  0  0  0
   41.2330   35.4920   38.9190 C   0  0  0  0  0  0  0  0  0  0  0  0
   41.4140   36.0020   37.8810 H   0  0  0  0  0  0  0  0  0  0  0  0
   42.0670   35.1180   39.6130 N   0  0  0  0  0  0  0  0  0  0  0  0
   45.4960   35.3110   42.6460 S   0  0  0  0  0  0  0  0  0  0  0  0
   47.1690   34.6320   42.5860 C   0  0  0  0  0  0  0  0  0  0  0  0
   48.1290   35.4730   42.0230 C   0  0  0  0  0  0  0  0  0  0  0  0
   49.4510   35.0230   41.9370 C   0  0  0  0  0  0  0  0  0  0  0  0
   49.7050   33.7800   42.4160 N   0  0  0  0  0  0  0  0  0  0  0  0
   48.7690   32.9790   42.9560 C   0  0  0  0  0  0  0  0  0  0  0  0
   47.5060   33.3960   43.0440 N   0  0  0  0  0  0  0  0  0  0  0  0
   47.9450   36.4590   41.6400 H   0  0  0  0  0  0  0  0  0  0  0  0
   50.2180   35.6390   41.5110 H   0  0  0  0  0  0  0  0  0  0  0  0
   49.0370   31.9890   43.3240 H   0  0  0  0  0  0  0  0  0  0  0  0
  1  4  1  0  0  0  0
  1 14  1  0  0  0  0
  2  1  1  0  0  0  0
  3  1  1  0  0  0  0
  4  5  1  0  0  0  0
  6  4  1  0  0  0  0
  7  8  2  0  0  0  0
  7  4  1  0  0  0  0
  8  9  1  0  0  0  0
 10  8  1  0  0  0  0
 11 13  2  0  0  0  0
 11 10  1  0  0  0  0
 12 11  1  0  0  0  0
 13  7  1  0  0  0  0
 15 14  1  0  0  0  0
 15 20  1  0  0  0  0
 16 15  2  0  0  0  0
 17 16  1  0  0  0  0
 17 18  2  0  0  0  0
 18 19  1  0  0  0  0
 19 20  2  0  0  0  0
 19 23  1  0  0  0  0
 21 16  1  0  0  0  0
 22 17  1  0  0  0  0
M  END
>  <minimizedAffinity>
-3.49214864

>  <minimizedRMSD>
3.15019608

$$$$
