
 OpenBabel03242523423D

 22 23  0  0  1  0  0  0  0  0999 V2000
   46.9360   35.1540   41.8510 C   0  0  2  0  0  0  0  0  0  0  0  0
   46.9240   36.2160   41.5060 H   0  0  0  0  0  0  0  0  0  0  0  0
   45.2470   36.1110   43.3970 C   0  0  0  0  0  0  0  0  0  0  0  0
   46.1640   35.1030   43.1020 C   0  0  0  0  0  0  0  0  0  0  0  0
   46.3310   34.0400   44.0300 C   0  0  0  0  0  0  0  0  0  0  0  0
   45.5740   34.0790   45.1640 N   0  0  0  0  0  0  0  0  0  0  0  0
   44.7080   35.0670   45.4030 C   0  0  0  0  0  0  0  0  0  0  0  0
   44.5520   36.0650   44.5260 N   0  0  0  0  0  0  0  0  0  0  0  0
   45.0610   36.9510   42.7440 H   0  0  0  0  0  0  0  0  0  0  0  0
   47.0300   33.2420   43.8350 H   0  0  0  0  0  0  0  0  0  0  0  0
   44.1150   35.0750   46.3170 H   0  0  0  0  0  0  0  0  0  0  0  0
   46.4220   34.2510   40.7870 C   0  0  0  0  0  0  0  0  0  0  0  0
   47.3640   33.5690   39.8940 C   0  0  0  0  0  0  0  0  0  0  0  0
   48.4010   33.6600   39.9330 H   0  0  0  0  0  0  0  0  0  0  0  0
   46.2640   32.6300   38.8260 S   0  0  0  0  0  0  0  0  0  0  0  0
   44.7090   33.2860   39.7320 C   0  0  0  0  0  0  0  0  0  0  0  0
   43.6990   32.9990   39.4520 H   0  0  0  0  0  0  0  0  0  0  0  0
   45.1470   33.9970   40.5670 N   0  0  0  0  0  0  0  0  0  0  0  0
   48.3850   34.8650   42.1780 C   0  0  0  0  0  0  0  0  0  0  0  0
   49.0450   35.7600   42.0610 H   0  0  0  0  0  0  0  0  0  0  0  0
   48.7480   34.1500   41.3810 H   0  0  0  0  0  0  0  0  0  0  0  0
   48.4450   34.4220   43.1750 H   0  0  0  0  0  0  0  0  0  0  0  0
  1  2  1  6  0  0  0
  1 19  1  0  0  0  0
  1  4  1  0  0  0  0
  3  8  1  0  0  0  0
  4  3  2  0  0  0  0
  4  5  1  0  0  0  0
  5  6  2  0  0  0  0
  6  7  1  0  0  0  0
  7 11  1  0  0  0  0
  8  7  2  0  0  0  0
  9  3  1  0  0  0  0
 10  5  1  0  0  0  0
 12  1  1  0  0  0  0
 13 14  1  0  0  0  0
 13 12  2  0  0  0  0
 15 16  1  0  0  0  0
 15 13  1  0  0  0  0
 16 18  2  0  0  0  0
 17 16  1  0  0  0  0
 18 12  1  0  0  0  0
 19 22  1  0  0  0  0
 20 19  1  0  0  0  0
 21 19  1  0  0  0  0
M  END
>  <minimizedAffinity>
-3.97628403

>  <minimizedRMSD>
1.05313647

$$$$
