
 OpenBabel03252507453D

 35 37  0  0  0  0  0  0  0  0999 V2000
   46.9770   34.3060   40.9990 C   0  0  0  0  0  0  0  0  0  0  0  0
   46.4400   33.3900   40.7220 H   0  0  0  0  0  0  0  0  0  0  0  0
   47.0850   35.0150   40.1310 H   0  0  0  0  0  0  0  0  0  0  0  0
   48.3460   34.0200   41.4620 C   0  0  0  0  0  0  0  0  0  0  0  0
   48.9300   32.8430   41.0120 C   0  0  0  0  0  0  0  0  0  0  0  0
   50.2220   32.5010   41.4040 C   0  0  0  0  0  0  0  0  0  0  0  0
   50.8700   33.3640   42.2360 N   0  0  0  0  0  0  0  0  0  0  0  0
   50.2760   34.4980   42.6550 C   0  0  0  0  0  0  0  0  0  0  0  0
   49.0430   34.8130   42.2730 N   0  0  0  0  0  0  0  0  0  0  0  0
   50.6440   31.5740   41.0320 H   0  0  0  0  0  0  0  0  0  0  0  0
   50.9010   35.1050   43.3200 H   0  0  0  0  0  0  0  0  0  0  0  0
   48.0230   31.7460   39.9150 S   0  0  0  0  0  0  0  0  0  0  0  0
   48.2140   32.2770   38.1980 C   0  0  0  0  0  0  0  0  0  0  0  0
   48.1140   31.4070   37.0910 C   0  0  0  0  0  0  0  0  0  0  0  0
   47.9100   30.3370   37.2160 H   0  0  0  0  0  0  0  0  0  0  0  0
   48.4030   32.5660   35.6840 S   0  0  0  0  0  0  0  0  0  0  0  0
   48.6090   34.0300   36.8730 C   0  0  0  0  0  0  0  0  0  0  0  0
   48.8120   35.0190   36.4670 H   0  0  0  0  0  0  0  0  0  0  0  0
   48.4620   33.5480   37.9370 N   0  0  0  0  0  0  0  0  0  0  0  0
   46.1450   35.0220   42.0260 C   0  0  0  0  0  0  0  0  0  0  0  0
   46.2840   34.4860   42.9980 H   0  0  0  0  0  0  0  0  0  0  0  0
   46.4870   36.0690   42.1890 H   0  0  0  0  0  0  0  0  0  0  0  0
   44.6820   34.9790   41.7580 C   0  0  0  0  0  0  0  0  0  0  0  0
   43.7620   35.4550   42.7400 C   0  0  0  0  0  0  0  0  0  0  0  0
   42.1300   35.1910   41.9430 S   0  0  0  0  0  0  0  0  0  0  0  0
   42.9730   34.4730   40.3980 C   0  0  0  0  0  0  0  0  0  0  0  0
   44.0730   34.5440   40.6890 N   0  0  0  0  0  0  0  0  0  0  0  0
   43.9990   35.8660   43.7090 H   0  0  0  0  0  0  0  0  0  0  0  0
   42.2550   34.0260   39.2900 O   0  0  0  0  0  0  0  0  0  0  0  0
   40.3420   34.5520   37.5420 O   0  0  0  0  0  0  0  0  0  0  0  0
   41.4460   35.1990   38.3530 P   0  0  0  0  0  0  0  0  0  0  0  0
   40.7620   36.3120   39.4280 O   0  0  0  0  0  0  0  0  0  0  0  0
   39.9560   35.8570   39.8100 H   0  0  0  0  0  0  0  0  0  0  0  0
   42.5450   36.0170   37.3630 O   0  0  0  0  0  0  0  0  0  0  0  0
   42.7680   36.9050   37.7390 H   0  0  0  0  0  0  0  0  0  0  0  0
  1  4  1  0  0  0  0
  1 20  1  0  0  0  0
  2  1  1  0  0  0  0
  3  1  1  0  0  0  0
  4  9  1  0  0  0  0
  5  6  1  0  0  0  0
  5  4  2  0  0  0  0
  6  7  2  0  0  0  0
  7  8  1  0  0  0  0
  8 11  1  0  0  0  0
  9  8  2  0  0  0  0
 10  6  1  0  0  0  0
 12  5  1  0  0  0  0
 13 12  1  0  0  0  0
 14 15  1  0  0  0  0
 14 13  2  0  0  0  0
 16 17  1  0  0  0  0
 16 14  1  0  0  0  0
 17 19  2  0  0  0  0
 18 17  1  0  0  0  0
 19 13  1  0  0  0  0
 20 22  1  0  0  0  0
 20 21  1  0  0  0  0
 23 20  1  0  0  0  0
 23 24  2  0  0  0  0
 24 28  1  0  0  0  0
 25 24  1  0  0  0  0
 26 27  2  0  0  0  0
 26 25  1  0  0  0  0
 27 23  1  0  0  0  0
 29 26  1  0  0  0  0
 30 31  2  0  0  0  0
 31 29  1  0  0  0  0
 31 32  1  0  0  0  0
 32 33  1  0  0  0  0
 34 35  1  0  0  0  0
 34 31  1  0  0  0  0
M  END
>  <minimizedAffinity>
-4.86687613

>  <minimizedRMSD>
0.489289194

$$$$
