
 OpenBabel03252504513D

 32 34  0  0  0  0  0  0  0  0999 V2000
   45.5260   33.5450   43.0770 C   0  0  0  0  0  0  0  0  0  0  0  0
   46.8530   33.9570   42.8790 C   0  0  0  0  0  0  0  0  0  0  0  0
   47.8090   33.3060   43.6450 C   0  0  0  0  0  0  0  0  0  0  0  0
   47.4160   32.3340   44.5180 N   0  0  0  0  0  0  0  0  0  0  0  0
   46.1440   31.9780   44.6700 C   0  0  0  0  0  0  0  0  0  0  0  0
   45.1750   32.5850   43.9450 N   0  0  0  0  0  0  0  0  0  0  0  0
   44.7120   34.0060   42.5160 H   0  0  0  0  0  0  0  0  0  0  0  0
   48.8400   33.6000   43.5150 H   0  0  0  0  0  0  0  0  0  0  0  0
   45.5350   29.2580   43.4400 Cl  0  0  0  0  0  0  0  0  0  0  0  0
   45.4940   29.6640   45.1540 C   0  0  0  0  0  0  0  0  0  0  0  0
   45.7870   30.9320   45.6190 C   0  0  0  0  0  0  0  0  0  0  0  0
   45.7450   31.2150   46.9680 C   0  0  0  0  0  0  0  0  0  0  0  0
   45.4040   30.2170   47.8690 C   0  0  0  0  0  0  0  0  0  0  0  0
   45.1180   28.9600   47.3570 C   0  0  0  0  0  0  0  0  0  0  0  0
   44.6920   27.7260   48.5250 Cl  0  0  0  0  0  0  0  0  0  0  0  0
   45.1490   28.6360   46.0120 C   0  0  0  0  0  0  0  0  0  0  0  0
   45.9790   32.2150   47.3030 H   0  0  0  0  0  0  0  0  0  0  0  0
   45.3640   30.4130   48.9320 H   0  0  0  0  0  0  0  0  0  0  0  0
   44.9120   27.6300   45.6890 H   0  0  0  0  0  0  0  0  0  0  0  0
   47.1010   34.9950   41.9210 C   0  0  0  0  0  0  0  0  0  0  0  0
   46.9970   35.9900   42.3990 H   0  0  0  0  0  0  0  0  0  0  0  0
   46.4100   34.9480   41.0750 H   0  0  0  0  0  0  0  0  0  0  0  0
   48.5450   34.8880   41.4530 C   0  0  0  0  0  0  0  0  0  0  0  0
   49.1840   34.3770   42.2110 H   0  0  0  0  0  0  0  0  0  0  0  0
   48.9200   35.8980   41.3080 H   0  0  0  0  0  0  0  0  0  0  0  0
   48.4970   34.0810   40.1800 C   0  0  0  0  0  0  0  0  0  0  0  0
   48.8820   32.7060   40.1790 C   0  0  0  0  0  0  0  0  0  0  0  0
   49.2130   32.1590   40.9980 H   0  0  0  0  0  0  0  0  0  0  0  0
   48.6290   32.2640   38.4240 S   0  0  0  0  0  0  0  0  0  0  0  0
   48.0410   34.0280   37.9970 C   0  0  0  0  0  0  0  0  0  0  0  0
   47.7080   34.4580   37.0130 H   0  0  0  0  0  0  0  0  0  0  0  0
   48.1080   34.5690   39.0140 N   0  0  0  0  0  0  0  0  0  0  0  0
  1  6  1  0  0  0  0
  2  1  2  0  0  0  0
  2  3  1  0  0  0  0
  3  4  2  0  0  0  0
  4  5  1  0  0  0  0
  5 11  1  0  0  0  0
  6  5  2  0  0  0  0
  7  1  1  0  0  0  0
  8  3  1  0  0  0  0
  9 10  1  0  0  0  0
 10 11  2  0  0  0  0
 10 16  1  0  0  0  0
 11 12  1  0  0  0  0
 12 17  1  0  0  0  0
 12 13  2  0  0  0  0
 13 18  1  0  0  0  0
 14 13  1  0  0  0  0
 14 15  1  0  0  0  0
 16 14  2  0  0  0  0
 19 16  1  0  0  0  0
 20 21  1  0  0  0  0
 20  2  1  0  0  0  0
 22 20  1  0  0  0  0
 23 20  1  0  0  0  0
 23 24  1  0  0  0  0
 25 23  1  0  0  0  0
 26 23  1  0  0  0  0
 27 26  2  0  0  0  0
 27 28  1  0  0  0  0
 29 27  1  0  0  0  0
 30 29  1  0  0  0  0
 30 32  2  0  0  0  0
 31 30  1  0  0  0  0
 32 26  1  0  0  0  0
M  END
>  <minimizedAffinity>
-4.20410156

>  <minimizedRMSD>
2.37081885

$$$$
