
 OpenBabel03252509263D

 28 30  0  0  1  0  0  0  0  0999 V2000
   46.5950   35.0910   41.9180 C   0  0  1  0  0  0  0  0  0  0  0  0
   48.1430   35.2570   41.9360 C   0  0  0  0  0  0  0  0  0  0  0  0
   47.3370   34.0830   41.2870 C   0  0  2  0  0  0  0  0  0  0  0  0
   46.0770   35.9000   41.3610 H   0  0  0  0  0  0  0  0  0  0  0  0
   48.6850   35.0490   42.8570 H   0  0  0  0  0  0  0  0  0  0  0  0
   48.5280   35.9550   41.1830 H   0  0  0  0  0  0  0  0  0  0  0  0
   47.5750   33.0980   41.7960 H   0  0  0  0  0  0  0  0  0  0  0  0
   44.6430   35.4140   45.1100 C   0  0  0  0  0  0  0  0  0  0  0  0
   45.1240   35.7300   43.7980 C   0  0  0  0  0  0  0  0  0  0  0  0
   46.0730   34.8880   43.3200 C   0  0  0  0  0  0  0  0  0  0  0  0
   46.5350   33.8130   44.0460 N   0  0  0  0  0  0  0  0  0  0  0  0
   46.0590   33.5500   45.2760 C   0  0  0  0  0  0  0  0  0  0  0  0
   45.1090   34.3530   45.8070 N   0  0  0  0  0  0  0  0  0  0  0  0
   43.8770   36.1040   45.4790 H   0  0  0  0  0  0  0  0  0  0  0  0
   46.4390   32.7020   45.8210 H   0  0  0  0  0  0  0  0  0  0  0  0
   44.6700   36.8470   43.0770 N   0  0  0  0  0  0  0  0  0  0  0  0
   45.4190   37.5350   43.3690 H   0  0  0  0  0  0  0  0  0  0  0  0
   43.8550   36.9970   42.4400 H   0  0  0  0  0  0  0  0  0  0  0  0
   47.4040   33.9480   39.7870 C   0  0  0  0  0  0  0  0  0  0  0  0
   48.4040   33.5780   39.4800 H   0  0  0  0  0  0  0  0  0  0  0  0
   47.3400   34.9770   39.3790 H   0  0  0  0  0  0  0  0  0  0  0  0
   46.3310   33.0430   39.2630 C   0  0  0  0  0  0  0  0  0  0  0  0
   45.7490   32.0530   40.0510 C   0  0  0  0  0  0  0  0  0  0  0  0
   46.0280   31.8570   41.1170 H   0  0  0  0  0  0  0  0  0  0  0  0
   44.5260   31.2830   38.8900 S   0  0  0  0  0  0  0  0  0  0  0  0
   45.0460   32.4740   37.5230 C   0  0  0  0  0  0  0  0  0  0  0  0
   44.6240   32.4940   36.5090 H   0  0  0  0  0  0  0  0  0  0  0  0
   45.8610   33.1150   38.0250 N   0  0  0  0  0  0  0  0  0  0  0  0
  1  4  1  6  0  0  0
  1  2  1  0  0  0  0
  1 10  1  0  0  0  0
  2  5  1  0  0  0  0
  3  7  1  1  0  0  0
  3  1  1  0  0  0  0
  3  2  1  0  0  0  0
  6  2  1  0  0  0  0
  8 14  1  0  0  0  0
  8 13  1  0  0  0  0
  9  8  2  0  0  0  0
 10  9  1  0  0  0  0
 10 11  2  0  0  0  0
 11 12  1  0  0  0  0
 12 13  2  0  0  0  0
 12 15  1  0  0  0  0
 16 17  1  0  0  0  0
 16  9  1  0  0  0  0
 18 16  1  0  0  0  0
 19  3  1  0  0  0  0
 20 19  1  0  0  0  0
 21 19  1  0  0  0  0
 22 19  1  0  0  0  0
 22 23  2  0  0  0  0
 23 24  1  0  0  0  0
 25 23  1  0  0  0  0
 26 28  2  0  0  0  0
 26 25  1  0  0  0  0
 27 26  1  0  0  0  0
 28 22  1  0  0  0  0
M  END
>  <minimizedAffinity>
-4.47433949

>  <minimizedRMSD>
0.824446499

$$$$
