
 OpenBabel03252509233D

 25 27  0  0  1  0  0  0  0  0999 V2000
   46.6680   34.7860   41.9710 C   0  0  1  0  0  0  0  0  0  0  0  0
   48.1040   35.3720   41.9970 C   0  0  0  0  0  0  0  0  0  0  0  0
   47.7220   33.8990   41.6400 C   0  0  2  0  0  0  0  0  0  0  0  0
   46.0190   35.2790   41.2220 H   0  0  0  0  0  0  0  0  0  0  0  0
   48.4130   35.9800   41.1180 H   0  0  0  0  0  0  0  0  0  0  0  0
   48.6070   35.5260   42.9430 H   0  0  0  0  0  0  0  0  0  0  0  0
   48.0610   33.1360   42.3890 H   0  0  0  0  0  0  0  0  0  0  0  0
   44.5650   35.5500   44.9860 C   0  0  0  0  0  0  0  0  0  0  0  0
   45.1230   35.6870   43.6750 C   0  0  0  0  0  0  0  0  0  0  0  0
   46.0880   34.7660   43.3630 C   0  0  0  0  0  0  0  0  0  0  0  0
   46.4800   33.7900   44.2590 N   0  0  0  0  0  0  0  0  0  0  0  0
   45.9230   33.7090   45.4770 C   0  0  0  0  0  0  0  0  0  0  0  0
   44.9590   34.5950   45.8400 N   0  0  0  0  0  0  0  0  0  0  0  0
   43.8000   36.2720   45.2420 H   0  0  0  0  0  0  0  0  0  0  0  0
   46.1960   32.9640   46.2100 H   0  0  0  0  0  0  0  0  0  0  0  0
   44.7310   36.7180   42.7720 N   0  0  0  0  0  0  0  0  0  0  0  0
   44.7960   37.7430   43.0220 H   0  0  0  0  0  0  0  0  0  0  0  0
   44.3660   36.4740   41.8390 H   0  0  0  0  0  0  0  0  0  0  0  0
   47.9420   33.5050   40.2240 C   0  0  0  0  0  0  0  0  0  0  0  0
   48.9960   32.5550   39.9390 C   0  0  0  0  0  0  0  0  0  0  0  0
   49.6720   32.0780   40.6780 H   0  0  0  0  0  0  0  0  0  0  0  0
   48.9130   32.3590   38.0720 S   0  0  0  0  0  0  0  0  0  0  0  0
   47.4740   33.5950   38.0390 C   0  0  0  0  0  0  0  0  0  0  0  0
   46.7490   34.1030   37.2180 H   0  0  0  0  0  0  0  0  0  0  0  0
   47.3160   33.8860   39.1110 N   0  0  0  0  0  0  0  0  0  0  0  0
  1  4  1  6  0  0  0
  1  2  1  0  0  0  0
  1 10  1  0  0  0  0
  2  6  1  0  0  0  0
  3  1  1  0  0  0  0
  3  2  1  0  0  0  0
  3  7  1  1  0  0  0
  5  2  1  0  0  0  0
  8 14  1  0  0  0  0
  8 13  1  0  0  0  0
  9  8  2  0  0  0  0
 10  9  1  0  0  0  0
 10 11  2  0  0  0  0
 11 12  1  0  0  0  0
 12 13  2  0  0  0  0
 12 15  1  0  0  0  0
 16 17  1  0  0  0  0
 16  9  1  0  0  0  0
 18 16  1  0  0  0  0
 19  3  1  0  0  0  0
 20 19  2  0  0  0  0
 20 21  1  0  0  0  0
 22 20  1  0  0  0  0
 23 22  1  0  0  0  0
 23 25  2  0  0  0  0
 24 23  1  0  0  0  0
 25 19  1  0  0  0  0
M  END
>  <minimizedAffinity>
-4.62577248

>  <minimizedRMSD>
0.537345231

$$$$
