
 OpenBabel03252501163D

 33 36  0  0  1  0  0  0  0  0999 V2000
   46.9740   31.1330   44.2080 C   0  0  1  0  0  0  0  0  0  0  0  0
   46.7790   32.5430   43.8140 C   0  0  0  0  0  0  0  0  0  0  0  0
   48.0900   31.7320   43.4700 C   0  0  2  0  0  0  0  0  0  0  0  0
   46.3750   30.3320   43.6860 H   0  0  0  0  0  0  0  0  0  0  0  0
   46.1700   32.8490   42.9620 H   0  0  0  0  0  0  0  0  0  0  0  0
   46.9580   33.3370   44.5900 H   0  0  0  0  0  0  0  0  0  0  0  0
   48.9780   32.0840   43.9960 H   0  0  0  0  0  0  0  0  0  0  0  0
   46.4110   31.1250   47.9130 C   0  0  0  0  0  0  0  0  0  0  0  0
   46.1840   31.4050   46.5790 C   0  0  0  0  0  0  0  0  0  0  0  0
   47.1100   30.8840   45.6720 C   0  0  0  0  0  0  0  0  0  0  0  0
   48.1540   30.1510   46.1200 N   0  0  0  0  0  0  0  0  0  0  0  0
   48.3280   29.9060   47.4460 C   0  0  0  0  0  0  0  0  0  0  0  0
   47.4460   30.3990   48.3410 N   0  0  0  0  0  0  0  0  0  0  0  0
   45.3710   31.9800   46.1980 H   0  0  0  0  0  0  0  0  0  0  0  0
   49.1510   29.3250   47.8410 H   0  0  0  0  0  0  0  0  0  0  0  0
   45.4350   31.6590   48.9190 C   0  0  0  0  0  0  0  0  0  0  0  0
   45.8830   32.8920   49.3270 F   0  0  0  0  0  0  0  0  0  0  0  0
   45.4420   30.8010   49.9990 F   0  0  0  0  0  0  0  0  0  0  0  0
   44.1860   31.7860   48.3650 F   0  0  0  0  0  0  0  0  0  0  0  0
   48.1610   31.3870   42.0190 C   0  0  0  0  0  0  0  0  0  0  0  0
   48.1700   30.1210   41.4430 C   0  0  0  0  0  0  0  0  0  0  0  0
   48.2400   30.4170   40.0940 C   0  0  0  0  0  0  0  0  0  0  0  0
   48.2700   31.8030   39.8900 C   0  0  0  0  0  0  0  0  0  0  0  0
   48.2200   32.2910   41.0930 O   0  0  0  0  0  0  0  0  0  0  0  0
   48.1320   29.1860   41.9470 H   0  0  0  0  0  0  0  0  0  0  0  0
   48.2680   29.6730   39.2860 H   0  0  0  0  0  0  0  0  0  0  0  0
   48.3420   32.5210   38.6160 C   0  0  0  0  0  0  0  0  0  0  0  0
   48.4700   31.7980   37.3720 C   0  0  0  0  0  0  0  0  0  0  0  0
   48.5210   30.7140   37.2890 H   0  0  0  0  0  0  0  0  0  0  0  0
   48.5110   33.1770   36.1380 S   0  0  0  0  0  0  0  0  0  0  0  0
   48.3490   34.4680   37.5150 C   0  0  0  0  0  0  0  0  0  0  0  0
   48.3140   35.5660   37.3980 H   0  0  0  0  0  0  0  0  0  0  0  0
   48.2950   33.8440   38.5240 N   0  0  0  0  0  0  0  0  0  0  0  0
  1  4  1  6  0  0  0
  1 10  1  0  0  0  0
  2  1  1  0  0  0  0
  2  6  1  0  0  0  0
  3  2  1  0  0  0  0
  3  7  1  1  0  0  0
  3  1  1  0  0  0  0
  5  2  1  0  0  0  0
  8 13  1  0  0  0  0
  8 16  1  0  0  0  0
  9  8  2  0  0  0  0
 10 11  2  0  0  0  0
 10  9  1  0  0  0  0
 11 12  1  0  0  0  0
 12 15  1  0  0  0  0
 12 13  2  0  0  0  0
 14  9  1  0  0  0  0
 16 17  1  0  0  0  0
 16 18  1  0  0  0  0
 19 16  1  0  0  0  0
 20  3  1  0  0  0  0
 21 25  1  0  0  0  0
 21 20  2  0  0  0  0
 22 21  1  0  0  0  0
 23 22  2  0  0  0  0
 23 24  1  0  0  0  0
 24 20  1  0  0  0  0
 26 22  1  0  0  0  0
 27 23  1  0  0  0  0
 28 27  2  0  0  0  0
 29 28  1  0  0  0  0
 30 28  1  0  0  0  0
 30 31  1  0  0  0  0
 31 33  2  0  0  0  0
 32 31  1  0  0  0  0
 33 27  1  0  0  0  0
M  END
>  <minimizedAffinity>
-4.5225091

>  <minimizedRMSD>
3.05575776

$$$$
