
 OpenBabel03242515113D

 34 36  0  0  0  0  0  0  0  0999 V2000
   36.6210   30.5550   39.3160 C   0  0  0  0  0  0  0  0  0  0  0  0
   36.3890   30.3800   37.9720 C   0  0  0  0  0  0  0  0  0  0  0  0
   35.6190   29.3730   37.4370 C   0  0  0  0  0  0  0  0  0  0  0  0
   35.0360   28.4770   38.2810 C   0  0  0  0  0  0  0  0  0  0  0  0
   35.2400   28.6130   39.6280 C   0  0  0  0  0  0  0  0  0  0  0  0
   36.0240   29.6400   40.1380 C   0  0  0  0  0  0  0  0  0  0  0  0
   36.8320   31.0680   37.2580 H   0  0  0  0  0  0  0  0  0  0  0  0
   35.4750   29.2890   36.3710 H   0  0  0  0  0  0  0  0  0  0  0  0
   34.4260   27.6780   37.8700 H   0  0  0  0  0  0  0  0  0  0  0  0
   34.7530   27.8730   40.2640 H   0  0  0  0  0  0  0  0  0  0  0  0
   39.2460   32.2830   41.1730 C   0  0  0  0  0  0  0  0  0  0  0  0
   39.0530   33.6290   40.8380 C   0  0  0  0  0  0  0  0  0  0  0  0
   38.0130   33.9300   39.9720 C   0  0  0  0  0  0  0  0  0  0  0  0
   37.2040   32.9460   39.4590 N   0  0  0  0  0  0  0  0  0  0  0  0
   37.4420   31.6350   39.8250 C   0  0  0  0  0  0  0  0  0  0  0  0
   38.4430   31.3540   40.6590 N   0  0  0  0  0  0  0  0  0  0  0  0
   40.0490   32.0150   41.8480 H   0  0  0  0  0  0  0  0  0  0  0  0
   39.6840   34.4160   41.2360 H   0  0  0  0  0  0  0  0  0  0  0  0
   37.8040   34.9570   39.6670 H   0  0  0  0  0  0  0  0  0  0  0  0
   36.1360   29.6430   41.5490 N   0  0  0  0  0  0  0  0  0  0  0  0
   35.5340   30.4020   41.9780 H   0  0  0  0  0  0  0  0  0  0  0  0
   37.0410   28.6690   42.6340 S   0  0  0  0  0  0  0  0  0  0  0  0
   38.0760   29.5610   43.3070 O   0  0  0  0  0  0  0  0  0  0  0  0
   38.5990   30.2280   42.8070 H   0  0  0  0  0  0  0  0  0  0  0  0
   36.2530   27.9890   43.6790 O   0  0  0  0  0  0  0  0  0  0  0  0
   36.2240   28.1910   44.6530 H   0  0  0  0  0  0  0  0  0  0  0  0
   37.9400   27.5950   41.6830 O   0  0  0  0  0  0  0  0  0  0  0  0
   38.8630   26.8080   42.3770 C   0  0  0  0  0  0  0  0  0  0  0  0
   38.5080   25.5550   42.0470 C   0  0  0  0  0  0  0  0  0  0  0  0
   37.8640   24.8230   41.5090 H   0  0  0  0  0  0  0  0  0  0  0  0
   39.7850   24.5310   43.0100 S   0  0  0  0  0  0  0  0  0  0  0  0
   40.5520   26.1370   43.6790 C   0  0  0  0  0  0  0  0  0  0  0  0
   41.3780   26.7660   44.3560 H   0  0  0  0  0  0  0  0  0  0  0  0
   39.8850   26.8890   43.1850 N   0  0  0  0  0  0  0  0  0  0  0  0
  1 15  1  0  0  0  0
  1  6  1  0  0  0  0
  2  1  2  0  0  0  0
  3  2  1  0  0  0  0
  3  4  2  0  0  0  0
  4  5  1  0  0  0  0
  5  6  2  0  0  0  0
  5 10  1  0  0  0  0
  6 20  1  0  0  0  0
  7  2  1  0  0  0  0
  8  3  1  0  0  0  0
  9  4  1  0  0  0  0
 11 17  1  0  0  0  0
 12 11  1  0  0  0  0
 12 18  1  0  0  0  0
 13 12  2  0  0  0  0
 14 15  2  0  0  0  0
 14 13  1  0  0  0  0
 15 16  1  0  0  0  0
 16 11  2  0  0  0  0
 19 13  1  0  0  0  0
 20 21  1  0  0  0  0
 20 22  1  0  0  0  0
 22 23  1  0  0  0  0
 22 25  1  0  0  0  0
 24 23  1  0  0  0  0
 25 26  1  0  0  0  0
 27 28  1  0  0  0  0
 27 22  1  0  0  0  0
 28 34  1  0  0  0  0
 29 28  2  0  0  0  0
 29 31  1  0  0  0  0
 30 29  1  0  0  0  0
 31 32  1  0  0  0  0
 32 33  1  0  0  0  0
 34 32  2  0  0  0  0
M  END
>  <minimizedAffinity>
-5.73357868

$$$$

 OpenBabel03242515113D

 34 36  0  0  0  0  0  0  0  0999 V2000
   36.6500   30.5630   39.3830 C   0  0  0  0  0  0  0  0  0  0  0  0
   36.3950   30.3980   38.0420 C   0  0  0  0  0  0  0  0  0  0  0  0
   35.6000   29.4060   37.5150 C   0  0  0  0  0  0  0  0  0  0  0  0
   35.0140   28.5170   38.3640 C   0  0  0  0  0  0  0  0  0  0  0  0
   35.2390   28.6450   39.7080 C   0  0  0  0  0  0  0  0  0  0  0  0
   36.0490   29.6570   40.2110 C   0  0  0  0  0  0  0  0  0  0  0  0
   36.8400   31.0810   37.3240 H   0  0  0  0  0  0  0  0  0  0  0  0
   35.4390   29.3290   36.4500 H   0  0  0  0  0  0  0  0  0  0  0  0
   34.3840   27.7310   37.9590 H   0  0  0  0  0  0  0  0  0  0  0  0
   34.7490   27.9110   40.3490 H   0  0  0  0  0  0  0  0  0  0  0  0
   37.9720   33.9210   39.9320 C   0  0  0  0  0  0  0  0  0  0  0  0
   39.0560   33.7100   40.7930 C   0  0  0  0  0  0  0  0  0  0  0  0
   39.3230   32.4060   41.1780 C   0  0  0  0  0  0  0  0  0  0  0  0
   38.5540   31.3590   40.7330 N   0  0  0  0  0  0  0  0  0  0  0  0
   37.4970   31.6280   39.8850 C   0  0  0  0  0  0  0  0  0  0  0  0
   37.2470   32.8850   39.5190 N   0  0  0  0  0  0  0  0  0  0  0  0
   37.7370   34.9280   39.6130 H   0  0  0  0  0  0  0  0  0  0  0  0
   39.6720   34.5270   41.1520 H   0  0  0  0  0  0  0  0  0  0  0  0
   40.1520   32.1660   41.8470 H   0  0  0  0  0  0  0  0  0  0  0  0
   36.1810   29.6520   41.6190 N   0  0  0  0  0  0  0  0  0  0  0  0
   35.5460   30.3740   42.0650 H   0  0  0  0  0  0  0  0  0  0  0  0
   37.1520   28.7170   42.6820 S   0  0  0  0  0  0  0  0  0  0  0  0
   38.0850   29.6690   43.4190 O   0  0  0  0  0  0  0  0  0  0  0  0
   38.5530   30.4040   42.9620 H   0  0  0  0  0  0  0  0  0  0  0  0
   36.4100   27.9190   43.6770 O   0  0  0  0  0  0  0  0  0  0  0  0
   36.3430   28.0720   44.6580 H   0  0  0  0  0  0  0  0  0  0  0  0
   38.1660   27.7760   41.7070 O   0  0  0  0  0  0  0  0  0  0  0  0
   37.7460   26.4600   41.4980 C   0  0  0  0  0  0  0  0  0  0  0  0
   38.0180   26.2530   40.1990 C   0  0  0  0  0  0  0  0  0  0  0  0
   38.4030   26.5850   39.2080 H   0  0  0  0  0  0  0  0  0  0  0  0
   37.4310   24.4620   39.9670 S   0  0  0  0  0  0  0  0  0  0  0  0
   36.9210   24.4030   41.7980 C   0  0  0  0  0  0  0  0  0  0  0  0
   36.4490   23.8360   42.7930 H   0  0  0  0  0  0  0  0  0  0  0  0
   37.2120   25.4390   42.1110 N   0  0  0  0  0  0  0  0  0  0  0  0
  1 15  1  0  0  0  0
  1  6  1  0  0  0  0
  2  1  2  0  0  0  0
  3  2  1  0  0  0  0
  3  4  2  0  0  0  0
  4  5  1  0  0  0  0
  5  6  2  0  0  0  0
  5 10  1  0  0  0  0
  6 20  1  0  0  0  0
  7  2  1  0  0  0  0
  8  3  1  0  0  0  0
  9  4  1  0  0  0  0
 11 12  1  0  0  0  0
 12 18  1  0  0  0  0
 12 13  2  0  0  0  0
 13 19  1  0  0  0  0
 14 13  1  0  0  0  0
 15 14  2  0  0  0  0
 16 15  1  0  0  0  0
 16 11  2  0  0  0  0
 17 11  1  0  0  0  0
 20 21  1  0  0  0  0
 20 22  1  0  0  0  0
 22 23  1  0  0  0  0
 22 25  1  0  0  0  0
 24 23  1  0  0  0  0
 25 26  1  0  0  0  0
 27 22  1  0  0  0  0
 28 27  1  0  0  0  0
 28 34  1  0  0  0  0
 29 28  2  0  0  0  0
 30 29  1  0  0  0  0
 31 29  1  0  0  0  0
 31 32  1  0  0  0  0
 32 34  2  0  0  0  0
 32 33  1  0  0  0  0
M  END
>  <minimizedAffinity>
-5.66078615

$$$$

 OpenBabel03242515113D

 34 36  0  0  0  0  0  0  0  0999 V2000
   36.5810   28.1660   41.1580 C   0  0  0  0  0  0  0  0  0  0  0  0
   37.0110   26.9780   41.7000 C   0  0  0  0  0  0  0  0  0  0  0  0
   37.7880   26.8720   42.8310 C   0  0  0  0  0  0  0  0  0  0  0  0
   38.1680   28.0110   43.4730 C   0  0  0  0  0  0  0  0  0  0  0  0
   37.7610   29.2170   42.9680 C   0  0  0  0  0  0  0  0  0  0  0  0
   36.9780   29.2930   41.8230 C   0  0  0  0  0  0  0  0  0  0  0  0
   36.7360   26.0420   41.2250 H   0  0  0  0  0  0  0  0  0  0  0  0
   38.0930   25.9070   43.2070 H   0  0  0  0  0  0  0  0  0  0  0  0
   38.7800   27.9390   44.3670 H   0  0  0  0  0  0  0  0  0  0  0  0
   38.0890   30.1020   43.5160 H   0  0  0  0  0  0  0  0  0  0  0  0
   35.3830   27.4330   37.7890 C   0  0  0  0  0  0  0  0  0  0  0  0
   34.2590   28.2590   37.6530 C   0  0  0  0  0  0  0  0  0  0  0  0
   33.9250   29.0650   38.7300 C   0  0  0  0  0  0  0  0  0  0  0  0
   34.6650   29.0550   39.8870 N   0  0  0  0  0  0  0  0  0  0  0  0
   35.7630   28.2200   39.9620 C   0  0  0  0  0  0  0  0  0  0  0  0
   36.0790   27.4480   38.9230 N   0  0  0  0  0  0  0  0  0  0  0  0
   35.6710   26.7920   36.9660 H   0  0  0  0  0  0  0  0  0  0  0  0
   33.6660   28.2770   36.7460 H   0  0  0  0  0  0  0  0  0  0  0  0
   33.0620   29.7340   38.6960 H   0  0  0  0  0  0  0  0  0  0  0  0
   36.6430   30.6100   41.4310 N   0  0  0  0  0  0  0  0  0  0  0  0
   35.8280   30.9810   41.9970 H   0  0  0  0  0  0  0  0  0  0  0  0
   37.3050   31.6630   40.2490 S   0  0  0  0  0  0  0  0  0  0  0  0
   36.6440   31.3380   38.9150 O   0  0  0  0  0  0  0  0  0  0  0  0
   36.4930   30.4130   38.6150 H   0  0  0  0  0  0  0  0  0  0  0  0
   37.1370   33.1030   40.5200 O   0  0  0  0  0  0  0  0  0  0  0  0
   36.5390   33.7480   40.0540 H   0  0  0  0  0  0  0  0  0  0  0  0
   38.9260   31.2140   40.0550 O   0  0  0  0  0  0  0  0  0  0  0  0
   39.8360   32.2710   39.9750 C   0  0  0  0  0  0  0  0  0  0  0  0
   40.7530   31.9590   40.9060 C   0  0  0  0  0  0  0  0  0  0  0  0
   41.1610   31.2960   41.7030 H   0  0  0  0  0  0  0  0  0  0  0  0
   41.9590   33.4180   40.7580 S   0  0  0  0  0  0  0  0  0  0  0  0
   40.8750   34.1610   39.3840 C   0  0  0  0  0  0  0  0  0  0  0  0
   40.6030   35.0280   38.5410 H   0  0  0  0  0  0  0  0  0  0  0  0
   40.0680   33.3840   39.3360 N   0  0  0  0  0  0  0  0  0  0  0  0
  1  2  2  0  0  0  0
  1  6  1  0  0  0  0
  2  3  1  0  0  0  0
  3  8  1  0  0  0  0
  3  4  2  0  0  0  0
  4  9  1  0  0  0  0
  5  4  1  0  0  0  0
  5 10  1  0  0  0  0
  6  5  2  0  0  0  0
  7  2  1  0  0  0  0
 11 16  1  0  0  0  0
 12 11  2  0  0  0  0
 12 13  1  0  0  0  0
 13 14  2  0  0  0  0
 14 15  1  0  0  0  0
 15  1  1  0  0  0  0
 16 15  2  0  0  0  0
 17 11  1  0  0  0  0
 18 12  1  0  0  0  0
 19 13  1  0  0  0  0
 20  6  1  0  0  0  0
 20 21  1  0  0  0  0
 22 25  1  0  0  0  0
 22 20  1  0  0  0  0
 23 22  1  0  0  0  0
 24 23  1  0  0  0  0
 26 25  1  0  0  0  0
 27 22  1  0  0  0  0
 28 27  1  0  0  0  0
 28 29  2  0  0  0  0
 29 30  1  0  0  0  0
 31 29  1  0  0  0  0
 32 31  1  0  0  0  0
 33 32  1  0  0  0  0
 34 32  2  0  0  0  0
 34 28  1  0  0  0  0
M  END
>  <minimizedAffinity>
-5.55548048

$$$$

 OpenBabel03242515113D

 34 36  0  0  0  0  0  0  0  0999 V2000
   36.2950   26.8430   39.0370 C   0  0  0  0  0  0  0  0  0  0  0  0
   36.2710   26.5280   37.6980 C   0  0  0  0  0  0  0  0  0  0  0  0
   35.7760   27.3500   36.7120 C   0  0  0  0  0  0  0  0  0  0  0  0
   35.2710   28.5640   37.0650 C   0  0  0  0  0  0  0  0  0  0  0  0
   35.2750   28.9200   38.3870 C   0  0  0  0  0  0  0  0  0  0  0  0
   35.7810   28.0680   39.3610 C   0  0  0  0  0  0  0  0  0  0  0  0
   36.6620   25.5710   37.3670 H   0  0  0  0  0  0  0  0  0  0  0  0
   35.7860   27.0450   35.6770 H   0  0  0  0  0  0  0  0  0  0  0  0
   34.8790   29.2210   36.2940 H   0  0  0  0  0  0  0  0  0  0  0  0
   34.8610   29.9010   38.6220 H   0  0  0  0  0  0  0  0  0  0  0  0
   38.2320   25.6420   41.8890 C   0  0  0  0  0  0  0  0  0  0  0  0
   37.8910   24.2860   41.9690 C   0  0  0  0  0  0  0  0  0  0  0  0
   36.9930   23.7960   41.0340 C   0  0  0  0  0  0  0  0  0  0  0  0
   36.4560   24.6080   40.0660 N   0  0  0  0  0  0  0  0  0  0  0  0
   36.8290   25.9380   40.0360 C   0  0  0  0  0  0  0  0  0  0  0  0
   37.6940   26.4020   40.9380 N   0  0  0  0  0  0  0  0  0  0  0  0
   38.9310   26.0560   42.6040 H   0  0  0  0  0  0  0  0  0  0  0  0
   38.3080   23.6340   42.7280 H   0  0  0  0  0  0  0  0  0  0  0  0
   36.6810   22.7490   41.0360 H   0  0  0  0  0  0  0  0  0  0  0  0
   35.7130   28.5810   40.6780 N   0  0  0  0  0  0  0  0  0  0  0  0
   35.0080   28.0450   41.2600 H   0  0  0  0  0  0  0  0  0  0  0  0
   36.5410   29.8660   41.4570 S   0  0  0  0  0  0  0  0  0  0  0  0
   35.6210   31.0800   41.4560 O   0  0  0  0  0  0  0  0  0  0  0  0
   35.0940   31.3400   40.6660 H   0  0  0  0  0  0  0  0  0  0  0  0
   36.9630   29.5960   42.8450 O   0  0  0  0  0  0  0  0  0  0  0  0
   36.5890   29.9770   43.6840 H   0  0  0  0  0  0  0  0  0  0  0  0
   37.8310   30.2920   40.4470 O   0  0  0  0  0  0  0  0  0  0  0  0
   37.9910   31.6620   40.2240 C   0  0  0  0  0  0  0  0  0  0  0  0
   39.3050   31.8550   40.4260 C   0  0  0  0  0  0  0  0  0  0  0  0
   40.3270   31.4900   40.6770 H   0  0  0  0  0  0  0  0  0  0  0  0
   39.4690   33.7210   40.1130 S   0  0  0  0  0  0  0  0  0  0  0  0
   37.6030   33.8150   39.7590 C   0  0  0  0  0  0  0  0  0  0  0  0
   36.5670   34.4250   39.4610 H   0  0  0  0  0  0  0  0  0  0  0  0
   37.3250   32.7390   39.9060 N   0  0  0  0  0  0  0  0  0  0  0  0
  1  6  1  0  0  0  0
  1 15  1  0  0  0  0
  2  1  2  0  0  0  0
  3  4  2  0  0  0  0
  3  2  1  0  0  0  0
  4  5  1  0  0  0  0
  5 10  1  0  0  0  0
  5  6  2  0  0  0  0
  6 20  1  0  0  0  0
  7  2  1  0  0  0  0
  8  3  1  0  0  0  0
  9  4  1  0  0  0  0
 11 12  1  0  0  0  0
 11 17  1  0  0  0  0
 12 18  1  0  0  0  0
 13 19  1  0  0  0  0
 13 12  2  0  0  0  0
 14 13  1  0  0  0  0
 15 14  2  0  0  0  0
 15 16  1  0  0  0  0
 16 11  2  0  0  0  0
 20 21  1  0  0  0  0
 20 22  1  0  0  0  0
 22 25  1  0  0  0  0
 23 22  1  0  0  0  0
 24 23  1  0  0  0  0
 25 26  1  0  0  0  0
 27 22  1  0  0  0  0
 28 29  2  0  0  0  0
 28 27  1  0  0  0  0
 29 30  1  0  0  0  0
 31 29  1  0  0  0  0
 32 34  2  0  0  0  0
 32 31  1  0  0  0  0
 33 32  1  0  0  0  0
 34 28  1  0  0  0  0
M  END
>  <minimizedAffinity>
-5.53274441

$$$$

 OpenBabel03242515113D

 34 36  0  0  0  0  0  0  0  0999 V2000
   36.0350   28.0520   39.0130 C   0  0  0  0  0  0  0  0  0  0  0  0
   35.2100   27.3130   38.1970 C   0  0  0  0  0  0  0  0  0  0  0  0
   34.7370   27.7370   36.9770 C   0  0  0  0  0  0  0  0  0  0  0  0
   35.1000   28.9690   36.5250 C   0  0  0  0  0  0  0  0  0  0  0  0
   35.9220   29.7380   37.3040 C   0  0  0  0  0  0  0  0  0  0  0  0
   36.3830   29.2840   38.5340 C   0  0  0  0  0  0  0  0  0  0  0  0
   34.8920   26.3250   38.5120 H   0  0  0  0  0  0  0  0  0  0  0  0
   34.0910   27.1080   36.3830 H   0  0  0  0  0  0  0  0  0  0  0  0
   34.7340   29.3120   35.5630 H   0  0  0  0  0  0  0  0  0  0  0  0
   36.1870   30.7170   36.9020 H   0  0  0  0  0  0  0  0  0  0  0  0
   37.7480   25.9450   41.4530 C   0  0  0  0  0  0  0  0  0  0  0  0
   37.4420   26.5500   42.6790 C   0  0  0  0  0  0  0  0  0  0  0  0
   36.6440   27.6820   42.6530 C   0  0  0  0  0  0  0  0  0  0  0  0
   36.1710   28.1950   41.4700 N   0  0  0  0  0  0  0  0  0  0  0  0
   36.5050   27.5570   40.2920 C   0  0  0  0  0  0  0  0  0  0  0  0
   37.2720   26.4670   40.3240 N   0  0  0  0  0  0  0  0  0  0  0  0
   38.3680   25.0590   41.4390 H   0  0  0  0  0  0  0  0  0  0  0  0
   37.8090   26.1550   43.6200 H   0  0  0  0  0  0  0  0  0  0  0  0
   36.3660   28.2060   43.5700 H   0  0  0  0  0  0  0  0  0  0  0  0
   37.2220   30.1970   39.2160 N   0  0  0  0  0  0  0  0  0  0  0  0
   38.2240   30.1190   38.8800 H   0  0  0  0  0  0  0  0  0  0  0  0
   36.9050   31.3590   40.4390 S   0  0  0  0  0  0  0  0  0  0  0  0
   36.7370   32.7130   39.7610 O   0  0  0  0  0  0  0  0  0  0  0  0
   37.3330   33.0170   39.0390 H   0  0  0  0  0  0  0  0  0  0  0  0
   35.7130   31.0950   41.2670 O   0  0  0  0  0  0  0  0  0  0  0  0
   34.8450   31.5810   41.2630 H   0  0  0  0  0  0  0  0  0  0  0  0
   38.3240   31.4980   41.3510 O   0  0  0  0  0  0  0  0  0  0  0  0
   39.1340   30.3610   41.3780 C   0  0  0  0  0  0  0  0  0  0  0  0
   39.4110   30.2110   42.6840 C   0  0  0  0  0  0  0  0  0  0  0  0
   39.3290   30.5230   43.7500 H   0  0  0  0  0  0  0  0  0  0  0  0
   40.5080   28.6610   42.6670 S   0  0  0  0  0  0  0  0  0  0  0  0
   40.3270   28.5670   40.7760 C   0  0  0  0  0  0  0  0  0  0  0  0
   40.5490   28.0510   39.6720 H   0  0  0  0  0  0  0  0  0  0  0  0
   39.6720   29.4590   40.6020 N   0  0  0  0  0  0  0  0  0  0  0  0
  1 15  1  0  0  0  0
  2  7  1  0  0  0  0
  2  1  2  0  0  0  0
  3  2  1  0  0  0  0
  4  3  2  0  0  0  0
  4  5  1  0  0  0  0
  5  6  2  0  0  0  0
  6  1  1  0  0  0  0
  6 20  1  0  0  0  0
  8  3  1  0  0  0  0
  9  4  1  0  0  0  0
 10  5  1  0  0  0  0
 11 12  1  0  0  0  0
 12 18  1  0  0  0  0
 13 12  2  0  0  0  0
 13 19  1  0  0  0  0
 14 13  1  0  0  0  0
 15 16  1  0  0  0  0
 15 14  2  0  0  0  0
 16 11  2  0  0  0  0
 17 11  1  0  0  0  0
 20 22  1  0  0  0  0
 21 20  1  0  0  0  0
 22 25  1  0  0  0  0
 22 27  1  0  0  0  0
 23 22  1  0  0  0  0
 24 23  1  0  0  0  0
 26 25  1  0  0  0  0
 27 28  1  0  0  0  0
 28 29  2  0  0  0  0
 29 30  1  0  0  0  0
 31 29  1  0  0  0  0
 32 31  1  0  0  0  0
 33 32  1  0  0  0  0
 34 32  2  0  0  0  0
 34 28  1  0  0  0  0
M  END
>  <minimizedAffinity>
-5.26289368

$$$$

 OpenBabel03242515113D

 34 36  0  0  0  0  0  0  0  0999 V2000
   36.7780   28.9030   39.8960 C   0  0  0  0  0  0  0  0  0  0  0  0
   35.7100   28.2900   39.2830 C   0  0  0  0  0  0  0  0  0  0  0  0
   35.2070   28.6430   38.0530 C   0  0  0  0  0  0  0  0  0  0  0  0
   35.7940   29.6690   37.3760 C   0  0  0  0  0  0  0  0  0  0  0  0
   36.8610   30.3080   37.9480 C   0  0  0  0  0  0  0  0  0  0  0  0
   37.3470   29.9290   39.1930 C   0  0  0  0  0  0  0  0  0  0  0  0
   35.2070   27.4670   39.7820 H   0  0  0  0  0  0  0  0  0  0  0  0
   34.3640   28.1220   37.6260 H   0  0  0  0  0  0  0  0  0  0  0  0
   35.4050   29.9560   36.4040 H   0  0  0  0  0  0  0  0  0  0  0  0
   37.2990   31.1220   37.3690 H   0  0  0  0  0  0  0  0  0  0  0  0
   37.9840   26.7330   42.5720 C   0  0  0  0  0  0  0  0  0  0  0  0
   38.2030   27.6170   43.6360 C   0  0  0  0  0  0  0  0  0  0  0  0
   37.9310   28.9580   43.4210 C   0  0  0  0  0  0  0  0  0  0  0  0
   37.4650   29.4060   42.2090 N   0  0  0  0  0  0  0  0  0  0  0  0
   37.2680   28.4890   41.1960 C   0  0  0  0  0  0  0  0  0  0  0  0
   37.5310   27.2000   41.4100 N   0  0  0  0  0  0  0  0  0  0  0  0
   38.1860   25.6790   42.7080 H   0  0  0  0  0  0  0  0  0  0  0  0
   38.5710   27.2760   44.5980 H   0  0  0  0  0  0  0  0  0  0  0  0
   38.0790   29.7040   44.2040 H   0  0  0  0  0  0  0  0  0  0  0  0
   38.4530   30.6870   39.6440 N   0  0  0  0  0  0  0  0  0  0  0  0
   39.3650   30.1890   39.4410 H   0  0  0  0  0  0  0  0  0  0  0  0
   38.5620   32.2100   40.4280 S   0  0  0  0  0  0  0  0  0  0  0  0
   37.1460   32.7430   40.6080 O   0  0  0  0  0  0  0  0  0  0  0  0
   36.4690   32.6860   39.8960 H   0  0  0  0  0  0  0  0  0  0  0  0
   39.2310   32.1960   41.7440 O   0  0  0  0  0  0  0  0  0  0  0  0
   38.8180   32.3110   42.6420 H   0  0  0  0  0  0  0  0  0  0  0  0
   39.2930   33.2680   39.3280 O   0  0  0  0  0  0  0  0  0  0  0  0
   40.3060   32.7120   38.5440 C   0  0  0  0  0  0  0  0  0  0  0  0
   41.2830   33.6330   38.6040 C   0  0  0  0  0  0  0  0  0  0  0  0
   41.7000   34.6040   38.9560 H   0  0  0  0  0  0  0  0  0  0  0  0
   42.6280   32.8350   37.5280 S   0  0  0  0  0  0  0  0  0  0  0  0
   41.4860   31.3450   37.2250 C   0  0  0  0  0  0  0  0  0  0  0  0
   41.2230   30.2410   36.7280 H   0  0  0  0  0  0  0  0  0  0  0  0
   40.5920   31.6630   37.8220 N   0  0  0  0  0  0  0  0  0  0  0  0
  1 15  1  0  0  0  0
  2  7  1  0  0  0  0
  2  1  1  0  0  0  0
  3  2  2  0  0  0  0
  4  5  2  0  0  0  0
  4  3  1  0  0  0  0
  5  6  1  0  0  0  0
  6 20  1  0  0  0  0
  6  1  2  0  0  0  0
  8  3  1  0  0  0  0
  9  4  1  0  0  0  0
 10  5  1  0  0  0  0
 11 17  1  0  0  0  0
 11 12  1  0  0  0  0
 12 18  1  0  0  0  0
 13 12  2  0  0  0  0
 13 19  1  0  0  0  0
 14 13  1  0  0  0  0
 15 16  1  0  0  0  0
 15 14  2  0  0  0  0
 16 11  2  0  0  0  0
 20 22  1  0  0  0  0
 21 20  1  0  0  0  0
 22 23  1  0  0  0  0
 22 25  1  0  0  0  0
 24 23  1  0  0  0  0
 25 26  1  0  0  0  0
 27 22  1  0  0  0  0
 28 29  2  0  0  0  0
 28 27  1  0  0  0  0
 29 30  1  0  0  0  0
 31 29  1  0  0  0  0
 32 31  1  0  0  0  0
 32 34  2  0  0  0  0
 33 32  1  0  0  0  0
 34 28  1  0  0  0  0
M  END
>  <minimizedAffinity>
-5.25134039

$$$$

 OpenBabel03242515113D

 34 36  0  0  0  0  0  0  0  0999 V2000
   37.8290   26.5920   41.4760 C   0  0  0  0  0  0  0  0  0  0  0  0
   39.0590   26.2540   41.9910 C   0  0  0  0  0  0  0  0  0  0  0  0
   39.8160   27.0690   42.8000 C   0  0  0  0  0  0  0  0  0  0  0  0
   39.3320   28.2990   43.1270 C   0  0  0  0  0  0  0  0  0  0  0  0
   38.1110   28.6770   42.6380 C   0  0  0  0  0  0  0  0  0  0  0  0
   37.3680   27.8320   41.8210 C   0  0  0  0  0  0  0  0  0  0  0  0
   39.4880   25.2850   41.7590 H   0  0  0  0  0  0  0  0  0  0  0  0
   40.7760   26.7460   43.1730 H   0  0  0  0  0  0  0  0  0  0  0  0
   39.9220   28.9500   43.7660 H   0  0  0  0  0  0  0  0  0  0  0  0
   37.7630   29.6690   42.9260 H   0  0  0  0  0  0  0  0  0  0  0  0
   35.9990   25.3460   38.5740 C   0  0  0  0  0  0  0  0  0  0  0  0
   35.6330   24.0470   38.9490 C   0  0  0  0  0  0  0  0  0  0  0  0
   36.0230   23.6110   40.2060 C   0  0  0  0  0  0  0  0  0  0  0  0
   36.7410   24.4210   41.0520 N   0  0  0  0  0  0  0  0  0  0  0  0
   37.0720   25.6930   40.6270 C   0  0  0  0  0  0  0  0  0  0  0  0
   36.6940   26.1050   39.4180 N   0  0  0  0  0  0  0  0  0  0  0  0
   35.7100   25.7170   37.5990 H   0  0  0  0  0  0  0  0  0  0  0  0
   35.0670   23.3970   38.2910 H   0  0  0  0  0  0  0  0  0  0  0  0
   35.7740   22.6100   40.5660 H   0  0  0  0  0  0  0  0  0  0  0  0
   36.1300   28.3690   41.3990 N   0  0  0  0  0  0  0  0  0  0  0  0
   35.3290   27.7200   41.6450 H   0  0  0  0  0  0  0  0  0  0  0  0
   35.7220   29.8280   40.5930 S   0  0  0  0  0  0  0  0  0  0  0  0
   34.4130   29.5970   39.8470 O   0  0  0  0  0  0  0  0  0  0  0  0
   34.2380   28.7740   39.3370 H   0  0  0  0  0  0  0  0  0  0  0  0
   35.5660   31.0090   41.4640 O   0  0  0  0  0  0  0  0  0  0  0  0
   34.7260   31.4820   41.7100 H   0  0  0  0  0  0  0  0  0  0  0  0
   36.8830   30.0510   39.3810 O   0  0  0  0  0  0  0  0  0  0  0  0
   36.6260   29.3940   38.1760 C   0  0  0  0  0  0  0  0  0  0  0  0
   37.8530   29.0630   37.7380 C   0  0  0  0  0  0  0  0  0  0  0  0
   38.9620   29.0410   37.8390 H   0  0  0  0  0  0  0  0  0  0  0  0
   37.4500   28.1780   36.1060 S   0  0  0  0  0  0  0  0  0  0  0  0
   35.5980   28.4790   36.4130 C   0  0  0  0  0  0  0  0  0  0  0  0
   34.4010   28.3910   36.1050 H   0  0  0  0  0  0  0  0  0  0  0  0
   35.6510   29.0230   37.3910 N   0  0  0  0  0  0  0  0  0  0  0  0
  1  6  2  0  0  0  0
  1  2  1  0  0  0  0
  2  3  2  0  0  0  0
  3  4  1  0  0  0  0
  3  8  1  0  0  0  0
  4  9  1  0  0  0  0
  5 10  1  0  0  0  0
  5  4  2  0  0  0  0
  6  5  1  0  0  0  0
  7  2  1  0  0  0  0
 11 12  2  0  0  0  0
 11 16  1  0  0  0  0
 12 13  1  0  0  0  0
 13 19  1  0  0  0  0
 13 14  2  0  0  0  0
 15 14  1  0  0  0  0
 15  1  1  0  0  0  0
 16 15  2  0  0  0  0
 17 11  1  0  0  0  0
 18 12  1  0  0  0  0
 20 21  1  0  0  0  0
 20  6  1  0  0  0  0
 22 20  1  0  0  0  0
 22 25  1  0  0  0  0
 23 22  1  0  0  0  0
 24 23  1  0  0  0  0
 25 26  1  0  0  0  0
 27 22  1  0  0  0  0
 28 27  1  0  0  0  0
 29 30  1  0  0  0  0
 29 28  2  0  0  0  0
 31 32  1  0  0  0  0
 31 29  1  0  0  0  0
 32 34  2  0  0  0  0
 33 32  1  0  0  0  0
 34 28  1  0  0  0  0
M  END
>  <minimizedAffinity>
-5.16381741

$$$$

 OpenBabel03242515113D

 34 36  0  0  0  0  0  0  0  0999 V2000
   35.4900   29.2320   38.1960 C   0  0  0  0  0  0  0  0  0  0  0  0
   34.2310   28.7370   37.9440 C   0  0  0  0  0  0  0  0  0  0  0  0
   33.6770   28.6150   36.6910 C   0  0  0  0  0  0  0  0  0  0  0  0
   34.4090   29.0040   35.6110 C   0  0  0  0  0  0  0  0  0  0  0  0
   35.6680   29.5020   35.8140 C   0  0  0  0  0  0  0  0  0  0  0  0
   36.2010   29.6150   37.0930 C   0  0  0  0  0  0  0  0  0  0  0  0
   33.6080   28.4140   38.7720 H   0  0  0  0  0  0  0  0  0  0  0  0
   32.6810   28.2180   36.5600 H   0  0  0  0  0  0  0  0  0  0  0  0
   33.9810   28.9110   34.6170 H   0  0  0  0  0  0  0  0  0  0  0  0
   36.2170   29.8000   34.9200 H   0  0  0  0  0  0  0  0  0  0  0  0
   36.7300   28.2350   41.4800 C   0  0  0  0  0  0  0  0  0  0  0  0
   37.0430   29.4530   42.0970 C   0  0  0  0  0  0  0  0  0  0  0  0
   36.8210   30.6130   41.3710 C   0  0  0  0  0  0  0  0  0  0  0  0
   36.3150   30.5700   40.0950 N   0  0  0  0  0  0  0  0  0  0  0  0
   36.0250   29.3390   39.5390 C   0  0  0  0  0  0  0  0  0  0  0  0
   36.2410   28.2280   40.2430 N   0  0  0  0  0  0  0  0  0  0  0  0
   36.8920   27.3110   42.0210 H   0  0  0  0  0  0  0  0  0  0  0  0
   37.4430   29.5010   43.1030 H   0  0  0  0  0  0  0  0  0  0  0  0
   37.0410   31.5980   41.7870 H   0  0  0  0  0  0  0  0  0  0  0  0
   37.5110   30.1480   37.1330 N   0  0  0  0  0  0  0  0  0  0  0  0
   38.2370   29.3770   37.1020 H   0  0  0  0  0  0  0  0  0  0  0  0
   38.0960   31.7580   37.2200 S   0  0  0  0  0  0  0  0  0  0  0  0
   38.0210   32.3560   35.8210 O   0  0  0  0  0  0  0  0  0  0  0  0
   38.2940   31.8540   35.0200 H   0  0  0  0  0  0  0  0  0  0  0  0
   37.3720   32.6450   38.1510 O   0  0  0  0  0  0  0  0  0  0  0  0
   36.7600   33.3970   37.9290 H   0  0  0  0  0  0  0  0  0  0  0  0
   39.7510   31.6530   37.5640 O   0  0  0  0  0  0  0  0  0  0  0  0
   40.2110   32.5090   38.5670 C   0  0  0  0  0  0  0  0  0  0  0  0
   41.5190   32.6350   38.2880 C   0  0  0  0  0  0  0  0  0  0  0  0
   42.4210   32.4120   37.6740 H   0  0  0  0  0  0  0  0  0  0  0  0
   42.0940   33.8000   39.6730 S   0  0  0  0  0  0  0  0  0  0  0  0
   40.3190   33.8510   40.3530 C   0  0  0  0  0  0  0  0  0  0  0  0
   39.4580   34.2260   41.1610 H   0  0  0  0  0  0  0  0  0  0  0  0
   39.8110   33.1780   39.6140 N   0  0  0  0  0  0  0  0  0  0  0  0
  1 15  1  0  0  0  0
  2  1  1  0  0  0  0
  2  7  1  0  0  0  0
  3  2  2  0  0  0  0
  4  5  2  0  0  0  0
  4  3  1  0  0  0  0
  5  6  1  0  0  0  0
  6 20  1  0  0  0  0
  6  1  2  0  0  0  0
  8  3  1  0  0  0  0
  9  4  1  0  0  0  0
 10  5  1  0  0  0  0
 11 17  1  0  0  0  0
 11 12  1  0  0  0  0
 12 18  1  0  0  0  0
 13 19  1  0  0  0  0
 13 12  2  0  0  0  0
 14 13  1  0  0  0  0
 15 14  2  0  0  0  0
 15 16  1  0  0  0  0
 16 11  2  0  0  0  0
 20 22  1  0  0  0  0
 21 20  1  0  0  0  0
 22 27  1  0  0  0  0
 22 25  1  0  0  0  0
 23 22  1  0  0  0  0
 24 23  1  0  0  0  0
 26 25  1  0  0  0  0
 27 28  1  0  0  0  0
 28 34  1  0  0  0  0
 29 28  2  0  0  0  0
 29 31  1  0  0  0  0
 30 29  1  0  0  0  0
 31 32  1  0  0  0  0
 32 33  1  0  0  0  0
 34 32  2  0  0  0  0
M  END
>  <minimizedAffinity>
-5.13394022

$$$$

 OpenBabel03242515113D

 34 36  0  0  0  0  0  0  0  0999 V2000
   37.4890   29.5290   41.1810 C   0  0  0  0  0  0  0  0  0  0  0  0
   36.7070   28.4010   41.2750 C   0  0  0  0  0  0  0  0  0  0  0  0
   36.6530   27.5780   42.3770 C   0  0  0  0  0  0  0  0  0  0  0  0
   37.4180   27.8850   43.4610 C   0  0  0  0  0  0  0  0  0  0  0  0
   38.2110   29.0000   43.4110 C   0  0  0  0  0  0  0  0  0  0  0  0
   38.2460   29.8110   42.2840 C   0  0  0  0  0  0  0  0  0  0  0  0
   36.0790   28.1140   40.4370 H   0  0  0  0  0  0  0  0  0  0  0  0
   36.0170   26.7060   42.3880 H   0  0  0  0  0  0  0  0  0  0  0  0
   37.3820   27.2430   44.3350 H   0  0  0  0  0  0  0  0  0  0  0  0
   38.8050   29.2060   44.3020 H   0  0  0  0  0  0  0  0  0  0  0  0
   37.9520   30.5240   37.7000 C   0  0  0  0  0  0  0  0  0  0  0  0
   37.5700   31.8720   37.6910 C   0  0  0  0  0  0  0  0  0  0  0  0
   37.1560   32.4280   38.8910 C   0  0  0  0  0  0  0  0  0  0  0  0
   37.1190   31.6850   40.0460 N   0  0  0  0  0  0  0  0  0  0  0  0
   37.5070   30.3610   39.9940 C   0  0  0  0  0  0  0  0  0  0  0  0
   37.9050   29.8330   38.8370 N   0  0  0  0  0  0  0  0  0  0  0  0
   38.2810   30.0600   36.7790 H   0  0  0  0  0  0  0  0  0  0  0  0
   37.5950   32.4690   36.7860 H   0  0  0  0  0  0  0  0  0  0  0  0
   36.8440   33.4720   38.9590 H   0  0  0  0  0  0  0  0  0  0  0  0
   39.1150   30.9220   42.3920 N   0  0  0  0  0  0  0  0  0  0  0  0
   38.7680   31.6090   43.1200 H   0  0  0  0  0  0  0  0  0  0  0  0
   40.5710   31.3280   41.5800 S   0  0  0  0  0  0  0  0  0  0  0  0
   41.6020   31.7070   42.6360 O   0  0  0  0  0  0  0  0  0  0  0  0
   41.3790   32.2780   43.4050 H   0  0  0  0  0  0  0  0  0  0  0  0
   41.1380   30.2630   40.7290 O   0  0  0  0  0  0  0  0  0  0  0  0
   41.9540   29.7170   40.8930 H   0  0  0  0  0  0  0  0  0  0  0  0
   40.2670   32.7590   40.7290 O   0  0  0  0  0  0  0  0  0  0  0  0
   40.8780   32.8530   39.4760 C   0  0  0  0  0  0  0  0  0  0  0  0
   41.4620   34.0620   39.5080 C   0  0  0  0  0  0  0  0  0  0  0  0
   41.7110   35.0220   40.0140 H   0  0  0  0  0  0  0  0  0  0  0  0
   42.2730   34.1410   37.7920 S   0  0  0  0  0  0  0  0  0  0  0  0
   41.5900   32.4090   37.4030 C   0  0  0  0  0  0  0  0  0  0  0  0
   41.4330   31.4260   36.6640 H   0  0  0  0  0  0  0  0  0  0  0  0
   41.0520   32.1950   38.3620 N   0  0  0  0  0  0  0  0  0  0  0  0
  1  2  2  0  0  0  0
  1  6  1  0  0  0  0
  2  3  1  0  0  0  0
  3  8  1  0  0  0  0
  3  4  2  0  0  0  0
  4  9  1  0  0  0  0
  5  4  1  0  0  0  0
  5 10  1  0  0  0  0
  6 20  1  0  0  0  0
  6  5  2  0  0  0  0
  7  2  1  0  0  0  0
 11 16  1  0  0  0  0
 12 11  2  0  0  0  0
 12 13  1  0  0  0  0
 13 19  1  0  0  0  0
 13 14  2  0  0  0  0
 15 14  1  0  0  0  0
 15  1  1  0  0  0  0
 16 15  2  0  0  0  0
 17 11  1  0  0  0  0
 18 12  1  0  0  0  0
 20 21  1  0  0  0  0
 22 20  1  0  0  0  0
 22 23  1  0  0  0  0
 23 24  1  0  0  0  0
 25 26  1  0  0  0  0
 25 22  1  0  0  0  0
 27 22  1  0  0  0  0
 28 29  2  0  0  0  0
 28 27  1  0  0  0  0
 29 30  1  0  0  0  0
 31 29  1  0  0  0  0
 32 31  1  0  0  0  0
 32 34  2  0  0  0  0
 33 32  1  0  0  0  0
 34 28  1  0  0  0  0
M  END
>  <minimizedAffinity>
-5.10594034

$$$$
