
 OpenBabel03242520123D

 32 34  0  0  0  0  0  0  0  0999 V2000
   46.1770   32.5720   46.9840 C   0  0  0  0  0  0  0  0  0  0  0  0
   45.2320   32.5400   47.9510 C   0  0  0  0  0  0  0  0  0  0  0  0
   45.4400   31.7440   49.0620 C   0  0  0  0  0  0  0  0  0  0  0  0
   46.5990   30.9930   49.1760 C   0  0  0  0  0  0  0  0  0  0  0  0
   47.5540   31.0570   48.1470 C   0  0  0  0  0  0  0  0  0  0  0  0
   47.3150   31.8240   47.1140 N   0  0  0  0  0  0  0  0  0  0  0  0
   44.3330   33.1380   47.8370 H   0  0  0  0  0  0  0  0  0  0  0  0
   44.7030   31.6950   49.8580 H   0  0  0  0  0  0  0  0  0  0  0  0
   46.8260   30.3470   50.0230 H   0  0  0  0  0  0  0  0  0  0  0  0
   44.9500   35.0060   44.5500 C   0  0  0  0  0  0  0  0  0  0  0  0
   45.9070   34.8730   43.5290 C   0  0  0  0  0  0  0  0  0  0  0  0
   46.9660   33.9630   43.6470 C   0  0  0  0  0  0  0  0  0  0  0  0
   46.9500   33.2770   44.7930 N   0  0  0  0  0  0  0  0  0  0  0  0
   46.0650   33.3850   45.7650 C   0  0  0  0  0  0  0  0  0  0  0  0
   45.0590   34.2530   45.6460 N   0  0  0  0  0  0  0  0  0  0  0  0
   43.8900   35.9440   44.3660 N   0  0  0  0  0  0  0  0  0  0  0  0
   45.8410   35.4790   42.6210 H   0  0  0  0  0  0  0  0  0  0  0  0
   47.7100   33.8440   42.8740 H   0  0  0  0  0  0  0  0  0  0  0  0
   43.9810   36.9690   44.2820 H   0  0  0  0  0  0  0  0  0  0  0  0
   42.9830   35.4270   44.3280 H   0  0  0  0  0  0  0  0  0  0  0  0
   48.7770   30.2870   48.2340 C   0  0  0  0  0  0  0  0  0  0  0  0
   49.8400   30.6790   48.9310 C   0  0  0  0  0  0  0  0  0  0  0  0
   49.8550   31.9660   49.6900 C   0  0  0  0  0  0  0  0  0  0  0  0
   49.2540   32.7420   49.2090 H   0  0  0  0  0  0  0  0  0  0  0  0
   49.3830   31.7780   50.6960 H   0  0  0  0  0  0  0  0  0  0  0  0
   51.2730   32.3760   49.8590 C   0  0  0  0  0  0  0  0  0  0  0  0
   52.3300   31.6360   49.2210 C   0  0  0  0  0  0  0  0  0  0  0  0
   52.1560   30.7390   48.5790 H   0  0  0  0  0  0  0  0  0  0  0  0
   53.8650   32.5670   49.7630 S   0  0  0  0  0  0  0  0  0  0  0  0
   52.7570   33.7620   50.7390 C   0  0  0  0  0  0  0  0  0  0  0  0
   53.0450   34.6980   51.3990 H   0  0  0  0  0  0  0  0  0  0  0  0
   51.7080   33.3980   50.5680 N   0  0  0  0  0  0  0  0  0  0  0  0
  1  6  2  0  0  0  0
  1  2  1  0  0  0  0
  2  3  2  0  0  0  0
  3  4  1  0  0  0  0
  3  8  1  0  0  0  0
  4  9  1  0  0  0  0
  5 21  1  0  0  0  0
  5  4  2  0  0  0  0
  6  5  1  0  0  0  0
  7  2  1  0  0  0  0
 10 15  1  0  0  0  0
 11 12  1  0  0  0  0
 11 10  2  0  0  0  0
 12 13  2  0  0  0  0
 13 14  1  0  0  0  0
 14  1  1  0  0  0  0
 15 14  2  0  0  0  0
 16 10  1  0  0  0  0
 17 11  1  0  0  0  0
 18 12  1  0  0  0  0
 19 16  1  0  0  0  0
 20 16  1  0  0  0  0
 21 22  2  0  0  0  0
 22 23  1  0  0  0  0
 23 26  1  0  0  0  0
 23 25  1  0  0  0  0
 24 23  1  0  0  0  0
 26 32  1  0  0  0  0
 27 29  1  0  0  0  0
 27 26  2  0  0  0  0
 28 27  1  0  0  0  0
 29 30  1  0  0  0  0
 30 31  1  0  0  0  0
 32 30  2  0  0  0  0
M  END
>  <minimizedAffinity>
-6.06936884

>  <minimizedRMSD>
0.852149963

$$$$
