
 OpenBabel03242523423D

 22 23  0  0  1  0  0  0  0  0999 V2000
   46.6920   35.1440   41.8840 C   0  0  2  0  0  0  0  0  0  0  0  0
   46.6590   36.2060   41.5390 H   0  0  0  0  0  0  0  0  0  0  0  0
   45.1140   36.1090   43.5380 C   0  0  0  0  0  0  0  0  0  0  0  0
   46.0010   35.0940   43.1810 C   0  0  0  0  0  0  0  0  0  0  0  0
   46.2170   34.0240   44.0920 C   0  0  0  0  0  0  0  0  0  0  0  0
   45.5340   34.0650   45.2710 N   0  0  0  0  0  0  0  0  0  0  0  0
   44.6950   35.0600   45.5700 C   0  0  0  0  0  0  0  0  0  0  0  0
   44.4930   36.0630   44.7090 N   0  0  0  0  0  0  0  0  0  0  0  0
   44.8950   36.9540   42.9030 H   0  0  0  0  0  0  0  0  0  0  0  0
   46.8950   33.2210   43.8480 H   0  0  0  0  0  0  0  0  0  0  0  0
   44.1610   35.0680   46.5200 H   0  0  0  0  0  0  0  0  0  0  0  0
   46.1120   34.2410   40.8550 C   0  0  0  0  0  0  0  0  0  0  0  0
   46.9990   33.4370   40.0070 C   0  0  0  0  0  0  0  0  0  0  0  0
   48.0400   33.4370   40.0570 H   0  0  0  0  0  0  0  0  0  0  0  0
   45.8300   32.5500   38.9680 S   0  0  0  0  0  0  0  0  0  0  0  0
   44.3310   33.3840   39.8200 C   0  0  0  0  0  0  0  0  0  0  0  0
   43.3020   33.1750   39.5390 H   0  0  0  0  0  0  0  0  0  0  0  0
   44.8210   34.0920   40.6280 N   0  0  0  0  0  0  0  0  0  0  0  0
   48.1590   34.8540   42.1180 C   0  0  0  0  0  0  0  0  0  0  0  0
   48.8110   35.7490   41.9600 H   0  0  0  0  0  0  0  0  0  0  0  0
   48.4710   34.1390   41.3000 H   0  0  0  0  0  0  0  0  0  0  0  0
   48.2820   34.4110   43.1090 H   0  0  0  0  0  0  0  0  0  0  0  0
  1  2  1  6  0  0  0
  1 19  1  0  0  0  0
  1  4  1  0  0  0  0
  3  8  1  0  0  0  0
  4  3  2  0  0  0  0
  4  5  1  0  0  0  0
  5  6  2  0  0  0  0
  6  7  1  0  0  0  0
  7 11  1  0  0  0  0
  8  7  2  0  0  0  0
  9  3  1  0  0  0  0
 10  5  1  0  0  0  0
 12  1  1  0  0  0  0
 13 14  1  0  0  0  0
 13 12  2  0  0  0  0
 15 16  1  0  0  0  0
 15 13  1  0  0  0  0
 16 18  2  0  0  0  0
 17 16  1  0  0  0  0
 18 12  1  0  0  0  0
 19 22  1  0  0  0  0
 20 19  1  0  0  0  0
 21 19  1  0  0  0  0
M  END
>  <minimizedAffinity>
-3.95409775

>  <minimizedRMSD>
1.04342246

$$$$
