
 OpenBabel03252505513D

 23 24  0  0  0  0  0  0  0  0999 V2000
   44.7200   35.3920   45.0320 C   0  0  0  0  0  0  0  0  0  0  0  0
   45.5990   34.9350   44.0530 C   0  0  0  0  0  0  0  0  0  0  0  0
   46.3430   33.7930   44.3300 C   0  0  0  0  0  0  0  0  0  0  0  0
   46.1850   33.1830   45.5180 N   0  0  0  0  0  0  0  0  0  0  0  0
   45.3350   33.6400   46.4420 C   0  0  0  0  0  0  0  0  0  0  0  0
   44.5880   34.7450   46.2250 N   0  0  0  0  0  0  0  0  0  0  0  0
   44.1080   36.2730   44.8900 H   0  0  0  0  0  0  0  0  0  0  0  0
   47.0150   33.4680   43.5450 H   0  0  0  0  0  0  0  0  0  0  0  0
   45.6610   35.7260   42.7730 C   0  0  0  0  0  0  0  0  0  0  0  0
   45.2360   36.9840   43.0840 F   0  0  0  0  0  0  0  0  0  0  0  0
   44.7580   35.1180   41.9040 F   0  0  0  0  0  0  0  0  0  0  0  0
   46.9440   35.6640   42.3020 F   0  0  0  0  0  0  0  0  0  0  0  0
   45.1520   33.0360   47.6690 O   0  0  0  0  0  0  0  0  0  0  0  0
   46.1760   32.3580   48.3490 C   0  0  0  0  0  0  0  0  0  0  0  0
   47.1620   32.8500   48.2200 H   0  0  0  0  0  0  0  0  0  0  0  0
   45.9760   32.4040   49.4390 H   0  0  0  0  0  0  0  0  0  0  0  0
   46.2330   30.8930   47.9960 C   0  0  0  0  0  0  0  0  0  0  0  0
   47.4060   30.2670   47.5080 C   0  0  0  0  0  0  0  0  0  0  0  0
   48.3740   30.6680   47.3170 H   0  0  0  0  0  0  0  0  0  0  0  0
   46.8860   28.5480   47.2640 S   0  0  0  0  0  0  0  0  0  0  0  0
   45.1320   28.9560   47.8720 C   0  0  0  0  0  0  0  0  0  0  0  0
   44.0920   28.3600   48.0390 H   0  0  0  0  0  0  0  0  0  0  0  0
   45.2190   30.0530   48.0990 N   0  0  0  0  0  0  0  0  0  0  0  0
  1  6  1  0  0  0  0
  2  3  1  0  0  0  0
  2  1  2  0  0  0  0
  3  4  2  0  0  0  0
  4  5  1  0  0  0  0
  5 13  1  0  0  0  0
  6  5  2  0  0  0  0
  7  1  1  0  0  0  0
  8  3  1  0  0  0  0
  9 10  1  0  0  0  0
  9  2  1  0  0  0  0
 11  9  1  0  0  0  0
 12  9  1  0  0  0  0
 13 14  1  0  0  0  0
 14 16  1  0  0  0  0
 15 14  1  0  0  0  0
 17 23  1  0  0  0  0
 17 14  1  0  0  0  0
 18 17  2  0  0  0  0
 19 18  1  0  0  0  0
 20 18  1  0  0  0  0
 20 21  1  0  0  0  0
 21 22  1  0  0  0  0
 21 23  2  0  0  0  0
M  END
>  <minimizedAffinity>
-4.64076996

>  <minimizedRMSD>
0.660210788

$$$$
