
 OpenBabel03242513373D

 32 35  0  0  0  0  0  0  0  0999 V2000
   47.3820   30.8830   45.6860 C   0  0  0  0  0  0  0  0  0  0  0  0
   47.0110   32.1580   45.3560 C   0  0  0  0  0  0  0  0  0  0  0  0
   46.3670   32.8960   46.3070 C   0  0  0  0  0  0  0  0  0  0  0  0
   46.0810   32.4130   47.5690 C   0  0  0  0  0  0  0  0  0  0  0  0
   45.4800   32.8640   48.6990 N   0  0  0  0  0  0  0  0  0  0  0  0
   45.4880   31.9200   49.6560 C   0  0  0  0  0  0  0  0  0  0  0  0
   46.1040   30.8660   49.1050 N   0  0  0  0  0  0  0  0  0  0  0  0
   46.4760   31.1290   47.8410 C   0  0  0  0  0  0  0  0  0  0  0  0
   47.1220   30.3340   46.9460 C   0  0  0  0  0  0  0  0  0  0  0  0
   47.8960   30.2430   44.9790 H   0  0  0  0  0  0  0  0  0  0  0  0
   46.0630   33.9020   46.0780 H   0  0  0  0  0  0  0  0  0  0  0  0
   45.0910   33.8390   48.7280 H   0  0  0  0  0  0  0  0  0  0  0  0
   45.0790   32.0150   50.6430 H   0  0  0  0  0  0  0  0  0  0  0  0
   47.2980   34.4590   42.5270 C   0  0  0  0  0  0  0  0  0  0  0  0
   47.8610   33.6550   41.5380 C   0  0  0  0  0  0  0  0  0  0  0  0
   48.1310   32.3350   41.8630 C   0  0  0  0  0  0  0  0  0  0  0  0
   47.8440   31.8790   43.1120 N   0  0  0  0  0  0  0  0  0  0  0  0
   47.3000   32.6890   44.0400 C   0  0  0  0  0  0  0  0  0  0  0  0
   47.0240   33.9750   43.7590 N   0  0  0  0  0  0  0  0  0  0  0  0
   47.0440   35.5050   42.3880 H   0  0  0  0  0  0  0  0  0  0  0  0
   48.5680   31.7150   41.0910 H   0  0  0  0  0  0  0  0  0  0  0  0
   48.1250   34.2790   40.2160 C   0  0  0  0  0  0  0  0  0  0  0  0
   48.6380   35.5400   40.4880 F   0  0  0  0  0  0  0  0  0  0  0  0
   46.9440   34.3720   39.5340 F   0  0  0  0  0  0  0  0  0  0  0  0
   49.0440   33.4840   39.5390 F   0  0  0  0  0  0  0  0  0  0  0  0
   47.5520   28.9440   47.2350 C   0  0  0  0  0  0  0  0  0  0  0  0
   46.7200   27.9040   46.9550 C   0  0  0  0  0  0  0  0  0  0  0  0
   45.7480   27.7410   46.5480 H   0  0  0  0  0  0  0  0  0  0  0  0
   47.6680   26.4070   47.4750 S   0  0  0  0  0  0  0  0  0  0  0  0
   49.1060   27.5300   48.0100 C   0  0  0  0  0  0  0  0  0  0  0  0
   50.2730   27.5560   48.5110 H   0  0  0  0  0  0  0  0  0  0  0  0
   48.7020   28.5700   47.7580 N   0  0  0  0  0  0  0  0  0  0  0  0
  1  9  1  0  0  0  0
  2  1  2  0  0  0  0
  2  3  1  0  0  0  0
  3  4  2  0  0  0  0
  4  8  1  0  0  0  0
  4  5  1  0  0  0  0
  5 12  1  0  0  0  0
  5  6  1  0  0  0  0
  6 13  1  0  0  0  0
  7  6  2  0  0  0  0
  8  7  1  0  0  0  0
  9 26  1  0  0  0  0
  9  8  2  0  0  0  0
 10  1  1  0  0  0  0
 11  3  1  0  0  0  0
 14 19  1  0  0  0  0
 15 16  1  0  0  0  0
 15 14  2  0  0  0  0
 16 17  2  0  0  0  0
 17 18  1  0  0  0  0
 18  2  1  0  0  0  0
 19 18  2  0  0  0  0
 20 14  1  0  0  0  0
 21 16  1  0  0  0  0
 22 23  1  0  0  0  0
 22 15  1  0  0  0  0
 24 22  1  0  0  0  0
 25 22  1  0  0  0  0
 26 32  1  0  0  0  0
 27 26  2  0  0  0  0
 27 29  1  0  0  0  0
 28 27  1  0  0  0  0
 29 30  1  0  0  0  0
 30 31  1  0  0  0  0
 32 30  2  0  0  0  0
M  END
>  <minimizedAffinity>
-5.64636612

>  <minimizedRMSD>
0.709323943

$$$$
