
 OpenBabel03252508593D

 43 45  0  0  1  0  0  0  0  0999 V2000
   46.6790   34.5130   43.5820 N   0  0  0  0  0  0  0  0  0  0  0  0
   46.2220   35.5530   42.7290 C   0  0  0  0  0  0  0  0  0  0  0  0
   44.7230   35.7520   42.7110 C   0  0  0  0  0  0  0  0  0  0  0  0
   44.0270   35.4430   44.0090 C   0  0  0  0  0  0  0  0  0  0  0  0
   45.0270   35.1270   45.0980 C   0  0  0  0  0  0  0  0  0  0  0  0
   45.8330   33.9160   44.5020 C   0  0  2  0  0  0  0  0  0  0  0  0
   46.5550   35.4960   41.6870 H   0  0  0  0  0  0  0  0  0  0  0  0
   46.6770   36.4980   43.1370 H   0  0  0  0  0  0  0  0  0  0  0  0
   44.2610   35.1950   41.8550 H   0  0  0  0  0  0  0  0  0  0  0  0
   44.5260   36.8230   42.4900 H   0  0  0  0  0  0  0  0  0  0  0  0
   43.4400   34.5140   43.8470 H   0  0  0  0  0  0  0  0  0  0  0  0
   43.3080   36.2280   44.2970 H   0  0  0  0  0  0  0  0  0  0  0  0
   45.6830   35.9970   45.2040 H   0  0  0  0  0  0  0  0  0  0  0  0
   44.5120   34.8050   46.0070 H   0  0  0  0  0  0  0  0  0  0  0  0
   45.0780   33.2040   44.1090 H   0  0  0  0  0  0  0  0  0  0  0  0
   47.7660   33.7490   43.0480 C   0  0  0  0  0  0  0  0  0  0  0  0
   48.3740   33.3180   43.8700 H   0  0  0  0  0  0  0  0  0  0  0  0
   48.4210   34.4470   42.4750 H   0  0  0  0  0  0  0  0  0  0  0  0
   47.2170   32.6690   42.1720 C   0  0  0  0  0  0  0  0  0  0  0  0
   47.3900   31.6570   42.5460 H   0  0  0  0  0  0  0  0  0  0  0  0
   46.1050   32.7930   42.0470 H   0  0  0  0  0  0  0  0  0  0  0  0
   49.3330   32.1290   39.1130 C   0  0  0  0  0  0  0  0  0  0  0  0
   48.7970   31.9890   40.4070 C   0  0  0  0  0  0  0  0  0  0  0  0
   47.7780   32.8240   40.8040 C   0  0  0  0  0  0  0  0  0  0  0  0
   47.3420   33.7410   39.9240 N   0  0  0  0  0  0  0  0  0  0  0  0
   47.8610   33.8660   38.6920 C   0  0  0  0  0  0  0  0  0  0  0  0
   48.8570   33.0660   38.2730 N   0  0  0  0  0  0  0  0  0  0  0  0
   50.1410   31.4590   38.8120 H   0  0  0  0  0  0  0  0  0  0  0  0
   49.2250   31.2160   41.0310 H   0  0  0  0  0  0  0  0  0  0  0  0
   47.3750   34.6590   38.1400 H   0  0  0  0  0  0  0  0  0  0  0  0
   46.5200   33.4590   45.6160 O   0  0  0  0  0  0  0  0  0  0  0  0
   45.5870   31.1220   44.7580 O   0  0  0  0  0  0  0  0  0  0  0  0
   46.2090   31.8440   45.9590 P   0  0  2  0  0  0  0  0  0  0  0  0
   44.9840   31.8400   47.1530 O   0  0  0  0  0  0  0  0  0  0  0  0
   45.1610   32.5530   47.8100 H   0  0  0  0  0  0  0  0  0  0  0  0
   47.5330   31.0580   46.5760 O   0  0  0  0  0  0  0  0  0  0  0  0
   47.5910   29.7110   46.8980 C   0  0  0  0  0  0  0  0  0  0  0  0
   48.7740   28.8830   46.9530 C   0  0  0  0  0  0  0  0  0  0  0  0
   49.7480   29.4250   46.6990 H   0  0  0  0  0  0  0  0  0  0  0  0
   48.0260   27.2190   47.4550 S   0  0  0  0  0  0  0  0  0  0  0  0
   46.2930   27.9930   47.4820 C   0  0  0  0  0  0  0  0  0  0  0  0
   45.4750   27.3110   47.7510 H   0  0  0  0  0  0  0  0  0  0  0  0
   46.4300   29.1300   47.1870 N   0  0  0  0  0  0  0  0  0  0  0  0
  1  6  1  0  0  0  0
  2  8  1  0  0  0  0
  2  1  1  0  0  0  0
  3  2  1  0  0  0  0
  3  4  1  0  0  0  0
  4 12  1  0  0  0  0
  4  5  1  0  0  0  0
  5 13  1  0  0  0  0
  5 14  1  0  0  0  0
  6 15  1  6  0  0  0
  6  5  1  0  0  0  0
  6 31  1  0  0  0  0
  7  2  1  0  0  0  0
  9  3  1  0  0  0  0
 10  3  1  0  0  0  0
 11  4  1  0  0  0  0
 16  1  1  0  0  0  0
 16 17  1  0  0  0  0
 18 16  1  0  0  0  0
 19 20  1  0  0  0  0
 19 16  1  0  0  0  0
 21 19  1  0  0  0  0
 22 23  1  0  0  0  0
 23 24  2  0  0  0  0
 23 29  1  0  0  0  0
 24 19  1  0  0  0  0
 25 24  1  0  0  0  0
 26 25  2  0  0  0  0
 27 26  1  0  0  0  0
 27 22  2  0  0  0  0
 28 22  1  0  0  0  0
 30 26  1  0  0  0  0
 31 33  1  0  0  0  0
 33 32  2  6  0  0  0
 33 36  1  0  0  0  0
 33 34  1  0  0  0  0
 34 35  1  0  0  0  0
 36 37  1  0  0  0  0
 37 38  2  0  0  0  0
 37 43  1  0  0  0  0
 38 40  1  0  0  0  0
 39 38  1  0  0  0  0
 40 41  1  0  0  0  0
 41 42  1  0  0  0  0
 43 41  2  0  0  0  0
M  END
>  <minimizedAffinity>
-4.20836926

>  <minimizedRMSD>
1.00518107

$$$$
