
 OpenBabel03242510463D

 19 20  0  0  0  0  0  0  0  0999 V2000
   48.9830   34.0420   41.9130 C   0  0  0  0  0  0  0  0  0  0  0  0
   48.0990   33.3810   42.7730 C   0  0  0  0  0  0  0  0  0  0  0  0
   48.3870   32.0600   43.1410 C   0  0  0  0  0  0  0  0  0  0  0  0
   49.5210   31.4930   42.6340 N   0  0  0  0  0  0  0  0  0  0  0  0
   50.3550   32.1450   41.8120 C   0  0  0  0  0  0  0  0  0  0  0  0
   50.0860   33.4050   41.4580 N   0  0  0  0  0  0  0  0  0  0  0  0
   47.2050   33.8340   43.1690 H   0  0  0  0  0  0  0  0  0  0  0  0
   47.7420   31.5010   43.8000 H   0  0  0  0  0  0  0  0  0  0  0  0
   51.5410   31.4460   41.3270 C   0  0  0  0  0  0  0  0  0  0  0  0
   51.7570   30.3550   42.1780 C   0  0  0  0  0  0  0  0  0  0  0  0
   51.4670   29.7250   43.0760 H   0  0  0  0  0  0  0  0  0  0  0  0
   53.3140   29.5410   41.4420 S   0  0  0  0  0  0  0  0  0  0  0  0
   53.3350   30.9000   40.1000 C   0  0  0  0  0  0  0  0  0  0  0  0
   53.8880   31.3450   39.1230 H   0  0  0  0  0  0  0  0  0  0  0  0
   52.4490   31.5240   40.3620 N   0  0  0  0  0  0  0  0  0  0  0  0
   48.6400   35.4530   41.5440 C   0  0  0  0  0  0  0  0  0  0  0  0
   49.5870   36.3360   42.0340 F   0  0  0  0  0  0  0  0  0  0  0  0
   48.5600   35.5250   40.1710 F   0  0  0  0  0  0  0  0  0  0  0  0
   47.3790   35.7580   42.0470 F   0  0  0  0  0  0  0  0  0  0  0  0
  1  2  1  0  0  0  0
  2  3  2  0  0  0  0
  2  7  1  0  0  0  0
  3  8  1  0  0  0  0
  4  3  1  0  0  0  0
  5  4  2  0  0  0  0
  6  5  1  0  0  0  0
  6  1  2  0  0  0  0
  9  5  1  0  0  0  0
  9 10  2  0  0  0  0
 10 11  1  0  0  0  0
 12 10  1  0  0  0  0
 13 15  2  0  0  0  0
 13 12  1  0  0  0  0
 14 13  1  0  0  0  0
 15  9  1  0  0  0  0
 16  1  1  0  0  0  0
 16 17  1  0  0  0  0
 16 19  1  0  0  0  0
 18 16  1  0  0  0  0
M  END
>  <minimizedAffinity>
-3.98794246

>  <minimizedRMSD>
7.0225935

$$$$
