
 OpenBabel03252505433D

 40 43  0  0  1  0  0  0  0  0999 V2000
   42.6820   34.8140   40.3070 C   0  0  0  0  0  0  0  0  0  0  0  0
   42.5220   35.1550   38.9820 C   0  0  0  0  0  0  0  0  0  0  0  0
   41.3270   35.0360   38.3250 C   0  0  0  0  0  0  0  0  0  0  0  0
   40.2750   34.5630   39.0180 N   0  0  0  0  0  0  0  0  0  0  0  0
   40.4070   34.2160   40.3320 C   0  0  0  0  0  0  0  0  0  0  0  0
   41.5900   34.3370   40.9790 N   0  0  0  0  0  0  0  0  0  0  0  0
   43.4050   35.5300   38.4770 H   0  0  0  0  0  0  0  0  0  0  0  0
   41.2120   35.3080   37.2830 H   0  0  0  0  0  0  0  0  0  0  0  0
   43.9900   34.6460   42.3990 C   0  0  1  0  0  0  0  0  0  0  0  0
   44.1890   36.1320   41.9300 C   0  0  0  0  0  0  0  0  0  0  0  0
   44.0230   34.9360   40.9950 C   0  0  2  0  0  0  0  0  0  0  0  0
   43.0040   34.4920   42.9340 H   0  0  0  0  0  0  0  0  0  0  0  0
   45.2030   36.5280   42.0300 H   0  0  0  0  0  0  0  0  0  0  0  0
   43.3080   36.7830   42.0040 H   0  0  0  0  0  0  0  0  0  0  0  0
   44.8380   34.7940   40.2830 H   0  0  0  0  0  0  0  0  0  0  0  0
   45.1320   34.1080   43.1660 C   0  0  0  0  0  0  0  0  0  0  0  0
   46.3820   34.0430   42.5150 C   0  0  0  0  0  0  0  0  0  0  0  0
   47.4700   33.5440   43.2190 C   0  0  0  0  0  0  0  0  0  0  0  0
   47.2750   33.1440   44.5000 N   0  0  0  0  0  0  0  0  0  0  0  0
   46.0790   33.2190   45.0870 C   0  0  0  0  0  0  0  0  0  0  0  0
   45.0450   33.7020   44.3960 N   0  0  0  0  0  0  0  0  0  0  0  0
   46.4980   34.3690   41.5010 H   0  0  0  0  0  0  0  0  0  0  0  0
   48.4480   33.4820   42.7390 H   0  0  0  0  0  0  0  0  0  0  0  0
   46.0650   32.7340   46.5080 C   0  0  0  0  0  0  0  0  0  0  0  0
   45.0940   33.3860   47.2550 F   0  0  0  0  0  0  0  0  0  0  0  0
   47.3010   33.0710   47.1100 F   0  0  0  0  0  0  0  0  0  0  0  0
   45.9720   31.3700   46.5370 F   0  0  0  0  0  0  0  0  0  0  0  0
   39.2870   33.6770   41.1440 C   0  0  0  0  0  0  0  0  0  0  0  0
   38.5900   34.4480   41.4940 H   0  0  0  0  0  0  0  0  0  0  0  0
   39.7030   33.1880   42.0710 H   0  0  0  0  0  0  0  0  0  0  0  0
   38.5710   32.5860   40.3860 C   0  0  0  0  0  0  0  0  0  0  0  0
   39.0130   32.5370   39.3800 H   0  0  0  0  0  0  0  0  0  0  0  0
   37.5060   32.9140   40.2040 H   0  0  0  0  0  0  0  0  0  0  0  0
   38.5920   31.2930   41.1310 C   0  0  0  0  0  0  0  0  0  0  0  0
   39.8520   30.8410   41.6820 C   0  0  0  0  0  0  0  0  0  0  0  0
   40.7540   31.3180   41.6200 H   0  0  0  0  0  0  0  0  0  0  0  0
   39.2770   29.2540   42.4520 S   0  0  0  0  0  0  0  0  0  0  0  0
   37.5170   29.4830   41.9100 C   0  0  0  0  0  0  0  0  0  0  0  0
   36.6300   28.8380   42.0720 H   0  0  0  0  0  0  0  0  0  0  0  0
   37.4370   30.6640   41.2190 N   0  0  0  0  0  0  0  0  0  0  0  0
  1  6  1  0  0  0  0
  1 11  1  0  0  0  0
  2  1  2  0  0  0  0
  3  2  1  0  0  0  0
  3  4  2  0  0  0  0
  4  5  1  0  0  0  0
  5  6  2  0  0  0  0
  5 28  1  0  0  0  0
  7  2  1  0  0  0  0
  8  3  1  0  0  0  0
  9 12  1  1  0  0  0
  9 16  1  0  0  0  0
 10 14  1  0  0  0  0
 10 13  1  0  0  0  0
 10  9  1  0  0  0  0
 11 15  1  6  0  0  0
 11 10  1  0  0  0  0
 11  9  1  0  0  0  0
 16 21  1  0  0  0  0
 17 16  2  0  0  0  0
 17 18  1  0  0  0  0
 18 19  2  0  0  0  0
 19 20  1  0  0  0  0
 20 24  1  0  0  0  0
 21 20  2  0  0  0  0
 22 17  1  0  0  0  0
 23 18  1  0  0  0  0
 24 27  1  0  0  0  0
 24 26  1  0  0  0  0
 24 25  1  0  0  0  0
 28 29  1  0  0  0  0
 28 30  1  0  0  0  0
 31 34  1  0  0  0  0
 31 28  1  0  0  0  0
 32 31  1  0  0  0  0
 33 31  1  0  0  0  0
 34 40  1  0  0  0  0
 34 35  2  0  0  0  0
 35 37  1  0  0  0  0
 36 35  1  0  0  0  0
 38 39  1  0  0  0  0
 38 37  1  0  0  0  0
 40 38  2  0  0  0  0
M  END
>  <minimizedAffinity>
-5.82113266

>  <minimizedRMSD>
1.46885407

$$$$
