
 OpenBabel03252506053D

 41 45  0  0  0  0  0  0  0  0999 V2000
   44.8140   35.9950   43.3250 Cl  0  0  0  0  0  0  0  0  0  0  0  0
   45.5510   34.7470   44.2600 C   0  0  0  0  0  0  0  0  0  0  0  0
   46.6610   34.0690   43.7740 C   0  0  0  0  0  0  0  0  0  0  0  0
   47.1780   33.0920   44.6020 C   0  0  0  0  0  0  0  0  0  0  0  0
   46.6660   32.7610   45.8490 C   0  0  0  0  0  0  0  0  0  0  0  0
   45.5680   33.4510   46.2980 C   0  0  0  0  0  0  0  0  0  0  0  0
   44.9580   33.0010   47.8760 Cl  0  0  0  0  0  0  0  0  0  0  0  0
   45.0180   34.4370   45.5060 C   0  0  0  0  0  0  0  0  0  0  0  0
   48.0470   32.5790   44.1950 H   0  0  0  0  0  0  0  0  0  0  0  0
   44.1540   34.9690   45.8760 H   0  0  0  0  0  0  0  0  0  0  0  0
   47.3580   31.6950   46.5740 C   0  0  0  0  0  0  0  0  0  0  0  0
   47.4660   30.4150   46.1020 C   0  0  0  0  0  0  0  0  0  0  0  0
   48.1150   29.3870   46.7650 C   0  0  0  0  0  0  0  0  0  0  0  0
   48.7000   29.6620   47.9940 C   0  0  0  0  0  0  0  0  0  0  0  0
   49.3190   28.6530   48.6120 N   0  0  0  0  0  0  0  0  0  0  0  0
   49.9230   28.8170   49.8210 C   0  0  0  0  0  0  0  0  0  0  0  0
   49.8590   30.0970   50.3770 C   0  0  0  0  0  0  0  0  0  0  0  0
   49.2160   31.1220   49.7230 C   0  0  0  0  0  0  0  0  0  0  0  0
   48.6160   30.9190   48.5010 C   0  0  0  0  0  0  0  0  0  0  0  0
   47.9580   31.9370   47.8150 C   0  0  0  0  0  0  0  0  0  0  0  0
   46.9910   30.2400   45.1280 H   0  0  0  0  0  0  0  0  0  0  0  0
   48.1480   28.4050   46.3080 H   0  0  0  0  0  0  0  0  0  0  0  0
   50.4350   28.0270   50.3550 H   0  0  0  0  0  0  0  0  0  0  0  0
   50.3190   30.3070   51.3420 H   0  0  0  0  0  0  0  0  0  0  0  0
   49.1700   32.1150   50.1630 H   0  0  0  0  0  0  0  0  0  0  0  0
   47.9250   32.9280   48.2760 H   0  0  0  0  0  0  0  0  0  0  0  0
   48.8540   35.4920   41.2500 C   0  0  0  0  0  0  0  0  0  0  0  0
   48.3590   34.9570   40.0490 C   0  0  0  0  0  0  0  0  0  0  0  0
   47.2560   34.0960   40.1180 C   0  0  0  0  0  0  0  0  0  0  0  0
   46.7610   33.8550   41.3410 N   0  0  0  0  0  0  0  0  0  0  0  0
   47.2370   34.3680   42.4810 C   0  0  0  0  0  0  0  0  0  0  0  0
   48.3040   35.2030   42.4440 N   0  0  0  0  0  0  0  0  0  0  0  0
   49.6900   36.1290   41.0690 H   0  0  0  0  0  0  0  0  0  0  0  0
   48.7780   35.1690   39.0740 H   0  0  0  0  0  0  0  0  0  0  0  0
   46.6790   33.4940   38.9420 C   0  0  0  0  0  0  0  0  0  0  0  0
   47.3790   33.4930   37.6780 C   0  0  0  0  0  0  0  0  0  0  0  0
   48.3630   33.8880   37.3950 H   0  0  0  0  0  0  0  0  0  0  0  0
   46.1460   32.6000   36.5490 S   0  0  0  0  0  0  0  0  0  0  0  0
   44.9060   32.3840   37.9700 C   0  0  0  0  0  0  0  0  0  0  0  0
   43.9470   31.9140   37.9300 H   0  0  0  0  0  0  0  0  0  0  0  0
   45.6520   32.9010   38.5680 N   0  0  0  0  0  0  0  0  0  0  0  0
  1  2  1  0  0  0  0
  2  8  1  0  0  0  0
  3  2  2  0  0  0  0
  3  4  1  0  0  0  0
  4  5  2  0  0  0  0
  5  6  1  0  0  0  0
  5 11  1  0  0  0  0
  6  7  1  0  0  0  0
  8 10  1  0  0  0  0
  8  6  2  0  0  0  0
  9  4  1  0  0  0  0
 11 20  1  0  0  0  0
 12 11  2  0  0  0  0
 12 13  1  0  0  0  0
 13 14  2  0  0  0  0
 14 19  1  0  0  0  0
 14 15  1  0  0  0  0
 15 16  2  0  0  0  0
 16 23  1  0  0  0  0
 16 17  1  0  0  0  0
 17 24  1  0  0  0  0
 18 25  1  0  0  0  0
 18 17  2  0  0  0  0
 19 18  1  0  0  0  0
 20 26  1  0  0  0  0
 20 19  2  0  0  0  0
 21 12  1  0  0  0  0
 22 13  1  0  0  0  0
 27 32  1  0  0  0  0
 28 29  1  0  0  0  0
 28 27  2  0  0  0  0
 29 30  2  0  0  0  0
 30 31  1  0  0  0  0
 31  3  1  0  0  0  0
 32 31  2  0  0  0  0
 33 27  1  0  0  0  0
 34 28  1  0  0  0  0
 35 29  1  0  0  0  0
 36 35  2  0  0  0  0
 37 36  1  0  0  0  0
 38 36  1  0  0  0  0
 38 39  1  0  0  0  0
 39 41  2  0  0  0  0
 40 39  1  0  0  0  0
 41 35  1  0  0  0  0
M  END
>  <minimizedAffinity>
-7.05127811

>  <minimizedRMSD>
0.110427432

$$$$
