
 OpenBabel03242518083D

 33 35  0  0  1  0  0  0  0  0999 V2000
   38.1790   29.1970   41.5150 N   0  0  0  0  0  0  0  0  0  0  0  0
   38.4780   29.1710   42.9250 C   0  0  0  0  0  0  0  0  0  0  0  0
   37.3900   28.5280   43.6800 C   0  0  0  0  0  0  0  0  0  0  0  0
   36.4910   27.6280   42.9320 C   0  0  0  0  0  0  0  0  0  0  0  0
   36.9490   27.1070   41.6310 C   0  0  0  0  0  0  0  0  0  0  0  0
   37.8920   27.9740   40.8330 C   0  0  1  0  0  0  0  0  0  0  0  0
   38.7520   30.1520   43.3350 H   0  0  0  0  0  0  0  0  0  0  0  0
   39.4060   28.5410   43.0110 H   0  0  0  0  0  0  0  0  0  0  0  0
   37.8510   27.9900   44.5530 H   0  0  0  0  0  0  0  0  0  0  0  0
   36.8050   29.3520   44.1730 H   0  0  0  0  0  0  0  0  0  0  0  0
   36.1970   26.7920   43.5990 H   0  0  0  0  0  0  0  0  0  0  0  0
   35.5190   28.1680   42.7440 H   0  0  0  0  0  0  0  0  0  0  0  0
   37.3880   26.0820   41.8290 H   0  0  0  0  0  0  0  0  0  0  0  0
   36.0800   26.8810   40.9800 H   0  0  0  0  0  0  0  0  0  0  0  0
   38.8560   27.4310   40.7990 H   0  0  0  0  0  0  0  0  0  0  0  0
   37.0060   31.2010   40.8040 C   0  0  0  0  0  0  0  0  0  0  0  0
   38.1960   30.4340   40.8400 C   0  0  0  0  0  0  0  0  0  0  0  0
   39.3120   30.9740   40.2050 C   0  0  0  0  0  0  0  0  0  0  0  0
   39.2150   32.1730   39.6000 N   0  0  0  0  0  0  0  0  0  0  0  0
   38.0600   32.8770   39.5880 C   0  0  0  0  0  0  0  0  0  0  0  0
   36.9460   32.3940   40.1920 N   0  0  0  0  0  0  0  0  0  0  0  0
   35.8300   30.6830   41.4300 N   0  0  0  0  0  0  0  0  0  0  0  0
   40.2250   30.4130   40.2160 H   0  0  0  0  0  0  0  0  0  0  0  0
   38.0510   33.8350   39.0840 H   0  0  0  0  0  0  0  0  0  0  0  0
   35.5970   31.1890   42.3160 H   0  0  0  0  0  0  0  0  0  0  0  0
   35.2770   29.8970   41.0460 H   0  0  0  0  0  0  0  0  0  0  0  0
   37.3380   28.1960   39.4460 C   0  0  0  0  0  0  0  0  0  0  0  0
   38.3610   28.1050   38.4590 C   0  0  0  0  0  0  0  0  0  0  0  0
   39.3510   27.9520   38.4200 H   0  0  0  0  0  0  0  0  0  0  0  0
   37.4030   28.3850   36.9560 S   0  0  0  0  0  0  0  0  0  0  0  0
   35.7970   28.5820   37.8470 C   0  0  0  0  0  0  0  0  0  0  0  0
   34.6790   28.7810   37.6970 H   0  0  0  0  0  0  0  0  0  0  0  0
   36.0350   28.4260   39.3100 N   0  0  0  0  0  0  0  0  0  0  0  0
  1  2  1  0  0  0  0
  2  8  1  0  0  0  0
  2  7  1  0  0  0  0
  2  3  1  0  0  0  0
  3 10  1  0  0  0  0
  3  9  1  0  0  0  0
  4 11  1  0  0  0  0
  4  3  1  0  0  0  0
  5 13  1  0  0  0  0
  5  4  1  0  0  0  0
  6 15  1  6  0  0  0
  6  1  1  0  0  0  0
  6  5  1  0  0  0  0
 12  4  1  0  0  0  0
 14  5  1  0  0  0  0
 16 17  1  0  0  0  0
 16 22  1  0  0  0  0
 17  1  1  0  0  0  0
 18 23  1  0  0  0  0
 18 17  2  0  0  0  0
 19 18  1  0  0  0  0
 20 19  2  0  0  0  0
 20 21  1  0  0  0  0
 21 16  2  0  0  0  0
 22 25  1  0  0  0  0
 24 20  1  0  0  0  0
 26 22  1  0  0  0  0
 27  6  1  0  0  0  0
 28 27  2  0  0  0  0
 29 28  1  0  0  0  0
 30 31  1  0  0  0  0
 30 28  1  0  0  0  0
 31 33  2  0  0  0  0
 32 31  1  0  0  0  0
 33 27  1  0  0  0  0
M  END
>  <minimizedAffinity>
-5.05371332

$$$$

 OpenBabel03242518083D

 33 35  0  0  1  0  0  0  0  0999 V2000
   37.4100   28.7890   41.6780 N   0  0  0  0  0  0  0  0  0  0  0  0
   36.4510   27.7820   42.0570 C   0  0  0  0  0  0  0  0  0  0  0  0
   37.1260   26.5670   42.5380 C   0  0  0  0  0  0  0  0  0  0  0  0
   38.5150   26.7130   43.0170 C   0  0  0  0  0  0  0  0  0  0  0  0
   38.9930   28.0620   43.3710 C   0  0  0  0  0  0  0  0  0  0  0  0
   38.3830   29.2270   42.6310 C   0  0  1  0  0  0  0  0  0  0  0  0
   35.7070   27.5690   41.2780 H   0  0  0  0  0  0  0  0  0  0  0  0
   35.8710   28.2420   42.9050 H   0  0  0  0  0  0  0  0  0  0  0  0
   36.4800   26.1100   43.3370 H   0  0  0  0  0  0  0  0  0  0  0  0
   37.0710   25.8130   41.7080 H   0  0  0  0  0  0  0  0  0  0  0  0
   38.6690   26.0160   43.8660 H   0  0  0  0  0  0  0  0  0  0  0  0
   39.2100   26.3160   42.2220 H   0  0  0  0  0  0  0  0  0  0  0  0
   38.8700   28.1660   44.4910 H   0  0  0  0  0  0  0  0  0  0  0  0
   40.0930   28.1270   43.2360 H   0  0  0  0  0  0  0  0  0  0  0  0
   37.8100   29.8030   43.3820 H   0  0  0  0  0  0  0  0  0  0  0  0
   36.5700   30.4900   40.1610 C   0  0  0  0  0  0  0  0  0  0  0  0
   37.3520   29.3290   40.3780 C   0  0  0  0  0  0  0  0  0  0  0  0
   38.0220   28.8060   39.2740 C   0  0  0  0  0  0  0  0  0  0  0  0
   37.9030   29.4130   38.0780 N   0  0  0  0  0  0  0  0  0  0  0  0
   37.1470   30.5220   37.9110 C   0  0  0  0  0  0  0  0  0  0  0  0
   36.4750   31.0680   38.9550 N   0  0  0  0  0  0  0  0  0  0  0  0
   35.8520   31.0540   41.2600 N   0  0  0  0  0  0  0  0  0  0  0  0
   38.6190   27.9260   39.4110 H   0  0  0  0  0  0  0  0  0  0  0  0
   37.0950   30.9600   36.9230 H   0  0  0  0  0  0  0  0  0  0  0  0
   36.2800   31.9510   41.5940 H   0  0  0  0  0  0  0  0  0  0  0  0
   35.0080   30.6230   41.6740 H   0  0  0  0  0  0  0  0  0  0  0  0
   39.4710   30.0680   42.0070 C   0  0  0  0  0  0  0  0  0  0  0  0
   40.6120   29.2800   41.6800 C   0  0  0  0  0  0  0  0  0  0  0  0
   40.9110   28.3270   41.7630 H   0  0  0  0  0  0  0  0  0  0  0  0
   41.6880   30.5320   40.9540 S   0  0  0  0  0  0  0  0  0  0  0  0
   40.4800   31.9100   41.1870 C   0  0  0  0  0  0  0  0  0  0  0  0
   40.3190   33.0310   41.0220 H   0  0  0  0  0  0  0  0  0  0  0  0
   39.2490   31.3680   41.8310 N   0  0  0  0  0  0  0  0  0  0  0  0
  1  2  1  0  0  0  0
  1  6  1  0  0  0  0
  2  3  1  0  0  0  0
  2  8  1  0  0  0  0
  3  4  1  0  0  0  0
  3  9  1  0  0  0  0
  4  5  1  0  0  0  0
  4 11  1  0  0  0  0
  5 13  1  0  0  0  0
  6  5  1  0  0  0  0
  6 15  1  1  0  0  0
  7  2  1  0  0  0  0
 10  3  1  0  0  0  0
 12  4  1  0  0  0  0
 14  5  1  0  0  0  0
 16 17  1  0  0  0  0
 16 22  1  0  0  0  0
 17  1  1  0  0  0  0
 18 23  1  0  0  0  0
 18 17  2  0  0  0  0
 19 18  1  0  0  0  0
 20 19  2  0  0  0  0
 20 21  1  0  0  0  0
 21 16  2  0  0  0  0
 22 25  1  0  0  0  0
 22 26  1  0  0  0  0
 24 20  1  0  0  0  0
 27  6  1  0  0  0  0
 28 29  1  0  0  0  0
 28 27  2  0  0  0  0
 30 31  1  0  0  0  0
 30 28  1  0  0  0  0
 31 33  2  0  0  0  0
 32 31  1  0  0  0  0
 33 27  1  0  0  0  0
M  END
>  <minimizedAffinity>
-4.93432474

$$$$

 OpenBabel03242518083D

 33 35  0  0  1  0  0  0  0  0999 V2000
   37.6900   28.9400   41.9530 N   0  0  0  0  0  0  0  0  0  0  0  0
   37.3910   28.3000   43.2090 C   0  0  0  0  0  0  0  0  0  0  0  0
   38.5370   27.5050   43.6790 C   0  0  0  0  0  0  0  0  0  0  0  0
   39.8660   27.8530   43.1390 C   0  0  0  0  0  0  0  0  0  0  0  0
   40.0410   29.1770   42.5160 C   0  0  0  0  0  0  0  0  0  0  0  0
   38.8340   29.7930   41.8520 C   0  0  1  0  0  0  0  0  0  0  0  0
   36.4560   27.7250   43.1980 H   0  0  0  0  0  0  0  0  0  0  0  0
   37.2120   29.1470   43.9280 H   0  0  0  0  0  0  0  0  0  0  0  0
   38.5440   27.5470   44.8030 H   0  0  0  0  0  0  0  0  0  0  0  0
   38.2940   26.4280   43.4690 H   0  0  0  0  0  0  0  0  0  0  0  0
   40.6200   27.7010   43.9370 H   0  0  0  0  0  0  0  0  0  0  0  0
   40.1480   27.0850   42.3620 H   0  0  0  0  0  0  0  0  0  0  0  0
   40.4730   29.8550   43.3120 H   0  0  0  0  0  0  0  0  0  0  0  0
   40.8500   29.1410   41.7570 H   0  0  0  0  0  0  0  0  0  0  0  0
   38.5770   30.6890   42.4490 H   0  0  0  0  0  0  0  0  0  0  0  0
   35.8230   29.6740   40.5830 C   0  0  0  0  0  0  0  0  0  0  0  0
   36.8330   28.7190   40.8570 C   0  0  0  0  0  0  0  0  0  0  0  0
   36.9090   27.6220   40.0020 C   0  0  0  0  0  0  0  0  0  0  0  0
   36.0420   27.5190   38.9770 N   0  0  0  0  0  0  0  0  0  0  0  0
   35.0910   28.4530   38.7470 C   0  0  0  0  0  0  0  0  0  0  0  0
   34.9770   29.5390   39.5510 N   0  0  0  0  0  0  0  0  0  0  0  0
   35.6970   30.8110   41.4410 N   0  0  0  0  0  0  0  0  0  0  0  0
   37.6620   26.8820   40.1880 H   0  0  0  0  0  0  0  0  0  0  0  0
   34.4270   28.3090   37.9050 H   0  0  0  0  0  0  0  0  0  0  0  0
   36.0270   31.6920   40.9820 H   0  0  0  0  0  0  0  0  0  0  0  0
   35.3210   30.7620   42.4040 H   0  0  0  0  0  0  0  0  0  0  0  0
   39.1620   30.1610   40.4250 C   0  0  0  0  0  0  0  0  0  0  0  0
   40.0510   29.2150   39.8370 C   0  0  0  0  0  0  0  0  0  0  0  0
   40.5390   28.3820   40.1050 H   0  0  0  0  0  0  0  0  0  0  0  0
   40.2230   29.9030   38.1780 S   0  0  0  0  0  0  0  0  0  0  0  0
   39.1000   31.3330   38.5000 C   0  0  0  0  0  0  0  0  0  0  0  0
   38.6380   32.2660   38.0240 H   0  0  0  0  0  0  0  0  0  0  0  0
   38.6060   31.2520   39.9050 N   0  0  0  0  0  0  0  0  0  0  0  0
  1  2  1  0  0  0  0
  2  3  1  0  0  0  0
  2  8  1  0  0  0  0
  3  9  1  0  0  0  0
  4  3  1  0  0  0  0
  4 11  1  0  0  0  0
  5  4  1  0  0  0  0
  5 13  1  0  0  0  0
  6  1  1  0  0  0  0
  6 15  1  1  0  0  0
  6  5  1  0  0  0  0
  7  2  1  0  0  0  0
 10  3  1  0  0  0  0
 12  4  1  0  0  0  0
 14  5  1  0  0  0  0
 16 17  1  0  0  0  0
 16 22  1  0  0  0  0
 17  1  1  0  0  0  0
 18 23  1  0  0  0  0
 18 17  2  0  0  0  0
 19 18  1  0  0  0  0
 20 19  2  0  0  0  0
 20 21  1  0  0  0  0
 21 16  2  0  0  0  0
 22 26  1  0  0  0  0
 24 20  1  0  0  0  0
 25 22  1  0  0  0  0
 27  6  1  0  0  0  0
 28 29  1  0  0  0  0
 28 27  2  0  0  0  0
 30 31  1  0  0  0  0
 30 28  1  0  0  0  0
 31 33  2  0  0  0  0
 32 31  1  0  0  0  0
 33 27  1  0  0  0  0
M  END
>  <minimizedAffinity>
-4.87916994

$$$$

 OpenBabel03242518083D

 33 35  0  0  1  0  0  0  0  0999 V2000
   36.3110   28.8590   39.6500 N   0  0  0  0  0  0  0  0  0  0  0  0
   35.1860   28.6070   38.7840 C   0  0  0  0  0  0  0  0  0  0  0  0
   35.3610   27.3430   38.0510 C   0  0  0  0  0  0  0  0  0  0  0  0
   36.2960   26.3550   38.6230 C   0  0  0  0  0  0  0  0  0  0  0  0
   36.6700   26.4890   40.0430 C   0  0  0  0  0  0  0  0  0  0  0  0
   36.6810   27.8810   40.6260 C   0  0  1  0  0  0  0  0  0  0  0  0
   34.9450   29.4480   38.1220 H   0  0  0  0  0  0  0  0  0  0  0  0
   34.3060   28.5110   39.4780 H   0  0  0  0  0  0  0  0  0  0  0  0
   34.3430   26.8870   37.9080 H   0  0  0  0  0  0  0  0  0  0  0  0
   35.6630   27.6140   37.0030 H   0  0  0  0  0  0  0  0  0  0  0  0
   35.8990   25.3390   38.4250 H   0  0  0  0  0  0  0  0  0  0  0  0
   37.2540   26.3830   38.0280 H   0  0  0  0  0  0  0  0  0  0  0  0
   35.9900   25.7960   40.6240 H   0  0  0  0  0  0  0  0  0  0  0  0
   37.6750   26.0520   40.2180 H   0  0  0  0  0  0  0  0  0  0  0  0
   35.8700   27.9060   41.3780 H   0  0  0  0  0  0  0  0  0  0  0  0
   36.6790   31.1410   40.3940 C   0  0  0  0  0  0  0  0  0  0  0  0
   37.0090   30.0760   39.5200 C   0  0  0  0  0  0  0  0  0  0  0  0
   38.0200   30.3130   38.5920 C   0  0  0  0  0  0  0  0  0  0  0  0
   38.6270   31.5150   38.5660 N   0  0  0  0  0  0  0  0  0  0  0  0
   38.2850   32.5080   39.4180 C   0  0  0  0  0  0  0  0  0  0  0  0
   37.3070   32.3260   40.3390 N   0  0  0  0  0  0  0  0  0  0  0  0
   35.6380   30.9510   41.3540 N   0  0  0  0  0  0  0  0  0  0  0  0
   38.2870   29.5240   37.9170 H   0  0  0  0  0  0  0  0  0  0  0  0
   38.8140   33.4490   39.3440 H   0  0  0  0  0  0  0  0  0  0  0  0
   36.0100   30.8610   42.3290 H   0  0  0  0  0  0  0  0  0  0  0  0
   34.6340   30.9070   41.1090 H   0  0  0  0  0  0  0  0  0  0  0  0
   38.0230   28.1660   41.2550 C   0  0  0  0  0  0  0  0  0  0  0  0
   39.0790   27.5430   40.5280 C   0  0  0  0  0  0  0  0  0  0  0  0
   39.1870   26.9520   39.7260 H   0  0  0  0  0  0  0  0  0  0  0  0
   40.5090   28.0780   41.4900 S   0  0  0  0  0  0  0  0  0  0  0  0
   39.5090   29.0410   42.7080 C   0  0  0  0  0  0  0  0  0  0  0  0
   39.5800   29.6960   43.6440 H   0  0  0  0  0  0  0  0  0  0  0  0
   38.0670   28.9300   42.3430 N   0  0  0  0  0  0  0  0  0  0  0  0
  1  6  1  0  0  0  0
  2  8  1  0  0  0  0
  2  1  1  0  0  0  0
  3  4  1  0  0  0  0
  3  2  1  0  0  0  0
  4  5  1  0  0  0  0
  5 14  1  0  0  0  0
  5 13  1  0  0  0  0
  5  6  1  0  0  0  0
  6 27  1  0  0  0  0
  6 15  1  1  0  0  0
  7  2  1  0  0  0  0
  9  3  1  0  0  0  0
 10  3  1  0  0  0  0
 11  4  1  0  0  0  0
 12  4  1  0  0  0  0
 16 22  1  0  0  0  0
 17  1  1  0  0  0  0
 17 16  2  0  0  0  0
 18 17  1  0  0  0  0
 19 18  2  0  0  0  0
 19 20  1  0  0  0  0
 20 21  2  0  0  0  0
 21 16  1  0  0  0  0
 22 25  1  0  0  0  0
 23 18  1  0  0  0  0
 24 20  1  0  0  0  0
 26 22  1  0  0  0  0
 27 33  1  0  0  0  0
 28 27  2  0  0  0  0
 28 30  1  0  0  0  0
 29 28  1  0  0  0  0
 30 31  1  0  0  0  0
 31 32  1  0  0  0  0
 33 31  2  0  0  0  0
M  END
>  <minimizedAffinity>
-4.74325991

$$$$

 OpenBabel03242518083D

 33 35  0  0  1  0  0  0  0  0999 V2000
   38.3630   30.8600   41.1270 N   0  0  0  0  0  0  0  0  0  0  0  0
   39.4040   31.6760   41.6990 C   0  0  0  0  0  0  0  0  0  0  0  0
   39.8530   32.7010   40.7430 C   0  0  0  0  0  0  0  0  0  0  0  0
   38.9240   33.0590   39.6540 C   0  0  0  0  0  0  0  0  0  0  0  0
   37.5000   32.7060   39.8060 C   0  0  0  0  0  0  0  0  0  0  0  0
   37.1770   31.4820   40.6270 C   0  0  1  0  0  0  0  0  0  0  0  0
   40.2380   31.0960   42.1160 H   0  0  0  0  0  0  0  0  0  0  0  0
   38.9220   32.1810   42.5810 H   0  0  0  0  0  0  0  0  0  0  0  0
   40.1420   33.6150   41.3320 H   0  0  0  0  0  0  0  0  0  0  0  0
   40.8360   32.3500   40.3260 H   0  0  0  0  0  0  0  0  0  0  0  0
   39.0300   34.1430   39.4430 H   0  0  0  0  0  0  0  0  0  0  0  0
   39.2830   32.5700   38.7030 H   0  0  0  0  0  0  0  0  0  0  0  0
   36.9790   33.6280   40.2050 H   0  0  0  0  0  0  0  0  0  0  0  0
   37.0300   32.5680   38.8110 H   0  0  0  0  0  0  0  0  0  0  0  0
   36.6420   31.8450   41.5250 H   0  0  0  0  0  0  0  0  0  0  0  0
   37.9580   28.6820   42.1230 C   0  0  0  0  0  0  0  0  0  0  0  0
   38.5370   29.4620   41.0930 C   0  0  0  0  0  0  0  0  0  0  0  0
   39.2370   28.7770   40.1020 C   0  0  0  0  0  0  0  0  0  0  0  0
   39.3300   27.4350   40.1640 N   0  0  0  0  0  0  0  0  0  0  0  0
   38.7630   26.7240   41.1650 C   0  0  0  0  0  0  0  0  0  0  0  0
   38.0710   27.3450   42.1520 N   0  0  0  0  0  0  0  0  0  0  0  0
   37.2430   29.3410   43.1700 N   0  0  0  0  0  0  0  0  0  0  0  0
   39.6870   29.3440   39.3120 H   0  0  0  0  0  0  0  0  0  0  0  0
   38.8750   25.6480   41.1540 H   0  0  0  0  0  0  0  0  0  0  0  0
   36.2080   29.1960   43.0940 H   0  0  0  0  0  0  0  0  0  0  0  0
   37.6990   29.8960   43.9140 H   0  0  0  0  0  0  0  0  0  0  0  0
   36.3180   30.5350   39.8230 C   0  0  0  0  0  0  0  0  0  0  0  0
   36.6780   30.5520   38.4440 C   0  0  0  0  0  0  0  0  0  0  0  0
   37.3280   31.0270   37.8480 H   0  0  0  0  0  0  0  0  0  0  0  0
   35.5210   29.3370   37.7810 S   0  0  0  0  0  0  0  0  0  0  0  0
   34.7330   28.9840   39.4140 C   0  0  0  0  0  0  0  0  0  0  0  0
   33.9250   28.3590   39.9300 H   0  0  0  0  0  0  0  0  0  0  0  0
   35.3880   29.8250   40.4560 N   0  0  0  0  0  0  0  0  0  0  0  0
  1  2  1  0  0  0  0
  2  7  1  0  0  0  0
  2  8  1  0  0  0  0
  3  9  1  0  0  0  0
  3  2  1  0  0  0  0
  4  5  1  0  0  0  0
  4  3  1  0  0  0  0
  5 13  1  0  0  0  0
  5  6  1  0  0  0  0
  6  1  1  0  0  0  0
  6 15  1  1  0  0  0
 10  3  1  0  0  0  0
 11  4  1  0  0  0  0
 12  4  1  0  0  0  0
 14  5  1  0  0  0  0
 16 21  1  0  0  0  0
 16 22  1  0  0  0  0
 17  1  1  0  0  0  0
 17 16  2  0  0  0  0
 18 19  2  0  0  0  0
 18 17  1  0  0  0  0
 19 20  1  0  0  0  0
 20 21  2  0  0  0  0
 22 26  1  0  0  0  0
 23 18  1  0  0  0  0
 24 20  1  0  0  0  0
 25 22  1  0  0  0  0
 27 33  1  0  0  0  0
 27  6  1  0  0  0  0
 28 27  2  0  0  0  0
 29 28  1  0  0  0  0
 30 28  1  0  0  0  0
 30 31  1  0  0  0  0
 31 32  1  0  0  0  0
 31 33  2  0  0  0  0
M  END
>  <minimizedAffinity>
-4.73618031

$$$$

 OpenBabel03242518083D

 33 35  0  0  1  0  0  0  0  0999 V2000
   36.8380   28.7330   41.8390 N   0  0  0  0  0  0  0  0  0  0  0  0
   36.6440   27.7670   42.8910 C   0  0  0  0  0  0  0  0  0  0  0  0
   37.9330   27.2340   43.3590 C   0  0  0  0  0  0  0  0  0  0  0  0
   39.1350   28.0480   43.0960 C   0  0  0  0  0  0  0  0  0  0  0  0
   38.9540   29.4750   42.7720 C   0  0  0  0  0  0  0  0  0  0  0  0
   37.6770   29.8680   42.0720 C   0  0  1  0  0  0  0  0  0  0  0  0
   35.9290   26.9740   42.6330 H   0  0  0  0  0  0  0  0  0  0  0  0
   36.1600   28.3450   43.7260 H   0  0  0  0  0  0  0  0  0  0  0  0
   37.8350   27.0190   44.4590 H   0  0  0  0  0  0  0  0  0  0  0  0
   38.0430   26.2080   42.9130 H   0  0  0  0  0  0  0  0  0  0  0  0
   39.8320   27.9340   43.9510 H   0  0  0  0  0  0  0  0  0  0  0  0
   39.6980   27.5850   42.2350 H   0  0  0  0  0  0  0  0  0  0  0  0
   39.0960   30.0470   43.7380 H   0  0  0  0  0  0  0  0  0  0  0  0
   39.7960   29.8360   42.1460 H   0  0  0  0  0  0  0  0  0  0  0  0
   37.1140   30.4970   42.7870 H   0  0  0  0  0  0  0  0  0  0  0  0
   36.7860   27.6970   39.6420 C   0  0  0  0  0  0  0  0  0  0  0  0
   36.1800   28.5380   40.6080 C   0  0  0  0  0  0  0  0  0  0  0  0
   34.9570   29.1100   40.2670 C   0  0  0  0  0  0  0  0  0  0  0  0
   34.4140   28.8440   39.0630 N   0  0  0  0  0  0  0  0  0  0  0  0
   35.0220   28.0350   38.1670 C   0  0  0  0  0  0  0  0  0  0  0  0
   36.2150   27.4550   38.4530 N   0  0  0  0  0  0  0  0  0  0  0  0
   38.0490   27.0990   39.9410 N   0  0  0  0  0  0  0  0  0  0  0  0
   34.4780   29.7530   40.9790 H   0  0  0  0  0  0  0  0  0  0  0  0
   34.5310   27.8630   37.2180 H   0  0  0  0  0  0  0  0  0  0  0  0
   37.9660   26.0720   40.1270 H   0  0  0  0  0  0  0  0  0  0  0  0
   38.9390   27.6250   39.9680 H   0  0  0  0  0  0  0  0  0  0  0  0
   37.9950   30.6260   40.8050 C   0  0  0  0  0  0  0  0  0  0  0  0
   37.1340   31.7500   40.6440 C   0  0  0  0  0  0  0  0  0  0  0  0
   36.3620   32.1740   41.1210 H   0  0  0  0  0  0  0  0  0  0  0  0
   37.7660   32.4380   39.1010 S   0  0  0  0  0  0  0  0  0  0  0  0
   39.0700   31.1460   38.8930 C   0  0  0  0  0  0  0  0  0  0  0  0
   39.9220   30.7980   38.2110 H   0  0  0  0  0  0  0  0  0  0  0  0
   38.9910   30.1930   40.0370 N   0  0  0  0  0  0  0  0  0  0  0  0
  1  6  1  0  0  0  0
  1  2  1  0  0  0  0
  2  3  1  0  0  0  0
  2  8  1  0  0  0  0
  3  9  1  0  0  0  0
  4  3  1  0  0  0  0
  4 11  1  0  0  0  0
  5  4  1  0  0  0  0
  5 13  1  0  0  0  0
  6  5  1  0  0  0  0
  6 15  1  1  0  0  0
  7  2  1  0  0  0  0
 10  3  1  0  0  0  0
 12  4  1  0  0  0  0
 14  5  1  0  0  0  0
 16 22  1  0  0  0  0
 16 17  1  0  0  0  0
 17  1  1  0  0  0  0
 18 17  2  0  0  0  0
 18 23  1  0  0  0  0
 19 18  1  0  0  0  0
 20 21  1  0  0  0  0
 20 19  2  0  0  0  0
 21 16  2  0  0  0  0
 22 26  1  0  0  0  0
 22 25  1  0  0  0  0
 24 20  1  0  0  0  0
 27  6  1  0  0  0  0
 28 27  2  0  0  0  0
 28 29  1  0  0  0  0
 30 28  1  0  0  0  0
 31 30  1  0  0  0  0
 31 33  2  0  0  0  0
 32 31  1  0  0  0  0
 33 27  1  0  0  0  0
M  END
>  <minimizedAffinity>
-4.62737894

$$$$

 OpenBabel03242518083D

 33 35  0  0  1  0  0  0  0  0999 V2000
   37.8880   26.7980   42.2920 N   0  0  0  0  0  0  0  0  0  0  0  0
   36.7930   25.8800   42.4830 C   0  0  0  0  0  0  0  0  0  0  0  0
   37.1610   24.5250   42.0420 C   0  0  0  0  0  0  0  0  0  0  0  0
   38.6000   24.2070   41.9690 C   0  0  0  0  0  0  0  0  0  0  0  0
   39.5430   25.0690   42.7050 C   0  0  0  0  0  0  0  0  0  0  0  0
   39.1550   26.5150   42.8910 C   0  0  1  0  0  0  0  0  0  0  0  0
   35.8490   26.2240   42.0410 H   0  0  0  0  0  0  0  0  0  0  0  0
   36.6170   25.8700   43.5940 H   0  0  0  0  0  0  0  0  0  0  0  0
   36.6280   23.7920   42.7090 H   0  0  0  0  0  0  0  0  0  0  0  0
   36.6680   24.3610   41.0450 H   0  0  0  0  0  0  0  0  0  0  0  0
   38.7410   23.1470   42.2620 H   0  0  0  0  0  0  0  0  0  0  0  0
   38.9160   24.2250   40.8870 H   0  0  0  0  0  0  0  0  0  0  0  0
   39.7450   24.5590   43.6940 H   0  0  0  0  0  0  0  0  0  0  0  0
   40.5380   25.0560   42.2140 H   0  0  0  0  0  0  0  0  0  0  0  0
   38.9960   26.6540   43.9770 H   0  0  0  0  0  0  0  0  0  0  0  0
   37.3320   29.1600   42.2040 C   0  0  0  0  0  0  0  0  0  0  0  0
   37.6730   27.9620   41.5290 C   0  0  0  0  0  0  0  0  0  0  0  0
   37.7800   28.0300   40.1420 C   0  0  0  0  0  0  0  0  0  0  0  0
   37.5630   29.2030   39.5170 N   0  0  0  0  0  0  0  0  0  0  0  0
   37.2400   30.3270   40.1960 C   0  0  0  0  0  0  0  0  0  0  0  0
   37.1230   30.3120   41.5470 N   0  0  0  0  0  0  0  0  0  0  0  0
   37.1960   29.1370   43.6260 N   0  0  0  0  0  0  0  0  0  0  0  0
   38.0340   27.1370   39.6060 H   0  0  0  0  0  0  0  0  0  0  0  0
   37.0800   31.2360   39.6320 H   0  0  0  0  0  0  0  0  0  0  0  0
   37.9900   29.6210   44.1080 H   0  0  0  0  0  0  0  0  0  0  0  0
   36.4020   28.6930   44.1180 H   0  0  0  0  0  0  0  0  0  0  0  0
   40.2550   27.4140   42.3780 C   0  0  0  0  0  0  0  0  0  0  0  0
   40.9270   26.8280   41.2660 C   0  0  0  0  0  0  0  0  0  0  0  0
   40.8920   25.9790   40.7350 H   0  0  0  0  0  0  0  0  0  0  0  0
   42.1280   28.1180   40.8830 S   0  0  0  0  0  0  0  0  0  0  0  0
   41.5720   29.2390   42.2410 C   0  0  0  0  0  0  0  0  0  0  0  0
   41.7650   30.2540   42.7340 H   0  0  0  0  0  0  0  0  0  0  0  0
   40.4510   28.5860   42.9760 N   0  0  0  0  0  0  0  0  0  0  0  0
  1  2  1  0  0  0  0
  1  6  1  0  0  0  0
  2  8  1  0  0  0  0
  3  2  1  0  0  0  0
  3  9  1  0  0  0  0
  4  3  1  0  0  0  0
  4 11  1  0  0  0  0
  4  5  1  0  0  0  0
  5  6  1  0  0  0  0
  5 13  1  0  0  0  0
  6 15  1  1  0  0  0
  7  2  1  0  0  0  0
 10  3  1  0  0  0  0
 12  4  1  0  0  0  0
 14  5  1  0  0  0  0
 16 22  1  0  0  0  0
 17 16  2  0  0  0  0
 17  1  1  0  0  0  0
 18 17  1  0  0  0  0
 19 18  2  0  0  0  0
 19 20  1  0  0  0  0
 20 21  2  0  0  0  0
 21 16  1  0  0  0  0
 22 25  1  0  0  0  0
 22 26  1  0  0  0  0
 23 18  1  0  0  0  0
 24 20  1  0  0  0  0
 27  6  1  0  0  0  0
 27 33  1  0  0  0  0
 28 27  2  0  0  0  0
 29 28  1  0  0  0  0
 30 28  1  0  0  0  0
 30 31  1  0  0  0  0
 31 32  1  0  0  0  0
 31 33  2  0  0  0  0
M  END
>  <minimizedAffinity>
-4.56394529

$$$$

 OpenBabel03242518083D

 33 35  0  0  1  0  0  0  0  0999 V2000
   37.4930   30.2840   40.9260 N   0  0  0  0  0  0  0  0  0  0  0  0
   36.1100   30.0940   40.5680 C   0  0  0  0  0  0  0  0  0  0  0  0
   35.6750   28.7200   40.8660 C   0  0  0  0  0  0  0  0  0  0  0  0
   36.4590   27.9660   41.8630 C   0  0  0  0  0  0  0  0  0  0  0  0
   37.3350   28.7210   42.7770 C   0  0  0  0  0  0  0  0  0  0  0  0
   37.9170   30.0150   42.2650 C   0  0  1  0  0  0  0  0  0  0  0  0
   35.8780   30.3950   39.5380 H   0  0  0  0  0  0  0  0  0  0  0  0
   35.5420   30.8100   41.2230 H   0  0  0  0  0  0  0  0  0  0  0  0
   34.5920   28.7620   41.1650 H   0  0  0  0  0  0  0  0  0  0  0  0
   35.6440   28.1690   39.8870 H   0  0  0  0  0  0  0  0  0  0  0  0
   35.7660   27.3210   42.4400 H   0  0  0  0  0  0  0  0  0  0  0  0
   37.1130   27.2260   41.3180 H   0  0  0  0  0  0  0  0  0  0  0  0
   36.7500   28.8730   43.7340 H   0  0  0  0  0  0  0  0  0  0  0  0
   38.1840   28.0860   43.1060 H   0  0  0  0  0  0  0  0  0  0  0  0
   37.4640   30.8190   42.8760 H   0  0  0  0  0  0  0  0  0  0  0  0
   38.6390   32.1410   39.8570 C   0  0  0  0  0  0  0  0  0  0  0  0
   38.3920   30.7490   39.9440 C   0  0  0  0  0  0  0  0  0  0  0  0
   39.0740   29.9310   39.0470 C   0  0  0  0  0  0  0  0  0  0  0  0
   39.9190   30.4850   38.1570 N   0  0  0  0  0  0  0  0  0  0  0  0
   40.1300   31.8190   38.1040 C   0  0  0  0  0  0  0  0  0  0  0  0
   39.4890   32.6570   38.9570 N   0  0  0  0  0  0  0  0  0  0  0  0
   37.9510   33.0220   40.7480 N   0  0  0  0  0  0  0  0  0  0  0  0
   38.9030   28.8740   39.0900 H   0  0  0  0  0  0  0  0  0  0  0  0
   40.8230   32.1980   37.3650 H   0  0  0  0  0  0  0  0  0  0  0  0
   38.5840   33.4110   41.4860 H   0  0  0  0  0  0  0  0  0  0  0  0
   36.9440   33.2450   40.6680 H   0  0  0  0  0  0  0  0  0  0  0  0
   39.4200   29.9970   42.4080 C   0  0  0  0  0  0  0  0  0  0  0  0
   39.9400   28.6810   42.2470 C   0  0  0  0  0  0  0  0  0  0  0  0
   39.5930   27.7550   42.0840 H   0  0  0  0  0  0  0  0  0  0  0  0
   41.7060   28.9910   42.4440 S   0  0  0  0  0  0  0  0  0  0  0  0
   41.5020   30.8080   42.7090 C   0  0  0  0  0  0  0  0  0  0  0  0
   42.0740   31.7790   42.9090 H   0  0  0  0  0  0  0  0  0  0  0  0
   40.0510   31.1450   42.6400 N   0  0  0  0  0  0  0  0  0  0  0  0
  1  6  1  0  0  0  0
  2  3  1  0  0  0  0
  2  1  1  0  0  0  0
  2  8  1  0  0  0  0
  3  9  1  0  0  0  0
  3  4  1  0  0  0  0
  4 11  1  0  0  0  0
  4  5  1  0  0  0  0
  5 14  1  0  0  0  0
  5 13  1  0  0  0  0
  6 27  1  0  0  0  0
  6  5  1  0  0  0  0
  6 15  1  1  0  0  0
  7  2  1  0  0  0  0
 10  3  1  0  0  0  0
 12  4  1  0  0  0  0
 16 17  1  0  0  0  0
 16 22  1  0  0  0  0
 17  1  1  0  0  0  0
 18 23  1  0  0  0  0
 18 17  2  0  0  0  0
 19 18  1  0  0  0  0
 20 19  2  0  0  0  0
 20 21  1  0  0  0  0
 21 16  2  0  0  0  0
 22 25  1  0  0  0  0
 24 20  1  0  0  0  0
 26 22  1  0  0  0  0
 27 33  1  0  0  0  0
 28 27  2  0  0  0  0
 28 30  1  0  0  0  0
 29 28  1  0  0  0  0
 30 31  1  0  0  0  0
 31 32  1  0  0  0  0
 33 31  2  0  0  0  0
M  END
>  <minimizedAffinity>
-4.53265476

$$$$

 OpenBabel03242518083D

 33 35  0  0  1  0  0  0  0  0999 V2000
   37.2750   28.6300   39.1360 N   0  0  0  0  0  0  0  0  0  0  0  0
   36.6400   27.3950   38.7490 C   0  0  0  0  0  0  0  0  0  0  0  0
   35.2910   27.6430   38.2150 C   0  0  0  0  0  0  0  0  0  0  0  0
   35.0050   28.9990   37.7090 C   0  0  0  0  0  0  0  0  0  0  0  0
   36.1440   29.8780   37.3870 C   0  0  0  0  0  0  0  0  0  0  0  0
   37.4140   29.6800   38.1750 C   0  0  1  0  0  0  0  0  0  0  0  0
   36.6460   26.6310   39.5380 H   0  0  0  0  0  0  0  0  0  0  0  0
   37.2900   26.9820   37.9290 H   0  0  0  0  0  0  0  0  0  0  0  0
   35.0930   26.8740   37.4180 H   0  0  0  0  0  0  0  0  0  0  0  0
   34.5640   27.3590   39.0230 H   0  0  0  0  0  0  0  0  0  0  0  0
   34.3260   28.9130   36.8360 H   0  0  0  0  0  0  0  0  0  0  0  0
   34.3790   29.5410   38.4750 H   0  0  0  0  0  0  0  0  0  0  0  0
   36.3220   29.7820   36.2730 H   0  0  0  0  0  0  0  0  0  0  0  0
   35.8500   30.9430   37.4980 H   0  0  0  0  0  0  0  0  0  0  0  0
   38.1700   29.3120   37.4550 H   0  0  0  0  0  0  0  0  0  0  0  0
   36.8740   29.2390   41.4530 C   0  0  0  0  0  0  0  0  0  0  0  0
   37.7570   28.7620   40.4530 C   0  0  0  0  0  0  0  0  0  0  0  0
   39.0520   28.4460   40.8560 C   0  0  0  0  0  0  0  0  0  0  0  0
   39.4010   28.6010   42.1480 N   0  0  0  0  0  0  0  0  0  0  0  0
   38.5280   29.0580   43.0740 C   0  0  0  0  0  0  0  0  0  0  0  0
   37.2560   29.3800   42.7310 N   0  0  0  0  0  0  0  0  0  0  0  0
   35.5380   29.5900   41.0840 N   0  0  0  0  0  0  0  0  0  0  0  0
   39.7410   28.0850   40.1190 H   0  0  0  0  0  0  0  0  0  0  0  0
   38.8740   29.1590   44.0950 H   0  0  0  0  0  0  0  0  0  0  0  0
   34.8360   28.8940   41.4300 H   0  0  0  0  0  0  0  0  0  0  0  0
   35.2990   30.4360   40.5390 H   0  0  0  0  0  0  0  0  0  0  0  0
   37.8420   30.9870   38.8000 C   0  0  0  0  0  0  0  0  0  0  0  0
   39.2490   31.1810   38.6830 C   0  0  0  0  0  0  0  0  0  0  0  0
   40.0430   30.6890   38.3200 H   0  0  0  0  0  0  0  0  0  0  0  0
   39.4330   32.7900   39.4780 S   0  0  0  0  0  0  0  0  0  0  0  0
   37.6330   32.9710   39.8490 C   0  0  0  0  0  0  0  0  0  0  0  0
   36.8560   33.6650   40.3250 H   0  0  0  0  0  0  0  0  0  0  0  0
   36.9130   31.7670   39.3440 N   0  0  0  0  0  0  0  0  0  0  0  0
  1 17  1  0  0  0  0
  2  1  1  0  0  0  0
  2  7  1  0  0  0  0
  3  2  1  0  0  0  0
  3 10  1  0  0  0  0
  4  3  1  0  0  0  0
  4 12  1  0  0  0  0
  5 14  1  0  0  0  0
  5  4  1  0  0  0  0
  5  6  1  0  0  0  0
  6 15  1  6  0  0  0
  6 27  1  0  0  0  0
  6  1  1  0  0  0  0
  8  2  1  0  0  0  0
  9  3  1  0  0  0  0
 11  4  1  0  0  0  0
 13  5  1  0  0  0  0
 16 21  1  0  0  0  0
 17 18  1  0  0  0  0
 17 16  2  0  0  0  0
 18 19  2  0  0  0  0
 19 20  1  0  0  0  0
 20 24  1  0  0  0  0
 21 20  2  0  0  0  0
 22 25  1  0  0  0  0
 22 16  1  0  0  0  0
 23 18  1  0  0  0  0
 26 22  1  0  0  0  0
 27 33  1  0  0  0  0
 28 27  2  0  0  0  0
 28 30  1  0  0  0  0
 29 28  1  0  0  0  0
 30 31  1  0  0  0  0
 31 32  1  0  0  0  0
 33 31  2  0  0  0  0
M  END
>  <minimizedAffinity>
-4.49028063

$$$$
