
 OpenBabel03252506373D

 42 45  0  0  1  0  0  0  0  0999 V2000
   44.5130   35.4970   45.1280 C   0  0  0  0  0  0  0  0  0  0  0  0
   45.1860   35.4960   43.8920 C   0  0  0  0  0  0  0  0  0  0  0  0
   46.1240   34.5460   43.6500 C   0  0  0  0  0  0  0  0  0  0  0  0
   46.3540   33.6450   44.6360 N   0  0  0  0  0  0  0  0  0  0  0  0
   45.7170   33.6520   45.7970 C   0  0  0  0  0  0  0  0  0  0  0  0
   44.7940   34.5710   46.0580 N   0  0  0  0  0  0  0  0  0  0  0  0
   46.0470   32.6460   46.7720 N   0  0  0  0  0  0  0  0  0  0  0  0
   45.2980   32.3880   47.9450 C   0  0  0  0  0  0  0  0  0  0  0  0
   46.3690   32.0770   48.9770 C   0  0  0  0  0  0  0  0  0  0  0  0
   47.6590   31.9750   48.2200 C   0  0  0  0  0  0  0  0  0  0  0  0
   47.1890   31.7550   46.7820 C   0  0  1  0  0  0  0  0  0  0  0  0
   43.7560   36.2580   45.3340 H   0  0  0  0  0  0  0  0  0  0  0  0
   46.6450   34.5280   42.7220 H   0  0  0  0  0  0  0  0  0  0  0  0
   44.5260   31.6970   48.0490 H   0  0  0  0  0  0  0  0  0  0  0  0
   44.8740   33.3860   48.2810 H   0  0  0  0  0  0  0  0  0  0  0  0
   46.5100   32.8870   49.7200 H   0  0  0  0  0  0  0  0  0  0  0  0
   46.1270   31.1640   49.5630 H   0  0  0  0  0  0  0  0  0  0  0  0
   48.2540   31.0980   48.5410 H   0  0  0  0  0  0  0  0  0  0  0  0
   48.2340   32.9290   48.2320 H   0  0  0  0  0  0  0  0  0  0  0  0
   47.9970   32.0900   46.1310 H   0  0  0  0  0  0  0  0  0  0  0  0
   44.8270   36.5200   42.9520 N   0  0  0  0  0  0  0  0  0  0  0  0
   43.8640   36.4050   42.5680 H   0  0  0  0  0  0  0  0  0  0  0  0
   45.4810   37.3000   42.6880 H   0  0  0  0  0  0  0  0  0  0  0  0
   46.7110   30.0580   46.5990 S   0  0  0  0  0  0  0  0  0  0  0  0
   45.5830   30.5690   43.4920 O   0  0  0  0  0  0  0  0  0  0  0  0
   45.0020   29.9950   44.4270 C   0  0  0  0  0  0  0  0  0  0  0  0
   45.1520   29.7400   45.8890 C   0  0  1  0  0  0  0  0  0  0  0  0
   44.6590   28.3230   45.9970 C   0  0  0  0  0  0  0  0  0  0  0  0
   43.2980   28.5220   45.2900 C   0  0  0  0  0  0  0  0  0  0  0  0
   43.7700   29.3180   44.1360 N   0  0  0  0  0  0  0  0  0  0  0  0
   44.2600   30.3110   46.2700 H   0  0  0  0  0  0  0  0  0  0  0  0
   44.5160   28.0120   47.0400 H   0  0  0  0  0  0  0  0  0  0  0  0
   45.2560   27.6280   45.3840 H   0  0  0  0  0  0  0  0  0  0  0  0
   42.9170   27.5430   44.9680 H   0  0  0  0  0  0  0  0  0  0  0  0
   42.6130   29.0940   45.9280 H   0  0  0  0  0  0  0  0  0  0  0  0
   42.9330   29.2700   42.9520 C   0  0  0  0  0  0  0  0  0  0  0  0
   41.9340   30.1840   42.6790 C   0  0  0  0  0  0  0  0  0  0  0  0
   41.7280   31.0350   43.4010 H   0  0  0  0  0  0  0  0  0  0  0  0
   41.3180   29.4840   41.0220 S   0  0  0  0  0  0  0  0  0  0  0  0
   42.5830   28.0840   41.0820 C   0  0  0  0  0  0  0  0  0  0  0  0
   42.6180   27.3600   40.2760 H   0  0  0  0  0  0  0  0  0  0  0  0
   43.2120   28.2570   42.1350 N   0  0  0  0  0  0  0  0  0  0  0  0
  1 12  1  0  0  0  0
  1  6  1  0  0  0  0
  2  1  2  0  0  0  0
  3  2  1  0  0  0  0
  3  4  2  0  0  0  0
  4  5  1  0  0  0  0
  5  6  2  0  0  0  0
  5  7  1  0  0  0  0
  7 11  1  0  0  0  0
  7  8  1  0  0  0  0
  8 14  1  0  0  0  0
  8 15  1  0  0  0  0
  8  9  1  0  0  0  0
  9 17  1  0  0  0  0
  9 16  1  0  0  0  0
 10 19  1  0  0  0  0
 10 18  1  0  0  0  0
 10  9  1  0  0  0  0
 11 20  1  6  0  0  0
 11 10  1  0  0  0  0
 13  3  1  0  0  0  0
 21  2  1  0  0  0  0
 22 21  1  0  0  0  0
 23 21  1  0  0  0  0
 24 11  1  0  0  0  0
 25 26  2  0  0  0  0
 26 27  1  0  0  0  0
 27 28  1  0  0  0  0
 27 31  1  1  0  0  0
 27 24  1  0  0  0  0
 28 32  1  0  0  0  0
 29 35  1  0  0  0  0
 29 28  1  0  0  0  0
 30 26  1  0  0  0  0
 30 29  1  0  0  0  0
 33 28  1  0  0  0  0
 34 29  1  0  0  0  0
 36 30  1  0  0  0  0
 37 36  2  0  0  0  0
 37 38  1  0  0  0  0
 39 40  1  0  0  0  0
 39 37  1  0  0  0  0
 40 42  2  0  0  0  0
 41 40  1  0  0  0  0
 42 36  1  0  0  0  0
M  END
>  <minimizedAffinity>
-5.19274569

>  <minimizedRMSD>
0.456666321

$$$$
