
 OpenBabel03252509023D

 43 45  0  0  1  0  0  0  0  0999 V2000
   38.9340   28.5690   41.6560 N   0  0  0  0  0  0  0  0  0  0  0  0
   39.3480   27.7090   42.7070 C   0  0  0  0  0  0  0  0  0  0  0  0
   38.2580   27.3180   43.6800 C   0  0  0  0  0  0  0  0  0  0  0  0
   36.8820   27.2130   43.0790 C   0  0  0  0  0  0  0  0  0  0  0  0
   36.9290   27.3950   41.5790 C   0  0  0  0  0  0  0  0  0  0  0  0
   37.5930   28.8100   41.4120 C   0  0  2  0  0  0  0  0  0  0  0  0
   40.2020   28.0560   43.2990 H   0  0  0  0  0  0  0  0  0  0  0  0
   39.6970   26.7640   42.2040 H   0  0  0  0  0  0  0  0  0  0  0  0
   38.2650   27.9940   44.5740 H   0  0  0  0  0  0  0  0  0  0  0  0
   38.5070   26.3130   44.0830 H   0  0  0  0  0  0  0  0  0  0  0  0
   36.2900   28.0660   43.4770 H   0  0  0  0  0  0  0  0  0  0  0  0
   36.3590   26.2920   43.3860 H   0  0  0  0  0  0  0  0  0  0  0  0
   37.5920   26.6220   41.1760 H   0  0  0  0  0  0  0  0  0  0  0  0
   35.9170   27.4190   41.1650 H   0  0  0  0  0  0  0  0  0  0  0  0
   37.0630   29.4850   42.1150 H   0  0  0  0  0  0  0  0  0  0  0  0
   39.8900   29.5780   41.3110 C   0  0  0  0  0  0  0  0  0  0  0  0
   39.7800   29.8630   40.2440 H   0  0  0  0  0  0  0  0  0  0  0  0
   40.9070   29.1390   41.4390 H   0  0  0  0  0  0  0  0  0  0  0  0
   39.6880   30.7630   42.1990 C   0  0  0  0  0  0  0  0  0  0  0  0
   38.7890   30.7120   42.8180 H   0  0  0  0  0  0  0  0  0  0  0  0
   40.5650   30.8860   42.8940 H   0  0  0  0  0  0  0  0  0  0  0  0
   40.8870   33.6870   40.1640 C   0  0  0  0  0  0  0  0  0  0  0  0
   40.8840   32.5200   40.9510 C   0  0  0  0  0  0  0  0  0  0  0  0
   39.6810   31.9950   41.3680 C   0  0  0  0  0  0  0  0  0  0  0  0
   38.5590   32.6320   40.9940 N   0  0  0  0  0  0  0  0  0  0  0  0
   38.5730   33.7440   40.2430 C   0  0  0  0  0  0  0  0  0  0  0  0
   39.7300   34.2830   39.8200 N   0  0  0  0  0  0  0  0  0  0  0  0
   41.8480   34.0910   39.8410 H   0  0  0  0  0  0  0  0  0  0  0  0
   41.8480   32.0910   41.1920 H   0  0  0  0  0  0  0  0  0  0  0  0
   37.5710   34.1020   40.0520 H   0  0  0  0  0  0  0  0  0  0  0  0
   37.3490   29.0790   40.0740 O   0  0  0  0  0  0  0  0  0  0  0  0
   36.3660   31.1880   38.7890 O   0  0  0  0  0  0  0  0  0  0  0  0
   36.0510   30.1200   39.8410 P   0  0  2  0  0  0  0  0  0  0  0  0
   35.8720   30.9880   41.3040 O   0  0  0  0  0  0  0  0  0  0  0  0
   36.0030   30.3790   42.0680 H   0  0  0  0  0  0  0  0  0  0  0  0
   34.6330   29.3110   39.5440 O   0  0  0  0  0  0  0  0  0  0  0  0
   34.3250   28.6330   38.3750 C   0  0  0  0  0  0  0  0  0  0  0  0
   33.2870   28.9700   37.4250 C   0  0  0  0  0  0  0  0  0  0  0  0
   32.6750   29.8980   37.6970 H   0  0  0  0  0  0  0  0  0  0  0  0
   33.5100   27.5940   36.1460 S   0  0  0  0  0  0  0  0  0  0  0  0
   34.9430   26.8680   37.1580 C   0  0  0  0  0  0  0  0  0  0  0  0
   35.4100   25.9690   36.7360 H   0  0  0  0  0  0  0  0  0  0  0  0
   35.0660   27.5620   38.1070 N   0  0  0  0  0  0  0  0  0  0  0  0
  1  2  1  0  0  0  0
  2  7  1  0  0  0  0
  2  3  1  0  0  0  0
  3 10  1  0  0  0  0
  3  9  1  0  0  0  0
  4 12  1  0  0  0  0
  4 11  1  0  0  0  0
  4  3  1  0  0  0  0
  5  4  1  0  0  0  0
  6  5  1  0  0  0  0
  6  1  1  0  0  0  0
  6 15  1  1  0  0  0
  8  2  1  0  0  0  0
 13  5  1  0  0  0  0
 14  5  1  0  0  0  0
 16 18  1  0  0  0  0
 16  1  1  0  0  0  0
 16 19  1  0  0  0  0
 17 16  1  0  0  0  0
 19 20  1  0  0  0  0
 19 21  1  0  0  0  0
 22 23  1  0  0  0  0
 23 29  1  0  0  0  0
 23 24  2  0  0  0  0
 24 19  1  0  0  0  0
 25 24  1  0  0  0  0
 26 25  2  0  0  0  0
 27 22  2  0  0  0  0
 27 26  1  0  0  0  0
 28 22  1  0  0  0  0
 30 26  1  0  0  0  0
 31  6  1  0  0  0  0
 33 32  2  6  0  0  0
 33 31  1  0  0  0  0
 33 34  1  0  0  0  0
 34 35  1  0  0  0  0
 36 33  1  0  0  0  0
 37 36  1  0  0  0  0
 38 39  1  0  0  0  0
 38 37  2  0  0  0  0
 40 41  1  0  0  0  0
 40 38  1  0  0  0  0
 41 43  2  0  0  0  0
 42 41  1  0  0  0  0
 43 37  1  0  0  0  0
M  END
>  <minimizedAffinity>
-5.15140963

$$$$

 OpenBabel03252509023D

 43 45  0  0  1  0  0  0  0  0999 V2000
   36.2790   29.7090   38.4580 N   0  0  0  0  0  0  0  0  0  0  0  0
   35.1780   29.0780   37.8210 C   0  0  0  0  0  0  0  0  0  0  0  0
   35.1110   29.2690   36.3220 C   0  0  0  0  0  0  0  0  0  0  0  0
   36.4480   29.3900   35.6400 C   0  0  0  0  0  0  0  0  0  0  0  0
   37.5780   29.1490   36.6140 C   0  0  0  0  0  0  0  0  0  0  0  0
   37.3290   30.2350   37.7240 C   0  0  2  0  0  0  0  0  0  0  0  0
   34.1890   29.3220   38.2240 H   0  0  0  0  0  0  0  0  0  0  0  0
   35.3130   27.9760   38.0080 H   0  0  0  0  0  0  0  0  0  0  0  0
   34.4400   30.1290   36.0630 H   0  0  0  0  0  0  0  0  0  0  0  0
   34.6100   28.3780   35.8880 H   0  0  0  0  0  0  0  0  0  0  0  0
   36.5450   30.4440   35.3040 H   0  0  0  0  0  0  0  0  0  0  0  0
   36.5150   28.7610   34.7360 H   0  0  0  0  0  0  0  0  0  0  0  0
   37.4420   28.1470   37.0340 H   0  0  0  0  0  0  0  0  0  0  0  0
   38.5420   29.3380   36.1340 H   0  0  0  0  0  0  0  0  0  0  0  0
   37.1460   31.1890   37.1890 H   0  0  0  0  0  0  0  0  0  0  0  0
   35.9670   30.2920   39.7290 C   0  0  0  0  0  0  0  0  0  0  0  0
   35.1730   31.0600   39.6150 H   0  0  0  0  0  0  0  0  0  0  0  0
   36.8840   30.8100   40.0980 H   0  0  0  0  0  0  0  0  0  0  0  0
   35.5310   29.2130   40.6660 C   0  0  0  0  0  0  0  0  0  0  0  0
   34.6070   29.4330   41.2050 H   0  0  0  0  0  0  0  0  0  0  0  0
   35.3700   28.2490   40.1060 H   0  0  0  0  0  0  0  0  0  0  0  0
   37.6950   27.4240   43.1650 C   0  0  0  0  0  0  0  0  0  0  0  0
   36.6530   27.7070   42.2620 C   0  0  0  0  0  0  0  0  0  0  0  0
   36.6360   28.9230   41.6170 C   0  0  0  0  0  0  0  0  0  0  0  0
   37.6290   29.7870   41.8860 N   0  0  0  0  0  0  0  0  0  0  0  0
   38.6190   29.5070   42.7490 C   0  0  0  0  0  0  0  0  0  0  0  0
   38.6650   28.3290   43.3960 N   0  0  0  0  0  0  0  0  0  0  0  0
   37.6960   26.4560   43.6690 H   0  0  0  0  0  0  0  0  0  0  0  0
   35.9060   26.9360   42.1220 H   0  0  0  0  0  0  0  0  0  0  0  0
   39.3170   30.3290   42.8260 H   0  0  0  0  0  0  0  0  0  0  0  0
   38.5230   30.1970   38.4270 O   0  0  0  0  0  0  0  0  0  0  0  0
   38.5360   32.7620   39.1250 O   0  0  0  0  0  0  0  0  0  0  0  0
   39.3370   31.6670   38.4130 P   0  0  2  0  0  0  0  0  0  0  0  0
   39.3930   32.1620   36.7770 O   0  0  0  0  0  0  0  0  0  0  0  0
   39.5820   31.3830   36.2030 H   0  0  0  0  0  0  0  0  0  0  0  0
   40.8950   31.5360   38.9660 O   0  0  0  0  0  0  0  0  0  0  0  0
   41.9470   32.3660   38.6100 C   0  0  0  0  0  0  0  0  0  0  0  0
   43.3460   32.1770   38.9230 C   0  0  0  0  0  0  0  0  0  0  0  0
   43.5750   31.2340   39.5290 H   0  0  0  0  0  0  0  0  0  0  0  0
   44.1080   33.7030   38.1050 S   0  0  0  0  0  0  0  0  0  0  0  0
   42.3900   34.2620   37.5200 C   0  0  0  0  0  0  0  0  0  0  0  0
   42.3680   35.1990   36.9490 H   0  0  0  0  0  0  0  0  0  0  0  0
   41.6250   33.4480   37.9070 N   0  0  0  0  0  0  0  0  0  0  0  0
  1 16  1  0  0  0  0
  2  8  1  0  0  0  0
  2  7  1  0  0  0  0
  2  1  1  0  0  0  0
  3  2  1  0  0  0  0
  4  3  1  0  0  0  0
  4  5  1  0  0  0  0
  5 13  1  0  0  0  0
  5  6  1  0  0  0  0
  6 15  1  6  0  0  0
  6 31  1  0  0  0  0
  6  1  1  0  0  0  0
  9  3  1  0  0  0  0
 10  3  1  0  0  0  0
 11  4  1  0  0  0  0
 12  4  1  0  0  0  0
 14  5  1  0  0  0  0
 16 18  1  0  0  0  0
 16 19  1  0  0  0  0
 17 16  1  0  0  0  0
 19 20  1  0  0  0  0
 19 24  1  0  0  0  0
 21 19  1  0  0  0  0
 22 27  1  0  0  0  0
 22 28  1  0  0  0  0
 23 22  2  0  0  0  0
 24 25  2  0  0  0  0
 24 23  1  0  0  0  0
 25 26  1  0  0  0  0
 26 30  1  0  0  0  0
 26 27  2  0  0  0  0
 29 23  1  0  0  0  0
 33 31  1  0  0  0  0
 33 36  1  0  0  0  0
 33 32  2  1  0  0  0
 34 33  1  0  0  0  0
 35 34  1  0  0  0  0
 37 38  2  0  0  0  0
 37 36  1  0  0  0  0
 38 39  1  0  0  0  0
 40 38  1  0  0  0  0
 41 43  2  0  0  0  0
 41 40  1  0  0  0  0
 42 41  1  0  0  0  0
 43 37  1  0  0  0  0
M  END
>  <minimizedAffinity>
-5.0823493

$$$$

 OpenBabel03252509023D

 43 45  0  0  1  0  0  0  0  0999 V2000
   37.6620   28.5660   38.3600 N   0  0  0  0  0  0  0  0  0  0  0  0
   37.1160   27.4600   37.6570 C   0  0  0  0  0  0  0  0  0  0  0  0
   35.6140   27.3110   37.7660 C   0  0  0  0  0  0  0  0  0  0  0  0
   34.8580   28.6060   37.8970 C   0  0  0  0  0  0  0  0  0  0  0  0
   35.7840   29.7920   37.7480 C   0  0  0  0  0  0  0  0  0  0  0  0
   36.8480   29.5580   38.8820 C   0  0  2  0  0  0  0  0  0  0  0  0
   37.5560   26.4840   37.8880 H   0  0  0  0  0  0  0  0  0  0  0  0
   37.3520   27.6450   36.5720 H   0  0  0  0  0  0  0  0  0  0  0  0
   35.3470   26.5960   38.5870 H   0  0  0  0  0  0  0  0  0  0  0  0
   35.2530   26.8230   36.8360 H   0  0  0  0  0  0  0  0  0  0  0  0
   34.4640   28.6470   38.9350 H   0  0  0  0  0  0  0  0  0  0  0  0
   33.9860   28.6520   37.2230 H   0  0  0  0  0  0  0  0  0  0  0  0
   36.2610   29.7150   36.7650 H   0  0  0  0  0  0  0  0  0  0  0  0
   35.2450   30.7230   37.9440 H   0  0  0  0  0  0  0  0  0  0  0  0
   36.2740   29.3130   39.7990 H   0  0  0  0  0  0  0  0  0  0  0  0
   38.9150   28.2970   38.9990 C   0  0  0  0  0  0  0  0  0  0  0  0
   39.2540   29.1860   39.5710 H   0  0  0  0  0  0  0  0  0  0  0  0
   39.6680   28.1060   38.1980 H   0  0  0  0  0  0  0  0  0  0  0  0
   38.7580   27.1150   39.8990 C   0  0  0  0  0  0  0  0  0  0  0  0
   38.1090   26.3310   39.5010 H   0  0  0  0  0  0  0  0  0  0  0  0
   39.7600   26.6450   40.1080 H   0  0  0  0  0  0  0  0  0  0  0  0
   36.5990   27.5230   42.9480 C   0  0  0  0  0  0  0  0  0  0  0  0
   37.0700   27.0900   41.6950 C   0  0  0  0  0  0  0  0  0  0  0  0
   38.2680   27.5780   41.2240 C   0  0  0  0  0  0  0  0  0  0  0  0
   38.9330   28.4530   41.9960 N   0  0  0  0  0  0  0  0  0  0  0  0
   38.4750   28.8590   43.1910 C   0  0  0  0  0  0  0  0  0  0  0  0
   37.3080   28.4020   43.6800 N   0  0  0  0  0  0  0  0  0  0  0  0
   35.6470   27.1280   43.3090 H   0  0  0  0  0  0  0  0  0  0  0  0
   36.4510   26.3830   41.1580 H   0  0  0  0  0  0  0  0  0  0  0  0
   39.1540   29.5620   43.6540 H   0  0  0  0  0  0  0  0  0  0  0  0
   37.4890   30.7870   38.9230 O   0  0  0  0  0  0  0  0  0  0  0  0
   36.1860   30.9370   41.2350 O   0  0  0  0  0  0  0  0  0  0  0  0
   37.2970   31.5750   40.3940 P   0  0  2  0  0  0  0  0  0  0  0  0
   36.7170   33.1400   40.0200 O   0  0  0  0  0  0  0  0  0  0  0  0
   37.1900   33.4870   39.2280 H   0  0  0  0  0  0  0  0  0  0  0  0
   38.7270   31.7380   41.2190 O   0  0  0  0  0  0  0  0  0  0  0  0
   39.8440   32.4220   40.7640 C   0  0  0  0  0  0  0  0  0  0  0  0
   41.2260   32.0280   40.9230 C   0  0  0  0  0  0  0  0  0  0  0  0
   41.3790   31.0450   41.4890 H   0  0  0  0  0  0  0  0  0  0  0  0
   42.1100   33.4540   40.0500 S   0  0  0  0  0  0  0  0  0  0  0  0
   40.4390   34.2670   39.6610 C   0  0  0  0  0  0  0  0  0  0  0  0
   40.4930   35.2140   39.1070 H   0  0  0  0  0  0  0  0  0  0  0  0
   39.6090   33.5590   40.1150 N   0  0  0  0  0  0  0  0  0  0  0  0
  1  6  1  0  0  0  0
  1 16  1  0  0  0  0
  2  3  1  0  0  0  0
  2  7  1  0  0  0  0
  2  1  1  0  0  0  0
  3  4  1  0  0  0  0
  3  9  1  0  0  0  0
  4 11  1  0  0  0  0
  5  4  1  0  0  0  0
  5 14  1  0  0  0  0
  5  6  1  0  0  0  0
  6 31  1  0  0  0  0
  6 15  1  1  0  0  0
  8  2  1  0  0  0  0
 10  3  1  0  0  0  0
 12  4  1  0  0  0  0
 13  5  1  0  0  0  0
 16 17  1  0  0  0  0
 16 19  1  0  0  0  0
 18 16  1  0  0  0  0
 19 21  1  0  0  0  0
 19 24  1  0  0  0  0
 20 19  1  0  0  0  0
 22 28  1  0  0  0  0
 22 27  1  0  0  0  0
 23 22  2  0  0  0  0
 24 23  1  0  0  0  0
 24 25  2  0  0  0  0
 25 26  1  0  0  0  0
 26 30  1  0  0  0  0
 26 27  2  0  0  0  0
 29 23  1  0  0  0  0
 31 33  1  0  0  0  0
 33 36  1  0  0  0  0
 33 32  2  1  0  0  0
 34 33  1  0  0  0  0
 35 34  1  0  0  0  0
 37 38  2  0  0  0  0
 37 36  1  0  0  0  0
 38 39  1  0  0  0  0
 40 38  1  0  0  0  0
 41 40  1  0  0  0  0
 41 43  2  0  0  0  0
 42 41  1  0  0  0  0
 43 37  1  0  0  0  0
M  END
>  <minimizedAffinity>
-5.01407242

$$$$

 OpenBabel03252509023D

 43 45  0  0  1  0  0  0  0  0999 V2000
   38.0050   27.8490   42.9540 N   0  0  0  0  0  0  0  0  0  0  0  0
   39.1400   27.3220   43.6240 C   0  0  0  0  0  0  0  0  0  0  0  0
   40.4740   27.8150   43.1070 C   0  0  0  0  0  0  0  0  0  0  0  0
   40.4640   29.2210   42.5710 C   0  0  0  0  0  0  0  0  0  0  0  0
   39.1240   29.8810   42.8050 C   0  0  0  0  0  0  0  0  0  0  0  0
   38.1190   28.9150   42.0770 C   0  0  2  0  0  0  0  0  0  0  0  0
   39.1970   26.2300   43.6790 H   0  0  0  0  0  0  0  0  0  0  0  0
   39.0500   27.6710   44.6910 H   0  0  0  0  0  0  0  0  0  0  0  0
   40.8980   27.0950   42.3600 H   0  0  0  0  0  0  0  0  0  0  0  0
   41.1930   27.8000   43.9540 H   0  0  0  0  0  0  0  0  0  0  0  0
   40.5870   29.1480   41.4700 H   0  0  0  0  0  0  0  0  0  0  0  0
   41.3110   29.8190   42.9480 H   0  0  0  0  0  0  0  0  0  0  0  0
   38.9370   29.8720   43.8830 H   0  0  0  0  0  0  0  0  0  0  0  0
   39.0930   30.8630   42.3240 H   0  0  0  0  0  0  0  0  0  0  0  0
   38.5580   28.7060   41.0800 H   0  0  0  0  0  0  0  0  0  0  0  0
   36.9480   26.9040   42.7550 C   0  0  0  0  0  0  0  0  0  0  0  0
   36.2020   27.3060   42.0380 H   0  0  0  0  0  0  0  0  0  0  0  0
   36.4310   26.7630   43.7340 H   0  0  0  0  0  0  0  0  0  0  0  0
   37.5300   25.6230   42.2520 C   0  0  0  0  0  0  0  0  0  0  0  0
   38.6180   25.6300   42.1590 H   0  0  0  0  0  0  0  0  0  0  0  0
   37.2590   24.7720   42.9390 H   0  0  0  0  0  0  0  0  0  0  0  0
   35.8390   23.6660   39.5240 C   0  0  0  0  0  0  0  0  0  0  0  0
   36.4410   23.9970   40.7520 C   0  0  0  0  0  0  0  0  0  0  0  0
   36.8960   25.2810   40.9510 C   0  0  0  0  0  0  0  0  0  0  0  0
   36.7390   26.1620   39.9490 N   0  0  0  0  0  0  0  0  0  0  0  0
   36.1640   25.8350   38.7810 C   0  0  0  0  0  0  0  0  0  0  0  0
   35.7090   24.5910   38.5540 N   0  0  0  0  0  0  0  0  0  0  0  0
   35.4830   22.6440   39.3810 H   0  0  0  0  0  0  0  0  0  0  0  0
   36.5150   23.2080   41.4880 H   0  0  0  0  0  0  0  0  0  0  0  0
   36.1320   26.6820   38.1080 H   0  0  0  0  0  0  0  0  0  0  0  0
   36.9660   29.6830   42.0410 O   0  0  0  0  0  0  0  0  0  0  0  0
   35.0200   29.4740   40.2430 O   0  0  0  0  0  0  0  0  0  0  0  0
   36.4400   30.0010   40.4780 P   0  0  2  0  0  0  0  0  0  0  0  0
   37.4300   29.0640   39.4450 O   0  0  0  0  0  0  0  0  0  0  0  0
   38.3620   29.0930   39.7660 H   0  0  0  0  0  0  0  0  0  0  0  0
   36.6200   31.5960   40.0590 O   0  0  0  0  0  0  0  0  0  0  0  0
   37.8280   32.2710   39.9660 C   0  0  0  0  0  0  0  0  0  0  0  0
   38.0460   33.6880   40.1540 C   0  0  0  0  0  0  0  0  0  0  0  0
   37.1020   34.2860   40.4040 H   0  0  0  0  0  0  0  0  0  0  0  0
   39.9110   33.8080   39.8630 S   0  0  0  0  0  0  0  0  0  0  0  0
   39.9950   31.9360   39.5540 C   0  0  0  0  0  0  0  0  0  0  0  0
   40.9930   31.5400   39.3260 H   0  0  0  0  0  0  0  0  0  0  0  0
   38.8910   31.5290   39.6720 N   0  0  0  0  0  0  0  0  0  0  0  0
  1  2  1  0  0  0  0
  2  7  1  0  0  0  0
  2  8  1  0  0  0  0
  3  2  1  0  0  0  0
  3 10  1  0  0  0  0
  4  5  1  0  0  0  0
  4 12  1  0  0  0  0
  4  3  1  0  0  0  0
  5 13  1  0  0  0  0
  6 15  1  6  0  0  0
  6  5  1  0  0  0  0
  6  1  1  0  0  0  0
  9  3  1  0  0  0  0
 11  4  1  0  0  0  0
 14  5  1  0  0  0  0
 16  1  1  0  0  0  0
 16 18  1  0  0  0  0
 17 16  1  0  0  0  0
 19 16  1  0  0  0  0
 19 21  1  0  0  0  0
 20 19  1  0  0  0  0
 22 23  1  0  0  0  0
 23 24  2  0  0  0  0
 23 29  1  0  0  0  0
 24 19  1  0  0  0  0
 25 24  1  0  0  0  0
 26 25  2  0  0  0  0
 27 26  1  0  0  0  0
 27 22  2  0  0  0  0
 28 22  1  0  0  0  0
 30 26  1  0  0  0  0
 31  6  1  0  0  0  0
 33 32  2  6  0  0  0
 33 31  1  0  0  0  0
 34 35  1  0  0  0  0
 34 33  1  0  0  0  0
 36 33  1  0  0  0  0
 37 36  1  0  0  0  0
 37 38  2  0  0  0  0
 38 39  1  0  0  0  0
 40 38  1  0  0  0  0
 41 43  2  0  0  0  0
 41 40  1  0  0  0  0
 42 41  1  0  0  0  0
 43 37  1  0  0  0  0
M  END
>  <minimizedAffinity>
-5.00112009

$$$$

 OpenBabel03252509023D

 43 45  0  0  1  0  0  0  0  0999 V2000
   36.4310   29.9720   39.5650 N   0  0  0  0  0  0  0  0  0  0  0  0
   36.5250   30.1410   38.1580 C   0  0  0  0  0  0  0  0  0  0  0  0
   37.2550   29.0350   37.4290 C   0  0  0  0  0  0  0  0  0  0  0  0
   37.1140   27.6700   38.0450 C   0  0  0  0  0  0  0  0  0  0  0  0
   36.1400   27.6940   39.2020 C   0  0  0  0  0  0  0  0  0  0  0  0
   36.7610   28.7690   40.1670 C   0  0  2  0  0  0  0  0  0  0  0  0
   36.9520   31.0910   37.8190 H   0  0  0  0  0  0  0  0  0  0  0  0
   35.4630   30.1400   37.7830 H   0  0  0  0  0  0  0  0  0  0  0  0
   38.3320   29.3070   37.2760 H   0  0  0  0  0  0  0  0  0  0  0  0
   36.8320   28.9680   36.4030 H   0  0  0  0  0  0  0  0  0  0  0  0
   38.1030   27.4060   38.4770 H   0  0  0  0  0  0  0  0  0  0  0  0
   36.8770   26.8940   37.2980 H   0  0  0  0  0  0  0  0  0  0  0  0
   35.1800   28.0500   38.8140 H   0  0  0  0  0  0  0  0  0  0  0  0
   36.1210   26.7240   39.7050 H   0  0  0  0  0  0  0  0  0  0  0  0
   37.8390   28.5230   40.2520 H   0  0  0  0  0  0  0  0  0  0  0  0
   36.5860   31.1830   40.3140 C   0  0  0  0  0  0  0  0  0  0  0  0
   37.3370   31.0430   41.1200 H   0  0  0  0  0  0  0  0  0  0  0  0
   35.6080   31.4060   40.8020 H   0  0  0  0  0  0  0  0  0  0  0  0
   37.0000   32.2790   39.3870 C   0  0  0  0  0  0  0  0  0  0  0  0
   36.8990   32.0330   38.3280 H   0  0  0  0  0  0  0  0  0  0  0  0
   36.3870   33.2040   39.5750 H   0  0  0  0  0  0  0  0  0  0  0  0
   39.9440   34.2790   40.5960 C   0  0  0  0  0  0  0  0  0  0  0  0
   38.6240   33.8960   40.2950 C   0  0  0  0  0  0  0  0  0  0  0  0
   38.3980   32.6750   39.7010 C   0  0  0  0  0  0  0  0  0  0  0  0
   39.4650   31.9020   39.4370 N   0  0  0  0  0  0  0  0  0  0  0  0
   40.7210   32.2770   39.7280 C   0  0  0  0  0  0  0  0  0  0  0  0
   40.9760   33.4630   40.3080 N   0  0  0  0  0  0  0  0  0  0  0  0
   40.1080   35.2500   41.0670 H   0  0  0  0  0  0  0  0  0  0  0  0
   37.8420   34.5980   40.5530 H   0  0  0  0  0  0  0  0  0  0  0  0
   41.4350   31.5180   39.4380 H   0  0  0  0  0  0  0  0  0  0  0  0
   36.0360   28.5550   41.3290 O   0  0  0  0  0  0  0  0  0  0  0  0
   36.1520   27.3190   43.6790 O   0  0  0  0  0  0  0  0  0  0  0  0
   36.9890   28.0250   42.6070 P   0  0  2  0  0  0  0  0  0  0  0  0
   37.5800   29.4360   43.3740 O   0  0  0  0  0  0  0  0  0  0  0  0
   37.8330   30.1000   42.6920 H   0  0  0  0  0  0  0  0  0  0  0  0
   38.2900   27.1290   42.1010 O   0  0  0  0  0  0  0  0  0  0  0  0
   38.2280   25.8440   41.5830 C   0  0  0  0  0  0  0  0  0  0  0  0
   39.2960   25.1210   40.9300 C   0  0  0  0  0  0  0  0  0  0  0  0
   40.2810   25.6970   40.8470 H   0  0  0  0  0  0  0  0  0  0  0  0
   38.4300   23.4870   40.5280 S   0  0  0  0  0  0  0  0  0  0  0  0
   36.8280   24.1270   41.3220 C   0  0  0  0  0  0  0  0  0  0  0  0
   35.9830   23.4270   41.3060 H   0  0  0  0  0  0  0  0  0  0  0  0
   37.0600   25.2210   41.7050 N   0  0  0  0  0  0  0  0  0  0  0  0
  1  6  1  0  0  0  0
  1 16  1  0  0  0  0
  2  1  1  0  0  0  0
  3  4  1  0  0  0  0
  3  2  1  0  0  0  0
  4 11  1  0  0  0  0
  4  5  1  0  0  0  0
  5 14  1  0  0  0  0
  5  6  1  0  0  0  0
  6 15  1  1  0  0  0
  6 31  1  0  0  0  0
  7  2  1  0  0  0  0
  8  2  1  0  0  0  0
  9  3  1  0  0  0  0
 10  3  1  0  0  0  0
 12  4  1  0  0  0  0
 13  5  1  0  0  0  0
 16 18  1  0  0  0  0
 16 17  1  0  0  0  0
 19 21  1  0  0  0  0
 19 24  1  0  0  0  0
 19 16  1  0  0  0  0
 20 19  1  0  0  0  0
 22 28  1  0  0  0  0
 23 29  1  0  0  0  0
 23 22  2  0  0  0  0
 24 23  1  0  0  0  0
 25 24  2  0  0  0  0
 25 26  1  0  0  0  0
 26 27  2  0  0  0  0
 27 22  1  0  0  0  0
 30 26  1  0  0  0  0
 31 33  1  0  0  0  0
 33 34  1  0  0  0  0
 33 32  2  1  0  0  0
 35 34  1  0  0  0  0
 36 33  1  0  0  0  0
 37 43  1  0  0  0  0
 37 36  1  0  0  0  0
 38 37  2  0  0  0  0
 39 38  1  0  0  0  0
 40 38  1  0  0  0  0
 40 41  1  0  0  0  0
 41 43  2  0  0  0  0
 42 41  1  0  0  0  0
M  END
>  <minimizedAffinity>
-4.96639633

$$$$

 OpenBabel03252509023D

 43 45  0  0  1  0  0  0  0  0999 V2000
   38.8350   28.7980   42.6470 N   0  0  0  0  0  0  0  0  0  0  0  0
   39.7980   27.9370   43.2370 C   0  0  0  0  0  0  0  0  0  0  0  0
   41.1840   28.0220   42.6370 C   0  0  0  0  0  0  0  0  0  0  0  0
   41.5650   29.3810   42.1150 C   0  0  0  0  0  0  0  0  0  0  0  0
   40.5020   30.4050   42.4410 C   0  0  0  0  0  0  0  0  0  0  0  0
   39.2110   29.8040   41.7730 C   0  0  2  0  0  0  0  0  0  0  0  0
   39.5270   26.8770   43.2790 H   0  0  0  0  0  0  0  0  0  0  0  0
   39.8800   28.2680   44.3100 H   0  0  0  0  0  0  0  0  0  0  0  0
   41.3270   27.2290   41.8580 H   0  0  0  0  0  0  0  0  0  0  0  0
   41.9150   27.7700   43.4350 H   0  0  0  0  0  0  0  0  0  0  0  0
   41.5940   29.3050   41.0070 H   0  0  0  0  0  0  0  0  0  0  0  0
   42.5740   29.6880   42.4400 H   0  0  0  0  0  0  0  0  0  0  0  0
   40.3860   30.4230   43.5290 H   0  0  0  0  0  0  0  0  0  0  0  0
   40.7380   31.3640   41.9710 H   0  0  0  0  0  0  0  0  0  0  0  0
   39.5060   29.5010   40.7470 H   0  0  0  0  0  0  0  0  0  0  0  0
   37.5330   28.2180   42.5100 C   0  0  0  0  0  0  0  0  0  0  0  0
   37.1500   28.3730   41.4790 H   0  0  0  0  0  0  0  0  0  0  0  0
   36.8480   28.7550   43.2070 H   0  0  0  0  0  0  0  0  0  0  0  0
   37.6130   26.7610   42.8320 C   0  0  0  0  0  0  0  0  0  0  0  0
   38.6030   26.4260   43.1500 H   0  0  0  0  0  0  0  0  0  0  0  0
   36.8920   26.5020   43.6570 H   0  0  0  0  0  0  0  0  0  0  0  0
   36.4900   23.8800   40.6950 C   0  0  0  0  0  0  0  0  0  0  0  0
   36.9300   24.6280   41.8030 C   0  0  0  0  0  0  0  0  0  0  0  0
   37.1480   25.9790   41.6560 C   0  0  0  0  0  0  0  0  0  0  0  0
   36.9250   26.5200   40.4470 N   0  0  0  0  0  0  0  0  0  0  0  0
   36.5050   25.7980   39.3970 C   0  0  0  0  0  0  0  0  0  0  0  0
   36.2830   24.4760   39.5060 N   0  0  0  0  0  0  0  0  0  0  0  0
   36.3220   22.8100   40.8270 H   0  0  0  0  0  0  0  0  0  0  0  0
   37.0770   24.0880   42.7290 H   0  0  0  0  0  0  0  0  0  0  0  0
   36.3850   26.4160   38.5170 H   0  0  0  0  0  0  0  0  0  0  0  0
   38.3420   30.8830   41.8190 O   0  0  0  0  0  0  0  0  0  0  0  0
   39.1900   32.5390   39.9200 O   0  0  0  0  0  0  0  0  0  0  0  0
   38.0690   31.5680   40.3090 P   0  0  2  0  0  0  0  0  0  0  0  0
   36.6800   32.5510   40.4790 O   0  0  0  0  0  0  0  0  0  0  0  0
   36.0150   32.0880   41.0390 H   0  0  0  0  0  0  0  0  0  0  0  0
   37.7580   30.4310   39.1420 O   0  0  0  0  0  0  0  0  0  0  0  0
   36.5220   29.8540   38.8920 C   0  0  0  0  0  0  0  0  0  0  0  0
   36.0280   29.3810   37.6180 C   0  0  0  0  0  0  0  0  0  0  0  0
   36.7570   29.5130   36.7450 H   0  0  0  0  0  0  0  0  0  0  0  0
   34.3120   28.7530   38.1080 S   0  0  0  0  0  0  0  0  0  0  0  0
   34.6290   29.2580   39.9110 C   0  0  0  0  0  0  0  0  0  0  0  0
   33.8080   29.0520   40.6090 H   0  0  0  0  0  0  0  0  0  0  0  0
   35.7140   29.7250   39.9400 N   0  0  0  0  0  0  0  0  0  0  0  0
  1  2  1  0  0  0  0
  2  7  1  0  0  0  0
  2  8  1  0  0  0  0
  3  2  1  0  0  0  0
  3 10  1  0  0  0  0
  4 12  1  0  0  0  0
  4  5  1  0  0  0  0
  4  3  1  0  0  0  0
  5 13  1  0  0  0  0
  6 15  1  6  0  0  0
  6 31  1  0  0  0  0
  6  5  1  0  0  0  0
  6  1  1  0  0  0  0
  9  3  1  0  0  0  0
 11  4  1  0  0  0  0
 14  5  1  0  0  0  0
 16  1  1  0  0  0  0
 16 19  1  0  0  0  0
 16 18  1  0  0  0  0
 17 16  1  0  0  0  0
 19 20  1  0  0  0  0
 19 21  1  0  0  0  0
 22 28  1  0  0  0  0
 22 23  1  0  0  0  0
 23 29  1  0  0  0  0
 24 23  2  0  0  0  0
 24 19  1  0  0  0  0
 25 24  1  0  0  0  0
 26 27  1  0  0  0  0
 26 25  2  0  0  0  0
 27 22  2  0  0  0  0
 30 26  1  0  0  0  0
 33 32  2  6  0  0  0
 33 34  1  0  0  0  0
 33 31  1  0  0  0  0
 34 35  1  0  0  0  0
 36 33  1  0  0  0  0
 37 36  1  0  0  0  0
 37 43  1  0  0  0  0
 38 40  1  0  0  0  0
 38 37  2  0  0  0  0
 39 38  1  0  0  0  0
 40 41  1  0  0  0  0
 41 43  2  0  0  0  0
 41 42  1  0  0  0  0
M  END
>  <minimizedAffinity>
-4.96548367

$$$$

 OpenBabel03252509023D

 43 45  0  0  1  0  0  0  0  0999 V2000
   37.2920   28.9690   39.4620 N   0  0  0  0  0  0  0  0  0  0  0  0
   36.5330   28.1380   38.5970 C   0  0  0  0  0  0  0  0  0  0  0  0
   35.9170   28.8450   37.4100 C   0  0  0  0  0  0  0  0  0  0  0  0
   36.7170   30.0050   36.8790 C   0  0  0  0  0  0  0  0  0  0  0  0
   38.0490   30.1130   37.5860 C   0  0  0  0  0  0  0  0  0  0  0  0
   37.6400   30.2580   39.0970 C   0  0  2  0  0  0  0  0  0  0  0  0
   35.7390   27.5520   39.0730 H   0  0  0  0  0  0  0  0  0  0  0  0
   37.2600   27.3810   38.1900 H   0  0  0  0  0  0  0  0  0  0  0  0
   34.8600   29.1450   37.6340 H   0  0  0  0  0  0  0  0  0  0  0  0
   35.8330   28.1090   36.5820 H   0  0  0  0  0  0  0  0  0  0  0  0
   36.1540   30.9280   37.1330 H   0  0  0  0  0  0  0  0  0  0  0  0
   36.8110   29.9810   35.7810 H   0  0  0  0  0  0  0  0  0  0  0  0
   38.5800   29.1680   37.4310 H   0  0  0  0  0  0  0  0  0  0  0  0
   38.5780   31.0150   37.2660 H   0  0  0  0  0  0  0  0  0  0  0  0
   36.8420   31.0270   39.1290 H   0  0  0  0  0  0  0  0  0  0  0  0
   37.1390   28.6640   40.8540 C   0  0  0  0  0  0  0  0  0  0  0  0
   36.2940   29.2420   41.2820 H   0  0  0  0  0  0  0  0  0  0  0  0
   38.0690   28.9920   41.3760 H   0  0  0  0  0  0  0  0  0  0  0  0
   36.9120   27.1960   41.0080 C   0  0  0  0  0  0  0  0  0  0  0  0
   35.9060   26.9310   41.3440 H   0  0  0  0  0  0  0  0  0  0  0  0
   37.0880   26.6670   40.0300 H   0  0  0  0  0  0  0  0  0  0  0  0
   39.2150   24.7720   42.7250 C   0  0  0  0  0  0  0  0  0  0  0  0
   38.2470   25.3040   41.8530 C   0  0  0  0  0  0  0  0  0  0  0  0
   37.9350   26.6430   41.9340 C   0  0  0  0  0  0  0  0  0  0  0  0
   38.5800   27.3800   42.8520 N   0  0  0  0  0  0  0  0  0  0  0  0
   39.5020   26.8630   43.6800 C   0  0  0  0  0  0  0  0  0  0  0  0
   39.8300   25.5600   43.6270 N   0  0  0  0  0  0  0  0  0  0  0  0
   39.4520   23.7090   42.6490 H   0  0  0  0  0  0  0  0  0  0  0  0
   37.7910   24.6170   41.1520 H   0  0  0  0  0  0  0  0  0  0  0  0
   39.9030   27.6170   44.3420 H   0  0  0  0  0  0  0  0  0  0  0  0
   38.8360   30.6560   39.6750 O   0  0  0  0  0  0  0  0  0  0  0  0
   39.3430   32.1520   41.8120 O   0  0  0  0  0  0  0  0  0  0  0  0
   38.7410   32.1670   40.4030 P   0  0  2  0  0  0  0  0  0  0  0  0
   37.0750   32.4720   40.6440 O   0  0  0  0  0  0  0  0  0  0  0  0
   36.5670   32.1700   39.8550 H   0  0  0  0  0  0  0  0  0  0  0  0
   39.3530   33.3740   39.4440 O   0  0  0  0  0  0  0  0  0  0  0  0
   40.6510   33.4350   38.9600 C   0  0  0  0  0  0  0  0  0  0  0  0
   41.7680   34.1320   39.5590 C   0  0  0  0  0  0  0  0  0  0  0  0
   41.5210   34.6810   40.5330 H   0  0  0  0  0  0  0  0  0  0  0  0
   43.1440   33.7390   38.3220 S   0  0  0  0  0  0  0  0  0  0  0  0
   41.9270   32.7260   37.2730 C   0  0  0  0  0  0  0  0  0  0  0  0
   42.3500   32.2720   36.3670 H   0  0  0  0  0  0  0  0  0  0  0  0
   40.8840   32.7810   37.8260 N   0  0  0  0  0  0  0  0  0  0  0  0
  1 16  1  0  0  0  0
  2  7  1  0  0  0  0
  2  1  1  0  0  0  0
  3  9  1  0  0  0  0
  3  2  1  0  0  0  0
  4 11  1  0  0  0  0
  4  3  1  0  0  0  0
  4  5  1  0  0  0  0
  5  6  1  0  0  0  0
  6 15  1  1  0  0  0
  6  1  1  0  0  0  0
  6 31  1  0  0  0  0
  8  2  1  0  0  0  0
 10  3  1  0  0  0  0
 12  4  1  0  0  0  0
 13  5  1  0  0  0  0
 14  5  1  0  0  0  0
 16 19  1  0  0  0  0
 16 17  1  0  0  0  0
 16 18  1  0  0  0  0
 19 20  1  0  0  0  0
 19 24  1  0  0  0  0
 21 19  1  0  0  0  0
 22 27  1  0  0  0  0
 23 24  1  0  0  0  0
 23 22  2  0  0  0  0
 24 25  2  0  0  0  0
 25 26  1  0  0  0  0
 26 30  1  0  0  0  0
 27 26  2  0  0  0  0
 28 22  1  0  0  0  0
 29 23  1  0  0  0  0
 31 33  1  0  0  0  0
 33 34  1  0  0  0  0
 33 32  2  1  0  0  0
 35 34  1  0  0  0  0
 36 33  1  0  0  0  0
 37 36  1  0  0  0  0
 37 38  2  0  0  0  0
 38 39  1  0  0  0  0
 40 38  1  0  0  0  0
 41 43  2  0  0  0  0
 41 40  1  0  0  0  0
 42 41  1  0  0  0  0
 43 37  1  0  0  0  0
M  END
>  <minimizedAffinity>
-4.76220036

$$$$

 OpenBabel03252509023D

 43 45  0  0  1  0  0  0  0  0999 V2000
   37.1170   26.7880   41.6270 N   0  0  0  0  0  0  0  0  0  0  0  0
   37.2110   25.3760   41.7410 C   0  0  0  0  0  0  0  0  0  0  0  0
   36.5550   24.5990   40.6210 C   0  0  0  0  0  0  0  0  0  0  0  0
   36.5830   25.2810   39.2790 C   0  0  0  0  0  0  0  0  0  0  0  0
   37.3990   26.5520   39.3320 C   0  0  0  0  0  0  0  0  0  0  0  0
   36.6840   27.3870   40.4570 C   0  0  2  0  0  0  0  0  0  0  0  0
   36.8530   24.9480   42.6840 H   0  0  0  0  0  0  0  0  0  0  0  0
   38.3110   25.1430   41.7050 H   0  0  0  0  0  0  0  0  0  0  0  0
   35.5140   24.2980   40.9060 H   0  0  0  0  0  0  0  0  0  0  0  0
   37.1050   23.6410   40.5040 H   0  0  0  0  0  0  0  0  0  0  0  0
   35.5400   25.5890   39.0520 H   0  0  0  0  0  0  0  0  0  0  0  0
   36.8970   24.6000   38.4690 H   0  0  0  0  0  0  0  0  0  0  0  0
   38.4090   26.2800   39.6540 H   0  0  0  0  0  0  0  0  0  0  0  0
   37.3290   27.0900   38.3830 H   0  0  0  0  0  0  0  0  0  0  0  0
   35.5980   27.3400   40.2340 H   0  0  0  0  0  0  0  0  0  0  0  0
   36.8950   27.4640   42.8700 C   0  0  0  0  0  0  0  0  0  0  0  0
   36.0580   26.9890   43.4220 H   0  0  0  0  0  0  0  0  0  0  0  0
   36.5910   28.5120   42.6360 H   0  0  0  0  0  0  0  0  0  0  0  0
   38.1520   27.4250   43.6770 C   0  0  0  0  0  0  0  0  0  0  0  0
   37.9980   27.5320   44.7530 H   0  0  0  0  0  0  0  0  0  0  0  0
   38.6940   26.4520   43.5120 H   0  0  0  0  0  0  0  0  0  0  0  0
   41.2530   29.0930   42.3600 C   0  0  0  0  0  0  0  0  0  0  0  0
   40.3660   28.1090   42.8360 C   0  0  0  0  0  0  0  0  0  0  0  0
   39.0820   28.4710   43.1750 C   0  0  0  0  0  0  0  0  0  0  0  0
   38.7370   29.7610   43.0300 N   0  0  0  0  0  0  0  0  0  0  0  0
   39.5910   30.6920   42.5750 C   0  0  0  0  0  0  0  0  0  0  0  0
   40.8520   30.3720   42.2360 N   0  0  0  0  0  0  0  0  0  0  0  0
   42.2680   28.7920   42.0960 H   0  0  0  0  0  0  0  0  0  0  0  0
   40.7510   27.1010   42.9130 H   0  0  0  0  0  0  0  0  0  0  0  0
   39.1230   31.6670   42.5310 H   0  0  0  0  0  0  0  0  0  0  0  0
   37.2470   28.6410   40.2770 O   0  0  0  0  0  0  0  0  0  0  0  0
   36.2570   31.0160   40.9430 O   0  0  0  0  0  0  0  0  0  0  0  0
   36.1040   29.8350   39.9780 P   0  0  2  0  0  0  0  0  0  0  0  0
   34.5870   29.1470   40.3680 O   0  0  0  0  0  0  0  0  0  0  0  0
   34.5560   28.2140   40.0490 H   0  0  0  0  0  0  0  0  0  0  0  0
   36.0670   30.2960   38.3850 O   0  0  0  0  0  0  0  0  0  0  0  0
   36.0100   29.4340   37.3000 C   0  0  0  0  0  0  0  0  0  0  0  0
   36.8490   29.4640   36.1230 C   0  0  0  0  0  0  0  0  0  0  0  0
   37.6320   30.2990   36.1170 H   0  0  0  0  0  0  0  0  0  0  0  0
   36.1530   28.0010   35.1460 S   0  0  0  0  0  0  0  0  0  0  0  0
   34.8910   27.6660   36.5250 C   0  0  0  0  0  0  0  0  0  0  0  0
   34.2180   26.8170   36.3510 H   0  0  0  0  0  0  0  0  0  0  0  0
   35.0820   28.4830   37.3570 N   0  0  0  0  0  0  0  0  0  0  0  0
  1  2  1  0  0  0  0
  1 16  1  0  0  0  0
  2  7  1  0  0  0  0
  3  9  1  0  0  0  0
  3  2  1  0  0  0  0
  4  5  1  0  0  0  0
  4  3  1  0  0  0  0
  5 13  1  0  0  0  0
  5  6  1  0  0  0  0
  6 15  1  6  0  0  0
  6  1  1  0  0  0  0
  8  2  1  0  0  0  0
 10  3  1  0  0  0  0
 11  4  1  0  0  0  0
 12  4  1  0  0  0  0
 14  5  1  0  0  0  0
 16 17  1  0  0  0  0
 16 19  1  0  0  0  0
 18 16  1  0  0  0  0
 19 20  1  0  0  0  0
 21 19  1  0  0  0  0
 22 23  1  0  0  0  0
 23 29  1  0  0  0  0
 23 24  2  0  0  0  0
 24 19  1  0  0  0  0
 25 24  1  0  0  0  0
 26 25  2  0  0  0  0
 27 22  2  0  0  0  0
 27 26  1  0  0  0  0
 28 22  1  0  0  0  0
 30 26  1  0  0  0  0
 31  6  1  0  0  0  0
 33 31  1  0  0  0  0
 33 34  1  0  0  0  0
 33 32  2  1  0  0  0
 35 34  1  0  0  0  0
 36 33  1  0  0  0  0
 37 43  1  0  0  0  0
 37 36  1  0  0  0  0
 38 37  2  0  0  0  0
 39 38  1  0  0  0  0
 40 38  1  0  0  0  0
 40 41  1  0  0  0  0
 41 43  2  0  0  0  0
 42 41  1  0  0  0  0
M  END
>  <minimizedAffinity>
-4.75782919

$$$$

 OpenBabel03252509023D

 43 45  0  0  1  0  0  0  0  0999 V2000
   36.1590   28.7970   37.9510 N   0  0  0  0  0  0  0  0  0  0  0  0
   35.0290   28.0350   37.5520 C   0  0  0  0  0  0  0  0  0  0  0  0
   34.2600   28.5990   36.3780 C   0  0  0  0  0  0  0  0  0  0  0  0
   35.0970   29.3430   35.3730 C   0  0  0  0  0  0  0  0  0  0  0  0
   36.5680   29.2360   35.7060 C   0  0  0  0  0  0  0  0  0  0  0  0
   36.6470   29.8240   37.1620 C   0  0  2  0  0  0  0  0  0  0  0  0
   34.3010   27.8130   38.3400 H   0  0  0  0  0  0  0  0  0  0  0  0
   35.4370   27.0360   37.2320 H   0  0  0  0  0  0  0  0  0  0  0  0
   33.3970   29.2200   36.7320 H   0  0  0  0  0  0  0  0  0  0  0  0
   33.7940   27.7480   35.8370 H   0  0  0  0  0  0  0  0  0  0  0  0
   34.8340   30.4190   35.4660 H   0  0  0  0  0  0  0  0  0  0  0  0
   34.8670   29.0480   34.3350 H   0  0  0  0  0  0  0  0  0  0  0  0
   36.8250   28.1720   35.7180 H   0  0  0  0  0  0  0  0  0  0  0  0
   37.1590   29.8620   35.0310 H   0  0  0  0  0  0  0  0  0  0  0  0
   36.0680   30.7700   37.1460 H   0  0  0  0  0  0  0  0  0  0  0  0
   36.3490   28.8670   39.3690 C   0  0  0  0  0  0  0  0  0  0  0  0
   35.5720   29.5110   39.8300 H   0  0  0  0  0  0  0  0  0  0  0  0
   37.3380   29.3500   39.5540 H   0  0  0  0  0  0  0  0  0  0  0  0
   36.2980   27.4850   39.9360 C   0  0  0  0  0  0  0  0  0  0  0  0
   35.2900   27.0760   40.0290 H   0  0  0  0  0  0  0  0  0  0  0  0
   36.8890   26.7750   39.2920 H   0  0  0  0  0  0  0  0  0  0  0  0
   38.5590   26.4610   42.7590 C   0  0  0  0  0  0  0  0  0  0  0  0
   37.8990   26.4770   41.5160 C   0  0  0  0  0  0  0  0  0  0  0  0
   36.9900   27.4770   41.2520 C   0  0  0  0  0  0  0  0  0  0  0  0
   36.7790   28.3970   42.2070 N   0  0  0  0  0  0  0  0  0  0  0  0
   37.4130   28.3730   43.3900 C   0  0  0  0  0  0  0  0  0  0  0  0
   38.3060   27.4100   43.6800 N   0  0  0  0  0  0  0  0  0  0  0  0
   39.2760   25.6620   42.9550 H   0  0  0  0  0  0  0  0  0  0  0  0
   38.1480   25.6850   40.8220 H   0  0  0  0  0  0  0  0  0  0  0  0
   37.1050   29.1970   44.0180 H   0  0  0  0  0  0  0  0  0  0  0  0
   38.0130   29.9970   37.3220 O   0  0  0  0  0  0  0  0  0  0  0  0
   37.2560   32.3240   38.3590 O   0  0  0  0  0  0  0  0  0  0  0  0
   38.4310   31.5730   37.7230 P   0  0  2  0  0  0  0  0  0  0  0  0
   38.7130   32.3800   36.2410 O   0  0  0  0  0  0  0  0  0  0  0  0
   39.2030   31.7830   35.6290 H   0  0  0  0  0  0  0  0  0  0  0  0
   39.8200   31.6530   38.6270 O   0  0  0  0  0  0  0  0  0  0  0  0
   39.9380   31.2690   39.9540 C   0  0  0  0  0  0  0  0  0  0  0  0
   39.9240   32.1360   41.1110 C   0  0  0  0  0  0  0  0  0  0  0  0
   39.8010   33.2480   40.8720 H   0  0  0  0  0  0  0  0  0  0  0  0
   40.1330   30.8760   42.5070 S   0  0  0  0  0  0  0  0  0  0  0  0
   40.1930   29.4630   41.2390 C   0  0  0  0  0  0  0  0  0  0  0  0
   40.3180   28.4570   41.6610 H   0  0  0  0  0  0  0  0  0  0  0  0
   40.0790   29.9650   40.1750 N   0  0  0  0  0  0  0  0  0  0  0  0
  1 16  1  0  0  0  0
  2  1  1  0  0  0  0
  2  7  1  0  0  0  0
  3  9  1  0  0  0  0
  3  2  1  0  0  0  0
  4 11  1  0  0  0  0
  4  5  1  0  0  0  0
  4  3  1  0  0  0  0
  5 13  1  0  0  0  0
  5  6  1  0  0  0  0
  6 15  1  1  0  0  0
  6 31  1  0  0  0  0
  6  1  1  0  0  0  0
  8  2  1  0  0  0  0
 10  3  1  0  0  0  0
 12  4  1  0  0  0  0
 14  5  1  0  0  0  0
 16 18  1  0  0  0  0
 16 17  1  0  0  0  0
 16 19  1  0  0  0  0
 19 20  1  0  0  0  0
 19 24  1  0  0  0  0
 21 19  1  0  0  0  0
 22 28  1  0  0  0  0
 22 27  1  0  0  0  0
 23 22  2  0  0  0  0
 24 23  1  0  0  0  0
 24 25  2  0  0  0  0
 25 26  1  0  0  0  0
 26 27  2  0  0  0  0
 26 30  1  0  0  0  0
 29 23  1  0  0  0  0
 31 33  1  0  0  0  0
 33 32  2  1  0  0  0
 33 36  1  0  0  0  0
 34 33  1  0  0  0  0
 35 34  1  0  0  0  0
 36 37  1  0  0  0  0
 37 43  1  0  0  0  0
 37 38  2  0  0  0  0
 38 40  1  0  0  0  0
 39 38  1  0  0  0  0
 41 42  1  0  0  0  0
 41 40  1  0  0  0  0
 43 41  2  0  0  0  0
M  END
>  <minimizedAffinity>
-4.75345755

$$$$
