
 OpenBabel03252506053D

 41 45  0  0  0  0  0  0  0  0999 V2000
   44.7970   35.9760   43.3320 Cl  0  0  0  0  0  0  0  0  0  0  0  0
   45.5390   34.7310   44.2670 C   0  0  0  0  0  0  0  0  0  0  0  0
   46.6400   34.0440   43.7730 C   0  0  0  0  0  0  0  0  0  0  0  0
   47.1620   33.0700   44.6030 C   0  0  0  0  0  0  0  0  0  0  0  0
   46.6620   32.7510   45.8570 C   0  0  0  0  0  0  0  0  0  0  0  0
   45.5720   33.4500   46.3140 C   0  0  0  0  0  0  0  0  0  0  0  0
   44.9780   33.0130   47.9020 Cl  0  0  0  0  0  0  0  0  0  0  0  0
   45.0190   34.4320   45.5220 C   0  0  0  0  0  0  0  0  0  0  0  0
   48.0230   32.5500   44.1890 H   0  0  0  0  0  0  0  0  0  0  0  0
   44.1620   34.9710   45.8970 H   0  0  0  0  0  0  0  0  0  0  0  0
   47.3560   31.6860   46.5820 C   0  0  0  0  0  0  0  0  0  0  0  0
   47.4660   30.4060   46.1100 C   0  0  0  0  0  0  0  0  0  0  0  0
   48.1180   29.3800   46.7730 C   0  0  0  0  0  0  0  0  0  0  0  0
   48.7050   29.6560   48.0010 C   0  0  0  0  0  0  0  0  0  0  0  0
   49.3260   28.6490   48.6190 N   0  0  0  0  0  0  0  0  0  0  0  0
   49.9320   28.8140   49.8270 C   0  0  0  0  0  0  0  0  0  0  0  0
   49.8660   30.0950   50.3810 C   0  0  0  0  0  0  0  0  0  0  0  0
   49.2210   31.1180   49.7280 C   0  0  0  0  0  0  0  0  0  0  0  0
   48.6190   30.9130   48.5080 C   0  0  0  0  0  0  0  0  0  0  0  0
   47.9580   31.9300   47.8220 C   0  0  0  0  0  0  0  0  0  0  0  0
   46.9900   30.2300   45.1370 H   0  0  0  0  0  0  0  0  0  0  0  0
   48.1520   28.3980   46.3170 H   0  0  0  0  0  0  0  0  0  0  0  0
   50.4460   28.0260   50.3600 H   0  0  0  0  0  0  0  0  0  0  0  0
   50.3270   30.3060   51.3460 H   0  0  0  0  0  0  0  0  0  0  0  0
   49.1730   32.1120   50.1680 H   0  0  0  0  0  0  0  0  0  0  0  0
   47.9240   32.9210   48.2820 H   0  0  0  0  0  0  0  0  0  0  0  0
   48.7940   35.4590   41.2120 C   0  0  0  0  0  0  0  0  0  0  0  0
   48.2990   34.8990   40.0230 C   0  0  0  0  0  0  0  0  0  0  0  0
   47.2090   34.0230   40.1140 C   0  0  0  0  0  0  0  0  0  0  0  0
   46.7260   33.7940   41.3430 N   0  0  0  0  0  0  0  0  0  0  0  0
   47.2030   34.3320   42.4720 C   0  0  0  0  0  0  0  0  0  0  0  0
   48.2570   35.1810   42.4150 N   0  0  0  0  0  0  0  0  0  0  0  0
   49.6200   36.1050   41.0160 H   0  0  0  0  0  0  0  0  0  0  0  0
   48.7080   35.1010   39.0420 H   0  0  0  0  0  0  0  0  0  0  0  0
   46.6320   33.3950   38.9510 C   0  0  0  0  0  0  0  0  0  0  0  0
   45.3690   32.6950   39.0250 C   0  0  0  0  0  0  0  0  0  0  0  0
   44.6800   32.5310   39.8630 H   0  0  0  0  0  0  0  0  0  0  0  0
   45.1540   32.0910   37.2420 S   0  0  0  0  0  0  0  0  0  0  0  0
   46.7940   32.8810   36.7100 C   0  0  0  0  0  0  0  0  0  0  0  0
   47.2360   32.8690   35.7370 H   0  0  0  0  0  0  0  0  0  0  0  0
   46.8630   33.2000   37.7450 N   0  0  0  0  0  0  0  0  0  0  0  0
  1  2  1  0  0  0  0
  2  8  1  0  0  0  0
  3  2  2  0  0  0  0
  3  4  1  0  0  0  0
  4  5  2  0  0  0  0
  5  6  1  0  0  0  0
  5 11  1  0  0  0  0
  6  7  1  0  0  0  0
  8 10  1  0  0  0  0
  8  6  2  0  0  0  0
  9  4  1  0  0  0  0
 11 20  1  0  0  0  0
 12 11  2  0  0  0  0
 12 13  1  0  0  0  0
 13 14  2  0  0  0  0
 14 19  1  0  0  0  0
 14 15  1  0  0  0  0
 15 16  2  0  0  0  0
 16 23  1  0  0  0  0
 16 17  1  0  0  0  0
 17 24  1  0  0  0  0
 18 25  1  0  0  0  0
 18 17  2  0  0  0  0
 19 18  1  0  0  0  0
 20 26  1  0  0  0  0
 20 19  2  0  0  0  0
 21 12  1  0  0  0  0
 22 13  1  0  0  0  0
 27 32  1  0  0  0  0
 28 29  1  0  0  0  0
 28 27  2  0  0  0  0
 29 30  2  0  0  0  0
 30 31  1  0  0  0  0
 31  3  1  0  0  0  0
 32 31  2  0  0  0  0
 33 27  1  0  0  0  0
 34 28  1  0  0  0  0
 35 36  2  0  0  0  0
 35 29  1  0  0  0  0
 36 37  1  0  0  0  0
 38 36  1  0  0  0  0
 39 38  1  0  0  0  0
 39 41  2  0  0  0  0
 40 39  1  0  0  0  0
 41 35  1  0  0  0  0
M  END
>  <minimizedAffinity>
-7.02909708

>  <minimizedRMSD>
0.0527996719

$$$$
