
 OpenBabel03252505513D

 23 24  0  0  0  0  0  0  0  0999 V2000
   44.6520   35.4870   45.0360 C   0  0  0  0  0  0  0  0  0  0  0  0
   45.4980   35.0640   44.0140 C   0  0  0  0  0  0  0  0  0  0  0  0
   46.2630   33.9230   44.2360 C   0  0  0  0  0  0  0  0  0  0  0  0
   46.1550   33.2830   45.4140 N   0  0  0  0  0  0  0  0  0  0  0  0
   45.3350   33.7090   46.3800 C   0  0  0  0  0  0  0  0  0  0  0  0
   44.5700   34.8110   46.2170 N   0  0  0  0  0  0  0  0  0  0  0  0
   44.0260   36.3650   44.9380 H   0  0  0  0  0  0  0  0  0  0  0  0
   46.9090   33.6240   43.4190 H   0  0  0  0  0  0  0  0  0  0  0  0
   45.5050   35.8860   42.7530 C   0  0  0  0  0  0  0  0  0  0  0  0
   45.2540   37.1700   43.1360 F   0  0  0  0  0  0  0  0  0  0  0  0
   44.4540   35.4040   41.9770 F   0  0  0  0  0  0  0  0  0  0  0  0
   46.7160   35.7060   42.1400 F   0  0  0  0  0  0  0  0  0  0  0  0
   45.2040   33.0730   47.5970 O   0  0  0  0  0  0  0  0  0  0  0  0
   46.2020   32.2500   48.1430 C   0  0  0  0  0  0  0  0  0  0  0  0
   47.2210   32.5870   47.8670 H   0  0  0  0  0  0  0  0  0  0  0  0
   46.1660   32.3270   49.2480 H   0  0  0  0  0  0  0  0  0  0  0  0
   45.9880   30.7930   47.8180 C   0  0  0  0  0  0  0  0  0  0  0  0
   45.0540   29.9830   48.5080 C   0  0  0  0  0  0  0  0  0  0  0  0
   44.3910   30.2210   49.3070 H   0  0  0  0  0  0  0  0  0  0  0  0
   45.2330   28.3670   47.7040 S   0  0  0  0  0  0  0  0  0  0  0  0
   46.5690   29.0570   46.5400 C   0  0  0  0  0  0  0  0  0  0  0  0
   47.2610   28.6380   45.6410 H   0  0  0  0  0  0  0  0  0  0  0  0
   46.6340   30.1270   46.8770 N   0  0  0  0  0  0  0  0  0  0  0  0
  1  6  1  0  0  0  0
  2  3  1  0  0  0  0
  2  1  2  0  0  0  0
  3  4  2  0  0  0  0
  4  5  1  0  0  0  0
  5 13  1  0  0  0  0
  6  5  2  0  0  0  0
  7  1  1  0  0  0  0
  8  3  1  0  0  0  0
  9 10  1  0  0  0  0
  9  2  1  0  0  0  0
 11  9  1  0  0  0  0
 12  9  1  0  0  0  0
 13 14  1  0  0  0  0
 14 16  1  0  0  0  0
 15 14  1  0  0  0  0
 17 14  1  0  0  0  0
 17 18  2  0  0  0  0
 18 19  1  0  0  0  0
 20 18  1  0  0  0  0
 21 23  2  0  0  0  0
 21 20  1  0  0  0  0
 22 21  1  0  0  0  0
 23 17  1  0  0  0  0
M  END
>  <minimizedAffinity>
-4.55180979

>  <minimizedRMSD>
0.853303552

$$$$
