
 OpenBabel03252509043D

 46 48  0  0  1  0  0  0  0  0999 V2000
   46.5550   34.3450   43.7440 N   0  0  0  0  0  0  0  0  0  0  0  0
   46.1750   34.9980   42.5560 C   0  0  0  0  0  0  0  0  0  0  0  0
   44.6800   35.1150   42.3470 C   0  0  0  0  0  0  0  0  0  0  0  0
   43.9120   35.3400   43.6270 C   0  0  0  0  0  0  0  0  0  0  0  0
   44.8200   35.4240   44.8330 C   0  0  0  0  0  0  0  0  0  0  0  0
   45.6560   34.0920   44.7560 C   0  0  2  0  0  0  0  0  0  0  0  0
   46.6030   34.6200   41.6280 H   0  0  0  0  0  0  0  0  0  0  0  0
   46.5400   36.0650   42.6350 H   0  0  0  0  0  0  0  0  0  0  0  0
   44.4520   35.8590   41.5710 H   0  0  0  0  0  0  0  0  0  0  0  0
   44.3530   34.1290   41.9410 H   0  0  0  0  0  0  0  0  0  0  0  0
   43.1350   34.6080   43.8340 H   0  0  0  0  0  0  0  0  0  0  0  0
   43.4340   36.3440   43.5370 H   0  0  0  0  0  0  0  0  0  0  0  0
   45.5080   36.2740   44.7460 H   0  0  0  0  0  0  0  0  0  0  0  0
   44.2020   35.4080   45.7360 H   0  0  0  0  0  0  0  0  0  0  0  0
   44.8940   33.3160   44.5970 H   0  0  0  0  0  0  0  0  0  0  0  0
   47.6860   33.4610   43.5980 C   0  0  0  0  0  0  0  0  0  0  0  0
   47.8600   32.9260   44.5320 H   0  0  0  0  0  0  0  0  0  0  0  0
   48.5830   34.0960   43.4100 H   0  0  0  0  0  0  0  0  0  0  0  0
   47.4260   32.5280   42.4730 C   0  0  0  0  0  0  0  0  0  0  0  0
   46.9770   31.5920   42.8250 H   0  0  0  0  0  0  0  0  0  0  0  0
   46.7060   32.9630   41.7320 H   0  0  0  0  0  0  0  0  0  0  0  0
   51.0820   32.3610   41.6410 C   0  0  0  0  0  0  0  0  0  0  0  0
   49.8790   32.6120   42.3090 C   0  0  0  0  0  0  0  0  0  0  0  0
   48.6930   32.2530   41.7460 C   0  0  0  0  0  0  0  0  0  0  0  0
   48.7290   31.6610   40.5450 N   0  0  0  0  0  0  0  0  0  0  0  0
   49.8790   31.4150   39.8930 C   0  0  0  0  0  0  0  0  0  0  0  0
   51.0620   31.7560   40.4240 N   0  0  0  0  0  0  0  0  0  0  0  0
   52.0390   32.6200   42.0340 H   0  0  0  0  0  0  0  0  0  0  0  0
   49.9730   33.0950   43.2740 H   0  0  0  0  0  0  0  0  0  0  0  0
   49.7310   30.9350   38.9450 H   0  0  0  0  0  0  0  0  0  0  0  0
   46.2470   34.0530   46.0040 O   0  0  0  0  0  0  0  0  0  0  0  0
   45.7270   31.4580   45.7940 O   0  0  0  0  0  0  0  0  0  0  0  0
   46.0390   32.5950   46.7930 P   0  0  2  0  0  0  0  0  0  0  0  0
   44.6000   32.7410   47.7120 O   0  0  0  0  0  0  0  0  0  0  0  0
   44.7850   32.6250   48.6750 H   0  0  0  0  0  0  0  0  0  0  0  0
   47.2850   32.1940   47.8120 O   0  0  0  0  0  0  0  0  0  0  0  0
   47.2330   30.8410   48.0970 C   0  0  0  0  0  0  0  0  0  0  0  0
   47.0120   30.6510   49.1540 H   0  0  0  0  0  0  0  0  0  0  0  0
   46.4220   30.3500   47.4950 H   0  0  0  0  0  0  0  0  0  0  0  0
   48.5350   30.1560   47.7640 C   0  0  0  0  0  0  0  0  0  0  0  0
   48.6790   29.4440   46.5060 C   0  0  0  0  0  0  0  0  0  0  0  0
   47.8870   29.3710   45.7720 H   0  0  0  0  0  0  0  0  0  0  0  0
   50.4050   28.8420   46.6380 S   0  0  0  0  0  0  0  0  0  0  0  0
   50.6380   29.6320   48.3290 C   0  0  0  0  0  0  0  0  0  0  0  0
   51.5290   29.6110   48.9540 H   0  0  0  0  0  0  0  0  0  0  0  0
   49.5830   30.1650   48.5640 N   0  0  0  0  0  0  0  0  0  0  0  0
  1  6  1  0  0  0  0
  2  8  1  0  0  0  0
  2  1  1  0  0  0  0
  3  2  1  0  0  0  0
  3  4  1  0  0  0  0
  4 11  1  0  0  0  0
  4  5  1  0  0  0  0
  5 14  1  0  0  0  0
  6 15  1  6  0  0  0
  6  5  1  0  0  0  0
  6 31  1  0  0  0  0
  7  2  1  0  0  0  0
  9  3  1  0  0  0  0
 10  3  1  0  0  0  0
 12  4  1  0  0  0  0
 13  5  1  0  0  0  0
 16  1  1  0  0  0  0
 16 17  1  0  0  0  0
 18 16  1  0  0  0  0
 19 20  1  0  0  0  0
 19 16  1  0  0  0  0
 21 19  1  0  0  0  0
 22 28  1  0  0  0  0
 22 23  1  0  0  0  0
 23 29  1  0  0  0  0
 24 23  2  0  0  0  0
 24 19  1  0  0  0  0
 25 24  1  0  0  0  0
 26 27  1  0  0  0  0
 26 25  2  0  0  0  0
 27 22  2  0  0  0  0
 30 26  1  0  0  0  0
 31 33  1  0  0  0  0
 33 32  2  6  0  0  0
 33 34  1  0  0  0  0
 33 36  1  0  0  0  0
 34 35  1  0  0  0  0
 36 37  1  0  0  0  0
 37 38  1  0  0  0  0
 39 37  1  0  0  0  0
 40 37  1  0  0  0  0
 40 46  1  0  0  0  0
 41 43  1  0  0  0  0
 41 40  2  0  0  0  0
 42 41  1  0  0  0  0
 43 44  1  0  0  0  0
 44 46  2  0  0  0  0
 44 45  1  0  0  0  0
M  END
>  <minimizedAffinity>
-4.48761368

>  <minimizedRMSD>
2.52612185

$$$$
