
 OpenBabel03252507363D

 30 33  0  0  0  0  0  0  0  0999 V2000
   36.8980   28.3600   42.3880 C   0  0  0  0  0  0  0  0  0  0  0  0
   37.7350   29.4880   42.1840 C   0  0  0  0  0  0  0  0  0  0  0  0
   37.3800   30.3590   41.1650 C   0  0  0  0  0  0  0  0  0  0  0  0
   36.2840   30.1010   40.4330 N   0  0  0  0  0  0  0  0  0  0  0  0
   35.5010   29.0160   40.6470 C   0  0  0  0  0  0  0  0  0  0  0  0
   35.8140   28.1670   41.6130 N   0  0  0  0  0  0  0  0  0  0  0  0
   38.6010   29.6870   42.7680 H   0  0  0  0  0  0  0  0  0  0  0  0
   34.6520   28.8930   40.0170 H   0  0  0  0  0  0  0  0  0  0  0  0
   37.4790   32.5570   40.1200 C   0  0  0  0  0  0  0  0  0  0  0  0
   38.1460   31.5620   40.8370 C   0  0  0  0  0  0  0  0  0  0  0  0
   39.4500   31.7690   41.1820 C   0  0  0  0  0  0  0  0  0  0  0  0
   40.1320   32.9200   40.8500 C   0  0  0  0  0  0  0  0  0  0  0  0
   41.3990   33.3320   41.0820 N   0  0  0  0  0  0  0  0  0  0  0  0
   41.5300   34.5890   40.5110 C   0  0  0  0  0  0  0  0  0  0  0  0
   40.3510   34.9110   39.9470 N   0  0  0  0  0  0  0  0  0  0  0  0
   39.4880   33.9060   40.1450 C   0  0  0  0  0  0  0  0  0  0  0  0
   38.1630   33.7240   39.7810 C   0  0  0  0  0  0  0  0  0  0  0  0
   36.4620   32.4470   39.8270 H   0  0  0  0  0  0  0  0  0  0  0  0
   39.9530   30.9890   41.7380 H   0  0  0  0  0  0  0  0  0  0  0  0
   42.1380   32.8170   41.5890 H   0  0  0  0  0  0  0  0  0  0  0  0
   42.4850   35.1200   40.5770 H   0  0  0  0  0  0  0  0  0  0  0  0
   37.6340   34.4940   39.2200 H   0  0  0  0  0  0  0  0  0  0  0  0
   37.2590   27.4840   43.4170 O   0  0  0  0  0  0  0  0  0  0  0  0
   38.5310   26.9320   43.4340 C   0  0  0  0  0  0  0  0  0  0  0  0
   38.3030   25.8350   42.6310 C   0  0  0  0  0  0  0  0  0  0  0  0
   37.6790   25.1440   41.9790 H   0  0  0  0  0  0  0  0  0  0  0  0
   40.0090   25.0060   42.5950 S   0  0  0  0  0  0  0  0  0  0  0  0
   40.6780   26.3840   43.7190 C   0  0  0  0  0  0  0  0  0  0  0  0
   41.5540   26.9940   44.3920 H   0  0  0  0  0  0  0  0  0  0  0  0
   39.7670   27.0170   43.8660 N   0  0  0  0  0  0  0  0  0  0  0  0
  1 23  1  0  0  0  0
  2  1  1  0  0  0  0
  2  7  1  0  0  0  0
  3  2  2  0  0  0  0
  4  5  2  0  0  0  0
  4  3  1  0  0  0  0
  5  6  1  0  0  0  0
  6  1  2  0  0  0  0
  8  5  1  0  0  0  0
  9 10  1  0  0  0  0
 10  3  1  0  0  0  0
 10 11  2  0  0  0  0
 11 19  1  0  0  0  0
 12 13  1  0  0  0  0
 12 11  1  0  0  0  0
 13 20  1  0  0  0  0
 14 21  1  0  0  0  0
 14 13  1  0  0  0  0
 15 16  1  0  0  0  0
 15 14  2  0  0  0  0
 16 12  2  0  0  0  0
 17  9  2  0  0  0  0
 17 16  1  0  0  0  0
 18  9  1  0  0  0  0
 22 17  1  0  0  0  0
 23 24  1  0  0  0  0
 24 30  1  0  0  0  0
 25 24  2  0  0  0  0
 26 25  1  0  0  0  0
 27 25  1  0  0  0  0
 27 28  1  0  0  0  0
 28 30  2  0  0  0  0
 28 29  1  0  0  0  0
M  END
>  <minimizedAffinity>
-5.64039612

$$$$

 OpenBabel03252507363D

 30 33  0  0  0  0  0  0  0  0999 V2000
   36.9830   27.1660   41.4030 C   0  0  0  0  0  0  0  0  0  0  0  0
   37.2790   28.4200   40.8090 C   0  0  0  0  0  0  0  0  0  0  0  0
   37.6330   29.4530   41.6640 C   0  0  0  0  0  0  0  0  0  0  0  0
   37.6790   29.2230   42.9860 N   0  0  0  0  0  0  0  0  0  0  0  0
   37.3920   28.0160   43.5290 C   0  0  0  0  0  0  0  0  0  0  0  0
   37.0500   27.0110   42.7390 N   0  0  0  0  0  0  0  0  0  0  0  0
   37.2410   28.5950   39.7620 H   0  0  0  0  0  0  0  0  0  0  0  0
   37.4540   27.9270   44.5880 H   0  0  0  0  0  0  0  0  0  0  0  0
   36.9900   31.4670   40.4540 C   0  0  0  0  0  0  0  0  0  0  0  0
   37.9640   30.8000   41.1980 C   0  0  0  0  0  0  0  0  0  0  0  0
   39.1480   31.4350   41.4400 C   0  0  0  0  0  0  0  0  0  0  0  0
   39.4170   32.7060   40.9800 C   0  0  0  0  0  0  0  0  0  0  0  0
   40.4960   33.5120   41.0970 N   0  0  0  0  0  0  0  0  0  0  0  0
   40.2000   34.6890   40.4260 C   0  0  0  0  0  0  0  0  0  0  0  0
   38.9580   34.5740   39.9180 N   0  0  0  0  0  0  0  0  0  0  0  0
   38.4670   33.3720   40.2470 C   0  0  0  0  0  0  0  0  0  0  0  0
   37.2540   32.7520   39.9850 C   0  0  0  0  0  0  0  0  0  0  0  0
   36.0500   31.0180   40.2370 H   0  0  0  0  0  0  0  0  0  0  0  0
   39.8940   30.9050   42.0190 H   0  0  0  0  0  0  0  0  0  0  0  0
   41.3790   33.3030   41.5910 H   0  0  0  0  0  0  0  0  0  0  0  0
   40.9390   35.4960   40.3900 H   0  0  0  0  0  0  0  0  0  0  0  0
   36.4880   33.2650   39.4050 H   0  0  0  0  0  0  0  0  0  0  0  0
   36.6260   26.1260   40.5370 O   0  0  0  0  0  0  0  0  0  0  0  0
   37.5240   25.0990   40.2920 C   0  0  0  0  0  0  0  0  0  0  0  0
   36.7040   24.0240   40.5650 C   0  0  0  0  0  0  0  0  0  0  0  0
   35.7340   23.5160   40.8690 H   0  0  0  0  0  0  0  0  0  0  0  0
   37.8600   22.5520   40.2530 S   0  0  0  0  0  0  0  0  0  0  0  0
   39.2500   23.7660   39.8050 C   0  0  0  0  0  0  0  0  0  0  0  0
   40.4130   24.1000   39.4460 H   0  0  0  0  0  0  0  0  0  0  0  0
   38.7380   24.7530   39.9340 N   0  0  0  0  0  0  0  0  0  0  0  0
  1  6  1  0  0  0  0
  2  1  2  0  0  0  0
  2  3  1  0  0  0  0
  3  4  2  0  0  0  0
  4  5  1  0  0  0  0
  5  8  1  0  0  0  0
  6  5  2  0  0  0  0
  7  2  1  0  0  0  0
  9 10  1  0  0  0  0
 10 11  2  0  0  0  0
 10  3  1  0  0  0  0
 11 19  1  0  0  0  0
 12 13  1  0  0  0  0
 12 11  1  0  0  0  0
 13 20  1  0  0  0  0
 14 13  1  0  0  0  0
 15 16  1  0  0  0  0
 15 14  2  0  0  0  0
 16 12  2  0  0  0  0
 17 16  1  0  0  0  0
 17  9  2  0  0  0  0
 18  9  1  0  0  0  0
 21 14  1  0  0  0  0
 22 17  1  0  0  0  0
 23  1  1  0  0  0  0
 24 23  1  0  0  0  0
 24 25  2  0  0  0  0
 25 26  1  0  0  0  0
 27 25  1  0  0  0  0
 28 30  2  0  0  0  0
 28 27  1  0  0  0  0
 29 28  1  0  0  0  0
 30 24  1  0  0  0  0
M  END
>  <minimizedAffinity>
-5.46796417

$$$$

 OpenBabel03252507363D

 30 33  0  0  0  0  0  0  0  0999 V2000
   40.4870   33.6610   39.9630 C   0  0  0  0  0  0  0  0  0  0  0  0
   40.3670   32.3950   40.5920 C   0  0  0  0  0  0  0  0  0  0  0  0
   39.0910   31.9910   40.9550 C   0  0  0  0  0  0  0  0  0  0  0  0
   38.0490   32.7990   40.6990 N   0  0  0  0  0  0  0  0  0  0  0  0
   38.1900   34.0040   40.0970 C   0  0  0  0  0  0  0  0  0  0  0  0
   39.3950   34.4170   39.7390 N   0  0  0  0  0  0  0  0  0  0  0  0
   41.1950   31.7600   40.7910 H   0  0  0  0  0  0  0  0  0  0  0  0
   37.3070   34.5770   39.9340 H   0  0  0  0  0  0  0  0  0  0  0  0
   39.8990   30.0440   42.1750 C   0  0  0  0  0  0  0  0  0  0  0  0
   38.8120   30.7130   41.6110 C   0  0  0  0  0  0  0  0  0  0  0  0
   37.5760   30.1420   41.7030 C   0  0  0  0  0  0  0  0  0  0  0  0
   37.3600   28.9340   42.3310 C   0  0  0  0  0  0  0  0  0  0  0  0
   36.2460   28.1960   42.5380 N   0  0  0  0  0  0  0  0  0  0  0  0
   36.6320   27.0610   43.2350 C   0  0  0  0  0  0  0  0  0  0  0  0
   37.9620   27.1310   43.4340 N   0  0  0  0  0  0  0  0  0  0  0  0
   38.4210   28.2660   42.8900 C   0  0  0  0  0  0  0  0  0  0  0  0
   39.6890   28.8220   42.8120 C   0  0  0  0  0  0  0  0  0  0  0  0
   40.8840   30.4450   42.1330 H   0  0  0  0  0  0  0  0  0  0  0  0
   36.7420   30.6730   41.2610 H   0  0  0  0  0  0  0  0  0  0  0  0
   35.2830   28.4250   42.2390 H   0  0  0  0  0  0  0  0  0  0  0  0
   35.8830   26.3130   43.5140 H   0  0  0  0  0  0  0  0  0  0  0  0
   40.5440   28.3070   43.2490 H   0  0  0  0  0  0  0  0  0  0  0  0
   41.7760   34.0650   39.5990 O   0  0  0  0  0  0  0  0  0  0  0  0
   42.7140   34.3370   40.5840 C   0  0  0  0  0  0  0  0  0  0  0  0
   43.8510   33.9270   39.9190 C   0  0  0  0  0  0  0  0  0  0  0  0
   44.4400   33.5040   39.0450 H   0  0  0  0  0  0  0  0  0  0  0  0
   45.2050   34.2640   41.2040 S   0  0  0  0  0  0  0  0  0  0  0  0
   43.8800   34.9100   42.4010 C   0  0  0  0  0  0  0  0  0  0  0  0
   43.4460   35.3960   43.4820 H   0  0  0  0  0  0  0  0  0  0  0  0
   42.9480   34.7880   41.7930 N   0  0  0  0  0  0  0  0  0  0  0  0
  1  2  1  0  0  0  0
  2  7  1  0  0  0  0
  2  3  2  0  0  0  0
  3 10  1  0  0  0  0
  4  3  1  0  0  0  0
  5  4  2  0  0  0  0
  6  1  2  0  0  0  0
  6  5  1  0  0  0  0
  8  5  1  0  0  0  0
  9 17  1  0  0  0  0
 10 11  1  0  0  0  0
 10  9  2  0  0  0  0
 11 12  2  0  0  0  0
 12 13  1  0  0  0  0
 12 16  1  0  0  0  0
 13 14  1  0  0  0  0
 14 15  2  0  0  0  0
 14 21  1  0  0  0  0
 16 15  1  0  0  0  0
 17 16  2  0  0  0  0
 17 22  1  0  0  0  0
 18  9  1  0  0  0  0
 19 11  1  0  0  0  0
 20 13  1  0  0  0  0
 23  1  1  0  0  0  0
 23 24  1  0  0  0  0
 24 30  1  0  0  0  0
 25 24  2  0  0  0  0
 25 27  1  0  0  0  0
 26 25  1  0  0  0  0
 27 28  1  0  0  0  0
 28 29  1  0  0  0  0
 30 28  2  0  0  0  0
M  END
>  <minimizedAffinity>
-5.45097303

$$$$

 OpenBabel03252507363D

 30 33  0  0  0  0  0  0  0  0999 V2000
   33.6830   28.7930   36.6190 C   0  0  0  0  0  0  0  0  0  0  0  0
   34.0860   28.4290   37.9290 C   0  0  0  0  0  0  0  0  0  0  0  0
   35.4430   28.4840   38.2080 C   0  0  0  0  0  0  0  0  0  0  0  0
   36.2950   28.8720   37.2460 N   0  0  0  0  0  0  0  0  0  0  0  0
   35.8860   29.2150   36.0010 C   0  0  0  0  0  0  0  0  0  0  0  0
   34.5960   29.1720   35.7050 N   0  0  0  0  0  0  0  0  0  0  0  0
   33.4060   28.1230   38.6870 H   0  0  0  0  0  0  0  0  0  0  0  0
   36.6330   29.5100   35.3030 H   0  0  0  0  0  0  0  0  0  0  0  0
   36.4820   26.8350   39.6690 C   0  0  0  0  0  0  0  0  0  0  0  0
   36.0070   28.1380   39.5140 C   0  0  0  0  0  0  0  0  0  0  0  0
   36.0960   28.9950   40.5720 C   0  0  0  0  0  0  0  0  0  0  0  0
   36.6350   28.6240   41.7850 C   0  0  0  0  0  0  0  0  0  0  0  0
   36.8220   29.2920   42.9460 N   0  0  0  0  0  0  0  0  0  0  0  0
   37.4150   28.4070   43.8340 C   0  0  0  0  0  0  0  0  0  0  0  0
   37.5740   27.2300   43.2010 N   0  0  0  0  0  0  0  0  0  0  0  0
   37.1050   27.3450   41.9510 C   0  0  0  0  0  0  0  0  0  0  0  0
   37.0280   26.4520   40.8930 C   0  0  0  0  0  0  0  0  0  0  0  0
   36.4370   26.1260   38.8760 H   0  0  0  0  0  0  0  0  0  0  0  0
   35.7240   30.0020   40.4360 H   0  0  0  0  0  0  0  0  0  0  0  0
   36.5740   30.2750   43.1460 H   0  0  0  0  0  0  0  0  0  0  0  0
   37.6590   28.7370   44.8490 H   0  0  0  0  0  0  0  0  0  0  0  0
   37.3950   25.4320   41.0050 H   0  0  0  0  0  0  0  0  0  0  0  0
   32.3130   28.7350   36.3410 O   0  0  0  0  0  0  0  0  0  0  0  0
   31.4540   29.6490   36.9320 C   0  0  0  0  0  0  0  0  0  0  0  0
   31.3090   30.5250   35.8760 C   0  0  0  0  0  0  0  0  0  0  0  0
   31.4900   30.9120   34.8230 H   0  0  0  0  0  0  0  0  0  0  0  0
   30.1350   31.8290   36.5980 S   0  0  0  0  0  0  0  0  0  0  0  0
   30.0990   30.8600   38.2320 C   0  0  0  0  0  0  0  0  0  0  0  0
   29.7550   30.6300   39.4240 H   0  0  0  0  0  0  0  0  0  0  0  0
   30.7740   29.9980   37.9980 N   0  0  0  0  0  0  0  0  0  0  0  0
  1  2  1  0  0  0  0
  2  3  2  0  0  0  0
  2  7  1  0  0  0  0
  3 10  1  0  0  0  0
  4  3  1  0  0  0  0
  5  4  2  0  0  0  0
  6  5  1  0  0  0  0
  6  1  2  0  0  0  0
  8  5  1  0  0  0  0
  9 17  1  0  0  0  0
 10  9  2  0  0  0  0
 10 11  1  0  0  0  0
 11 12  2  0  0  0  0
 12 16  1  0  0  0  0
 12 13  1  0  0  0  0
 13 20  1  0  0  0  0
 13 14  1  0  0  0  0
 14 21  1  0  0  0  0
 15 14  2  0  0  0  0
 16 15  1  0  0  0  0
 17 22  1  0  0  0  0
 17 16  2  0  0  0  0
 18  9  1  0  0  0  0
 19 11  1  0  0  0  0
 23  1  1  0  0  0  0
 23 24  1  0  0  0  0
 24 30  1  0  0  0  0
 25 27  1  0  0  0  0
 25 24  2  0  0  0  0
 26 25  1  0  0  0  0
 27 28  1  0  0  0  0
 28 29  1  0  0  0  0
 30 28  2  0  0  0  0
M  END
>  <minimizedAffinity>
-5.34319019

$$$$

 OpenBabel03252507363D

 30 33  0  0  0  0  0  0  0  0999 V2000
   37.5680   29.6670   42.2720 C   0  0  0  0  0  0  0  0  0  0  0  0
   38.7660   30.3060   41.8610 C   0  0  0  0  0  0  0  0  0  0  0  0
   38.6740   31.1920   40.7980 C   0  0  0  0  0  0  0  0  0  0  0  0
   37.4800   31.4000   40.2190 N   0  0  0  0  0  0  0  0  0  0  0  0
   36.3500   30.7770   40.6300 C   0  0  0  0  0  0  0  0  0  0  0  0
   36.4060   29.9260   41.6420 N   0  0  0  0  0  0  0  0  0  0  0  0
   39.7080   30.1380   42.3240 H   0  0  0  0  0  0  0  0  0  0  0  0
   35.4490   31.0030   40.1110 H   0  0  0  0  0  0  0  0  0  0  0  0
   40.8430   32.2380   41.1620 C   0  0  0  0  0  0  0  0  0  0  0  0
   39.8230   31.9240   40.2630 C   0  0  0  0  0  0  0  0  0  0  0  0
   39.9570   32.3140   38.9630 C   0  0  0  0  0  0  0  0  0  0  0  0
   41.0580   33.0050   38.5040 C   0  0  0  0  0  0  0  0  0  0  0  0
   41.3970   33.4810   37.2840 N   0  0  0  0  0  0  0  0  0  0  0  0
   42.6330   34.0950   37.4160 C   0  0  0  0  0  0  0  0  0  0  0  0
   43.0160   33.9820   38.7010 N   0  0  0  0  0  0  0  0  0  0  0  0
   42.0680   33.3190   39.3780 C   0  0  0  0  0  0  0  0  0  0  0  0
   41.9600   32.9360   40.7060 C   0  0  0  0  0  0  0  0  0  0  0  0
   40.7900   31.9570   42.1870 H   0  0  0  0  0  0  0  0  0  0  0  0
   39.1580   32.0630   38.2770 H   0  0  0  0  0  0  0  0  0  0  0  0
   40.8470   33.4060   36.4120 H   0  0  0  0  0  0  0  0  0  0  0  0
   43.1070   34.5570   36.5430 H   0  0  0  0  0  0  0  0  0  0  0  0
   42.7520   33.1770   41.4150 H   0  0  0  0  0  0  0  0  0  0  0  0
   37.6660   28.7750   43.3450 O   0  0  0  0  0  0  0  0  0  0  0  0
   38.5890   27.7410   43.2960 C   0  0  0  0  0  0  0  0  0  0  0  0
   37.8200   26.7940   42.6500 C   0  0  0  0  0  0  0  0  0  0  0  0
   36.8840   26.3920   42.1480 H   0  0  0  0  0  0  0  0  0  0  0  0
   39.0140   25.3240   42.5360 S   0  0  0  0  0  0  0  0  0  0  0  0
   40.3380   26.3570   43.4230 C   0  0  0  0  0  0  0  0  0  0  0  0
   41.4720   26.5810   43.9310 H   0  0  0  0  0  0  0  0  0  0  0  0
   39.7980   27.3230   43.5880 N   0  0  0  0  0  0  0  0  0  0  0  0
  1 23  1  0  0  0  0
  2  1  1  0  0  0  0
  2  7  1  0  0  0  0
  3  2  2  0  0  0  0
  4  5  2  0  0  0  0
  4  3  1  0  0  0  0
  5  6  1  0  0  0  0
  6  1  2  0  0  0  0
  8  5  1  0  0  0  0
  9 18  1  0  0  0  0
 10  3  1  0  0  0  0
 10  9  2  0  0  0  0
 11 10  1  0  0  0  0
 12 11  2  0  0  0  0
 12 16  1  0  0  0  0
 13 14  1  0  0  0  0
 13 12  1  0  0  0  0
 14 15  2  0  0  0  0
 15 16  1  0  0  0  0
 16 17  2  0  0  0  0
 17  9  1  0  0  0  0
 17 22  1  0  0  0  0
 19 11  1  0  0  0  0
 20 13  1  0  0  0  0
 21 14  1  0  0  0  0
 24 23  1  0  0  0  0
 24 30  1  0  0  0  0
 25 24  2  0  0  0  0
 26 25  1  0  0  0  0
 27 25  1  0  0  0  0
 27 28  1  0  0  0  0
 28 30  2  0  0  0  0
 28 29  1  0  0  0  0
M  END
>  <minimizedAffinity>
-5.28656483

$$$$

 OpenBabel03252507363D

 30 33  0  0  0  0  0  0  0  0999 V2000
   36.9120   29.1130   41.9690 C   0  0  0  0  0  0  0  0  0  0  0  0
   36.7680   27.9580   41.1590 C   0  0  0  0  0  0  0  0  0  0  0  0
   37.2810   26.7700   41.6590 C   0  0  0  0  0  0  0  0  0  0  0  0
   37.8780   26.7690   42.8620 N   0  0  0  0  0  0  0  0  0  0  0  0
   38.0030   27.8860   43.6180 C   0  0  0  0  0  0  0  0  0  0  0  0
   37.5230   29.0340   43.1670 N   0  0  0  0  0  0  0  0  0  0  0  0
   36.2950   27.9650   40.2070 H   0  0  0  0  0  0  0  0  0  0  0  0
   38.4910   27.7890   44.5590 H   0  0  0  0  0  0  0  0  0  0  0  0
   36.4830   25.4930   39.7450 C   0  0  0  0  0  0  0  0  0  0  0  0
   37.2080   25.4990   40.9380 C   0  0  0  0  0  0  0  0  0  0  0  0
   37.7920   24.3370   41.3510 C   0  0  0  0  0  0  0  0  0  0  0  0
   37.6950   23.1620   40.6380 C   0  0  0  0  0  0  0  0  0  0  0  0
   38.1830   21.9190   40.8520 N   0  0  0  0  0  0  0  0  0  0  0  0
   37.7650   21.1290   39.7920 C   0  0  0  0  0  0  0  0  0  0  0  0
   37.0370   21.9010   38.9630 N   0  0  0  0  0  0  0  0  0  0  0  0
   36.9850   23.1430   39.4640 C   0  0  0  0  0  0  0  0  0  0  0  0
   36.3800   24.3080   39.0180 C   0  0  0  0  0  0  0  0  0  0  0  0
   36.0080   26.3710   39.3760 H   0  0  0  0  0  0  0  0  0  0  0  0
   38.3510   24.3580   42.2780 H   0  0  0  0  0  0  0  0  0  0  0  0
   38.7590   21.6050   41.6500 H   0  0  0  0  0  0  0  0  0  0  0  0
   38.0470   20.0710   39.7570 H   0  0  0  0  0  0  0  0  0  0  0  0
   35.8120   24.3130   38.0880 H   0  0  0  0  0  0  0  0  0  0  0  0
   36.3940   30.3090   41.4610 O   0  0  0  0  0  0  0  0  0  0  0  0
   36.8580   30.7980   40.2490 C   0  0  0  0  0  0  0  0  0  0  0  0
   37.9130   31.5570   40.7120 C   0  0  0  0  0  0  0  0  0  0  0  0
   38.6000   31.9970   41.5020 H   0  0  0  0  0  0  0  0  0  0  0  0
   38.6200   32.2760   39.1050 S   0  0  0  0  0  0  0  0  0  0  0  0
   37.2780   31.3540   38.1270 C   0  0  0  0  0  0  0  0  0  0  0  0
   36.6550   30.9910   37.0900 H   0  0  0  0  0  0  0  0  0  0  0  0
   36.7180   30.8350   38.9450 N   0  0  0  0  0  0  0  0  0  0  0  0
  1  6  1  0  0  0  0
  2  3  1  0  0  0  0
  2  1  2  0  0  0  0
  3  4  2  0  0  0  0
  4  5  1  0  0  0  0
  5  8  1  0  0  0  0
  6  5  2  0  0  0  0
  7  2  1  0  0  0  0
  9 10  1  0  0  0  0
 10 11  2  0  0  0  0
 10  3  1  0  0  0  0
 11 19  1  0  0  0  0
 12 13  1  0  0  0  0
 12 11  1  0  0  0  0
 13 20  1  0  0  0  0
 14 13  1  0  0  0  0
 15 16  1  0  0  0  0
 15 14  2  0  0  0  0
 16 12  2  0  0  0  0
 17 16  1  0  0  0  0
 17  9  2  0  0  0  0
 18  9  1  0  0  0  0
 21 14  1  0  0  0  0
 22 17  1  0  0  0  0
 23  1  1  0  0  0  0
 24 25  2  0  0  0  0
 24 23  1  0  0  0  0
 25 26  1  0  0  0  0
 27 25  1  0  0  0  0
 28 30  2  0  0  0  0
 28 27  1  0  0  0  0
 29 28  1  0  0  0  0
 30 24  1  0  0  0  0
M  END
>  <minimizedAffinity>
-5.28487349

$$$$

 OpenBabel03252507363D

 30 33  0  0  0  0  0  0  0  0999 V2000
   33.2080   29.0100   36.9700 C   0  0  0  0  0  0  0  0  0  0  0  0
   33.7440   29.0050   38.2840 C   0  0  0  0  0  0  0  0  0  0  0  0
   35.1260   29.0380   38.3990 C   0  0  0  0  0  0  0  0  0  0  0  0
   35.8760   29.0730   37.2860 N   0  0  0  0  0  0  0  0  0  0  0  0
   35.3400   29.0770   36.0430 C   0  0  0  0  0  0  0  0  0  0  0  0
   34.0250   29.0460   35.9000 N   0  0  0  0  0  0  0  0  0  0  0  0
   33.1440   28.9770   39.1610 H   0  0  0  0  0  0  0  0  0  0  0  0
   36.0130   29.1060   35.2190 H   0  0  0  0  0  0  0  0  0  0  0  0
   36.0780   30.2810   40.2650 C   0  0  0  0  0  0  0  0  0  0  0  0
   35.8220   29.0370   39.6860 C   0  0  0  0  0  0  0  0  0  0  0  0
   36.2310   27.9150   40.3460 C   0  0  0  0  0  0  0  0  0  0  0  0
   36.8860   27.9620   41.5580 C   0  0  0  0  0  0  0  0  0  0  0  0
   37.3710   27.0000   42.3740 N   0  0  0  0  0  0  0  0  0  0  0  0
   37.9340   27.6390   43.4690 C   0  0  0  0  0  0  0  0  0  0  0  0
   37.7810   28.9650   43.2960 N   0  0  0  0  0  0  0  0  0  0  0  0
   37.1430   29.1790   42.1370 C   0  0  0  0  0  0  0  0  0  0  0  0
   36.7400   30.3370   41.4910 C   0  0  0  0  0  0  0  0  0  0  0  0
   35.7800   31.1880   39.7940 H   0  0  0  0  0  0  0  0  0  0  0  0
   36.0250   26.9570   39.8850 H   0  0  0  0  0  0  0  0  0  0  0  0
   37.3350   25.9780   42.2220 H   0  0  0  0  0  0  0  0  0  0  0  0
   38.3930   27.0470   44.2670 H   0  0  0  0  0  0  0  0  0  0  0  0
   36.9350   31.3130   41.9340 H   0  0  0  0  0  0  0  0  0  0  0  0
   31.8140   28.9760   36.8580 O   0  0  0  0  0  0  0  0  0  0  0  0
   31.0960   30.1630   36.8550 C   0  0  0  0  0  0  0  0  0  0  0  0
   30.3080   29.9420   37.9650 C   0  0  0  0  0  0  0  0  0  0  0  0
   29.9230   29.3550   38.8580 H   0  0  0  0  0  0  0  0  0  0  0  0
   29.2770   31.5340   38.0440 S   0  0  0  0  0  0  0  0  0  0  0  0
   30.1780   32.1680   36.4960 C   0  0  0  0  0  0  0  0  0  0  0  0
   30.4430   32.9910   35.5770 H   0  0  0  0  0  0  0  0  0  0  0  0
   30.8750   31.3200   36.2770 N   0  0  0  0  0  0  0  0  0  0  0  0
  1  2  1  0  0  0  0
  2  3  2  0  0  0  0
  2  7  1  0  0  0  0
  3 10  1  0  0  0  0
  4  3  1  0  0  0  0
  5  4  2  0  0  0  0
  6  5  1  0  0  0  0
  6  1  2  0  0  0  0
  8  5  1  0  0  0  0
  9 17  1  0  0  0  0
 10  9  2  0  0  0  0
 10 11  1  0  0  0  0
 11 12  2  0  0  0  0
 12 16  1  0  0  0  0
 12 13  1  0  0  0  0
 13 14  1  0  0  0  0
 14 21  1  0  0  0  0
 15 14  2  0  0  0  0
 16 15  1  0  0  0  0
 17 22  1  0  0  0  0
 17 16  2  0  0  0  0
 18  9  1  0  0  0  0
 19 11  1  0  0  0  0
 20 13  1  0  0  0  0
 23  1  1  0  0  0  0
 24 23  1  0  0  0  0
 24 25  2  0  0  0  0
 25 27  1  0  0  0  0
 25 26  1  0  0  0  0
 28 27  1  0  0  0  0
 29 28  1  0  0  0  0
 30 28  2  0  0  0  0
 30 24  1  0  0  0  0
M  END
>  <minimizedAffinity>
-5.27281809

$$$$

 OpenBabel03252507363D

 30 33  0  0  0  0  0  0  0  0999 V2000
   38.3900   27.2020   43.3900 C   0  0  0  0  0  0  0  0  0  0  0  0
   37.7090   26.3860   42.4510 C   0  0  0  0  0  0  0  0  0  0  0  0
   38.2600   25.1420   42.1820 C   0  0  0  0  0  0  0  0  0  0  0  0
   39.3890   24.7750   42.8100 N   0  0  0  0  0  0  0  0  0  0  0  0
   40.0210   25.5730   43.7030 C   0  0  0  0  0  0  0  0  0  0  0  0
   39.5190   26.7660   43.9810 N   0  0  0  0  0  0  0  0  0  0  0  0
   36.8160   26.6820   41.9580 H   0  0  0  0  0  0  0  0  0  0  0  0
   40.9110   25.1980   44.1520 H   0  0  0  0  0  0  0  0  0  0  0  0
   38.4940   23.1570   40.7890 C   0  0  0  0  0  0  0  0  0  0  0  0
   37.6710   24.1930   41.2370 C   0  0  0  0  0  0  0  0  0  0  0  0
   36.3900   24.2550   40.7720 C   0  0  0  0  0  0  0  0  0  0  0  0
   35.8780   23.3380   39.8790 C   0  0  0  0  0  0  0  0  0  0  0  0
   34.6640   23.2060   39.2980 N   0  0  0  0  0  0  0  0  0  0  0  0
   34.7220   22.0860   38.4830 C   0  0  0  0  0  0  0  0  0  0  0  0
   35.9590   21.5650   38.5840 N   0  0  0  0  0  0  0  0  0  0  0  0
   36.6760   22.3150   39.4320 C   0  0  0  0  0  0  0  0  0  0  0  0
   37.9830   22.2260   39.8860 C   0  0  0  0  0  0  0  0  0  0  0  0
   39.5010   23.0620   41.1200 H   0  0  0  0  0  0  0  0  0  0  0  0
   35.7640   25.0630   41.1280 H   0  0  0  0  0  0  0  0  0  0  0  0
   33.8410   23.8170   39.4290 H   0  0  0  0  0  0  0  0  0  0  0  0
   33.8410   21.7860   37.9060 H   0  0  0  0  0  0  0  0  0  0  0  0
   38.6330   21.4220   39.5420 H   0  0  0  0  0  0  0  0  0  0  0  0
   37.8310   28.4560   43.6590 O   0  0  0  0  0  0  0  0  0  0  0  0
   37.6160   29.3490   42.6200 C   0  0  0  0  0  0  0  0  0  0  0  0
   38.8710   29.9170   42.5580 C   0  0  0  0  0  0  0  0  0  0  0  0
   39.9540   30.0650   42.8680 H   0  0  0  0  0  0  0  0  0  0  0  0
   38.6720   31.1680   41.1460 S   0  0  0  0  0  0  0  0  0  0  0  0
   36.8640   30.6230   40.9460 C   0  0  0  0  0  0  0  0  0  0  0  0
   35.7090   30.6340   40.4350 H   0  0  0  0  0  0  0  0  0  0  0  0
   36.7760   29.8380   41.7390 N   0  0  0  0  0  0  0  0  0  0  0  0
  1 23  1  0  0  0  0
  1  6  1  0  0  0  0
  2  1  2  0  0  0  0
  3  2  1  0  0  0  0
  3  4  2  0  0  0  0
  4  5  1  0  0  0  0
  5  6  2  0  0  0  0
  5  8  1  0  0  0  0
  7  2  1  0  0  0  0
  9 18  1  0  0  0  0
  9 10  1  0  0  0  0
 10  3  1  0  0  0  0
 11 19  1  0  0  0  0
 11 10  2  0  0  0  0
 12 11  1  0  0  0  0
 13 20  1  0  0  0  0
 13 12  1  0  0  0  0
 14 15  2  0  0  0  0
 14 13  1  0  0  0  0
 15 16  1  0  0  0  0
 16 12  2  0  0  0  0
 16 17  1  0  0  0  0
 17  9  2  0  0  0  0
 21 14  1  0  0  0  0
 22 17  1  0  0  0  0
 24 23  1  0  0  0  0
 25 24  2  0  0  0  0
 25 26  1  0  0  0  0
 27 25  1  0  0  0  0
 28 27  1  0  0  0  0
 28 30  2  0  0  0  0
 29 28  1  0  0  0  0
 30 24  1  0  0  0  0
M  END
>  <minimizedAffinity>
-5.27008104

$$$$

 OpenBabel03252507363D

 30 33  0  0  0  0  0  0  0  0999 V2000
   37.4350   26.4630   41.6170 C   0  0  0  0  0  0  0  0  0  0  0  0
   37.8690   27.7120   41.1050 C   0  0  0  0  0  0  0  0  0  0  0  0
   37.6750   28.8240   41.9100 C   0  0  0  0  0  0  0  0  0  0  0  0
   37.0980   28.6700   43.1130 N   0  0  0  0  0  0  0  0  0  0  0  0
   36.6920   27.4660   43.5800 C   0  0  0  0  0  0  0  0  0  0  0  0
   36.8630   26.3860   42.8350 N   0  0  0  0  0  0  0  0  0  0  0  0
   38.3250   27.8270   40.1520 H   0  0  0  0  0  0  0  0  0  0  0  0
   36.2440   27.4400   44.5460 H   0  0  0  0  0  0  0  0  0  0  0  0
   39.3860   30.5540   41.7900 C   0  0  0  0  0  0  0  0  0  0  0  0
   38.0700   30.1770   41.5160 C   0  0  0  0  0  0  0  0  0  0  0  0
   37.2460   31.0800   40.9090 C   0  0  0  0  0  0  0  0  0  0  0  0
   37.6620   32.3460   40.5560 C   0  0  0  0  0  0  0  0  0  0  0  0
   37.0330   33.3820   39.9580 N   0  0  0  0  0  0  0  0  0  0  0  0
   37.9550   34.4140   39.8550 C   0  0  0  0  0  0  0  0  0  0  0  0
   39.1140   33.9870   40.3890 N   0  0  0  0  0  0  0  0  0  0  0  0
   38.9540   32.7280   40.8200 C   0  0  0  0  0  0  0  0  0  0  0  0
   39.8140   31.8330   41.4370 C   0  0  0  0  0  0  0  0  0  0  0  0
   40.0700   29.8890   42.2620 H   0  0  0  0  0  0  0  0  0  0  0  0
   36.2290   30.7730   40.7020 H   0  0  0  0  0  0  0  0  0  0  0  0
   36.0520   33.4120   39.6340 H   0  0  0  0  0  0  0  0  0  0  0  0
   37.6590   35.3640   39.3970 H   0  0  0  0  0  0  0  0  0  0  0  0
   40.8430   32.1180   41.6550 H   0  0  0  0  0  0  0  0  0  0  0  0
   37.6320   25.3430   40.8020 O   0  0  0  0  0  0  0  0  0  0  0  0
   36.7200   25.0570   39.7970 C   0  0  0  0  0  0  0  0  0  0  0  0
   36.2740   23.8330   40.2520 C   0  0  0  0  0  0  0  0  0  0  0  0
   36.2310   22.9490   40.9640 H   0  0  0  0  0  0  0  0  0  0  0  0
   35.0060   23.3540   38.9240 S   0  0  0  0  0  0  0  0  0  0  0  0
   35.3750   24.9800   38.0140 C   0  0  0  0  0  0  0  0  0  0  0  0
   35.2510   25.8370   37.0960 H   0  0  0  0  0  0  0  0  0  0  0  0
   36.1500   25.4390   38.6790 N   0  0  0  0  0  0  0  0  0  0  0  0
  1  6  1  0  0  0  0
  2  1  2  0  0  0  0
  2  3  1  0  0  0  0
  3  4  2  0  0  0  0
  4  5  1  0  0  0  0
  5  8  1  0  0  0  0
  6  5  2  0  0  0  0
  7  2  1  0  0  0  0
  9 18  1  0  0  0  0
 10  9  1  0  0  0  0
 10  3  1  0  0  0  0
 11 10  2  0  0  0  0
 12 16  2  0  0  0  0
 12 11  1  0  0  0  0
 13 12  1  0  0  0  0
 14 13  1  0  0  0  0
 14 15  2  0  0  0  0
 15 16  1  0  0  0  0
 16 17  1  0  0  0  0
 17 22  1  0  0  0  0
 17  9  2  0  0  0  0
 19 11  1  0  0  0  0
 20 13  1  0  0  0  0
 21 14  1  0  0  0  0
 23  1  1  0  0  0  0
 24 25  2  0  0  0  0
 24 23  1  0  0  0  0
 25 26  1  0  0  0  0
 27 25  1  0  0  0  0
 28 30  2  0  0  0  0
 28 27  1  0  0  0  0
 29 28  1  0  0  0  0
 30 24  1  0  0  0  0
M  END
>  <minimizedAffinity>
-5.25539064

$$$$
