
 OpenBabel03252504183D

 36 38  0  0  0  0  0  0  0  0999 V2000
   47.6460   30.0120   44.9270 F   0  0  0  0  0  0  0  0  0  0  0  0
   47.5230   30.7700   46.0810 C   0  0  0  0  0  0  0  0  0  0  0  0
   46.9620   32.0100   46.0120 C   0  0  0  0  0  0  0  0  0  0  0  0
   46.8780   32.7030   47.2070 C   0  0  0  0  0  0  0  0  0  0  0  0
   47.3320   32.1700   48.3790 C   0  0  0  0  0  0  0  0  0  0  0  0
   47.8920   30.9050   48.3890 C   0  0  0  0  0  0  0  0  0  0  0  0
   48.0010   30.1640   47.2130 C   0  0  0  0  0  0  0  0  0  0  0  0
   46.4360   33.6970   47.1920 H   0  0  0  0  0  0  0  0  0  0  0  0
   47.2600   32.7160   49.3230 H   0  0  0  0  0  0  0  0  0  0  0  0
   48.2600   30.4700   49.3270 H   0  0  0  0  0  0  0  0  0  0  0  0
   46.7950   34.1310   43.0360 C   0  0  0  0  0  0  0  0  0  0  0  0
   45.6440   33.7020   42.3890 C   0  0  0  0  0  0  0  0  0  0  0  0
   44.9190   32.6660   42.9910 C   0  0  0  0  0  0  0  0  0  0  0  0
   45.3460   32.1280   44.1520 N   0  0  0  0  0  0  0  0  0  0  0  0
   46.4700   32.5760   44.7490 C   0  0  0  0  0  0  0  0  0  0  0  0
   47.1830   33.5660   44.1940 N   0  0  0  0  0  0  0  0  0  0  0  0
   44.0190   32.3190   42.4960 H   0  0  0  0  0  0  0  0  0  0  0  0
   45.2460   34.3350   41.1320 C   0  0  0  0  0  0  0  0  0  0  0  0
   44.9740   35.6780   41.3240 F   0  0  0  0  0  0  0  0  0  0  0  0
   46.3160   34.2790   40.2450 F   0  0  0  0  0  0  0  0  0  0  0  0
   44.1640   33.7850   40.5170 F   0  0  0  0  0  0  0  0  0  0  0  0
   47.5060   35.1310   42.4630 O   0  0  0  0  0  0  0  0  0  0  0  0
   48.8230   35.0480   41.9380 C   0  0  0  0  0  0  0  0  0  0  0  0
   49.6910   35.2940   43.0040 F   0  0  0  0  0  0  0  0  0  0  0  0
   49.0140   33.8360   41.3520 F   0  0  0  0  0  0  0  0  0  0  0  0
   49.0340   36.1020   41.0720 F   0  0  0  0  0  0  0  0  0  0  0  0
   48.6010   28.7910   47.1910 C   0  0  0  0  0  0  0  0  0  0  0  0
   48.8760   28.5710   46.1410 H   0  0  0  0  0  0  0  0  0  0  0  0
   47.8220   28.0660   47.4760 H   0  0  0  0  0  0  0  0  0  0  0  0
   49.7890   28.7230   48.0960 C   0  0  0  0  0  0  0  0  0  0  0  0
   51.0680   29.3350   47.6860 C   0  0  0  0  0  0  0  0  0  0  0  0
   51.2260   29.8330   46.7800 H   0  0  0  0  0  0  0  0  0  0  0  0
   52.1210   28.9720   49.1050 S   0  0  0  0  0  0  0  0  0  0  0  0
   50.7130   28.0690   50.0210 C   0  0  0  0  0  0  0  0  0  0  0  0
   50.8370   27.6260   51.0000 H   0  0  0  0  0  0  0  0  0  0  0  0
   49.8200   28.1480   49.2820 N   0  0  0  0  0  0  0  0  0  0  0  0
  1  2  1  0  0  0  0
  2  7  1  0  0  0  0
  3  2  2  0  0  0  0
  3  4  1  0  0  0  0
  4  5  2  0  0  0  0
  5  6  1  0  0  0  0
  5  9  1  0  0  0  0
  6 10  1  0  0  0  0
  7  6  2  0  0  0  0
  8  4  1  0  0  0  0
 11 16  1  0  0  0  0
 12 13  1  0  0  0  0
 12 11  2  0  0  0  0
 13 14  2  0  0  0  0
 14 15  1  0  0  0  0
 15  3  1  0  0  0  0
 16 15  2  0  0  0  0
 17 13  1  0  0  0  0
 18 19  1  0  0  0  0
 18 12  1  0  0  0  0
 20 18  1  0  0  0  0
 21 18  1  0  0  0  0
 22 11  1  0  0  0  0
 23 22  1  0  0  0  0
 23 24  1  0  0  0  0
 25 23  1  0  0  0  0
 26 23  1  0  0  0  0
 27  7  1  0  0  0  0
 27 29  1  0  0  0  0
 27 30  1  0  0  0  0
 28 27  1  0  0  0  0
 30 36  1  0  0  0  0
 31 30  2  0  0  0  0
 31 33  1  0  0  0  0
 32 31  1  0  0  0  0
 33 34  1  0  0  0  0
 34 35  1  0  0  0  0
 36 34  2  0  0  0  0
M  END
>  <minimizedAffinity>
-5.59082174

>  <minimizedRMSD>
1.34915733

$$$$
