
 OpenBabel03252507363D

 30 33  0  0  0  0  0  0  0  0999 V2000
   45.4920   34.8280   43.5420 C   0  0  0  0  0  0  0  0  0  0  0  0
   46.2030   33.7440   44.1180 C   0  0  0  0  0  0  0  0  0  0  0  0
   46.0180   33.5200   45.4740 C   0  0  0  0  0  0  0  0  0  0  0  0
   45.1910   34.3210   46.1640 N   0  0  0  0  0  0  0  0  0  0  0  0
   44.5220   35.3500   45.5910 C   0  0  0  0  0  0  0  0  0  0  0  0
   44.6790   35.5900   44.2990 N   0  0  0  0  0  0  0  0  0  0  0  0
   46.8560   33.1130   43.5650 H   0  0  0  0  0  0  0  0  0  0  0  0
   43.8880   35.9320   46.2170 H   0  0  0  0  0  0  0  0  0  0  0  0
   47.0070   32.6910   47.5400 C   0  0  0  0  0  0  0  0  0  0  0  0
   46.6840   32.4410   46.2050 C   0  0  0  0  0  0  0  0  0  0  0  0
   47.0050   31.2260   45.6730 C   0  0  0  0  0  0  0  0  0  0  0  0
   47.6350   30.2390   46.4010 C   0  0  0  0  0  0  0  0  0  0  0  0
   48.0390   28.9880   46.0870 N   0  0  0  0  0  0  0  0  0  0  0  0
   48.6170   28.4480   47.2260 C   0  0  0  0  0  0  0  0  0  0  0  0
   48.5530   29.3750   48.2000 N   0  0  0  0  0  0  0  0  0  0  0  0
   47.9570   30.4730   47.7140 C   0  0  0  0  0  0  0  0  0  0  0  0
   47.6430   31.6980   48.2830 C   0  0  0  0  0  0  0  0  0  0  0  0
   46.7780   33.6200   48.0050 H   0  0  0  0  0  0  0  0  0  0  0  0
   46.7480   31.0470   44.6370 H   0  0  0  0  0  0  0  0  0  0  0  0
   47.9410   28.5120   45.1750 H   0  0  0  0  0  0  0  0  0  0  0  0
   49.0200   27.4300   47.2030 H   0  0  0  0  0  0  0  0  0  0  0  0
   47.8910   31.9020   49.3240 H   0  0  0  0  0  0  0  0  0  0  0  0
   45.6820   35.0520   42.1740 O   0  0  0  0  0  0  0  0  0  0  0  0
   44.6080   34.9380   41.3040 C   0  0  0  0  0  0  0  0  0  0  0  0
   45.0110   33.8190   40.6060 C   0  0  0  0  0  0  0  0  0  0  0  0
   45.7070   32.9590   40.3460 H   0  0  0  0  0  0  0  0  0  0  0  0
   43.5860   33.5820   39.3760 S   0  0  0  0  0  0  0  0  0  0  0  0
   42.7280   35.1100   40.1090 C   0  0  0  0  0  0  0  0  0  0  0  0
   41.8140   35.9740   40.2170 H   0  0  0  0  0  0  0  0  0  0  0  0
   43.4550   35.4180   40.9020 N   0  0  0  0  0  0  0  0  0  0  0  0
  1  2  2  0  0  0  0
  1  6  1  0  0  0  0
  2  3  1  0  0  0  0
  3  4  2  0  0  0  0
  3 10  1  0  0  0  0
  5  4  1  0  0  0  0
  5  8  1  0  0  0  0
  6  5  2  0  0  0  0
  7  2  1  0  0  0  0
  9 18  1  0  0  0  0
  9 17  1  0  0  0  0
 10  9  2  0  0  0  0
 11 10  1  0  0  0  0
 11 12  2  0  0  0  0
 12 16  1  0  0  0  0
 13 12  1  0  0  0  0
 13 14  1  0  0  0  0
 14 15  2  0  0  0  0
 16 15  1  0  0  0  0
 16 17  2  0  0  0  0
 17 22  1  0  0  0  0
 19 11  1  0  0  0  0
 20 13  1  0  0  0  0
 21 14  1  0  0  0  0
 23  1  1  0  0  0  0
 24 23  1  0  0  0  0
 25 24  2  0  0  0  0
 26 25  1  0  0  0  0
 27 28  1  0  0  0  0
 27 25  1  0  0  0  0
 28 29  1  0  0  0  0
 28 30  2  0  0  0  0
 30 24  1  0  0  0  0
M  END
>  <minimizedAffinity>
-5.24427509

>  <minimizedRMSD>
6.8848505

$$$$
