
 OpenBabel03242523423D

 22 23  0  0  1  0  0  0  0  0999 V2000
   46.4980   35.1630   42.0620 C   0  0  2  0  0  0  0  0  0  0  0  0
   46.1450   36.2200   41.9950 H   0  0  0  0  0  0  0  0  0  0  0  0
   45.1510   35.3020   44.1400 C   0  0  0  0  0  0  0  0  0  0  0  0
   46.1690   34.6860   43.4140 C   0  0  0  0  0  0  0  0  0  0  0  0
   46.8700   33.6010   44.0060 C   0  0  0  0  0  0  0  0  0  0  0  0
   46.4970   33.2320   45.2640 N   0  0  0  0  0  0  0  0  0  0  0  0
   45.5150   33.8540   45.9220 C   0  0  0  0  0  0  0  0  0  0  0  0
   44.8560   34.8730   45.3600 N   0  0  0  0  0  0  0  0  0  0  0  0
   44.5710   36.1310   43.7620 H   0  0  0  0  0  0  0  0  0  0  0  0
   47.6620   33.1000   43.4720 H   0  0  0  0  0  0  0  0  0  0  0  0
   45.2350   33.5390   46.9270 H   0  0  0  0  0  0  0  0  0  0  0  0
   45.9060   34.3420   40.9710 C   0  0  0  0  0  0  0  0  0  0  0  0
   44.4480   34.2500   40.8400 C   0  0  0  0  0  0  0  0  0  0  0  0
   43.7580   34.7220   41.4600 H   0  0  0  0  0  0  0  0  0  0  0  0
   44.2640   33.1730   39.4110 S   0  0  0  0  0  0  0  0  0  0  0  0
   46.1610   33.0070   39.2020 C   0  0  0  0  0  0  0  0  0  0  0  0
   46.6170   32.4120   38.4160 H   0  0  0  0  0  0  0  0  0  0  0  0
   46.6010   33.6650   40.0780 N   0  0  0  0  0  0  0  0  0  0  0  0
   48.0040   35.2440   41.9430 C   0  0  0  0  0  0  0  0  0  0  0  0
   48.3810   36.2960   41.8870 H   0  0  0  0  0  0  0  0  0  0  0  0
   48.2630   34.8050   40.9340 H   0  0  0  0  0  0  0  0  0  0  0  0
   48.4590   34.6760   42.7580 H   0  0  0  0  0  0  0  0  0  0  0  0
  1  2  1  6  0  0  0
  1  4  1  0  0  0  0
  3  8  1  0  0  0  0
  4  5  1  0  0  0  0
  4  3  2  0  0  0  0
  5  6  2  0  0  0  0
  6  7  1  0  0  0  0
  7 11  1  0  0  0  0
  8  7  2  0  0  0  0
  9  3  1  0  0  0  0
 10  5  1  0  0  0  0
 12  1  1  0  0  0  0
 13 12  2  0  0  0  0
 13 14  1  0  0  0  0
 15 13  1  0  0  0  0
 16 15  1  0  0  0  0
 16 18  2  0  0  0  0
 17 16  1  0  0  0  0
 18 12  1  0  0  0  0
 19  1  1  0  0  0  0
 19 22  1  0  0  0  0
 20 19  1  0  0  0  0
 21 19  1  0  0  0  0
M  END
>  <minimizedAffinity>
-3.8740561

>  <minimizedRMSD>
0.551360965

$$$$
