
 OpenBabel03252509233D

 25 27  0  0  1  0  0  0  0  0999 V2000
   46.6680   34.7870   41.9710 C   0  0  1  0  0  0  0  0  0  0  0  0
   48.1040   35.3740   41.9970 C   0  0  0  0  0  0  0  0  0  0  0  0
   47.7220   33.9000   41.6400 C   0  0  2  0  0  0  0  0  0  0  0  0
   46.0190   35.2800   41.2210 H   0  0  0  0  0  0  0  0  0  0  0  0
   48.4130   35.9810   41.1180 H   0  0  0  0  0  0  0  0  0  0  0  0
   48.6080   35.5270   42.9430 H   0  0  0  0  0  0  0  0  0  0  0  0
   48.0610   33.1370   42.3880 H   0  0  0  0  0  0  0  0  0  0  0  0
   44.5650   35.5510   44.9860 C   0  0  0  0  0  0  0  0  0  0  0  0
   45.1230   35.6880   43.6740 C   0  0  0  0  0  0  0  0  0  0  0  0
   46.0880   34.7660   43.3620 C   0  0  0  0  0  0  0  0  0  0  0  0
   46.4800   33.7910   44.2580 N   0  0  0  0  0  0  0  0  0  0  0  0
   45.9220   33.7090   45.4760 C   0  0  0  0  0  0  0  0  0  0  0  0
   44.9590   34.5950   45.8390 N   0  0  0  0  0  0  0  0  0  0  0  0
   43.8000   36.2730   45.2410 H   0  0  0  0  0  0  0  0  0  0  0  0
   46.1950   32.9640   46.2090 H   0  0  0  0  0  0  0  0  0  0  0  0
   44.7310   36.7190   42.7720 N   0  0  0  0  0  0  0  0  0  0  0  0
   44.7970   37.7450   43.0220 H   0  0  0  0  0  0  0  0  0  0  0  0
   44.3670   36.4750   41.8390 H   0  0  0  0  0  0  0  0  0  0  0  0
   47.9430   33.5070   40.2230 C   0  0  0  0  0  0  0  0  0  0  0  0
   48.9970   32.5570   39.9390 C   0  0  0  0  0  0  0  0  0  0  0  0
   49.6730   32.0790   40.6770 H   0  0  0  0  0  0  0  0  0  0  0  0
   48.9130   32.3610   38.0720 S   0  0  0  0  0  0  0  0  0  0  0  0
   47.4750   33.5970   38.0380 C   0  0  0  0  0  0  0  0  0  0  0  0
   46.7490   34.1050   37.2180 H   0  0  0  0  0  0  0  0  0  0  0  0
   47.3170   33.8870   39.1100 N   0  0  0  0  0  0  0  0  0  0  0  0
  1  4  1  6  0  0  0
  1  2  1  0  0  0  0
  1 10  1  0  0  0  0
  2  6  1  0  0  0  0
  3  1  1  0  0  0  0
  3  2  1  0  0  0  0
  3  7  1  1  0  0  0
  5  2  1  0  0  0  0
  8 14  1  0  0  0  0
  8 13  1  0  0  0  0
  9  8  2  0  0  0  0
 10  9  1  0  0  0  0
 10 11  2  0  0  0  0
 11 12  1  0  0  0  0
 12 13  2  0  0  0  0
 12 15  1  0  0  0  0
 16 17  1  0  0  0  0
 16  9  1  0  0  0  0
 18 16  1  0  0  0  0
 19  3  1  0  0  0  0
 20 19  2  0  0  0  0
 20 21  1  0  0  0  0
 22 20  1  0  0  0  0
 23 22  1  0  0  0  0
 23 25  2  0  0  0  0
 24 23  1  0  0  0  0
 25 19  1  0  0  0  0
M  END
>  <minimizedAffinity>
-4.62515402

>  <minimizedRMSD>
0.537611663

$$$$
