
 OpenBabel03242518073D

 33 35  0  0  1  0  0  0  0  0999 V2000
   46.5720   34.8710   42.1410 N   0  0  0  0  0  0  0  0  0  0  0  0
   47.8730   35.4750   42.0050 C   0  0  0  0  0  0  0  0  0  0  0  0
   48.8080   34.5620   41.3280 C   0  0  0  0  0  0  0  0  0  0  0  0
   48.2220   33.4890   40.5010 C   0  0  0  0  0  0  0  0  0  0  0  0
   46.8190   33.6280   40.0690 C   0  0  0  0  0  0  0  0  0  0  0  0
   45.8900   34.3970   40.9760 C   0  0  1  0  0  0  0  0  0  0  0  0
   48.2770   35.8670   42.9470 H   0  0  0  0  0  0  0  0  0  0  0  0
   47.7050   36.3770   41.3540 H   0  0  0  0  0  0  0  0  0  0  0  0
   49.5160   35.1880   40.7180 H   0  0  0  0  0  0  0  0  0  0  0  0
   49.4740   34.1300   42.1220 H   0  0  0  0  0  0  0  0  0  0  0  0
   48.8790   33.3230   39.6230 H   0  0  0  0  0  0  0  0  0  0  0  0
   48.2950   32.5180   41.0700 H   0  0  0  0  0  0  0  0  0  0  0  0
   46.8430   34.0650   39.0250 H   0  0  0  0  0  0  0  0  0  0  0  0
   46.3660   32.6280   39.9070 H   0  0  0  0  0  0  0  0  0  0  0  0
   45.6040   35.3100   40.4200 H   0  0  0  0  0  0  0  0  0  0  0  0
   45.0870   35.7840   43.8320 C   0  0  0  0  0  0  0  0  0  0  0  0
   45.9970   34.7780   43.4240 C   0  0  0  0  0  0  0  0  0  0  0  0
   46.2500   33.7520   44.3310 C   0  0  0  0  0  0  0  0  0  0  0  0
   45.6330   33.7590   45.5280 N   0  0  0  0  0  0  0  0  0  0  0  0
   44.7690   34.7380   45.8830 C   0  0  0  0  0  0  0  0  0  0  0  0
   44.4910   35.7580   45.0340 N   0  0  0  0  0  0  0  0  0  0  0  0
   44.8070   36.8650   42.9410 N   0  0  0  0  0  0  0  0  0  0  0  0
   46.9360   32.9790   44.0480 H   0  0  0  0  0  0  0  0  0  0  0  0
   44.3080   34.6820   46.8600 H   0  0  0  0  0  0  0  0  0  0  0  0
   43.8480   36.7980   42.5260 H   0  0  0  0  0  0  0  0  0  0  0  0
   45.4780   37.6250   42.7340 H   0  0  0  0  0  0  0  0  0  0  0  0
   44.6820   33.5560   41.3100 C   0  0  0  0  0  0  0  0  0  0  0  0
   43.4730   34.2160   40.9440 C   0  0  0  0  0  0  0  0  0  0  0  0
   43.1910   35.0900   40.5440 H   0  0  0  0  0  0  0  0  0  0  0  0
   42.2540   32.9810   41.4360 S   0  0  0  0  0  0  0  0  0  0  0  0
   43.5120   31.7760   42.0510 C   0  0  0  0  0  0  0  0  0  0  0  0
   43.6420   30.7430   42.5260 H   0  0  0  0  0  0  0  0  0  0  0  0
   44.8710   32.3600   41.8630 N   0  0  0  0  0  0  0  0  0  0  0  0
  1 17  1  0  0  0  0
  2  1  1  0  0  0  0
  2  7  1  0  0  0  0
  3  2  1  0  0  0  0
  3 10  1  0  0  0  0
  4 12  1  0  0  0  0
  4  3  1  0  0  0  0
  5  4  1  0  0  0  0
  5  6  1  0  0  0  0
  6 15  1  6  0  0  0
  6 27  1  0  0  0  0
  6  1  1  0  0  0  0
  8  2  1  0  0  0  0
  9  3  1  0  0  0  0
 11  4  1  0  0  0  0
 13  5  1  0  0  0  0
 14  5  1  0  0  0  0
 16 21  1  0  0  0  0
 17 16  2  0  0  0  0
 17 18  1  0  0  0  0
 18 19  2  0  0  0  0
 19 20  1  0  0  0  0
 20 24  1  0  0  0  0
 21 20  2  0  0  0  0
 22 16  1  0  0  0  0
 23 18  1  0  0  0  0
 25 22  1  0  0  0  0
 26 22  1  0  0  0  0
 27 33  1  0  0  0  0
 28 27  2  0  0  0  0
 28 30  1  0  0  0  0
 29 28  1  0  0  0  0
 30 31  1  0  0  0  0
 31 32  1  0  0  0  0
 33 31  2  0  0  0  0
M  END
>  <minimizedAffinity>
-4.94913197

>  <minimizedRMSD>
0.235572159

$$$$
