
 OpenBabel03252508033D

 40 43  0  0  1  0  0  0  0  0999 V2000
   44.2270   34.3640   41.5420 C   0  0  0  0  0  0  0  0  0  0  0  0
   45.1050   34.2470   40.6150 O   0  0  0  0  0  0  0  0  0  0  0  0
   42.0420   33.2840   41.1170 C   0  0  0  0  0  0  0  0  0  0  0  0
   42.7770   34.4160   41.3180 C   0  0  0  0  0  0  0  0  0  0  0  0
   42.1280   35.6590   41.2920 C   0  0  0  0  0  0  0  0  0  0  0  0
   40.7810   35.7970   41.0740 C   0  0  0  0  0  0  0  0  0  0  0  0
   40.0400   34.6660   40.8740 C   0  0  0  0  0  0  0  0  0  0  0  0
   40.6630   33.4570   40.8970 C   0  0  0  0  0  0  0  0  0  0  0  0
   42.6440   36.5960   41.4330 H   0  0  0  0  0  0  0  0  0  0  0  0
   40.2820   36.7500   41.0540 H   0  0  0  0  0  0  0  0  0  0  0  0
   38.9790   34.6430   40.6930 H   0  0  0  0  0  0  0  0  0  0  0  0
   40.0830   32.5340   40.7360 H   0  0  0  0  0  0  0  0  0  0  0  0
   42.7020   31.7280   41.1780 S   0  0  0  0  0  0  0  0  0  0  0  0
   41.5510   30.8950   40.5820 O   0  0  0  0  0  0  0  0  0  0  0  0
   42.8780   31.2450   42.5780 O   0  0  0  0  0  0  0  0  0  0  0  0
   43.7570   31.0550   40.0120 C   0  0  0  0  0  0  0  0  0  0  0  0
   43.9210   29.5100   40.2390 C   0  0  0  0  0  0  0  0  0  0  0  0
   43.4600   28.7460   41.1250 H   0  0  0  0  0  0  0  0  0  0  0  0
   44.9180   29.0070   38.9710 S   0  0  0  0  0  0  0  0  0  0  0  0
   45.1140   30.6640   38.1990 C   0  0  0  0  0  0  0  0  0  0  0  0
   45.6600   30.9920   37.3250 H   0  0  0  0  0  0  0  0  0  0  0  0
   44.4610   31.2870   38.9430 N   0  0  0  0  0  0  0  0  0  0  0  0
   44.5730   34.4610   42.9290 C   0  0  0  0  0  0  0  0  0  0  0  0
   44.3060   35.7130   43.5570 C   0  0  0  0  0  0  0  0  0  0  0  0
   44.6330   35.8160   44.8980 C   0  0  0  0  0  0  0  0  0  0  0  0
   45.1780   34.7420   45.5270 N   0  0  0  0  0  0  0  0  0  0  0  0
   45.4180   33.5550   44.8820 C   0  0  0  0  0  0  0  0  0  0  0  0
   45.1070   33.4840   43.6420 N   0  0  0  0  0  0  0  0  0  0  0  0
   43.8910   36.5960   43.1550 H   0  0  0  0  0  0  0  0  0  0  0  0
   44.4730   36.7300   45.4820 H   0  0  0  0  0  0  0  0  0  0  0  0
   46.0060   32.4380   45.6450 C   0  0  1  0  0  0  0  0  0  0  0  0
   46.9700   32.7580   46.7690 C   0  0  0  0  0  0  0  0  0  0  0  0
   45.5450   32.3540   47.0580 C   0  0  1  0  0  0  0  0  0  0  0  0
   46.0980   31.4630   45.1410 H   0  0  0  0  0  0  0  0  0  0  0  0
   47.7750   31.9930   46.9050 H   0  0  0  0  0  0  0  0  0  0  0  0
   47.2900   33.8030   46.7760 H   0  0  0  0  0  0  0  0  0  0  0  0
   45.4280   31.3660   47.5430 H   0  0  0  0  0  0  0  0  0  0  0  0
   44.7670   33.4080   47.6390 N   0  0  0  0  0  0  0  0  0  0  0  0
   43.9230   33.0900   48.1340 H   0  0  0  0  0  0  0  0  0  0  0  0
   45.3240   34.1310   48.1360 H   0  0  0  0  0  0  0  0  0  0  0  0
  1 23  1  0  0  0  0
  2  1  2  0  0  0  0
  3 13  1  0  0  0  0
  3  4  1  0  0  0  0
  4  1  1  0  0  0  0
  5  4  2  0  0  0  0
  5  9  1  0  0  0  0
  6  5  1  0  0  0  0
  7  8  1  0  0  0  0
  7  6  2  0  0  0  0
  8  3  2  0  0  0  0
 10  6  1  0  0  0  0
 11  7  1  0  0  0  0
 12  8  1  0  0  0  0
 13 15  2  0  0  0  0
 14 13  2  0  0  0  0
 16 17  2  0  0  0  0
 16 13  1  0  0  0  0
 17 18  1  0  0  0  0
 19 17  1  0  0  0  0
 20 22  2  0  0  0  0
 20 19  1  0  0  0  0
 21 20  1  0  0  0  0
 22 16  1  0  0  0  0
 23 24  2  0  0  0  0
 23 28  1  0  0  0  0
 24 25  1  0  0  0  0
 25 30  1  0  0  0  0
 25 26  2  0  0  0  0
 27 26  1  0  0  0  0
 27 31  1  0  0  0  0
 28 27  2  0  0  0  0
 29 24  1  0  0  0  0
 31 34  1  6  0  0  0
 31 32  1  0  0  0  0
 31 33  1  0  0  0  0
 32 36  1  0  0  0  0
 32 35  1  0  0  0  0
 32 33  1  0  0  0  0
 33 37  1  1  0  0  0
 33 38  1  0  0  0  0
 38 39  1  0  0  0  0
 38 40  1  0  0  0  0
M  END
>  <minimizedAffinity>
-5.69380951

>  <minimizedRMSD>
1.21038878

$$$$
