
 OpenBabel03252509263D

 28 30  0  0  1  0  0  0  0  0999 V2000
   46.5950   35.0910   41.9190 C   0  0  1  0  0  0  0  0  0  0  0  0
   48.1430   35.2580   41.9370 C   0  0  0  0  0  0  0  0  0  0  0  0
   47.3380   34.0830   41.2880 C   0  0  2  0  0  0  0  0  0  0  0  0
   46.0780   35.9000   41.3620 H   0  0  0  0  0  0  0  0  0  0  0  0
   48.6850   35.0490   42.8580 H   0  0  0  0  0  0  0  0  0  0  0  0
   48.5280   35.9550   41.1850 H   0  0  0  0  0  0  0  0  0  0  0  0
   47.5760   33.0980   41.7980 H   0  0  0  0  0  0  0  0  0  0  0  0
   44.6430   35.4140   45.1110 C   0  0  0  0  0  0  0  0  0  0  0  0
   45.1240   35.7300   43.7990 C   0  0  0  0  0  0  0  0  0  0  0  0
   46.0730   34.8880   43.3210 C   0  0  0  0  0  0  0  0  0  0  0  0
   46.5350   33.8130   44.0470 N   0  0  0  0  0  0  0  0  0  0  0  0
   46.0580   33.5500   45.2770 C   0  0  0  0  0  0  0  0  0  0  0  0
   45.1090   34.3530   45.8080 N   0  0  0  0  0  0  0  0  0  0  0  0
   43.8770   36.1050   45.4800 H   0  0  0  0  0  0  0  0  0  0  0  0
   46.4390   32.7020   45.8220 H   0  0  0  0  0  0  0  0  0  0  0  0
   44.6700   36.8470   43.0780 N   0  0  0  0  0  0  0  0  0  0  0  0
   45.4190   37.5350   43.3700 H   0  0  0  0  0  0  0  0  0  0  0  0
   43.8560   36.9970   42.4410 H   0  0  0  0  0  0  0  0  0  0  0  0
   47.4050   33.9480   39.7880 C   0  0  0  0  0  0  0  0  0  0  0  0
   48.4050   33.5780   39.4820 H   0  0  0  0  0  0  0  0  0  0  0  0
   47.3410   34.9770   39.3800 H   0  0  0  0  0  0  0  0  0  0  0  0
   46.3310   33.0430   39.2650 C   0  0  0  0  0  0  0  0  0  0  0  0
   45.7490   32.0520   40.0530 C   0  0  0  0  0  0  0  0  0  0  0  0
   46.0290   31.8560   41.1190 H   0  0  0  0  0  0  0  0  0  0  0  0
   44.5270   31.2840   38.8920 S   0  0  0  0  0  0  0  0  0  0  0  0
   45.0460   32.4760   37.5240 C   0  0  0  0  0  0  0  0  0  0  0  0
   44.6230   32.4960   36.5110 H   0  0  0  0  0  0  0  0  0  0  0  0
   45.8600   33.1150   38.0260 N   0  0  0  0  0  0  0  0  0  0  0  0
  1  4  1  6  0  0  0
  1  2  1  0  0  0  0
  1 10  1  0  0  0  0
  2  5  1  0  0  0  0
  3  7  1  1  0  0  0
  3  1  1  0  0  0  0
  3  2  1  0  0  0  0
  6  2  1  0  0  0  0
  8 14  1  0  0  0  0
  8 13  1  0  0  0  0
  9  8  2  0  0  0  0
 10  9  1  0  0  0  0
 10 11  2  0  0  0  0
 11 12  1  0  0  0  0
 12 13  2  0  0  0  0
 12 15  1  0  0  0  0
 16 17  1  0  0  0  0
 16  9  1  0  0  0  0
 18 16  1  0  0  0  0
 19  3  1  0  0  0  0
 20 19  1  0  0  0  0
 21 19  1  0  0  0  0
 22 19  1  0  0  0  0
 22 23  2  0  0  0  0
 23 24  1  0  0  0  0
 25 23  1  0  0  0  0
 26 28  2  0  0  0  0
 26 25  1  0  0  0  0
 27 26  1  0  0  0  0
 28 22  1  0  0  0  0
M  END
>  <minimizedAffinity>
-4.47423506

>  <minimizedRMSD>
0.716259897

$$$$
