
 OpenBabel03252509263D

 28 30  0  0  1  0  0  0  0  0999 V2000
   46.6570   35.1300   42.0070 C   0  0  1  0  0  0  0  0  0  0  0  0
   48.2130   35.1030   42.0450 C   0  0  0  0  0  0  0  0  0  0  0  0
   47.2790   34.0750   41.3240 C   0  0  2  0  0  0  0  0  0  0  0  0
   46.2500   36.0260   41.4940 H   0  0  0  0  0  0  0  0  0  0  0  0
   48.7130   34.7780   42.9560 H   0  0  0  0  0  0  0  0  0  0  0  0
   48.6920   35.7890   41.3360 H   0  0  0  0  0  0  0  0  0  0  0  0
   47.3870   33.0410   41.7780 H   0  0  0  0  0  0  0  0  0  0  0  0
   44.6080   35.4200   45.1410 C   0  0  0  0  0  0  0  0  0  0  0  0
   45.1260   35.7470   43.8460 C   0  0  0  0  0  0  0  0  0  0  0  0
   46.0950   34.9150   43.3910 C   0  0  0  0  0  0  0  0  0  0  0  0
   46.5420   33.8380   44.1240 N   0  0  0  0  0  0  0  0  0  0  0  0
   46.0300   33.5640   45.3370 C   0  0  0  0  0  0  0  0  0  0  0  0
   45.0600   34.3570   45.8450 N   0  0  0  0  0  0  0  0  0  0  0  0
   43.8270   36.1030   45.4910 H   0  0  0  0  0  0  0  0  0  0  0  0
   46.4000   32.7150   45.8890 H   0  0  0  0  0  0  0  0  0  0  0  0
   44.6860   36.8660   43.1180 N   0  0  0  0  0  0  0  0  0  0  0  0
   45.4220   37.5560   43.4380 H   0  0  0  0  0  0  0  0  0  0  0  0
   43.8900   37.0150   42.4580 H   0  0  0  0  0  0  0  0  0  0  0  0
   47.3500   34.0170   39.8190 C   0  0  0  0  0  0  0  0  0  0  0  0
   48.3850   33.7860   39.4940 H   0  0  0  0  0  0  0  0  0  0  0  0
   47.1590   35.0480   39.4590 H   0  0  0  0  0  0  0  0  0  0  0  0
   46.3890   33.0130   39.2570 C   0  0  0  0  0  0  0  0  0  0  0  0
   45.0100   33.1510   39.3950 C   0  0  0  0  0  0  0  0  0  0  0  0
   44.5170   34.0040   39.9250 H   0  0  0  0  0  0  0  0  0  0  0  0
   44.3700   31.6460   38.5230 S   0  0  0  0  0  0  0  0  0  0  0  0
   46.1310   31.1010   38.1260 C   0  0  0  0  0  0  0  0  0  0  0  0
   46.4000   30.1920   37.5730 H   0  0  0  0  0  0  0  0  0  0  0  0
   46.7770   31.9300   38.5950 N   0  0  0  0  0  0  0  0  0  0  0  0
  1  4  1  6  0  0  0
  1  2  1  0  0  0  0
  1 10  1  0  0  0  0
  2  5  1  0  0  0  0
  3  7  1  1  0  0  0
  3  1  1  0  0  0  0
  3  2  1  0  0  0  0
  6  2  1  0  0  0  0
  8 14  1  0  0  0  0
  8 13  1  0  0  0  0
  9  8  2  0  0  0  0
 10  9  1  0  0  0  0
 10 11  2  0  0  0  0
 11 12  1  0  0  0  0
 12 13  2  0  0  0  0
 12 15  1  0  0  0  0
 16 17  1  0  0  0  0
 16  9  1  0  0  0  0
 18 16  1  0  0  0  0
 19  3  1  0  0  0  0
 20 19  1  0  0  0  0
 21 19  1  0  0  0  0
 22 23  2  0  0  0  0
 22 19  1  0  0  0  0
 23 24  1  0  0  0  0
 25 23  1  0  0  0  0
 26 25  1  0  0  0  0
 26 28  2  0  0  0  0
 27 26  1  0  0  0  0
 28 22  1  0  0  0  0
M  END
>  <minimizedAffinity>
-4.39670229

>  <minimizedRMSD>
0.829715014

$$$$
