
 OpenBabel03242523423D

 22 23  0  0  1  0  0  0  0  0999 V2000
   46.7690   35.1470   41.8070 C   0  0  2  0  0  0  0  0  0  0  0  0
   46.6770   36.1910   41.4230 H   0  0  0  0  0  0  0  0  0  0  0  0
   45.1820   36.1250   43.4440 C   0  0  0  0  0  0  0  0  0  0  0  0
   46.0620   35.1020   43.0960 C   0  0  0  0  0  0  0  0  0  0  0  0
   46.2570   34.0290   44.0070 C   0  0  0  0  0  0  0  0  0  0  0  0
   45.5600   34.0740   45.1790 N   0  0  0  0  0  0  0  0  0  0  0  0
   44.7280   35.0770   45.4690 C   0  0  0  0  0  0  0  0  0  0  0  0
   44.5460   36.0840   44.6070 N   0  0  0  0  0  0  0  0  0  0  0  0
   44.9790   36.9740   42.8070 H   0  0  0  0  0  0  0  0  0  0  0  0
   46.9290   33.2190   43.7700 H   0  0  0  0  0  0  0  0  0  0  0  0
   44.1830   35.0900   46.4120 H   0  0  0  0  0  0  0  0  0  0  0  0
   46.2600   34.1730   40.8040 C   0  0  0  0  0  0  0  0  0  0  0  0
   44.8170   34.0460   40.5800 C   0  0  0  0  0  0  0  0  0  0  0  0
   44.0820   34.5940   41.0730 H   0  0  0  0  0  0  0  0  0  0  0  0
   44.7420   32.7740   39.3100 S   0  0  0  0  0  0  0  0  0  0  0  0
   46.6490   32.6010   39.2690 C   0  0  0  0  0  0  0  0  0  0  0  0
   47.1640   31.9060   38.6120 H   0  0  0  0  0  0  0  0  0  0  0  0
   47.0220   33.3840   40.0710 N   0  0  0  0  0  0  0  0  0  0  0  0
   48.2470   34.9550   42.0710 C   0  0  0  0  0  0  0  0  0  0  0  0
   48.8460   35.8820   41.8880 H   0  0  0  0  0  0  0  0  0  0  0  0
   48.6140   34.2320   41.2840 H   0  0  0  0  0  0  0  0  0  0  0  0
   48.3810   34.5570   43.0790 H   0  0  0  0  0  0  0  0  0  0  0  0
  1  2  1  6  0  0  0
  1 19  1  0  0  0  0
  1  4  1  0  0  0  0
  3  8  1  0  0  0  0
  4  3  2  0  0  0  0
  4  5  1  0  0  0  0
  5  6  2  0  0  0  0
  6  7  1  0  0  0  0
  7 11  1  0  0  0  0
  8  7  2  0  0  0  0
  9  3  1  0  0  0  0
 10  5  1  0  0  0  0
 12  1  1  0  0  0  0
 13 12  2  0  0  0  0
 13 14  1  0  0  0  0
 15 13  1  0  0  0  0
 16 15  1  0  0  0  0
 16 18  2  0  0  0  0
 17 16  1  0  0  0  0
 18 12  1  0  0  0  0
 19 22  1  0  0  0  0
 20 19  1  0  0  0  0
 21 19  1  0  0  0  0
M  END
>  <minimizedAffinity>
-3.92520595

>  <minimizedRMSD>
1.12995136

$$$$
