
 OpenBabel03242523423D

 22 23  0  0  1  0  0  0  0  0999 V2000
   46.6920   35.1450   41.8850 C   0  0  2  0  0  0  0  0  0  0  0  0
   46.6580   36.2060   41.5400 H   0  0  0  0  0  0  0  0  0  0  0  0
   45.1140   36.1080   43.5390 C   0  0  0  0  0  0  0  0  0  0  0  0
   46.0010   35.0940   43.1820 C   0  0  0  0  0  0  0  0  0  0  0  0
   46.2170   34.0240   44.0920 C   0  0  0  0  0  0  0  0  0  0  0  0
   45.5350   34.0640   45.2720 N   0  0  0  0  0  0  0  0  0  0  0  0
   44.6950   35.0590   45.5710 C   0  0  0  0  0  0  0  0  0  0  0  0
   44.4930   36.0620   44.7100 N   0  0  0  0  0  0  0  0  0  0  0  0
   44.8940   36.9540   42.9040 H   0  0  0  0  0  0  0  0  0  0  0  0
   46.8950   33.2210   43.8490 H   0  0  0  0  0  0  0  0  0  0  0  0
   44.1610   35.0670   46.5210 H   0  0  0  0  0  0  0  0  0  0  0  0
   46.1110   34.2410   40.8550 C   0  0  0  0  0  0  0  0  0  0  0  0
   46.9990   33.4380   40.0080 C   0  0  0  0  0  0  0  0  0  0  0  0
   48.0390   33.4390   40.0570 H   0  0  0  0  0  0  0  0  0  0  0  0
   45.8300   32.5510   38.9670 S   0  0  0  0  0  0  0  0  0  0  0  0
   44.3300   33.3840   39.8190 C   0  0  0  0  0  0  0  0  0  0  0  0
   43.3020   33.1740   39.5390 H   0  0  0  0  0  0  0  0  0  0  0  0
   44.8200   34.0920   40.6280 N   0  0  0  0  0  0  0  0  0  0  0  0
   48.1580   34.8540   42.1180 C   0  0  0  0  0  0  0  0  0  0  0  0
   48.8100   35.7500   41.9600 H   0  0  0  0  0  0  0  0  0  0  0  0
   48.4700   34.1400   41.3000 H   0  0  0  0  0  0  0  0  0  0  0  0
   48.2820   34.4120   43.1090 H   0  0  0  0  0  0  0  0  0  0  0  0
  1  2  1  6  0  0  0
  1 19  1  0  0  0  0
  1  4  1  0  0  0  0
  3  8  1  0  0  0  0
  4  3  2  0  0  0  0
  4  5  1  0  0  0  0
  5  6  2  0  0  0  0
  6  7  1  0  0  0  0
  7 11  1  0  0  0  0
  8  7  2  0  0  0  0
  9  3  1  0  0  0  0
 10  5  1  0  0  0  0
 12  1  1  0  0  0  0
 13 14  1  0  0  0  0
 13 12  2  0  0  0  0
 15 16  1  0  0  0  0
 15 13  1  0  0  0  0
 16 18  2  0  0  0  0
 17 16  1  0  0  0  0
 18 12  1  0  0  0  0
 19 22  1  0  0  0  0
 20 19  1  0  0  0  0
 21 19  1  0  0  0  0
M  END
>  <minimizedAffinity>
-3.95412946

>  <minimizedRMSD>
0.958108306

$$$$
