
 OpenBabel03242520343D

 26 28  0  0  1  0  0  0  0  0999 V2000
   46.2380   33.3420   40.8110 C   0  0  0  0  0  0  0  0  0  0  0  0
   46.7700   33.4660   42.1360 C   0  0  0  0  0  0  0  0  0  0  0  0
   45.9160   33.8290   43.1590 C   0  0  0  0  0  0  0  0  0  0  0  0
   44.6050   34.0530   42.8570 N   0  0  0  0  0  0  0  0  0  0  0  0
   44.1330   33.9330   41.6200 C   0  0  0  0  0  0  0  0  0  0  0  0
   44.9430   33.5800   40.6050 N   0  0  0  0  0  0  0  0  0  0  0  0
   46.9370   33.0560   40.0400 H   0  0  0  0  0  0  0  0  0  0  0  0
   46.2850   33.9310   44.1680 H   0  0  0  0  0  0  0  0  0  0  0  0
   48.2250   33.2230   42.4180 C   0  0  1  0  0  0  0  0  0  0  0  0
   49.1690   33.0990   41.3310 C   0  0  0  0  0  0  0  0  0  0  0  0
   49.2000   34.3550   42.1210 C   0  0  1  0  0  0  0  0  0  0  0  0
   48.4370   32.7290   43.3930 H   0  0  0  0  0  0  0  0  0  0  0  0
   48.7830   33.2510   40.2810 H   0  0  0  0  0  0  0  0  0  0  0  0
   50.0480   32.4320   41.3220 H   0  0  0  0  0  0  0  0  0  0  0  0
   50.0940   34.4420   42.7940 H   0  0  0  0  0  0  0  0  0  0  0  0
   48.7180   35.6410   41.5530 C   0  0  0  0  0  0  0  0  0  0  0  0
   49.6490   36.6580   41.7010 F   0  0  0  0  0  0  0  0  0  0  0  0
   47.5190   36.0420   42.1350 F   0  0  0  0  0  0  0  0  0  0  0  0
   48.5280   35.4680   40.2040 F   0  0  0  0  0  0  0  0  0  0  0  0
   42.7530   34.1560   41.2140 C   0  0  0  0  0  0  0  0  0  0  0  0
   41.8760   33.3290   40.3330 C   0  0  0  0  0  0  0  0  0  0  0  0
   42.5680   32.3420   39.9730 H   0  0  0  0  0  0  0  0  0  0  0  0
   40.2940   34.3370   40.3510 S   0  0  0  0  0  0  0  0  0  0  0  0
   41.1090   35.6070   41.4930 C   0  0  0  0  0  0  0  0  0  0  0  0
   40.3240   36.3990   41.6900 H   0  0  0  0  0  0  0  0  0  0  0  0
   42.1660   35.2430   41.6800 N   0  0  0  0  0  0  0  0  0  0  0  0
  1  2  1  0  0  0  0
  2  9  1  0  0  0  0
  2  3  2  0  0  0  0
  3  8  1  0  0  0  0
  4  3  1  0  0  0  0
  5  4  2  0  0  0  0
  6  1  2  0  0  0  0
  6  5  1  0  0  0  0
  7  1  1  0  0  0  0
  9 12  1  1  0  0  0
 10 11  1  0  0  0  0
 10  9  1  0  0  0  0
 11  9  1  0  0  0  0
 11 15  1  1  0  0  0
 13 10  1  0  0  0  0
 14 10  1  0  0  0  0
 16 17  1  0  0  0  0
 16 11  1  0  0  0  0
 16 18  1  0  0  0  0
 19 16  1  0  0  0  0
 20  5  1  0  0  0  0
 20 26  1  0  0  0  0
 21 23  1  0  0  0  0
 21 20  2  0  0  0  0
 22 21  1  0  0  0  0
 23 24  1  0  0  0  0
 24 26  2  0  0  0  0
 24 25  1  0  0  0  0
M  END
>  <minimizedAffinity>
-4.99180555

>  <minimizedRMSD>
4.23014879

$$$$
