
 OpenBabel03252508593D

 43 45  0  0  1  0  0  0  0  0999 V2000
   47.1660   34.1530   43.0820 N   0  0  0  0  0  0  0  0  0  0  0  0
   46.6600   35.3510   42.5130 C   0  0  0  0  0  0  0  0  0  0  0  0
   45.1840   35.5930   42.7410 C   0  0  0  0  0  0  0  0  0  0  0  0
   44.6490   35.0570   44.0420 C   0  0  0  0  0  0  0  0  0  0  0  0
   45.7640   34.5080   44.9020 C   0  0  0  0  0  0  0  0  0  0  0  0
   46.4170   33.4130   43.9810 C   0  0  2  0  0  0  0  0  0  0  0  0
   46.8490   35.4880   41.4430 H   0  0  0  0  0  0  0  0  0  0  0  0
   47.2150   36.1860   43.0240 H   0  0  0  0  0  0  0  0  0  0  0  0
   44.5840   35.2260   41.8690 H   0  0  0  0  0  0  0  0  0  0  0  0
   45.0190   36.6920   42.7560 H   0  0  0  0  0  0  0  0  0  0  0  0
   43.9950   34.1950   43.7910 H   0  0  0  0  0  0  0  0  0  0  0  0
   44.0180   35.7920   44.5710 H   0  0  0  0  0  0  0  0  0  0  0  0
   46.4750   35.3220   45.0770 H   0  0  0  0  0  0  0  0  0  0  0  0
   45.3560   34.0300   45.7970 H   0  0  0  0  0  0  0  0  0  0  0  0
   45.5790   32.8130   43.5710 H   0  0  0  0  0  0  0  0  0  0  0  0
   48.1300   33.4760   42.2670 C   0  0  0  0  0  0  0  0  0  0  0  0
   48.7910   32.8460   42.8970 H   0  0  0  0  0  0  0  0  0  0  0  0
   48.7680   34.2530   41.7820 H   0  0  0  0  0  0  0  0  0  0  0  0
   47.4120   32.6450   41.2540 C   0  0  0  0  0  0  0  0  0  0  0  0
   47.4340   31.5720   41.4580 H   0  0  0  0  0  0  0  0  0  0  0  0
   46.3310   32.9510   41.1900 H   0  0  0  0  0  0  0  0  0  0  0  0
   49.3310   32.2650   38.0440 C   0  0  0  0  0  0  0  0  0  0  0  0
   48.7960   32.0000   39.3190 C   0  0  0  0  0  0  0  0  0  0  0  0
   47.9720   32.9330   39.9070 C   0  0  0  0  0  0  0  0  0  0  0  0
   47.7180   34.0610   39.2240 N   0  0  0  0  0  0  0  0  0  0  0  0
   48.2330   34.3040   38.0080 C   0  0  0  0  0  0  0  0  0  0  0  0
   49.0410   33.4140   37.4060 N   0  0  0  0  0  0  0  0  0  0  0  0
   49.9820   31.5160   37.5900 H   0  0  0  0  0  0  0  0  0  0  0  0
   49.0690   31.0580   39.7760 H   0  0  0  0  0  0  0  0  0  0  0  0
   47.9090   35.2640   37.6290 H   0  0  0  0  0  0  0  0  0  0  0  0
   47.2180   32.7280   44.8830 O   0  0  0  0  0  0  0  0  0  0  0  0
   46.1870   30.4870   43.8950 O   0  0  0  0  0  0  0  0  0  0  0  0
   46.6810   31.1640   45.1780 P   0  0  2  0  0  0  0  0  0  0  0  0
   45.2850   31.3180   46.1550 O   0  0  0  0  0  0  0  0  0  0  0  0
   45.4300   32.0230   46.8280 H   0  0  0  0  0  0  0  0  0  0  0  0
   47.7940   30.2560   46.0070 O   0  0  0  0  0  0  0  0  0  0  0  0
   47.5610   29.0040   46.5560 C   0  0  0  0  0  0  0  0  0  0  0  0
   48.5240   27.9390   46.7290 C   0  0  0  0  0  0  0  0  0  0  0  0
   49.5800   28.1880   46.3650 H   0  0  0  0  0  0  0  0  0  0  0  0
   47.4450   26.6040   47.5240 S   0  0  0  0  0  0  0  0  0  0  0  0
   45.9400   27.7600   47.4530 C   0  0  0  0  0  0  0  0  0  0  0  0
   45.0060   27.3430   47.8520 H   0  0  0  0  0  0  0  0  0  0  0  0
   46.3170   28.7680   46.9620 N   0  0  0  0  0  0  0  0  0  0  0  0
  1  6  1  0  0  0  0
  2  3  1  0  0  0  0
  2  8  1  0  0  0  0
  2  1  1  0  0  0  0
  3 10  1  0  0  0  0
  3  4  1  0  0  0  0
  4 12  1  0  0  0  0
  4  5  1  0  0  0  0
  5 13  1  0  0  0  0
  5 14  1  0  0  0  0
  6 15  1  6  0  0  0
  6 31  1  0  0  0  0
  6  5  1  0  0  0  0
  7  2  1  0  0  0  0
  9  3  1  0  0  0  0
 11  4  1  0  0  0  0
 16 17  1  0  0  0  0
 16  1  1  0  0  0  0
 18 16  1  0  0  0  0
 19 20  1  0  0  0  0
 19 16  1  0  0  0  0
 21 19  1  0  0  0  0
 22 23  1  0  0  0  0
 23 29  1  0  0  0  0
 23 24  2  0  0  0  0
 24 19  1  0  0  0  0
 25 24  1  0  0  0  0
 26 25  2  0  0  0  0
 27 26  1  0  0  0  0
 27 22  2  0  0  0  0
 28 22  1  0  0  0  0
 30 26  1  0  0  0  0
 31 33  1  0  0  0  0
 33 32  2  6  0  0  0
 33 36  1  0  0  0  0
 33 34  1  0  0  0  0
 34 35  1  0  0  0  0
 36 37  1  0  0  0  0
 37 38  2  0  0  0  0
 37 43  1  0  0  0  0
 38 40  1  0  0  0  0
 39 38  1  0  0  0  0
 41 40  1  0  0  0  0
 41 42  1  0  0  0  0
 43 41  2  0  0  0  0
M  END
>  <minimizedAffinity>
-3.9569087

>  <minimizedRMSD>
0.338813186

$$$$
