
 OpenBabel03242519483D

 36 38  0  0  1  0  0  0  0  0999 V2000
   38.9830   30.8180   39.2060 C   0  0  2  0  0  0  0  0  0  0  0  0
   38.9800   32.2850   39.3620 C   0  0  1  0  0  0  0  0  0  0  0  0
   38.3530   32.4900   40.6720 O   0  0  0  0  0  0  0  0  0  0  0  0
   37.1770   31.7550   40.3920 C   0  0  0  0  0  0  0  0  0  0  0  0
   37.8120   30.3820   40.0770 C   0  0  2  0  0  0  0  0  0  0  0  0
   38.8840   30.4770   38.1640 H   0  0  0  0  0  0  0  0  0  0  0  0
   38.3020   32.8180   38.6800 H   0  0  0  0  0  0  0  0  0  0  0  0
   36.7260   32.1580   39.4560 H   0  0  0  0  0  0  0  0  0  0  0  0
   36.5400   31.7720   41.2440 H   0  0  0  0  0  0  0  0  0  0  0  0
   37.0330   29.8010   39.5340 H   0  0  0  0  0  0  0  0  0  0  0  0
   41.9960   33.7810   37.9570 C   0  0  0  0  0  0  0  0  0  0  0  0
   42.7380   34.1590   39.0780 C   0  0  0  0  0  0  0  0  0  0  0  0
   42.1990   33.8920   40.3530 C   0  0  0  0  0  0  0  0  0  0  0  0
   40.9740   33.2740   40.4470 N   0  0  0  0  0  0  0  0  0  0  0  0
   40.2900   32.9270   39.3350 C   0  0  0  0  0  0  0  0  0  0  0  0
   40.7880   33.1720   38.0890 N   0  0  0  0  0  0  0  0  0  0  0  0
   43.6990   34.6430   38.9600 H   0  0  0  0  0  0  0  0  0  0  0  0
   42.7510   34.1730   41.2440 H   0  0  0  0  0  0  0  0  0  0  0  0
   42.4740   34.0170   36.6610 O   0  0  0  0  0  0  0  0  0  0  0  0
   43.2270   33.3780   36.3790 H   0  0  0  0  0  0  0  0  0  0  0  0
   40.1820   30.2780   39.7850 O   0  0  0  0  0  0  0  0  0  0  0  0
   39.8960   29.4610   40.2320 H   0  0  0  0  0  0  0  0  0  0  0  0
   38.2320   29.8350   41.2480 O   0  0  0  0  0  0  0  0  0  0  0  0
   37.2740   29.3740   42.1080 C   0  0  0  0  0  0  0  0  0  0  0  0
   36.8940   28.3650   41.6410 H   0  0  0  0  0  0  0  0  0  0  0  0
   36.4420   29.9880   42.2900 H   0  0  0  0  0  0  0  0  0  0  0  0
   37.8210   28.7860   43.4060 C   0  0  0  0  0  0  0  0  0  0  0  0
   36.9890   28.7990   44.1270 H   0  0  0  0  0  0  0  0  0  0  0  0
   38.5990   29.4290   43.8520 H   0  0  0  0  0  0  0  0  0  0  0  0
   38.3050   27.4120   43.1400 C   0  0  0  0  0  0  0  0  0  0  0  0
   37.6330   26.4690   42.3400 C   0  0  0  0  0  0  0  0  0  0  0  0
   36.7450   26.4310   41.7790 H   0  0  0  0  0  0  0  0  0  0  0  0
   38.7350   25.0210   42.4130 S   0  0  0  0  0  0  0  0  0  0  0  0
   39.9510   25.9250   43.5280 C   0  0  0  0  0  0  0  0  0  0  0  0
   40.8700   25.4780   43.9040 H   0  0  0  0  0  0  0  0  0  0  0  0
   39.4570   27.0170   43.6800 N   0  0  0  0  0  0  0  0  0  0  0  0
  1  6  1  6  0  0  0
  1  2  1  0  0  0  0
  1 21  1  0  0  0  0
  1  5  1  0  0  0  0
  2  7  1  6  0  0  0
  2  3  1  0  0  0  0
  4  3  1  0  0  0  0
  4  9  1  0  0  0  0
  5 10  1  6  0  0  0
  5  4  1  0  0  0  0
  5 23  1  0  0  0  0
  8  4  1  0  0  0  0
 11 16  2  0  0  0  0
 11 12  1  0  0  0  0
 12 13  2  0  0  0  0
 13 14  1  0  0  0  0
 13 18  1  0  0  0  0
 15  2  1  0  0  0  0
 15 14  2  0  0  0  0
 16 15  1  0  0  0  0
 17 12  1  0  0  0  0
 19 11  1  0  0  0  0
 20 19  1  0  0  0  0
 21 22  1  0  0  0  0
 23 24  1  0  0  0  0
 24 26  1  0  0  0  0
 24 27  1  0  0  0  0
 25 24  1  0  0  0  0
 27 29  1  0  0  0  0
 27 28  1  0  0  0  0
 30 27  1  0  0  0  0
 30 36  1  0  0  0  0
 31 33  1  0  0  0  0
 31 30  2  0  0  0  0
 32 31  1  0  0  0  0
 33 34  1  0  0  0  0
 34 36  2  0  0  0  0
 34 35  1  0  0  0  0
M  END
>  <minimizedAffinity>
-5.18031549

$$$$

 OpenBabel03242519483D

 36 38  0  0  1  0  0  0  0  0999 V2000
   36.2050   30.4020   40.1560 C   0  0  2  0  0  0  0  0  0  0  0  0
   37.3500   29.4720   40.1950 C   0  0  1  0  0  0  0  0  0  0  0  0
   38.5140   30.3590   40.0890 O   0  0  0  0  0  0  0  0  0  0  0  0
   38.1030   31.0050   38.8990 C   0  0  0  0  0  0  0  0  0  0  0  0
   36.7610   31.5940   39.3890 C   0  0  2  0  0  0  0  0  0  0  0  0
   35.3020   29.9820   39.6860 H   0  0  0  0  0  0  0  0  0  0  0  0
   37.4500   28.8290   39.3090 H   0  0  0  0  0  0  0  0  0  0  0  0
   37.8860   30.2240   38.1330 H   0  0  0  0  0  0  0  0  0  0  0  0
   38.8360   31.7230   38.6180 H   0  0  0  0  0  0  0  0  0  0  0  0
   36.1870   31.8530   38.4720 H   0  0  0  0  0  0  0  0  0  0  0  0
   38.9310   27.7660   43.0060 C   0  0  0  0  0  0  0  0  0  0  0  0
   37.8640   27.1670   43.6790 C   0  0  0  0  0  0  0  0  0  0  0  0
   36.5660   27.3430   43.1570 C   0  0  0  0  0  0  0  0  0  0  0  0
   36.3980   28.0920   42.0160 N   0  0  0  0  0  0  0  0  0  0  0  0
   37.4590   28.6540   41.3980 C   0  0  0  0  0  0  0  0  0  0  0  0
   38.7260   28.5000   41.8800 N   0  0  0  0  0  0  0  0  0  0  0  0
   38.0410   26.5850   44.5740 H   0  0  0  0  0  0  0  0  0  0  0  0
   35.7160   26.8900   43.6570 H   0  0  0  0  0  0  0  0  0  0  0  0
   40.2460   27.6300   43.4700 O   0  0  0  0  0  0  0  0  0  0  0  0
   40.6510   26.7040   43.2880 H   0  0  0  0  0  0  0  0  0  0  0  0
   35.9010   30.8440   41.4890 O   0  0  0  0  0  0  0  0  0  0  0  0
   35.6870   31.7880   41.3950 H   0  0  0  0  0  0  0  0  0  0  0  0
   37.0370   32.6380   40.2140 O   0  0  0  0  0  0  0  0  0  0  0  0
   37.8230   33.6430   39.7180 C   0  0  0  0  0  0  0  0  0  0  0  0
   37.1430   34.6010   39.7230 H   0  0  0  0  0  0  0  0  0  0  0  0
   38.2210   33.5230   38.7540 H   0  0  0  0  0  0  0  0  0  0  0  0
   38.8790   34.1560   40.6930 C   0  0  0  0  0  0  0  0  0  0  0  0
   38.5760   33.8060   41.6910 H   0  0  0  0  0  0  0  0  0  0  0  0
   38.8760   35.2570   40.7600 H   0  0  0  0  0  0  0  0  0  0  0  0
   40.2000   33.6160   40.2920 C   0  0  0  0  0  0  0  0  0  0  0  0
   40.9550   32.7050   41.0550 C   0  0  0  0  0  0  0  0  0  0  0  0
   40.8560   32.2050   41.9740 H   0  0  0  0  0  0  0  0  0  0  0  0
   42.4320   32.4450   40.0220 S   0  0  0  0  0  0  0  0  0  0  0  0
   41.7930   33.6240   38.7020 C   0  0  0  0  0  0  0  0  0  0  0  0
   42.3360   33.8520   37.7870 H   0  0  0  0  0  0  0  0  0  0  0  0
   40.7290   34.0000   39.1330 N   0  0  0  0  0  0  0  0  0  0  0  0
  1  6  1  6  0  0  0
  1  2  1  0  0  0  0
  1 21  1  0  0  0  0
  2  7  1  6  0  0  0
  2 15  1  0  0  0  0
  3  2  1  0  0  0  0
  4  5  1  0  0  0  0
  4  3  1  0  0  0  0
  5 10  1  6  0  0  0
  5  1  1  0  0  0  0
  5 23  1  0  0  0  0
  8  4  1  0  0  0  0
  9  4  1  0  0  0  0
 11 19  1  0  0  0  0
 11 12  1  0  0  0  0
 12 17  1  0  0  0  0
 13 18  1  0  0  0  0
 13 12  2  0  0  0  0
 14 13  1  0  0  0  0
 15 16  1  0  0  0  0
 15 14  2  0  0  0  0
 16 11  2  0  0  0  0
 20 19  1  0  0  0  0
 22 21  1  0  0  0  0
 24 25  1  0  0  0  0
 24 23  1  0  0  0  0
 24 27  1  0  0  0  0
 26 24  1  0  0  0  0
 27 29  1  0  0  0  0
 27 28  1  0  0  0  0
 30 27  1  0  0  0  0
 30 31  2  0  0  0  0
 31 32  1  0  0  0  0
 33 31  1  0  0  0  0
 34 36  2  0  0  0  0
 34 33  1  0  0  0  0
 35 34  1  0  0  0  0
 36 30  1  0  0  0  0
M  END
>  <minimizedAffinity>
-5.10789394

$$$$

 OpenBabel03242519483D

 36 38  0  0  1  0  0  0  0  0999 V2000
   37.7190   28.8170   40.1750 C   0  0  2  0  0  0  0  0  0  0  0  0
   37.2530   30.1320   39.6970 C   0  0  1  0  0  0  0  0  0  0  0  0
   36.2640   30.5320   40.7030 O   0  0  0  0  0  0  0  0  0  0  0  0
   35.4700   29.3650   40.6050 C   0  0  0  0  0  0  0  0  0  0  0  0
   36.5330   28.3090   40.9840 C   0  0  2  0  0  0  0  0  0  0  0  0
   38.0090   28.1230   39.3700 H   0  0  0  0  0  0  0  0  0  0  0  0
   36.6620   30.1010   38.7710 H   0  0  0  0  0  0  0  0  0  0  0  0
   35.1940   29.2170   39.5350 H   0  0  0  0  0  0  0  0  0  0  0  0
   34.6490   29.4400   41.2770 H   0  0  0  0  0  0  0  0  0  0  0  0
   36.1310   27.3310   40.6390 H   0  0  0  0  0  0  0  0  0  0  0  0
   39.7360   32.2770   38.1020 C   0  0  0  0  0  0  0  0  0  0  0  0
   40.2070   33.0790   39.1440 C   0  0  0  0  0  0  0  0  0  0  0  0
   39.6680   32.8800   40.4320 C   0  0  0  0  0  0  0  0  0  0  0  0
   38.7070   31.9140   40.6150 N   0  0  0  0  0  0  0  0  0  0  0  0
   38.2800   31.1610   39.5770 C   0  0  0  0  0  0  0  0  0  0  0  0
   38.7840   31.3310   38.3210 N   0  0  0  0  0  0  0  0  0  0  0  0
   40.9650   33.8280   38.9570 H   0  0  0  0  0  0  0  0  0  0  0  0
   40.0140   33.4880   41.2620 H   0  0  0  0  0  0  0  0  0  0  0  0
   40.2290   32.4230   36.7990 O   0  0  0  0  0  0  0  0  0  0  0  0
   41.1710   32.0340   36.6720 H   0  0  0  0  0  0  0  0  0  0  0  0
   38.8190   28.9990   41.0820 O   0  0  0  0  0  0  0  0  0  0  0  0
   38.6700   28.3460   41.7880 H   0  0  0  0  0  0  0  0  0  0  0  0
   36.7590   28.4030   42.3210 O   0  0  0  0  0  0  0  0  0  0  0  0
   36.6660   27.2540   43.0590 C   0  0  0  0  0  0  0  0  0  0  0  0
   35.5270   26.9650   43.0420 H   0  0  0  0  0  0  0  0  0  0  0  0
   36.9850   27.2870   44.0590 H   0  0  0  0  0  0  0  0  0  0  0  0
   37.1880   26.0070   42.3520 C   0  0  0  0  0  0  0  0  0  0  0  0
   37.0190   26.1670   41.2760 H   0  0  0  0  0  0  0  0  0  0  0  0
   36.5970   25.1110   42.6070 H   0  0  0  0  0  0  0  0  0  0  0  0
   38.6270   25.8460   42.6700 C   0  0  0  0  0  0  0  0  0  0  0  0
   39.4130   24.7450   42.2800 C   0  0  0  0  0  0  0  0  0  0  0  0
   39.2730   23.8520   41.7450 H   0  0  0  0  0  0  0  0  0  0  0  0
   41.0500   25.1590   42.9640 S   0  0  0  0  0  0  0  0  0  0  0  0
   40.4110   26.7780   43.6790 C   0  0  0  0  0  0  0  0  0  0  0  0
   41.0320   27.4750   44.2370 H   0  0  0  0  0  0  0  0  0  0  0  0
   39.2440   26.7980   43.3670 N   0  0  0  0  0  0  0  0  0  0  0  0
  1  6  1  6  0  0  0
  1  5  1  0  0  0  0
  1 21  1  0  0  0  0
  2  7  1  6  0  0  0
  2  1  1  0  0  0  0
  2  3  1  0  0  0  0
  4  3  1  0  0  0  0
  4  5  1  0  0  0  0
  4  9  1  0  0  0  0
  5 10  1  6  0  0  0
  5 23  1  0  0  0  0
  8  4  1  0  0  0  0
 11 16  2  0  0  0  0
 11 12  1  0  0  0  0
 12 13  2  0  0  0  0
 13 14  1  0  0  0  0
 13 18  1  0  0  0  0
 15  2  1  0  0  0  0
 15 14  2  0  0  0  0
 16 15  1  0  0  0  0
 17 12  1  0  0  0  0
 19 11  1  0  0  0  0
 20 19  1  0  0  0  0
 21 22  1  0  0  0  0
 23 24  1  0  0  0  0
 24 26  1  0  0  0  0
 25 24  1  0  0  0  0
 27 29  1  0  0  0  0
 27 30  1  0  0  0  0
 27 24  1  0  0  0  0
 28 27  1  0  0  0  0
 30 36  1  0  0  0  0
 31 30  2  0  0  0  0
 31 33  1  0  0  0  0
 32 31  1  0  0  0  0
 33 34  1  0  0  0  0
 34 35  1  0  0  0  0
 36 34  2  0  0  0  0
M  END
>  <minimizedAffinity>
-5.00384426

$$$$

 OpenBabel03242519483D

 36 38  0  0  1  0  0  0  0  0999 V2000
   38.2430   29.7720   40.2100 C   0  0  2  0  0  0  0  0  0  0  0  0
   37.9740   31.1260   39.6900 C   0  0  1  0  0  0  0  0  0  0  0  0
   37.2780   31.7860   40.8000 O   0  0  0  0  0  0  0  0  0  0  0  0
   36.2620   30.8130   40.9410 C   0  0  0  0  0  0  0  0  0  0  0  0
   37.1410   29.5780   41.2430 C   0  0  2  0  0  0  0  0  0  0  0  0
   38.2410   28.9860   39.4380 H   0  0  0  0  0  0  0  0  0  0  0  0
   37.2350   31.1670   38.8780 H   0  0  0  0  0  0  0  0  0  0  0  0
   35.7770   30.6650   39.9480 H   0  0  0  0  0  0  0  0  0  0  0  0
   35.6050   31.1010   41.7260 H   0  0  0  0  0  0  0  0  0  0  0  0
   36.4970   28.6900   41.0600 H   0  0  0  0  0  0  0  0  0  0  0  0
   40.8020   33.4010   40.0600 C   0  0  0  0  0  0  0  0  0  0  0  0
   41.3910   33.4140   38.7930 C   0  0  0  0  0  0  0  0  0  0  0  0
   40.8040   32.6300   37.7790 C   0  0  0  0  0  0  0  0  0  0  0  0
   39.6840   31.8860   38.0700 N   0  0  0  0  0  0  0  0  0  0  0  0
   39.1490   31.9030   39.3100 C   0  0  0  0  0  0  0  0  0  0  0  0
   39.6950   32.6530   40.3100 N   0  0  0  0  0  0  0  0  0  0  0  0
   42.2720   34.0140   38.6070 H   0  0  0  0  0  0  0  0  0  0  0  0
   41.2380   32.6190   36.7840 H   0  0  0  0  0  0  0  0  0  0  0  0
   41.3350   34.1570   41.1110 O   0  0  0  0  0  0  0  0  0  0  0  0
   41.1410   35.1630   41.0320 H   0  0  0  0  0  0  0  0  0  0  0  0
   39.5000   29.7670   40.9060 O   0  0  0  0  0  0  0  0  0  0  0  0
   39.3510   29.2040   41.6860 H   0  0  0  0  0  0  0  0  0  0  0  0
   37.6140   29.7000   42.5110 O   0  0  0  0  0  0  0  0  0  0  0  0
   37.3570   28.6760   43.3810 C   0  0  0  0  0  0  0  0  0  0  0  0
   36.3090   28.9220   43.8510 H   0  0  0  0  0  0  0  0  0  0  0  0
   38.0400   28.5130   44.1620 H   0  0  0  0  0  0  0  0  0  0  0  0
   36.9600   27.3630   42.7110 C   0  0  0  0  0  0  0  0  0  0  0  0
   36.7390   27.6070   41.6600 H   0  0  0  0  0  0  0  0  0  0  0  0
   36.0170   26.9620   43.1190 H   0  0  0  0  0  0  0  0  0  0  0  0
   38.0840   26.4060   42.8350 C   0  0  0  0  0  0  0  0  0  0  0  0
   38.1000   25.1160   42.2710 C   0  0  0  0  0  0  0  0  0  0  0  0
   37.4540   24.5220   41.6940 H   0  0  0  0  0  0  0  0  0  0  0  0
   39.7310   24.4790   42.7740 S   0  0  0  0  0  0  0  0  0  0  0  0
   40.1450   26.0760   43.6790 C   0  0  0  0  0  0  0  0  0  0  0  0
   41.0830   26.2430   44.2050 H   0  0  0  0  0  0  0  0  0  0  0  0
   39.1680   26.7680   43.5170 N   0  0  0  0  0  0  0  0  0  0  0  0
  1  6  1  6  0  0  0
  1 21  1  0  0  0  0
  1  5  1  0  0  0  0
  2  7  1  6  0  0  0
  2  1  1  0  0  0  0
  2  3  1  0  0  0  0
  3  4  1  0  0  0  0
  4  5  1  0  0  0  0
  4  9  1  0  0  0  0
  5 10  1  6  0  0  0
  5 23  1  0  0  0  0
  8  4  1  0  0  0  0
 11 16  1  0  0  0  0
 11 19  1  0  0  0  0
 12 11  2  0  0  0  0
 13 14  2  0  0  0  0
 13 12  1  0  0  0  0
 14 15  1  0  0  0  0
 15  2  1  0  0  0  0
 15 16  2  0  0  0  0
 17 12  1  0  0  0  0
 18 13  1  0  0  0  0
 20 19  1  0  0  0  0
 21 22  1  0  0  0  0
 23 24  1  0  0  0  0
 24 25  1  0  0  0  0
 24 26  1  0  0  0  0
 27 30  1  0  0  0  0
 27 29  1  0  0  0  0
 27 24  1  0  0  0  0
 28 27  1  0  0  0  0
 30 36  1  0  0  0  0
 31 33  1  0  0  0  0
 31 30  2  0  0  0  0
 32 31  1  0  0  0  0
 33 34  1  0  0  0  0
 34 35  1  0  0  0  0
 36 34  2  0  0  0  0
M  END
>  <minimizedAffinity>
-4.97735929

$$$$

 OpenBabel03242519483D

 36 38  0  0  1  0  0  0  0  0999 V2000
   37.0490   28.5000   41.3320 C   0  0  2  0  0  0  0  0  0  0  0  0
   37.3200   29.6850   42.1690 C   0  0  1  0  0  0  0  0  0  0  0  0
   38.1780   29.1610   43.2360 O   0  0  0  0  0  0  0  0  0  0  0  0
   37.2990   28.1300   43.6440 C   0  0  0  0  0  0  0  0  0  0  0  0
   37.2020   27.3470   42.3150 C   0  0  2  0  0  0  0  0  0  0  0  0
   36.0610   28.5100   40.8450 H   0  0  0  0  0  0  0  0  0  0  0  0
   36.4490   30.0660   42.7200 H   0  0  0  0  0  0  0  0  0  0  0  0
   36.3030   28.5830   43.8590 H   0  0  0  0  0  0  0  0  0  0  0  0
   37.7370   27.5940   44.4520 H   0  0  0  0  0  0  0  0  0  0  0  0
   36.3010   26.7020   42.4040 H   0  0  0  0  0  0  0  0  0  0  0  0
   37.6860   32.6980   40.1450 C   0  0  0  0  0  0  0  0  0  0  0  0
   39.0570   32.9650   40.1840 C   0  0  0  0  0  0  0  0  0  0  0  0
   39.8840   32.0890   40.9180 C   0  0  0  0  0  0  0  0  0  0  0  0
   39.3180   31.0140   41.5620 N   0  0  0  0  0  0  0  0  0  0  0  0
   37.9870   30.7940   41.4970 C   0  0  0  0  0  0  0  0  0  0  0  0
   37.1630   31.6240   40.7940 N   0  0  0  0  0  0  0  0  0  0  0  0
   39.4620   33.8220   39.6630 H   0  0  0  0  0  0  0  0  0  0  0  0
   40.9530   32.2700   40.9670 H   0  0  0  0  0  0  0  0  0  0  0  0
   36.8090   33.5270   39.4340 O   0  0  0  0  0  0  0  0  0  0  0  0
   36.8630   33.4040   38.4160 H   0  0  0  0  0  0  0  0  0  0  0  0
   38.0800   28.3680   40.3400 O   0  0  0  0  0  0  0  0  0  0  0  0
   38.2560   27.4120   40.2900 H   0  0  0  0  0  0  0  0  0  0  0  0
   38.3740   26.6840   42.1330 O   0  0  0  0  0  0  0  0  0  0  0  0
   38.3470   25.3190   42.2220 C   0  0  0  0  0  0  0  0  0  0  0  0
   38.5090   25.0780   43.3610 H   0  0  0  0  0  0  0  0  0  0  0  0
   39.0530   24.7760   41.6650 H   0  0  0  0  0  0  0  0  0  0  0  0
   36.9550   24.7060   42.0960 C   0  0  0  0  0  0  0  0  0  0  0  0
   36.2600   25.5460   41.9440 H   0  0  0  0  0  0  0  0  0  0  0  0
   36.6290   24.2290   43.0360 H   0  0  0  0  0  0  0  0  0  0  0  0
   36.9500   23.7660   40.9520 C   0  0  0  0  0  0  0  0  0  0  0  0
   35.9110   23.6620   40.0070 C   0  0  0  0  0  0  0  0  0  0  0  0
   34.9820   24.1210   39.8340 H   0  0  0  0  0  0  0  0  0  0  0  0
   36.5150   22.3590   38.8870 S   0  0  0  0  0  0  0  0  0  0  0  0
   38.0990   22.1530   39.8810 C   0  0  0  0  0  0  0  0  0  0  0  0
   38.8810   21.4410   39.6240 H   0  0  0  0  0  0  0  0  0  0  0  0
   37.9910   22.9540   40.7780 N   0  0  0  0  0  0  0  0  0  0  0  0
  1  6  1  6  0  0  0
  1  2  1  0  0  0  0
  1  5  1  0  0  0  0
  2  7  1  1  0  0  0
  2  3  1  0  0  0  0
  3  4  1  0  0  0  0
  4  8  1  0  0  0  0
  4  9  1  0  0  0  0
  5 10  1  6  0  0  0
  5  4  1  0  0  0  0
 11 12  2  0  0  0  0
 11 16  1  0  0  0  0
 12 13  1  0  0  0  0
 13 18  1  0  0  0  0
 13 14  2  0  0  0  0
 15 14  1  0  0  0  0
 15  2  1  0  0  0  0
 16 15  2  0  0  0  0
 17 12  1  0  0  0  0
 19 11  1  0  0  0  0
 20 19  1  0  0  0  0
 21  1  1  0  0  0  0
 22 21  1  0  0  0  0
 23 24  1  0  0  0  0
 23  5  1  0  0  0  0
 24 25  1  0  0  0  0
 26 24  1  0  0  0  0
 27 24  1  0  0  0  0
 27 29  1  0  0  0  0
 28 27  1  0  0  0  0
 30 27  1  0  0  0  0
 31 30  2  0  0  0  0
 32 31  1  0  0  0  0
 33 34  1  0  0  0  0
 33 31  1  0  0  0  0
 34 36  2  0  0  0  0
 35 34  1  0  0  0  0
 36 30  1  0  0  0  0
M  END
>  <minimizedAffinity>
-4.97519207

$$$$

 OpenBabel03242519483D

 36 38  0  0  1  0  0  0  0  0999 V2000
   36.5030   28.5200   41.9220 C   0  0  2  0  0  0  0  0  0  0  0  0
   37.7320   29.3170   42.0940 C   0  0  1  0  0  0  0  0  0  0  0  0
   38.7820   28.3030   42.2350 O   0  0  0  0  0  0  0  0  0  0  0  0
   38.1740   27.6050   43.3050 C   0  0  0  0  0  0  0  0  0  0  0  0
   36.8450   27.2110   42.6220 C   0  0  2  0  0  0  0  0  0  0  0  0
   35.5980   28.9940   42.3330 H   0  0  0  0  0  0  0  0  0  0  0  0
   37.7930   29.8660   43.0440 H   0  0  0  0  0  0  0  0  0  0  0  0
   37.9500   28.3350   44.1170 H   0  0  0  0  0  0  0  0  0  0  0  0
   38.7940   26.7890   43.5900 H   0  0  0  0  0  0  0  0  0  0  0  0
   36.1470   26.9390   43.4440 H   0  0  0  0  0  0  0  0  0  0  0  0
   37.5430   32.2680   39.9570 C   0  0  0  0  0  0  0  0  0  0  0  0
   38.5490   32.0610   39.0090 C   0  0  0  0  0  0  0  0  0  0  0  0
   39.3120   30.8790   39.0960 C   0  0  0  0  0  0  0  0  0  0  0  0
   39.0420   29.9790   40.1010 N   0  0  0  0  0  0  0  0  0  0  0  0
   38.0590   30.2200   40.9960 C   0  0  0  0  0  0  0  0  0  0  0  0
   37.3050   31.3550   40.9360 N   0  0  0  0  0  0  0  0  0  0  0  0
   38.7280   32.7960   38.2350 H   0  0  0  0  0  0  0  0  0  0  0  0
   40.1000   30.6900   38.3750 H   0  0  0  0  0  0  0  0  0  0  0  0
   36.7490   33.4210   39.9270 O   0  0  0  0  0  0  0  0  0  0  0  0
   36.0440   33.4140   39.1800 H   0  0  0  0  0  0  0  0  0  0  0  0
   36.3110   28.2310   40.5270 O   0  0  0  0  0  0  0  0  0  0  0  0
   35.9940   27.3110   40.5050 H   0  0  0  0  0  0  0  0  0  0  0  0
   37.1080   26.2190   41.7320 O   0  0  0  0  0  0  0  0  0  0  0  0
   37.0370   24.9300   42.1860 C   0  0  0  0  0  0  0  0  0  0  0  0
   36.0410   24.4970   41.7370 H   0  0  0  0  0  0  0  0  0  0  0  0
   37.0270   24.7760   43.2240 H   0  0  0  0  0  0  0  0  0  0  0  0
   37.9920   23.9630   41.4920 C   0  0  0  0  0  0  0  0  0  0  0  0
   37.6400   23.8720   40.4530 H   0  0  0  0  0  0  0  0  0  0  0  0
   37.9230   22.9450   41.9110 H   0  0  0  0  0  0  0  0  0  0  0  0
   39.3660   24.5140   41.5670 C   0  0  0  0  0  0  0  0  0  0  0  0
   40.0880   25.0130   40.4670 C   0  0  0  0  0  0  0  0  0  0  0  0
   39.9300   25.1340   39.4350 H   0  0  0  0  0  0  0  0  0  0  0  0
   41.6620   25.5320   41.2220 S   0  0  0  0  0  0  0  0  0  0  0  0
   41.0930   24.9890   42.9310 C   0  0  0  0  0  0  0  0  0  0  0  0
   41.7050   25.0830   43.8260 H   0  0  0  0  0  0  0  0  0  0  0  0
   39.9800   24.5580   42.7480 N   0  0  0  0  0  0  0  0  0  0  0  0
  1  2  1  0  0  0  0
  1  6  1  1  0  0  0
  1  5  1  0  0  0  0
  2  3  1  0  0  0  0
  2  7  1  1  0  0  0
  3  4  1  0  0  0  0
  4  9  1  0  0  0  0
  4  8  1  0  0  0  0
  5  4  1  0  0  0  0
  5 10  1  1  0  0  0
 11 16  1  0  0  0  0
 12 13  1  0  0  0  0
 12 11  2  0  0  0  0
 13 14  2  0  0  0  0
 14 15  1  0  0  0  0
 15  2  1  0  0  0  0
 16 15  2  0  0  0  0
 17 12  1  0  0  0  0
 18 13  1  0  0  0  0
 19 11  1  0  0  0  0
 20 19  1  0  0  0  0
 21  1  1  0  0  0  0
 22 21  1  0  0  0  0
 23 24  1  0  0  0  0
 23  5  1  0  0  0  0
 24 26  1  0  0  0  0
 25 24  1  0  0  0  0
 27 30  1  0  0  0  0
 27 29  1  0  0  0  0
 27 24  1  0  0  0  0
 28 27  1  0  0  0  0
 30 36  1  0  0  0  0
 31 33  1  0  0  0  0
 31 30  2  0  0  0  0
 32 31  1  0  0  0  0
 33 34  1  0  0  0  0
 34 35  1  0  0  0  0
 36 34  2  0  0  0  0
M  END
>  <minimizedAffinity>
-4.90824413

$$$$

 OpenBabel03242519483D

 36 38  0  0  1  0  0  0  0  0999 V2000
   37.3120   29.5290   41.9660 C   0  0  2  0  0  0  0  0  0  0  0  0
   36.8210   28.1510   42.1590 C   0  0  1  0  0  0  0  0  0  0  0  0
   36.2800   27.7930   40.8440 O   0  0  0  0  0  0  0  0  0  0  0  0
   35.4070   28.9010   40.7330 C   0  0  0  0  0  0  0  0  0  0  0  0
   36.4430   30.0440   40.8260 C   0  0  2  0  0  0  0  0  0  0  0  0
   37.2440   30.1610   42.8660 H   0  0  0  0  0  0  0  0  0  0  0  0
   35.9440   28.0650   42.8160 H   0  0  0  0  0  0  0  0  0  0  0  0
   34.7640   28.9330   41.6440 H   0  0  0  0  0  0  0  0  0  0  0  0
   34.8800   28.8430   39.8110 H   0  0  0  0  0  0  0  0  0  0  0  0
   35.8650   30.9620   41.0720 H   0  0  0  0  0  0  0  0  0  0  0  0
   38.5160   24.9300   42.3980 C   0  0  0  0  0  0  0  0  0  0  0  0
   39.6300   25.1950   43.1990 C   0  0  0  0  0  0  0  0  0  0  0  0
   39.8070   26.5090   43.6780 C   0  0  0  0  0  0  0  0  0  0  0  0
   38.8860   27.4750   43.3430 N   0  0  0  0  0  0  0  0  0  0  0  0
   37.8240   27.1740   42.5650 C   0  0  0  0  0  0  0  0  0  0  0  0
   37.6270   25.9110   42.0880 N   0  0  0  0  0  0  0  0  0  0  0  0
   40.3300   24.4060   43.4390 H   0  0  0  0  0  0  0  0  0  0  0  0
   40.6620   26.7460   44.3030 H   0  0  0  0  0  0  0  0  0  0  0  0
   38.2810   23.6460   41.8900 O   0  0  0  0  0  0  0  0  0  0  0  0
   37.9320   22.9840   42.5940 H   0  0  0  0  0  0  0  0  0  0  0  0
   38.6700   29.4920   41.4980 O   0  0  0  0  0  0  0  0  0  0  0  0
   38.7220   30.1980   40.8300 H   0  0  0  0  0  0  0  0  0  0  0  0
   37.1270   30.0860   39.6530 O   0  0  0  0  0  0  0  0  0  0  0  0
   36.8880   31.1470   38.8220 C   0  0  0  0  0  0  0  0  0  0  0  0
   35.7480   31.3970   38.9570 H   0  0  0  0  0  0  0  0  0  0  0  0
   37.0800   31.0190   37.7970 H   0  0  0  0  0  0  0  0  0  0  0  0
   37.4360   32.4790   39.3250 C   0  0  0  0  0  0  0  0  0  0  0  0
   36.9490   32.6670   40.2940 H   0  0  0  0  0  0  0  0  0  0  0  0
   37.1300   33.3200   38.6800 H   0  0  0  0  0  0  0  0  0  0  0  0
   38.9080   32.3700   39.4550 C   0  0  0  0  0  0  0  0  0  0  0  0
   39.7960   32.2130   38.3740 C   0  0  0  0  0  0  0  0  0  0  0  0
   39.7260   32.1350   37.3280 H   0  0  0  0  0  0  0  0  0  0  0  0
   41.4210   32.1550   39.1940 S   0  0  0  0  0  0  0  0  0  0  0  0
   40.6390   32.3560   40.8940 C   0  0  0  0  0  0  0  0  0  0  0  0
   41.2120   32.3870   41.8180 H   0  0  0  0  0  0  0  0  0  0  0  0
   39.4550   32.4270   40.6670 N   0  0  0  0  0  0  0  0  0  0  0  0
  1  2  1  0  0  0  0
  1  6  1  1  0  0  0
  2 15  1  0  0  0  0
  2  7  1  1  0  0  0
  3  2  1  0  0  0  0
  4  5  1  0  0  0  0
  4  3  1  0  0  0  0
  4  8  1  0  0  0  0
  5 10  1  1  0  0  0
  5  1  1  0  0  0  0
  9  4  1  0  0  0  0
 11 12  1  0  0  0  0
 12 17  1  0  0  0  0
 12 13  2  0  0  0  0
 13 18  1  0  0  0  0
 14 13  1  0  0  0  0
 15 14  2  0  0  0  0
 16 11  2  0  0  0  0
 16 15  1  0  0  0  0
 19 11  1  0  0  0  0
 19 20  1  0  0  0  0
 21  1  1  0  0  0  0
 22 21  1  0  0  0  0
 23  5  1  0  0  0  0
 24 25  1  0  0  0  0
 24 27  1  0  0  0  0
 24 23  1  0  0  0  0
 26 24  1  0  0  0  0
 27 30  1  0  0  0  0
 27 28  1  0  0  0  0
 29 27  1  0  0  0  0
 30 36  1  0  0  0  0
 31 33  1  0  0  0  0
 31 30  2  0  0  0  0
 32 31  1  0  0  0  0
 33 34  1  0  0  0  0
 34 35  1  0  0  0  0
 36 34  2  0  0  0  0
M  END
>  <minimizedAffinity>
-4.89423037

$$$$

 OpenBabel03242519483D

 36 38  0  0  1  0  0  0  0  0999 V2000
   37.3260   29.2940   42.5560 C   0  0  2  0  0  0  0  0  0  0  0  0
   38.4220   29.6040   41.6180 C   0  0  1  0  0  0  0  0  0  0  0  0
   38.9130   28.2810   41.2160 O   0  0  0  0  0  0  0  0  0  0  0  0
   39.1490   27.8040   42.5270 C   0  0  0  0  0  0  0  0  0  0  0  0
   37.7180   27.9250   43.0970 C   0  0  2  0  0  0  0  0  0  0  0  0
   37.1930   30.0410   43.3550 H   0  0  0  0  0  0  0  0  0  0  0  0
   39.3060   30.0630   42.0810 H   0  0  0  0  0  0  0  0  0  0  0  0
   39.8010   28.5380   43.0550 H   0  0  0  0  0  0  0  0  0  0  0  0
   39.5320   26.8130   42.4770 H   0  0  0  0  0  0  0  0  0  0  0  0
   37.8240   27.8860   44.2040 H   0  0  0  0  0  0  0  0  0  0  0  0
   37.3220   32.4650   39.6410 C   0  0  0  0  0  0  0  0  0  0  0  0
   37.3270   31.9890   38.3280 C   0  0  0  0  0  0  0  0  0  0  0  0
   37.7120   30.6510   38.1080 C   0  0  0  0  0  0  0  0  0  0  0  0
   38.0640   29.8690   39.1830 N   0  0  0  0  0  0  0  0  0  0  0  0
   38.0440   30.3710   40.4370 C   0  0  0  0  0  0  0  0  0  0  0  0
   37.6760   31.6620   40.6790 N   0  0  0  0  0  0  0  0  0  0  0  0
   37.0430   32.6380   37.5100 H   0  0  0  0  0  0  0  0  0  0  0  0
   37.7260   30.2510   37.0990 H   0  0  0  0  0  0  0  0  0  0  0  0
   36.9500   33.7850   39.9290 O   0  0  0  0  0  0  0  0  0  0  0  0
   35.9380   33.9490   39.8650 H   0  0  0  0  0  0  0  0  0  0  0  0
   36.0990   29.1390   41.8250 O   0  0  0  0  0  0  0  0  0  0  0  0
   35.6470   28.3900   42.2520 H   0  0  0  0  0  0  0  0  0  0  0  0
   36.9640   26.9350   42.5520 O   0  0  0  0  0  0  0  0  0  0  0  0
   37.4950   25.6740   42.5370 C   0  0  0  0  0  0  0  0  0  0  0  0
   36.9850   25.1110   43.4330 H   0  0  0  0  0  0  0  0  0  0  0  0
   38.5360   25.5790   42.6360 H   0  0  0  0  0  0  0  0  0  0  0  0
   36.9610   24.7780   41.4230 C   0  0  0  0  0  0  0  0  0  0  0  0
   35.8660   24.7610   41.5370 H   0  0  0  0  0  0  0  0  0  0  0  0
   37.2800   23.7300   41.5500 H   0  0  0  0  0  0  0  0  0  0  0  0
   37.3760   25.3420   40.1180 C   0  0  0  0  0  0  0  0  0  0  0  0
   38.6390   25.1460   39.5270 C   0  0  0  0  0  0  0  0  0  0  0  0
   39.5280   24.6380   39.7650 H   0  0  0  0  0  0  0  0  0  0  0  0
   38.5020   26.0760   37.9670 S   0  0  0  0  0  0  0  0  0  0  0  0
   36.7360   26.5940   38.3590 C   0  0  0  0  0  0  0  0  0  0  0  0
   36.1320   27.2150   37.7000 H   0  0  0  0  0  0  0  0  0  0  0  0
   36.5110   26.0880   39.4320 N   0  0  0  0  0  0  0  0  0  0  0  0
  1  5  1  0  0  0  0
  1  6  1  1  0  0  0
  2  7  1  1  0  0  0
  2  1  1  0  0  0  0
  3  2  1  0  0  0  0
  3  4  1  0  0  0  0
  4  8  1  0  0  0  0
  4  5  1  0  0  0  0
  5 10  1  1  0  0  0
  9  4  1  0  0  0  0
 11 19  1  0  0  0  0
 11 16  1  0  0  0  0
 12 11  2  0  0  0  0
 13 12  1  0  0  0  0
 13 14  2  0  0  0  0
 14 15  1  0  0  0  0
 15 16  2  0  0  0  0
 15  2  1  0  0  0  0
 17 12  1  0  0  0  0
 18 13  1  0  0  0  0
 20 19  1  0  0  0  0
 21 22  1  0  0  0  0
 21  1  1  0  0  0  0
 23  5  1  0  0  0  0
 24 23  1  0  0  0  0
 24 26  1  0  0  0  0
 24 25  1  0  0  0  0
 27 28  1  0  0  0  0
 27 29  1  0  0  0  0
 27 24  1  0  0  0  0
 30 27  1  0  0  0  0
 31 32  1  0  0  0  0
 31 30  2  0  0  0  0
 33 34  1  0  0  0  0
 33 31  1  0  0  0  0
 34 36  2  0  0  0  0
 35 34  1  0  0  0  0
 36 30  1  0  0  0  0
M  END
>  <minimizedAffinity>
-4.82771397

$$$$

 OpenBabel03242519483D

 36 38  0  0  1  0  0  0  0  0999 V2000
   37.5080   27.6600   41.4500 C   0  0  2  0  0  0  0  0  0  0  0  0
   36.8180   28.9470   41.6620 C   0  0  1  0  0  0  0  0  0  0  0  0
   37.4830   29.5010   42.8460 O   0  0  0  0  0  0  0  0  0  0  0  0
   37.2660   28.3780   43.6800 C   0  0  0  0  0  0  0  0  0  0  0  0
   38.0020   27.3050   42.8460 C   0  0  2  0  0  0  0  0  0  0  0  0
   36.8700   26.8740   41.0160 H   0  0  0  0  0  0  0  0  0  0  0  0
   35.7720   28.8580   41.9870 H   0  0  0  0  0  0  0  0  0  0  0  0
   36.1760   28.1420   43.6730 H   0  0  0  0  0  0  0  0  0  0  0  0
   37.6820   28.5680   44.6400 H   0  0  0  0  0  0  0  0  0  0  0  0
   37.6400   26.3230   43.2220 H   0  0  0  0  0  0  0  0  0  0  0  0
   37.1220   32.1660   39.9730 C   0  0  0  0  0  0  0  0  0  0  0  0
   37.0980   31.8380   38.6160 C   0  0  0  0  0  0  0  0  0  0  0  0
   36.9680   30.4790   38.2630 C   0  0  0  0  0  0  0  0  0  0  0  0
   36.8710   29.5340   39.2580 N   0  0  0  0  0  0  0  0  0  0  0  0
   36.9000   29.8980   40.5590 C   0  0  0  0  0  0  0  0  0  0  0  0
   37.0240   31.2040   40.9290 N   0  0  0  0  0  0  0  0  0  0  0  0
   37.1770   32.6130   37.8650 H   0  0  0  0  0  0  0  0  0  0  0  0
   36.9460   30.1910   37.2170 H   0  0  0  0  0  0  0  0  0  0  0  0
   37.2490   33.4970   40.3920 O   0  0  0  0  0  0  0  0  0  0  0  0
   36.3890   34.0470   40.2740 H   0  0  0  0  0  0  0  0  0  0  0  0
   38.6620   27.8670   40.6180 O   0  0  0  0  0  0  0  0  0  0  0  0
   39.3510   27.2970   41.0030 H   0  0  0  0  0  0  0  0  0  0  0  0
   39.3390   27.5180   42.9760 O   0  0  0  0  0  0  0  0  0  0  0  0
   40.0600   26.5910   43.6780 C   0  0  0  0  0  0  0  0  0  0  0  0
   39.2900   25.7520   43.9670 H   0  0  0  0  0  0  0  0  0  0  0  0
   40.5480   26.9090   44.5510 H   0  0  0  0  0  0  0  0  0  0  0  0
   40.9730   25.7210   42.8190 C   0  0  0  0  0  0  0  0  0  0  0  0
   41.4980   25.0450   43.5120 H   0  0  0  0  0  0  0  0  0  0  0  0
   41.7690   26.3120   42.3350 H   0  0  0  0  0  0  0  0  0  0  0  0
   40.1440   24.9790   41.8410 C   0  0  0  0  0  0  0  0  0  0  0  0
   39.1480   24.0450   42.1830 C   0  0  0  0  0  0  0  0  0  0  0  0
   38.7430   23.6420   43.0650 H   0  0  0  0  0  0  0  0  0  0  0  0
   38.5170   23.5170   40.5580 S   0  0  0  0  0  0  0  0  0  0  0  0
   39.7110   24.6560   39.6550 C   0  0  0  0  0  0  0  0  0  0  0  0
   39.7590   24.7390   38.5710 H   0  0  0  0  0  0  0  0  0  0  0  0
   40.3300   25.1970   40.5400 N   0  0  0  0  0  0  0  0  0  0  0  0
  1  6  1  6  0  0  0
  1  2  1  0  0  0  0
  1  5  1  0  0  0  0
  2  7  1  1  0  0  0
  2  3  1  0  0  0  0
  3  4  1  0  0  0  0
  4  9  1  0  0  0  0
  5 23  1  0  0  0  0
  5 10  1  1  0  0  0
  5  4  1  0  0  0  0
  8  4  1  0  0  0  0
 11 19  1  0  0  0  0
 11 16  1  0  0  0  0
 12 11  2  0  0  0  0
 13 12  1  0  0  0  0
 13 14  2  0  0  0  0
 14 15  1  0  0  0  0
 15 16  2  0  0  0  0
 15  2  1  0  0  0  0
 17 12  1  0  0  0  0
 18 13  1  0  0  0  0
 20 19  1  0  0  0  0
 21 22  1  0  0  0  0
 21  1  1  0  0  0  0
 23 24  1  0  0  0  0
 24 25  1  0  0  0  0
 24 26  1  0  0  0  0
 27 28  1  0  0  0  0
 27 24  1  0  0  0  0
 29 27  1  0  0  0  0
 30 31  2  0  0  0  0
 30 27  1  0  0  0  0
 31 32  1  0  0  0  0
 33 31  1  0  0  0  0
 34 36  2  0  0  0  0
 34 33  1  0  0  0  0
 35 34  1  0  0  0  0
 36 30  1  0  0  0  0
M  END
>  <minimizedAffinity>
-4.80418682

$$$$
