
 OpenBabel03252509043D

 46 48  0  0  1  0  0  0  0  0999 V2000
   46.5940   34.3480   43.7540 N   0  0  0  0  0  0  0  0  0  0  0  0
   46.2320   35.0400   42.5830 C   0  0  0  0  0  0  0  0  0  0  0  0
   44.7400   35.1600   42.3540 C   0  0  0  0  0  0  0  0  0  0  0  0
   43.9500   35.3390   43.6280 C   0  0  0  0  0  0  0  0  0  0  0  0
   44.8380   35.3850   44.8500 C   0  0  0  0  0  0  0  0  0  0  0  0
   45.6800   34.0580   44.7420 C   0  0  2  0  0  0  0  0  0  0  0  0
   46.6760   34.6950   41.6500 H   0  0  0  0  0  0  0  0  0  0  0  0
   46.5920   36.1040   42.7040 H   0  0  0  0  0  0  0  0  0  0  0  0
   44.5220   35.9290   41.6000 H   0  0  0  0  0  0  0  0  0  0  0  0
   44.4230   34.1870   41.9090 H   0  0  0  0  0  0  0  0  0  0  0  0
   43.1720   34.5980   43.7960 H   0  0  0  0  0  0  0  0  0  0  0  0
   43.4700   36.3440   43.5640 H   0  0  0  0  0  0  0  0  0  0  0  0
   45.5250   36.2390   44.8040 H   0  0  0  0  0  0  0  0  0  0  0  0
   44.2050   35.3360   45.7430 H   0  0  0  0  0  0  0  0  0  0  0  0
   44.9230   33.2860   44.5440 H   0  0  0  0  0  0  0  0  0  0  0  0
   47.7310   33.4720   43.5970 C   0  0  0  0  0  0  0  0  0  0  0  0
   47.9300   32.9540   44.5340 H   0  0  0  0  0  0  0  0  0  0  0  0
   48.6170   34.1140   43.3800 H   0  0  0  0  0  0  0  0  0  0  0  0
   47.4560   32.5210   42.4910 C   0  0  0  0  0  0  0  0  0  0  0  0
   47.0200   31.5880   42.8670 H   0  0  0  0  0  0  0  0  0  0  0  0
   46.7200   32.9400   41.7570 H   0  0  0  0  0  0  0  0  0  0  0  0
   51.0990   32.3310   41.6110 C   0  0  0  0  0  0  0  0  0  0  0  0
   49.9070   32.5860   42.2970 C   0  0  0  0  0  0  0  0  0  0  0  0
   48.7110   32.2410   41.7460 C   0  0  0  0  0  0  0  0  0  0  0  0
   48.7270   31.6590   40.5400 N   0  0  0  0  0  0  0  0  0  0  0  0
   49.8670   31.4090   39.8710 C   0  0  0  0  0  0  0  0  0  0  0  0
   51.0590   31.7370   40.3890 N   0  0  0  0  0  0  0  0  0  0  0  0
   52.0630   32.5790   41.9930 H   0  0  0  0  0  0  0  0  0  0  0  0
   50.0180   33.0610   43.2640 H   0  0  0  0  0  0  0  0  0  0  0  0
   49.7020   30.9390   38.9210 H   0  0  0  0  0  0  0  0  0  0  0  0
   46.2500   33.9780   45.9980 O   0  0  0  0  0  0  0  0  0  0  0  0
   45.6540   31.4100   45.6870 O   0  0  0  0  0  0  0  0  0  0  0  0
   46.0610   32.4840   46.7200 P   0  0  2  0  0  0  0  0  0  0  0  0
   44.6920   32.6100   47.7430 O   0  0  0  0  0  0  0  0  0  0  0  0
   44.9400   32.4370   48.6840 H   0  0  0  0  0  0  0  0  0  0  0  0
   47.3630   32.0020   47.6270 O   0  0  0  0  0  0  0  0  0  0  0  0
   47.6200   30.6620   47.3950 C   0  0  0  0  0  0  0  0  0  0  0  0
   46.7070   30.0550   47.4320 H   0  0  0  0  0  0  0  0  0  0  0  0
   48.0680   30.5260   46.3740 H   0  0  0  0  0  0  0  0  0  0  0  0
   48.5910   30.1030   48.4050 C   0  0  0  0  0  0  0  0  0  0  0  0
   49.2670   28.8440   48.1400 C   0  0  0  0  0  0  0  0  0  0  0  0
   49.1100   28.2630   47.2400 H   0  0  0  0  0  0  0  0  0  0  0  0
   50.2900   28.6690   49.6510 S   0  0  0  0  0  0  0  0  0  0  0  0
   49.6500   30.2860   50.3690 C   0  0  0  0  0  0  0  0  0  0  0  0
   49.9190   30.7420   51.3210 H   0  0  0  0  0  0  0  0  0  0  0  0
   48.8780   30.7030   49.5430 N   0  0  0  0  0  0  0  0  0  0  0  0
  1  6  1  0  0  0  0
  2  8  1  0  0  0  0
  2  1  1  0  0  0  0
  3  2  1  0  0  0  0
  3  4  1  0  0  0  0
  4 11  1  0  0  0  0
  4  5  1  0  0  0  0
  5 14  1  0  0  0  0
  6 15  1  6  0  0  0
  6  5  1  0  0  0  0
  6 31  1  0  0  0  0
  7  2  1  0  0  0  0
  9  3  1  0  0  0  0
 10  3  1  0  0  0  0
 12  4  1  0  0  0  0
 13  5  1  0  0  0  0
 16  1  1  0  0  0  0
 16 17  1  0  0  0  0
 18 16  1  0  0  0  0
 19 20  1  0  0  0  0
 19 16  1  0  0  0  0
 21 19  1  0  0  0  0
 22 28  1  0  0  0  0
 22 23  1  0  0  0  0
 23 29  1  0  0  0  0
 24 23  2  0  0  0  0
 24 19  1  0  0  0  0
 25 24  1  0  0  0  0
 26 27  1  0  0  0  0
 26 25  2  0  0  0  0
 27 22  2  0  0  0  0
 30 26  1  0  0  0  0
 31 33  1  0  0  0  0
 33 32  2  6  0  0  0
 33 36  1  0  0  0  0
 33 34  1  0  0  0  0
 34 35  1  0  0  0  0
 37 38  1  0  0  0  0
 37 36  1  0  0  0  0
 37 40  1  0  0  0  0
 39 37  1  0  0  0  0
 40 46  1  0  0  0  0
 41 40  2  0  0  0  0
 41 43  1  0  0  0  0
 42 41  1  0  0  0  0
 43 44  1  0  0  0  0
 44 45  1  0  0  0  0
 46 44  2  0  0  0  0
M  END
>  <minimizedAffinity>
-4.82724714

>  <minimizedRMSD>
2.74380183

$$$$
