
 OpenBabel03252503193D

 37 40  0  0  0  0  0  0  0  0999 V2000
   44.3740   34.0220   42.0290 C   0  0  0  0  0  0  0  0  0  0  0  0
   44.6230   33.5720   43.2970 C   0  0  0  0  0  0  0  0  0  0  0  0
   44.8380   34.6840   44.0440 N   0  0  0  0  0  0  0  0  0  0  0  0
   44.7240   35.7580   43.2580 C   0  0  0  0  0  0  0  0  0  0  0  0
   44.4380   35.3510   42.0160 N   0  0  0  0  0  0  0  0  0  0  0  0
   44.8590   37.1380   43.5700 N   0  0  0  0  0  0  0  0  0  0  0  0
   44.6440   32.5620   43.6320 H   0  0  0  0  0  0  0  0  0  0  0  0
   45.8440   37.5090   43.4520 H   0  0  0  0  0  0  0  0  0  0  0  0
   44.0470   37.7280   43.8910 H   0  0  0  0  0  0  0  0  0  0  0  0
   45.1430   34.7680   45.4540 C   0  0  0  0  0  0  0  0  0  0  0  0
   45.8830   35.6030   45.6250 H   0  0  0  0  0  0  0  0  0  0  0  0
   44.2390   35.0920   46.0060 H   0  0  0  0  0  0  0  0  0  0  0  0
   45.7300   33.5020   45.9960 C   0  0  0  0  0  0  0  0  0  0  0  0
   45.2800   32.9380   47.2410 C   0  0  0  0  0  0  0  0  0  0  0  0
   44.5260   33.3570   47.8470 H   0  0  0  0  0  0  0  0  0  0  0  0
   46.3250   31.4640   47.3670 S   0  0  0  0  0  0  0  0  0  0  0  0
   47.2000   31.8470   45.7220 C   0  0  0  0  0  0  0  0  0  0  0  0
   47.9850   31.2300   45.2850 H   0  0  0  0  0  0  0  0  0  0  0  0
   46.6880   32.8120   45.3990 N   0  0  0  0  0  0  0  0  0  0  0  0
   44.0720   33.1930   40.8110 C   0  0  0  0  0  0  0  0  0  0  0  0
   44.6420   33.3170   39.6950 O   0  0  0  0  0  0  0  0  0  0  0  0
   43.4390   30.8570   41.1720 C   0  0  0  0  0  0  0  0  0  0  0  0
   43.0740   32.1820   40.8800 C   0  0  0  0  0  0  0  0  0  0  0  0
   41.7190   32.3730   40.6820 C   0  0  0  0  0  0  0  0  0  0  0  0
   40.8210   31.3920   40.7590 N   0  0  0  0  0  0  0  0  0  0  0  0
   41.2330   30.1220   41.0450 C   0  0  0  0  0  0  0  0  0  0  0  0
   42.5290   29.8710   41.2480 N   0  0  0  0  0  0  0  0  0  0  0  0
   44.4870   30.6010   41.3460 H   0  0  0  0  0  0  0  0  0  0  0  0
   40.5120   29.3180   41.1100 H   0  0  0  0  0  0  0  0  0  0  0  0
   41.2690   33.6940   40.3780 C   0  0  0  0  0  0  0  0  0  0  0  0
   41.2000   34.4710   39.2700 C   0  0  0  0  0  0  0  0  0  0  0  0
   40.7250   35.6920   39.2690 C   0  0  0  0  0  0  0  0  0  0  0  0
   40.2990   36.1440   40.4560 C   0  0  0  0  0  0  0  0  0  0  0  0
   40.5850   34.7790   41.6210 S   0  0  0  0  0  0  0  0  0  0  0  0
   41.5900   33.9590   38.3650 H   0  0  0  0  0  0  0  0  0  0  0  0
   40.6480   36.3520   38.4130 H   0  0  0  0  0  0  0  0  0  0  0  0
   39.8370   37.1910   40.7160 H   0  0  0  0  0  0  0  0  0  0  0  0
  1  2  2  0  0  0  0
  2  7  1  0  0  0  0
  2  3  1  0  0  0  0
  3 10  1  0  0  0  0
  4  6  1  0  0  0  0
  4  3  1  0  0  0  0
  5  1  1  0  0  0  0
  5  4  2  0  0  0  0
  6  9  1  0  0  0  0
  8  6  1  0  0  0  0
 10 11  1  0  0  0  0
 10 13  1  0  0  0  0
 10 12  1  0  0  0  0
 13 14  2  0  0  0  0
 14 16  1  0  0  0  0
 14 15  1  0  0  0  0
 17 16  1  0  0  0  0
 18 17  1  0  0  0  0
 19 17  2  0  0  0  0
 19 13  1  0  0  0  0
 20 23  1  0  0  0  0
 20  1  1  0  0  0  0
 21 20  2  0  0  0  0
 22 27  1  0  0  0  0
 22 28  1  0  0  0  0
 23 22  2  0  0  0  0
 24 25  2  0  0  0  0
 24 23  1  0  0  0  0
 25 26  1  0  0  0  0
 26 29  1  0  0  0  0
 26 27  2  0  0  0  0
 30 24  1  0  0  0  0
 30 34  1  0  0  0  0
 31 30  2  0  0  0  0
 32 31  1  0  0  0  0
 32 33  2  0  0  0  0
 33 37  1  0  0  0  0
 33 34  1  0  0  0  0
 35 31  1  0  0  0  0
 36 32  1  0  0  0  0
M  END
>  <minimizedAffinity>
-5.1830039

>  <minimizedRMSD>
7.38193703

$$$$
