
 OpenBabel03242513393D

 32 35  0  0  0  0  0  0  0  0999 V2000
   40.1340   30.4780   40.8770 C   0  0  0  0  0  0  0  0  0  0  0  0
   38.9050   29.8860   40.9870 C   0  0  0  0  0  0  0  0  0  0  0  0
   37.8060   30.6660   40.7720 C   0  0  0  0  0  0  0  0  0  0  0  0
   37.8840   32.0070   40.4510 C   0  0  0  0  0  0  0  0  0  0  0  0
   37.0250   33.0230   40.1860 N   0  0  0  0  0  0  0  0  0  0  0  0
   37.6930   34.1610   39.9300 C   0  0  0  0  0  0  0  0  0  0  0  0
   38.9890   33.8410   40.0410 N   0  0  0  0  0  0  0  0  0  0  0  0
   39.1420   32.5440   40.3560 C   0  0  0  0  0  0  0  0  0  0  0  0
   40.2820   31.8310   40.5570 C   0  0  0  0  0  0  0  0  0  0  0  0
   41.0470   29.9170   41.0360 H   0  0  0  0  0  0  0  0  0  0  0  0
   36.8260   30.2290   40.8510 H   0  0  0  0  0  0  0  0  0  0  0  0
   35.9900   32.8470   40.2010 H   0  0  0  0  0  0  0  0  0  0  0  0
   37.2570   35.1120   39.6910 H   0  0  0  0  0  0  0  0  0  0  0  0
   38.9340   26.2380   40.7100 C   0  0  0  0  0  0  0  0  0  0  0  0
   38.5740   25.8340   41.9940 C   0  0  0  0  0  0  0  0  0  0  0  0
   38.3270   26.8240   42.9320 C   0  0  0  0  0  0  0  0  0  0  0  0
   38.4440   28.1320   42.5730 N   0  0  0  0  0  0  0  0  0  0  0  0
   38.7940   28.4810   41.3210 C   0  0  0  0  0  0  0  0  0  0  0  0
   39.0400   27.5470   40.3850 N   0  0  0  0  0  0  0  0  0  0  0  0
   39.1490   25.5540   39.8950 H   0  0  0  0  0  0  0  0  0  0  0  0
   38.0490   26.5040   43.9270 H   0  0  0  0  0  0  0  0  0  0  0  0
   38.4840   24.3730   42.2520 C   0  0  0  0  0  0  0  0  0  0  0  0
   39.3180   24.1280   43.3340 F   0  0  0  0  0  0  0  0  0  0  0  0
   38.9210   23.7070   41.1410 F   0  0  0  0  0  0  0  0  0  0  0  0
   37.1590   24.0680   42.5430 F   0  0  0  0  0  0  0  0  0  0  0  0
   41.6470   32.4070   40.4550 C   0  0  0  0  0  0  0  0  0  0  0  0
   42.3490   32.2840   39.2960 C   0  0  0  0  0  0  0  0  0  0  0  0
   42.2280   31.8620   38.3240 H   0  0  0  0  0  0  0  0  0  0  0  0
   43.9520   33.1360   39.6410 S   0  0  0  0  0  0  0  0  0  0  0  0
   43.3410   33.5260   41.3980 C   0  0  0  0  0  0  0  0  0  0  0  0
   43.6380   34.0780   42.5040 H   0  0  0  0  0  0  0  0  0  0  0  0
   42.2980   33.0560   41.3980 N   0  0  0  0  0  0  0  0  0  0  0  0
  1  2  1  0  0  0  0
  1 10  1  0  0  0  0
  2 18  1  0  0  0  0
  3 11  1  0  0  0  0
  3  2  2  0  0  0  0
  4  3  1  0  0  0  0
  5 12  1  0  0  0  0
  5  4  1  0  0  0  0
  6  7  2  0  0  0  0
  6  5  1  0  0  0  0
  7  8  1  0  0  0  0
  8  4  2  0  0  0  0
  8  9  1  0  0  0  0
  9  1  2  0  0  0  0
 13  6  1  0  0  0  0
 14 15  1  0  0  0  0
 15 22  1  0  0  0  0
 15 16  2  0  0  0  0
 16 21  1  0  0  0  0
 17 16  1  0  0  0  0
 18 17  2  0  0  0  0
 19 14  2  0  0  0  0
 19 18  1  0  0  0  0
 20 14  1  0  0  0  0
 22 25  1  0  0  0  0
 22 23  1  0  0  0  0
 24 22  1  0  0  0  0
 26  9  1  0  0  0  0
 26 32  1  0  0  0  0
 27 29  1  0  0  0  0
 27 26  2  0  0  0  0
 28 27  1  0  0  0  0
 29 30  1  0  0  0  0
 30 32  2  0  0  0  0
 30 31  1  0  0  0  0
M  END
>  <minimizedAffinity>
-5.57938719

$$$$

 OpenBabel03242513393D

 32 35  0  0  0  0  0  0  0  0999 V2000
   39.5160   29.8850   39.6120 C   0  0  0  0  0  0  0  0  0  0  0  0
   38.2980   29.6000   40.1660 C   0  0  0  0  0  0  0  0  0  0  0  0
   37.4800   30.6500   40.4710 C   0  0  0  0  0  0  0  0  0  0  0  0
   37.8300   31.9670   40.2450 C   0  0  0  0  0  0  0  0  0  0  0  0
   37.2760   33.1930   40.4250 N   0  0  0  0  0  0  0  0  0  0  0  0
   38.1080   34.1610   40.0050 C   0  0  0  0  0  0  0  0  0  0  0  0
   39.1960   33.5200   39.5580 N   0  0  0  0  0  0  0  0  0  0  0  0
   39.0630   32.1900   39.6900 C   0  0  0  0  0  0  0  0  0  0  0  0
   39.9300   31.1970   39.3590 C   0  0  0  0  0  0  0  0  0  0  0  0
   40.2130   29.1000   39.3460 H   0  0  0  0  0  0  0  0  0  0  0  0
   36.5160   30.4580   40.9070 H   0  0  0  0  0  0  0  0  0  0  0  0
   36.3160   33.2740   40.8440 H   0  0  0  0  0  0  0  0  0  0  0  0
   37.9180   35.2160   40.0330 H   0  0  0  0  0  0  0  0  0  0  0  0
   37.8380   26.3610   41.8040 C   0  0  0  0  0  0  0  0  0  0  0  0
   37.1480   25.6290   40.8400 C   0  0  0  0  0  0  0  0  0  0  0  0
   36.8540   26.2640   39.6430 C   0  0  0  0  0  0  0  0  0  0  0  0
   37.2410   27.5550   39.4550 N   0  0  0  0  0  0  0  0  0  0  0  0
   37.9060   28.2270   40.4120 C   0  0  0  0  0  0  0  0  0  0  0  0
   38.2090   27.6430   41.5860 N   0  0  0  0  0  0  0  0  0  0  0  0
   38.1220   25.9700   42.7750 H   0  0  0  0  0  0  0  0  0  0  0  0
   36.3180   25.6910   38.8980 H   0  0  0  0  0  0  0  0  0  0  0  0
   36.7840   24.2280   41.1740 C   0  0  0  0  0  0  0  0  0  0  0  0
   36.5250   24.2190   42.5380 F   0  0  0  0  0  0  0  0  0  0  0  0
   37.8450   23.4190   40.8760 F   0  0  0  0  0  0  0  0  0  0  0  0
   35.6570   23.8870   40.4330 F   0  0  0  0  0  0  0  0  0  0  0  0
   41.2660   31.4320   38.7570 C   0  0  0  0  0  0  0  0  0  0  0  0
   42.3570   31.5690   39.5590 C   0  0  0  0  0  0  0  0  0  0  0  0
   42.5950   31.5610   40.5980 H   0  0  0  0  0  0  0  0  0  0  0  0
   43.7570   31.8390   38.3840 S   0  0  0  0  0  0  0  0  0  0  0  0
   42.5360   31.7100   36.9340 C   0  0  0  0  0  0  0  0  0  0  0  0
   42.4170   31.7460   35.6690 H   0  0  0  0  0  0  0  0  0  0  0  0
   41.5430   31.5310   37.4730 N   0  0  0  0  0  0  0  0  0  0  0  0
  1  2  1  0  0  0  0
  2 18  1  0  0  0  0
  2  3  2  0  0  0  0
  3 11  1  0  0  0  0
  4  5  1  0  0  0  0
  4  3  1  0  0  0  0
  5 12  1  0  0  0  0
  6 13  1  0  0  0  0
  6  5  1  0  0  0  0
  7  8  1  0  0  0  0
  7  6  2  0  0  0  0
  8  4  2  0  0  0  0
  9  1  2  0  0  0  0
  9  8  1  0  0  0  0
 10  1  1  0  0  0  0
 14 20  1  0  0  0  0
 15 22  1  0  0  0  0
 15 14  2  0  0  0  0
 16 15  1  0  0  0  0
 17 16  2  0  0  0  0
 17 18  1  0  0  0  0
 18 19  2  0  0  0  0
 19 14  1  0  0  0  0
 21 16  1  0  0  0  0
 22 23  1  0  0  0  0
 24 22  1  0  0  0  0
 25 22  1  0  0  0  0
 26  9  1  0  0  0  0
 26 27  2  0  0  0  0
 27 28  1  0  0  0  0
 29 27  1  0  0  0  0
 30 32  2  0  0  0  0
 30 29  1  0  0  0  0
 31 30  1  0  0  0  0
 32 26  1  0  0  0  0
M  END
>  <minimizedAffinity>
-5.54193735

$$$$

 OpenBabel03242513393D

 32 35  0  0  0  0  0  0  0  0999 V2000
   39.6270   29.9100   39.7610 C   0  0  0  0  0  0  0  0  0  0  0  0
   38.4350   29.5400   40.3220 C   0  0  0  0  0  0  0  0  0  0  0  0
   37.5200   30.5230   40.5690 C   0  0  0  0  0  0  0  0  0  0  0  0
   37.7470   31.8540   40.2790 C   0  0  0  0  0  0  0  0  0  0  0  0
   37.0800   33.0290   40.3940 N   0  0  0  0  0  0  0  0  0  0  0  0
   37.8220   34.0490   39.9300 C   0  0  0  0  0  0  0  0  0  0  0  0
   38.9700   33.4920   39.5220 N   0  0  0  0  0  0  0  0  0  0  0  0
   38.9590   32.1630   39.7200 C   0  0  0  0  0  0  0  0  0  0  0  0
   39.9190   31.2400   39.4440 C   0  0  0  0  0  0  0  0  0  0  0  0
   40.3970   29.1810   39.5390 H   0  0  0  0  0  0  0  0  0  0  0  0
   36.5730   30.2630   41.0090 H   0  0  0  0  0  0  0  0  0  0  0  0
   36.1120   33.0410   40.8030 H   0  0  0  0  0  0  0  0  0  0  0  0
   37.5340   35.0820   39.9040 H   0  0  0  0  0  0  0  0  0  0  0  0
   37.0580   26.1530   40.1950 C   0  0  0  0  0  0  0  0  0  0  0  0
   37.6990   25.5250   41.2610 C   0  0  0  0  0  0  0  0  0  0  0  0
   38.5930   26.2790   42.0040 C   0  0  0  0  0  0  0  0  0  0  0  0
   38.8110   27.5810   41.6730 N   0  0  0  0  0  0  0  0  0  0  0  0
   38.1700   28.1500   40.6350 C   0  0  0  0  0  0  0  0  0  0  0  0
   37.2950   27.4490   39.8920 N   0  0  0  0  0  0  0  0  0  0  0  0
   36.3390   25.6650   39.5450 H   0  0  0  0  0  0  0  0  0  0  0  0
   39.0880   25.7860   42.8300 H   0  0  0  0  0  0  0  0  0  0  0  0
   37.3700   24.0980   41.5130 C   0  0  0  0  0  0  0  0  0  0  0  0
   35.9850   24.0150   41.4710 F   0  0  0  0  0  0  0  0  0  0  0  0
   37.8400   23.7550   42.7510 F   0  0  0  0  0  0  0  0  0  0  0  0
   37.9640   23.3360   40.5120 F   0  0  0  0  0  0  0  0  0  0  0  0
   41.2340   31.5690   38.8380 C   0  0  0  0  0  0  0  0  0  0  0  0
   42.3400   31.6580   39.6250 C   0  0  0  0  0  0  0  0  0  0  0  0
   42.6040   31.5560   40.6530 H   0  0  0  0  0  0  0  0  0  0  0  0
   43.7030   32.0790   38.4520 S   0  0  0  0  0  0  0  0  0  0  0  0
   42.4500   32.0570   37.0230 C   0  0  0  0  0  0  0  0  0  0  0  0
   42.2990   32.2120   35.7710 H   0  0  0  0  0  0  0  0  0  0  0  0
   41.4760   31.8000   37.5640 N   0  0  0  0  0  0  0  0  0  0  0  0
  1  2  1  0  0  0  0
  2  3  2  0  0  0  0
  2 18  1  0  0  0  0
  3 11  1  0  0  0  0
  4  5  1  0  0  0  0
  4  3  1  0  0  0  0
  5 12  1  0  0  0  0
  6  5  1  0  0  0  0
  7  8  1  0  0  0  0
  7  6  2  0  0  0  0
  8  4  2  0  0  0  0
  9  8  1  0  0  0  0
  9  1  2  0  0  0  0
 10  1  1  0  0  0  0
 13  6  1  0  0  0  0
 14 15  1  0  0  0  0
 15 22  1  0  0  0  0
 15 16  2  0  0  0  0
 16 21  1  0  0  0  0
 17 16  1  0  0  0  0
 18 17  2  0  0  0  0
 19 14  2  0  0  0  0
 19 18  1  0  0  0  0
 20 14  1  0  0  0  0
 22 24  1  0  0  0  0
 23 22  1  0  0  0  0
 25 22  1  0  0  0  0
 26  9  1  0  0  0  0
 26 27  2  0  0  0  0
 27 28  1  0  0  0  0
 29 27  1  0  0  0  0
 30 32  2  0  0  0  0
 30 29  1  0  0  0  0
 31 30  1  0  0  0  0
 32 26  1  0  0  0  0
M  END
>  <minimizedAffinity>
-5.44873857

$$$$

 OpenBabel03242513393D

 32 35  0  0  0  0  0  0  0  0999 V2000
   36.7780   30.3220   39.5080 C   0  0  0  0  0  0  0  0  0  0  0  0
   35.8190   29.3470   39.4710 C   0  0  0  0  0  0  0  0  0  0  0  0
   35.6930   28.5420   40.5670 C   0  0  0  0  0  0  0  0  0  0  0  0
   36.4820   28.6720   41.6930 C   0  0  0  0  0  0  0  0  0  0  0  0
   36.6110   28.0640   42.8990 N   0  0  0  0  0  0  0  0  0  0  0  0
   37.5880   28.6370   43.6230 C   0  0  0  0  0  0  0  0  0  0  0  0
   38.0720   29.6160   42.8470 N   0  0  0  0  0  0  0  0  0  0  0  0
   37.4260   29.6660   41.6710 C   0  0  0  0  0  0  0  0  0  0  0  0
   37.6110   30.5060   40.6170 C   0  0  0  0  0  0  0  0  0  0  0  0
   36.9320   30.9940   38.6730 H   0  0  0  0  0  0  0  0  0  0  0  0
   34.9470   27.7660   40.5680 H   0  0  0  0  0  0  0  0  0  0  0  0
   35.9820   27.2600   43.1460 H   0  0  0  0  0  0  0  0  0  0  0  0
   37.8970   28.3500   44.6090 H   0  0  0  0  0  0  0  0  0  0  0  0
   32.8730   28.8950   37.3500 C   0  0  0  0  0  0  0  0  0  0  0  0
   33.4190   28.8930   36.0680 C   0  0  0  0  0  0  0  0  0  0  0  0
   34.7930   29.0470   35.9580 C   0  0  0  0  0  0  0  0  0  0  0  0
   35.5440   29.1930   37.0830 N   0  0  0  0  0  0  0  0  0  0  0  0
   34.9770   29.1890   38.3030 C   0  0  0  0  0  0  0  0  0  0  0  0
   33.6480   29.0410   38.4490 N   0  0  0  0  0  0  0  0  0  0  0  0
   31.8140   28.7810   37.5590 H   0  0  0  0  0  0  0  0  0  0  0  0
   35.2110   29.0460   34.9600 H   0  0  0  0  0  0  0  0  0  0  0  0
   32.4850   28.7260   34.9260 C   0  0  0  0  0  0  0  0  0  0  0  0
   32.3500   29.9870   34.3590 F   0  0  0  0  0  0  0  0  0  0  0  0
   31.2850   28.2790   35.4050 F   0  0  0  0  0  0  0  0  0  0  0  0
   33.0500   27.8190   34.0360 F   0  0  0  0  0  0  0  0  0  0  0  0
   38.6300   31.5840   40.5880 C   0  0  0  0  0  0  0  0  0  0  0  0
   39.9360   31.2760   40.3580 C   0  0  0  0  0  0  0  0  0  0  0  0
   40.5360   30.4150   40.1700 H   0  0  0  0  0  0  0  0  0  0  0  0
   40.8070   32.9040   40.4140 S   0  0  0  0  0  0  0  0  0  0  0  0
   39.1430   33.7560   40.7590 C   0  0  0  0  0  0  0  0  0  0  0  0
   38.5710   34.8710   40.9720 H   0  0  0  0  0  0  0  0  0  0  0  0
   38.4190   32.8710   40.7670 N   0  0  0  0  0  0  0  0  0  0  0  0
  1  9  1  0  0  0  0
  2  1  2  0  0  0  0
  2  3  1  0  0  0  0
  3 11  1  0  0  0  0
  3  4  2  0  0  0  0
  4  5  1  0  0  0  0
  5 12  1  0  0  0  0
  5  6  1  0  0  0  0
  6 13  1  0  0  0  0
  7  6  2  0  0  0  0
  8  4  1  0  0  0  0
  8  7  1  0  0  0  0
  9  8  2  0  0  0  0
 10  1  1  0  0  0  0
 14 20  1  0  0  0  0
 14 19  1  0  0  0  0
 15 14  2  0  0  0  0
 16 15  1  0  0  0  0
 16 17  2  0  0  0  0
 17 18  1  0  0  0  0
 18 19  2  0  0  0  0
 18  2  1  0  0  0  0
 21 16  1  0  0  0  0
 22 24  1  0  0  0  0
 22 15  1  0  0  0  0
 23 22  1  0  0  0  0
 25 22  1  0  0  0  0
 26  9  1  0  0  0  0
 26 32  1  0  0  0  0
 27 29  1  0  0  0  0
 27 26  2  0  0  0  0
 28 27  1  0  0  0  0
 29 30  1  0  0  0  0
 30 32  2  0  0  0  0
 30 31  1  0  0  0  0
M  END
>  <minimizedAffinity>
-5.41751003

$$$$

 OpenBabel03242513393D

 32 35  0  0  0  0  0  0  0  0999 V2000
   36.1630   27.1780   39.3450 C   0  0  0  0  0  0  0  0  0  0  0  0
   35.4960   28.3720   39.2950 C   0  0  0  0  0  0  0  0  0  0  0  0
   35.6580   29.2310   40.3440 C   0  0  0  0  0  0  0  0  0  0  0  0
   36.4570   28.9460   41.4340 C   0  0  0  0  0  0  0  0  0  0  0  0
   36.8180   29.5520   42.5930 N   0  0  0  0  0  0  0  0  0  0  0  0
   37.6540   28.7730   43.3010 C   0  0  0  0  0  0  0  0  0  0  0  0
   37.8090   27.6650   42.5650 N   0  0  0  0  0  0  0  0  0  0  0  0
   37.0980   27.7350   41.4280 C   0  0  0  0  0  0  0  0  0  0  0  0
   36.9860   26.8290   40.4200 C   0  0  0  0  0  0  0  0  0  0  0  0
   36.0780   26.4500   38.5470 H   0  0  0  0  0  0  0  0  0  0  0  0
   35.1480   30.1780   40.3340 H   0  0  0  0  0  0  0  0  0  0  0  0
   36.4440   30.5070   42.8200 H   0  0  0  0  0  0  0  0  0  0  0  0
   38.0890   29.0110   44.2530 H   0  0  0  0  0  0  0  0  0  0  0  0
   32.5730   29.2700   37.2870 C   0  0  0  0  0  0  0  0  0  0  0  0
   33.0920   29.3030   35.9940 C   0  0  0  0  0  0  0  0  0  0  0  0
   34.4390   29.0150   35.8370 C   0  0  0  0  0  0  0  0  0  0  0  0
   35.1930   28.7170   36.9300 N   0  0  0  0  0  0  0  0  0  0  0  0
   34.6530   28.6950   38.1630 C   0  0  0  0  0  0  0  0  0  0  0  0
   33.3500   28.9690   38.3520 N   0  0  0  0  0  0  0  0  0  0  0  0
   31.5360   29.4760   37.5310 H   0  0  0  0  0  0  0  0  0  0  0  0
   34.8370   29.0430   34.8320 H   0  0  0  0  0  0  0  0  0  0  0  0
   32.1590   29.6450   34.8900 C   0  0  0  0  0  0  0  0  0  0  0  0
   30.9500   29.9540   35.4980 F   0  0  0  0  0  0  0  0  0  0  0  0
   32.0280   28.5530   34.0770 F   0  0  0  0  0  0  0  0  0  0  0  0
   32.6840   30.7340   34.2030 F   0  0  0  0  0  0  0  0  0  0  0  0
   37.6780   25.5160   40.4080 C   0  0  0  0  0  0  0  0  0  0  0  0
   36.9940   24.3850   40.7330 C   0  0  0  0  0  0  0  0  0  0  0  0
   36.0090   24.1000   41.0270 H   0  0  0  0  0  0  0  0  0  0  0  0
   38.2440   23.0340   40.5800 S   0  0  0  0  0  0  0  0  0  0  0  0
   39.5440   24.3250   40.0730 C   0  0  0  0  0  0  0  0  0  0  0  0
   40.7560   24.5020   39.7340 H   0  0  0  0  0  0  0  0  0  0  0  0
   38.9410   25.2960   40.1060 N   0  0  0  0  0  0  0  0  0  0  0  0
  1  9  1  0  0  0  0
  2  1  2  0  0  0  0
  2  3  1  0  0  0  0
  3  4  2  0  0  0  0
  4  5  1  0  0  0  0
  5 12  1  0  0  0  0
  5  6  1  0  0  0  0
  6 13  1  0  0  0  0
  7  6  2  0  0  0  0
  8  4  1  0  0  0  0
  8  7  1  0  0  0  0
  9  8  2  0  0  0  0
 10  1  1  0  0  0  0
 11  3  1  0  0  0  0
 14 20  1  0  0  0  0
 14 19  1  0  0  0  0
 15 14  2  0  0  0  0
 16 15  1  0  0  0  0
 16 17  2  0  0  0  0
 17 18  1  0  0  0  0
 18 19  2  0  0  0  0
 18  2  1  0  0  0  0
 21 16  1  0  0  0  0
 22 23  1  0  0  0  0
 22 15  1  0  0  0  0
 24 22  1  0  0  0  0
 25 22  1  0  0  0  0
 26  9  1  0  0  0  0
 26 27  2  0  0  0  0
 27 28  1  0  0  0  0
 29 27  1  0  0  0  0
 30 32  2  0  0  0  0
 30 29  1  0  0  0  0
 31 30  1  0  0  0  0
 32 26  1  0  0  0  0
M  END
>  <minimizedAffinity>
-5.35247231

$$$$

 OpenBabel03242513393D

 32 35  0  0  0  0  0  0  0  0999 V2000
   36.8630   26.9250   38.8650 C   0  0  0  0  0  0  0  0  0  0  0  0
   36.6620   28.2770   38.7980 C   0  0  0  0  0  0  0  0  0  0  0  0
   36.5590   28.9600   39.9760 C   0  0  0  0  0  0  0  0  0  0  0  0
   36.6480   28.3490   41.2110 C   0  0  0  0  0  0  0  0  0  0  0  0
   36.5910   28.7200   42.5150 N   0  0  0  0  0  0  0  0  0  0  0  0
   36.7480   27.6570   43.3230 C   0  0  0  0  0  0  0  0  0  0  0  0
   36.9040   26.6110   42.5010 N   0  0  0  0  0  0  0  0  0  0  0  0
   36.8490   26.9940   41.2150 C   0  0  0  0  0  0  0  0  0  0  0  0
   36.9620   26.2460   40.0840 C   0  0  0  0  0  0  0  0  0  0  0  0
   36.9530   26.3220   37.9700 H   0  0  0  0  0  0  0  0  0  0  0  0
   36.4010   30.0240   39.9560 H   0  0  0  0  0  0  0  0  0  0  0  0
   36.4410   29.7290   42.7640 H   0  0  0  0  0  0  0  0  0  0  0  0
   36.7440   27.6700   44.3960 H   0  0  0  0  0  0  0  0  0  0  0  0
   37.0160   30.7690   36.1440 C   0  0  0  0  0  0  0  0  0  0  0  0
   36.3600   30.1660   35.0720 C   0  0  0  0  0  0  0  0  0  0  0  0
   35.8070   28.9120   35.2840 C   0  0  0  0  0  0  0  0  0  0  0  0
   35.9230   28.3250   36.5050 N   0  0  0  0  0  0  0  0  0  0  0  0
   36.5650   28.9420   37.5150 C   0  0  0  0  0  0  0  0  0  0  0  0
   37.1130   30.1580   37.3470 N   0  0  0  0  0  0  0  0  0  0  0  0
   37.4850   31.7460   36.0970 H   0  0  0  0  0  0  0  0  0  0  0  0
   35.2990   28.4490   34.4480 H   0  0  0  0  0  0  0  0  0  0  0  0
   36.3070   30.9170   33.7920 C   0  0  0  0  0  0  0  0  0  0  0  0
   36.7810   30.0440   32.8210 F   0  0  0  0  0  0  0  0  0  0  0  0
   37.1160   32.0140   33.8950 F   0  0  0  0  0  0  0  0  0  0  0  0
   34.9840   31.2780   33.5580 F   0  0  0  0  0  0  0  0  0  0  0  0
   37.1790   24.7780   40.0820 C   0  0  0  0  0  0  0  0  0  0  0  0
   38.3880   24.2710   40.4490 C   0  0  0  0  0  0  0  0  0  0  0  0
   39.3400   24.6220   40.7760 H   0  0  0  0  0  0  0  0  0  0  0  0
   38.1830   22.4420   40.2900 S   0  0  0  0  0  0  0  0  0  0  0  0
   36.3900   22.7140   39.7210 C   0  0  0  0  0  0  0  0  0  0  0  0
   35.3210   22.1400   39.3440 H   0  0  0  0  0  0  0  0  0  0  0  0
   36.3020   23.8540   39.7490 N   0  0  0  0  0  0  0  0  0  0  0  0
  1  9  1  0  0  0  0
  2  1  2  0  0  0  0
  2  3  1  0  0  0  0
  3  4  2  0  0  0  0
  4  8  1  0  0  0  0
  4  5  1  0  0  0  0
  5 12  1  0  0  0  0
  5  6  1  0  0  0  0
  6 13  1  0  0  0  0
  7  6  2  0  0  0  0
  8  7  1  0  0  0  0
  9  8  2  0  0  0  0
 10  1  1  0  0  0  0
 11  3  1  0  0  0  0
 14 19  1  0  0  0  0
 15 16  1  0  0  0  0
 15 14  2  0  0  0  0
 16 17  2  0  0  0  0
 17 18  1  0  0  0  0
 18  2  1  0  0  0  0
 19 18  2  0  0  0  0
 20 14  1  0  0  0  0
 21 16  1  0  0  0  0
 22 24  1  0  0  0  0
 22 15  1  0  0  0  0
 23 22  1  0  0  0  0
 25 22  1  0  0  0  0
 26  9  1  0  0  0  0
 26 27  2  0  0  0  0
 27 28  1  0  0  0  0
 29 27  1  0  0  0  0
 30 32  2  0  0  0  0
 30 29  1  0  0  0  0
 31 30  1  0  0  0  0
 32 26  1  0  0  0  0
M  END
>  <minimizedAffinity>
-5.16721869

$$$$

 OpenBabel03242513393D

 32 35  0  0  0  0  0  0  0  0999 V2000
   36.1380   27.2450   39.2960 C   0  0  0  0  0  0  0  0  0  0  0  0
   35.4660   28.4370   39.2710 C   0  0  0  0  0  0  0  0  0  0  0  0
   35.6350   29.2800   40.3320 C   0  0  0  0  0  0  0  0  0  0  0  0
   36.4450   28.9820   41.4100 C   0  0  0  0  0  0  0  0  0  0  0  0
   36.8150   29.5720   42.5750 N   0  0  0  0  0  0  0  0  0  0  0  0
   37.6610   28.7850   43.2620 C   0  0  0  0  0  0  0  0  0  0  0  0
   37.8140   27.6890   42.5080 N   0  0  0  0  0  0  0  0  0  0  0  0
   37.0910   27.7740   41.3790 C   0  0  0  0  0  0  0  0  0  0  0  0
   36.9730   26.8830   40.3580 C   0  0  0  0  0  0  0  0  0  0  0  0
   36.0490   26.5300   38.4870 H   0  0  0  0  0  0  0  0  0  0  0  0
   35.1210   30.2250   40.3410 H   0  0  0  0  0  0  0  0  0  0  0  0
   36.4400   30.5210   42.8200 H   0  0  0  0  0  0  0  0  0  0  0  0
   38.1040   29.0100   44.2130 H   0  0  0  0  0  0  0  0  0  0  0  0
   34.3240   29.1970   35.8800 C   0  0  0  0  0  0  0  0  0  0  0  0
   32.9600   29.4160   36.0610 C   0  0  0  0  0  0  0  0  0  0  0  0
   32.4580   29.2980   37.3480 C   0  0  0  0  0  0  0  0  0  0  0  0
   33.2990   28.9780   38.3690 N   0  0  0  0  0  0  0  0  0  0  0  0
   34.6110   28.7750   38.1520 C   0  0  0  0  0  0  0  0  0  0  0  0
   35.1330   28.8810   36.9170 N   0  0  0  0  0  0  0  0  0  0  0  0
   34.8270   29.2620   34.9210 H   0  0  0  0  0  0  0  0  0  0  0  0
   31.3990   29.4690   37.4830 H   0  0  0  0  0  0  0  0  0  0  0  0
   32.1550   29.7570   34.8600 C   0  0  0  0  0  0  0  0  0  0  0  0
   32.0150   28.5730   34.1490 F   0  0  0  0  0  0  0  0  0  0  0  0
   32.8390   30.6860   34.1270 F   0  0  0  0  0  0  0  0  0  0  0  0
   30.9270   30.2490   35.2900 F   0  0  0  0  0  0  0  0  0  0  0  0
   37.6700   25.5730   40.3180 C   0  0  0  0  0  0  0  0  0  0  0  0
   38.8090   25.4330   39.5860 C   0  0  0  0  0  0  0  0  0  0  0  0
   39.4370   26.0240   38.9590 H   0  0  0  0  0  0  0  0  0  0  0  0
   39.3000   23.6700   39.8370 S   0  0  0  0  0  0  0  0  0  0  0  0
   37.7820   23.4300   40.9560 C   0  0  0  0  0  0  0  0  0  0  0  0
   37.1400   22.6000   41.6720 H   0  0  0  0  0  0  0  0  0  0  0  0
   37.3040   24.4690   40.9360 N   0  0  0  0  0  0  0  0  0  0  0  0
  1  9  1  0  0  0  0
  2  1  2  0  0  0  0
  2  3  1  0  0  0  0
  3 11  1  0  0  0  0
  3  4  2  0  0  0  0
  4  5  1  0  0  0  0
  5 12  1  0  0  0  0
  5  6  1  0  0  0  0
  6 13  1  0  0  0  0
  7  6  2  0  0  0  0
  8  4  1  0  0  0  0
  8  7  1  0  0  0  0
  9  8  2  0  0  0  0
 10  1  1  0  0  0  0
 14 15  2  0  0  0  0
 14 19  1  0  0  0  0
 15 16  1  0  0  0  0
 16 21  1  0  0  0  0
 16 17  2  0  0  0  0
 18 17  1  0  0  0  0
 18  2  1  0  0  0  0
 19 18  2  0  0  0  0
 20 14  1  0  0  0  0
 22 25  1  0  0  0  0
 22 15  1  0  0  0  0
 23 22  1  0  0  0  0
 24 22  1  0  0  0  0
 26  9  1  0  0  0  0
 26 32  1  0  0  0  0
 27 29  1  0  0  0  0
 27 26  2  0  0  0  0
 28 27  1  0  0  0  0
 29 30  1  0  0  0  0
 30 31  1  0  0  0  0
 32 30  2  0  0  0  0
M  END
>  <minimizedAffinity>
-5.16555595

$$$$

 OpenBabel03242513393D

 32 35  0  0  0  0  0  0  0  0999 V2000
   33.5410   29.0330   38.0610 C   0  0  0  0  0  0  0  0  0  0  0  0
   34.6020   28.1750   38.1590 C   0  0  0  0  0  0  0  0  0  0  0  0
   34.8320   27.3300   37.1110 C   0  0  0  0  0  0  0  0  0  0  0  0
   34.0480   27.3100   35.9740 C   0  0  0  0  0  0  0  0  0  0  0  0
   34.0040   26.6260   34.8030 N   0  0  0  0  0  0  0  0  0  0  0  0
   32.9790   27.0450   34.0410 C   0  0  0  0  0  0  0  0  0  0  0  0
   32.3780   28.0050   34.7570 N   0  0  0  0  0  0  0  0  0  0  0  0
   32.9990   28.1910   35.9340 C   0  0  0  0  0  0  0  0  0  0  0  0
   32.7080   29.0620   36.9380 C   0  0  0  0  0  0  0  0  0  0  0  0
   33.3020   29.7280   38.8560 H   0  0  0  0  0  0  0  0  0  0  0  0
   35.6590   26.6440   37.1580 H   0  0  0  0  0  0  0  0  0  0  0  0
   34.7210   25.8850   34.6050 H   0  0  0  0  0  0  0  0  0  0  0  0
   32.7170   26.6730   33.0700 H   0  0  0  0  0  0  0  0  0  0  0  0
   36.9860   27.1200   40.7260 C   0  0  0  0  0  0  0  0  0  0  0  0
   37.0130   28.2180   41.5830 C   0  0  0  0  0  0  0  0  0  0  0  0
   36.2100   29.3020   41.2620 C   0  0  0  0  0  0  0  0  0  0  0  0
   35.4390   29.2570   40.1420 N   0  0  0  0  0  0  0  0  0  0  0  0
   35.4410   28.1760   39.3400 C   0  0  0  0  0  0  0  0  0  0  0  0
   36.2070   27.1070   39.6200 N   0  0  0  0  0  0  0  0  0  0  0  0
   37.5700   26.2180   40.8750 H   0  0  0  0  0  0  0  0  0  0  0  0
   36.2360   30.1510   41.9310 H   0  0  0  0  0  0  0  0  0  0  0  0
   37.9010   28.1370   42.7720 C   0  0  0  0  0  0  0  0  0  0  0  0
   37.7330   26.8580   43.2840 F   0  0  0  0  0  0  0  0  0  0  0  0
   37.5030   29.0800   43.6790 F   0  0  0  0  0  0  0  0  0  0  0  0
   39.2080   28.3550   42.3490 F   0  0  0  0  0  0  0  0  0  0  0  0
   31.5740   30.0180   36.9000 C   0  0  0  0  0  0  0  0  0  0  0  0
   30.6660   30.0340   37.9130 C   0  0  0  0  0  0  0  0  0  0  0  0
   30.4800   29.5260   38.8320 H   0  0  0  0  0  0  0  0  0  0  0  0
   29.4700   31.3570   37.4350 S   0  0  0  0  0  0  0  0  0  0  0  0
   30.4780   31.6670   35.8540 C   0  0  0  0  0  0  0  0  0  0  0  0
   30.5610   32.3620   34.7930 H   0  0  0  0  0  0  0  0  0  0  0  0
   31.3220   30.9020   35.9560 N   0  0  0  0  0  0  0  0  0  0  0  0
  1  2  1  0  0  0  0
  1 10  1  0  0  0  0
  2 18  1  0  0  0  0
  3 11  1  0  0  0  0
  3  2  2  0  0  0  0
  4  3  1  0  0  0  0
  5  4  1  0  0  0  0
  6  7  2  0  0  0  0
  6  5  1  0  0  0  0
  7  8  1  0  0  0  0
  8  4  2  0  0  0  0
  8  9  1  0  0  0  0
  9  1  2  0  0  0  0
 12  5  1  0  0  0  0
 13  6  1  0  0  0  0
 14 20  1  0  0  0  0
 14 15  1  0  0  0  0
 15 22  1  0  0  0  0
 16 15  2  0  0  0  0
 16 21  1  0  0  0  0
 17 16  1  0  0  0  0
 18 19  1  0  0  0  0
 18 17  2  0  0  0  0
 19 14  2  0  0  0  0
 22 23  1  0  0  0  0
 22 24  1  0  0  0  0
 25 22  1  0  0  0  0
 26  9  1  0  0  0  0
 26 27  2  0  0  0  0
 27 28  1  0  0  0  0
 29 27  1  0  0  0  0
 30 32  2  0  0  0  0
 30 29  1  0  0  0  0
 31 30  1  0  0  0  0
 32 26  1  0  0  0  0
M  END
>  <minimizedAffinity>
-5.05957794

$$$$

 OpenBabel03242513393D

 32 35  0  0  0  0  0  0  0  0999 V2000
   40.6810   31.3550   39.7780 C   0  0  0  0  0  0  0  0  0  0  0  0
   39.8300   31.5490   38.7240 C   0  0  0  0  0  0  0  0  0  0  0  0
   40.2450   32.3750   37.7190 C   0  0  0  0  0  0  0  0  0  0  0  0
   41.4710   33.0120   37.7250 C   0  0  0  0  0  0  0  0  0  0  0  0
   42.1600   33.8600   36.9210 N   0  0  0  0  0  0  0  0  0  0  0  0
   43.3560   34.1610   37.4550 C   0  0  0  0  0  0  0  0  0  0  0  0
   43.4050   33.4860   38.6110 N   0  0  0  0  0  0  0  0  0  0  0  0
   42.2790   32.7800   38.8070 C   0  0  0  0  0  0  0  0  0  0  0  0
   41.9360   31.9700   39.8440 C   0  0  0  0  0  0  0  0  0  0  0  0
   40.4150   30.7130   40.6080 H   0  0  0  0  0  0  0  0  0  0  0  0
   39.5980   32.5470   36.8770 H   0  0  0  0  0  0  0  0  0  0  0  0
   41.7330   34.1840   36.0180 H   0  0  0  0  0  0  0  0  0  0  0  0
   44.0960   34.8090   37.0270 H   0  0  0  0  0  0  0  0  0  0  0  0
   36.8240   29.8560   37.5060 C   0  0  0  0  0  0  0  0  0  0  0  0
   36.0940   29.6560   38.6760 C   0  0  0  0  0  0  0  0  0  0  0  0
   36.6500   30.1080   39.8630 C   0  0  0  0  0  0  0  0  0  0  0  0
   37.8650   30.7190   39.8450 N   0  0  0  0  0  0  0  0  0  0  0  0
   38.5390   30.8930   38.6920 C   0  0  0  0  0  0  0  0  0  0  0  0
   38.0300   30.4680   37.5220 N   0  0  0  0  0  0  0  0  0  0  0  0
   36.4900   29.5470   36.5210 H   0  0  0  0  0  0  0  0  0  0  0  0
   36.0780   29.9500   40.7670 H   0  0  0  0  0  0  0  0  0  0  0  0
   34.7790   28.9750   38.5550 C   0  0  0  0  0  0  0  0  0  0  0  0
   34.0910   29.2700   39.7240 F   0  0  0  0  0  0  0  0  0  0  0  0
   34.9950   27.6290   38.4450 F   0  0  0  0  0  0  0  0  0  0  0  0
   34.1320   29.4830   37.4330 F   0  0  0  0  0  0  0  0  0  0  0  0
   42.8070   31.7150   41.0180 C   0  0  0  0  0  0  0  0  0  0  0  0
   43.4390   30.5170   41.1460 C   0  0  0  0  0  0  0  0  0  0  0  0
   43.5250   29.5940   40.6180 H   0  0  0  0  0  0  0  0  0  0  0  0
   44.3850   30.6650   42.7260 S   0  0  0  0  0  0  0  0  0  0  0  0
   43.7100   32.4290   42.9380 C   0  0  0  0  0  0  0  0  0  0  0  0
   43.7120   33.4600   43.6820 H   0  0  0  0  0  0  0  0  0  0  0  0
   43.0570   32.5480   42.0070 N   0  0  0  0  0  0  0  0  0  0  0  0
  1  9  1  0  0  0  0
  1 10  1  0  0  0  0
  2  1  2  0  0  0  0
  3  4  2  0  0  0  0
  3  2  1  0  0  0  0
  4  8  1  0  0  0  0
  5  6  1  0  0  0  0
  5  4  1  0  0  0  0
  6  7  2  0  0  0  0
  7  8  1  0  0  0  0
  8  9  2  0  0  0  0
  9 26  1  0  0  0  0
 11  3  1  0  0  0  0
 12  5  1  0  0  0  0
 13  6  1  0  0  0  0
 14 19  2  0  0  0  0
 14 15  1  0  0  0  0
 15 16  2  0  0  0  0
 16 21  1  0  0  0  0
 17 16  1  0  0  0  0
 18  2  1  0  0  0  0
 18 17  2  0  0  0  0
 19 18  1  0  0  0  0
 20 14  1  0  0  0  0
 22 15  1  0  0  0  0
 22 23  1  0  0  0  0
 24 22  1  0  0  0  0
 25 22  1  0  0  0  0
 26 27  2  0  0  0  0
 26 32  1  0  0  0  0
 27 29  1  0  0  0  0
 28 27  1  0  0  0  0
 29 30  1  0  0  0  0
 30 31  1  0  0  0  0
 32 30  2  0  0  0  0
M  END
>  <minimizedAffinity>
-4.96353388

$$$$
