
 OpenBabel03252508573D

 22 23  0  0  0  0  0  0  0  0999 V2000
   36.7450   27.4890   42.9320 C   0  0  0  0  0  0  0  0  0  0  0  0
   36.2300   27.7970   41.9980 H   0  0  0  0  0  0  0  0  0  0  0  0
   35.9940   27.2020   43.6650 H   0  0  0  0  0  0  0  0  0  0  0  0
   37.8160   24.0590   41.7970 C   0  0  0  0  0  0  0  0  0  0  0  0
   36.9880   25.1740   42.0900 C   0  0  0  0  0  0  0  0  0  0  0  0
   37.5900   26.3080   42.6160 C   0  0  0  0  0  0  0  0  0  0  0  0
   38.9280   26.2830   42.8200 N   0  0  0  0  0  0  0  0  0  0  0  0
   39.7000   25.2090   42.5330 C   0  0  0  0  0  0  0  0  0  0  0  0
   39.1390   24.1150   42.0280 N   0  0  0  0  0  0  0  0  0  0  0  0
   37.2380   23.2380   41.3930 H   0  0  0  0  0  0  0  0  0  0  0  0
   35.9200   25.1910   41.9260 H   0  0  0  0  0  0  0  0  0  0  0  0
   40.7690   25.2050   42.7020 H   0  0  0  0  0  0  0  0  0  0  0  0
   37.6300   28.6210   43.3840 C   0  0  0  0  0  0  0  0  0  0  0  0
   37.2240   29.0130   44.3410 H   0  0  0  0  0  0  0  0  0  0  0  0
   38.6440   28.2720   43.6030 H   0  0  0  0  0  0  0  0  0  0  0  0
   37.6520   29.6740   42.3110 C   0  0  0  0  0  0  0  0  0  0  0  0
   38.8430   30.3720   41.8690 C   0  0  0  0  0  0  0  0  0  0  0  0
   39.8090   30.1680   42.2990 H   0  0  0  0  0  0  0  0  0  0  0  0
   38.2080   31.4650   40.6040 S   0  0  0  0  0  0  0  0  0  0  0  0
   36.4340   30.8210   40.8580 C   0  0  0  0  0  0  0  0  0  0  0  0
   35.5050   31.1630   40.2940 H   0  0  0  0  0  0  0  0  0  0  0  0
   36.5530   30.0420   41.6820 N   0  0  0  0  0  0  0  0  0  0  0  0
  1 13  1  0  0  0  0
  1  3  1  0  0  0  0
  2  1  1  0  0  0  0
  4  9  2  0  0  0  0
  4  5  1  0  0  0  0
  5  6  2  0  0  0  0
  6  7  1  0  0  0  0
  6  1  1  0  0  0  0
  8 12  1  0  0  0  0
  8  7  2  0  0  0  0
  9  8  1  0  0  0  0
 10  4  1  0  0  0  0
 11  5  1  0  0  0  0
 13 15  1  0  0  0  0
 13 14  1  0  0  0  0
 16 13  1  0  0  0  0
 17 18  1  0  0  0  0
 17 16  2  0  0  0  0
 19 20  1  0  0  0  0
 19 17  1  0  0  0  0
 20 22  2  0  0  0  0
 21 20  1  0  0  0  0
 22 16  1  0  0  0  0
M  END
>  <minimizedAffinity>
-3.91282511

$$$$

 OpenBabel03252508573D

 22 23  0  0  0  0  0  0  0  0999 V2000
   37.6890   28.3860   43.5740 C   0  0  0  0  0  0  0  0  0  0  0  0
   36.6670   28.4790   43.1510 H   0  0  0  0  0  0  0  0  0  0  0  0
   37.6270   28.4770   44.6570 H   0  0  0  0  0  0  0  0  0  0  0  0
   39.9300   25.3650   43.3380 C   0  0  0  0  0  0  0  0  0  0  0  0
   39.4610   26.6610   43.6800 C   0  0  0  0  0  0  0  0  0  0  0  0
   38.2030   27.0350   43.2300 C   0  0  0  0  0  0  0  0  0  0  0  0
   37.4990   26.1440   42.4920 N   0  0  0  0  0  0  0  0  0  0  0  0
   37.9650   24.9130   42.1770 C   0  0  0  0  0  0  0  0  0  0  0  0
   39.1680   24.5390   42.6020 N   0  0  0  0  0  0  0  0  0  0  0  0
   40.9180   25.1870   43.7430 H   0  0  0  0  0  0  0  0  0  0  0  0
   40.0250   27.3700   44.2680 H   0  0  0  0  0  0  0  0  0  0  0  0
   37.3890   24.2120   41.5870 H   0  0  0  0  0  0  0  0  0  0  0  0
   38.5670   29.4270   42.9300 C   0  0  0  0  0  0  0  0  0  0  0  0
   38.8590   30.1610   43.7110 H   0  0  0  0  0  0  0  0  0  0  0  0
   39.5000   28.9890   42.5600 H   0  0  0  0  0  0  0  0  0  0  0  0
   37.8040   30.0740   41.8070 C   0  0  0  0  0  0  0  0  0  0  0  0
   38.3170   31.1450   40.9760 C   0  0  0  0  0  0  0  0  0  0  0  0
   39.3040   31.5500   41.1210 H   0  0  0  0  0  0  0  0  0  0  0  0
   36.9540   31.4590   39.8600 S   0  0  0  0  0  0  0  0  0  0  0  0
   35.8980   30.1020   40.6790 C   0  0  0  0  0  0  0  0  0  0  0  0
   34.8390   29.8010   40.3840 H   0  0  0  0  0  0  0  0  0  0  0  0
   36.5790   29.6970   41.4980 N   0  0  0  0  0  0  0  0  0  0  0  0
  1  3  1  0  0  0  0
  2  1  1  0  0  0  0
  4  5  1  0  0  0  0
  4 10  1  0  0  0  0
  5 11  1  0  0  0  0
  6  1  1  0  0  0  0
  6  5  2  0  0  0  0
  7  6  1  0  0  0  0
  8  7  2  0  0  0  0
  8  9  1  0  0  0  0
  9  4  2  0  0  0  0
 12  8  1  0  0  0  0
 13  1  1  0  0  0  0
 13 14  1  0  0  0  0
 15 13  1  0  0  0  0
 16 13  1  0  0  0  0
 17 18  1  0  0  0  0
 17 16  2  0  0  0  0
 19 20  1  0  0  0  0
 19 17  1  0  0  0  0
 20 22  2  0  0  0  0
 21 20  1  0  0  0  0
 22 16  1  0  0  0  0
M  END
>  <minimizedAffinity>
-3.90971541

$$$$

 OpenBabel03252508573D

 22 23  0  0  0  0  0  0  0  0999 V2000
   37.6480   28.5430   43.3940 C   0  0  0  0  0  0  0  0  0  0  0  0
   38.6630   28.1120   43.5200 H   0  0  0  0  0  0  0  0  0  0  0  0
   37.3200   28.9440   44.3520 H   0  0  0  0  0  0  0  0  0  0  0  0
   39.0280   31.3340   41.2730 C   0  0  0  0  0  0  0  0  0  0  0  0
   38.9640   30.2770   42.2180 C   0  0  0  0  0  0  0  0  0  0  0  0
   37.7410   29.6520   42.4110 C   0  0  0  0  0  0  0  0  0  0  0  0
   36.6820   30.0860   41.6860 N   0  0  0  0  0  0  0  0  0  0  0  0
   36.7640   31.0960   40.7890 C   0  0  0  0  0  0  0  0  0  0  0  0
   37.9290   31.7050   40.5930 N   0  0  0  0  0  0  0  0  0  0  0  0
   40.0280   31.7430   41.2100 H   0  0  0  0  0  0  0  0  0  0  0  0
   39.8100   29.9330   42.7950 H   0  0  0  0  0  0  0  0  0  0  0  0
   35.9080   31.4310   40.2180 H   0  0  0  0  0  0  0  0  0  0  0  0
   36.7410   27.4710   42.8460 C   0  0  0  0  0  0  0  0  0  0  0  0
   35.9410   27.2830   43.5930 H   0  0  0  0  0  0  0  0  0  0  0  0
   36.2350   27.8060   41.9350 H   0  0  0  0  0  0  0  0  0  0  0  0
   37.5590   26.2390   42.5770 C   0  0  0  0  0  0  0  0  0  0  0  0
   38.9860   26.1340   42.8080 C   0  0  0  0  0  0  0  0  0  0  0  0
   39.5570   26.9600   43.1990 H   0  0  0  0  0  0  0  0  0  0  0  0
   39.3420   24.4560   42.2990 S   0  0  0  0  0  0  0  0  0  0  0  0
   37.5170   24.1470   41.8500 C   0  0  0  0  0  0  0  0  0  0  0  0
   37.0790   23.1800   41.4360 H   0  0  0  0  0  0  0  0  0  0  0  0
   37.0140   25.1390   42.0970 N   0  0  0  0  0  0  0  0  0  0  0  0
  1  2  1  0  0  0  0
  1  3  1  0  0  0  0
  4  5  1  0  0  0  0
  5  6  2  0  0  0  0
  5 11  1  0  0  0  0
  6  1  1  0  0  0  0
  7  6  1  0  0  0  0
  8  7  2  0  0  0  0
  9  8  1  0  0  0  0
  9  4  2  0  0  0  0
 10  4  1  0  0  0  0
 12  8  1  0  0  0  0
 13  1  1  0  0  0  0
 13 14  1  0  0  0  0
 15 13  1  0  0  0  0
 16 17  2  0  0  0  0
 16 13  1  0  0  0  0
 17 18  1  0  0  0  0
 19 17  1  0  0  0  0
 20 22  2  0  0  0  0
 20 19  1  0  0  0  0
 21 20  1  0  0  0  0
 22 16  1  0  0  0  0
M  END
>  <minimizedAffinity>
-3.87308669

$$$$

 OpenBabel03252508573D

 22 23  0  0  0  0  0  0  0  0999 V2000
   39.0380   29.1080   42.9040 C   0  0  0  0  0  0  0  0  0  0  0  0
   39.7650   28.5550   42.2740 H   0  0  0  0  0  0  0  0  0  0  0  0
   39.5870   29.6580   43.6670 H   0  0  0  0  0  0  0  0  0  0  0  0
   36.3140   30.8050   40.9310 C   0  0  0  0  0  0  0  0  0  0  0  0
   36.9760   29.8690   41.7670 C   0  0  0  0  0  0  0  0  0  0  0  0
   38.3220   30.0740   42.0320 C   0  0  0  0  0  0  0  0  0  0  0  0
   38.9230   31.1540   41.4790 N   0  0  0  0  0  0  0  0  0  0  0  0
   38.2730   32.0360   40.6840 C   0  0  0  0  0  0  0  0  0  0  0  0
   36.9830   31.8530   40.4210 N   0  0  0  0  0  0  0  0  0  0  0  0
   35.2720   30.5420   40.7960 H   0  0  0  0  0  0  0  0  0  0  0  0
   36.4940   29.0080   42.2060 H   0  0  0  0  0  0  0  0  0  0  0  0
   38.7680   32.8950   40.2500 H   0  0  0  0  0  0  0  0  0  0  0  0
   38.0480   28.1220   43.4660 C   0  0  0  0  0  0  0  0  0  0  0  0
   38.0170   28.2570   44.5680 H   0  0  0  0  0  0  0  0  0  0  0  0
   37.0350   28.3250   43.1060 H   0  0  0  0  0  0  0  0  0  0  0  0
   38.4800   26.7330   43.0820 C   0  0  0  0  0  0  0  0  0  0  0  0
   37.7870   25.8940   42.1250 C   0  0  0  0  0  0  0  0  0  0  0  0
   36.8960   26.2290   41.6200 H   0  0  0  0  0  0  0  0  0  0  0  0
   38.7820   24.4070   42.1180 S   0  0  0  0  0  0  0  0  0  0  0  0
   39.9820   25.1380   43.4050 C   0  0  0  0  0  0  0  0  0  0  0  0
   40.9010   24.6220   43.8380 H   0  0  0  0  0  0  0  0  0  0  0  0
   39.5510   26.1730   43.6070 N   0  0  0  0  0  0  0  0  0  0  0  0
  1 13  1  0  0  0  0
  1  3  1  0  0  0  0
  2  1  1  0  0  0  0
  4  5  1  0  0  0  0
  5  6  2  0  0  0  0
  5 11  1  0  0  0  0
  6  1  1  0  0  0  0
  7  6  1  0  0  0  0
  8  7  2  0  0  0  0
  9  8  1  0  0  0  0
  9  4  2  0  0  0  0
 10  4  1  0  0  0  0
 12  8  1  0  0  0  0
 13 14  1  0  0  0  0
 15 13  1  0  0  0  0
 16 13  1  0  0  0  0
 16 22  1  0  0  0  0
 17 16  2  0  0  0  0
 18 17  1  0  0  0  0
 19 17  1  0  0  0  0
 19 20  1  0  0  0  0
 20 22  2  0  0  0  0
 20 21  1  0  0  0  0
M  END
>  <minimizedAffinity>
-3.79972291

$$$$

 OpenBabel03252508573D

 22 23  0  0  0  0  0  0  0  0999 V2000
   35.3710   29.1190   40.3380 C   0  0  0  0  0  0  0  0  0  0  0  0
   35.1050   29.2870   41.4030 H   0  0  0  0  0  0  0  0  0  0  0  0
   34.4540   29.0810   39.7530 H   0  0  0  0  0  0  0  0  0  0  0  0
   37.3490   31.4580   38.1440 C   0  0  0  0  0  0  0  0  0  0  0  0
   36.5690   30.3450   38.5530 C   0  0  0  0  0  0  0  0  0  0  0  0
   36.1880   30.2740   39.8850 C   0  0  0  0  0  0  0  0  0  0  0  0
   36.5840   31.2680   40.7150 N   0  0  0  0  0  0  0  0  0  0  0  0
   37.3280   32.3210   40.3050 C   0  0  0  0  0  0  0  0  0  0  0  0
   37.7000   32.4050   39.0310 N   0  0  0  0  0  0  0  0  0  0  0  0
   37.5840   31.4050   37.0890 H   0  0  0  0  0  0  0  0  0  0  0  0
   36.2550   29.5530   37.8890 H   0  0  0  0  0  0  0  0  0  0  0  0
   37.6360   33.1080   40.9810 H   0  0  0  0  0  0  0  0  0  0  0  0
   36.1980   27.8630   40.2480 C   0  0  0  0  0  0  0  0  0  0  0  0
   35.5030   26.9990   40.1730 H   0  0  0  0  0  0  0  0  0  0  0  0
   36.8010   27.8480   39.3340 H   0  0  0  0  0  0  0  0  0  0  0  0
   37.0760   27.7740   41.4650 C   0  0  0  0  0  0  0  0  0  0  0  0
   38.5180   27.6290   41.4290 C   0  0  0  0  0  0  0  0  0  0  0  0
   39.0560   27.5740   40.4980 H   0  0  0  0  0  0  0  0  0  0  0  0
   38.9490   27.5850   43.1640 S   0  0  0  0  0  0  0  0  0  0  0  0
   37.1240   27.7690   43.6800 C   0  0  0  0  0  0  0  0  0  0  0  0
   36.7260   27.8100   44.7460 H   0  0  0  0  0  0  0  0  0  0  0  0
   36.5740   27.8250   42.6830 N   0  0  0  0  0  0  0  0  0  0  0  0
  1  2  1  0  0  0  0
  3  1  1  0  0  0  0
  4  5  2  0  0  0  0
  4  9  1  0  0  0  0
  5  6  1  0  0  0  0
  6  1  1  0  0  0  0
  6  7  2  0  0  0  0
  8  7  1  0  0  0  0
  8 12  1  0  0  0  0
  9  8  2  0  0  0  0
 10  4  1  0  0  0  0
 11  5  1  0  0  0  0
 13  1  1  0  0  0  0
 13 16  1  0  0  0  0
 14 13  1  0  0  0  0
 15 13  1  0  0  0  0
 16 22  1  0  0  0  0
 17 16  2  0  0  0  0
 17 19  1  0  0  0  0
 18 17  1  0  0  0  0
 19 20  1  0  0  0  0
 20 21  1  0  0  0  0
 22 20  2  0  0  0  0
M  END
>  <minimizedAffinity>
-3.77167654

$$$$

 OpenBabel03252508573D

 22 23  0  0  0  0  0  0  0  0999 V2000
   36.7950   27.5210   42.6290 C   0  0  0  0  0  0  0  0  0  0  0  0
   35.8130   27.4320   43.1370 H   0  0  0  0  0  0  0  0  0  0  0  0
   36.9370   26.6490   41.9940 H   0  0  0  0  0  0  0  0  0  0  0  0
   35.7390   30.0400   40.0330 C   0  0  0  0  0  0  0  0  0  0  0  0
   35.7530   28.8680   40.8330 C   0  0  0  0  0  0  0  0  0  0  0  0
   36.7590   28.7390   41.7780 C   0  0  0  0  0  0  0  0  0  0  0  0
   37.6690   29.7370   41.8810 N   0  0  0  0  0  0  0  0  0  0  0  0
   37.6390   30.8470   41.1080 C   0  0  0  0  0  0  0  0  0  0  0  0
   36.6800   30.9860   40.1980 N   0  0  0  0  0  0  0  0  0  0  0  0
   34.9120   30.0290   39.3350 H   0  0  0  0  0  0  0  0  0  0  0  0
   35.0250   28.0730   40.7490 H   0  0  0  0  0  0  0  0  0  0  0  0
   38.3730   31.6360   41.2030 H   0  0  0  0  0  0  0  0  0  0  0  0
   37.8620   27.6840   43.6800 C   0  0  0  0  0  0  0  0  0  0  0  0
   38.1910   28.7450   43.6740 H   0  0  0  0  0  0  0  0  0  0  0  0
   37.4660   27.4920   44.6820 H   0  0  0  0  0  0  0  0  0  0  0  0
   38.9940   26.7430   43.3680 C   0  0  0  0  0  0  0  0  0  0  0  0
   40.3850   27.0010   43.6800 C   0  0  0  0  0  0  0  0  0  0  0  0
   40.6960   27.9090   44.1680 H   0  0  0  0  0  0  0  0  0  0  0  0
   41.2010   25.5320   43.0650 S   0  0  0  0  0  0  0  0  0  0  0  0
   39.5470   24.7910   42.4790 C   0  0  0  0  0  0  0  0  0  0  0  0
   39.4030   23.7840   41.9650 H   0  0  0  0  0  0  0  0  0  0  0  0
   38.7850   25.5860   42.7700 N   0  0  0  0  0  0  0  0  0  0  0  0
  1  2  1  0  0  0  0
  1 13  1  0  0  0  0
  3  1  1  0  0  0  0
  4  9  2  0  0  0  0
  4  5  1  0  0  0  0
  5  6  2  0  0  0  0
  6  7  1  0  0  0  0
  6  1  1  0  0  0  0
  8 12  1  0  0  0  0
  8  7  2  0  0  0  0
  9  8  1  0  0  0  0
 10  4  1  0  0  0  0
 11  5  1  0  0  0  0
 13 15  1  0  0  0  0
 14 13  1  0  0  0  0
 16 17  2  0  0  0  0
 16 13  1  0  0  0  0
 17 18  1  0  0  0  0
 19 17  1  0  0  0  0
 20 22  2  0  0  0  0
 20 19  1  0  0  0  0
 21 20  1  0  0  0  0
 22 16  1  0  0  0  0
M  END
>  <minimizedAffinity>
-3.74491119

$$$$

 OpenBabel03252508573D

 22 23  0  0  0  0  0  0  0  0999 V2000
   36.8120   30.9520   39.6260 C   0  0  0  0  0  0  0  0  0  0  0  0
   36.0170   31.3090   38.9390 H   0  0  0  0  0  0  0  0  0  0  0  0
   37.2220   30.0250   39.2310 H   0  0  0  0  0  0  0  0  0  0  0  0
   40.1390   32.6650   39.1800 C   0  0  0  0  0  0  0  0  0  0  0  0
   39.1320   31.6660   39.1400 C   0  0  0  0  0  0  0  0  0  0  0  0
   37.8840   31.9810   39.6560 C   0  0  0  0  0  0  0  0  0  0  0  0
   37.7000   33.2220   40.1670 N   0  0  0  0  0  0  0  0  0  0  0  0
   38.6740   34.1610   40.1960 C   0  0  0  0  0  0  0  0  0  0  0  0
   39.8760   33.8740   39.7040 N   0  0  0  0  0  0  0  0  0  0  0  0
   41.0650   32.3050   38.7510 H   0  0  0  0  0  0  0  0  0  0  0  0
   39.2810   30.6770   38.7320 H   0  0  0  0  0  0  0  0  0  0  0  0
   38.5110   35.1480   40.6070 H   0  0  0  0  0  0  0  0  0  0  0  0
   36.2230   30.8130   41.0050 C   0  0  0  0  0  0  0  0  0  0  0  0
   36.4480   31.7420   41.5710 H   0  0  0  0  0  0  0  0  0  0  0  0
   35.1310   30.7370   40.9660 H   0  0  0  0  0  0  0  0  0  0  0  0
   36.8150   29.5970   41.6620 C   0  0  0  0  0  0  0  0  0  0  0  0
   36.3590   28.2390   41.4400 C   0  0  0  0  0  0  0  0  0  0  0  0
   35.5450   28.0200   40.7700 H   0  0  0  0  0  0  0  0  0  0  0  0
   37.4490   27.2850   42.4900 S   0  0  0  0  0  0  0  0  0  0  0  0
   38.3550   28.8560   43.0720 C   0  0  0  0  0  0  0  0  0  0  0  0
   39.2230   28.9000   43.8090 H   0  0  0  0  0  0  0  0  0  0  0  0
   37.8200   29.6910   42.5100 N   0  0  0  0  0  0  0  0  0  0  0  0
  1  6  1  0  0  0  0
  1 13  1  0  0  0  0
  2  1  1  0  0  0  0
  3  1  1  0  0  0  0
  4  9  1  0  0  0  0
  5  4  2  0  0  0  0
  5  6  1  0  0  0  0
  6  7  2  0  0  0  0
  7  8  1  0  0  0  0
  8 12  1  0  0  0  0
  9  8  2  0  0  0  0
 10  4  1  0  0  0  0
 11  5  1  0  0  0  0
 13 14  1  0  0  0  0
 13 16  1  0  0  0  0
 15 13  1  0  0  0  0
 16 22  1  0  0  0  0
 17 16  2  0  0  0  0
 17 19  1  0  0  0  0
 18 17  1  0  0  0  0
 19 20  1  0  0  0  0
 20 21  1  0  0  0  0
 22 20  2  0  0  0  0
M  END
>  <minimizedAffinity>
-3.69611239

$$$$

 OpenBabel03252508573D

 22 23  0  0  0  0  0  0  0  0999 V2000
   36.0780   30.0040   40.4080 C   0  0  0  0  0  0  0  0  0  0  0  0
   35.2620   29.4580   39.8900 H   0  0  0  0  0  0  0  0  0  0  0  0
   35.6520   30.8710   40.9090 H   0  0  0  0  0  0  0  0  0  0  0  0
   37.0760   26.8740   42.2540 C   0  0  0  0  0  0  0  0  0  0  0  0
   36.5110   27.7240   41.2670 C   0  0  0  0  0  0  0  0  0  0  0  0
   36.6610   29.0930   41.4270 C   0  0  0  0  0  0  0  0  0  0  0  0
   37.3370   29.5380   42.5120 N   0  0  0  0  0  0  0  0  0  0  0  0
   37.8700   28.7110   43.4420 C   0  0  0  0  0  0  0  0  0  0  0  0
   37.7340   27.3960   43.3030 N   0  0  0  0  0  0  0  0  0  0  0  0
   36.8960   25.8320   42.0230 H   0  0  0  0  0  0  0  0  0  0  0  0
   35.9710   27.3660   40.4020 H   0  0  0  0  0  0  0  0  0  0  0  0
   38.4080   29.0820   44.3040 H   0  0  0  0  0  0  0  0  0  0  0  0
   37.1370   30.3530   39.3940 C   0  0  0  0  0  0  0  0  0  0  0  0
   37.9220   29.5680   39.4340 H   0  0  0  0  0  0  0  0  0  0  0  0
   36.7350   30.3300   38.3760 H   0  0  0  0  0  0  0  0  0  0  0  0
   37.6850   31.7150   39.7180 C   0  0  0  0  0  0  0  0  0  0  0  0
   38.9080   31.9530   40.4590 C   0  0  0  0  0  0  0  0  0  0  0  0
   39.5100   31.1410   40.8300 H   0  0  0  0  0  0  0  0  0  0  0  0
   38.9960   33.7390   40.5020 S   0  0  0  0  0  0  0  0  0  0  0  0
   37.3740   33.8990   39.5160 C   0  0  0  0  0  0  0  0  0  0  0  0
   36.8680   34.8710   39.2030 H   0  0  0  0  0  0  0  0  0  0  0  0
   37.0680   32.8160   39.3370 N   0  0  0  0  0  0  0  0  0  0  0  0
  1  3  1  0  0  0  0
  1  6  1  0  0  0  0
  2  1  1  0  0  0  0
  4  9  1  0  0  0  0
  5  6  1  0  0  0  0
  5  4  2  0  0  0  0
  6  7  2  0  0  0  0
  7  8  1  0  0  0  0
  8 12  1  0  0  0  0
  9  8  2  0  0  0  0
 10  4  1  0  0  0  0
 11  5  1  0  0  0  0
 13 14  1  0  0  0  0
 13 16  1  0  0  0  0
 13  1  1  0  0  0  0
 15 13  1  0  0  0  0
 16 17  2  0  0  0  0
 17 19  1  0  0  0  0
 17 18  1  0  0  0  0
 20 19  1  0  0  0  0
 21 20  1  0  0  0  0
 22 20  2  0  0  0  0
 22 16  1  0  0  0  0
M  END
>  <minimizedAffinity>
-3.62622571

$$$$

 OpenBabel03252508573D

 22 23  0  0  0  0  0  0  0  0999 V2000
   36.0090   30.3300   41.0470 C   0  0  0  0  0  0  0  0  0  0  0  0
   35.4980   29.7330   40.2630 H   0  0  0  0  0  0  0  0  0  0  0  0
   35.2560   30.7300   41.7240 H   0  0  0  0  0  0  0  0  0  0  0  0
   37.3820   27.2520   42.7300 C   0  0  0  0  0  0  0  0  0  0  0  0
   36.5090   28.1040   42.0050 C   0  0  0  0  0  0  0  0  0  0  0  0
   36.9040   29.4180   41.8030 C   0  0  0  0  0  0  0  0  0  0  0  0
   38.0980   29.8090   42.3090 N   0  0  0  0  0  0  0  0  0  0  0  0
   38.9170   28.9800   42.9970 C   0  0  0  0  0  0  0  0  0  0  0  0
   38.5520   27.7170   43.1990 N   0  0  0  0  0  0  0  0  0  0  0  0
   36.9690   26.2550   42.8230 H   0  0  0  0  0  0  0  0  0  0  0  0
   35.5570   27.7890   41.6020 H   0  0  0  0  0  0  0  0  0  0  0  0
   39.8680   29.3080   43.3950 H   0  0  0  0  0  0  0  0  0  0  0  0
   36.8390   31.3910   40.3720 C   0  0  0  0  0  0  0  0  0  0  0  0
   36.3320   32.3690   40.5190 H   0  0  0  0  0  0  0  0  0  0  0  0
   37.8230   31.4850   40.8420 H   0  0  0  0  0  0  0  0  0  0  0  0
   36.9770   31.0420   38.9160 C   0  0  0  0  0  0  0  0  0  0  0  0
   36.4240   29.8510   38.3010 C   0  0  0  0  0  0  0  0  0  0  0  0
   35.8680   29.1280   38.8720 H   0  0  0  0  0  0  0  0  0  0  0  0
   36.9270   30.0250   36.5930 S   0  0  0  0  0  0  0  0  0  0  0  0
   37.8060   31.6750   36.9620 C   0  0  0  0  0  0  0  0  0  0  0  0
   38.3630   32.3250   36.2100 H   0  0  0  0  0  0  0  0  0  0  0  0
   37.6300   31.8230   38.0780 N   0  0  0  0  0  0  0  0  0  0  0  0
  1  3  1  0  0  0  0
  1  6  1  0  0  0  0
  2  1  1  0  0  0  0
  4 10  1  0  0  0  0
  4  9  1  0  0  0  0
  5  4  2  0  0  0  0
  6  5  1  0  0  0  0
  6  7  2  0  0  0  0
  7  8  1  0  0  0  0
  8  9  2  0  0  0  0
  8 12  1  0  0  0  0
 11  5  1  0  0  0  0
 13 14  1  0  0  0  0
 13 15  1  0  0  0  0
 13  1  1  0  0  0  0
 16 13  1  0  0  0  0
 17 18  1  0  0  0  0
 17 16  2  0  0  0  0
 19 20  1  0  0  0  0
 19 17  1  0  0  0  0
 20 22  2  0  0  0  0
 21 20  1  0  0  0  0
 22 16  1  0  0  0  0
M  END
>  <minimizedAffinity>
-3.62035918

$$$$
