
 OpenBabel03252508563D

 22 23  0  0  0  0  0  0  0  0999 V2000
   42.9140   35.5180   41.1210 C   0  0  0  0  0  0  0  0  0  0  0  0
   42.4750   36.3590   41.6980 H   0  0  0  0  0  0  0  0  0  0  0  0
   43.0880   35.8520   40.1000 H   0  0  0  0  0  0  0  0  0  0  0  0
   46.3950   34.1610   41.6090 C   0  0  0  0  0  0  0  0  0  0  0  0
   45.1590   34.4850   40.9910 C   0  0  0  0  0  0  0  0  0  0  0  0
   44.2150   35.1670   41.7450 C   0  0  0  0  0  0  0  0  0  0  0  0
   44.5280   35.4810   43.0240 N   0  0  0  0  0  0  0  0  0  0  0  0
   45.7130   35.1630   43.5960 C   0  0  0  0  0  0  0  0  0  0  0  0
   46.6280   34.5100   42.8860 N   0  0  0  0  0  0  0  0  0  0  0  0
   47.0480   33.6330   40.9260 H   0  0  0  0  0  0  0  0  0  0  0  0
   44.9120   34.2330   39.9690 H   0  0  0  0  0  0  0  0  0  0  0  0
   45.9470   35.4220   44.6190 H   0  0  0  0  0  0  0  0  0  0  0  0
   41.9840   34.3370   41.2190 C   0  0  0  0  0  0  0  0  0  0  0  0
   42.5960   33.4350   41.4340 H   0  0  0  0  0  0  0  0  0  0  0  0
   41.2930   34.4430   42.0620 H   0  0  0  0  0  0  0  0  0  0  0  0
   41.2280   34.2090   39.9250 C   0  0  0  0  0  0  0  0  0  0  0  0
   40.4380   35.2680   39.3280 C   0  0  0  0  0  0  0  0  0  0  0  0
   40.3490   36.2350   39.7930 H   0  0  0  0  0  0  0  0  0  0  0  0
   39.8140   34.4970   37.8400 S   0  0  0  0  0  0  0  0  0  0  0  0
   40.7080   32.8640   38.2440 C   0  0  0  0  0  0  0  0  0  0  0  0
   40.6910   31.9120   37.6170 H   0  0  0  0  0  0  0  0  0  0  0  0
   41.2340   33.0890   39.2290 N   0  0  0  0  0  0  0  0  0  0  0  0
  1 13  1  0  0  0  0
  1  2  1  0  0  0  0
  1  6  1  0  0  0  0
  3  1  1  0  0  0  0
  4  9  1  0  0  0  0
  5  4  2  0  0  0  0
  5  6  1  0  0  0  0
  6  7  2  0  0  0  0
  7  8  1  0  0  0  0
  8 12  1  0  0  0  0
  9  8  2  0  0  0  0
 10  4  1  0  0  0  0
 11  5  1  0  0  0  0
 13 14  1  0  0  0  0
 13 15  1  0  0  0  0
 16 13  1  0  0  0  0
 17 18  1  0  0  0  0
 17 16  2  0  0  0  0
 19 20  1  0  0  0  0
 19 17  1  0  0  0  0
 20 22  2  0  0  0  0
 21 20  1  0  0  0  0
 22 16  1  0  0  0  0
M  END
>  <minimizedAffinity>
-3.41257977

>  <minimizedRMSD>
6.31445265

$$$$
