
 OpenBabel03252508593D

 43 45  0  0  1  0  0  0  0  0999 V2000
   47.2050   34.1230   43.0600 N   0  0  0  0  0  0  0  0  0  0  0  0
   46.6980   35.3210   42.4930 C   0  0  0  0  0  0  0  0  0  0  0  0
   45.2210   35.5600   42.7170 C   0  0  0  0  0  0  0  0  0  0  0  0
   44.6830   35.0190   44.0150 C   0  0  0  0  0  0  0  0  0  0  0  0
   45.7970   34.4690   44.8760 C   0  0  0  0  0  0  0  0  0  0  0  0
   46.4550   33.3780   43.9540 C   0  0  2  0  0  0  0  0  0  0  0  0
   46.8900   35.4620   41.4240 H   0  0  0  0  0  0  0  0  0  0  0  0
   47.2500   36.1560   43.0080 H   0  0  0  0  0  0  0  0  0  0  0  0
   44.6240   35.1940   41.8420 H   0  0  0  0  0  0  0  0  0  0  0  0
   45.0530   36.6580   42.7350 H   0  0  0  0  0  0  0  0  0  0  0  0
   44.0320   34.1550   43.7590 H   0  0  0  0  0  0  0  0  0  0  0  0
   44.0490   35.7500   44.5440 H   0  0  0  0  0  0  0  0  0  0  0  0
   46.5050   35.2840   45.0560 H   0  0  0  0  0  0  0  0  0  0  0  0
   45.3870   33.9880   45.7690 H   0  0  0  0  0  0  0  0  0  0  0  0
   45.6200   32.7780   43.5400 H   0  0  0  0  0  0  0  0  0  0  0  0
   48.1730   33.4500   42.2450 C   0  0  0  0  0  0  0  0  0  0  0  0
   48.8360   32.8230   42.8760 H   0  0  0  0  0  0  0  0  0  0  0  0
   48.8070   34.2300   41.7610 H   0  0  0  0  0  0  0  0  0  0  0  0
   47.4600   32.6160   41.2320 C   0  0  0  0  0  0  0  0  0  0  0  0
   47.4980   31.5420   41.4280 H   0  0  0  0  0  0  0  0  0  0  0  0
   46.3730   32.9060   41.1780 H   0  0  0  0  0  0  0  0  0  0  0  0
   49.3570   32.2830   38.0040 C   0  0  0  0  0  0  0  0  0  0  0  0
   48.8360   32.0030   39.2810 C   0  0  0  0  0  0  0  0  0  0  0  0
   48.0060   32.9210   39.8830 C   0  0  0  0  0  0  0  0  0  0  0  0
   47.7340   34.0520   39.2110 N   0  0  0  0  0  0  0  0  0  0  0  0
   48.2360   34.3100   37.9940 C   0  0  0  0  0  0  0  0  0  0  0  0
   49.0500   33.4350   37.3770 N   0  0  0  0  0  0  0  0  0  0  0  0
   50.0140   31.5460   37.5390 H   0  0  0  0  0  0  0  0  0  0  0  0
   49.1220   31.0600   39.7280 H   0  0  0  0  0  0  0  0  0  0  0  0
   47.8990   35.2690   37.6240 H   0  0  0  0  0  0  0  0  0  0  0  0
   47.2540   32.6930   44.8560 O   0  0  0  0  0  0  0  0  0  0  0  0
   46.0660   30.4870   43.9680 O   0  0  0  0  0  0  0  0  0  0  0  0
   46.6760   31.1550   45.2060 P   0  0  2  0  0  0  0  0  0  0  0  0
   45.3590   31.3750   46.2750 O   0  0  0  0  0  0  0  0  0  0  0  0
   45.5800   32.0790   46.9290 H   0  0  0  0  0  0  0  0  0  0  0  0
   47.8060   30.2080   45.9660 O   0  0  0  0  0  0  0  0  0  0  0  0
   47.6360   28.8760   46.3130 C   0  0  0  0  0  0  0  0  0  0  0  0
   46.7820   28.3560   47.3580 C   0  0  0  0  0  0  0  0  0  0  0  0
   46.1990   29.1510   47.9380 H   0  0  0  0  0  0  0  0  0  0  0  0
   47.1060   26.4990   47.1970 S   0  0  0  0  0  0  0  0  0  0  0  0
   48.3140   26.8230   45.7660 C   0  0  0  0  0  0  0  0  0  0  0  0
   48.7800   25.9290   45.3310 H   0  0  0  0  0  0  0  0  0  0  0  0
   48.3360   27.9940   45.6070 N   0  0  0  0  0  0  0  0  0  0  0  0
  1  6  1  0  0  0  0
  2  3  1  0  0  0  0
  2  8  1  0  0  0  0
  2  1  1  0  0  0  0
  3 10  1  0  0  0  0
  3  4  1  0  0  0  0
  4 12  1  0  0  0  0
  4  5  1  0  0  0  0
  5 13  1  0  0  0  0
  5 14  1  0  0  0  0
  6 15  1  6  0  0  0
  6 31  1  0  0  0  0
  6  5  1  0  0  0  0
  7  2  1  0  0  0  0
  9  3  1  0  0  0  0
 11  4  1  0  0  0  0
 16 17  1  0  0  0  0
 16  1  1  0  0  0  0
 18 16  1  0  0  0  0
 19 20  1  0  0  0  0
 19 16  1  0  0  0  0
 21 19  1  0  0  0  0
 22 23  1  0  0  0  0
 23 29  1  0  0  0  0
 23 24  2  0  0  0  0
 24 19  1  0  0  0  0
 25 24  1  0  0  0  0
 26 25  2  0  0  0  0
 27 26  1  0  0  0  0
 27 22  2  0  0  0  0
 28 22  1  0  0  0  0
 30 26  1  0  0  0  0
 31 33  1  0  0  0  0
 33 32  2  6  0  0  0
 33 36  1  0  0  0  0
 33 34  1  0  0  0  0
 34 35  1  0  0  0  0
 36 37  1  0  0  0  0
 37 38  2  0  0  0  0
 38 39  1  0  0  0  0
 40 38  1  0  0  0  0
 41 40  1  0  0  0  0
 42 41  1  0  0  0  0
 43 41  2  0  0  0  0
 43 37  1  0  0  0  0
M  END
>  <minimizedAffinity>
-3.83320165

>  <minimizedRMSD>
0.230783254

$$$$
