
 OpenBabel03242522303D

 37 40  0  0  0  0  0  0  0  0999 V2000
   45.3630   33.1890   41.1410 F   0  0  0  0  0  0  0  0  0  0  0  0
   46.4920   33.9080   40.9770 C   0  0  0  0  0  0  0  0  0  0  0  0
   46.9510   34.7290   41.9510 C   0  0  0  0  0  0  0  0  0  0  0  0
   48.1140   35.4250   41.6920 C   0  0  0  0  0  0  0  0  0  0  0  0
   48.7950   35.3080   40.5100 C   0  0  0  0  0  0  0  0  0  0  0  0
   48.2720   34.4590   39.5700 C   0  0  0  0  0  0  0  0  0  0  0  0
   47.1330   33.7490   39.7670 C   0  0  0  0  0  0  0  0  0  0  0  0
   48.4840   36.0850   42.4750 H   0  0  0  0  0  0  0  0  0  0  0  0
   49.7060   35.8630   40.3290 H   0  0  0  0  0  0  0  0  0  0  0  0
   48.8180   34.3710   38.6350 H   0  0  0  0  0  0  0  0  0  0  0  0
   46.6760   32.8830   38.7020 C   0  0  0  0  0  0  0  0  0  0  0  0
   46.2530   31.5980   38.9990 C   0  0  0  0  0  0  0  0  0  0  0  0
   45.8210   30.7970   37.9800 C   0  0  0  0  0  0  0  0  0  0  0  0
   45.8020   31.2580   36.6560 C   0  0  0  0  0  0  0  0  0  0  0  0
   46.2400   32.5590   36.4220 C   0  0  0  0  0  0  0  0  0  0  0  0
   46.6770   33.3750   37.4350 C   0  0  0  0  0  0  0  0  0  0  0  0
   46.2840   31.2810   40.0480 H   0  0  0  0  0  0  0  0  0  0  0  0
   45.5000   29.8020   38.2530 H   0  0  0  0  0  0  0  0  0  0  0  0
   45.4510   30.5690   35.9230 H   0  0  0  0  0  0  0  0  0  0  0  0
   46.1750   32.7910   35.3670 H   0  0  0  0  0  0  0  0  0  0  0  0
   47.0500   34.5940   36.9440 O   0  0  0  0  0  0  0  0  0  0  0  0
   47.7050   34.7640   36.2100 H   0  0  0  0  0  0  0  0  0  0  0  0
   44.5210   35.8600   44.6260 C   0  0  0  0  0  0  0  0  0  0  0  0
   45.2360   35.7970   43.4270 C   0  0  0  0  0  0  0  0  0  0  0  0
   46.1830   34.8190   43.2050 C   0  0  0  0  0  0  0  0  0  0  0  0
   46.3650   33.9380   44.2160 N   0  0  0  0  0  0  0  0  0  0  0  0
   45.6770   34.0080   45.3570 C   0  0  0  0  0  0  0  0  0  0  0  0
   44.7670   34.9520   45.5640 N   0  0  0  0  0  0  0  0  0  0  0  0
   43.7910   36.6480   44.7450 H   0  0  0  0  0  0  0  0  0  0  0  0
   45.0600   36.5240   42.6390 H   0  0  0  0  0  0  0  0  0  0  0  0
   45.9370   33.0050   46.4150 C   0  0  0  0  0  0  0  0  0  0  0  0
   46.9650   32.0150   46.2910 C   0  0  0  0  0  0  0  0  0  0  0  0
   47.5890   31.9300   45.4660 H   0  0  0  0  0  0  0  0  0  0  0  0
   46.7700   31.1310   47.8640 S   0  0  0  0  0  0  0  0  0  0  0  0
   45.3400   32.2410   48.4250 C   0  0  0  0  0  0  0  0  0  0  0  0
   44.7660   32.1830   49.3790 H   0  0  0  0  0  0  0  0  0  0  0  0
   45.2180   32.9900   47.5270 N   0  0  0  0  0  0  0  0  0  0  0  0
  2  1  1  0  0  0  0
  2  3  1  0  0  0  0
  3 25  1  0  0  0  0
  4  3  2  0  0  0  0
  4  8  1  0  0  0  0
  5  4  1  0  0  0  0
  6  7  1  0  0  0  0
  6  5  2  0  0  0  0
  7  2  2  0  0  0  0
  9  5  1  0  0  0  0
 10  6  1  0  0  0  0
 11 12  1  0  0  0  0
 11  7  1  0  0  0  0
 12 17  1  0  0  0  0
 13 18  1  0  0  0  0
 13 12  2  0  0  0  0
 14 13  1  0  0  0  0
 15 14  2  0  0  0  0
 15 16  1  0  0  0  0
 16 11  2  0  0  0  0
 19 14  1  0  0  0  0
 20 15  1  0  0  0  0
 21 16  1  0  0  0  0
 22 21  1  0  0  0  0
 23 29  1  0  0  0  0
 23 28  1  0  0  0  0
 24 23  2  0  0  0  0
 25 24  1  0  0  0  0
 25 26  2  0  0  0  0
 26 27  1  0  0  0  0
 27 28  2  0  0  0  0
 27 31  1  0  0  0  0
 30 24  1  0  0  0  0
 31 37  1  0  0  0  0
 32 31  2  0  0  0  0
 32 34  1  0  0  0  0
 33 32  1  0  0  0  0
 34 35  1  0  0  0  0
 35 36  1  0  0  0  0
 37 35  2  0  0  0  0
M  END
>  <minimizedAffinity>
-7.2585001

>  <minimizedRMSD>
0.201157093

$$$$
