
 OpenBabel03252506463D

 40 43  0  0  1  0  0  0  0  0999 V2000
   49.6140   33.4370   41.5180 N   0  0  1  0  0  0  0  0  0  0  0  0
   50.7350   33.0720   42.3510 C   0  0  0  0  0  0  0  0  0  0  0  0
   51.3230   31.7260   42.0240 C   0  0  0  0  0  0  0  0  0  0  0  0
   50.3070   30.6580   42.3850 C   0  0  0  0  0  0  0  0  0  0  0  0
   48.9090   31.1390   42.0940 C   0  0  0  0  0  0  0  0  0  0  0  0
   48.9600   32.2560   41.0650 C   0  0  2  0  0  0  0  0  0  0  0  0
   50.3210   32.9540   43.3960 H   0  0  0  0  0  0  0  0  0  0  0  0
   51.4900   33.8650   42.4460 H   0  0  0  0  0  0  0  0  0  0  0  0
   52.2060   31.6120   42.6950 H   0  0  0  0  0  0  0  0  0  0  0  0
   51.7150   31.6150   41.0110 H   0  0  0  0  0  0  0  0  0  0  0  0
   50.5680   29.7370   41.8050 H   0  0  0  0  0  0  0  0  0  0  0  0
   50.4460   30.3590   43.4520 H   0  0  0  0  0  0  0  0  0  0  0  0
   48.3770   31.4630   43.0090 H   0  0  0  0  0  0  0  0  0  0  0  0
   48.3430   30.3130   41.6380 H   0  0  0  0  0  0  0  0  0  0  0  0
   47.8810   32.5210   40.8650 H   0  0  0  0  0  0  0  0  0  0  0  0
   47.3640   34.5990   41.9700 C   0  0  1  0  0  0  0  0  0  0  0  0
   48.3980   35.5870   41.6520 C   0  0  0  0  0  0  0  0  0  0  0  0
   48.7980   34.3120   42.2980 C   0  0  2  0  0  0  0  0  0  0  0  0
   46.9700   33.9740   41.1320 H   0  0  0  0  0  0  0  0  0  0  0  0
   48.3900   36.5340   42.2630 H   0  0  0  0  0  0  0  0  0  0  0  0
   48.6510   35.7580   40.6050 H   0  0  0  0  0  0  0  0  0  0  0  0
   49.0510   34.4130   43.3750 H   0  0  0  0  0  0  0  0  0  0  0  0
   45.6010   36.0140   43.0800 C   0  0  0  0  0  0  0  0  0  0  0  0
   46.4050   34.8520   43.0740 C   0  0  0  0  0  0  0  0  0  0  0  0
   46.2650   33.9580   44.1420 C   0  0  0  0  0  0  0  0  0  0  0  0
   45.3710   34.2640   45.1050 N   0  0  0  0  0  0  0  0  0  0  0  0
   44.6150   35.3660   45.1030 C   0  0  0  0  0  0  0  0  0  0  0  0
   44.7230   36.2640   44.0790 N   0  0  0  0  0  0  0  0  0  0  0  0
   45.7330   36.6790   42.2520 H   0  0  0  0  0  0  0  0  0  0  0  0
   46.8670   33.0610   44.1610 H   0  0  0  0  0  0  0  0  0  0  0  0
   43.9380   35.4930   45.9370 H   0  0  0  0  0  0  0  0  0  0  0  0
   49.4690   31.7150   39.8320 N   0  0  0  0  0  0  0  0  0  0  0  0
   50.1050   30.8990   39.7190 H   0  0  0  0  0  0  0  0  0  0  0  0
   48.9660   32.5010   38.7290 C   0  0  0  0  0  0  0  0  0  0  0  0
   49.2330   31.8460   37.4700 C   0  0  0  0  0  0  0  0  0  0  0  0
   49.6900   30.9470   37.0680 H   0  0  0  0  0  0  0  0  0  0  0  0
   48.5060   33.0330   36.1800 S   0  0  0  0  0  0  0  0  0  0  0  0
   47.9870   34.1810   37.6040 C   0  0  0  0  0  0  0  0  0  0  0  0
   47.4540   35.2370   38.0630 H   0  0  0  0  0  0  0  0  0  0  0  0
   48.3420   33.6340   38.5130 N   0  0  0  0  0  0  0  0  0  0  0  0
  1 18  1  0  0  0  0
  1  2  1  1  0  0  0
  2  8  1  0  0  0  0
  2  7  1  0  0  0  0
  3  2  1  0  0  0  0
  3  4  1  0  0  0  0
  3  9  1  0  0  0  0
  4 12  1  0  0  0  0
  5  4  1  0  0  0  0
  5 13  1  0  0  0  0
  6 15  1  6  0  0  0
  6  1  1  0  0  0  0
  6  5  1  0  0  0  0
 10  3  1  0  0  0  0
 11  4  1  0  0  0  0
 14  5  1  0  0  0  0
 16 19  1  6  0  0  0
 16 18  1  0  0  0  0
 16 24  1  0  0  0  0
 17 16  1  0  0  0  0
 17 20  1  0  0  0  0
 17 18  1  0  0  0  0
 18 22  1  1  0  0  0
 21 17  1  0  0  0  0
 23 28  1  0  0  0  0
 24 23  2  0  0  0  0
 24 25  1  0  0  0  0
 25 30  1  0  0  0  0
 25 26  2  0  0  0  0
 27 26  1  0  0  0  0
 27 31  1  0  0  0  0
 28 27  2  0  0  0  0
 29 23  1  0  0  0  0
 32  6  1  0  0  0  0
 33 32  1  0  0  0  0
 34 32  1  0  0  0  0
 35 34  2  0  0  0  0
 36 35  1  0  0  0  0
 37 35  1  0  0  0  0
 37 38  1  0  0  0  0
 38 39  1  0  0  0  0
 38 40  2  0  0  0  0
 40 34  1  0  0  0  0
M  END
>  <minimizedAffinity>
-5.19697475

>  <minimizedRMSD>
2.62909031

$$$$
