
 OpenBabel03252509043D

 46 48  0  0  1  0  0  0  0  0999 V2000
   46.7220   34.3950   43.4640 N   0  0  0  0  0  0  0  0  0  0  0  0
   46.4450   34.9340   42.1930 C   0  0  0  0  0  0  0  0  0  0  0  0
   44.9810   34.9200   41.8060 C   0  0  0  0  0  0  0  0  0  0  0  0
   44.0510   35.1730   42.9680 C   0  0  0  0  0  0  0  0  0  0  0  0
   44.8000   35.4100   44.2600 C   0  0  0  0  0  0  0  0  0  0  0  0
   45.7280   34.1440   44.3830 C   0  0  2  0  0  0  0  0  0  0  0  0
   47.0050   34.5260   41.3530 H   0  0  0  0  0  0  0  0  0  0  0  0
   46.7230   36.0280   42.2310 H   0  0  0  0  0  0  0  0  0  0  0  0
   44.7970   35.5890   40.9540 H   0  0  0  0  0  0  0  0  0  0  0  0
   44.7730   33.8870   41.4430 H   0  0  0  0  0  0  0  0  0  0  0  0
   43.3060   34.4000   43.1400 H   0  0  0  0  0  0  0  0  0  0  0  0
   43.5200   36.1290   42.7460 H   0  0  0  0  0  0  0  0  0  0  0  0
   45.4340   36.3030   44.1870 H   0  0  0  0  0  0  0  0  0  0  0  0
   44.0800   35.4090   45.0850 H   0  0  0  0  0  0  0  0  0  0  0  0
   45.0450   33.3030   44.1980 H   0  0  0  0  0  0  0  0  0  0  0  0
   47.9210   33.5920   43.5180 C   0  0  0  0  0  0  0  0  0  0  0  0
   48.1720   33.3740   44.5560 H   0  0  0  0  0  0  0  0  0  0  0  0
   48.7520   34.2070   43.1000 H   0  0  0  0  0  0  0  0  0  0  0  0
   47.7050   32.3520   42.7330 C   0  0  0  0  0  0  0  0  0  0  0  0
   47.5530   31.4860   43.3880 H   0  0  0  0  0  0  0  0  0  0  0  0
   46.7900   32.4230   42.0890 H   0  0  0  0  0  0  0  0  0  0  0  0
   51.2240   32.1750   41.4410 C   0  0  0  0  0  0  0  0  0  0  0  0
   50.1210   32.3860   42.2760 C   0  0  0  0  0  0  0  0  0  0  0  0
   48.8630   32.1210   41.8300 C   0  0  0  0  0  0  0  0  0  0  0  0
   48.7300   31.6590   40.5800 N   0  0  0  0  0  0  0  0  0  0  0  0
   49.7830   31.4520   39.7690 C   0  0  0  0  0  0  0  0  0  0  0  0
   51.0340   31.7040   40.1800 N   0  0  0  0  0  0  0  0  0  0  0  0
   52.2310   32.3650   41.7360 H   0  0  0  0  0  0  0  0  0  0  0  0
   50.3500   32.7620   43.2660 H   0  0  0  0  0  0  0  0  0  0  0  0
   49.5020   31.0800   38.8030 H   0  0  0  0  0  0  0  0  0  0  0  0
   46.1660   34.2370   45.6900 O   0  0  0  0  0  0  0  0  0  0  0  0
   45.6860   31.6280   45.5920 O   0  0  0  0  0  0  0  0  0  0  0  0
   46.0640   32.7960   46.5300 P   0  0  2  0  0  0  0  0  0  0  0  0
   44.7130   32.9380   47.5740 O   0  0  0  0  0  0  0  0  0  0  0  0
   44.9890   32.8500   48.5190 H   0  0  0  0  0  0  0  0  0  0  0  0
   47.4070   32.4460   47.4370 O   0  0  0  0  0  0  0  0  0  0  0  0
   47.2360   31.2260   48.0680 C   0  0  0  0  0  0  0  0  0  0  0  0
   46.4520   31.2630   48.8320 H   0  0  0  0  0  0  0  0  0  0  0  0
   46.9340   30.4450   47.3190 H   0  0  0  0  0  0  0  0  0  0  0  0
   48.5100   30.7630   48.7300 C   0  0  0  0  0  0  0  0  0  0  0  0
   49.0270   29.4330   48.4570 C   0  0  0  0  0  0  0  0  0  0  0  0
   48.5410   28.7320   47.7910 H   0  0  0  0  0  0  0  0  0  0  0  0
   50.5380   29.4240   49.4930 S   0  0  0  0  0  0  0  0  0  0  0  0
   50.2280   31.1740   50.1060 C   0  0  0  0  0  0  0  0  0  0  0  0
   50.8370   31.7540   50.7980 H   0  0  0  0  0  0  0  0  0  0  0  0
   49.2060   31.5110   49.5620 N   0  0  0  0  0  0  0  0  0  0  0  0
  1 16  1  0  0  0  0
  1  6  1  0  0  0  0
  2  8  1  0  0  0  0
  2  1  1  0  0  0  0
  3  2  1  0  0  0  0
  3  4  1  0  0  0  0
  4 11  1  0  0  0  0
  4  5  1  0  0  0  0
  5  6  1  0  0  0  0
  5 14  1  0  0  0  0
  6 15  1  6  0  0  0
  6 31  1  0  0  0  0
  7  2  1  0  0  0  0
  9  3  1  0  0  0  0
 10  3  1  0  0  0  0
 12  4  1  0  0  0  0
 13  5  1  0  0  0  0
 16 17  1  0  0  0  0
 18 16  1  0  0  0  0
 19 20  1  0  0  0  0
 19 16  1  0  0  0  0
 21 19  1  0  0  0  0
 22 28  1  0  0  0  0
 22 23  1  0  0  0  0
 23 29  1  0  0  0  0
 24 23  2  0  0  0  0
 24 19  1  0  0  0  0
 25 24  1  0  0  0  0
 26 27  1  0  0  0  0
 26 25  2  0  0  0  0
 27 22  2  0  0  0  0
 30 26  1  0  0  0  0
 31 33  1  0  0  0  0
 33 32  2  6  0  0  0
 33 36  1  0  0  0  0
 33 34  1  0  0  0  0
 34 35  1  0  0  0  0
 36 37  1  0  0  0  0
 37 40  1  0  0  0  0
 37 38  1  0  0  0  0
 39 37  1  0  0  0  0
 40 46  1  0  0  0  0
 41 40  2  0  0  0  0
 41 43  1  0  0  0  0
 42 41  1  0  0  0  0
 43 44  1  0  0  0  0
 44 45  1  0  0  0  0
 46 44  2  0  0  0  0
M  END
>  <minimizedAffinity>
-4.85637093

>  <minimizedRMSD>
3.02052426

$$$$
