
 OpenBabel03252508023D

 40 43  0  0  1  0  0  0  0  0999 V2000
   44.2210   34.3510   41.5340 C   0  0  0  0  0  0  0  0  0  0  0  0
   45.0970   34.2200   40.6070 O   0  0  0  0  0  0  0  0  0  0  0  0
   42.0260   33.2890   41.1200 C   0  0  0  0  0  0  0  0  0  0  0  0
   42.7710   34.4150   41.3120 C   0  0  0  0  0  0  0  0  0  0  0  0
   42.1330   35.6640   41.2780 C   0  0  0  0  0  0  0  0  0  0  0  0
   40.7870   35.8130   41.0610 C   0  0  0  0  0  0  0  0  0  0  0  0
   40.0360   34.6870   40.8690 C   0  0  0  0  0  0  0  0  0  0  0  0
   40.6480   33.4730   40.9000 C   0  0  0  0  0  0  0  0  0  0  0  0
   42.6590   36.5970   41.4120 H   0  0  0  0  0  0  0  0  0  0  0  0
   40.2970   36.7700   41.0350 H   0  0  0  0  0  0  0  0  0  0  0  0
   38.9750   34.6730   40.6900 H   0  0  0  0  0  0  0  0  0  0  0  0
   40.0590   32.5540   40.7460 H   0  0  0  0  0  0  0  0  0  0  0  0
   42.6710   31.7270   41.1900 S   0  0  0  0  0  0  0  0  0  0  0  0
   41.5200   30.9030   40.5830 O   0  0  0  0  0  0  0  0  0  0  0  0
   42.8270   31.2450   42.5920 O   0  0  0  0  0  0  0  0  0  0  0  0
   43.7340   31.0430   40.0370 C   0  0  0  0  0  0  0  0  0  0  0  0
   44.0750   29.5570   40.4120 C   0  0  0  0  0  0  0  0  0  0  0  0
   43.7440   28.8500   41.3980 H   0  0  0  0  0  0  0  0  0  0  0  0
   45.0570   29.0240   39.1430 S   0  0  0  0  0  0  0  0  0  0  0  0
   45.0330   30.5990   38.1940 C   0  0  0  0  0  0  0  0  0  0  0  0
   45.4960   30.8850   37.2600 H   0  0  0  0  0  0  0  0  0  0  0  0
   44.3540   31.2280   38.9090 N   0  0  0  0  0  0  0  0  0  0  0  0
   44.5700   34.4540   42.9200 C   0  0  0  0  0  0  0  0  0  0  0  0
   44.3060   35.7090   43.5430 C   0  0  0  0  0  0  0  0  0  0  0  0
   44.6360   35.8170   44.8840 C   0  0  0  0  0  0  0  0  0  0  0  0
   45.1790   34.7450   45.5160 N   0  0  0  0  0  0  0  0  0  0  0  0
   45.4160   33.5560   44.8760 C   0  0  0  0  0  0  0  0  0  0  0  0
   45.1030   33.4790   43.6360 N   0  0  0  0  0  0  0  0  0  0  0  0
   43.8920   36.5910   43.1380 H   0  0  0  0  0  0  0  0  0  0  0  0
   44.4780   36.7340   45.4630 H   0  0  0  0  0  0  0  0  0  0  0  0
   46.0040   32.4410   45.6430 C   0  0  1  0  0  0  0  0  0  0  0  0
   46.9680   32.7640   46.7660 C   0  0  0  0  0  0  0  0  0  0  0  0
   45.5420   32.3620   47.0560 C   0  0  1  0  0  0  0  0  0  0  0  0
   46.0950   31.4640   45.1420 H   0  0  0  0  0  0  0  0  0  0  0  0
   47.7720   32.0000   46.9050 H   0  0  0  0  0  0  0  0  0  0  0  0
   47.2880   33.8090   46.7700 H   0  0  0  0  0  0  0  0  0  0  0  0
   45.4250   31.3750   47.5440 H   0  0  0  0  0  0  0  0  0  0  0  0
   44.7640   33.4180   47.6330 N   0  0  0  0  0  0  0  0  0  0  0  0
   43.9200   33.1010   48.1290 H   0  0  0  0  0  0  0  0  0  0  0  0
   45.3210   34.1420   48.1280 H   0  0  0  0  0  0  0  0  0  0  0  0
  1 23  1  0  0  0  0
  2  1  2  0  0  0  0
  3 13  1  0  0  0  0
  3  4  1  0  0  0  0
  4  1  1  0  0  0  0
  5  4  2  0  0  0  0
  5  9  1  0  0  0  0
  6  5  1  0  0  0  0
  7  8  1  0  0  0  0
  7  6  2  0  0  0  0
  8  3  2  0  0  0  0
 10  6  1  0  0  0  0
 11  7  1  0  0  0  0
 12  8  1  0  0  0  0
 13 15  2  0  0  0  0
 14 13  2  0  0  0  0
 16 17  2  0  0  0  0
 16 13  1  0  0  0  0
 17 18  1  0  0  0  0
 19 17  1  0  0  0  0
 20 22  2  0  0  0  0
 20 19  1  0  0  0  0
 21 20  1  0  0  0  0
 22 16  1  0  0  0  0
 23 24  2  0  0  0  0
 23 28  1  0  0  0  0
 24 25  1  0  0  0  0
 25 30  1  0  0  0  0
 25 26  2  0  0  0  0
 27 26  1  0  0  0  0
 27 31  1  0  0  0  0
 28 27  2  0  0  0  0
 29 24  1  0  0  0  0
 31 34  1  6  0  0  0
 31 32  1  0  0  0  0
 31 33  1  0  0  0  0
 32 36  1  0  0  0  0
 32 35  1  0  0  0  0
 32 33  1  0  0  0  0
 33 37  1  1  0  0  0
 33 38  1  0  0  0  0
 38 40  1  0  0  0  0
 38 39  1  0  0  0  0
M  END
>  <minimizedAffinity>
-5.70232201

>  <minimizedRMSD>
1.17071497

$$$$
