
 OpenBabel03242522483D

 39 42  0  0  0  0  0  0  0  0999 V2000
   37.1960   31.4480   40.8640 C   0  0  0  0  0  0  0  0  0  0  0  0
   38.1090   30.4870   41.3160 C   0  0  0  0  0  0  0  0  0  0  0  0
   39.4930   30.8370   41.3890 C   0  0  0  0  0  0  0  0  0  0  0  0
   39.8290   32.0960   41.0100 N   0  0  0  0  0  0  0  0  0  0  0  0
   38.9360   32.9960   40.5820 C   0  0  0  0  0  0  0  0  0  0  0  0
   37.6300   32.6580   40.5150 N   0  0  0  0  0  0  0  0  0  0  0  0
   35.8460   31.0970   40.7950 N   0  0  0  0  0  0  0  0  0  0  0  0
   40.2310   30.1520   41.7230 H   0  0  0  0  0  0  0  0  0  0  0  0
   35.4520   30.3920   40.1220 H   0  0  0  0  0  0  0  0  0  0  0  0
   35.2560   31.6160   41.4960 H   0  0  0  0  0  0  0  0  0  0  0  0
   37.7340   29.1430   41.7190 C   0  0  0  0  0  0  0  0  0  0  0  0
   37.3480   28.6970   42.9570 C   0  0  0  0  0  0  0  0  0  0  0  0
   37.0260   27.3660   43.1520 C   0  0  0  0  0  0  0  0  0  0  0  0
   37.0790   26.4450   42.1240 C   0  0  0  0  0  0  0  0  0  0  0  0
   36.7470   25.1800   42.4180 N   0  0  0  0  0  0  0  0  0  0  0  0
   36.7930   24.2450   41.4110 C   0  0  0  0  0  0  0  0  0  0  0  0
   37.1820   24.6770   40.1480 C   0  0  0  0  0  0  0  0  0  0  0  0
   37.5230   25.9730   39.8420 C   0  0  0  0  0  0  0  0  0  0  0  0
   37.4680   26.8950   40.8790 C   0  0  0  0  0  0  0  0  0  0  0  0
   37.7950   28.2270   40.6620 C   0  0  0  0  0  0  0  0  0  0  0  0
   37.3250   29.4630   43.7200 H   0  0  0  0  0  0  0  0  0  0  0  0
   36.7350   27.1240   44.1650 H   0  0  0  0  0  0  0  0  0  0  0  0
   36.5300   23.2200   41.6240 H   0  0  0  0  0  0  0  0  0  0  0  0
   37.2000   23.8980   39.3950 H   0  0  0  0  0  0  0  0  0  0  0  0
   37.8200   26.2730   38.8550 H   0  0  0  0  0  0  0  0  0  0  0  0
   38.0890   28.4790   39.6470 H   0  0  0  0  0  0  0  0  0  0  0  0
   39.4190   34.3470   40.1960 C   0  0  0  0  0  0  0  0  0  0  0  0
   39.7700   34.8130   41.1610 H   0  0  0  0  0  0  0  0  0  0  0  0
   38.6800   34.9750   39.7010 H   0  0  0  0  0  0  0  0  0  0  0  0
   40.6900   34.2000   39.3380 C   0  0  0  0  0  0  0  0  0  0  0  0
   40.7350   33.1860   38.9210 H   0  0  0  0  0  0  0  0  0  0  0  0
   40.6180   34.8890   38.4920 H   0  0  0  0  0  0  0  0  0  0  0  0
   41.8670   34.4890   40.2120 C   0  0  0  0  0  0  0  0  0  0  0  0
   43.0890   33.7900   40.0310 C   0  0  0  0  0  0  0  0  0  0  0  0
   43.2800   33.0290   39.2920 H   0  0  0  0  0  0  0  0  0  0  0  0
   44.1650   34.5200   41.3360 S   0  0  0  0  0  0  0  0  0  0  0  0
   42.7460   35.6550   41.8980 C   0  0  0  0  0  0  0  0  0  0  0  0
   42.7470   36.4140   42.7240 H   0  0  0  0  0  0  0  0  0  0  0  0
   41.9050   35.3760   41.1950 N   0  0  0  0  0  0  0  0  0  0  0  0
  1  2  1  0  0  0  0
  2  3  2  0  0  0  0
  2 11  1  0  0  0  0
  3  8  1  0  0  0  0
  4  3  1  0  0  0  0
  5  4  2  0  0  0  0
  6  5  1  0  0  0  0
  6  1  2  0  0  0  0
  7  1  1  0  0  0  0
  7 10  1  0  0  0  0
  9  7  1  0  0  0  0
 11 12  1  0  0  0  0
 12 13  2  0  0  0  0
 12 21  1  0  0  0  0
 13 22  1  0  0  0  0
 14 15  1  0  0  0  0
 14 13  1  0  0  0  0
 16 23  1  0  0  0  0
 16 15  2  0  0  0  0
 17 16  1  0  0  0  0
 18 17  2  0  0  0  0
 18 19  1  0  0  0  0
 19 14  2  0  0  0  0
 20 19  1  0  0  0  0
 20 11  2  0  0  0  0
 24 17  1  0  0  0  0
 25 18  1  0  0  0  0
 26 20  1  0  0  0  0
 27  5  1  0  0  0  0
 27 28  1  0  0  0  0
 29 27  1  0  0  0  0
 30 27  1  0  0  0  0
 30 33  1  0  0  0  0
 31 30  1  0  0  0  0
 32 30  1  0  0  0  0
 33 39  1  0  0  0  0
 34 33  2  0  0  0  0
 34 36  1  0  0  0  0
 35 34  1  0  0  0  0
 36 37  1  0  0  0  0
 37 38  1  0  0  0  0
 39 37  2  0  0  0  0
M  END
>  <minimizedAffinity>
-6.32981873

$$$$

 OpenBabel03242522483D

 39 42  0  0  0  0  0  0  0  0999 V2000
   37.2640   28.2930   42.6010 C   0  0  0  0  0  0  0  0  0  0  0  0
   37.3720   28.7580   41.2840 C   0  0  0  0  0  0  0  0  0  0  0  0
   37.3440   27.8090   40.2160 C   0  0  0  0  0  0  0  0  0  0  0  0
   37.2130   26.5020   40.5600 N   0  0  0  0  0  0  0  0  0  0  0  0
   37.1100   26.0840   41.8280 C   0  0  0  0  0  0  0  0  0  0  0  0
   37.1380   26.9870   42.8310 N   0  0  0  0  0  0  0  0  0  0  0  0
   37.2920   29.2290   43.6380 N   0  0  0  0  0  0  0  0  0  0  0  0
   37.4220   28.1010   39.1990 H   0  0  0  0  0  0  0  0  0  0  0  0
   38.1370   29.7970   43.8980 H   0  0  0  0  0  0  0  0  0  0  0  0
   36.3690   29.3080   44.1380 H   0  0  0  0  0  0  0  0  0  0  0  0
   37.5120   30.1610   40.9320 C   0  0  0  0  0  0  0  0  0  0  0  0
   36.5410   31.0470   40.5430 C   0  0  0  0  0  0  0  0  0  0  0  0
   36.8690   32.3580   40.2440 C   0  0  0  0  0  0  0  0  0  0  0  0
   38.1670   32.8200   40.3230 C   0  0  0  0  0  0  0  0  0  0  0  0
   38.3780   34.1070   40.0120 N   0  0  0  0  0  0  0  0  0  0  0  0
   39.6630   34.5910   40.0840 C   0  0  0  0  0  0  0  0  0  0  0  0
   40.6630   33.7080   40.4760 C   0  0  0  0  0  0  0  0  0  0  0  0
   40.4520   32.3880   40.7950 C   0  0  0  0  0  0  0  0  0  0  0  0
   39.1440   31.9270   40.7150 C   0  0  0  0  0  0  0  0  0  0  0  0
   38.8360   30.6080   41.0200 C   0  0  0  0  0  0  0  0  0  0  0  0
   35.5450   30.6270   40.5010 H   0  0  0  0  0  0  0  0  0  0  0  0
   36.0260   32.9680   39.9490 H   0  0  0  0  0  0  0  0  0  0  0  0
   39.8580   35.6240   39.8380 H   0  0  0  0  0  0  0  0  0  0  0  0
   41.6540   34.1430   40.5140 H   0  0  0  0  0  0  0  0  0  0  0  0
   41.2470   31.7320   41.0950 H   0  0  0  0  0  0  0  0  0  0  0  0
   39.6760   29.9870   41.3160 H   0  0  0  0  0  0  0  0  0  0  0  0
   36.9660   24.6280   42.0850 C   0  0  0  0  0  0  0  0  0  0  0  0
   35.9870   24.3460   41.5990 H   0  0  0  0  0  0  0  0  0  0  0  0
   36.9810   24.3430   43.1350 H   0  0  0  0  0  0  0  0  0  0  0  0
   38.0410   23.8680   41.2860 C   0  0  0  0  0  0  0  0  0  0  0  0
   37.9610   22.7940   41.4930 H   0  0  0  0  0  0  0  0  0  0  0  0
   37.8400   24.0020   40.2190 H   0  0  0  0  0  0  0  0  0  0  0  0
   39.3760   24.4090   41.6860 C   0  0  0  0  0  0  0  0  0  0  0  0
   39.7840   24.3880   43.0460 C   0  0  0  0  0  0  0  0  0  0  0  0
   39.2100   24.0050   43.8740 H   0  0  0  0  0  0  0  0  0  0  0  0
   41.4580   25.1530   42.9730 S   0  0  0  0  0  0  0  0  0  0  0  0
   41.3010   25.3650   41.0900 C   0  0  0  0  0  0  0  0  0  0  0  0
   42.0430   25.8070   40.3740 H   0  0  0  0  0  0  0  0  0  0  0  0
   40.2770   24.9360   40.8710 N   0  0  0  0  0  0  0  0  0  0  0  0
  1  6  1  0  0  0  0
  1  7  1  0  0  0  0
  2  1  2  0  0  0  0
  3  4  2  0  0  0  0
  3  2  1  0  0  0  0
  4  5  1  0  0  0  0
  5 27  1  0  0  0  0
  5  6  2  0  0  0  0
  7  9  1  0  0  0  0
  7 10  1  0  0  0  0
  8  3  1  0  0  0  0
 11 20  1  0  0  0  0
 11  2  1  0  0  0  0
 12 11  2  0  0  0  0
 13 14  2  0  0  0  0
 13 12  1  0  0  0  0
 14 19  1  0  0  0  0
 15 16  2  0  0  0  0
 15 14  1  0  0  0  0
 16 17  1  0  0  0  0
 17 24  1  0  0  0  0
 17 18  2  0  0  0  0
 18 25  1  0  0  0  0
 19 18  1  0  0  0  0
 19 20  2  0  0  0  0
 20 26  1  0  0  0  0
 21 12  1  0  0  0  0
 22 13  1  0  0  0  0
 23 16  1  0  0  0  0
 27 29  1  0  0  0  0
 28 27  1  0  0  0  0
 30 31  1  0  0  0  0
 30 33  1  0  0  0  0
 30 27  1  0  0  0  0
 32 30  1  0  0  0  0
 33 34  2  0  0  0  0
 34 35  1  0  0  0  0
 36 34  1  0  0  0  0
 37 36  1  0  0  0  0
 38 37  1  0  0  0  0
 39 37  2  0  0  0  0
 39 33  1  0  0  0  0
M  END
>  <minimizedAffinity>
-6.24369144

$$$$

 OpenBabel03242522483D

 39 42  0  0  0  0  0  0  0  0999 V2000
   37.3600   28.0360   42.8140 C   0  0  0  0  0  0  0  0  0  0  0  0
   38.0760   28.5120   41.7090 C   0  0  0  0  0  0  0  0  0  0  0  0
   38.4110   27.5970   40.6630 C   0  0  0  0  0  0  0  0  0  0  0  0
   38.0030   26.3120   40.8170 N   0  0  0  0  0  0  0  0  0  0  0  0
   37.3170   25.8830   41.8840 C   0  0  0  0  0  0  0  0  0  0  0  0
   37.0060   26.7530   42.8680 N   0  0  0  0  0  0  0  0  0  0  0  0
   37.0380   28.9380   43.8320 N   0  0  0  0  0  0  0  0  0  0  0  0
   38.9520   27.8980   39.8020 H   0  0  0  0  0  0  0  0  0  0  0  0
   37.7430   29.3850   44.4700 H   0  0  0  0  0  0  0  0  0  0  0  0
   36.0040   29.1260   43.8950 H   0  0  0  0  0  0  0  0  0  0  0  0
   38.5060   29.8910   41.5580 C   0  0  0  0  0  0  0  0  0  0  0  0
   39.6040   30.5100   42.0950 C   0  0  0  0  0  0  0  0  0  0  0  0
   39.8510   31.8470   41.8370 C   0  0  0  0  0  0  0  0  0  0  0  0
   39.0130   32.6020   41.0400 C   0  0  0  0  0  0  0  0  0  0  0  0
   39.3410   33.8880   40.8520 N   0  0  0  0  0  0  0  0  0  0  0  0
   38.5220   34.6590   40.0620 C   0  0  0  0  0  0  0  0  0  0  0  0
   37.4020   34.0500   39.5080 C   0  0  0  0  0  0  0  0  0  0  0  0
   37.0610   32.7330   39.6980 C   0  0  0  0  0  0  0  0  0  0  0  0
   37.9070   31.9780   40.5000 C   0  0  0  0  0  0  0  0  0  0  0  0
   37.6420   30.6380   40.7460 C   0  0  0  0  0  0  0  0  0  0  0  0
   40.2220   29.8690   42.7100 H   0  0  0  0  0  0  0  0  0  0  0  0
   40.7440   32.2320   42.3110 H   0  0  0  0  0  0  0  0  0  0  0  0
   38.7660   35.6980   39.8970 H   0  0  0  0  0  0  0  0  0  0  0  0
   36.7940   34.7060   38.8970 H   0  0  0  0  0  0  0  0  0  0  0  0
   36.1880   32.2930   39.2540 H   0  0  0  0  0  0  0  0  0  0  0  0
   36.7460   30.2410   40.2760 H   0  0  0  0  0  0  0  0  0  0  0  0
   36.9200   24.4530   41.9440 C   0  0  0  0  0  0  0  0  0  0  0  0
   36.0650   24.3620   41.2130 H   0  0  0  0  0  0  0  0  0  0  0  0
   36.6320   24.0970   42.9320 H   0  0  0  0  0  0  0  0  0  0  0  0
   38.0490   23.5920   41.3480 C   0  0  0  0  0  0  0  0  0  0  0  0
   38.8200   24.2440   40.9200 H   0  0  0  0  0  0  0  0  0  0  0  0
   38.5220   23.0310   42.1590 H   0  0  0  0  0  0  0  0  0  0  0  0
   37.4440   22.7000   40.3120 C   0  0  0  0  0  0  0  0  0  0  0  0
   38.0010   21.4200   40.0500 C   0  0  0  0  0  0  0  0  0  0  0  0
   38.8600   20.9900   40.5400 H   0  0  0  0  0  0  0  0  0  0  0  0
   36.8980   20.7680   38.7270 S   0  0  0  0  0  0  0  0  0  0  0  0
   35.8690   22.3670   38.7690 C   0  0  0  0  0  0  0  0  0  0  0  0
   34.9710   22.6340   38.1520 H   0  0  0  0  0  0  0  0  0  0  0  0
   36.3860   22.9800   39.5670 N   0  0  0  0  0  0  0  0  0  0  0  0
  1  6  1  0  0  0  0
  1  7  1  0  0  0  0
  2  1  2  0  0  0  0
  3  4  2  0  0  0  0
  3  2  1  0  0  0  0
  4  5  1  0  0  0  0
  5 27  1  0  0  0  0
  5  6  2  0  0  0  0
  7 10  1  0  0  0  0
  7  9  1  0  0  0  0
  8  3  1  0  0  0  0
 11  2  1  0  0  0  0
 11 12  1  0  0  0  0
 12 21  1  0  0  0  0
 13 12  2  0  0  0  0
 13 22  1  0  0  0  0
 14 13  1  0  0  0  0
 15 14  1  0  0  0  0
 16 15  2  0  0  0  0
 17 18  2  0  0  0  0
 17 16  1  0  0  0  0
 18 19  1  0  0  0  0
 19 20  1  0  0  0  0
 19 14  2  0  0  0  0
 20 11  2  0  0  0  0
 23 16  1  0  0  0  0
 24 17  1  0  0  0  0
 25 18  1  0  0  0  0
 26 20  1  0  0  0  0
 27 29  1  0  0  0  0
 28 27  1  0  0  0  0
 30 27  1  0  0  0  0
 30 32  1  0  0  0  0
 31 30  1  0  0  0  0
 33 30  1  0  0  0  0
 34 33  2  0  0  0  0
 34 35  1  0  0  0  0
 36 37  1  0  0  0  0
 36 34  1  0  0  0  0
 37 39  2  0  0  0  0
 38 37  1  0  0  0  0
 39 33  1  0  0  0  0
M  END
>  <minimizedAffinity>
-6.09803391

$$$$

 OpenBabel03242522483D

 39 42  0  0  0  0  0  0  0  0999 V2000
   37.0730   31.2270   40.6390 C   0  0  0  0  0  0  0  0  0  0  0  0
   37.8440   30.2120   40.0580 C   0  0  0  0  0  0  0  0  0  0  0  0
   39.1510   30.5340   39.5770 C   0  0  0  0  0  0  0  0  0  0  0  0
   39.5590   31.8200   39.7200 N   0  0  0  0  0  0  0  0  0  0  0  0
   38.8020   32.7710   40.2810 C   0  0  0  0  0  0  0  0  0  0  0  0
   37.5680   32.4600   40.7320 N   0  0  0  0  0  0  0  0  0  0  0  0
   35.7970   30.9030   41.1060 N   0  0  0  0  0  0  0  0  0  0  0  0
   39.7810   29.8080   39.1270 H   0  0  0  0  0  0  0  0  0  0  0  0
   34.9920   30.6340   40.4860 H   0  0  0  0  0  0  0  0  0  0  0  0
   35.7230   30.9570   42.1550 H   0  0  0  0  0  0  0  0  0  0  0  0
   37.3930   28.8390   39.9120 C   0  0  0  0  0  0  0  0  0  0  0  0
   36.7510   28.2570   38.8510 C   0  0  0  0  0  0  0  0  0  0  0  0
   36.3950   26.9200   38.8960 C   0  0  0  0  0  0  0  0  0  0  0  0
   36.6680   26.1300   39.9950 C   0  0  0  0  0  0  0  0  0  0  0  0
   36.2820   24.8480   39.9380 N   0  0  0  0  0  0  0  0  0  0  0  0
   36.5440   24.0410   41.0200 C   0  0  0  0  0  0  0  0  0  0  0  0
   37.1940   24.6130   42.1080 C   0  0  0  0  0  0  0  0  0  0  0  0
   37.5920   25.9270   42.1710 C   0  0  0  0  0  0  0  0  0  0  0  0
   37.3150   26.7170   41.0630 C   0  0  0  0  0  0  0  0  0  0  0  0
   37.6810   28.0560   41.0380 C   0  0  0  0  0  0  0  0  0  0  0  0
   36.5650   28.9240   38.0200 H   0  0  0  0  0  0  0  0  0  0  0  0
   35.8940   26.5650   38.0050 H   0  0  0  0  0  0  0  0  0  0  0  0
   36.2420   23.0040   40.9970 H   0  0  0  0  0  0  0  0  0  0  0  0
   37.3730   23.9310   42.9300 H   0  0  0  0  0  0  0  0  0  0  0  0
   38.0930   26.3370   43.0270 H   0  0  0  0  0  0  0  0  0  0  0  0
   38.1840   28.4230   41.9280 H   0  0  0  0  0  0  0  0  0  0  0  0
   39.3540   34.1460   40.3880 C   0  0  0  0  0  0  0  0  0  0  0  0
   39.7040   34.2320   41.4570 H   0  0  0  0  0  0  0  0  0  0  0  0
   38.6570   34.9430   40.1370 H   0  0  0  0  0  0  0  0  0  0  0  0
   40.6370   34.2400   39.5400 C   0  0  0  0  0  0  0  0  0  0  0  0
   40.7990   33.2910   39.0140 H   0  0  0  0  0  0  0  0  0  0  0  0
   40.4900   35.0070   38.7740 H   0  0  0  0  0  0  0  0  0  0  0  0
   41.7700   34.5610   40.4600 C   0  0  0  0  0  0  0  0  0  0  0  0
   41.6840   35.6610   41.3530 C   0  0  0  0  0  0  0  0  0  0  0  0
   40.8460   36.3330   41.4530 H   0  0  0  0  0  0  0  0  0  0  0  0
   43.3070   35.5980   42.2230 S   0  0  0  0  0  0  0  0  0  0  0  0
   43.8140   34.0740   41.2050 C   0  0  0  0  0  0  0  0  0  0  0  0
   44.7730   33.4920   41.2520 H   0  0  0  0  0  0  0  0  0  0  0  0
   42.9140   33.8990   40.5440 N   0  0  0  0  0  0  0  0  0  0  0  0
  1  6  1  0  0  0  0
  1  7  1  0  0  0  0
  2  1  2  0  0  0  0
  3  4  2  0  0  0  0
  3  2  1  0  0  0  0
  4  5  1  0  0  0  0
  5 27  1  0  0  0  0
  5  6  2  0  0  0  0
  7 10  1  0  0  0  0
  8  3  1  0  0  0  0
  9  7  1  0  0  0  0
 11  2  1  0  0  0  0
 11 20  1  0  0  0  0
 12 13  1  0  0  0  0
 12 11  2  0  0  0  0
 13 14  2  0  0  0  0
 14 19  1  0  0  0  0
 15 14  1  0  0  0  0
 15 16  2  0  0  0  0
 16 17  1  0  0  0  0
 17 18  2  0  0  0  0
 17 24  1  0  0  0  0
 18 25  1  0  0  0  0
 19 18  1  0  0  0  0
 20 19  2  0  0  0  0
 20 26  1  0  0  0  0
 21 12  1  0  0  0  0
 22 13  1  0  0  0  0
 23 16  1  0  0  0  0
 27 28  1  0  0  0  0
 29 27  1  0  0  0  0
 30 27  1  0  0  0  0
 30 33  1  0  0  0  0
 31 30  1  0  0  0  0
 32 30  1  0  0  0  0
 33 39  1  0  0  0  0
 33 34  2  0  0  0  0
 34 35  1  0  0  0  0
 34 36  1  0  0  0  0
 37 38  1  0  0  0  0
 37 36  1  0  0  0  0
 39 37  2  0  0  0  0
M  END
>  <minimizedAffinity>
-6.09784412

$$$$

 OpenBabel03242522483D

 39 42  0  0  0  0  0  0  0  0999 V2000
   37.2930   28.3010   42.5990 C   0  0  0  0  0  0  0  0  0  0  0  0
   37.5080   28.7650   41.2960 C   0  0  0  0  0  0  0  0  0  0  0  0
   37.5430   27.8170   40.2270 C   0  0  0  0  0  0  0  0  0  0  0  0
   37.3630   26.5130   40.5570 N   0  0  0  0  0  0  0  0  0  0  0  0
   37.1580   26.0950   41.8120 C   0  0  0  0  0  0  0  0  0  0  0  0
   37.1260   26.9970   42.8160 N   0  0  0  0  0  0  0  0  0  0  0  0
   37.2600   29.2350   43.6380 N   0  0  0  0  0  0  0  0  0  0  0  0
   37.7030   28.1080   39.2190 H   0  0  0  0  0  0  0  0  0  0  0  0
   38.0940   29.7870   43.9620 H   0  0  0  0  0  0  0  0  0  0  0  0
   36.3040   29.3310   44.0670 H   0  0  0  0  0  0  0  0  0  0  0  0
   37.6990   30.1650   40.9590 C   0  0  0  0  0  0  0  0  0  0  0  0
   36.7630   31.0880   40.5730 C   0  0  0  0  0  0  0  0  0  0  0  0
   37.1380   32.3900   40.2890 C   0  0  0  0  0  0  0  0  0  0  0  0
   38.4510   32.8050   40.3790 C   0  0  0  0  0  0  0  0  0  0  0  0
   38.7100   34.0860   40.0820 N   0  0  0  0  0  0  0  0  0  0  0  0
   40.0110   34.5240   40.1660 C   0  0  0  0  0  0  0  0  0  0  0  0
   40.9770   33.6020   40.5550 C   0  0  0  0  0  0  0  0  0  0  0  0
   40.7160   32.2880   40.8610 C   0  0  0  0  0  0  0  0  0  0  0  0
   39.3940   31.8740   40.7680 C   0  0  0  0  0  0  0  0  0  0  0  0
   39.0380   30.5640   41.0580 C   0  0  0  0  0  0  0  0  0  0  0  0
   35.7520   30.7040   40.5200 H   0  0  0  0  0  0  0  0  0  0  0  0
   36.3190   33.0320   39.9950 H   0  0  0  0  0  0  0  0  0  0  0  0
   40.2430   35.5520   39.9310 H   0  0  0  0  0  0  0  0  0  0  0  0
   41.9820   34.0030   40.6030 H   0  0  0  0  0  0  0  0  0  0  0  0
   41.4870   31.6020   41.1590 H   0  0  0  0  0  0  0  0  0  0  0  0
   39.8540   29.9100   41.3530 H   0  0  0  0  0  0  0  0  0  0  0  0
   36.9680   24.6420   42.0540 C   0  0  0  0  0  0  0  0  0  0  0  0
   36.0440   24.3710   41.4660 H   0  0  0  0  0  0  0  0  0  0  0  0
   36.8660   24.3600   43.1000 H   0  0  0  0  0  0  0  0  0  0  0  0
   38.1140   23.8660   41.3780 C   0  0  0  0  0  0  0  0  0  0  0  0
   38.7890   24.5720   40.8780 H   0  0  0  0  0  0  0  0  0  0  0  0
   38.6980   23.3630   42.1540 H   0  0  0  0  0  0  0  0  0  0  0  0
   37.5050   22.9050   40.4090 C   0  0  0  0  0  0  0  0  0  0  0  0
   38.1270   21.6560   40.1450 C   0  0  0  0  0  0  0  0  0  0  0  0
   39.0420   21.2970   40.5880 H   0  0  0  0  0  0  0  0  0  0  0  0
   36.9870   20.8940   38.9150 S   0  0  0  0  0  0  0  0  0  0  0  0
   35.8600   22.4240   38.9820 C   0  0  0  0  0  0  0  0  0  0  0  0
   34.9090   22.6140   38.4180 H   0  0  0  0  0  0  0  0  0  0  0  0
   36.3850   23.0940   39.7280 N   0  0  0  0  0  0  0  0  0  0  0  0
  1  6  1  0  0  0  0
  1  7  1  0  0  0  0
  2  1  2  0  0  0  0
  3  4  2  0  0  0  0
  3  2  1  0  0  0  0
  4  5  1  0  0  0  0
  5 27  1  0  0  0  0
  5  6  2  0  0  0  0
  7  9  1  0  0  0  0
  7 10  1  0  0  0  0
  8  3  1  0  0  0  0
 11 20  1  0  0  0  0
 11  2  1  0  0  0  0
 12 11  2  0  0  0  0
 13 14  2  0  0  0  0
 13 12  1  0  0  0  0
 14 19  1  0  0  0  0
 15 16  2  0  0  0  0
 15 14  1  0  0  0  0
 16 17  1  0  0  0  0
 17 24  1  0  0  0  0
 17 18  2  0  0  0  0
 18 25  1  0  0  0  0
 19 18  1  0  0  0  0
 19 20  2  0  0  0  0
 20 26  1  0  0  0  0
 21 12  1  0  0  0  0
 22 13  1  0  0  0  0
 23 16  1  0  0  0  0
 27 29  1  0  0  0  0
 28 27  1  0  0  0  0
 30 27  1  0  0  0  0
 30 32  1  0  0  0  0
 31 30  1  0  0  0  0
 33 30  1  0  0  0  0
 34 33  2  0  0  0  0
 34 35  1  0  0  0  0
 36 37  1  0  0  0  0
 36 34  1  0  0  0  0
 37 39  2  0  0  0  0
 38 37  1  0  0  0  0
 39 33  1  0  0  0  0
M  END
>  <minimizedAffinity>
-5.99015284

$$$$

 OpenBabel03242522483D

 39 42  0  0  0  0  0  0  0  0999 V2000
   35.9830   30.5180   39.9970 C   0  0  0  0  0  0  0  0  0  0  0  0
   36.8840   31.1470   39.1290 C   0  0  0  0  0  0  0  0  0  0  0  0
   36.9880   30.6700   37.7850 C   0  0  0  0  0  0  0  0  0  0  0  0
   36.1950   29.6240   37.4410 N   0  0  0  0  0  0  0  0  0  0  0  0
   35.3410   29.0410   38.2910 C   0  0  0  0  0  0  0  0  0  0  0  0
   35.2480   29.4970   39.5580 N   0  0  0  0  0  0  0  0  0  0  0  0
   35.8870   30.9910   41.3080 N   0  0  0  0  0  0  0  0  0  0  0  0
   37.6530   31.1060   37.0820 H   0  0  0  0  0  0  0  0  0  0  0  0
   36.6520   30.9060   42.0240 H   0  0  0  0  0  0  0  0  0  0  0  0
   34.9600   31.4480   41.5070 H   0  0  0  0  0  0  0  0  0  0  0  0
   37.7260   32.2670   39.5120 C   0  0  0  0  0  0  0  0  0  0  0  0
   37.3830   33.5850   39.6630 C   0  0  0  0  0  0  0  0  0  0  0  0
   38.3340   34.5180   40.0370 C   0  0  0  0  0  0  0  0  0  0  0  0
   39.6480   34.1660   40.2680 C   0  0  0  0  0  0  0  0  0  0  0  0
   40.4900   35.1450   40.6260 N   0  0  0  0  0  0  0  0  0  0  0  0
   41.8050   34.8180   40.8620 C   0  0  0  0  0  0  0  0  0  0  0  0
   42.1750   33.4860   40.7140 C   0  0  0  0  0  0  0  0  0  0  0  0
   41.3150   32.4790   40.3470 C   0  0  0  0  0  0  0  0  0  0  0  0
   39.9940   32.8380   40.1150 C   0  0  0  0  0  0  0  0  0  0  0  0
   39.0550   31.8860   39.7420 C   0  0  0  0  0  0  0  0  0  0  0  0
   36.3400   33.8000   39.4680 H   0  0  0  0  0  0  0  0  0  0  0  0
   37.9530   35.5260   40.1270 H   0  0  0  0  0  0  0  0  0  0  0  0
   42.5020   35.5910   41.1520 H   0  0  0  0  0  0  0  0  0  0  0  0
   43.2210   33.2880   40.9120 H   0  0  0  0  0  0  0  0  0  0  0  0
   41.6330   31.4590   40.2410 H   0  0  0  0  0  0  0  0  0  0  0  0
   39.4270   30.8700   39.6480 H   0  0  0  0  0  0  0  0  0  0  0  0
   34.5190   27.9050   37.8020 C   0  0  0  0  0  0  0  0  0  0  0  0
   33.5720   27.9510   38.4150 H   0  0  0  0  0  0  0  0  0  0  0  0
   34.9910   26.9280   37.8820 H   0  0  0  0  0  0  0  0  0  0  0  0
   34.0730   28.1920   36.3560 C   0  0  0  0  0  0  0  0  0  0  0  0
   34.6460   29.0390   35.9580 H   0  0  0  0  0  0  0  0  0  0  0  0
   34.3190   27.3230   35.7390 H   0  0  0  0  0  0  0  0  0  0  0  0
   32.6070   28.4810   36.3790 C   0  0  0  0  0  0  0  0  0  0  0  0
   31.6820   27.5600   35.8190 C   0  0  0  0  0  0  0  0  0  0  0  0
   31.9280   26.6200   35.3510 H   0  0  0  0  0  0  0  0  0  0  0  0
   30.0640   28.3900   36.1110 S   0  0  0  0  0  0  0  0  0  0  0  0
   30.9440   29.8530   36.9500 C   0  0  0  0  0  0  0  0  0  0  0  0
   30.4900   30.7790   37.3920 H   0  0  0  0  0  0  0  0  0  0  0  0
   32.0350   29.5600   36.8920 N   0  0  0  0  0  0  0  0  0  0  0  0
  1  7  1  0  0  0  0
  2 11  1  0  0  0  0
  2  1  2  0  0  0  0
  3  2  1  0  0  0  0
  4  3  2  0  0  0  0
  4  5  1  0  0  0  0
  5  6  2  0  0  0  0
  6  1  1  0  0  0  0
  7 10  1  0  0  0  0
  7  9  1  0  0  0  0
  8  3  1  0  0  0  0
 11 12  2  0  0  0  0
 11 20  1  0  0  0  0
 12 13  1  0  0  0  0
 13 22  1  0  0  0  0
 13 14  2  0  0  0  0
 14 15  1  0  0  0  0
 15 16  2  0  0  0  0
 16 23  1  0  0  0  0
 17 16  1  0  0  0  0
 17 24  1  0  0  0  0
 18 17  2  0  0  0  0
 19 14  1  0  0  0  0
 19 18  1  0  0  0  0
 20 19  2  0  0  0  0
 21 12  1  0  0  0  0
 25 18  1  0  0  0  0
 26 20  1  0  0  0  0
 27 29  1  0  0  0  0
 27  5  1  0  0  0  0
 27 28  1  0  0  0  0
 30 33  1  0  0  0  0
 30 27  1  0  0  0  0
 31 30  1  0  0  0  0
 32 30  1  0  0  0  0
 33 39  1  0  0  0  0
 34 36  1  0  0  0  0
 34 33  2  0  0  0  0
 35 34  1  0  0  0  0
 36 37  1  0  0  0  0
 37 38  1  0  0  0  0
 39 37  2  0  0  0  0
M  END
>  <minimizedAffinity>
-5.85787582

$$$$

 OpenBabel03242522483D

 39 42  0  0  0  0  0  0  0  0999 V2000
   38.8380   31.7870   40.5140 C   0  0  0  0  0  0  0  0  0  0  0  0
   37.6030   32.0040   39.8900 C   0  0  0  0  0  0  0  0  0  0  0  0
   37.2240   33.3430   39.5640 C   0  0  0  0  0  0  0  0  0  0  0  0
   38.1020   34.3260   39.8880 N   0  0  0  0  0  0  0  0  0  0  0  0
   39.2780   34.0910   40.4830 C   0  0  0  0  0  0  0  0  0  0  0  0
   39.6290   32.8240   40.7880 N   0  0  0  0  0  0  0  0  0  0  0  0
   39.2000   30.4750   40.8290 N   0  0  0  0  0  0  0  0  0  0  0  0
   36.3010   33.5690   39.0920 H   0  0  0  0  0  0  0  0  0  0  0  0
   38.7190   29.8890   41.5560 H   0  0  0  0  0  0  0  0  0  0  0  0
   40.0130   30.1300   40.2560 H   0  0  0  0  0  0  0  0  0  0  0  0
   36.6730   30.9410   39.5500 C   0  0  0  0  0  0  0  0  0  0  0  0
   35.8220   30.2510   40.3730 C   0  0  0  0  0  0  0  0  0  0  0  0
   35.0030   29.2600   39.8620 C   0  0  0  0  0  0  0  0  0  0  0  0
   35.0100   28.9290   38.5220 C   0  0  0  0  0  0  0  0  0  0  0  0
   34.1780   27.9540   38.1270 N   0  0  0  0  0  0  0  0  0  0  0  0
   34.1670   27.6070   36.7970 C   0  0  0  0  0  0  0  0  0  0  0  0
   35.0240   28.2940   35.9450 C   0  0  0  0  0  0  0  0  0  0  0  0
   35.8780   29.2940   36.3440 C   0  0  0  0  0  0  0  0  0  0  0  0
   35.8680   29.6240   37.6930 C   0  0  0  0  0  0  0  0  0  0  0  0
   36.6970   30.6220   38.1860 C   0  0  0  0  0  0  0  0  0  0  0  0
   35.8610   30.5540   41.4110 H   0  0  0  0  0  0  0  0  0  0  0  0
   34.3720   28.7820   40.5990 H   0  0  0  0  0  0  0  0  0  0  0  0
   33.5050   26.8240   36.4560 H   0  0  0  0  0  0  0  0  0  0  0  0
   34.9720   27.9780   34.9100 H   0  0  0  0  0  0  0  0  0  0  0  0
   36.5270   29.8050   35.6590 H   0  0  0  0  0  0  0  0  0  0  0  0
   37.3350   31.1070   37.4530 H   0  0  0  0  0  0  0  0  0  0  0  0
   40.1620   35.2460   40.7870 C   0  0  0  0  0  0  0  0  0  0  0  0
   40.4050   35.1410   41.8840 H   0  0  0  0  0  0  0  0  0  0  0  0
   39.7320   36.2230   40.5710 H   0  0  0  0  0  0  0  0  0  0  0  0
   41.5060   35.0550   40.0600 C   0  0  0  0  0  0  0  0  0  0  0  0
   41.4280   34.2120   39.3620 H   0  0  0  0  0  0  0  0  0  0  0  0
   41.7040   35.9480   39.4590 H   0  0  0  0  0  0  0  0  0  0  0  0
   42.5560   34.8190   41.0960 C   0  0  0  0  0  0  0  0  0  0  0  0
   43.2970   33.6080   41.1080 C   0  0  0  0  0  0  0  0  0  0  0  0
   43.1840   32.7880   40.4170 H   0  0  0  0  0  0  0  0  0  0  0  0
   44.4210   33.8410   42.5490 S   0  0  0  0  0  0  0  0  0  0  0  0
   43.6750   35.5600   42.8770 C   0  0  0  0  0  0  0  0  0  0  0  0
   43.9410   36.2930   43.6840 H   0  0  0  0  0  0  0  0  0  0  0  0
   42.8980   35.6600   42.0600 N   0  0  0  0  0  0  0  0  0  0  0  0
  1  6  1  0  0  0  0
  1  7  1  0  0  0  0
  2  1  2  0  0  0  0
  3  4  2  0  0  0  0
  3  2  1  0  0  0  0
  4  5  1  0  0  0  0
  5 27  1  0  0  0  0
  5  6  2  0  0  0  0
  7  9  1  0  0  0  0
  8  3  1  0  0  0  0
 10  7  1  0  0  0  0
 11  2  1  0  0  0  0
 11 12  1  0  0  0  0
 12 21  1  0  0  0  0
 13 12  2  0  0  0  0
 13 22  1  0  0  0  0
 14 13  1  0  0  0  0
 15 14  1  0  0  0  0
 16 15  2  0  0  0  0
 17 18  2  0  0  0  0
 17 16  1  0  0  0  0
 18 19  1  0  0  0  0
 19 20  1  0  0  0  0
 19 14  2  0  0  0  0
 20 11  2  0  0  0  0
 23 16  1  0  0  0  0
 24 17  1  0  0  0  0
 25 18  1  0  0  0  0
 26 20  1  0  0  0  0
 27 28  1  0  0  0  0
 29 27  1  0  0  0  0
 30 27  1  0  0  0  0
 30 33  1  0  0  0  0
 31 30  1  0  0  0  0
 32 30  1  0  0  0  0
 33 34  2  0  0  0  0
 33 39  1  0  0  0  0
 34 36  1  0  0  0  0
 35 34  1  0  0  0  0
 36 37  1  0  0  0  0
 37 38  1  0  0  0  0
 39 37  2  0  0  0  0
M  END
>  <minimizedAffinity>
-5.84518814

$$$$

 OpenBabel03242522483D

 39 42  0  0  0  0  0  0  0  0999 V2000
   36.7670   28.5130   41.7710 C   0  0  0  0  0  0  0  0  0  0  0  0
   37.3410   27.7960   40.7140 C   0  0  0  0  0  0  0  0  0  0  0  0
   37.7770   28.5130   39.5560 C   0  0  0  0  0  0  0  0  0  0  0  0
   37.5990   29.8580   39.5640 N   0  0  0  0  0  0  0  0  0  0  0  0
   37.0480   30.5190   40.5890 C   0  0  0  0  0  0  0  0  0  0  0  0
   36.6390   29.8360   41.6790 N   0  0  0  0  0  0  0  0  0  0  0  0
   36.3450   27.8040   42.8990 N   0  0  0  0  0  0  0  0  0  0  0  0
   38.2180   28.0240   38.7240 H   0  0  0  0  0  0  0  0  0  0  0  0
   35.5380   27.1310   42.9050 H   0  0  0  0  0  0  0  0  0  0  0  0
   36.9240   28.0170   43.7520 H   0  0  0  0  0  0  0  0  0  0  0  0
   37.5250   26.3550   40.7210 C   0  0  0  0  0  0  0  0  0  0  0  0
   38.3960   25.6070   41.4690 C   0  0  0  0  0  0  0  0  0  0  0  0
   38.4280   24.2300   41.3370 C   0  0  0  0  0  0  0  0  0  0  0  0
   37.5980   23.5630   40.4590 C   0  0  0  0  0  0  0  0  0  0  0  0
   37.7070   22.2280   40.4060 N   0  0  0  0  0  0  0  0  0  0  0  0
   36.8900   21.5420   39.5390 C   0  0  0  0  0  0  0  0  0  0  0  0
   36.0000   22.2830   38.7700 C   0  0  0  0  0  0  0  0  0  0  0  0
   35.8840   23.6510   38.8200 C   0  0  0  0  0  0  0  0  0  0  0  0
   36.7210   24.3170   39.7050 C   0  0  0  0  0  0  0  0  0  0  0  0
   36.6720   25.7000   39.8230 C   0  0  0  0  0  0  0  0  0  0  0  0
   39.0200   26.1840   42.1390 H   0  0  0  0  0  0  0  0  0  0  0  0
   39.1520   23.7400   41.9750 H   0  0  0  0  0  0  0  0  0  0  0  0
   36.9620   20.4660   39.4790 H   0  0  0  0  0  0  0  0  0  0  0  0
   35.3830   21.6900   38.1050 H   0  0  0  0  0  0  0  0  0  0  0  0
   35.1840   24.1930   38.2120 H   0  0  0  0  0  0  0  0  0  0  0  0
   35.9490   26.2010   39.1860 H   0  0  0  0  0  0  0  0  0  0  0  0
   36.9070   31.9940   40.4880 C   0  0  0  0  0  0  0  0  0  0  0  0
   37.5170   32.4000   41.3460 H   0  0  0  0  0  0  0  0  0  0  0  0
   35.8840   32.3620   40.5240 H   0  0  0  0  0  0  0  0  0  0  0  0
   37.6290   32.4820   39.2180 C   0  0  0  0  0  0  0  0  0  0  0  0
   38.0540   31.6220   38.6840 H   0  0  0  0  0  0  0  0  0  0  0  0
   36.8900   32.9360   38.5510 H   0  0  0  0  0  0  0  0  0  0  0  0
   38.6900   33.4480   39.6380 C   0  0  0  0  0  0  0  0  0  0  0  0
   40.0630   33.1330   39.4620 C   0  0  0  0  0  0  0  0  0  0  0  0
   40.4550   32.2240   39.0360 H   0  0  0  0  0  0  0  0  0  0  0  0
   40.9050   34.6290   40.1300 S   0  0  0  0  0  0  0  0  0  0  0  0
   39.2230   35.4210   40.5300 C   0  0  0  0  0  0  0  0  0  0  0  0
   39.0160   36.4220   40.9940 H   0  0  0  0  0  0  0  0  0  0  0  0
   38.4840   34.6360   40.1860 N   0  0  0  0  0  0  0  0  0  0  0  0
  1  7  1  0  0  0  0
  2 11  1  0  0  0  0
  2  1  2  0  0  0  0
  3  4  2  0  0  0  0
  3  2  1  0  0  0  0
  4  5  1  0  0  0  0
  5  6  2  0  0  0  0
  6  1  1  0  0  0  0
  7  9  1  0  0  0  0
  7 10  1  0  0  0  0
  8  3  1  0  0  0  0
 11 12  1  0  0  0  0
 12 21  1  0  0  0  0
 13 12  2  0  0  0  0
 13 22  1  0  0  0  0
 14 13  1  0  0  0  0
 15 14  1  0  0  0  0
 16 15  2  0  0  0  0
 17 18  2  0  0  0  0
 17 16  1  0  0  0  0
 18 19  1  0  0  0  0
 19 20  1  0  0  0  0
 19 14  2  0  0  0  0
 20 11  2  0  0  0  0
 23 16  1  0  0  0  0
 24 17  1  0  0  0  0
 25 18  1  0  0  0  0
 26 20  1  0  0  0  0
 27 29  1  0  0  0  0
 27  5  1  0  0  0  0
 27 28  1  0  0  0  0
 30 33  1  0  0  0  0
 30 27  1  0  0  0  0
 31 30  1  0  0  0  0
 32 30  1  0  0  0  0
 33 39  1  0  0  0  0
 34 33  2  0  0  0  0
 34 36  1  0  0  0  0
 35 34  1  0  0  0  0
 36 37  1  0  0  0  0
 37 38  1  0  0  0  0
 39 37  2  0  0  0  0
M  END
>  <minimizedAffinity>
-5.65965796

$$$$

 OpenBabel03242522483D

 39 42  0  0  0  0  0  0  0  0999 V2000
   36.1710   30.5200   40.0130 C   0  0  0  0  0  0  0  0  0  0  0  0
   37.0980   31.1590   39.1820 C   0  0  0  0  0  0  0  0  0  0  0  0
   37.4050   30.5710   37.9150 C   0  0  0  0  0  0  0  0  0  0  0  0
   36.7640   29.4150   37.6040 N   0  0  0  0  0  0  0  0  0  0  0  0
   35.8800   28.8250   38.4180 C   0  0  0  0  0  0  0  0  0  0  0  0
   35.5970   29.3860   39.6120 N   0  0  0  0  0  0  0  0  0  0  0  0
   35.8780   31.1020   41.2490 N   0  0  0  0  0  0  0  0  0  0  0  0
   38.0990   31.0090   37.2430 H   0  0  0  0  0  0  0  0  0  0  0  0
   36.5590   31.1700   42.0460 H   0  0  0  0  0  0  0  0  0  0  0  0
   34.8930   31.4700   41.3000 H   0  0  0  0  0  0  0  0  0  0  0  0
   37.7750   32.3960   39.5290 C   0  0  0  0  0  0  0  0  0  0  0  0
   37.2750   33.6720   39.5420 C   0  0  0  0  0  0  0  0  0  0  0  0
   38.0810   34.7370   39.9040 C   0  0  0  0  0  0  0  0  0  0  0  0
   39.4030   34.5620   40.2610 C   0  0  0  0  0  0  0  0  0  0  0  0
   40.0970   35.6580   40.5950 N   0  0  0  0  0  0  0  0  0  0  0  0
   41.4160   35.5090   40.9540 C   0  0  0  0  0  0  0  0  0  0  0  0
   41.9440   34.2220   40.9470 C   0  0  0  0  0  0  0  0  0  0  0  0
   41.2360   33.0950   40.6060 C   0  0  0  0  0  0  0  0  0  0  0  0
   39.9060   33.2770   40.2480 C   0  0  0  0  0  0  0  0  0  0  0  0
   39.1150   32.1950   39.8880 C   0  0  0  0  0  0  0  0  0  0  0  0
   36.2340   33.7460   39.2540 H   0  0  0  0  0  0  0  0  0  0  0  0
   37.5830   35.6970   39.8800 H   0  0  0  0  0  0  0  0  0  0  0  0
   41.9960   36.3780   41.2270 H   0  0  0  0  0  0  0  0  0  0  0  0
   42.9860   34.1660   41.2380 H   0  0  0  0  0  0  0  0  0  0  0  0
   41.6740   32.1150   40.6110 H   0  0  0  0  0  0  0  0  0  0  0  0
   39.6050   31.2260   39.9090 H   0  0  0  0  0  0  0  0  0  0  0  0
   35.2370   27.5630   37.9700 C   0  0  0  0  0  0  0  0  0  0  0  0
   34.6940   27.8390   37.0200 H   0  0  0  0  0  0  0  0  0  0  0  0
   34.5610   27.1100   38.6920 H   0  0  0  0  0  0  0  0  0  0  0  0
   36.3300   26.5710   37.5300 C   0  0  0  0  0  0  0  0  0  0  0  0
   35.8610   25.6740   37.1060 H   0  0  0  0  0  0  0  0  0  0  0  0
   36.9150   27.0320   36.7290 H   0  0  0  0  0  0  0  0  0  0  0  0
   37.1600   26.2450   38.7290 C   0  0  0  0  0  0  0  0  0  0  0  0
   36.5910   25.5640   39.8370 C   0  0  0  0  0  0  0  0  0  0  0  0
   35.5680   25.2350   39.9210 H   0  0  0  0  0  0  0  0  0  0  0  0
   38.0160   25.4250   40.9970 S   0  0  0  0  0  0  0  0  0  0  0  0
   39.1390   26.3250   39.7540 C   0  0  0  0  0  0  0  0  0  0  0  0
   40.2260   26.5840   39.8580 H   0  0  0  0  0  0  0  0  0  0  0  0
   38.4430   26.5340   38.8870 N   0  0  0  0  0  0  0  0  0  0  0  0
  1  7  1  0  0  0  0
  2 11  1  0  0  0  0
  2  1  2  0  0  0  0
  3  2  1  0  0  0  0
  4  3  2  0  0  0  0
  4  5  1  0  0  0  0
  5  6  2  0  0  0  0
  6  1  1  0  0  0  0
  7 10  1  0  0  0  0
  7  9  1  0  0  0  0
  8  3  1  0  0  0  0
 11 12  2  0  0  0  0
 11 20  1  0  0  0  0
 12 13  1  0  0  0  0
 13 14  2  0  0  0  0
 14 15  1  0  0  0  0
 15 16  2  0  0  0  0
 16 23  1  0  0  0  0
 17 16  1  0  0  0  0
 17 24  1  0  0  0  0
 18 25  1  0  0  0  0
 18 17  2  0  0  0  0
 19 14  1  0  0  0  0
 19 18  1  0  0  0  0
 20 26  1  0  0  0  0
 20 19  2  0  0  0  0
 21 12  1  0  0  0  0
 22 13  1  0  0  0  0
 27  5  1  0  0  0  0
 27 29  1  0  0  0  0
 28 27  1  0  0  0  0
 30 27  1  0  0  0  0
 30 33  1  0  0  0  0
 31 30  1  0  0  0  0
 32 30  1  0  0  0  0
 33 39  1  0  0  0  0
 33 34  2  0  0  0  0
 34 35  1  0  0  0  0
 34 36  1  0  0  0  0
 37 38  1  0  0  0  0
 37 36  1  0  0  0  0
 39 37  2  0  0  0  0
M  END
>  <minimizedAffinity>
-5.63850594

$$$$
