
 OpenBabel03252505523D

 23 24  0  0  0  0  0  0  0  0999 V2000
   38.8580   31.4250   41.3670 C   0  0  0  0  0  0  0  0  0  0  0  0
   37.7930   31.9340   40.6280 C   0  0  0  0  0  0  0  0  0  0  0  0
   36.5820   31.2490   40.6780 C   0  0  0  0  0  0  0  0  0  0  0  0
   36.4920   30.1370   41.4280 N   0  0  0  0  0  0  0  0  0  0  0  0
   37.5280   29.6670   42.1290 C   0  0  0  0  0  0  0  0  0  0  0  0
   38.7260   30.2930   42.1160 N   0  0  0  0  0  0  0  0  0  0  0  0
   39.8300   31.9020   41.3790 H   0  0  0  0  0  0  0  0  0  0  0  0
   35.7780   31.6750   40.0910 H   0  0  0  0  0  0  0  0  0  0  0  0
   38.0510   33.1910   39.8400 C   0  0  0  0  0  0  0  0  0  0  0  0
   36.8830   33.4840   39.2010 F   0  0  0  0  0  0  0  0  0  0  0  0
   39.0350   32.8620   38.9110 F   0  0  0  0  0  0  0  0  0  0  0  0
   38.4750   34.1560   40.7130 F   0  0  0  0  0  0  0  0  0  0  0  0
   37.4650   28.5300   42.9060 O   0  0  0  0  0  0  0  0  0  0  0  0
   38.6050   27.8600   43.3770 C   0  0  0  0  0  0  0  0  0  0  0  0
   39.5410   28.4040   43.1360 H   0  0  0  0  0  0  0  0  0  0  0  0
   38.5720   27.8280   44.4850 H   0  0  0  0  0  0  0  0  0  0  0  0
   38.6600   26.4240   42.9190 C   0  0  0  0  0  0  0  0  0  0  0  0
   37.6970   25.8600   42.0460 C   0  0  0  0  0  0  0  0  0  0  0  0
   36.8380   26.2970   41.5930 H   0  0  0  0  0  0  0  0  0  0  0  0
   38.2650   24.1490   41.8530 S   0  0  0  0  0  0  0  0  0  0  0  0
   39.7410   24.4730   43.0050 C   0  0  0  0  0  0  0  0  0  0  0  0
   40.6760   23.8430   43.4430 H   0  0  0  0  0  0  0  0  0  0  0  0
   39.5900   25.5530   43.2720 N   0  0  0  0  0  0  0  0  0  0  0  0
  1  7  1  0  0  0  0
  1  6  1  0  0  0  0
  2  3  1  0  0  0  0
  2  1  2  0  0  0  0
  3  4  2  0  0  0  0
  4  5  1  0  0  0  0
  5 13  1  0  0  0  0
  6  5  2  0  0  0  0
  8  3  1  0  0  0  0
  9  2  1  0  0  0  0
  9 12  1  0  0  0  0
 10  9  1  0  0  0  0
 11  9  1  0  0  0  0
 13 14  1  0  0  0  0
 14 16  1  0  0  0  0
 15 14  1  0  0  0  0
 17 23  1  0  0  0  0
 17 14  1  0  0  0  0
 18 17  2  0  0  0  0
 19 18  1  0  0  0  0
 20 18  1  0  0  0  0
 20 21  1  0  0  0  0
 21 23  2  0  0  0  0
 21 22  1  0  0  0  0
M  END
>  <minimizedAffinity>
-4.58926868

$$$$

 OpenBabel03252505523D

 23 24  0  0  0  0  0  0  0  0999 V2000
   38.8200   31.3240   41.4600 C   0  0  0  0  0  0  0  0  0  0  0  0
   37.8600   31.9570   40.6760 C   0  0  0  0  0  0  0  0  0  0  0  0
   36.5900   31.3900   40.6190 C   0  0  0  0  0  0  0  0  0  0  0  0
   36.3460   30.2670   41.3160 N   0  0  0  0  0  0  0  0  0  0  0  0
   37.2840   29.6770   42.0630 C   0  0  0  0  0  0  0  0  0  0  0  0
   38.5330   30.1850   42.1530 N   0  0  0  0  0  0  0  0  0  0  0  0
   39.8290   31.7050   41.5540 H   0  0  0  0  0  0  0  0  0  0  0  0
   35.8710   31.9110   39.9990 H   0  0  0  0  0  0  0  0  0  0  0  0
   38.2870   33.2090   39.9570 C   0  0  0  0  0  0  0  0  0  0  0  0
   38.8460   34.0180   40.9030 F   0  0  0  0  0  0  0  0  0  0  0  0
   37.1180   33.7850   39.4650 F   0  0  0  0  0  0  0  0  0  0  0  0
   39.1400   32.8460   38.9500 F   0  0  0  0  0  0  0  0  0  0  0  0
   37.0620   28.5250   42.7880 O   0  0  0  0  0  0  0  0  0  0  0  0
   36.9550   27.2560   42.1970 C   0  0  0  0  0  0  0  0  0  0  0  0
   35.9690   26.7860   42.3890 H   0  0  0  0  0  0  0  0  0  0  0  0
   37.0070   27.3670   41.0950 H   0  0  0  0  0  0  0  0  0  0  0  0
   38.0930   26.3430   42.5800 C   0  0  0  0  0  0  0  0  0  0  0  0
   38.1650   24.9900   42.1670 C   0  0  0  0  0  0  0  0  0  0  0  0
   37.4960   24.4160   41.5670 H   0  0  0  0  0  0  0  0  0  0  0  0
   39.7130   24.4110   42.9110 S   0  0  0  0  0  0  0  0  0  0  0  0
   40.0230   26.1220   43.6780 C   0  0  0  0  0  0  0  0  0  0  0  0
   40.8710   26.6420   44.3670 H   0  0  0  0  0  0  0  0  0  0  0  0
   39.1250   26.6970   43.3260 N   0  0  0  0  0  0  0  0  0  0  0  0
  1  7  1  0  0  0  0
  1  6  1  0  0  0  0
  2  1  2  0  0  0  0
  3  2  1  0  0  0  0
  3  4  2  0  0  0  0
  4  5  1  0  0  0  0
  5  6  2  0  0  0  0
  5 13  1  0  0  0  0
  8  3  1  0  0  0  0
  9  2  1  0  0  0  0
  9 10  1  0  0  0  0
 11  9  1  0  0  0  0
 12  9  1  0  0  0  0
 14 15  1  0  0  0  0
 14 17  1  0  0  0  0
 14 13  1  0  0  0  0
 16 14  1  0  0  0  0
 17 23  1  0  0  0  0
 18 17  2  0  0  0  0
 18 20  1  0  0  0  0
 19 18  1  0  0  0  0
 20 21  1  0  0  0  0
 21 22  1  0  0  0  0
 23 21  2  0  0  0  0
M  END
>  <minimizedAffinity>
-4.5737462

$$$$

 OpenBabel03252505523D

 23 24  0  0  0  0  0  0  0  0999 V2000
   37.8810   29.2050   42.4020 C   0  0  0  0  0  0  0  0  0  0  0  0
   36.8830   28.2830   42.0940 C   0  0  0  0  0  0  0  0  0  0  0  0
   35.8880   28.6760   41.2040 C   0  0  0  0  0  0  0  0  0  0  0  0
   35.9300   29.9150   40.6840 N   0  0  0  0  0  0  0  0  0  0  0  0
   36.8980   30.7830   40.9940 C   0  0  0  0  0  0  0  0  0  0  0  0
   37.8880   30.4530   41.8530 N   0  0  0  0  0  0  0  0  0  0  0  0
   38.6880   28.9730   43.0850 H   0  0  0  0  0  0  0  0  0  0  0  0
   35.1310   27.9320   40.9890 H   0  0  0  0  0  0  0  0  0  0  0  0
   36.9760   26.9340   42.7570 C   0  0  0  0  0  0  0  0  0  0  0  0
   35.9730   26.8960   43.6800 F   0  0  0  0  0  0  0  0  0  0  0  0
   38.2140   26.9070   43.3940 F   0  0  0  0  0  0  0  0  0  0  0  0
   36.8830   25.9780   41.7820 F   0  0  0  0  0  0  0  0  0  0  0  0
   36.9670   32.0590   40.4760 O   0  0  0  0  0  0  0  0  0  0  0  0
   37.1570   32.3230   39.1100 C   0  0  0  0  0  0  0  0  0  0  0  0
   36.5700   31.6370   38.4660 H   0  0  0  0  0  0  0  0  0  0  0  0
   36.7650   33.3340   38.8810 H   0  0  0  0  0  0  0  0  0  0  0  0
   38.6150   32.3410   38.7240 C   0  0  0  0  0  0  0  0  0  0  0  0
   39.1270   31.6060   37.6270 C   0  0  0  0  0  0  0  0  0  0  0  0
   38.6320   30.9630   36.9360 H   0  0  0  0  0  0  0  0  0  0  0  0
   40.8950   32.0070   37.6500 S   0  0  0  0  0  0  0  0  0  0  0  0
   40.6560   33.1260   39.1670 C   0  0  0  0  0  0  0  0  0  0  0  0
   41.3510   33.8220   39.8710 H   0  0  0  0  0  0  0  0  0  0  0  0
   39.5530   33.0300   39.3520 N   0  0  0  0  0  0  0  0  0  0  0  0
  1  7  1  0  0  0  0
  2  1  1  0  0  0  0
  2  9  1  0  0  0  0
  3  2  2  0  0  0  0
  4  5  2  0  0  0  0
  4  3  1  0  0  0  0
  5  6  1  0  0  0  0
  6  1  2  0  0  0  0
  8  3  1  0  0  0  0
  9 11  1  0  0  0  0
  9 10  1  0  0  0  0
 12  9  1  0  0  0  0
 13  5  1  0  0  0  0
 14 13  1  0  0  0  0
 15 14  1  0  0  0  0
 16 14  1  0  0  0  0
 17 14  1  0  0  0  0
 17 23  1  0  0  0  0
 18 20  1  0  0  0  0
 18 17  2  0  0  0  0
 19 18  1  0  0  0  0
 20 21  1  0  0  0  0
 21 23  2  0  0  0  0
 21 22  1  0  0  0  0
M  END
>  <minimizedAffinity>
-4.56861448

$$$$

 OpenBabel03252505523D

 23 24  0  0  0  0  0  0  0  0999 V2000
   36.8560   27.0410   40.7930 C   0  0  0  0  0  0  0  0  0  0  0  0
   37.3810   26.5830   41.9990 C   0  0  0  0  0  0  0  0  0  0  0  0
   37.5450   27.5050   43.0280 C   0  0  0  0  0  0  0  0  0  0  0  0
   37.1930   28.7860   42.8180 N   0  0  0  0  0  0  0  0  0  0  0  0
   36.6910   29.2020   41.6510 C   0  0  0  0  0  0  0  0  0  0  0  0
   36.5110   28.3480   40.6190 N   0  0  0  0  0  0  0  0  0  0  0  0
   36.6990   26.3830   39.9470 H   0  0  0  0  0  0  0  0  0  0  0  0
   37.9560   27.1130   43.9500 H   0  0  0  0  0  0  0  0  0  0  0  0
   37.7240   25.1190   42.0790 C   0  0  0  0  0  0  0  0  0  0  0  0
   37.9780   24.7190   40.8000 F   0  0  0  0  0  0  0  0  0  0  0  0
   36.5810   24.4860   42.5610 F   0  0  0  0  0  0  0  0  0  0  0  0
   38.7840   24.9810   42.9340 F   0  0  0  0  0  0  0  0  0  0  0  0
   36.3210   30.5090   41.4080 O   0  0  0  0  0  0  0  0  0  0  0  0
   36.5860   31.1660   40.1950 C   0  0  0  0  0  0  0  0  0  0  0  0
   36.7290   30.4560   39.3560 H   0  0  0  0  0  0  0  0  0  0  0  0
   35.6990   31.7670   39.9110 H   0  0  0  0  0  0  0  0  0  0  0  0
   37.7330   32.1390   40.3060 C   0  0  0  0  0  0  0  0  0  0  0  0
   37.6480   33.4800   39.8560 C   0  0  0  0  0  0  0  0  0  0  0  0
   36.8400   34.0040   39.4000 H   0  0  0  0  0  0  0  0  0  0  0  0
   39.2880   34.1500   40.2400 S   0  0  0  0  0  0  0  0  0  0  0  0
   39.8390   32.4800   40.9600 C   0  0  0  0  0  0  0  0  0  0  0  0
   40.8380   32.0210   41.4650 H   0  0  0  0  0  0  0  0  0  0  0  0
   38.9160   31.8550   40.8220 N   0  0  0  0  0  0  0  0  0  0  0  0
  1  2  1  0  0  0  0
  2  9  1  0  0  0  0
  2  3  2  0  0  0  0
  3  8  1  0  0  0  0
  4  3  1  0  0  0  0
  5  4  2  0  0  0  0
  6  1  2  0  0  0  0
  6  5  1  0  0  0  0
  7  1  1  0  0  0  0
  9 11  1  0  0  0  0
  9 12  1  0  0  0  0
 10  9  1  0  0  0  0
 13  5  1  0  0  0  0
 14 17  1  0  0  0  0
 14 13  1  0  0  0  0
 15 14  1  0  0  0  0
 16 14  1  0  0  0  0
 17 23  1  0  0  0  0
 18 20  1  0  0  0  0
 18 17  2  0  0  0  0
 19 18  1  0  0  0  0
 20 21  1  0  0  0  0
 21 22  1  0  0  0  0
 23 21  2  0  0  0  0
M  END
>  <minimizedAffinity>
-4.51047945

$$$$

 OpenBabel03252505523D

 23 24  0  0  0  0  0  0  0  0999 V2000
   36.4670   31.0120   40.5070 C   0  0  0  0  0  0  0  0  0  0  0  0
   37.6750   31.6510   40.2390 C   0  0  0  0  0  0  0  0  0  0  0  0
   38.7860   31.2830   40.9930 C   0  0  0  0  0  0  0  0  0  0  0  0
   38.6480   30.3380   41.9390 N   0  0  0  0  0  0  0  0  0  0  0  0
   37.4780   29.7380   42.1790 C   0  0  0  0  0  0  0  0  0  0  0  0
   36.3690   30.0570   41.4760 N   0  0  0  0  0  0  0  0  0  0  0  0
   35.5610   31.2430   39.9630 H   0  0  0  0  0  0  0  0  0  0  0  0
   39.7070   31.8020   40.7560 H   0  0  0  0  0  0  0  0  0  0  0  0
   37.6680   32.6870   39.1470 C   0  0  0  0  0  0  0  0  0  0  0  0
   37.1730   32.0660   38.0380 F   0  0  0  0  0  0  0  0  0  0  0  0
   39.0010   33.0360   38.9440 F   0  0  0  0  0  0  0  0  0  0  0  0
   36.9220   33.7490   39.5790 F   0  0  0  0  0  0  0  0  0  0  0  0
   37.3070   28.7660   43.1410 O   0  0  0  0  0  0  0  0  0  0  0  0
   36.6460   27.5520   42.8950 C   0  0  0  0  0  0  0  0  0  0  0  0
   35.9320   27.2920   43.7030 H   0  0  0  0  0  0  0  0  0  0  0  0
   36.0200   27.6610   41.9870 H   0  0  0  0  0  0  0  0  0  0  0  0
   37.6030   26.4210   42.6110 C   0  0  0  0  0  0  0  0  0  0  0  0
   37.2400   25.2810   41.8520 C   0  0  0  0  0  0  0  0  0  0  0  0
   36.3150   25.0290   41.3860 H   0  0  0  0  0  0  0  0  0  0  0  0
   38.7570   24.2890   41.8430 S   0  0  0  0  0  0  0  0  0  0  0  0
   39.6580   25.5980   42.8860 C   0  0  0  0  0  0  0  0  0  0  0  0
   40.7620   25.7460   43.3580 H   0  0  0  0  0  0  0  0  0  0  0  0
   38.8560   26.3710   43.0280 N   0  0  0  0  0  0  0  0  0  0  0  0
  1  6  1  0  0  0  0
  2  1  2  0  0  0  0
  2  3  1  0  0  0  0
  3  4  2  0  0  0  0
  4  5  1  0  0  0  0
  5 13  1  0  0  0  0
  6  5  2  0  0  0  0
  7  1  1  0  0  0  0
  8  3  1  0  0  0  0
  9 12  1  0  0  0  0
  9  2  1  0  0  0  0
 10  9  1  0  0  0  0
 11  9  1  0  0  0  0
 14 13  1  0  0  0  0
 14 15  1  0  0  0  0
 16 14  1  0  0  0  0
 17 14  1  0  0  0  0
 17 23  1  0  0  0  0
 18 17  2  0  0  0  0
 19 18  1  0  0  0  0
 20 18  1  0  0  0  0
 20 21  1  0  0  0  0
 21 23  2  0  0  0  0
 21 22  1  0  0  0  0
M  END
>  <minimizedAffinity>
-4.45277023

$$$$

 OpenBabel03252505523D

 23 24  0  0  0  0  0  0  0  0999 V2000
   36.0640   28.6750   41.4880 C   0  0  0  0  0  0  0  0  0  0  0  0
   36.7980   27.4900   41.4860 C   0  0  0  0  0  0  0  0  0  0  0  0
   37.3610   27.0770   40.2820 C   0  0  0  0  0  0  0  0  0  0  0  0
   37.1760   27.8290   39.1830 N   0  0  0  0  0  0  0  0  0  0  0  0
   36.4680   28.9630   39.2090 C   0  0  0  0  0  0  0  0  0  0  0  0
   35.9000   29.4100   40.3510 N   0  0  0  0  0  0  0  0  0  0  0  0
   35.5970   29.0600   42.3850 H   0  0  0  0  0  0  0  0  0  0  0  0
   37.9240   26.1530   40.3200 H   0  0  0  0  0  0  0  0  0  0  0  0
   36.9160   26.7620   42.7980 C   0  0  0  0  0  0  0  0  0  0  0  0
   36.0220   27.3530   43.6420 F   0  0  0  0  0  0  0  0  0  0  0  0
   38.2160   26.9880   43.2440 F   0  0  0  0  0  0  0  0  0  0  0  0
   36.6810   25.4340   42.5660 F   0  0  0  0  0  0  0  0  0  0  0  0
   36.2610   29.7540   38.0990 O   0  0  0  0  0  0  0  0  0  0  0  0
   37.2930   30.4620   37.4610 C   0  0  0  0  0  0  0  0  0  0  0  0
   38.0850   29.7910   37.0730 H   0  0  0  0  0  0  0  0  0  0  0  0
   36.8810   30.9650   36.5630 H   0  0  0  0  0  0  0  0  0  0  0  0
   37.8630   31.5560   38.3290 C   0  0  0  0  0  0  0  0  0  0  0  0
   39.2430   31.6540   38.6330 C   0  0  0  0  0  0  0  0  0  0  0  0
   40.0590   31.0360   38.3370 H   0  0  0  0  0  0  0  0  0  0  0  0
   39.3320   33.1270   39.6860 S   0  0  0  0  0  0  0  0  0  0  0  0
   37.4540   33.3820   39.5460 C   0  0  0  0  0  0  0  0  0  0  0  0
   36.6350   34.1700   39.9600 H   0  0  0  0  0  0  0  0  0  0  0  0
   37.1540   32.5220   38.8880 N   0  0  0  0  0  0  0  0  0  0  0  0
  1  7  1  0  0  0  0
  2  1  1  0  0  0  0
  2  9  1  0  0  0  0
  3  8  1  0  0  0  0
  3  2  2  0  0  0  0
  4  5  2  0  0  0  0
  4  3  1  0  0  0  0
  5  6  1  0  0  0  0
  6  1  2  0  0  0  0
  9 11  1  0  0  0  0
  9 10  1  0  0  0  0
 12  9  1  0  0  0  0
 13  5  1  0  0  0  0
 14 13  1  0  0  0  0
 14 17  1  0  0  0  0
 15 14  1  0  0  0  0
 16 14  1  0  0  0  0
 17 18  2  0  0  0  0
 17 23  1  0  0  0  0
 18 20  1  0  0  0  0
 19 18  1  0  0  0  0
 21 20  1  0  0  0  0
 21 22  1  0  0  0  0
 23 21  2  0  0  0  0
M  END
>  <minimizedAffinity>
-4.31732416

$$$$

 OpenBabel03252505523D

 23 24  0  0  0  0  0  0  0  0999 V2000
   39.4650   26.7480   42.2050 C   0  0  0  0  0  0  0  0  0  0  0  0
   38.4440   25.8010   42.1610 C   0  0  0  0  0  0  0  0  0  0  0  0
   37.1320   26.2630   42.1070 C   0  0  0  0  0  0  0  0  0  0  0  0
   36.9060   27.5890   42.0980 N   0  0  0  0  0  0  0  0  0  0  0  0
   37.9030   28.4780   42.1410 C   0  0  0  0  0  0  0  0  0  0  0  0
   39.1950   28.0840   42.1940 N   0  0  0  0  0  0  0  0  0  0  0  0
   40.5090   26.4660   42.2480 H   0  0  0  0  0  0  0  0  0  0  0  0
   36.3660   25.4980   42.0740 H   0  0  0  0  0  0  0  0  0  0  0  0
   38.8580   24.3540   42.1760 C   0  0  0  0  0  0  0  0  0  0  0  0
   37.7030   23.6290   42.1850 F   0  0  0  0  0  0  0  0  0  0  0  0
   39.5500   24.1670   43.3700 F   0  0  0  0  0  0  0  0  0  0  0  0
   39.6540   24.1330   41.0840 F   0  0  0  0  0  0  0  0  0  0  0  0
   37.7020   29.8430   42.1330 O   0  0  0  0  0  0  0  0  0  0  0  0
   36.9710   30.5040   41.1320 C   0  0  0  0  0  0  0  0  0  0  0  0
   36.7580   29.8460   40.2650 H   0  0  0  0  0  0  0  0  0  0  0  0
   35.9750   30.7750   41.5350 H   0  0  0  0  0  0  0  0  0  0  0  0
   37.6180   31.7980   40.7070 C   0  0  0  0  0  0  0  0  0  0  0  0
   38.9170   32.1800   41.1230 C   0  0  0  0  0  0  0  0  0  0  0  0
   39.6140   31.6770   41.7530 H   0  0  0  0  0  0  0  0  0  0  0  0
   39.1550   33.7860   40.3180 S   0  0  0  0  0  0  0  0  0  0  0  0
   37.4270   33.6850   39.5310 C   0  0  0  0  0  0  0  0  0  0  0  0
   36.7450   34.3700   38.8040 H   0  0  0  0  0  0  0  0  0  0  0  0
   37.0570   32.6980   39.9160 N   0  0  0  0  0  0  0  0  0  0  0  0
  1  7  1  0  0  0  0
  2  9  1  0  0  0  0
  2  1  2  0  0  0  0
  3  2  1  0  0  0  0
  4  3  2  0  0  0  0
  4  5  1  0  0  0  0
  5  6  2  0  0  0  0
  6  1  1  0  0  0  0
  8  3  1  0  0  0  0
  9 10  1  0  0  0  0
  9 11  1  0  0  0  0
 12  9  1  0  0  0  0
 13  5  1  0  0  0  0
 14 16  1  0  0  0  0
 14 13  1  0  0  0  0
 15 14  1  0  0  0  0
 17 18  2  0  0  0  0
 17 14  1  0  0  0  0
 18 19  1  0  0  0  0
 20 18  1  0  0  0  0
 21 23  2  0  0  0  0
 21 20  1  0  0  0  0
 22 21  1  0  0  0  0
 23 17  1  0  0  0  0
M  END
>  <minimizedAffinity>
-4.27418518

$$$$

 OpenBabel03252505523D

 23 24  0  0  0  0  0  0  0  0999 V2000
   38.2950   27.9910   40.7850 C   0  0  0  0  0  0  0  0  0  0  0  0
   37.6070   28.2490   41.9690 C   0  0  0  0  0  0  0  0  0  0  0  0
   37.2720   29.5700   42.2500 C   0  0  0  0  0  0  0  0  0  0  0  0
   37.6210   30.5320   41.3780 N   0  0  0  0  0  0  0  0  0  0  0  0
   38.2810   30.2600   40.2480 C   0  0  0  0  0  0  0  0  0  0  0  0
   38.6320   28.9950   39.9260 N   0  0  0  0  0  0  0  0  0  0  0  0
   38.5900   26.9910   40.4980 H   0  0  0  0  0  0  0  0  0  0  0  0
   36.7380   29.7310   43.1780 H   0  0  0  0  0  0  0  0  0  0  0  0
   37.2860   27.0640   42.8400 C   0  0  0  0  0  0  0  0  0  0  0  0
   36.9790   26.0420   41.9910 F   0  0  0  0  0  0  0  0  0  0  0  0
   36.1620   27.4280   43.5780 F   0  0  0  0  0  0  0  0  0  0  0  0
   38.3690   26.8260   43.6420 F   0  0  0  0  0  0  0  0  0  0  0  0
   38.6530   31.2260   39.3360 O   0  0  0  0  0  0  0  0  0  0  0  0
   39.1030   32.5020   39.7110 C   0  0  0  0  0  0  0  0  0  0  0  0
   38.2910   33.2560   39.6880 H   0  0  0  0  0  0  0  0  0  0  0  0
   39.4330   32.4700   40.7690 H   0  0  0  0  0  0  0  0  0  0  0  0
   40.3020   32.9470   38.9120 C   0  0  0  0  0  0  0  0  0  0  0  0
   40.9910   34.1570   39.1720 C   0  0  0  0  0  0  0  0  0  0  0  0
   40.8120   34.9080   39.9070 H   0  0  0  0  0  0  0  0  0  0  0  0
   42.3090   34.1600   37.9280 S   0  0  0  0  0  0  0  0  0  0  0  0
   41.7090   32.4930   37.2400 C   0  0  0  0  0  0  0  0  0  0  0  0
   42.0340   31.7310   36.3590 H   0  0  0  0  0  0  0  0  0  0  0  0
   40.8310   32.2730   37.9050 N   0  0  0  0  0  0  0  0  0  0  0  0
  1  2  1  0  0  0  0
  2  3  2  0  0  0  0
  2  9  1  0  0  0  0
  3  8  1  0  0  0  0
  4  3  1  0  0  0  0
  5  4  2  0  0  0  0
  6  5  1  0  0  0  0
  6  1  2  0  0  0  0
  7  1  1  0  0  0  0
  9 11  1  0  0  0  0
  9 12  1  0  0  0  0
 10  9  1  0  0  0  0
 13 14  1  0  0  0  0
 13  5  1  0  0  0  0
 14 16  1  0  0  0  0
 15 14  1  0  0  0  0
 17 18  2  0  0  0  0
 17 14  1  0  0  0  0
 18 19  1  0  0  0  0
 20 18  1  0  0  0  0
 21 23  2  0  0  0  0
 21 20  1  0  0  0  0
 22 21  1  0  0  0  0
 23 17  1  0  0  0  0
M  END
>  <minimizedAffinity>
-4.23159838

$$$$

 OpenBabel03252505523D

 23 24  0  0  0  0  0  0  0  0999 V2000
   36.8630   29.4790   39.0510 C   0  0  0  0  0  0  0  0  0  0  0  0
   37.1960   30.7780   39.4280 C   0  0  0  0  0  0  0  0  0  0  0  0
   37.1570   31.0910   40.7840 C   0  0  0  0  0  0  0  0  0  0  0  0
   36.8030   30.1380   41.6640 N   0  0  0  0  0  0  0  0  0  0  0  0
   36.4870   28.8980   41.2780 C   0  0  0  0  0  0  0  0  0  0  0  0
   36.5090   28.5400   39.9750 N   0  0  0  0  0  0  0  0  0  0  0  0
   36.8700   29.1610   38.0170 H   0  0  0  0  0  0  0  0  0  0  0  0
   37.4230   32.1100   41.0380 H   0  0  0  0  0  0  0  0  0  0  0  0
   37.5730   31.7300   38.3250 C   0  0  0  0  0  0  0  0  0  0  0  0
   36.9640   32.9140   38.6210 F   0  0  0  0  0  0  0  0  0  0  0  0
   37.0350   31.1940   37.1580 F   0  0  0  0  0  0  0  0  0  0  0  0
   38.9390   31.7960   38.2730 F   0  0  0  0  0  0  0  0  0  0  0  0
   36.1210   27.9000   42.1570 O   0  0  0  0  0  0  0  0  0  0  0  0
   36.8030   27.6510   43.3600 C   0  0  0  0  0  0  0  0  0  0  0  0
   36.9710   28.5770   43.9460 H   0  0  0  0  0  0  0  0  0  0  0  0
   36.1670   27.0150   44.0080 H   0  0  0  0  0  0  0  0  0  0  0  0
   38.0830   26.8830   43.1470 C   0  0  0  0  0  0  0  0  0  0  0  0
   38.1520   25.7090   42.3570 C   0  0  0  0  0  0  0  0  0  0  0  0
   37.3900   25.1960   41.8170 H   0  0  0  0  0  0  0  0  0  0  0  0
   39.9000   25.2400   42.4640 S   0  0  0  0  0  0  0  0  0  0  0  0
   40.2670   26.7330   43.5810 C   0  0  0  0  0  0  0  0  0  0  0  0
   41.2310   27.2030   44.1400 H   0  0  0  0  0  0  0  0  0  0  0  0
   39.2560   27.2130   43.6620 N   0  0  0  0  0  0  0  0  0  0  0  0
  1  2  2  0  0  0  0
  1  6  1  0  0  0  0
  2  3  1  0  0  0  0
  3  8  1  0  0  0  0
  3  4  2  0  0  0  0
  5  4  1  0  0  0  0
  5 13  1  0  0  0  0
  6  5  2  0  0  0  0
  7  1  1  0  0  0  0
  9 10  1  0  0  0  0
  9  2  1  0  0  0  0
 11  9  1  0  0  0  0
 12  9  1  0  0  0  0
 13 14  1  0  0  0  0
 14 15  1  0  0  0  0
 14 16  1  0  0  0  0
 17 14  1  0  0  0  0
 17 23  1  0  0  0  0
 18 20  1  0  0  0  0
 18 17  2  0  0  0  0
 19 18  1  0  0  0  0
 20 21  1  0  0  0  0
 21 23  2  0  0  0  0
 21 22  1  0  0  0  0
M  END
>  <minimizedAffinity>
-4.16192102

$$$$
