
 OpenBabel03252507453D

 35 37  0  0  0  0  0  0  0  0999 V2000
   47.0920   34.3150   40.8880 C   0  0  0  0  0  0  0  0  0  0  0  0
   46.5140   33.4550   40.5270 H   0  0  0  0  0  0  0  0  0  0  0  0
   47.2450   35.0910   40.0890 H   0  0  0  0  0  0  0  0  0  0  0  0
   48.4400   33.9210   41.3350 C   0  0  0  0  0  0  0  0  0  0  0  0
   48.9230   32.7010   40.8790 C   0  0  0  0  0  0  0  0  0  0  0  0
   50.1890   32.2580   41.2550 C   0  0  0  0  0  0  0  0  0  0  0  0
   50.9140   33.0680   42.0780 N   0  0  0  0  0  0  0  0  0  0  0  0
   50.4170   34.2450   42.5030 C   0  0  0  0  0  0  0  0  0  0  0  0
   49.2080   34.6560   42.1360 N   0  0  0  0  0  0  0  0  0  0  0  0
   50.5310   31.3010   40.8790 H   0  0  0  0  0  0  0  0  0  0  0  0
   51.0960   34.8010   43.1590 H   0  0  0  0  0  0  0  0  0  0  0  0
   47.9180   31.6800   39.7950 S   0  0  0  0  0  0  0  0  0  0  0  0
   48.1920   32.1370   38.0680 C   0  0  0  0  0  0  0  0  0  0  0  0
   48.1280   31.2250   36.9940 C   0  0  0  0  0  0  0  0  0  0  0  0
   47.9010   30.1630   37.1530 H   0  0  0  0  0  0  0  0  0  0  0  0
   48.4960   32.3210   35.5560 S   0  0  0  0  0  0  0  0  0  0  0  0
   48.6720   33.8290   36.6940 C   0  0  0  0  0  0  0  0  0  0  0  0
   48.9090   34.7980   36.2580 H   0  0  0  0  0  0  0  0  0  0  0  0
   48.4720   33.3930   37.7680 N   0  0  0  0  0  0  0  0  0  0  0  0
   46.2840   34.9770   41.9690 C   0  0  0  0  0  0  0  0  0  0  0  0
   46.4490   34.3970   42.9110 H   0  0  0  0  0  0  0  0  0  0  0  0
   46.6270   36.0170   42.1720 H   0  0  0  0  0  0  0  0  0  0  0  0
   44.8150   34.9410   41.7360 C   0  0  0  0  0  0  0  0  0  0  0  0
   43.9220   35.4540   42.7250 C   0  0  0  0  0  0  0  0  0  0  0  0
   42.2700   35.1820   41.9740 S   0  0  0  0  0  0  0  0  0  0  0  0
   43.0700   34.4110   40.4310 C   0  0  0  0  0  0  0  0  0  0  0  0
   44.1770   34.4800   40.6940 N   0  0  0  0  0  0  0  0  0  0  0  0
   44.1850   35.8910   43.6750 H   0  0  0  0  0  0  0  0  0  0  0  0
   42.3230   33.9390   39.3530 O   0  0  0  0  0  0  0  0  0  0  0  0
   40.4070   34.4120   37.5940 O   0  0  0  0  0  0  0  0  0  0  0  0
   41.4860   35.0890   38.4140 P   0  0  0  0  0  0  0  0  0  0  0  0
   40.7610   36.1790   39.4870 O   0  0  0  0  0  0  0  0  0  0  0  0
   39.9660   35.6990   39.8630 H   0  0  0  0  0  0  0  0  0  0  0  0
   42.5660   35.9420   37.4330 O   0  0  0  0  0  0  0  0  0  0  0  0
   42.7600   36.8360   37.8130 H   0  0  0  0  0  0  0  0  0  0  0  0
  1  4  1  0  0  0  0
  1 20  1  0  0  0  0
  2  1  1  0  0  0  0
  3  1  1  0  0  0  0
  4  9  1  0  0  0  0
  5  6  1  0  0  0  0
  5  4  2  0  0  0  0
  6  7  2  0  0  0  0
  7  8  1  0  0  0  0
  8 11  1  0  0  0  0
  9  8  2  0  0  0  0
 10  6  1  0  0  0  0
 12  5  1  0  0  0  0
 13 12  1  0  0  0  0
 14 15  1  0  0  0  0
 14 13  2  0  0  0  0
 16 17  1  0  0  0  0
 16 14  1  0  0  0  0
 17 19  2  0  0  0  0
 18 17  1  0  0  0  0
 19 13  1  0  0  0  0
 20 22  1  0  0  0  0
 20 21  1  0  0  0  0
 23 20  1  0  0  0  0
 23 24  2  0  0  0  0
 24 28  1  0  0  0  0
 25 24  1  0  0  0  0
 26 27  2  0  0  0  0
 26 25  1  0  0  0  0
 27 23  1  0  0  0  0
 29 26  1  0  0  0  0
 30 31  2  0  0  0  0
 31 29  1  0  0  0  0
 31 32  1  0  0  0  0
 32 33  1  0  0  0  0
 34 35  1  0  0  0  0
 34 31  1  0  0  0  0
M  END
>  <minimizedAffinity>
-4.83083439

>  <minimizedRMSD>
0.109623373

$$$$
