
 OpenBabel03252508033D

 40 43  0  0  1  0  0  0  0  0999 V2000
   44.2320   34.3560   41.5430 C   0  0  0  0  0  0  0  0  0  0  0  0
   45.1110   34.2400   40.6170 O   0  0  0  0  0  0  0  0  0  0  0  0
   42.0520   33.2700   41.1140 C   0  0  0  0  0  0  0  0  0  0  0  0
   42.7820   34.4040   41.3190 C   0  0  0  0  0  0  0  0  0  0  0  0
   42.1280   35.6440   41.2950 C   0  0  0  0  0  0  0  0  0  0  0  0
   40.7810   35.7780   41.0750 C   0  0  0  0  0  0  0  0  0  0  0  0
   40.0450   34.6450   40.8720 C   0  0  0  0  0  0  0  0  0  0  0  0
   40.6720   33.4390   40.8920 C   0  0  0  0  0  0  0  0  0  0  0  0
   42.6410   36.5830   41.4390 H   0  0  0  0  0  0  0  0  0  0  0  0
   40.2790   36.7290   41.0570 H   0  0  0  0  0  0  0  0  0  0  0  0
   38.9840   34.6190   40.6900 H   0  0  0  0  0  0  0  0  0  0  0  0
   40.0950   32.5130   40.7290 H   0  0  0  0  0  0  0  0  0  0  0  0
   42.7170   31.7160   41.1720 S   0  0  0  0  0  0  0  0  0  0  0  0
   41.5550   30.8750   40.6090 O   0  0  0  0  0  0  0  0  0  0  0  0
   42.9270   31.2450   42.5700 O   0  0  0  0  0  0  0  0  0  0  0  0
   43.7460   31.0370   39.9860 C   0  0  0  0  0  0  0  0  0  0  0  0
   42.9400   30.0880   39.0310 C   0  0  0  0  0  0  0  0  0  0  0  0
   41.7330   29.7360   39.0320 H   0  0  0  0  0  0  0  0  0  0  0  0
   44.0800   29.5750   37.8940 S   0  0  0  0  0  0  0  0  0  0  0  0
   45.4980   30.5110   38.5960 C   0  0  0  0  0  0  0  0  0  0  0  0
   46.5340   30.5860   38.2920 H   0  0  0  0  0  0  0  0  0  0  0  0
   44.9510   31.0200   39.4940 N   0  0  0  0  0  0  0  0  0  0  0  0
   44.5770   34.4570   42.9300 C   0  0  0  0  0  0  0  0  0  0  0  0
   44.3070   35.7100   43.5560 C   0  0  0  0  0  0  0  0  0  0  0  0
   44.6330   35.8160   44.8970 C   0  0  0  0  0  0  0  0  0  0  0  0
   45.1780   34.7440   45.5290 N   0  0  0  0  0  0  0  0  0  0  0  0
   45.4210   33.5570   44.8870 C   0  0  0  0  0  0  0  0  0  0  0  0
   45.1110   33.4820   43.6460 N   0  0  0  0  0  0  0  0  0  0  0  0
   43.8910   36.5920   43.1510 H   0  0  0  0  0  0  0  0  0  0  0  0
   44.4700   36.7310   45.4780 H   0  0  0  0  0  0  0  0  0  0  0  0
   46.0110   32.4430   45.6530 C   0  0  1  0  0  0  0  0  0  0  0  0
   46.9710   32.7660   46.7790 C   0  0  0  0  0  0  0  0  0  0  0  0
   45.5460   32.3600   47.0640 C   0  0  1  0  0  0  0  0  0  0  0  0
   46.1060   31.4670   45.1500 H   0  0  0  0  0  0  0  0  0  0  0  0
   47.7780   32.0050   46.9180 H   0  0  0  0  0  0  0  0  0  0  0  0
   47.2880   33.8130   46.7850 H   0  0  0  0  0  0  0  0  0  0  0  0
   45.4300   31.3710   47.5500 H   0  0  0  0  0  0  0  0  0  0  0  0
   44.7630   33.4120   47.6420 N   0  0  0  0  0  0  0  0  0  0  0  0
   43.9190   33.0920   48.1350 H   0  0  0  0  0  0  0  0  0  0  0  0
   45.3170   34.1370   48.1400 H   0  0  0  0  0  0  0  0  0  0  0  0
  1 23  1  0  0  0  0
  2  1  2  0  0  0  0
  3 13  1  0  0  0  0
  3  4  1  0  0  0  0
  4  1  1  0  0  0  0
  5  4  2  0  0  0  0
  5  9  1  0  0  0  0
  6  5  1  0  0  0  0
  7  8  1  0  0  0  0
  7  6  2  0  0  0  0
  8  3  2  0  0  0  0
 10  6  1  0  0  0  0
 11  7  1  0  0  0  0
 12  8  1  0  0  0  0
 13 15  2  0  0  0  0
 14 13  2  0  0  0  0
 16 13  1  0  0  0  0
 17 18  1  0  0  0  0
 17 16  2  0  0  0  0
 19 20  1  0  0  0  0
 19 17  1  0  0  0  0
 20 22  2  0  0  0  0
 21 20  1  0  0  0  0
 22 16  1  0  0  0  0
 23 24  2  0  0  0  0
 23 28  1  0  0  0  0
 24 25  1  0  0  0  0
 25 30  1  0  0  0  0
 25 26  2  0  0  0  0
 27 26  1  0  0  0  0
 27 31  1  0  0  0  0
 28 27  2  0  0  0  0
 29 24  1  0  0  0  0
 31 34  1  6  0  0  0
 31 32  1  0  0  0  0
 31 33  1  0  0  0  0
 32 36  1  0  0  0  0
 32 35  1  0  0  0  0
 32 33  1  0  0  0  0
 33 37  1  1  0  0  0
 33 38  1  0  0  0  0
 38 39  1  0  0  0  0
 38 40  1  0  0  0  0
M  END
>  <minimizedAffinity>
-5.70664644

>  <minimizedRMSD>
1.26898849

$$$$
