
 OpenBabel03252507043D

 45 48  0  0  0  0  0  0  0  0999 V2000
   41.7690   31.9120   41.7280 C   0  0  0  0  0  0  0  0  0  0  0  0
   41.2770   32.4150   42.5890 H   0  0  0  0  0  0  0  0  0  0  0  0
   41.7790   32.7300   40.9270 H   0  0  0  0  0  0  0  0  0  0  0  0
   41.1480   30.7940   41.3440 N   0  0  0  0  0  0  0  0  0  0  0  0
   40.9810   29.5890   42.0890 C   0  0  0  0  0  0  0  0  0  0  0  0
   39.5030   29.7310   42.4440 C   0  0  0  0  0  0  0  0  0  0  0  0
   38.6240   29.8070   41.2910 C   0  0  0  0  0  0  0  0  0  0  0  0
   39.1560   30.2700   40.0290 C   0  0  0  0  0  0  0  0  0  0  0  0
   40.5510   30.8530   39.9900 C   0  0  0  0  0  0  0  0  0  0  0  0
   41.5130   29.6850   43.0580 H   0  0  0  0  0  0  0  0  0  0  0  0
   41.2530   28.6480   41.6440 H   0  0  0  0  0  0  0  0  0  0  0  0
   39.4260   30.6050   43.1470 H   0  0  0  0  0  0  0  0  0  0  0  0
   39.2770   28.8370   43.0930 H   0  0  0  0  0  0  0  0  0  0  0  0
   38.1830   28.7830   41.1100 H   0  0  0  0  0  0  0  0  0  0  0  0
   37.7370   30.4390   41.5410 H   0  0  0  0  0  0  0  0  0  0  0  0
   38.6600   30.2660   39.1060 H   0  0  0  0  0  0  0  0  0  0  0  0
   41.3120   31.4600   38.5670 S   0  0  0  0  0  0  0  0  0  0  0  0
   41.3090   33.1920   38.2920 C   0  0  0  0  0  0  0  0  0  0  0  0
   42.2930   34.2950   38.4010 C   0  0  0  0  0  0  0  0  0  0  0  0
   43.4410   33.9250   38.7060 H   0  0  0  0  0  0  0  0  0  0  0  0
   41.2520   35.8020   37.9630 S   0  0  0  0  0  0  0  0  0  0  0  0
   39.7480   34.6740   37.7270 C   0  0  0  0  0  0  0  0  0  0  0  0
   38.9230   35.3850   37.4360 H   0  0  0  0  0  0  0  0  0  0  0  0
   40.1180   33.6140   37.9470 N   0  0  0  0  0  0  0  0  0  0  0  0
   43.2040   31.7200   42.0650 C   0  0  0  0  0  0  0  0  0  0  0  0
   43.7050   30.9960   41.3880 H   0  0  0  0  0  0  0  0  0  0  0  0
   43.3560   31.3310   43.1120 H   0  0  0  0  0  0  0  0  0  0  0  0
   43.8800   33.0250   41.9840 C   0  0  0  0  0  0  0  0  0  0  0  0
   43.1460   34.1750   41.8010 C   0  0  0  0  0  0  0  0  0  0  0  0
   43.8240   35.3850   41.7180 C   0  0  0  0  0  0  0  0  0  0  0  0
   45.1900   35.3670   41.8270 N   0  0  0  0  0  0  0  0  0  0  0  0
   45.8600   34.2370   42.0050 C   0  0  0  0  0  0  0  0  0  0  0  0
   45.1890   33.0830   42.0800 N   0  0  0  0  0  0  0  0  0  0  0  0
   42.0960   34.3960   41.7110 H   0  0  0  0  0  0  0  0  0  0  0  0
   43.4200   36.3860   41.5750 H   0  0  0  0  0  0  0  0  0  0  0  0
   47.3130   34.3160   42.1320 C   0  0  0  0  0  0  0  0  0  0  0  0
   48.0480   33.2220   42.5790 C   0  0  0  0  0  0  0  0  0  0  0  0
   49.4150   33.3060   42.7020 C   0  0  0  0  0  0  0  0  0  0  0  0
   49.9440   34.5330   42.3480 C   0  0  0  0  0  0  0  0  0  0  0  0
   49.2560   35.6550   41.8960 C   0  0  0  0  0  0  0  0  0  0  0  0
   47.9130   35.4880   41.8040 N   0  0  0  0  0  0  0  0  0  0  0  0
   47.5660   32.2800   42.8430 H   0  0  0  0  0  0  0  0  0  0  0  0
   50.0610   32.5270   43.0340 H   0  0  0  0  0  0  0  0  0  0  0  0
   51.0260   34.6580   42.4250 H   0  0  0  0  0  0  0  0  0  0  0  0
   49.7680   36.5580   41.6490 H   0  0  0  0  0  0  0  0  0  0  0  0
  1 25  1  0  0  0  0
  1  2  1  0  0  0  0
  3  1  1  0  0  0  0
  4  1  1  0  0  0  0
  4  5  1  0  0  0  0
  5  6  1  0  0  0  0
  5 10  1  0  0  0  0
  6 13  1  0  0  0  0
  6 12  1  0  0  0  0
  7 15  1  0  0  0  0
  7  6  1  0  0  0  0
  8  7  1  0  0  0  0
  9  8  2  0  0  0  0
  9  4  1  0  0  0  0
 11  5  1  0  0  0  0
 14  7  1  0  0  0  0
 16  8  1  0  0  0  0
 17  9  1  0  0  0  0
 18 19  2  0  0  0  0
 18 17  1  0  0  0  0
 19 20  1  0  0  0  0
 21 19  1  0  0  0  0
 22 24  2  0  0  0  0
 22 21  1  0  0  0  0
 23 22  1  0  0  0  0
 24 18  1  0  0  0  0
 25 27  1  0  0  0  0
 26 25  1  0  0  0  0
 28 25  1  0  0  0  0
 28 33  1  0  0  0  0
 29 28  2  0  0  0  0
 30 29  1  0  0  0  0
 30 31  2  0  0  0  0
 31 32  1  0  0  0  0
 32 33  2  0  0  0  0
 32 36  1  0  0  0  0
 34 29  1  0  0  0  0
 35 30  1  0  0  0  0
 36 37  1  0  0  0  0
 37 38  2  0  0  0  0
 37 42  1  0  0  0  0
 38 43  1  0  0  0  0
 39 44  1  0  0  0  0
 39 38  1  0  0  0  0
 40 39  2  0  0  0  0
 41 40  1  0  0  0  0
 41 36  2  0  0  0  0
 45 40  1  0  0  0  0
M  END
>  <minimizedAffinity>
-4.94953442

>  <minimizedRMSD>
2.66672659

$$$$
