
 OpenBabel03252509043D

 46 48  0  0  1  0  0  0  0  0999 V2000
   46.7190   34.3780   43.4840 N   0  0  0  0  0  0  0  0  0  0  0  0
   46.4410   34.9210   42.2150 C   0  0  0  0  0  0  0  0  0  0  0  0
   44.9760   34.9240   41.8340 C   0  0  0  0  0  0  0  0  0  0  0  0
   44.0530   35.1840   43.0000 C   0  0  0  0  0  0  0  0  0  0  0  0
   44.8100   35.4120   44.2890 C   0  0  0  0  0  0  0  0  0  0  0  0
   45.7250   34.1360   44.4060 C   0  0  2  0  0  0  0  0  0  0  0  0
   46.9940   34.5090   41.3720 H   0  0  0  0  0  0  0  0  0  0  0  0
   46.7310   36.0130   42.2530 H   0  0  0  0  0  0  0  0  0  0  0  0
   44.7950   35.5960   40.9830 H   0  0  0  0  0  0  0  0  0  0  0  0
   44.7560   33.8930   41.4700 H   0  0  0  0  0  0  0  0  0  0  0  0
   43.3020   34.4180   43.1740 H   0  0  0  0  0  0  0  0  0  0  0  0
   43.5310   36.1460   42.7810 H   0  0  0  0  0  0  0  0  0  0  0  0
   45.4520   36.2970   44.2150 H   0  0  0  0  0  0  0  0  0  0  0  0
   44.0930   35.4160   45.1170 H   0  0  0  0  0  0  0  0  0  0  0  0
   45.0330   33.3020   44.2230 H   0  0  0  0  0  0  0  0  0  0  0  0
   47.9090   33.5630   43.5320 C   0  0  0  0  0  0  0  0  0  0  0  0
   48.1490   33.3200   44.5670 H   0  0  0  0  0  0  0  0  0  0  0  0
   48.7500   34.1790   43.1350 H   0  0  0  0  0  0  0  0  0  0  0  0
   47.6890   32.3410   42.7180 C   0  0  0  0  0  0  0  0  0  0  0  0
   47.5180   31.4640   43.3530 H   0  0  0  0  0  0  0  0  0  0  0  0
   46.7840   32.4370   42.0640 H   0  0  0  0  0  0  0  0  0  0  0  0
   51.2200   32.1820   41.4590 C   0  0  0  0  0  0  0  0  0  0  0  0
   50.1090   32.3890   42.2830 C   0  0  0  0  0  0  0  0  0  0  0  0
   48.8560   32.1150   41.8270 C   0  0  0  0  0  0  0  0  0  0  0  0
   48.7380   31.6480   40.5770 N   0  0  0  0  0  0  0  0  0  0  0  0
   49.7990   31.4450   39.7760 C   0  0  0  0  0  0  0  0  0  0  0  0
   51.0440   31.7060   40.1980 N   0  0  0  0  0  0  0  0  0  0  0  0
   52.2240   32.3790   41.7620 H   0  0  0  0  0  0  0  0  0  0  0  0
   50.3270   32.7690   43.2740 H   0  0  0  0  0  0  0  0  0  0  0  0
   49.5290   31.0690   38.8090 H   0  0  0  0  0  0  0  0  0  0  0  0
   46.1690   34.2220   45.7120 O   0  0  0  0  0  0  0  0  0  0  0  0
   45.6940   31.6130   45.6030 O   0  0  0  0  0  0  0  0  0  0  0  0
   46.0670   32.7780   46.5460 P   0  0  2  0  0  0  0  0  0  0  0  0
   44.7120   32.9150   47.5870 O   0  0  0  0  0  0  0  0  0  0  0  0
   44.9850   32.8240   48.5320 H   0  0  0  0  0  0  0  0  0  0  0  0
   47.4070   32.4270   47.4570 O   0  0  0  0  0  0  0  0  0  0  0  0
   47.5360   31.0550   47.5830 C   0  0  0  0  0  0  0  0  0  0  0  0
   46.6090   30.5840   47.9290 H   0  0  0  0  0  0  0  0  0  0  0  0
   47.7890   30.5990   46.5880 H   0  0  0  0  0  0  0  0  0  0  0  0
   48.6330   30.6900   48.5520 C   0  0  0  0  0  0  0  0  0  0  0  0
   49.1560   29.3350   48.5790 C   0  0  0  0  0  0  0  0  0  0  0  0
   48.7960   28.5460   47.9300 H   0  0  0  0  0  0  0  0  0  0  0  0
   50.4220   29.4720   49.8950 S   0  0  0  0  0  0  0  0  0  0  0  0
   50.0440   31.2920   50.1830 C   0  0  0  0  0  0  0  0  0  0  0  0
   50.5160   31.9620   50.8990 H   0  0  0  0  0  0  0  0  0  0  0  0
   49.1660   31.5490   49.3980 N   0  0  0  0  0  0  0  0  0  0  0  0
  1 16  1  0  0  0  0
  1  6  1  0  0  0  0
  2  8  1  0  0  0  0
  2  1  1  0  0  0  0
  3  2  1  0  0  0  0
  3  4  1  0  0  0  0
  4 11  1  0  0  0  0
  4  5  1  0  0  0  0
  5  6  1  0  0  0  0
  5 14  1  0  0  0  0
  6 15  1  6  0  0  0
  6 31  1  0  0  0  0
  7  2  1  0  0  0  0
  9  3  1  0  0  0  0
 10  3  1  0  0  0  0
 12  4  1  0  0  0  0
 13  5  1  0  0  0  0
 16 17  1  0  0  0  0
 18 16  1  0  0  0  0
 19 20  1  0  0  0  0
 19 16  1  0  0  0  0
 21 19  1  0  0  0  0
 22 28  1  0  0  0  0
 22 23  1  0  0  0  0
 23 29  1  0  0  0  0
 24 23  2  0  0  0  0
 24 19  1  0  0  0  0
 25 24  1  0  0  0  0
 26 27  1  0  0  0  0
 26 25  2  0  0  0  0
 27 22  2  0  0  0  0
 30 26  1  0  0  0  0
 31 33  1  0  0  0  0
 33 32  2  6  0  0  0
 33 36  1  0  0  0  0
 33 34  1  0  0  0  0
 34 35  1  0  0  0  0
 36 37  1  0  0  0  0
 37 38  1  0  0  0  0
 37 40  1  0  0  0  0
 39 37  1  0  0  0  0
 40 41  2  0  0  0  0
 40 46  1  0  0  0  0
 41 43  1  0  0  0  0
 42 41  1  0  0  0  0
 43 44  1  0  0  0  0
 44 45  1  0  0  0  0
 46 44  2  0  0  0  0
M  END
>  <minimizedAffinity>
-4.90766001

>  <minimizedRMSD>
2.96636224

$$$$
