
 OpenBabel03242519263D

 38 41  0  0  0  0  0  0  0  0999 V2000
   37.6600   29.5920   41.8560 C   0  0  0  0  0  0  0  0  0  0  0  0
   36.4190   29.9280   41.2700 C   0  0  0  0  0  0  0  0  0  0  0  0
   36.2920   31.1200   40.5270 C   0  0  0  0  0  0  0  0  0  0  0  0
   37.4250   31.8930   40.4270 N   0  0  0  0  0  0  0  0  0  0  0  0
   38.6100   31.5320   41.0110 C   0  0  0  0  0  0  0  0  0  0  0  0
   38.7010   30.4080   41.7010 N   0  0  0  0  0  0  0  0  0  0  0  0
   35.4860   29.3840   41.2990 H   0  0  0  0  0  0  0  0  0  0  0  0
   35.3960   31.4380   40.0590 H   0  0  0  0  0  0  0  0  0  0  0  0
   37.6650   28.3310   42.6100 C   0  0  0  0  0  0  0  0  0  0  0  0
   38.9650   27.9890   43.1830 C   0  0  0  0  0  0  0  0  0  0  0  0
   39.6050   26.7920   42.5850 C   0  0  0  0  0  0  0  0  0  0  0  0
   38.6940   25.5730   42.5880 C   0  0  0  0  0  0  0  0  0  0  0  0
   37.2480   25.8870   42.3060 C   0  0  0  0  0  0  0  0  0  0  0  0
   37.1080   27.2570   41.6570 C   0  0  0  0  0  0  0  0  0  0  0  0
   36.8800   28.4360   43.4170 H   0  0  0  0  0  0  0  0  0  0  0  0
   39.6630   28.8420   43.0310 H   0  0  0  0  0  0  0  0  0  0  0  0
   38.9220   27.8360   44.2980 H   0  0  0  0  0  0  0  0  0  0  0  0
   40.0240   26.8850   41.5880 H   0  0  0  0  0  0  0  0  0  0  0  0
   40.4760   26.5050   43.2450 H   0  0  0  0  0  0  0  0  0  0  0  0
   39.1210   24.8180   41.9170 H   0  0  0  0  0  0  0  0  0  0  0  0
   38.7180   25.1430   43.6140 H   0  0  0  0  0  0  0  0  0  0  0  0
   36.8490   25.1490   41.5920 H   0  0  0  0  0  0  0  0  0  0  0  0
   36.6200   25.8740   43.2280 H   0  0  0  0  0  0  0  0  0  0  0  0
   37.6350   27.2830   40.6890 H   0  0  0  0  0  0  0  0  0  0  0  0
   36.0450   27.4790   41.5210 H   0  0  0  0  0  0  0  0  0  0  0  0
   39.7010   32.4680   40.8210 C   0  0  0  0  0  0  0  0  0  0  0  0
   39.4260   33.6040   40.1240 N   0  0  0  0  0  0  0  0  0  0  0  0
   40.5220   34.3670   40.0450 C   0  0  0  0  0  0  0  0  0  0  0  0
   41.4950   33.6930   40.7050 N   0  0  0  0  0  0  0  0  0  0  0  0
   41.0010   32.5320   41.1800 N   0  0  0  0  0  0  0  0  0  0  0  0
   40.6770   35.3380   39.5690 H   0  0  0  0  0  0  0  0  0  0  0  0
   42.8610   34.0770   40.9130 C   0  0  0  0  0  0  0  0  0  0  0  0
   43.4720   34.7360   42.0670 C   0  0  0  0  0  0  0  0  0  0  0  0
   42.6080   34.9430   42.9160 H   0  0  0  0  0  0  0  0  0  0  0  0
   45.2380   34.8780   41.5620 S   0  0  0  0  0  0  0  0  0  0  0  0
   44.8340   34.0360   39.9120 C   0  0  0  0  0  0  0  0  0  0  0  0
   45.8180   33.9620   39.2980 H   0  0  0  0  0  0  0  0  0  0  0  0
   43.7150   33.8140   39.9450 N   0  0  0  0  0  0  0  0  0  0  0  0
  1  9  1  0  0  0  0
  2  7  1  0  0  0  0
  2  1  2  0  0  0  0
  3  2  1  0  0  0  0
  4  3  2  0  0  0  0
  4  5  1  0  0  0  0
  5  6  2  0  0  0  0
  6  1  1  0  0  0  0
  8  3  1  0  0  0  0
  9 10  1  0  0  0  0
  9 15  1  0  0  0  0
 10 17  1  0  0  0  0
 11 12  1  0  0  0  0
 11 10  1  0  0  0  0
 11 19  1  0  0  0  0
 12 21  1  0  0  0  0
 13 12  1  0  0  0  0
 13 23  1  0  0  0  0
 14 13  1  0  0  0  0
 14  9  1  0  0  0  0
 16 10  1  0  0  0  0
 18 11  1  0  0  0  0
 20 12  1  0  0  0  0
 22 13  1  0  0  0  0
 24 14  1  0  0  0  0
 25 14  1  0  0  0  0
 26  5  1  0  0  0  0
 26 30  2  0  0  0  0
 27 26  1  0  0  0  0
 28 27  2  0  0  0  0
 28 29  1  0  0  0  0
 29 32  1  0  0  0  0
 29 30  1  0  0  0  0
 31 28  1  0  0  0  0
 32 33  2  0  0  0  0
 33 34  1  0  0  0  0
 35 33  1  0  0  0  0
 36 38  2  0  0  0  0
 36 35  1  0  0  0  0
 37 36  1  0  0  0  0
 38 32  1  0  0  0  0
M  END
>  <minimizedAffinity>
-5.71750641

$$$$

 OpenBabel03242519263D

 38 41  0  0  0  0  0  0  0  0999 V2000
   37.1870   28.3930   41.6910 C   0  0  0  0  0  0  0  0  0  0  0  0
   35.8530   28.5330   41.2460 C   0  0  0  0  0  0  0  0  0  0  0  0
   35.4830   29.6550   40.4760 C   0  0  0  0  0  0  0  0  0  0  0  0
   36.4820   30.5600   40.2080 N   0  0  0  0  0  0  0  0  0  0  0  0
   37.7640   30.3890   40.6590 C   0  0  0  0  0  0  0  0  0  0  0  0
   38.0840   29.3260   41.3780 N   0  0  0  0  0  0  0  0  0  0  0  0
   35.0110   27.8760   41.4090 H   0  0  0  0  0  0  0  0  0  0  0  0
   34.5040   29.8270   40.1070 H   0  0  0  0  0  0  0  0  0  0  0  0
   37.4470   27.1880   42.4890 C   0  0  0  0  0  0  0  0  0  0  0  0
   38.2100   27.4400   43.7100 C   0  0  0  0  0  0  0  0  0  0  0  0
   39.5750   26.8560   43.7140 C   0  0  0  0  0  0  0  0  0  0  0  0
   39.5800   25.3700   43.3890 C   0  0  0  0  0  0  0  0  0  0  0  0
   38.5810   24.9670   42.3360 C   0  0  0  0  0  0  0  0  0  0  0  0
   38.1180   26.1780   41.5390 C   0  0  0  0  0  0  0  0  0  0  0  0
   36.4380   26.7350   42.7260 H   0  0  0  0  0  0  0  0  0  0  0  0
   38.3250   28.5380   43.8440 H   0  0  0  0  0  0  0  0  0  0  0  0
   37.6800   27.0810   44.6360 H   0  0  0  0  0  0  0  0  0  0  0  0
   40.3300   27.3300   43.0960 H   0  0  0  0  0  0  0  0  0  0  0  0
   39.9710   26.9250   44.7690 H   0  0  0  0  0  0  0  0  0  0  0  0
   40.6100   25.0690   43.1600 H   0  0  0  0  0  0  0  0  0  0  0  0
   39.2840   24.8260   44.3150 H   0  0  0  0  0  0  0  0  0  0  0  0
   39.0620   24.2760   41.6260 H   0  0  0  0  0  0  0  0  0  0  0  0
   37.6810   24.4710   42.7700 H   0  0  0  0  0  0  0  0  0  0  0  0
   38.9670   26.6430   41.0110 H   0  0  0  0  0  0  0  0  0  0  0  0
   37.3510   25.8620   40.8250 H   0  0  0  0  0  0  0  0  0  0  0  0
   38.6900   31.4460   40.3010 C   0  0  0  0  0  0  0  0  0  0  0  0
   38.2620   32.7260   40.4760 N   0  0  0  0  0  0  0  0  0  0  0  0
   39.2270   33.5810   40.1160 C   0  0  0  0  0  0  0  0  0  0  0  0
   40.2710   32.8180   39.7110 N   0  0  0  0  0  0  0  0  0  0  0  0
   39.9490   31.5140   39.8200 N   0  0  0  0  0  0  0  0  0  0  0  0
   39.2440   34.6740   40.1210 H   0  0  0  0  0  0  0  0  0  0  0  0
   41.5510   33.2450   39.2260 C   0  0  0  0  0  0  0  0  0  0  0  0
   42.8550   33.1970   39.8880 C   0  0  0  0  0  0  0  0  0  0  0  0
   42.7190   32.7050   41.0070 H   0  0  0  0  0  0  0  0  0  0  0  0
   43.9780   33.9240   38.6220 S   0  0  0  0  0  0  0  0  0  0  0  0
   42.5050   34.1560   37.4500 C   0  0  0  0  0  0  0  0  0  0  0  0
   42.9020   34.6360   36.4680 H   0  0  0  0  0  0  0  0  0  0  0  0
   41.5960   33.7600   38.0150 N   0  0  0  0  0  0  0  0  0  0  0  0
  1  9  1  0  0  0  0
  2  7  1  0  0  0  0
  2  1  2  0  0  0  0
  3  2  1  0  0  0  0
  4  3  2  0  0  0  0
  4  5  1  0  0  0  0
  5  6  2  0  0  0  0
  6  1  1  0  0  0  0
  8  3  1  0  0  0  0
  9 15  1  0  0  0  0
  9 10  1  0  0  0  0
 10 11  1  0  0  0  0
 10 16  1  0  0  0  0
 10 17  1  0  0  0  0
 11 19  1  0  0  0  0
 12 11  1  0  0  0  0
 12 21  1  0  0  0  0
 13 23  1  0  0  0  0
 13 12  1  0  0  0  0
 14 13  1  0  0  0  0
 14  9  1  0  0  0  0
 18 11  1  0  0  0  0
 20 12  1  0  0  0  0
 22 13  1  0  0  0  0
 24 14  1  0  0  0  0
 25 14  1  0  0  0  0
 26 27  1  0  0  0  0
 26  5  1  0  0  0  0
 28 31  1  0  0  0  0
 28 27  2  0  0  0  0
 29 30  1  0  0  0  0
 29 28  1  0  0  0  0
 30 26  2  0  0  0  0
 32 29  1  0  0  0  0
 32 33  2  0  0  0  0
 33 34  1  0  0  0  0
 35 33  1  0  0  0  0
 36 38  2  0  0  0  0
 36 35  1  0  0  0  0
 37 36  1  0  0  0  0
 38 32  1  0  0  0  0
M  END
>  <minimizedAffinity>
-5.71387243

$$$$

 OpenBabel03242519263D

 38 41  0  0  0  0  0  0  0  0999 V2000
   37.2450   27.1400   41.5240 C   0  0  0  0  0  0  0  0  0  0  0  0
   37.0890   27.2020   42.9270 C   0  0  0  0  0  0  0  0  0  0  0  0
   37.3610   28.4030   43.6130 C   0  0  0  0  0  0  0  0  0  0  0  0
   37.7740   29.4610   42.8380 N   0  0  0  0  0  0  0  0  0  0  0  0
   37.9140   29.3610   41.4790 C   0  0  0  0  0  0  0  0  0  0  0  0
   37.6500   28.2220   40.8610 N   0  0  0  0  0  0  0  0  0  0  0  0
   36.7730   26.4250   43.6090 H   0  0  0  0  0  0  0  0  0  0  0  0
   37.2670   28.5250   44.6620 H   0  0  0  0  0  0  0  0  0  0  0  0
   36.9380   25.8340   40.9260 C   0  0  0  0  0  0  0  0  0  0  0  0
   36.9420   24.7290   41.8830 C   0  0  0  0  0  0  0  0  0  0  0  0
   38.0380   23.7490   41.6840 C   0  0  0  0  0  0  0  0  0  0  0  0
   38.0970   23.2120   40.2620 C   0  0  0  0  0  0  0  0  0  0  0  0
   37.7920   24.2390   39.2040 C   0  0  0  0  0  0  0  0  0  0  0  0
   37.9290   25.6480   39.7630 C   0  0  0  0  0  0  0  0  0  0  0  0
   35.9270   25.9380   40.4300 H   0  0  0  0  0  0  0  0  0  0  0  0
   37.0550   25.1410   42.9100 H   0  0  0  0  0  0  0  0  0  0  0  0
   35.9700   24.1610   41.8960 H   0  0  0  0  0  0  0  0  0  0  0  0
   39.0430   24.0480   41.9640 H   0  0  0  0  0  0  0  0  0  0  0  0
   37.8090   22.8480   42.3260 H   0  0  0  0  0  0  0  0  0  0  0  0
   39.0610   22.7060   40.1220 H   0  0  0  0  0  0  0  0  0  0  0  0
   37.3080   22.4320   40.1680 H   0  0  0  0  0  0  0  0  0  0  0  0
   38.5210   24.1430   38.3840 H   0  0  0  0  0  0  0  0  0  0  0  0
   36.7630   24.1300   38.7870 H   0  0  0  0  0  0  0  0  0  0  0  0
   38.9630   25.8340   40.0980 H   0  0  0  0  0  0  0  0  0  0  0  0
   37.6430   26.3670   38.9890 H   0  0  0  0  0  0  0  0  0  0  0  0
   38.3740   30.5660   40.8160 C   0  0  0  0  0  0  0  0  0  0  0  0
   37.4930   31.6010   40.7350 N   0  0  0  0  0  0  0  0  0  0  0  0
   38.0650   32.6380   40.1120 C   0  0  0  0  0  0  0  0  0  0  0  0
   39.3220   32.2400   39.8010 N   0  0  0  0  0  0  0  0  0  0  0  0
   39.5170   30.9750   40.2270 N   0  0  0  0  0  0  0  0  0  0  0  0
   37.6680   33.6260   39.8700 H   0  0  0  0  0  0  0  0  0  0  0  0
   40.3490   32.9780   39.1260 C   0  0  0  0  0  0  0  0  0  0  0  0
   41.1450   32.6010   37.9570 C   0  0  0  0  0  0  0  0  0  0  0  0
   40.8040   31.4800   37.5840 H   0  0  0  0  0  0  0  0  0  0  0  0
   42.2290   34.0710   37.7150 S   0  0  0  0  0  0  0  0  0  0  0  0
   41.4230   34.9100   39.2120 C   0  0  0  0  0  0  0  0  0  0  0  0
   41.9220   35.9520   39.3490 H   0  0  0  0  0  0  0  0  0  0  0  0
   40.6450   34.1710   39.6000 N   0  0  0  0  0  0  0  0  0  0  0  0
  1  2  1  0  0  0  0
  2  7  1  0  0  0  0
  2  3  2  0  0  0  0
  3  8  1  0  0  0  0
  4  3  1  0  0  0  0
  5  4  2  0  0  0  0
  6  5  1  0  0  0  0
  6  1  2  0  0  0  0
  9  1  1  0  0  0  0
  9 10  1  0  0  0  0
 10 17  1  0  0  0  0
 10 16  1  0  0  0  0
 11 10  1  0  0  0  0
 11 18  1  0  0  0  0
 11 19  1  0  0  0  0
 12 11  1  0  0  0  0
 13 14  1  0  0  0  0
 13 12  1  0  0  0  0
 14 24  1  0  0  0  0
 14  9  1  0  0  0  0
 15  9  1  0  0  0  0
 20 12  1  0  0  0  0
 21 12  1  0  0  0  0
 22 13  1  0  0  0  0
 23 13  1  0  0  0  0
 25 14  1  0  0  0  0
 26  5  1  0  0  0  0
 27 26  1  0  0  0  0
 28 27  2  0  0  0  0
 29 28  1  0  0  0  0
 29 30  1  0  0  0  0
 30 26  2  0  0  0  0
 31 28  1  0  0  0  0
 32 38  1  0  0  0  0
 32 29  1  0  0  0  0
 33 32  2  0  0  0  0
 34 33  1  0  0  0  0
 35 33  1  0  0  0  0
 35 36  1  0  0  0  0
 36 37  1  0  0  0  0
 36 38  2  0  0  0  0
M  END
>  <minimizedAffinity>
-5.70972061

$$$$

 OpenBabel03242519263D

 38 41  0  0  0  0  0  0  0  0999 V2000
   37.9170   24.8310   41.6660 C   0  0  0  0  0  0  0  0  0  0  0  0
   38.9380   24.6270   42.6200 C   0  0  0  0  0  0  0  0  0  0  0  0
   39.5790   25.7340   43.2120 C   0  0  0  0  0  0  0  0  0  0  0  0
   39.1480   26.9730   42.8010 N   0  0  0  0  0  0  0  0  0  0  0  0
   38.1540   27.1290   41.8720 C   0  0  0  0  0  0  0  0  0  0  0  0
   37.5690   26.0730   41.3330 N   0  0  0  0  0  0  0  0  0  0  0  0
   39.3370   23.6960   42.9980 H   0  0  0  0  0  0  0  0  0  0  0  0
   40.3520   25.6600   43.9340 H   0  0  0  0  0  0  0  0  0  0  0  0
   37.3310   23.6010   41.1170 C   0  0  0  0  0  0  0  0  0  0  0  0
   38.3070   22.7020   40.5050 C   0  0  0  0  0  0  0  0  0  0  0  0
   38.1740   22.5590   39.0340 C   0  0  0  0  0  0  0  0  0  0  0  0
   36.7660   22.1740   38.6050 C   0  0  0  0  0  0  0  0  0  0  0  0
   35.6770   22.8340   39.4100 C   0  0  0  0  0  0  0  0  0  0  0  0
   36.2150   24.0470   40.1550 C   0  0  0  0  0  0  0  0  0  0  0  0
   36.7910   23.0940   41.9710 H   0  0  0  0  0  0  0  0  0  0  0  0
   39.3310   23.0910   40.7030 H   0  0  0  0  0  0  0  0  0  0  0  0
   38.2900   21.6700   40.9540 H   0  0  0  0  0  0  0  0  0  0  0  0
   38.4900   23.3900   38.4130 H   0  0  0  0  0  0  0  0  0  0  0  0
   38.8220   21.6900   38.7170 H   0  0  0  0  0  0  0  0  0  0  0  0
   36.6760   22.3350   37.5240 H   0  0  0  0  0  0  0  0  0  0  0  0
   36.6530   21.0800   38.7790 H   0  0  0  0  0  0  0  0  0  0  0  0
   34.8900   23.1950   38.7280 H   0  0  0  0  0  0  0  0  0  0  0  0
   35.2180   22.1430   40.1560 H   0  0  0  0  0  0  0  0  0  0  0  0
   36.5890   24.8030   39.4460 H   0  0  0  0  0  0  0  0  0  0  0  0
   35.4150   24.4670   40.7750 H   0  0  0  0  0  0  0  0  0  0  0  0
   37.8310   28.5040   41.5390 C   0  0  0  0  0  0  0  0  0  0  0  0
   36.5120   28.8350   41.4990 N   0  0  0  0  0  0  0  0  0  0  0  0
   36.3780   30.1310   41.1920 C   0  0  0  0  0  0  0  0  0  0  0  0
   37.6350   30.6110   41.0400 N   0  0  0  0  0  0  0  0  0  0  0  0
   38.5270   29.6230   41.2490 N   0  0  0  0  0  0  0  0  0  0  0  0
   35.4800   30.7420   41.0740 H   0  0  0  0  0  0  0  0  0  0  0  0
   38.0460   31.9450   40.7080 C   0  0  0  0  0  0  0  0  0  0  0  0
   39.2700   32.6560   41.0790 C   0  0  0  0  0  0  0  0  0  0  0  0
   39.9710   31.9170   41.7670 H   0  0  0  0  0  0  0  0  0  0  0  0
   39.0430   34.2970   40.2730 S   0  0  0  0  0  0  0  0  0  0  0  0
   37.3640   33.7320   39.5960 C   0  0  0  0  0  0  0  0  0  0  0  0
   36.9110   34.6110   38.9840 H   0  0  0  0  0  0  0  0  0  0  0  0
   37.2260   32.6610   39.9660 N   0  0  0  0  0  0  0  0  0  0  0  0
  1  2  1  0  0  0  0
  2  7  1  0  0  0  0
  2  3  2  0  0  0  0
  3  8  1  0  0  0  0
  4  3  1  0  0  0  0
  5  4  2  0  0  0  0
  6  1  2  0  0  0  0
  6  5  1  0  0  0  0
  9  1  1  0  0  0  0
  9 15  1  0  0  0  0
 10 16  1  0  0  0  0
 10 17  1  0  0  0  0
 10  9  1  0  0  0  0
 11 10  1  0  0  0  0
 12 21  1  0  0  0  0
 12 11  1  0  0  0  0
 12 13  1  0  0  0  0
 13 14  1  0  0  0  0
 13 23  1  0  0  0  0
 14 25  1  0  0  0  0
 14  9  1  0  0  0  0
 18 11  1  0  0  0  0
 19 11  1  0  0  0  0
 20 12  1  0  0  0  0
 22 13  1  0  0  0  0
 24 14  1  0  0  0  0
 26  5  1  0  0  0  0
 27 26  1  0  0  0  0
 28 27  2  0  0  0  0
 29 28  1  0  0  0  0
 29 30  1  0  0  0  0
 30 26  2  0  0  0  0
 31 28  1  0  0  0  0
 32 29  1  0  0  0  0
 32 33  2  0  0  0  0
 33 34  1  0  0  0  0
 35 33  1  0  0  0  0
 36 38  2  0  0  0  0
 36 35  1  0  0  0  0
 37 36  1  0  0  0  0
 38 32  1  0  0  0  0
M  END
>  <minimizedAffinity>
-5.42134094

$$$$

 OpenBabel03242519263D

 38 41  0  0  0  0  0  0  0  0999 V2000
   32.3800   29.4480   36.7150 C   0  0  0  0  0  0  0  0  0  0  0  0
   32.7480   29.3160   35.3570 C   0  0  0  0  0  0  0  0  0  0  0  0
   34.0850   29.0320   35.0150 C   0  0  0  0  0  0  0  0  0  0  0  0
   34.9630   28.9010   36.0640 N   0  0  0  0  0  0  0  0  0  0  0  0
   34.5680   29.0370   37.3690 C   0  0  0  0  0  0  0  0  0  0  0  0
   33.3060   29.3020   37.6620 N   0  0  0  0  0  0  0  0  0  0  0  0
   32.1280   29.4030   34.4750 H   0  0  0  0  0  0  0  0  0  0  0  0
   34.4350   28.9180   34.0200 H   0  0  0  0  0  0  0  0  0  0  0  0
   30.9610   29.7500   36.9440 C   0  0  0  0  0  0  0  0  0  0  0  0
   30.4830   30.9260   36.2190 C   0  0  0  0  0  0  0  0  0  0  0  0
   30.1190   32.0760   37.0830 C   0  0  0  0  0  0  0  0  0  0  0  0
   29.1340   31.6990   38.1800 C   0  0  0  0  0  0  0  0  0  0  0  0
   29.3750   30.3380   38.7810 C   0  0  0  0  0  0  0  0  0  0  0  0
   30.7830   29.8510   38.4700 C   0  0  0  0  0  0  0  0  0  0  0  0
   30.3840   28.8250   36.6450 H   0  0  0  0  0  0  0  0  0  0  0  0
   31.2830   31.2760   35.5290 H   0  0  0  0  0  0  0  0  0  0  0  0
   29.5990   30.6990   35.5580 H   0  0  0  0  0  0  0  0  0  0  0  0
   30.9240   32.6380   37.5440 H   0  0  0  0  0  0  0  0  0  0  0  0
   29.5660   32.8230   36.4410 H   0  0  0  0  0  0  0  0  0  0  0  0
   29.1110   32.5100   38.9190 H   0  0  0  0  0  0  0  0  0  0  0  0
   28.1220   31.6540   37.7180 H   0  0  0  0  0  0  0  0  0  0  0  0
   29.2900   30.4060   39.8770 H   0  0  0  0  0  0  0  0  0  0  0  0
   28.6520   29.5740   38.4090 H   0  0  0  0  0  0  0  0  0  0  0  0
   31.5340   30.5290   38.9070 H   0  0  0  0  0  0  0  0  0  0  0  0
   30.9040   28.8380   38.8680 H   0  0  0  0  0  0  0  0  0  0  0  0
   35.6230   28.8840   38.3520 C   0  0  0  0  0  0  0  0  0  0  0  0
   36.8240   29.4560   38.0620 N   0  0  0  0  0  0  0  0  0  0  0  0
   37.6840   29.2400   39.0650 C   0  0  0  0  0  0  0  0  0  0  0  0
   37.0050   28.5240   39.9920 N   0  0  0  0  0  0  0  0  0  0  0  0
   35.7470   28.3010   39.5630 N   0  0  0  0  0  0  0  0  0  0  0  0
   38.7260   29.5470   39.1830 H   0  0  0  0  0  0  0  0  0  0  0  0
   37.4720   28.0340   41.2570 C   0  0  0  0  0  0  0  0  0  0  0  0
   38.8220   27.6320   41.6530 C   0  0  0  0  0  0  0  0  0  0  0  0
   39.5800   27.7740   40.6960 H   0  0  0  0  0  0  0  0  0  0  0  0
   38.5950   27.1310   43.4110 S   0  0  0  0  0  0  0  0  0  0  0  0
   36.7490   27.5490   43.2910 C   0  0  0  0  0  0  0  0  0  0  0  0
   36.2640   27.3280   44.3250 H   0  0  0  0  0  0  0  0  0  0  0  0
   36.5840   27.9160   42.2230 N   0  0  0  0  0  0  0  0  0  0  0  0
  1  9  1  0  0  0  0
  1  6  1  0  0  0  0
  2  1  2  0  0  0  0
  3  2  1  0  0  0  0
  3  4  2  0  0  0  0
  4  5  1  0  0  0  0
  5  6  2  0  0  0  0
  5 26  1  0  0  0  0
  7  2  1  0  0  0  0
  8  3  1  0  0  0  0
  9 14  1  0  0  0  0
 10  9  1  0  0  0  0
 10 11  1  0  0  0  0
 11 18  1  0  0  0  0
 11 12  1  0  0  0  0
 12 13  1  0  0  0  0
 12 20  1  0  0  0  0
 13 22  1  0  0  0  0
 14 13  1  0  0  0  0
 14 25  1  0  0  0  0
 14 24  1  0  0  0  0
 15  9  1  0  0  0  0
 16 10  1  0  0  0  0
 17 10  1  0  0  0  0
 19 11  1  0  0  0  0
 21 12  1  0  0  0  0
 23 13  1  0  0  0  0
 26 30  2  0  0  0  0
 27 26  1  0  0  0  0
 27 28  2  0  0  0  0
 28 31  1  0  0  0  0
 28 29  1  0  0  0  0
 29 32  1  0  0  0  0
 30 29  1  0  0  0  0
 32 33  2  0  0  0  0
 32 38  1  0  0  0  0
 33 35  1  0  0  0  0
 34 33  1  0  0  0  0
 36 35  1  0  0  0  0
 36 37  1  0  0  0  0
 38 36  2  0  0  0  0
M  END
>  <minimizedAffinity>
-5.32793808

$$$$

 OpenBabel03242519263D

 38 41  0  0  0  0  0  0  0  0999 V2000
   32.6900   29.2350   36.9420 C   0  0  0  0  0  0  0  0  0  0  0  0
   33.3630   29.2570   35.7000 C   0  0  0  0  0  0  0  0  0  0  0  0
   34.7300   28.9180   35.6350 C   0  0  0  0  0  0  0  0  0  0  0  0
   35.3260   28.5800   36.8260 N   0  0  0  0  0  0  0  0  0  0  0  0
   34.6390   28.5720   38.0110 C   0  0  0  0  0  0  0  0  0  0  0  0
   33.3570   28.8940   38.0430 N   0  0  0  0  0  0  0  0  0  0  0  0
   32.9750   29.5090   34.7230 H   0  0  0  0  0  0  0  0  0  0  0  0
   35.3000   28.9110   34.7410 H   0  0  0  0  0  0  0  0  0  0  0  0
   31.2720   29.6140   36.8820 C   0  0  0  0  0  0  0  0  0  0  0  0
   30.9670   30.6040   35.8500 C   0  0  0  0  0  0  0  0  0  0  0  0
   30.5500   31.9280   36.3720 C   0  0  0  0  0  0  0  0  0  0  0  0
   29.4010   31.8350   37.3660 C   0  0  0  0  0  0  0  0  0  0  0  0
   29.4780   30.6430   38.2830 C   0  0  0  0  0  0  0  0  0  0  0  0
   30.8860   30.0650   38.3030 C   0  0  0  0  0  0  0  0  0  0  0  0
   30.6910   28.6590   36.7140 H   0  0  0  0  0  0  0  0  0  0  0  0
   31.8750   30.7690   35.2280 H   0  0  0  0  0  0  0  0  0  0  0  0
   30.1750   30.2520   35.1310 H   0  0  0  0  0  0  0  0  0  0  0  0
   31.3130   32.5630   36.8120 H   0  0  0  0  0  0  0  0  0  0  0  0
   30.1370   32.5220   35.5040 H   0  0  0  0  0  0  0  0  0  0  0  0
   29.3190   32.7940   37.8930 H   0  0  0  0  0  0  0  0  0  0  0  0
   28.4640   31.7090   36.7780 H   0  0  0  0  0  0  0  0  0  0  0  0
   29.2430   30.9610   39.3110 H   0  0  0  0  0  0  0  0  0  0  0  0
   28.7730   29.8300   37.9870 H   0  0  0  0  0  0  0  0  0  0  0  0
   31.6050   30.8080   38.6860 H   0  0  0  0  0  0  0  0  0  0  0  0
   30.8930   29.1680   38.9300 H   0  0  0  0  0  0  0  0  0  0  0  0
   35.4220   28.2080   39.1760 C   0  0  0  0  0  0  0  0  0  0  0  0
   35.3820   29.0600   40.2370 N   0  0  0  0  0  0  0  0  0  0  0  0
   36.1400   28.5840   41.2320 C   0  0  0  0  0  0  0  0  0  0  0  0
   36.6590   27.4170   40.7810 N   0  0  0  0  0  0  0  0  0  0  0  0
   36.2260   27.1820   39.5260 N   0  0  0  0  0  0  0  0  0  0  0  0
   36.3450   28.9920   42.2250 H   0  0  0  0  0  0  0  0  0  0  0  0
   37.5390   26.5110   41.4600 C   0  0  0  0  0  0  0  0  0  0  0  0
   38.8600   26.7620   42.0380 C   0  0  0  0  0  0  0  0  0  0  0  0
   39.1580   27.9420   41.8610 H   0  0  0  0  0  0  0  0  0  0  0  0
   39.3240   25.1140   42.7160 S   0  0  0  0  0  0  0  0  0  0  0  0
   37.6770   24.4000   42.1060 C   0  0  0  0  0  0  0  0  0  0  0  0
   37.6450   23.2740   42.3980 H   0  0  0  0  0  0  0  0  0  0  0  0
   37.1320   25.2660   41.6020 N   0  0  0  0  0  0  0  0  0  0  0  0
  1  6  1  0  0  0  0
  2  1  2  0  0  0  0
  3  2  1  0  0  0  0
  3  4  2  0  0  0  0
  4  5  1  0  0  0  0
  5  6  2  0  0  0  0
  5 26  1  0  0  0  0
  7  2  1  0  0  0  0
  8  3  1  0  0  0  0
  9  1  1  0  0  0  0
  9 14  1  0  0  0  0
 10 11  1  0  0  0  0
 10  9  1  0  0  0  0
 11 18  1  0  0  0  0
 11 12  1  0  0  0  0
 12 20  1  0  0  0  0
 12 13  1  0  0  0  0
 13 14  1  0  0  0  0
 13 22  1  0  0  0  0
 14 24  1  0  0  0  0
 14 25  1  0  0  0  0
 15  9  1  0  0  0  0
 16 10  1  0  0  0  0
 17 10  1  0  0  0  0
 19 11  1  0  0  0  0
 21 12  1  0  0  0  0
 23 13  1  0  0  0  0
 26 30  2  0  0  0  0
 26 27  1  0  0  0  0
 27 28  2  0  0  0  0
 28 31  1  0  0  0  0
 29 28  1  0  0  0  0
 29 32  1  0  0  0  0
 30 29  1  0  0  0  0
 32 38  1  0  0  0  0
 32 33  2  0  0  0  0
 33 35  1  0  0  0  0
 34 33  1  0  0  0  0
 36 37  1  0  0  0  0
 36 35  1  0  0  0  0
 38 36  2  0  0  0  0
M  END
>  <minimizedAffinity>
-5.2939539

$$$$

 OpenBabel03242519263D

 38 41  0  0  0  0  0  0  0  0999 V2000
   36.8990   28.9410   41.3130 C   0  0  0  0  0  0  0  0  0  0  0  0
   37.0440   28.4070   42.6130 C   0  0  0  0  0  0  0  0  0  0  0  0
   38.0410   28.9110   43.4740 C   0  0  0  0  0  0  0  0  0  0  0  0
   38.8240   29.9200   42.9650 N   0  0  0  0  0  0  0  0  0  0  0  0
   38.6530   30.4110   41.6980 C   0  0  0  0  0  0  0  0  0  0  0  0
   37.7090   29.9200   40.9120 N   0  0  0  0  0  0  0  0  0  0  0  0
   36.4770   27.6200   43.0900 H   0  0  0  0  0  0  0  0  0  0  0  0
   38.2090   28.5620   44.4600 H   0  0  0  0  0  0  0  0  0  0  0  0
   35.8320   28.3300   40.5100 C   0  0  0  0  0  0  0  0  0  0  0  0
   36.2930   27.2540   39.6340 C   0  0  0  0  0  0  0  0  0  0  0  0
   36.2110   27.5630   38.1850 C   0  0  0  0  0  0  0  0  0  0  0  0
   34.8270   28.0290   37.7600 C   0  0  0  0  0  0  0  0  0  0  0  0
   34.1390   28.9110   38.7690 C   0  0  0  0  0  0  0  0  0  0  0  0
   35.1420   29.4830   39.7600 C   0  0  0  0  0  0  0  0  0  0  0  0
   35.0560   27.9540   41.2410 H   0  0  0  0  0  0  0  0  0  0  0  0
   37.3600   27.0350   39.8610 H   0  0  0  0  0  0  0  0  0  0  0  0
   35.7470   26.2850   39.8110 H   0  0  0  0  0  0  0  0  0  0  0  0
   36.9320   28.2620   37.7740 H   0  0  0  0  0  0  0  0  0  0  0  0
   36.3790   26.5990   37.6220 H   0  0  0  0  0  0  0  0  0  0  0  0
   34.9020   28.4760   36.7610 H   0  0  0  0  0  0  0  0  0  0  0  0
   34.1870   27.1230   37.6600 H   0  0  0  0  0  0  0  0  0  0  0  0
   33.6750   29.7640   38.2480 H   0  0  0  0  0  0  0  0  0  0  0  0
   33.3520   28.3680   39.3450 H   0  0  0  0  0  0  0  0  0  0  0  0
   35.8840   30.1120   39.2420 H   0  0  0  0  0  0  0  0  0  0  0  0
   34.6030   30.0690   40.5120 H   0  0  0  0  0  0  0  0  0  0  0  0
   39.5750   31.4620   41.3140 C   0  0  0  0  0  0  0  0  0  0  0  0
   39.0350   32.5930   40.7830 N   0  0  0  0  0  0  0  0  0  0  0  0
   40.0050   33.4680   40.4920 C   0  0  0  0  0  0  0  0  0  0  0  0
   41.1670   32.8700   40.8490 N   0  0  0  0  0  0  0  0  0  0  0  0
   40.9110   31.6440   41.3500 N   0  0  0  0  0  0  0  0  0  0  0  0
   39.9500   34.4690   40.0600 H   0  0  0  0  0  0  0  0  0  0  0  0
   42.5010   33.3830   40.7450 C   0  0  0  0  0  0  0  0  0  0  0  0
   43.4850   33.1960   39.6780 C   0  0  0  0  0  0  0  0  0  0  0  0
   42.9950   32.4870   38.8010 H   0  0  0  0  0  0  0  0  0  0  0  0
   44.9310   34.1610   40.2860 S   0  0  0  0  0  0  0  0  0  0  0  0
   43.9590   34.6320   41.8450 C   0  0  0  0  0  0  0  0  0  0  0  0
   44.6440   35.3010   42.5050 H   0  0  0  0  0  0  0  0  0  0  0  0
   42.9380   34.1330   41.7360 N   0  0  0  0  0  0  0  0  0  0  0  0
  1  2  1  0  0  0  0
  2  7  1  0  0  0  0
  2  3  2  0  0  0  0
  3  8  1  0  0  0  0
  4  3  1  0  0  0  0
  5  4  2  0  0  0  0
  6  1  2  0  0  0  0
  6  5  1  0  0  0  0
  9 15  1  0  0  0  0
  9  1  1  0  0  0  0
 10 17  1  0  0  0  0
 10 16  1  0  0  0  0
 10  9  1  0  0  0  0
 11 10  1  0  0  0  0
 12 11  1  0  0  0  0
 12 13  1  0  0  0  0
 13 23  1  0  0  0  0
 13 14  1  0  0  0  0
 14  9  1  0  0  0  0
 14 25  1  0  0  0  0
 18 11  1  0  0  0  0
 19 11  1  0  0  0  0
 20 12  1  0  0  0  0
 21 12  1  0  0  0  0
 22 13  1  0  0  0  0
 24 14  1  0  0  0  0
 26 30  2  0  0  0  0
 26  5  1  0  0  0  0
 27 26  1  0  0  0  0
 28 27  2  0  0  0  0
 28 29  1  0  0  0  0
 29 30  1  0  0  0  0
 31 28  1  0  0  0  0
 32 29  1  0  0  0  0
 32 38  1  0  0  0  0
 33 35  1  0  0  0  0
 33 32  2  0  0  0  0
 34 33  1  0  0  0  0
 35 36  1  0  0  0  0
 36 37  1  0  0  0  0
 38 36  2  0  0  0  0
M  END
>  <minimizedAffinity>
-5.24287367

$$$$

 OpenBabel03242519263D

 38 41  0  0  0  0  0  0  0  0999 V2000
   36.8920   27.9980   41.8980 C   0  0  0  0  0  0  0  0  0  0  0  0
   37.3480   29.2540   42.3560 C   0  0  0  0  0  0  0  0  0  0  0  0
   36.9770   30.4300   41.6710 C   0  0  0  0  0  0  0  0  0  0  0  0
   36.1710   30.2590   40.5710 N   0  0  0  0  0  0  0  0  0  0  0  0
   35.7500   29.0230   40.1580 C   0  0  0  0  0  0  0  0  0  0  0  0
   36.1120   27.9370   40.8200 N   0  0  0  0  0  0  0  0  0  0  0  0
   37.9790   29.4790   43.2040 H   0  0  0  0  0  0  0  0  0  0  0  0
   37.2790   31.4060   41.9550 H   0  0  0  0  0  0  0  0  0  0  0  0
   37.3510   26.8490   42.6900 C   0  0  0  0  0  0  0  0  0  0  0  0
   38.4380   27.1640   43.6150 C   0  0  0  0  0  0  0  0  0  0  0  0
   39.7350   26.5270   43.2790 C   0  0  0  0  0  0  0  0  0  0  0  0
   39.6210   25.0210   43.0970 C   0  0  0  0  0  0  0  0  0  0  0  0
   38.3540   24.5790   42.4130 C   0  0  0  0  0  0  0  0  0  0  0  0
   37.7010   25.7420   41.6790 C   0  0  0  0  0  0  0  0  0  0  0  0
   36.4450   26.4590   43.2440 H   0  0  0  0  0  0  0  0  0  0  0  0
   38.6050   28.2650   43.6150 H   0  0  0  0  0  0  0  0  0  0  0  0
   38.1910   26.9020   44.6820 H   0  0  0  0  0  0  0  0  0  0  0  0
   40.2880   26.9190   42.4320 H   0  0  0  0  0  0  0  0  0  0  0  0
   40.4200   26.6620   44.1670 H   0  0  0  0  0  0  0  0  0  0  0  0
   40.5360   24.6600   42.6090 H   0  0  0  0  0  0  0  0  0  0  0  0
   39.5950   24.5640   44.1120 H   0  0  0  0  0  0  0  0  0  0  0  0
   38.5970   23.8150   41.6570 H   0  0  0  0  0  0  0  0  0  0  0  0
   37.6090   24.1560   43.1270 H   0  0  0  0  0  0  0  0  0  0  0  0
   38.3700   26.1290   40.8930 H   0  0  0  0  0  0  0  0  0  0  0  0
   36.7560   25.4020   41.2450 H   0  0  0  0  0  0  0  0  0  0  0  0
   34.9180   29.0190   38.9700 C   0  0  0  0  0  0  0  0  0  0  0  0
   35.5540   28.8890   37.7730 N   0  0  0  0  0  0  0  0  0  0  0  0
   34.6570   28.8900   36.7790 C   0  0  0  0  0  0  0  0  0  0  0  0
   33.4450   29.0230   37.3700 N   0  0  0  0  0  0  0  0  0  0  0  0
   33.5980   29.1040   38.7060 N   0  0  0  0  0  0  0  0  0  0  0  0
   34.7960   28.8050   35.6990 H   0  0  0  0  0  0  0  0  0  0  0  0
   32.1540   29.0810   36.7490 C   0  0  0  0  0  0  0  0  0  0  0  0
   31.7190   28.5350   35.4630 C   0  0  0  0  0  0  0  0  0  0  0  0
   32.6690   27.9700   34.9250 H   0  0  0  0  0  0  0  0  0  0  0  0
   29.9450   29.0270   35.3940 S   0  0  0  0  0  0  0  0  0  0  0  0
   30.1130   29.8660   37.0860 C   0  0  0  0  0  0  0  0  0  0  0  0
   29.0790   30.3200   37.3640 H   0  0  0  0  0  0  0  0  0  0  0  0
   31.1980   29.7090   37.4030 N   0  0  0  0  0  0  0  0  0  0  0  0
  1  2  1  0  0  0  0
  1  9  1  0  0  0  0
  2  7  1  0  0  0  0
  3  8  1  0  0  0  0
  3  2  2  0  0  0  0
  4  3  1  0  0  0  0
  5  4  2  0  0  0  0
  5  6  1  0  0  0  0
  6  1  2  0  0  0  0
  9 15  1  0  0  0  0
  9 10  1  0  0  0  0
 10 17  1  0  0  0  0
 11 10  1  0  0  0  0
 11 19  1  0  0  0  0
 12 11  1  0  0  0  0
 12 21  1  0  0  0  0
 13 12  1  0  0  0  0
 13 23  1  0  0  0  0
 14 13  1  0  0  0  0
 14  9  1  0  0  0  0
 16 10  1  0  0  0  0
 18 11  1  0  0  0  0
 20 12  1  0  0  0  0
 22 13  1  0  0  0  0
 24 14  1  0  0  0  0
 25 14  1  0  0  0  0
 26  5  1  0  0  0  0
 27 26  1  0  0  0  0
 28 29  1  0  0  0  0
 28 27  2  0  0  0  0
 29 30  1  0  0  0  0
 30 26  2  0  0  0  0
 31 28  1  0  0  0  0
 32 29  1  0  0  0  0
 32 38  1  0  0  0  0
 33 32  2  0  0  0  0
 34 33  1  0  0  0  0
 35 33  1  0  0  0  0
 35 36  1  0  0  0  0
 36 37  1  0  0  0  0
 36 38  2  0  0  0  0
M  END
>  <minimizedAffinity>
-5.22285557

$$$$

 OpenBabel03242519263D

 38 41  0  0  0  0  0  0  0  0999 V2000
   37.3530   28.5760   41.2950 C   0  0  0  0  0  0  0  0  0  0  0  0
   36.2180   29.4050   41.4300 C   0  0  0  0  0  0  0  0  0  0  0  0
   36.1340   30.6090   40.7010 C   0  0  0  0  0  0  0  0  0  0  0  0
   37.2020   30.8970   39.8850 N   0  0  0  0  0  0  0  0  0  0  0  0
   38.2870   30.0670   39.7820 C   0  0  0  0  0  0  0  0  0  0  0  0
   38.3390   28.9430   40.4770 N   0  0  0  0  0  0  0  0  0  0  0  0
   35.3400   29.2580   42.0440 H   0  0  0  0  0  0  0  0  0  0  0  0
   35.3150   31.2800   40.7500 H   0  0  0  0  0  0  0  0  0  0  0  0
   37.3270   27.3550   42.1100 C   0  0  0  0  0  0  0  0  0  0  0  0
   38.5420   27.1400   42.8940 C   0  0  0  0  0  0  0  0  0  0  0  0
   39.3480   25.9690   42.4680 C   0  0  0  0  0  0  0  0  0  0  0  0
   38.5330   24.6860   42.4010 C   0  0  0  0  0  0  0  0  0  0  0  0
   37.1310   24.8750   41.8830 C   0  0  0  0  0  0  0  0  0  0  0  0
   37.0020   26.2000   41.1450 C   0  0  0  0  0  0  0  0  0  0  0  0
   36.4200   27.4360   42.7800 H   0  0  0  0  0  0  0  0  0  0  0  0
   39.1950   28.0360   42.8020 H   0  0  0  0  0  0  0  0  0  0  0  0
   38.3350   27.0340   43.9960 H   0  0  0  0  0  0  0  0  0  0  0  0
   39.9100   26.0490   41.5440 H   0  0  0  0  0  0  0  0  0  0  0  0
   40.1220   25.7800   43.2690 H   0  0  0  0  0  0  0  0  0  0  0  0
   39.1120   23.9360   41.8460 H   0  0  0  0  0  0  0  0  0  0  0  0
   38.4260   24.3050   43.4410 H   0  0  0  0  0  0  0  0  0  0  0  0
   36.9010   24.0770   41.1600 H   0  0  0  0  0  0  0  0  0  0  0  0
   36.3690   24.8550   42.6980 H   0  0  0  0  0  0  0  0  0  0  0  0
   37.6700   26.2230   40.2690 H   0  0  0  0  0  0  0  0  0  0  0  0
   35.9600   26.3340   40.8350 H   0  0  0  0  0  0  0  0  0  0  0  0
   39.3340   30.5280   38.8900 C   0  0  0  0  0  0  0  0  0  0  0  0
   39.2060   31.7860   38.3870 N   0  0  0  0  0  0  0  0  0  0  0  0
   40.2490   32.0680   37.5970 C   0  0  0  0  0  0  0  0  0  0  0  0
   41.0360   30.9660   37.6100 N   0  0  0  0  0  0  0  0  0  0  0  0
   40.4830   30.0210   38.3960 N   0  0  0  0  0  0  0  0  0  0  0  0
   40.4840   32.9720   37.0300 H   0  0  0  0  0  0  0  0  0  0  0  0
   42.2770   30.7500   36.9240 C   0  0  0  0  0  0  0  0  0  0  0  0
   43.4960   31.5600   36.9370 C   0  0  0  0  0  0  0  0  0  0  0  0
   43.3230   32.5340   37.6670 H   0  0  0  0  0  0  0  0  0  0  0  0
   44.6170   30.6220   35.8170 S   0  0  0  0  0  0  0  0  0  0  0  0
   43.2580   29.3300   35.5400 C   0  0  0  0  0  0  0  0  0  0  0  0
   43.6750   28.5210   34.8150 H   0  0  0  0  0  0  0  0  0  0  0  0
   42.3670   29.6780   36.1640 N   0  0  0  0  0  0  0  0  0  0  0  0
  1  2  1  0  0  0  0
  1  9  1  0  0  0  0
  2  7  1  0  0  0  0
  3  8  1  0  0  0  0
  3  2  2  0  0  0  0
  4  3  1  0  0  0  0
  5  4  2  0  0  0  0
  5  6  1  0  0  0  0
  6  1  2  0  0  0  0
  9 15  1  0  0  0  0
  9 10  1  0  0  0  0
 10 17  1  0  0  0  0
 11 10  1  0  0  0  0
 11 19  1  0  0  0  0
 12 11  1  0  0  0  0
 12 21  1  0  0  0  0
 13 12  1  0  0  0  0
 13 23  1  0  0  0  0
 14 13  1  0  0  0  0
 14  9  1  0  0  0  0
 16 10  1  0  0  0  0
 18 11  1  0  0  0  0
 20 12  1  0  0  0  0
 22 13  1  0  0  0  0
 24 14  1  0  0  0  0
 25 14  1  0  0  0  0
 26  5  1  0  0  0  0
 27 26  1  0  0  0  0
 28 29  1  0  0  0  0
 28 27  2  0  0  0  0
 29 30  1  0  0  0  0
 30 26  2  0  0  0  0
 31 28  1  0  0  0  0
 32 33  2  0  0  0  0
 32 29  1  0  0  0  0
 33 34  1  0  0  0  0
 35 33  1  0  0  0  0
 36 35  1  0  0  0  0
 36 38  2  0  0  0  0
 37 36  1  0  0  0  0
 38 32  1  0  0  0  0
M  END
>  <minimizedAffinity>
-5.21998167

$$$$
