
 OpenBabel03242511473D

 42 44  0  0  0  0  0  0  0  0999 V2000
   45.9020   32.3530   44.4960 C   0  0  0  0  0  0  0  0  0  0  0  0
   46.5730   32.0290   43.6500 H   0  0  0  0  0  0  0  0  0  0  0  0
   45.1480   31.5510   44.5900 H   0  0  0  0  0  0  0  0  0  0  0  0
   44.6610   35.7940   44.5620 C   0  0  0  0  0  0  0  0  0  0  0  0
   44.0270   35.9040   43.3010 C   0  0  0  0  0  0  0  0  0  0  0  0
   44.0550   34.7830   42.4680 C   0  0  0  0  0  0  0  0  0  0  0  0
   44.6740   33.6860   42.9070 N   0  0  0  0  0  0  0  0  0  0  0  0
   45.2620   33.6270   44.1100 C   0  0  0  0  0  0  0  0  0  0  0  0
   45.2700   34.6350   44.9310 N   0  0  0  0  0  0  0  0  0  0  0  0
   44.6490   36.6570   45.2210 H   0  0  0  0  0  0  0  0  0  0  0  0
   43.5590   36.8440   43.0560 H   0  0  0  0  0  0  0  0  0  0  0  0
   43.3780   34.9170   41.1640 C   0  0  0  0  0  0  0  0  0  0  0  0
   44.0870   35.4540   40.4960 H   0  0  0  0  0  0  0  0  0  0  0  0
   43.2500   33.9190   40.6830 H   0  0  0  0  0  0  0  0  0  0  0  0
   42.0700   35.6070   41.2510 C   0  0  0  0  0  0  0  0  0  0  0  0
   42.1670   36.5490   40.6180 H   0  0  0  0  0  0  0  0  0  0  0  0
   42.0100   36.0300   42.2910 H   0  0  0  0  0  0  0  0  0  0  0  0
   40.8780   34.8690   40.8590 C   0  0  0  0  0  0  0  0  0  0  0  0
   39.9920   35.1630   39.8260 C   0  0  0  0  0  0  0  0  0  0  0  0
   39.9370   35.9380   39.0880 H   0  0  0  0  0  0  0  0  0  0  0  0
   38.7170   33.8180   39.9450 S   0  0  0  0  0  0  0  0  0  0  0  0
   39.6560   33.0800   41.4290 C   0  0  0  0  0  0  0  0  0  0  0  0
   39.3100   32.1470   41.9760 H   0  0  0  0  0  0  0  0  0  0  0  0
   40.5490   33.7920   41.5540 N   0  0  0  0  0  0  0  0  0  0  0  0
   46.6950   32.5540   45.7460 C   0  0  0  0  0  0  0  0  0  0  0  0
   47.7580   32.2140   45.5770 H   0  0  0  0  0  0  0  0  0  0  0  0
   46.8130   33.6400   46.0050 H   0  0  0  0  0  0  0  0  0  0  0  0
   46.1340   31.8790   46.8930 C   0  0  0  0  0  0  0  0  0  0  0  0
   45.3430   32.3730   47.9000 C   0  0  0  0  0  0  0  0  0  0  0  0
   44.8660   31.6350   48.9360 C   0  0  0  0  0  0  0  0  0  0  0  0
   45.1930   30.2990   48.9850 C   0  0  0  0  0  0  0  0  0  0  0  0
   45.9840   29.7840   47.9850 C   0  0  0  0  0  0  0  0  0  0  0  0
   46.4590   30.5510   46.9420 C   0  0  0  0  0  0  0  0  0  0  0  0
   45.1140   33.4430   47.8090 H   0  0  0  0  0  0  0  0  0  0  0  0
   44.2590   32.1500   49.6520 H   0  0  0  0  0  0  0  0  0  0  0  0
   44.7780   29.7630   49.8410 H   0  0  0  0  0  0  0  0  0  0  0  0
   46.1450   28.7100   48.1810 H   0  0  0  0  0  0  0  0  0  0  0  0
   48.5960   29.4640   46.5830 C   0  0  0  0  0  0  0  0  0  0  0  0
   49.3590   29.8230   47.5500 O   0  0  0  0  0  0  0  0  0  0  0  0
   47.2510   29.6860   46.1100 N   0  0  0  0  0  0  0  0  0  0  0  0
   49.3850   28.8440   46.1600 H   0  0  0  0  0  0  0  0  0  0  0  0
   47.0750   29.1710   45.2240 H   0  0  0  0  0  0  0  0  0  0  0  0
  1  3  1  0  0  0  0
  1 25  1  0  0  0  0
  2  1  1  0  0  0  0
  4  9  1  0  0  0  0
  4 10  1  0  0  0  0
  5  4  2  0  0  0  0
  6  7  2  0  0  0  0
  6  5  1  0  0  0  0
  7  8  1  0  0  0  0
  8  1  1  0  0  0  0
  8  9  2  0  0  0  0
 11  5  1  0  0  0  0
 12 15  1  0  0  0  0
 12  6  1  0  0  0  0
 13 12  1  0  0  0  0
 14 12  1  0  0  0  0
 15 17  1  0  0  0  0
 16 15  1  0  0  0  0
 18 15  1  0  0  0  0
 18 24  1  0  0  0  0
 19 21  1  0  0  0  0
 19 18  2  0  0  0  0
 20 19  1  0  0  0  0
 21 22  1  0  0  0  0
 22 24  2  0  0  0  0
 22 23  1  0  0  0  0
 25 27  1  0  0  0  0
 25 28  1  0  0  0  0
 26 25  1  0  0  0  0
 28 33  2  0  0  0  0
 28 29  1  0  0  0  0
 29 30  2  0  0  0  0
 30 31  1  0  0  0  0
 30 35  1  0  0  0  0
 31 36  1  0  0  0  0
 32 37  1  0  0  0  0
 32 31  2  0  0  0  0
 33 32  1  0  0  0  0
 34 29  1  0  0  0  0
 38 39  2  0  0  0  0
 40 38  1  0  0  0  0
 40 33  1  0  0  0  0
 41 38  1  0  0  0  0
 42 40  1  0  0  0  0
M  END
>  <minimizedAffinity>
-5.42937851

>  <minimizedRMSD>
0.910806954

$$$$
