
 OpenBabel03242511163D

 17 18  0  0  0  0  0  0  0  0999 V2000
   44.5460   36.0050   44.5400 C   0  0  0  0  0  0  0  0  0  0  0  0
   45.1970   35.9390   43.2920 C   0  0  0  0  0  0  0  0  0  0  0  0
   46.0780   34.8700   43.0840 C   0  0  0  0  0  0  0  0  0  0  0  0
   46.2490   33.9690   44.0920 N   0  0  0  0  0  0  0  0  0  0  0  0
   45.5950   34.0830   45.2730 C   0  0  0  0  0  0  0  0  0  0  0  0
   44.7510   35.0920   45.4970 N   0  0  0  0  0  0  0  0  0  0  0  0
   43.8960   36.8830   44.5600 H   0  0  0  0  0  0  0  0  0  0  0  0
   45.0830   36.6290   42.4860 H   0  0  0  0  0  0  0  0  0  0  0  0
   45.7170   33.3780   46.0840 H   0  0  0  0  0  0  0  0  0  0  0  0
   46.9470   34.7010   41.5410 S   0  0  0  0  0  0  0  0  0  0  0  0
   48.5760   33.9440   41.7530 C   0  0  0  0  0  0  0  0  0  0  0  0
   48.7420   32.6580   41.1770 C   0  0  0  0  0  0  0  0  0  0  0  0
   48.1520   32.0540   40.6670 H   0  0  0  0  0  0  0  0  0  0  0  0
   50.4860   32.3640   41.6600 S   0  0  0  0  0  0  0  0  0  0  0  0
   50.6740   33.9950   42.5330 C   0  0  0  0  0  0  0  0  0  0  0  0
   51.5570   34.3420   43.0220 H   0  0  0  0  0  0  0  0  0  0  0  0
   49.5510   34.5730   42.4140 N   0  0  0  0  0  0  0  0  0  0  0  0
  1  7  1  0  0  0  0
  1  6  1  0  0  0  0
  2  1  2  0  0  0  0
  3  2  1  0  0  0  0
  3  4  2  0  0  0  0
  4  5  1  0  0  0  0
  5  6  2  0  0  0  0
  5  9  1  0  0  0  0
  8  2  1  0  0  0  0
 10 11  1  0  0  0  0
 10  3  1  0  0  0  0
 11 17  1  0  0  0  0
 12 14  1  0  0  0  0
 12 11  2  0  0  0  0
 13 12  1  0  0  0  0
 14 15  1  0  0  0  0
 15 16  1  0  0  0  0
 17 15  2  0  0  0  0
M  END
>  <minimizedAffinity>
-3.86827374

>  <minimizedRMSD>
1.29933155

$$$$
