
 OpenBabel03252508593D

 43 45  0  0  1  0  0  0  0  0999 V2000
   47.2540   34.0670   42.8760 N   0  0  0  0  0  0  0  0  0  0  0  0
   46.7520   35.2970   42.3750 C   0  0  0  0  0  0  0  0  0  0  0  0
   45.2780   35.5320   42.6170 C   0  0  0  0  0  0  0  0  0  0  0  0
   44.7410   34.9270   43.8860 C   0  0  0  0  0  0  0  0  0  0  0  0
   45.8540   34.3260   44.7140 C   0  0  0  0  0  0  0  0  0  0  0  0
   46.5020   33.2810   43.7330 C   0  0  2  0  0  0  0  0  0  0  0  0
   46.9420   35.4920   41.3140 H   0  0  0  0  0  0  0  0  0  0  0  0
   47.3110   36.1000   42.9310 H   0  0  0  0  0  0  0  0  0  0  0  0
   44.6760   35.2160   41.7260 H   0  0  0  0  0  0  0  0  0  0  0  0
   45.1170   36.6290   42.6930 H   0  0  0  0  0  0  0  0  0  0  0  0
   44.0840   34.0830   43.5890 H   0  0  0  0  0  0  0  0  0  0  0  0
   44.1140   35.6340   44.4550 H   0  0  0  0  0  0  0  0  0  0  0  0
   46.5690   35.1260   44.9330 H   0  0  0  0  0  0  0  0  0  0  0  0
   45.4440   33.8010   45.5810 H   0  0  0  0  0  0  0  0  0  0  0  0
   45.6620   32.7090   43.2910 H   0  0  0  0  0  0  0  0  0  0  0  0
   48.2140   33.4320   42.0240 C   0  0  0  0  0  0  0  0  0  0  0  0
   48.8880   32.7830   42.6220 H   0  0  0  0  0  0  0  0  0  0  0  0
   48.8400   34.2330   41.5650 H   0  0  0  0  0  0  0  0  0  0  0  0
   47.4930   32.6350   40.9860 C   0  0  0  0  0  0  0  0  0  0  0  0
   47.5170   31.5560   41.1520 H   0  0  0  0  0  0  0  0  0  0  0  0
   46.4110   32.9420   40.9380 H   0  0  0  0  0  0  0  0  0  0  0  0
   49.3680   32.3550   37.7410 C   0  0  0  0  0  0  0  0  0  0  0  0
   48.8400   32.0460   39.0080 C   0  0  0  0  0  0  0  0  0  0  0  0
   48.0460   32.9710   39.6480 C   0  0  0  0  0  0  0  0  0  0  0  0
   47.8140   34.1350   39.0200 N   0  0  0  0  0  0  0  0  0  0  0  0
   48.3220   34.4210   37.8110 C   0  0  0  0  0  0  0  0  0  0  0  0
   49.1010   33.5400   37.1590 N   0  0  0  0  0  0  0  0  0  0  0  0
   49.9960   31.6120   37.2460 H   0  0  0  0  0  0  0  0  0  0  0  0
   49.0930   31.0780   39.4190 H   0  0  0  0  0  0  0  0  0  0  0  0
   48.0190   35.4040   37.4790 H   0  0  0  0  0  0  0  0  0  0  0  0
   47.3000   32.5440   44.5960 O   0  0  0  0  0  0  0  0  0  0  0  0
   46.2030   30.4040   43.4660 O   0  0  0  0  0  0  0  0  0  0  0  0
   46.7800   30.9570   44.7730 P   0  0  2  0  0  0  0  0  0  0  0  0
   45.4500   31.0120   45.8480 O   0  0  0  0  0  0  0  0  0  0  0  0
   45.6390   31.6500   46.5750 H   0  0  0  0  0  0  0  0  0  0  0  0
   47.9410   29.9780   45.4390 O   0  0  0  0  0  0  0  0  0  0  0  0
   47.7090   28.7500   46.0400 C   0  0  0  0  0  0  0  0  0  0  0  0
   47.6830   28.4710   47.4590 C   0  0  0  0  0  0  0  0  0  0  0  0
   47.8770   29.3790   48.1270 H   0  0  0  0  0  0  0  0  0  0  0  0
   47.3120   26.6150   47.4530 S   0  0  0  0  0  0  0  0  0  0  0  0
   47.2740   26.6160   45.5550 C   0  0  0  0  0  0  0  0  0  0  0  0
   47.0710   25.6440   45.0870 H   0  0  0  0  0  0  0  0  0  0  0  0
   47.4880   27.7280   45.2180 N   0  0  0  0  0  0  0  0  0  0  0  0
  1  6  1  0  0  0  0
  2  3  1  0  0  0  0
  2  1  1  0  0  0  0
  2  8  1  0  0  0  0
  3 10  1  0  0  0  0
  3  4  1  0  0  0  0
  4 12  1  0  0  0  0
  4  5  1  0  0  0  0
  5 13  1  0  0  0  0
  5 14  1  0  0  0  0
  6 15  1  6  0  0  0
  6 31  1  0  0  0  0
  6  5  1  0  0  0  0
  7  2  1  0  0  0  0
  9  3  1  0  0  0  0
 11  4  1  0  0  0  0
 16 17  1  0  0  0  0
 16  1  1  0  0  0  0
 18 16  1  0  0  0  0
 19 20  1  0  0  0  0
 19 16  1  0  0  0  0
 21 19  1  0  0  0  0
 22 23  1  0  0  0  0
 23 29  1  0  0  0  0
 23 24  2  0  0  0  0
 24 19  1  0  0  0  0
 25 24  1  0  0  0  0
 26 25  2  0  0  0  0
 27 22  2  0  0  0  0
 27 26  1  0  0  0  0
 28 22  1  0  0  0  0
 30 26  1  0  0  0  0
 31 33  1  0  0  0  0
 33 32  2  6  0  0  0
 33 36  1  0  0  0  0
 33 34  1  0  0  0  0
 34 35  1  0  0  0  0
 36 37  1  0  0  0  0
 37 38  2  0  0  0  0
 38 39  1  0  0  0  0
 40 38  1  0  0  0  0
 41 40  1  0  0  0  0
 42 41  1  0  0  0  0
 43 41  2  0  0  0  0
 43 37  1  0  0  0  0
M  END
>  <minimizedAffinity>
-3.79744244

>  <minimizedRMSD>
0.3873505

$$$$
