
 OpenBabel03252509263D

 28 30  0  0  1  0  0  0  0  0999 V2000
   46.7040   35.1490   41.9350 C   0  0  1  0  0  0  0  0  0  0  0  0
   48.2390   35.4040   41.9880 C   0  0  0  0  0  0  0  0  0  0  0  0
   47.5160   34.2000   41.2980 C   0  0  2  0  0  0  0  0  0  0  0  0
   46.1510   35.9380   41.3850 H   0  0  0  0  0  0  0  0  0  0  0  0
   48.7750   35.2070   42.9150 H   0  0  0  0  0  0  0  0  0  0  0  0
   48.5970   36.1390   41.2580 H   0  0  0  0  0  0  0  0  0  0  0  0
   47.8010   33.2190   41.7920 H   0  0  0  0  0  0  0  0  0  0  0  0
   44.6840   35.2960   45.0980 C   0  0  0  0  0  0  0  0  0  0  0  0
   45.1720   35.6690   43.8030 C   0  0  0  0  0  0  0  0  0  0  0  0
   46.1680   34.8850   43.3220 C   0  0  0  0  0  0  0  0  0  0  0  0
   46.6690   33.8150   44.0300 N   0  0  0  0  0  0  0  0  0  0  0  0
   46.1840   33.4980   45.2430 C   0  0  0  0  0  0  0  0  0  0  0  0
   45.1880   34.2410   45.7770 N   0  0  0  0  0  0  0  0  0  0  0  0
   43.8800   35.9400   45.4700 H   0  0  0  0  0  0  0  0  0  0  0  0
   46.5960   32.6550   45.7740 H   0  0  0  0  0  0  0  0  0  0  0  0
   44.6770   36.7810   43.1020 N   0  0  0  0  0  0  0  0  0  0  0  0
   45.3870   37.4960   43.4250 H   0  0  0  0  0  0  0  0  0  0  0  0
   43.8680   36.9080   42.4540 H   0  0  0  0  0  0  0  0  0  0  0  0
   47.6190   34.1020   39.7970 C   0  0  0  0  0  0  0  0  0  0  0  0
   48.6460   33.8050   39.5030 H   0  0  0  0  0  0  0  0  0  0  0  0
   47.4950   35.1330   39.4100 H   0  0  0  0  0  0  0  0  0  0  0  0
   46.6160   33.1410   39.2350 C   0  0  0  0  0  0  0  0  0  0  0  0
   46.3100   33.0990   37.8760 C   0  0  0  0  0  0  0  0  0  0  0  0
   46.7790   33.7660   37.1100 H   0  0  0  0  0  0  0  0  0  0  0  0
   45.0430   31.7500   37.7930 S   0  0  0  0  0  0  0  0  0  0  0  0
   45.1680   31.4880   39.6570 C   0  0  0  0  0  0  0  0  0  0  0  0
   44.5940   30.7480   40.2300 H   0  0  0  0  0  0  0  0  0  0  0  0
   45.9530   32.2660   39.9810 N   0  0  0  0  0  0  0  0  0  0  0  0
  1  4  1  6  0  0  0
  1  2  1  0  0  0  0
  1 10  1  0  0  0  0
  2  5  1  0  0  0  0
  3  7  1  1  0  0  0
  3  1  1  0  0  0  0
  3  2  1  0  0  0  0
  6  2  1  0  0  0  0
  8 14  1  0  0  0  0
  8 13  1  0  0  0  0
  9  8  2  0  0  0  0
 10  9  1  0  0  0  0
 10 11  2  0  0  0  0
 11 12  1  0  0  0  0
 12 15  1  0  0  0  0
 12 13  2  0  0  0  0
 16 17  1  0  0  0  0
 16  9  1  0  0  0  0
 18 16  1  0  0  0  0
 19  3  1  0  0  0  0
 20 19  1  0  0  0  0
 21 19  1  0  0  0  0
 22 19  1  0  0  0  0
 22 28  1  0  0  0  0
 23 22  2  0  0  0  0
 24 23  1  0  0  0  0
 25 23  1  0  0  0  0
 25 26  1  0  0  0  0
 26 28  2  0  0  0  0
 26 27  1  0  0  0  0
M  END
>  <minimizedAffinity>
-4.44027328

>  <minimizedRMSD>
0.797588348

$$$$
