
 OpenBabel03252506563D

 36 40  0  0  0  0  0  0  0  0999 V2000
   47.1590   31.3240   45.1080 C   0  0  0  0  0  0  0  0  0  0  0  0
   46.8750   32.6780   45.1110 C   0  0  0  0  0  0  0  0  0  0  0  0
   46.3210   33.3170   46.1930 C   0  0  0  0  0  0  0  0  0  0  0  0
   46.0190   32.6120   47.3460 C   0  0  0  0  0  0  0  0  0  0  0  0
   45.4830   32.8960   48.5670 N   0  0  0  0  0  0  0  0  0  0  0  0
   45.4370   31.7490   49.2990 C   0  0  0  0  0  0  0  0  0  0  0  0
   45.9470   30.7730   48.5140 N   0  0  0  0  0  0  0  0  0  0  0  0
   46.3100   31.2710   47.3170 C   0  0  0  0  0  0  0  0  0  0  0  0
   46.8580   30.5920   46.2720 C   0  0  0  0  0  0  0  0  0  0  0  0
   47.5960   30.8290   44.2510 H   0  0  0  0  0  0  0  0  0  0  0  0
   46.1030   34.3790   46.1820 H   0  0  0  0  0  0  0  0  0  0  0  0
   45.1730   33.8610   48.8450 H   0  0  0  0  0  0  0  0  0  0  0  0
   45.0540   31.6760   50.3210 H   0  0  0  0  0  0  0  0  0  0  0  0
   46.6020   35.1480   42.3970 C   0  0  0  0  0  0  0  0  0  0  0  0
   47.7670   34.9420   41.6730 C   0  0  0  0  0  0  0  0  0  0  0  0
   48.6490   33.9500   42.1190 C   0  0  0  0  0  0  0  0  0  0  0  0
   48.3200   33.2400   43.2400 N   0  0  0  0  0  0  0  0  0  0  0  0
   47.1730   33.4690   43.9200 C   0  0  0  0  0  0  0  0  0  0  0  0
   46.3170   34.4170   43.5030 N   0  0  0  0  0  0  0  0  0  0  0  0
   45.9010   35.9140   42.0670 H   0  0  0  0  0  0  0  0  0  0  0  0
   47.9720   35.5400   40.7890 H   0  0  0  0  0  0  0  0  0  0  0  0
   49.5690   33.7620   41.5780 H   0  0  0  0  0  0  0  0  0  0  0  0
   47.1320   29.1550   46.3420 C   0  0  0  0  0  0  0  0  0  0  0  0
   48.3750   28.5870   46.2290 C   0  0  0  0  0  0  0  0  0  0  0  0
   48.1160   27.2120   46.3590 C   0  0  0  0  0  0  0  0  0  0  0  0
   46.7500   27.0250   46.5390 C   0  0  0  0  0  0  0  0  0  0  0  0
   46.2370   28.2360   46.5160 O   0  0  0  0  0  0  0  0  0  0  0  0
   49.3080   29.0730   46.0810 H   0  0  0  0  0  0  0  0  0  0  0  0
   48.8620   26.4370   46.3220 H   0  0  0  0  0  0  0  0  0  0  0  0
   46.0230   25.7510   46.7190 C   0  0  0  0  0  0  0  0  0  0  0  0
   46.8230   24.4890   46.7990 C   0  0  0  0  0  0  0  0  0  0  0  0
   47.8530   24.4230   46.7400 H   0  0  0  0  0  0  0  0  0  0  0  0
   45.3860   23.2800   47.0180 S   0  0  0  0  0  0  0  0  0  0  0  0
   44.0860   24.6570   46.9580 C   0  0  0  0  0  0  0  0  0  0  0  0
   43.0340   24.4410   47.0480 H   0  0  0  0  0  0  0  0  0  0  0  0
   44.7130   25.6940   46.8090 N   0  0  0  0  0  0  0  0  0  0  0  0
  1  2  2  0  0  0  0
  1  9  1  0  0  0  0
  2  3  1  0  0  0  0
  3  4  2  0  0  0  0
  4  5  1  0  0  0  0
  5 12  1  0  0  0  0
  5  6  1  0  0  0  0
  6 13  1  0  0  0  0
  7  6  2  0  0  0  0
  8  4  1  0  0  0  0
  8  7  1  0  0  0  0
  9 23  1  0  0  0  0
  9  8  2  0  0  0  0
 10  1  1  0  0  0  0
 11  3  1  0  0  0  0
 14 19  1  0  0  0  0
 15 16  1  0  0  0  0
 15 14  2  0  0  0  0
 16 17  2  0  0  0  0
 17 18  1  0  0  0  0
 18  2  1  0  0  0  0
 19 18  2  0  0  0  0
 20 14  1  0  0  0  0
 21 15  1  0  0  0  0
 22 16  1  0  0  0  0
 23 27  1  0  0  0  0
 24 23  2  0  0  0  0
 24 25  1  0  0  0  0
 25 26  2  0  0  0  0
 26 30  1  0  0  0  0
 27 26  1  0  0  0  0
 28 24  1  0  0  0  0
 29 25  1  0  0  0  0
 30 31  2  0  0  0  0
 30 36  1  0  0  0  0
 31 33  1  0  0  0  0
 32 31  1  0  0  0  0
 34 33  1  0  0  0  0
 34 35  1  0  0  0  0
 36 34  2  0  0  0  0
M  END
>  <minimizedAffinity>
-5.49711084

>  <minimizedRMSD>
0.455951482

$$$$
