
 OpenBabel03252501393D

 33 35  0  0  0  0  0  0  0  0999 V2000
   36.2970   27.8890   40.3190 Cl  0  0  0  0  0  0  0  0  0  0  0  0
   37.5000   27.5960   41.5420 C   0  0  0  0  0  0  0  0  0  0  0  0
   38.0360   28.6050   42.3420 C   0  0  0  0  0  0  0  0  0  0  0  0
   38.9710   28.3070   43.2800 C   0  0  0  0  0  0  0  0  0  0  0  0
   39.4480   27.0420   43.5110 C   0  0  0  0  0  0  0  0  0  0  0  0
   38.9340   25.9980   42.7270 C   0  0  0  0  0  0  0  0  0  0  0  0
   39.4660   24.3370   42.9290 Cl  0  0  0  0  0  0  0  0  0  0  0  0
   37.9870   26.3360   41.7840 C   0  0  0  0  0  0  0  0  0  0  0  0
   39.3720   29.1220   43.8900 H   0  0  0  0  0  0  0  0  0  0  0  0
   40.2010   26.8140   44.2680 H   0  0  0  0  0  0  0  0  0  0  0  0
   37.4460   25.2540   40.9610 C   0  0  0  0  0  0  0  0  0  0  0  0
   38.2790   25.1450   39.7730 C   0  0  0  0  0  0  0  0  0  0  0  0
   39.1670   25.5800   39.2720 H   0  0  0  0  0  0  0  0  0  0  0  0
   37.5010   23.7350   38.7920 S   0  0  0  0  0  0  0  0  0  0  0  0
   36.2020   23.5650   40.1700 C   0  0  0  0  0  0  0  0  0  0  0  0
   35.1740   23.0090   40.6800 H   0  0  0  0  0  0  0  0  0  0  0  0
   36.4870   24.3600   40.9140 N   0  0  0  0  0  0  0  0  0  0  0  0
   37.5530   29.8900   42.1080 O   0  0  0  0  0  0  0  0  0  0  0  0
   38.3300   30.7630   41.3250 C   0  0  0  0  0  0  0  0  0  0  0  0
   38.1390   31.0490   40.1000 O   0  0  0  0  0  0  0  0  0  0  0  0
   39.4690   31.4370   41.8820 N   0  0  0  0  0  0  0  0  0  0  0  0
   39.7380   31.3090   42.8710 H   0  0  0  0  0  0  0  0  0  0  0  0
   40.0760   32.2460   40.8380 C   0  0  0  0  0  0  0  0  0  0  0  0
   39.7220   33.5450   40.5580 C   0  0  0  0  0  0  0  0  0  0  0  0
   40.4100   34.1590   39.5260 C   0  0  0  0  0  0  0  0  0  0  0  0
   41.3590   33.4520   38.8820 N   0  0  0  0  0  0  0  0  0  0  0  0
   41.6760   32.1780   39.1880 C   0  0  0  0  0  0  0  0  0  0  0  0
   41.0200   31.5430   40.1970 N   0  0  0  0  0  0  0  0  0  0  0  0
   40.1440   35.1770   39.2950 H   0  0  0  0  0  0  0  0  0  0  0  0
   42.4550   31.6590   38.6280 H   0  0  0  0  0  0  0  0  0  0  0  0
   38.7040   34.1310   41.3350 N   0  0  0  0  0  0  0  0  0  0  0  0
   37.6960   33.8680   41.4590 H   0  0  0  0  0  0  0  0  0  0  0  0
   39.2000   34.9340   41.7910 H   0  0  0  0  0  0  0  0  0  0  0  0
  1  2  1  0  0  0  0
  2  8  2  0  0  0  0
  2  3  1  0  0  0  0
  3  4  2  0  0  0  0
  4  5  1  0  0  0  0
  4  9  1  0  0  0  0
  5 10  1  0  0  0  0
  6  7  1  0  0  0  0
  6  5  2  0  0  0  0
  8  6  1  0  0  0  0
 11  8  1  0  0  0  0
 12 11  2  0  0  0  0
 13 12  1  0  0  0  0
 14 12  1  0  0  0  0
 14 15  1  0  0  0  0
 15 16  1  0  0  0  0
 15 17  2  0  0  0  0
 17 11  1  0  0  0  0
 18  3  1  0  0  0  0
 19 21  1  0  0  0  0
 19 18  1  0  0  0  0
 20 19  2  0  0  0  0
 21 22  1  0  0  0  0
 23 21  1  0  0  0  0
 24 23  1  0  0  0  0
 24 31  1  0  0  0  0
 25 24  2  0  0  0  0
 26 27  2  0  0  0  0
 26 25  1  0  0  0  0
 27 28  1  0  0  0  0
 28 23  2  0  0  0  0
 29 25  1  0  0  0  0
 30 27  1  0  0  0  0
 31 32  1  0  0  0  0
 31 33  1  0  0  0  0
M  END
>  <minimizedAffinity>
-5.75340939

$$$$

 OpenBabel03252501393D

 33 35  0  0  0  0  0  0  0  0999 V2000
   38.7630   30.0330   42.3310 Cl  0  0  0  0  0  0  0  0  0  0  0  0
   37.7990   30.0650   40.8820 C   0  0  0  0  0  0  0  0  0  0  0  0
   37.5560   31.2280   40.1510 C   0  0  0  0  0  0  0  0  0  0  0  0
   36.7960   31.1810   39.0280 C   0  0  0  0  0  0  0  0  0  0  0  0
   36.2240   30.0350   38.5370 C   0  0  0  0  0  0  0  0  0  0  0  0
   36.4430   28.8420   39.2440 C   0  0  0  0  0  0  0  0  0  0  0  0
   35.7650   27.3120   38.7140 Cl  0  0  0  0  0  0  0  0  0  0  0  0
   37.2200   28.9260   40.3800 C   0  0  0  0  0  0  0  0  0  0  0  0
   36.6250   32.1110   38.4780 H   0  0  0  0  0  0  0  0  0  0  0  0
   35.6130   30.0090   37.6320 H   0  0  0  0  0  0  0  0  0  0  0  0
   37.4530   27.6880   41.1240 C   0  0  0  0  0  0  0  0  0  0  0  0
   38.6780   27.0910   40.6150 C   0  0  0  0  0  0  0  0  0  0  0  0
   39.4920   27.2350   39.8750 H   0  0  0  0  0  0  0  0  0  0  0  0
   38.8830   25.5170   41.6340 S   0  0  0  0  0  0  0  0  0  0  0  0
   37.2780   25.9660   42.5480 C   0  0  0  0  0  0  0  0  0  0  0  0
   36.3820   25.7280   43.4250 H   0  0  0  0  0  0  0  0  0  0  0  0
   36.9550   26.9350   42.0750 N   0  0  0  0  0  0  0  0  0  0  0  0
   38.1360   32.3910   40.6490 O   0  0  0  0  0  0  0  0  0  0  0  0
   39.3110   32.8660   40.0370 C   0  0  0  0  0  0  0  0  0  0  0  0
   39.5650   34.0750   39.7290 O   0  0  0  0  0  0  0  0  0  0  0  0
   40.3770   31.9690   39.6910 N   0  0  0  0  0  0  0  0  0  0  0  0
   40.3150   30.9580   39.8930 H   0  0  0  0  0  0  0  0  0  0  0  0
   41.4370   32.7400   39.0630 C   0  0  0  0  0  0  0  0  0  0  0  0
   41.4950   33.0300   37.7200 C   0  0  0  0  0  0  0  0  0  0  0  0
   42.5810   33.7780   37.3010 C   0  0  0  0  0  0  0  0  0  0  0  0
   43.4860   34.1610   38.2220 N   0  0  0  0  0  0  0  0  0  0  0  0
   43.3920   33.8560   39.5320 C   0  0  0  0  0  0  0  0  0  0  0  0
   42.3370   33.1220   39.9790 N   0  0  0  0  0  0  0  0  0  0  0  0
   42.6410   34.0130   36.2510 H   0  0  0  0  0  0  0  0  0  0  0  0
   44.1590   34.1970   40.2290 H   0  0  0  0  0  0  0  0  0  0  0  0
   40.4580   32.5470   36.8980 N   0  0  0  0  0  0  0  0  0  0  0  0
   40.1470   31.5670   36.6880 H   0  0  0  0  0  0  0  0  0  0  0  0
   40.0390   33.4290   36.5190 H   0  0  0  0  0  0  0  0  0  0  0  0
  2  1  1  0  0  0  0
  3 18  1  0  0  0  0
  3  2  2  0  0  0  0
  4  3  1  0  0  0  0
  5  4  2  0  0  0  0
  5  6  1  0  0  0  0
  6  8  2  0  0  0  0
  7  6  1  0  0  0  0
  8  2  1  0  0  0  0
  8 11  1  0  0  0  0
  9  4  1  0  0  0  0
 10  5  1  0  0  0  0
 11 17  1  0  0  0  0
 12 11  2  0  0  0  0
 12 14  1  0  0  0  0
 13 12  1  0  0  0  0
 14 15  1  0  0  0  0
 15 16  1  0  0  0  0
 17 15  2  0  0  0  0
 19 18  1  0  0  0  0
 20 19  2  0  0  0  0
 21 22  1  0  0  0  0
 21 19  1  0  0  0  0
 23 21  1  0  0  0  0
 23 28  1  0  0  0  0
 24 23  2  0  0  0  0
 25 24  1  0  0  0  0
 25 26  2  0  0  0  0
 26 27  1  0  0  0  0
 27 28  2  0  0  0  0
 27 30  1  0  0  0  0
 29 25  1  0  0  0  0
 31 24  1  0  0  0  0
 32 31  1  0  0  0  0
 33 31  1  0  0  0  0
M  END
>  <minimizedAffinity>
-5.61008263

$$$$

 OpenBabel03252501393D

 33 35  0  0  0  0  0  0  0  0999 V2000
   36.3520   27.1940   38.1390 Cl  0  0  0  0  0  0  0  0  0  0  0  0
   36.6070   27.0190   39.8520 C   0  0  0  0  0  0  0  0  0  0  0  0
   36.4630   28.0700   40.7570 C   0  0  0  0  0  0  0  0  0  0  0  0
   36.6760   27.8640   42.0820 C   0  0  0  0  0  0  0  0  0  0  0  0
   37.0370   26.6550   42.6210 C   0  0  0  0  0  0  0  0  0  0  0  0
   37.1930   25.5710   41.7430 C   0  0  0  0  0  0  0  0  0  0  0  0
   37.6510   23.9750   42.3130 Cl  0  0  0  0  0  0  0  0  0  0  0  0
   36.9690   25.8150   40.4050 C   0  0  0  0  0  0  0  0  0  0  0  0
   36.5550   28.7100   42.7650 H   0  0  0  0  0  0  0  0  0  0  0  0
   37.2060   26.5010   43.6880 H   0  0  0  0  0  0  0  0  0  0  0  0
   37.1310   24.6920   39.4820 C   0  0  0  0  0  0  0  0  0  0  0  0
   35.8510   24.0060   39.3940 C   0  0  0  0  0  0  0  0  0  0  0  0
   34.8070   24.0280   39.7690 H   0  0  0  0  0  0  0  0  0  0  0  0
   36.1680   22.5890   38.1910 S   0  0  0  0  0  0  0  0  0  0  0  0
   37.9650   23.1930   38.0400 C   0  0  0  0  0  0  0  0  0  0  0  0
   39.1430   23.0980   37.5610 H   0  0  0  0  0  0  0  0  0  0  0  0
   38.0100   24.0900   38.7160 N   0  0  0  0  0  0  0  0  0  0  0  0
   36.0970   29.2980   40.2110 O   0  0  0  0  0  0  0  0  0  0  0  0
   37.0770   30.3030   40.1130 C   0  0  0  0  0  0  0  0  0  0  0  0
   37.7880   30.5650   39.0900 O   0  0  0  0  0  0  0  0  0  0  0  0
   37.3700   31.1600   41.2270 N   0  0  0  0  0  0  0  0  0  0  0  0
   36.8620   31.0700   42.1210 H   0  0  0  0  0  0  0  0  0  0  0  0
   38.4280   32.0740   40.8330 C   0  0  0  0  0  0  0  0  0  0  0  0
   38.2240   33.2520   40.1530 C   0  0  0  0  0  0  0  0  0  0  0  0
   39.3540   33.9960   39.8620 C   0  0  0  0  0  0  0  0  0  0  0  0
   40.5510   33.5220   40.2590 N   0  0  0  0  0  0  0  0  0  0  0  0
   40.7080   32.3600   40.9250 C   0  0  0  0  0  0  0  0  0  0  0  0
   39.6190   31.6030   41.2270 N   0  0  0  0  0  0  0  0  0  0  0  0
   39.2100   34.9210   39.3290 H   0  0  0  0  0  0  0  0  0  0  0  0
   41.7050   32.0300   41.2200 H   0  0  0  0  0  0  0  0  0  0  0  0
   36.9000   33.5940   39.8150 N   0  0  0  0  0  0  0  0  0  0  0  0
   36.1960   33.1060   39.2100 H   0  0  0  0  0  0  0  0  0  0  0  0
   36.7600   34.4970   40.3300 H   0  0  0  0  0  0  0  0  0  0  0  0
  1  2  1  0  0  0  0
  2  8  2  0  0  0  0
  2  3  1  0  0  0  0
  3  4  2  0  0  0  0
  4  5  1  0  0  0  0
  4  9  1  0  0  0  0
  5 10  1  0  0  0  0
  6  7  1  0  0  0  0
  6  5  2  0  0  0  0
  8  6  1  0  0  0  0
 11  8  1  0  0  0  0
 12 11  2  0  0  0  0
 12 13  1  0  0  0  0
 14 12  1  0  0  0  0
 15 14  1  0  0  0  0
 15 17  2  0  0  0  0
 16 15  1  0  0  0  0
 17 11  1  0  0  0  0
 18  3  1  0  0  0  0
 19 18  1  0  0  0  0
 19 21  1  0  0  0  0
 20 19  2  0  0  0  0
 21 22  1  0  0  0  0
 23 21  1  0  0  0  0
 23 28  1  0  0  0  0
 24 23  2  0  0  0  0
 25 24  1  0  0  0  0
 25 26  2  0  0  0  0
 26 27  1  0  0  0  0
 27 30  1  0  0  0  0
 27 28  2  0  0  0  0
 29 25  1  0  0  0  0
 31 24  1  0  0  0  0
 31 33  1  0  0  0  0
 32 31  1  0  0  0  0
M  END
>  <minimizedAffinity>
-5.41403008

$$$$

 OpenBabel03252501393D

 33 35  0  0  0  0  0  0  0  0999 V2000
   40.8510   30.1010   41.5500 Cl  0  0  0  0  0  0  0  0  0  0  0  0
   39.1660   30.4550   41.2920 C   0  0  0  0  0  0  0  0  0  0  0  0
   38.1340   29.6330   41.7450 C   0  0  0  0  0  0  0  0  0  0  0  0
   36.8410   29.9700   41.5100 C   0  0  0  0  0  0  0  0  0  0  0  0
   36.4540   31.1000   40.8350 C   0  0  0  0  0  0  0  0  0  0  0  0
   37.4620   31.9540   40.3610 C   0  0  0  0  0  0  0  0  0  0  0  0
   37.0920   33.4290   39.4840 Cl  0  0  0  0  0  0  0  0  0  0  0  0
   38.7650   31.5820   40.6170 C   0  0  0  0  0  0  0  0  0  0  0  0
   36.0560   29.3030   41.8790 H   0  0  0  0  0  0  0  0  0  0  0  0
   35.4100   31.3610   40.6510 H   0  0  0  0  0  0  0  0  0  0  0  0
   39.8220   32.4650   40.1270 C   0  0  0  0  0  0  0  0  0  0  0  0
   40.1340   32.0650   38.7640 C   0  0  0  0  0  0  0  0  0  0  0  0
   39.8620   31.3400   37.9700 H   0  0  0  0  0  0  0  0  0  0  0  0
   41.4960   33.2570   38.2330 S   0  0  0  0  0  0  0  0  0  0  0  0
   41.3830   34.0640   39.9500 C   0  0  0  0  0  0  0  0  0  0  0  0
   41.7540   34.9320   40.8080 H   0  0  0  0  0  0  0  0  0  0  0  0
   40.5800   33.4770   40.4770 N   0  0  0  0  0  0  0  0  0  0  0  0
   38.5260   28.4860   42.4300 O   0  0  0  0  0  0  0  0  0  0  0  0
   38.3640   27.2410   41.7940 C   0  0  0  0  0  0  0  0  0  0  0  0
   39.0560   26.7950   40.8230 O   0  0  0  0  0  0  0  0  0  0  0  0
   37.3430   26.3250   42.2160 N   0  0  0  0  0  0  0  0  0  0  0  0
   36.7120   26.5490   43.0020 H   0  0  0  0  0  0  0  0  0  0  0  0
   37.4080   25.1470   41.3680 C   0  0  0  0  0  0  0  0  0  0  0  0
   38.1970   24.0490   41.6220 C   0  0  0  0  0  0  0  0  0  0  0  0
   38.1300   23.0190   40.7010 C   0  0  0  0  0  0  0  0  0  0  0  0
   37.3120   23.1630   39.6410 N   0  0  0  0  0  0  0  0  0  0  0  0
   36.5530   24.2570   39.4280 C   0  0  0  0  0  0  0  0  0  0  0  0
   36.5950   25.2890   40.3130 N   0  0  0  0  0  0  0  0  0  0  0  0
   38.7430   22.1520   40.8870 H   0  0  0  0  0  0  0  0  0  0  0  0
   35.9090   24.3130   38.5480 H   0  0  0  0  0  0  0  0  0  0  0  0
   38.9940   24.0690   42.7830 N   0  0  0  0  0  0  0  0  0  0  0  0
   39.7710   24.7120   43.0730 H   0  0  0  0  0  0  0  0  0  0  0  0
   38.6240   23.2530   43.3270 H   0  0  0  0  0  0  0  0  0  0  0  0
  2  1  1  0  0  0  0
  2  3  1  0  0  0  0
  3 18  1  0  0  0  0
  4  3  2  0  0  0  0
  4  9  1  0  0  0  0
  5  4  1  0  0  0  0
  6  8  1  0  0  0  0
  6  5  2  0  0  0  0
  7  6  1  0  0  0  0
  8  2  2  0  0  0  0
 10  5  1  0  0  0  0
 11 17  1  0  0  0  0
 11  8  1  0  0  0  0
 12 11  2  0  0  0  0
 13 12  1  0  0  0  0
 14 12  1  0  0  0  0
 14 15  1  0  0  0  0
 15 17  2  0  0  0  0
 15 16  1  0  0  0  0
 19 21  1  0  0  0  0
 19 18  1  0  0  0  0
 20 19  2  0  0  0  0
 21 22  1  0  0  0  0
 23 24  1  0  0  0  0
 23 21  1  0  0  0  0
 24 31  1  0  0  0  0
 25 29  1  0  0  0  0
 25 24  2  0  0  0  0
 26 25  1  0  0  0  0
 27 26  2  0  0  0  0
 27 28  1  0  0  0  0
 28 23  2  0  0  0  0
 30 27  1  0  0  0  0
 31 32  1  0  0  0  0
 31 33  1  0  0  0  0
M  END
>  <minimizedAffinity>
-5.41074371

$$$$

 OpenBabel03252501393D

 33 35  0  0  0  0  0  0  0  0999 V2000
   38.6060   27.3640   38.6460 Cl  0  0  0  0  0  0  0  0  0  0  0  0
   37.9670   28.3220   39.9510 C   0  0  0  0  0  0  0  0  0  0  0  0
   37.8770   29.7130   39.9050 C   0  0  0  0  0  0  0  0  0  0  0  0
   37.3660   30.3980   40.9590 C   0  0  0  0  0  0  0  0  0  0  0  0
   36.9140   29.8070   42.1120 C   0  0  0  0  0  0  0  0  0  0  0  0
   36.9880   28.4080   42.1990 C   0  0  0  0  0  0  0  0  0  0  0  0
   36.4410   27.5360   43.6210 Cl  0  0  0  0  0  0  0  0  0  0  0  0
   37.5120   27.7430   41.1100 C   0  0  0  0  0  0  0  0  0  0  0  0
   37.3100   31.4890   40.8910 H   0  0  0  0  0  0  0  0  0  0  0  0
   36.5060   30.3680   42.9540 H   0  0  0  0  0  0  0  0  0  0  0  0
   37.5940   26.2850   41.1920 C   0  0  0  0  0  0  0  0  0  0  0  0
   38.8810   25.9480   41.7810 C   0  0  0  0  0  0  0  0  0  0  0  0
   39.8110   26.3920   42.1880 H   0  0  0  0  0  0  0  0  0  0  0  0
   38.8820   24.0630   41.8400 S   0  0  0  0  0  0  0  0  0  0  0  0
   37.1490   24.0920   41.0580 C   0  0  0  0  0  0  0  0  0  0  0  0
   36.1110   23.5030   40.6090 H   0  0  0  0  0  0  0  0  0  0  0  0
   36.9270   25.1870   40.9250 N   0  0  0  0  0  0  0  0  0  0  0  0
   38.3350   30.3140   38.7360 O   0  0  0  0  0  0  0  0  0  0  0  0
   39.4720   31.1400   38.8120 C   0  0  0  0  0  0  0  0  0  0  0  0
   40.6250   30.7990   39.2300 O   0  0  0  0  0  0  0  0  0  0  0  0
   39.4150   32.5140   38.4010 N   0  0  0  0  0  0  0  0  0  0  0  0
   38.5450   32.9270   38.0280 H   0  0  0  0  0  0  0  0  0  0  0  0
   40.7240   33.1090   38.6130 C   0  0  0  0  0  0  0  0  0  0  0  0
   41.1540   33.6350   39.8080 C   0  0  0  0  0  0  0  0  0  0  0  0
   42.4340   34.1600   39.8220 C   0  0  0  0  0  0  0  0  0  0  0  0
   43.1540   34.1180   38.6850 N   0  0  0  0  0  0  0  0  0  0  0  0
   42.6950   33.5920   37.5310 C   0  0  0  0  0  0  0  0  0  0  0  0
   41.4400   33.0680   37.4810 N   0  0  0  0  0  0  0  0  0  0  0  0
   42.7850   34.5760   40.7530 H   0  0  0  0  0  0  0  0  0  0  0  0
   43.3270   33.5880   36.6420 H   0  0  0  0  0  0  0  0  0  0  0  0
   40.2660   33.5950   40.9010 N   0  0  0  0  0  0  0  0  0  0  0  0
   39.3190   34.0280   41.0350 H   0  0  0  0  0  0  0  0  0  0  0  0
   40.7840   33.0040   41.5940 H   0  0  0  0  0  0  0  0  0  0  0  0
  1  2  1  0  0  0  0
  2  8  1  0  0  0  0
  3  2  2  0  0  0  0
  3  4  1  0  0  0  0
  4  5  2  0  0  0  0
  5  6  1  0  0  0  0
  5 10  1  0  0  0  0
  6  7  1  0  0  0  0
  8 11  1  0  0  0  0
  8  6  2  0  0  0  0
  9  4  1  0  0  0  0
 11 12  2  0  0  0  0
 12 14  1  0  0  0  0
 12 13  1  0  0  0  0
 15 14  1  0  0  0  0
 16 15  1  0  0  0  0
 17 15  2  0  0  0  0
 17 11  1  0  0  0  0
 18 19  1  0  0  0  0
 18  3  1  0  0  0  0
 19 20  2  0  0  0  0
 21 23  1  0  0  0  0
 21 19  1  0  0  0  0
 22 21  1  0  0  0  0
 23 24  1  0  0  0  0
 24 25  2  0  0  0  0
 24 31  1  0  0  0  0
 25 29  1  0  0  0  0
 26 25  1  0  0  0  0
 27 26  2  0  0  0  0
 28 27  1  0  0  0  0
 28 23  2  0  0  0  0
 30 27  1  0  0  0  0
 31 32  1  0  0  0  0
 31 33  1  0  0  0  0
M  END
>  <minimizedAffinity>
-5.24097061

$$$$

 OpenBabel03252501393D

 33 35  0  0  0  0  0  0  0  0999 V2000
   38.1620   31.5740   38.1750 Cl  0  0  0  0  0  0  0  0  0  0  0  0
   38.8290   31.3760   39.7710 C   0  0  0  0  0  0  0  0  0  0  0  0
   39.9670   32.0500   40.2120 C   0  0  0  0  0  0  0  0  0  0  0  0
   40.4330   31.8500   41.4710 C   0  0  0  0  0  0  0  0  0  0  0  0
   39.8500   31.0020   42.3780 C   0  0  0  0  0  0  0  0  0  0  0  0
   38.7020   30.3030   41.9730 C   0  0  0  0  0  0  0  0  0  0  0  0
   37.8670   29.1900   43.0440 Cl  0  0  0  0  0  0  0  0  0  0  0  0
   38.2560   30.5300   40.6880 C   0  0  0  0  0  0  0  0  0  0  0  0
   41.3280   32.3940   41.7850 H   0  0  0  0  0  0  0  0  0  0  0  0
   40.2340   30.8480   43.3880 H   0  0  0  0  0  0  0  0  0  0  0  0
   37.0610   29.8050   40.2570 C   0  0  0  0  0  0  0  0  0  0  0  0
   37.4980   28.5710   39.6230 C   0  0  0  0  0  0  0  0  0  0  0  0
   38.4010   27.9860   39.3540 H   0  0  0  0  0  0  0  0  0  0  0  0
   35.8950   27.7220   39.1100 S   0  0  0  0  0  0  0  0  0  0  0  0
   34.9440   29.1940   39.8460 C   0  0  0  0  0  0  0  0  0  0  0  0
   33.8570   29.8030   40.1220 H   0  0  0  0  0  0  0  0  0  0  0  0
   35.7510   29.8730   40.2380 N   0  0  0  0  0  0  0  0  0  0  0  0
   40.5590   32.9110   39.2920 O   0  0  0  0  0  0  0  0  0  0  0  0
   41.4000   32.3590   38.3080 C   0  0  0  0  0  0  0  0  0  0  0  0
   41.4980   32.7440   37.0980 O   0  0  0  0  0  0  0  0  0  0  0  0
   42.2620   31.2510   38.6090 N   0  0  0  0  0  0  0  0  0  0  0  0
   42.2970   30.8410   39.5560 H   0  0  0  0  0  0  0  0  0  0  0  0
   42.9850   30.8940   37.4010 C   0  0  0  0  0  0  0  0  0  0  0  0
   42.5150   30.0270   36.4420 C   0  0  0  0  0  0  0  0  0  0  0  0
   43.3440   29.8060   35.3570 C   0  0  0  0  0  0  0  0  0  0  0  0
   44.5300   30.4430   35.3180 N   0  0  0  0  0  0  0  0  0  0  0  0
   44.9540   31.2870   36.2810 C   0  0  0  0  0  0  0  0  0  0  0  0
   44.1650   31.5270   37.3620 N   0  0  0  0  0  0  0  0  0  0  0  0
   42.9890   29.1290   34.5960 H   0  0  0  0  0  0  0  0  0  0  0  0
   45.9270   31.7730   36.1920 H   0  0  0  0  0  0  0  0  0  0  0  0
   41.2470   29.4480   36.6450 N   0  0  0  0  0  0  0  0  0  0  0  0
   40.8920   28.8200   37.4060 H   0  0  0  0  0  0  0  0  0  0  0  0
   40.7020   29.8000   35.8210 H   0  0  0  0  0  0  0  0  0  0  0  0
  1  2  1  0  0  0  0
  2  3  2  0  0  0  0
  2  8  1  0  0  0  0
  3  4  1  0  0  0  0
  4  9  1  0  0  0  0
  4  5  2  0  0  0  0
  5 10  1  0  0  0  0
  6  5  1  0  0  0  0
  6  7  1  0  0  0  0
  8  6  2  0  0  0  0
 11  8  1  0  0  0  0
 12 11  2  0  0  0  0
 13 12  1  0  0  0  0
 14 12  1  0  0  0  0
 14 15  1  0  0  0  0
 15 16  1  0  0  0  0
 15 17  2  0  0  0  0
 17 11  1  0  0  0  0
 18  3  1  0  0  0  0
 19 21  1  0  0  0  0
 19 18  1  0  0  0  0
 20 19  2  0  0  0  0
 21 22  1  0  0  0  0
 23 21  1  0  0  0  0
 24 31  1  0  0  0  0
 24 23  2  0  0  0  0
 25 24  1  0  0  0  0
 26 25  2  0  0  0  0
 26 27  1  0  0  0  0
 27 28  2  0  0  0  0
 28 23  1  0  0  0  0
 29 25  1  0  0  0  0
 30 27  1  0  0  0  0
 31 32  1  0  0  0  0
 33 31  1  0  0  0  0
M  END
>  <minimizedAffinity>
-5.05605793

$$$$

 OpenBabel03252501393D

 33 35  0  0  0  0  0  0  0  0999 V2000
   37.0700   28.0270   37.7370 Cl  0  0  0  0  0  0  0  0  0  0  0  0
   36.9790   28.1530   39.4710 C   0  0  0  0  0  0  0  0  0  0  0  0
   36.8690   29.3690   40.1440 C   0  0  0  0  0  0  0  0  0  0  0  0
   36.8010   29.3950   41.4990 C   0  0  0  0  0  0  0  0  0  0  0  0
   36.8350   28.2740   42.2900 C   0  0  0  0  0  0  0  0  0  0  0  0
   36.9470   27.0290   41.6510 C   0  0  0  0  0  0  0  0  0  0  0  0
   37.0000   25.5240   42.5540 Cl  0  0  0  0  0  0  0  0  0  0  0  0
   37.0130   27.0390   40.2740 C   0  0  0  0  0  0  0  0  0  0  0  0
   36.7150   30.3660   41.9960 H   0  0  0  0  0  0  0  0  0  0  0  0
   36.7810   28.3070   43.3800 H   0  0  0  0  0  0  0  0  0  0  0  0
   37.1310   25.7470   39.5990 C   0  0  0  0  0  0  0  0  0  0  0  0
   38.5470   25.4340   39.4890 C   0  0  0  0  0  0  0  0  0  0  0  0
   39.5600   25.8180   39.7290 H   0  0  0  0  0  0  0  0  0  0  0  0
   38.5850   23.7640   38.6130 S   0  0  0  0  0  0  0  0  0  0  0  0
   36.6850   23.8100   38.5640 C   0  0  0  0  0  0  0  0  0  0  0  0
   35.5580   23.2980   38.2530 H   0  0  0  0  0  0  0  0  0  0  0  0
   36.4210   24.7820   39.0650 N   0  0  0  0  0  0  0  0  0  0  0  0
   36.8340   30.5070   39.3430 O   0  0  0  0  0  0  0  0  0  0  0  0
   37.9500   31.3640   39.3520 C   0  0  0  0  0  0  0  0  0  0  0  0
   37.9250   32.6340   39.4250 O   0  0  0  0  0  0  0  0  0  0  0  0
   39.2840   30.8390   39.2720 N   0  0  0  0  0  0  0  0  0  0  0  0
   39.4580   29.8220   39.2200 H   0  0  0  0  0  0  0  0  0  0  0  0
   40.2150   31.9540   39.2830 C   0  0  0  0  0  0  0  0  0  0  0  0
   40.5880   32.6650   38.1660 C   0  0  0  0  0  0  0  0  0  0  0  0
   41.4870   33.6970   38.3690 C   0  0  0  0  0  0  0  0  0  0  0  0
   41.9240   33.9270   39.6220 N   0  0  0  0  0  0  0  0  0  0  0  0
   41.5330   33.2060   40.6920 C   0  0  0  0  0  0  0  0  0  0  0  0
   40.6500   32.1840   40.5290 N   0  0  0  0  0  0  0  0  0  0  0  0
   41.7890   34.2640   37.5030 H   0  0  0  0  0  0  0  0  0  0  0  0
   41.9230   33.4420   41.6830 H   0  0  0  0  0  0  0  0  0  0  0  0
   40.0300   32.2860   36.9300 N   0  0  0  0  0  0  0  0  0  0  0  0
   40.0920   31.3860   36.3940 H   0  0  0  0  0  0  0  0  0  0  0  0
   39.5090   33.1490   36.6410 H   0  0  0  0  0  0  0  0  0  0  0  0
  1  2  1  0  0  0  0
  2  3  2  0  0  0  0
  2  8  1  0  0  0  0
  3  4  1  0  0  0  0
  4  9  1  0  0  0  0
  4  5  2  0  0  0  0
  5 10  1  0  0  0  0
  6  5  1  0  0  0  0
  6  7  1  0  0  0  0
  8  6  2  0  0  0  0
 11  8  1  0  0  0  0
 12 11  2  0  0  0  0
 12 13  1  0  0  0  0
 14 12  1  0  0  0  0
 15 14  1  0  0  0  0
 15 17  2  0  0  0  0
 16 15  1  0  0  0  0
 17 11  1  0  0  0  0
 18 19  1  0  0  0  0
 18  3  1  0  0  0  0
 19 20  2  0  0  0  0
 21 23  1  0  0  0  0
 21 19  1  0  0  0  0
 22 21  1  0  0  0  0
 23 28  1  0  0  0  0
 24 25  1  0  0  0  0
 24 23  2  0  0  0  0
 25 26  2  0  0  0  0
 26 27  1  0  0  0  0
 27 30  1  0  0  0  0
 28 27  2  0  0  0  0
 29 25  1  0  0  0  0
 31 24  1  0  0  0  0
 32 31  1  0  0  0  0
 33 31  1  0  0  0  0
M  END
>  <minimizedAffinity>
-5.04654455

$$$$

 OpenBabel03252501393D

 33 35  0  0  0  0  0  0  0  0999 V2000
   37.0360   25.2840   38.8040 Cl  0  0  0  0  0  0  0  0  0  0  0  0
   36.5360   26.7300   39.6340 C   0  0  0  0  0  0  0  0  0  0  0  0
   35.6230   27.6410   39.1000 C   0  0  0  0  0  0  0  0  0  0  0  0
   35.2750   28.7490   39.8020 C   0  0  0  0  0  0  0  0  0  0  0  0
   35.7710   29.0560   41.0440 C   0  0  0  0  0  0  0  0  0  0  0  0
   36.6930   28.1660   41.6170 C   0  0  0  0  0  0  0  0  0  0  0  0
   37.3970   28.4500   43.2000 Cl  0  0  0  0  0  0  0  0  0  0  0  0
   37.0240   27.0500   40.8760 C   0  0  0  0  0  0  0  0  0  0  0  0
   34.5580   29.4420   39.3550 H   0  0  0  0  0  0  0  0  0  0  0  0
   35.4850   29.9510   41.6000 H   0  0  0  0  0  0  0  0  0  0  0  0
   37.9850   26.1170   41.4640 C   0  0  0  0  0  0  0  0  0  0  0  0
   39.3160   26.5400   41.0580 C   0  0  0  0  0  0  0  0  0  0  0  0
   39.8600   27.3080   40.4700 H   0  0  0  0  0  0  0  0  0  0  0  0
   40.4670   25.2820   41.8630 S   0  0  0  0  0  0  0  0  0  0  0  0
   38.9320   24.4280   42.5910 C   0  0  0  0  0  0  0  0  0  0  0  0
   38.3840   23.5100   43.2880 H   0  0  0  0  0  0  0  0  0  0  0  0
   38.0710   25.0480   42.2180 N   0  0  0  0  0  0  0  0  0  0  0  0
   35.1200   27.3300   37.8400 O   0  0  0  0  0  0  0  0  0  0  0  0
   34.1920   28.2120   37.2560 C   0  0  0  0  0  0  0  0  0  0  0  0
   34.4370   29.3800   36.8130 O   0  0  0  0  0  0  0  0  0  0  0  0
   32.8130   27.8410   37.1090 N   0  0  0  0  0  0  0  0  0  0  0  0
   32.4710   26.9160   37.4140 H   0  0  0  0  0  0  0  0  0  0  0  0
   32.1040   28.9530   36.4980 C   0  0  0  0  0  0  0  0  0  0  0  0
   31.3360   29.8590   37.1900 C   0  0  0  0  0  0  0  0  0  0  0  0
   30.7340   30.8530   36.4390 C   0  0  0  0  0  0  0  0  0  0  0  0
   30.9410   30.8620   35.1080 N   0  0  0  0  0  0  0  0  0  0  0  0
   31.7040   29.9540   34.4670 C   0  0  0  0  0  0  0  0  0  0  0  0
   32.3100   28.9620   35.1740 N   0  0  0  0  0  0  0  0  0  0  0  0
   30.1280   31.5710   36.9680 H   0  0  0  0  0  0  0  0  0  0  0  0
   31.8330   30.0150   33.3850 H   0  0  0  0  0  0  0  0  0  0  0  0
   31.2280   29.6980   38.5850 N   0  0  0  0  0  0  0  0  0  0  0  0
   30.8410   28.9100   39.1590 H   0  0  0  0  0  0  0  0  0  0  0  0
   31.6430   30.5900   38.9490 H   0  0  0  0  0  0  0  0  0  0  0  0
  1  2  1  0  0  0  0
  2  8  1  0  0  0  0
  3  2  2  0  0  0  0
  3  4  1  0  0  0  0
  4  5  2  0  0  0  0
  5 10  1  0  0  0  0
  5  6  1  0  0  0  0
  6  7  1  0  0  0  0
  8 11  1  0  0  0  0
  8  6  2  0  0  0  0
  9  4  1  0  0  0  0
 11 17  1  0  0  0  0
 12 11  2  0  0  0  0
 12 14  1  0  0  0  0
 13 12  1  0  0  0  0
 14 15  1  0  0  0  0
 15 16  1  0  0  0  0
 17 15  2  0  0  0  0
 18  3  1  0  0  0  0
 19 18  1  0  0  0  0
 20 19  2  0  0  0  0
 21 19  1  0  0  0  0
 21 22  1  0  0  0  0
 23 21  1  0  0  0  0
 23 24  1  0  0  0  0
 24 31  1  0  0  0  0
 25 29  1  0  0  0  0
 25 24  2  0  0  0  0
 26 25  1  0  0  0  0
 27 26  2  0  0  0  0
 27 28  1  0  0  0  0
 28 23  2  0  0  0  0
 30 27  1  0  0  0  0
 31 33  1  0  0  0  0
 31 32  1  0  0  0  0
M  END
>  <minimizedAffinity>
-5.00579405

$$$$

 OpenBabel03252501393D

 33 35  0  0  0  0  0  0  0  0999 V2000
   41.3530   32.2580   37.0760 Cl  0  0  0  0  0  0  0  0  0  0  0  0
   41.6680   32.3030   38.7870 C   0  0  0  0  0  0  0  0  0  0  0  0
   40.6810   32.5570   39.7390 C   0  0  0  0  0  0  0  0  0  0  0  0
   40.9950   32.5760   41.0590 C   0  0  0  0  0  0  0  0  0  0  0  0
   42.2570   32.3560   41.5500 C   0  0  0  0  0  0  0  0  0  0  0  0
   43.2800   32.0970   40.6250 C   0  0  0  0  0  0  0  0  0  0  0  0
   44.9350   31.7990   41.1300 Cl  0  0  0  0  0  0  0  0  0  0  0  0
   42.9260   32.0850   39.2920 C   0  0  0  0  0  0  0  0  0  0  0  0
   40.1970   32.7800   41.7790 H   0  0  0  0  0  0  0  0  0  0  0  0
   42.4980   32.3750   42.6140 H   0  0  0  0  0  0  0  0  0  0  0  0
   43.9860   31.8160   38.3200 C   0  0  0  0  0  0  0  0  0  0  0  0
   44.6070   33.0870   37.9820 C   0  0  0  0  0  0  0  0  0  0  0  0
   44.5680   34.1750   38.1930 H   0  0  0  0  0  0  0  0  0  0  0  0
   45.9460   32.6300   36.7350 S   0  0  0  0  0  0  0  0  0  0  0  0
   45.4100   30.8140   36.9100 C   0  0  0  0  0  0  0  0  0  0  0  0
   45.5210   29.5780   36.6120 H   0  0  0  0  0  0  0  0  0  0  0  0
   44.5670   30.8470   37.6540 N   0  0  0  0  0  0  0  0  0  0  0  0
   39.4000   32.7810   39.2420 O   0  0  0  0  0  0  0  0  0  0  0  0
   38.4770   31.7190   39.2720 C   0  0  0  0  0  0  0  0  0  0  0  0
   38.7240   30.5150   39.6020 O   0  0  0  0  0  0  0  0  0  0  0  0
   37.1040   31.9230   38.9080 N   0  0  0  0  0  0  0  0  0  0  0  0
   36.7560   32.8550   38.6280 H   0  0  0  0  0  0  0  0  0  0  0  0
   36.4080   30.6520   39.0170 C   0  0  0  0  0  0  0  0  0  0  0  0
   35.7970   30.1970   40.1610 C   0  0  0  0  0  0  0  0  0  0  0  0
   35.1830   28.9600   40.0780 C   0  0  0  0  0  0  0  0  0  0  0  0
   35.2270   28.3030   38.9030 N   0  0  0  0  0  0  0  0  0  0  0  0
   35.8380   28.7850   37.8020 C   0  0  0  0  0  0  0  0  0  0  0  0
   36.4520   29.9980   37.8480 N   0  0  0  0  0  0  0  0  0  0  0  0
   34.6990   28.5900   40.9670 H   0  0  0  0  0  0  0  0  0  0  0  0
   35.8390   28.2040   36.8790 H   0  0  0  0  0  0  0  0  0  0  0  0
   35.8480   31.0190   41.3040 N   0  0  0  0  0  0  0  0  0  0  0  0
   36.6640   31.3700   41.8630 H   0  0  0  0  0  0  0  0  0  0  0  0
   34.8350   31.2150   41.4890 H   0  0  0  0  0  0  0  0  0  0  0  0
  1  2  1  0  0  0  0
  2  8  2  0  0  0  0
  2  3  1  0  0  0  0
  3  4  2  0  0  0  0
  4  5  1  0  0  0  0
  4  9  1  0  0  0  0
  5 10  1  0  0  0  0
  6  7  1  0  0  0  0
  6  5  2  0  0  0  0
  8  6  1  0  0  0  0
 11  8  1  0  0  0  0
 12 13  1  0  0  0  0
 12 11  2  0  0  0  0
 14 15  1  0  0  0  0
 14 12  1  0  0  0  0
 15 17  2  0  0  0  0
 16 15  1  0  0  0  0
 17 11  1  0  0  0  0
 18 19  1  0  0  0  0
 18  3  1  0  0  0  0
 19 20  2  0  0  0  0
 21 23  1  0  0  0  0
 21 19  1  0  0  0  0
 22 21  1  0  0  0  0
 23 24  1  0  0  0  0
 24 31  1  0  0  0  0
 25 24  2  0  0  0  0
 25 29  1  0  0  0  0
 26 25  1  0  0  0  0
 27 28  1  0  0  0  0
 27 26  2  0  0  0  0
 28 23  2  0  0  0  0
 30 27  1  0  0  0  0
 31 33  1  0  0  0  0
 31 32  1  0  0  0  0
M  END
>  <minimizedAffinity>
-4.83823252

$$$$
