
 OpenBabel03252506563D

 36 40  0  0  0  0  0  0  0  0999 V2000
   47.2860   31.3100   45.2190 C   0  0  0  0  0  0  0  0  0  0  0  0
   46.9130   32.6390   45.1250 C   0  0  0  0  0  0  0  0  0  0  0  0
   46.2910   33.3080   46.1510 C   0  0  0  0  0  0  0  0  0  0  0  0
   46.0090   32.6610   47.3430 C   0  0  0  0  0  0  0  0  0  0  0  0
   45.4260   32.9860   48.5320 N   0  0  0  0  0  0  0  0  0  0  0  0
   45.4390   31.8890   49.3370 C   0  0  0  0  0  0  0  0  0  0  0  0
   46.0320   30.9010   48.6300 N   0  0  0  0  0  0  0  0  0  0  0  0
   46.3890   31.3430   47.4090 C   0  0  0  0  0  0  0  0  0  0  0  0
   47.0070   30.6370   46.4230 C   0  0  0  0  0  0  0  0  0  0  0  0
   47.7760   30.7910   44.4050 H   0  0  0  0  0  0  0  0  0  0  0  0
   46.0030   34.3490   46.0650 H   0  0  0  0  0  0  0  0  0  0  0  0
   45.0460   33.9440   48.7380 H   0  0  0  0  0  0  0  0  0  0  0  0
   45.0370   31.8560   50.3540 H   0  0  0  0  0  0  0  0  0  0  0  0
   46.6610   35.0660   42.3710 C   0  0  0  0  0  0  0  0  0  0  0  0
   47.7300   34.7240   41.5590 C   0  0  0  0  0  0  0  0  0  0  0  0
   48.5410   33.6540   41.9580 C   0  0  0  0  0  0  0  0  0  0  0  0
   48.2400   33.0060   43.1230 N   0  0  0  0  0  0  0  0  0  0  0  0
   47.1860   33.3690   43.8910 C   0  0  0  0  0  0  0  0  0  0  0  0
   46.3990   34.3930   43.5190 N   0  0  0  0  0  0  0  0  0  0  0  0
   46.0160   35.8950   42.0790 H   0  0  0  0  0  0  0  0  0  0  0  0
   47.9180   35.2780   40.6430 H   0  0  0  0  0  0  0  0  0  0  0  0
   49.3860   33.3590   41.3470 H   0  0  0  0  0  0  0  0  0  0  0  0
   47.3740   29.2300   46.5930 C   0  0  0  0  0  0  0  0  0  0  0  0
   48.5930   28.6920   46.2680 C   0  0  0  0  0  0  0  0  0  0  0  0
   48.4510   27.3370   46.6100 C   0  0  0  0  0  0  0  0  0  0  0  0
   47.1720   27.1300   47.1160 C   0  0  0  0  0  0  0  0  0  0  0  0
   46.5960   28.3110   47.0700 O   0  0  0  0  0  0  0  0  0  0  0  0
   49.4390   29.1850   45.8570 H   0  0  0  0  0  0  0  0  0  0  0  0
   49.2150   26.5870   46.4950 H   0  0  0  0  0  0  0  0  0  0  0  0
   46.5810   25.8660   47.6010 C   0  0  0  0  0  0  0  0  0  0  0  0
   47.2620   25.1560   48.7280 C   0  0  0  0  0  0  0  0  0  0  0  0
   48.1210   25.4710   49.2090 H   0  0  0  0  0  0  0  0  0  0  0  0
   46.0770   23.6890   48.8700 S   0  0  0  0  0  0  0  0  0  0  0  0
   44.9770   24.3100   47.4570 C   0  0  0  0  0  0  0  0  0  0  0  0
   44.1030   23.7640   47.1430 H   0  0  0  0  0  0  0  0  0  0  0  0
   45.4900   25.3530   47.0780 N   0  0  0  0  0  0  0  0  0  0  0  0
  1  9  1  0  0  0  0
  2  1  2  0  0  0  0
  2  3  1  0  0  0  0
  3  4  2  0  0  0  0
  4  8  1  0  0  0  0
  4  5  1  0  0  0  0
  5 12  1  0  0  0  0
  5  6  1  0  0  0  0
  6 13  1  0  0  0  0
  7  6  2  0  0  0  0
  8  7  1  0  0  0  0
  9 23  1  0  0  0  0
  9  8  2  0  0  0  0
 10  1  1  0  0  0  0
 11  3  1  0  0  0  0
 14 19  1  0  0  0  0
 15 16  1  0  0  0  0
 15 14  2  0  0  0  0
 16 17  2  0  0  0  0
 17 18  1  0  0  0  0
 18  2  1  0  0  0  0
 19 18  2  0  0  0  0
 20 14  1  0  0  0  0
 21 15  1  0  0  0  0
 22 16  1  0  0  0  0
 23 27  1  0  0  0  0
 24 23  2  0  0  0  0
 24 25  1  0  0  0  0
 25 26  2  0  0  0  0
 26 30  1  0  0  0  0
 27 26  1  0  0  0  0
 28 24  1  0  0  0  0
 29 25  1  0  0  0  0
 30 31  2  0  0  0  0
 31 33  1  0  0  0  0
 31 32  1  0  0  0  0
 34 33  1  0  0  0  0
 35 34  1  0  0  0  0
 36 34  2  0  0  0  0
 36 30  1  0  0  0  0
M  END
>  <minimizedAffinity>
-5.66316652

>  <minimizedRMSD>
0.855299234

$$$$
