
 OpenBabel03252508263D

 39 43  0  0  1  0  0  0  0  0999 V2000
   46.2880   30.5030   46.1680 C   0  0  1  0  0  0  0  0  0  0  0  0
   46.7890   30.3570   47.5430 C   0  0  0  0  0  0  0  0  0  0  0  0
   45.2950   30.0550   47.1280 C   0  0  2  0  0  0  0  0  0  0  0  0
   46.9600   29.8190   45.5370 H   0  0  0  0  0  0  0  0  0  0  0  0
   46.9810   31.2330   48.1820 H   0  0  0  0  0  0  0  0  0  0  0  0
   47.2300   29.4360   47.9470 H   0  0  0  0  0  0  0  0  0  0  0  0
   44.7390   30.7540   47.8240 H   0  0  0  0  0  0  0  0  0  0  0  0
   44.7730   28.6900   47.2310 C   0  0  0  0  0  0  0  0  0  0  0  0
   45.0360   27.7770   48.2040 C   0  0  0  0  0  0  0  0  0  0  0  0
   44.6290   26.4510   48.2080 C   0  0  0  0  0  0  0  0  0  0  0  0
   43.8770   26.0290   47.0940 C   0  0  0  0  0  0  0  0  0  0  0  0
   43.5900   26.9420   46.0850 C   0  0  0  0  0  0  0  0  0  0  0  0
   42.7990   26.5020   45.0410 C   0  0  0  0  0  0  0  0  0  0  0  0
   42.4290   27.3970   44.0480 C   0  0  0  0  0  0  0  0  0  0  0  0
   42.8410   28.7150   44.0950 C   0  0  0  0  0  0  0  0  0  0  0  0
   43.6310   29.1020   45.1550 C   0  0  0  0  0  0  0  0  0  0  0  0
   44.0320   28.2480   46.1630 C   0  0  0  0  0  0  0  0  0  0  0  0
   45.6190   28.1500   49.0430 H   0  0  0  0  0  0  0  0  0  0  0  0
   44.8760   25.7770   49.0200 H   0  0  0  0  0  0  0  0  0  0  0  0
   43.5440   25.0030   47.0560 H   0  0  0  0  0  0  0  0  0  0  0  0
   42.4870   25.4610   45.0290 H   0  0  0  0  0  0  0  0  0  0  0  0
   41.8010   26.9340   43.2680 H   0  0  0  0  0  0  0  0  0  0  0  0
   42.4570   29.2400   43.2540 H   0  0  0  0  0  0  0  0  0  0  0  0
   43.7370   30.1390   45.0170 H   0  0  0  0  0  0  0  0  0  0  0  0
   45.4760   34.0700   45.7090 C   0  0  0  0  0  0  0  0  0  0  0  0
   45.8370   34.3000   44.3410 C   0  0  0  0  0  0  0  0  0  0  0  0
   46.3670   33.1810   43.6110 C   0  0  0  0  0  0  0  0  0  0  0  0
   46.4960   32.0140   44.2260 N   0  0  0  0  0  0  0  0  0  0  0  0
   46.1370   31.8430   45.5390 C   0  0  0  0  0  0  0  0  0  0  0  0
   45.6410   32.8470   46.2530 N   0  0  0  0  0  0  0  0  0  0  0  0
   45.0940   34.9590   46.1570 H   0  0  0  0  0  0  0  0  0  0  0  0
   45.7330   35.2420   43.8500 H   0  0  0  0  0  0  0  0  0  0  0  0
   46.7300   33.4170   42.2230 C   0  0  0  0  0  0  0  0  0  0  0  0
   48.0240   34.0710   41.9520 C   0  0  0  0  0  0  0  0  0  0  0  0
   48.7510   34.4030   42.7050 H   0  0  0  0  0  0  0  0  0  0  0  0
   48.0270   34.1470   40.0700 S   0  0  0  0  0  0  0  0  0  0  0  0
   46.3300   33.3040   40.0250 C   0  0  0  0  0  0  0  0  0  0  0  0
   45.7000   33.0260   39.1290 H   0  0  0  0  0  0  0  0  0  0  0  0
   46.0290   33.1110   41.1310 N   0  0  0  0  0  0  0  0  0  0  0  0
  1  4  1  6  0  0  0
  1  3  1  0  0  0  0
  1  2  1  0  0  0  0
  2  6  1  0  0  0  0
  2  5  1  0  0  0  0
  3  8  1  0  0  0  0
  3  2  1  0  0  0  0
  3  7  1  1  0  0  0
  8  9  1  0  0  0  0
  9 10  2  0  0  0  0
  9 18  1  0  0  0  0
 10 19  1  0  0  0  0
 11 10  1  0  0  0  0
 12 17  1  0  0  0  0
 12 11  2  0  0  0  0
 13 12  1  0  0  0  0
 14 15  1  0  0  0  0
 14 13  2  0  0  0  0
 15 16  2  0  0  0  0
 16 17  1  0  0  0  0
 17  8  2  0  0  0  0
 20 11  1  0  0  0  0
 21 13  1  0  0  0  0
 22 14  1  0  0  0  0
 23 15  1  0  0  0  0
 24 16  1  0  0  0  0
 25 31  1  0  0  0  0
 25 30  1  0  0  0  0
 26 25  2  0  0  0  0
 27 28  2  0  0  0  0
 27 26  1  0  0  0  0
 28 29  1  0  0  0  0
 29  1  1  0  0  0  0
 29 30  2  0  0  0  0
 32 26  1  0  0  0  0
 33 27  1  0  0  0  0
 34 33  2  0  0  0  0
 34 35  1  0  0  0  0
 36 34  1  0  0  0  0
 37 36  1  0  0  0  0
 37 39  2  0  0  0  0
 38 37  1  0  0  0  0
 39 33  1  0  0  0  0
M  END
>  <minimizedAffinity>
-4.63037682

>  <minimizedRMSD>
2.27260113

$$$$
