
 OpenBabel03252504423D

 43 46  0  0  0  0  0  0  0  0999 V2000
   46.2930   32.1310   48.0290 C   0  0  0  0  0  0  0  0  0  0  0  0
   45.8280   31.5030   49.1530 C   0  0  0  0  0  0  0  0  0  0  0  0
   46.8580   30.8000   49.6390 N   0  0  0  0  0  0  0  0  0  0  0  0
   47.9460   30.9560   48.8750 C   0  0  0  0  0  0  0  0  0  0  0  0
   47.5740   31.7970   47.8660 N   0  0  0  0  0  0  0  0  0  0  0  0
   49.2530   30.4210   48.9830 N   0  0  0  0  0  0  0  0  0  0  0  0
   50.2330   31.1530   49.8030 C   0  0  0  0  0  0  0  0  0  0  0  0
   50.3430   30.3420   51.0910 C   0  0  0  0  0  0  0  0  0  0  0  0
   50.5330   28.8800   50.7720 C   0  0  0  0  0  0  0  0  0  0  0  0
   50.9450   28.7150   49.3250 C   0  0  0  0  0  0  0  0  0  0  0  0
   49.8620   29.2400   48.4250 C   0  0  0  0  0  0  0  0  0  0  0  0
   44.8310   31.5480   49.5870 H   0  0  0  0  0  0  0  0  0  0  0  0
   46.8450   30.2010   50.4960 H   0  0  0  0  0  0  0  0  0  0  0  0
   51.2030   31.2420   49.3030 H   0  0  0  0  0  0  0  0  0  0  0  0
   49.8570   32.1680   50.0600 H   0  0  0  0  0  0  0  0  0  0  0  0
   49.5080   30.5500   51.7660 H   0  0  0  0  0  0  0  0  0  0  0  0
   51.2610   30.6500   51.6440 H   0  0  0  0  0  0  0  0  0  0  0  0
   49.6190   28.2810   51.0130 H   0  0  0  0  0  0  0  0  0  0  0  0
   51.3570   28.4040   51.3750 H   0  0  0  0  0  0  0  0  0  0  0  0
   51.1420   27.6240   49.1440 H   0  0  0  0  0  0  0  0  0  0  0  0
   51.9020   29.2370   49.1930 H   0  0  0  0  0  0  0  0  0  0  0  0
   50.2240   29.4020   47.4020 H   0  0  0  0  0  0  0  0  0  0  0  0
   49.0600   28.4470   48.4250 H   0  0  0  0  0  0  0  0  0  0  0  0
   45.5150   33.0400   47.1290 C   0  0  0  0  0  0  0  0  0  0  0  0
   45.3070   34.0190   47.6090 H   0  0  0  0  0  0  0  0  0  0  0  0
   44.5200   32.5420   47.0060 H   0  0  0  0  0  0  0  0  0  0  0  0
   45.7120   33.9920   44.8740 C   0  0  0  0  0  3  0  0  0  0  0  0
   46.2130   33.2520   45.8540 C   0  0  0  0  0  3  0  0  0  0  0  0
   46.5160   34.1220   43.6500 C   0  0  0  0  0  0  0  0  0  0  0  0
   46.2360   35.0640   42.6350 C   0  0  0  0  0  0  0  0  0  0  0  0
   47.0460   35.1120   41.5280 C   0  0  0  0  0  0  0  0  0  0  0  0
   48.0870   34.2600   41.4370 N   0  0  0  0  0  0  0  0  0  0  0  0
   48.3410   33.3650   42.4140 C   0  0  0  0  0  0  0  0  0  0  0  0
   47.5830   33.2910   43.4940 N   0  0  0  0  0  0  0  0  0  0  0  0
   45.3840   35.7070   42.7910 H   0  0  0  0  0  0  0  0  0  0  0  0
   46.8490   35.8260   40.7420 H   0  0  0  0  0  0  0  0  0  0  0  0
   49.4620   32.3970   42.3860 C   0  0  0  0  0  0  0  0  0  0  0  0
   50.8750   32.5110   41.8750 C   0  0  0  0  0  0  0  0  0  0  0  0
   50.9130   33.6530   41.4540 H   0  0  0  0  0  0  0  0  0  0  0  0
   51.4470   30.7590   42.3130 S   0  0  0  0  0  0  0  0  0  0  0  0
   49.7670   30.2830   43.0420 C   0  0  0  0  0  0  0  0  0  0  0  0
   49.8820   29.2620   43.3690 H   0  0  0  0  0  0  0  0  0  0  0  0
   48.9810   31.2880   42.9440 N   0  0  0  0  0  0  0  0  0  0  0  0
  1  2  2  0  0  0  0
  2 12  1  0  0  0  0
  2  3  1  0  0  0  0
  3 13  1  0  0  0  0
  4  6  1  0  0  0  0
  4  3  1  0  0  0  0
  5  1  1  0  0  0  0
  5  4  2  0  0  0  0
  6  7  1  0  0  0  0
  7 15  1  0  0  0  0
  7  8  1  0  0  0  0
  8 17  1  0  0  0  0
  8 16  1  0  0  0  0
  9 18  1  0  0  0  0
  9  8  1  0  0  0  0
  9 19  1  0  0  0  0
 10  9  1  0  0  0  0
 11  6  1  0  0  0  0
 11 10  1  0  0  0  0
 14  7  1  0  0  0  0
 20 10  1  0  0  0  0
 21 10  1  0  0  0  0
 22 11  1  0  0  0  0
 23 11  1  0  0  0  0
 24 25  1  0  0  0  0
 24  1  1  0  0  0  0
 26 24  1  0  0  0  0
 27 28  2  0  0  0  0
 28 24  1  0  0  0  0
 29 27  1  0  0  0  0
 30 35  1  0  0  0  0
 30 29  2  0  0  0  0
 31 30  1  0  0  0  0
 32 31  2  0  0  0  0
 32 33  1  0  0  0  0
 33 34  2  0  0  0  0
 34 29  1  0  0  0  0
 36 31  1  0  0  0  0
 37 33  1  0  0  0  0
 37 43  1  0  0  0  0
 38 40  1  0  0  0  0
 38 37  2  0  0  0  0
 39 38  1  0  0  0  0
 40 41  1  0  0  0  0
 41 42  1  0  0  0  0
 43 41  2  0  0  0  0
M  END
>  <minimizedAffinity>
-5.84904623

>  <minimizedRMSD>
0.615560055

$$$$
