
 OpenBabel03242517183D

 31 33  0  0  0  0  0  0  0  0999 V2000
   36.9050   28.1200   42.1280 C   0  0  0  0  0  3  0  0  0  0  0  0
   37.4530   26.9520   41.9410 C   0  0  0  0  0  3  0  0  0  0  0  0
   38.8500   29.6900   41.8940 C   0  0  0  0  0  0  0  0  0  0  0  0
   37.4680   29.4080   41.7210 C   0  0  0  0  0  0  0  0  0  0  0  0
   36.6550   30.3740   41.1630 C   0  0  0  0  0  0  0  0  0  0  0  0
   37.2400   31.5570   40.8060 N   0  0  0  0  0  0  0  0  0  0  0  0
   38.5330   31.8040   40.9740 C   0  0  0  0  0  0  0  0  0  0  0  0
   39.3280   30.8790   41.5110 N   0  0  0  0  0  0  0  0  0  0  0  0
   39.4020   28.8740   42.3370 H   0  0  0  0  0  0  0  0  0  0  0  0
   35.5990   30.2350   41.0020 H   0  0  0  0  0  0  0  0  0  0  0  0
   39.2140   33.0360   40.6140 C   0  0  0  0  0  0  0  0  0  0  0  0
   40.6760   33.2480   40.3750 C   0  0  0  0  0  0  0  0  0  0  0  0
   41.2440   32.1950   40.5290 H   0  0  0  0  0  0  0  0  0  0  0  0
   40.6720   35.0890   39.9750 S   0  0  0  0  0  0  0  0  0  0  0  0
   38.7920   35.1880   40.2030 C   0  0  0  0  0  0  0  0  0  0  0  0
   38.4510   36.1990   40.0280 H   0  0  0  0  0  0  0  0  0  0  0  0
   38.4400   34.1120   40.4840 N   0  0  0  0  0  0  0  0  0  0  0  0
   36.8170   25.6770   42.3850 C   0  0  0  0  0  0  0  0  0  0  0  0
   35.7100   25.8910   42.4390 H   0  0  0  0  0  0  0  0  0  0  0  0
   37.1080   25.4070   43.4270 H   0  0  0  0  0  0  0  0  0  0  0  0
   39.0350   23.9960   42.4490 F   0  0  0  0  0  0  0  0  0  0  0  0
   38.1240   23.7960   41.4570 C   0  0  0  0  0  0  0  0  0  0  0  0
   37.0060   24.6270   41.4060 C   0  0  0  0  0  0  0  0  0  0  0  0
   36.1700   24.3120   40.3520 C   0  0  0  0  0  0  0  0  0  0  0  0
   36.3240   23.3260   39.4130 C   0  0  0  0  0  0  0  0  0  0  0  0
   37.4810   22.5610   39.5680 C   0  0  0  0  0  0  0  0  0  0  0  0
   38.4040   22.7570   40.5670 C   0  0  0  0  0  0  0  0  0  0  0  0
   35.2660   24.9150   40.2350 H   0  0  0  0  0  0  0  0  0  0  0  0
   35.6220   23.1590   38.6350 H   0  0  0  0  0  0  0  0  0  0  0  0
   37.6880   21.7520   38.8670 H   0  0  0  0  0  0  0  0  0  0  0  0
   39.3010   22.1690   40.6910 H   0  0  0  0  0  0  0  0  0  0  0  0
  2  1  2  0  0  0  0
  2 18  1  0  0  0  0
  3  9  1  0  0  0  0
  4  3  1  0  0  0  0
  4  1  1  0  0  0  0
  5  4  2  0  0  0  0
  6  7  2  0  0  0  0
  6  5  1  0  0  0  0
  7  8  1  0  0  0  0
  8  3  2  0  0  0  0
 10  5  1  0  0  0  0
 11  7  1  0  0  0  0
 12 13  1  0  0  0  0
 12 11  2  0  0  0  0
 14 15  1  0  0  0  0
 14 12  1  0  0  0  0
 15 17  2  0  0  0  0
 16 15  1  0  0  0  0
 17 11  1  0  0  0  0
 18 19  1  0  0  0  0
 18 20  1  0  0  0  0
 22 21  1  0  0  0  0
 23 22  1  0  0  0  0
 23 18  1  0  0  0  0
 24 23  2  0  0  0  0
 25 26  2  0  0  0  0
 25 24  1  0  0  0  0
 26 27  1  0  0  0  0
 27 31  1  0  0  0  0
 27 22  2  0  0  0  0
 28 24  1  0  0  0  0
 29 25  1  0  0  0  0
 30 26  1  0  0  0  0
M  END
>  <minimizedAffinity>
-5.54204226

$$$$

 OpenBabel03242517183D

 31 33  0  0  0  0  0  0  0  0999 V2000
   34.2200   28.7580   37.3150 C   0  0  0  0  0  3  0  0  0  0  0  0
   32.9190   28.8250   37.2660 C   0  0  0  0  0  3  0  0  0  0  0  0
   36.1270   27.6180   38.4870 C   0  0  0  0  0  0  0  0  0  0  0  0
   35.0230   28.5130   38.5140 C   0  0  0  0  0  0  0  0  0  0  0  0
   34.7110   29.1510   39.6980 C   0  0  0  0  0  0  0  0  0  0  0  0
   35.4960   28.8790   40.7830 N   0  0  0  0  0  0  0  0  0  0  0  0
   36.5240   28.0400   40.7400 C   0  0  0  0  0  0  0  0  0  0  0  0
   36.8350   27.4190   39.6030 N   0  0  0  0  0  0  0  0  0  0  0  0
   36.2910   27.1690   37.5170 H   0  0  0  0  0  0  0  0  0  0  0  0
   33.8900   29.8410   39.7970 H   0  0  0  0  0  0  0  0  0  0  0  0
   37.3970   27.7110   41.8550 C   0  0  0  0  0  0  0  0  0  0  0  0
   38.7280   27.0290   41.8160 C   0  0  0  0  0  0  0  0  0  0  0  0
   38.9940   26.7770   40.6660 H   0  0  0  0  0  0  0  0  0  0  0  0
   39.1330   27.0100   43.6560 S   0  0  0  0  0  0  0  0  0  0  0  0
   37.5020   27.8830   44.0760 C   0  0  0  0  0  0  0  0  0  0  0  0
   37.4270   28.0300   45.1450 H   0  0  0  0  0  0  0  0  0  0  0  0
   36.9540   28.0580   43.0620 N   0  0  0  0  0  0  0  0  0  0  0  0
   32.1670   29.0790   36.0020 C   0  0  0  0  0  0  0  0  0  0  0  0
   31.4430   28.2190   35.9000 H   0  0  0  0  0  0  0  0  0  0  0  0
   32.8240   29.0080   35.1040 H   0  0  0  0  0  0  0  0  0  0  0  0
   31.9280   30.8310   33.8530 F   0  0  0  0  0  0  0  0  0  0  0  0
   31.2780   31.1570   35.0030 C   0  0  0  0  0  0  0  0  0  0  0  0
   31.3850   30.2940   36.0920 C   0  0  0  0  0  0  0  0  0  0  0  0
   30.6770   30.7470   37.1890 C   0  0  0  0  0  0  0  0  0  0  0  0
   29.9300   31.8910   37.3010 C   0  0  0  0  0  0  0  0  0  0  0  0
   29.8990   32.6730   36.1470 C   0  0  0  0  0  0  0  0  0  0  0  0
   30.5520   32.3500   34.9820 C   0  0  0  0  0  0  0  0  0  0  0  0
   30.7060   30.1320   38.0910 H   0  0  0  0  0  0  0  0  0  0  0  0
   29.4180   32.1570   38.1920 H   0  0  0  0  0  0  0  0  0  0  0  0
   29.3290   33.6030   36.1420 H   0  0  0  0  0  0  0  0  0  0  0  0
   30.5320   32.9520   34.0850 H   0  0  0  0  0  0  0  0  0  0  0  0
  1  4  1  0  0  0  0
  2  1  2  0  0  0  0
  3  4  2  0  0  0  0
  3  8  1  0  0  0  0
  4  5  1  0  0  0  0
  5 10  1  0  0  0  0
  5  6  2  0  0  0  0
  7  6  1  0  0  0  0
  7 11  1  0  0  0  0
  8  7  2  0  0  0  0
  9  3  1  0  0  0  0
 11 17  1  0  0  0  0
 12 11  2  0  0  0  0
 12 14  1  0  0  0  0
 13 12  1  0  0  0  0
 14 15  1  0  0  0  0
 15 16  1  0  0  0  0
 17 15  2  0  0  0  0
 18 23  1  0  0  0  0
 18  2  1  0  0  0  0
 19 18  1  0  0  0  0
 20 18  1  0  0  0  0
 21 22  1  0  0  0  0
 22 23  1  0  0  0  0
 23 24  2  0  0  0  0
 24 25  1  0  0  0  0
 24 28  1  0  0  0  0
 25 29  1  0  0  0  0
 26 25  2  0  0  0  0
 27 22  2  0  0  0  0
 27 26  1  0  0  0  0
 30 26  1  0  0  0  0
 31 27  1  0  0  0  0
M  END
>  <minimizedAffinity>
-5.49862242

$$$$

 OpenBabel03242517183D

 31 33  0  0  0  0  0  0  0  0999 V2000
   33.9510   28.9250   38.7130 C   0  0  0  0  0  3  0  0  0  0  0  0
   33.6130   29.2310   37.4910 C   0  0  0  0  0  3  0  0  0  0  0  0
   35.4650   28.9080   40.7160 C   0  0  0  0  0  0  0  0  0  0  0  0
   35.2250   29.2480   39.3580 C   0  0  0  0  0  0  0  0  0  0  0  0
   36.2160   29.8950   38.6470 C   0  0  0  0  0  0  0  0  0  0  0  0
   37.3820   30.1710   39.3050 N   0  0  0  0  0  0  0  0  0  0  0  0
   37.5900   29.8460   40.5750 C   0  0  0  0  0  0  0  0  0  0  0  0
   36.6410   29.2210   41.2710 N   0  0  0  0  0  0  0  0  0  0  0  0
   34.6320   28.4050   41.1860 H   0  0  0  0  0  0  0  0  0  0  0  0
   36.1080   30.1850   37.6150 H   0  0  0  0  0  0  0  0  0  0  0  0
   38.8040   30.1080   41.3290 C   0  0  0  0  0  0  0  0  0  0  0  0
   39.6090   31.3690   41.3780 C   0  0  0  0  0  0  0  0  0  0  0  0
   39.0800   32.1860   40.6640 H   0  0  0  0  0  0  0  0  0  0  0  0
   40.9710   30.8350   42.5650 S   0  0  0  0  0  0  0  0  0  0  0  0
   40.2110   29.1060   42.7410 C   0  0  0  0  0  0  0  0  0  0  0  0
   40.8090   28.5070   43.4140 H   0  0  0  0  0  0  0  0  0  0  0  0
   39.2580   29.0970   42.0680 N   0  0  0  0  0  0  0  0  0  0  0  0
   32.2920   28.8670   36.9000 C   0  0  0  0  0  0  0  0  0  0  0  0
   31.7890   28.2030   37.6630 H   0  0  0  0  0  0  0  0  0  0  0  0
   32.4030   28.2280   35.9930 H   0  0  0  0  0  0  0  0  0  0  0  0
   30.6980   29.8470   38.9600 F   0  0  0  0  0  0  0  0  0  0  0  0
   30.6650   30.5090   37.7720 C   0  0  0  0  0  0  0  0  0  0  0  0
   31.4550   30.0350   36.7260 C   0  0  0  0  0  0  0  0  0  0  0  0
   31.3230   30.8020   35.5840 C   0  0  0  0  0  0  0  0  0  0  0  0
   30.5410   31.9100   35.3930 C   0  0  0  0  0  0  0  0  0  0  0  0
   29.7970   32.2870   36.5110 C   0  0  0  0  0  0  0  0  0  0  0  0
   29.8250   31.6240   37.7130 C   0  0  0  0  0  0  0  0  0  0  0  0
   31.9080   30.5010   34.7110 H   0  0  0  0  0  0  0  0  0  0  0  0
   30.5060   32.4360   34.4720 H   0  0  0  0  0  0  0  0  0  0  0  0
   29.1440   33.1600   36.4520 H   0  0  0  0  0  0  0  0  0  0  0  0
   29.2510   31.9110   38.5810 H   0  0  0  0  0  0  0  0  0  0  0  0
  1  4  1  0  0  0  0
  2  1  2  0  0  0  0
  3  9  1  0  0  0  0
  3  8  1  0  0  0  0
  4  3  2  0  0  0  0
  5  6  2  0  0  0  0
  5  4  1  0  0  0  0
  6  7  1  0  0  0  0
  7  8  2  0  0  0  0
  7 11  1  0  0  0  0
 10  5  1  0  0  0  0
 11 12  2  0  0  0  0
 11 17  1  0  0  0  0
 12 14  1  0  0  0  0
 13 12  1  0  0  0  0
 14 15  1  0  0  0  0
 15 16  1  0  0  0  0
 17 15  2  0  0  0  0
 18  2  1  0  0  0  0
 18 19  1  0  0  0  0
 20 18  1  0  0  0  0
 22 21  1  0  0  0  0
 23 18  1  0  0  0  0
 23 22  2  0  0  0  0
 24 23  1  0  0  0  0
 25 24  2  0  0  0  0
 25 26  1  0  0  0  0
 26 27  2  0  0  0  0
 27 22  1  0  0  0  0
 27 31  1  0  0  0  0
 28 24  1  0  0  0  0
 29 25  1  0  0  0  0
 30 26  1  0  0  0  0
M  END
>  <minimizedAffinity>
-5.22008181

$$$$

 OpenBabel03242517183D

 31 33  0  0  0  0  0  0  0  0999 V2000
   36.5810   28.5420   41.5960 C   0  0  0  0  0  3  0  0  0  0  0  0
   36.8080   27.5980   42.4660 C   0  0  0  0  0  3  0  0  0  0  0  0
   34.7220   29.1970   40.0400 C   0  0  0  0  0  0  0  0  0  0  0  0
   35.8540   28.3910   40.3340 C   0  0  0  0  0  0  0  0  0  0  0  0
   36.2630   27.4510   39.4090 C   0  0  0  0  0  0  0  0  0  0  0  0
   35.5430   27.3560   38.2510 N   0  0  0  0  0  0  0  0  0  0  0  0
   34.4870   28.1170   37.9920 C   0  0  0  0  0  0  0  0  0  0  0  0
   34.0830   29.0280   38.8770 N   0  0  0  0  0  0  0  0  0  0  0  0
   34.4820   29.9010   40.8240 H   0  0  0  0  0  0  0  0  0  0  0  0
   37.1110   26.8040   39.5610 H   0  0  0  0  0  0  0  0  0  0  0  0
   33.6820   28.0670   36.7830 C   0  0  0  0  0  0  0  0  0  0  0  0
   33.7560   27.0780   35.6630 C   0  0  0  0  0  0  0  0  0  0  0  0
   34.6250   26.2790   35.9170 H   0  0  0  0  0  0  0  0  0  0  0  0
   32.3940   27.7500   34.5490 S   0  0  0  0  0  0  0  0  0  0  0  0
   32.0240   29.1590   35.7650 C   0  0  0  0  0  0  0  0  0  0  0  0
   31.2220   29.7760   35.3820 H   0  0  0  0  0  0  0  0  0  0  0  0
   32.7650   29.0250   36.6560 N   0  0  0  0  0  0  0  0  0  0  0  0
   37.5590   27.8280   43.7350 C   0  0  0  0  0  0  0  0  0  0  0  0
   37.1260   27.1010   44.4820 H   0  0  0  0  0  0  0  0  0  0  0  0
   37.3530   28.8360   44.1650 H   0  0  0  0  0  0  0  0  0  0  0  0
   39.4020   29.6990   42.8150 F   0  0  0  0  0  0  0  0  0  0  0  0
   39.8680   28.4570   43.1190 C   0  0  0  0  0  0  0  0  0  0  0  0
   38.9610   27.5040   43.5810 C   0  0  0  0  0  0  0  0  0  0  0  0
   39.5700   26.2930   43.8490 C   0  0  0  0  0  0  0  0  0  0  0  0
   40.8920   25.9600   43.7120 C   0  0  0  0  0  0  0  0  0  0  0  0
   41.6990   26.9960   43.2420 C   0  0  0  0  0  0  0  0  0  0  0  0
   41.2370   28.2520   42.9340 C   0  0  0  0  0  0  0  0  0  0  0  0
   38.9320   25.4850   44.2160 H   0  0  0  0  0  0  0  0  0  0  0  0
   41.2690   24.9950   43.9450 H   0  0  0  0  0  0  0  0  0  0  0  0
   42.7680   26.8230   43.1010 H   0  0  0  0  0  0  0  0  0  0  0  0
   41.8570   29.0570   42.5690 H   0  0  0  0  0  0  0  0  0  0  0  0
  1  2  2  0  0  0  0
  2 18  1  0  0  0  0
  3  4  1  0  0  0  0
  3  9  1  0  0  0  0
  4  1  1  0  0  0  0
  5 10  1  0  0  0  0
  5  4  2  0  0  0  0
  6  5  1  0  0  0  0
  7  6  2  0  0  0  0
  7  8  1  0  0  0  0
  8  3  2  0  0  0  0
 11  7  1  0  0  0  0
 12 13  1  0  0  0  0
 12 11  2  0  0  0  0
 14 12  1  0  0  0  0
 14 15  1  0  0  0  0
 15 17  2  0  0  0  0
 16 15  1  0  0  0  0
 17 11  1  0  0  0  0
 18 20  1  0  0  0  0
 18 19  1  0  0  0  0
 21 22  1  0  0  0  0
 22 23  1  0  0  0  0
 23 18  1  0  0  0  0
 23 24  2  0  0  0  0
 24 28  1  0  0  0  0
 25 24  1  0  0  0  0
 25 29  1  0  0  0  0
 26 25  2  0  0  0  0
 27 22  2  0  0  0  0
 27 26  1  0  0  0  0
 30 26  1  0  0  0  0
 31 27  1  0  0  0  0
M  END
>  <minimizedAffinity>
-4.90543175

$$$$

 OpenBabel03242517183D

 31 33  0  0  0  0  0  0  0  0999 V2000
   36.9710   27.0700   41.1680 C   0  0  0  0  0  3  0  0  0  0  0  0
   37.4280   26.1800   42.0030 C   0  0  0  0  0  3  0  0  0  0  0  0
   38.8210   28.7020   40.6990 C   0  0  0  0  0  0  0  0  0  0  0  0
   37.4610   28.4420   41.0210 C   0  0  0  0  0  0  0  0  0  0  0  0
   36.6010   29.5070   41.1980 C   0  0  0  0  0  0  0  0  0  0  0  0
   37.1200   30.7630   41.0500 N   0  0  0  0  0  0  0  0  0  0  0  0
   38.3930   30.9890   40.7490 C   0  0  0  0  0  0  0  0  0  0  0  0
   39.2320   29.9690   40.5750 N   0  0  0  0  0  0  0  0  0  0  0  0
   39.4130   27.8060   40.5800 H   0  0  0  0  0  0  0  0  0  0  0  0
   35.5590   29.3890   41.4440 H   0  0  0  0  0  0  0  0  0  0  0  0
   39.0040   32.2960   40.5750 C   0  0  0  0  0  0  0  0  0  0  0  0
   40.4580   32.6480   40.5970 C   0  0  0  0  0  0  0  0  0  0  0  0
   41.0910   31.6380   40.7880 H   0  0  0  0  0  0  0  0  0  0  0  0
   40.3450   34.5040   40.3010 S   0  0  0  0  0  0  0  0  0  0  0  0
   38.4510   34.4270   40.2140 C   0  0  0  0  0  0  0  0  0  0  0  0
   38.0500   35.4160   40.0380 H   0  0  0  0  0  0  0  0  0  0  0  0
   38.1620   33.3090   40.3740 N   0  0  0  0  0  0  0  0  0  0  0  0
   36.8760   24.7960   42.0970 C   0  0  0  0  0  0  0  0  0  0  0  0
   35.7540   24.9120   42.0480 H   0  0  0  0  0  0  0  0  0  0  0  0
   37.0730   24.3360   43.0940 H   0  0  0  0  0  0  0  0  0  0  0  0
   35.0100   23.5260   40.4690 F   0  0  0  0  0  0  0  0  0  0  0  0
   36.3260   23.3650   40.1600 C   0  0  0  0  0  0  0  0  0  0  0  0
   37.2770   23.9930   40.9620 C   0  0  0  0  0  0  0  0  0  0  0  0
   38.5670   23.7450   40.5330 C   0  0  0  0  0  0  0  0  0  0  0  0
   38.9740   22.9900   39.4640 C   0  0  0  0  0  0  0  0  0  0  0  0
   37.9320   22.4140   38.7380 C   0  0  0  0  0  0  0  0  0  0  0  0
   36.6020   22.5710   39.0440 C   0  0  0  0  0  0  0  0  0  0  0  0
   39.3790   24.1980   41.1070 H   0  0  0  0  0  0  0  0  0  0  0  0
   39.9960   22.8570   39.2110 H   0  0  0  0  0  0  0  0  0  0  0  0
   38.1600   21.7950   37.8690 H   0  0  0  0  0  0  0  0  0  0  0  0
   35.7910   22.1270   38.4860 H   0  0  0  0  0  0  0  0  0  0  0  0
  1  2  2  0  0  0  0
  2 18  1  0  0  0  0
  3  4  1  0  0  0  0
  4  1  1  0  0  0  0
  4  5  2  0  0  0  0
  5 10  1  0  0  0  0
  6  5  1  0  0  0  0
  7  6  2  0  0  0  0
  8  3  2  0  0  0  0
  8  7  1  0  0  0  0
  9  3  1  0  0  0  0
 11 12  2  0  0  0  0
 11  7  1  0  0  0  0
 12 13  1  0  0  0  0
 14 12  1  0  0  0  0
 15 14  1  0  0  0  0
 15 17  2  0  0  0  0
 16 15  1  0  0  0  0
 17 11  1  0  0  0  0
 18 20  1  0  0  0  0
 19 18  1  0  0  0  0
 22 21  1  0  0  0  0
 22 23  1  0  0  0  0
 23 18  1  0  0  0  0
 24 23  2  0  0  0  0
 24 28  1  0  0  0  0
 25 24  1  0  0  0  0
 26 27  1  0  0  0  0
 26 25  2  0  0  0  0
 27 22  2  0  0  0  0
 29 25  1  0  0  0  0
 30 26  1  0  0  0  0
 31 27  1  0  0  0  0
M  END
>  <minimizedAffinity>
-4.8982811

$$$$

 OpenBabel03242517183D

 31 33  0  0  0  0  0  0  0  0999 V2000
   39.5450   27.1550   41.4450 C   0  0  0  0  0  3  0  0  0  0  0  0
   39.2060   26.5900   42.5710 C   0  0  0  0  0  3  0  0  0  0  0  0
   38.9510   29.5150   42.0620 C   0  0  0  0  0  0  0  0  0  0  0  0
   39.5830   28.5950   41.1830 C   0  0  0  0  0  0  0  0  0  0  0  0
   40.2360   29.0790   40.0670 C   0  0  0  0  0  0  0  0  0  0  0  0
   40.2340   30.4320   39.8770 N   0  0  0  0  0  0  0  0  0  0  0  0
   39.6380   31.2790   40.7080 C   0  0  0  0  0  0  0  0  0  0  0  0
   39.0050   30.8230   41.7890 N   0  0  0  0  0  0  0  0  0  0  0  0
   38.4680   29.0410   42.9050 H   0  0  0  0  0  0  0  0  0  0  0  0
   40.7370   28.4440   39.3560 H   0  0  0  0  0  0  0  0  0  0  0  0
   39.6020   32.7240   40.5640 C   0  0  0  0  0  0  0  0  0  0  0  0
   38.4030   33.6140   40.4670 C   0  0  0  0  0  0  0  0  0  0  0  0
   37.4130   32.9270   40.5300 H   0  0  0  0  0  0  0  0  0  0  0  0
   39.2560   35.2860   40.3050 S   0  0  0  0  0  0  0  0  0  0  0  0
   40.9700   34.4790   40.3960 C   0  0  0  0  0  0  0  0  0  0  0  0
   41.7380   35.2360   40.3250 H   0  0  0  0  0  0  0  0  0  0  0  0
   40.7860   33.3320   40.5100 N   0  0  0  0  0  0  0  0  0  0  0  0
   39.1910   25.1110   42.7640 C   0  0  0  0  0  0  0  0  0  0  0  0
   38.6600   24.9370   43.7450 H   0  0  0  0  0  0  0  0  0  0  0  0
   40.2160   24.6990   42.9160 H   0  0  0  0  0  0  0  0  0  0  0  0
   36.4090   25.1830   42.7520 F   0  0  0  0  0  0  0  0  0  0  0  0
   37.0230   24.5040   41.7450 C   0  0  0  0  0  0  0  0  0  0  0  0
   38.4160   24.4550   41.7320 C   0  0  0  0  0  0  0  0  0  0  0  0
   38.9030   23.7350   40.6570 C   0  0  0  0  0  0  0  0  0  0  0  0
   38.1940   23.1060   39.6670 C   0  0  0  0  0  0  0  0  0  0  0  0
   36.8090   23.2260   39.7880 C   0  0  0  0  0  0  0  0  0  0  0  0
   36.1820   23.9090   40.8010 C   0  0  0  0  0  0  0  0  0  0  0  0
   39.9880   23.6440   40.5680 H   0  0  0  0  0  0  0  0  0  0  0  0
   38.6600   22.5730   38.8760 H   0  0  0  0  0  0  0  0  0  0  0  0
   36.1620   22.7560   39.0460 H   0  0  0  0  0  0  0  0  0  0  0  0
   35.1110   24.0040   40.9000 H   0  0  0  0  0  0  0  0  0  0  0  0
  1  2  2  0  0  0  0
  2 18  1  0  0  0  0
  3  9  1  0  0  0  0
  4  1  1  0  0  0  0
  4  3  2  0  0  0  0
  5  4  1  0  0  0  0
  6  5  2  0  0  0  0
  6  7  1  0  0  0  0
  7  8  2  0  0  0  0
  8  3  1  0  0  0  0
 10  5  1  0  0  0  0
 11  7  1  0  0  0  0
 12 13  1  0  0  0  0
 12 11  2  0  0  0  0
 14 15  1  0  0  0  0
 14 12  1  0  0  0  0
 15 17  2  0  0  0  0
 16 15  1  0  0  0  0
 17 11  1  0  0  0  0
 18 20  1  0  0  0  0
 18 19  1  0  0  0  0
 22 21  1  0  0  0  0
 23 22  1  0  0  0  0
 23 18  1  0  0  0  0
 24 23  2  0  0  0  0
 25 26  2  0  0  0  0
 25 24  1  0  0  0  0
 26 27  1  0  0  0  0
 27 31  1  0  0  0  0
 27 22  2  0  0  0  0
 28 24  1  0  0  0  0
 29 25  1  0  0  0  0
 30 26  1  0  0  0  0
M  END
>  <minimizedAffinity>
-4.84667492

$$$$

 OpenBabel03242517183D

 31 33  0  0  0  0  0  0  0  0999 V2000
   35.9490   29.5730   37.5890 C   0  0  0  0  0  3  0  0  0  0  0  0
   34.8660   29.1540   38.1810 C   0  0  0  0  0  3  0  0  0  0  0  0
   37.8650   31.1850   37.3920 C   0  0  0  0  0  0  0  0  0  0  0  0
   36.9940   30.4010   38.1950 C   0  0  0  0  0  0  0  0  0  0  0  0
   37.1470   30.4270   39.5670 C   0  0  0  0  0  0  0  0  0  0  0  0
   38.1420   31.2170   40.0720 N   0  0  0  0  0  0  0  0  0  0  0  0
   38.9480   31.9430   39.3070 C   0  0  0  0  0  0  0  0  0  0  0  0
   38.8090   31.9270   37.9820 N   0  0  0  0  0  0  0  0  0  0  0  0
   37.6660   31.0980   36.3330 H   0  0  0  0  0  0  0  0  0  0  0  0
   36.5260   29.8610   40.2400 H   0  0  0  0  0  0  0  0  0  0  0  0
   40.0190   32.8030   39.7810 C   0  0  0  0  0  0  0  0  0  0  0  0
   41.3660   32.4040   40.2960 C   0  0  0  0  0  0  0  0  0  0  0  0
   41.4460   31.2000   40.2600 H   0  0  0  0  0  0  0  0  0  0  0  0
   42.0820   34.1040   40.6760 S   0  0  0  0  0  0  0  0  0  0  0  0
   40.4940   34.9610   40.0910 C   0  0  0  0  0  0  0  0  0  0  0  0
   40.5940   36.0330   40.1900 H   0  0  0  0  0  0  0  0  0  0  0  0
   39.7690   34.1110   39.7550 N   0  0  0  0  0  0  0  0  0  0  0  0
   33.8420   28.3110   37.4970 C   0  0  0  0  0  0  0  0  0  0  0  0
   33.2980   27.7630   38.3210 H   0  0  0  0  0  0  0  0  0  0  0  0
   34.3080   27.5080   36.8790 H   0  0  0  0  0  0  0  0  0  0  0  0
   34.0570   28.8580   34.7770 F   0  0  0  0  0  0  0  0  0  0  0  0
   32.9940   29.3880   35.4410 C   0  0  0  0  0  0  0  0  0  0  0  0
   32.8680   29.1270   36.8050 C   0  0  0  0  0  0  0  0  0  0  0  0
   31.7470   29.7260   37.3480 C   0  0  0  0  0  0  0  0  0  0  0  0
   30.8100   30.5020   36.7170 C   0  0  0  0  0  0  0  0  0  0  0  0
   31.0450   30.6920   35.3560 C   0  0  0  0  0  0  0  0  0  0  0  0
   32.1150   30.1600   34.6780 C   0  0  0  0  0  0  0  0  0  0  0  0
   31.5690   29.5750   38.4160 H   0  0  0  0  0  0  0  0  0  0  0  0
   29.9770   30.9210   37.2230 H   0  0  0  0  0  0  0  0  0  0  0  0
   30.3510   31.2960   34.7700 H   0  0  0  0  0  0  0  0  0  0  0  0
   32.3020   30.3040   33.6240 H   0  0  0  0  0  0  0  0  0  0  0  0
  1  2  2  0  0  0  0
  1  4  1  0  0  0  0
  3  8  2  0  0  0  0
  3  4  1  0  0  0  0
  4  5  2  0  0  0  0
  5  6  1  0  0  0  0
  5 10  1  0  0  0  0
  7 11  1  0  0  0  0
  7  6  2  0  0  0  0
  8  7  1  0  0  0  0
  9  3  1  0  0  0  0
 11 12  2  0  0  0  0
 12 14  1  0  0  0  0
 13 12  1  0  0  0  0
 15 16  1  0  0  0  0
 15 14  1  0  0  0  0
 17 11  1  0  0  0  0
 17 15  2  0  0  0  0
 18  2  1  0  0  0  0
 18 19  1  0  0  0  0
 20 18  1  0  0  0  0
 21 22  1  0  0  0  0
 22 23  1  0  0  0  0
 23 24  2  0  0  0  0
 23 18  1  0  0  0  0
 24 28  1  0  0  0  0
 25 29  1  0  0  0  0
 25 24  1  0  0  0  0
 26 25  2  0  0  0  0
 27 26  1  0  0  0  0
 27 22  2  0  0  0  0
 30 26  1  0  0  0  0
 31 27  1  0  0  0  0
M  END
>  <minimizedAffinity>
-4.83470774

$$$$

 OpenBabel03242517183D

 31 33  0  0  0  0  0  0  0  0999 V2000
   37.2480   28.6340   40.6990 C   0  0  0  0  0  3  0  0  0  0  0  0
   36.3880   27.9970   41.4440 C   0  0  0  0  0  3  0  0  0  0  0  0
   38.1520   29.1550   38.4150 C   0  0  0  0  0  0  0  0  0  0  0  0
   37.0500   29.0260   39.3020 C   0  0  0  0  0  0  0  0  0  0  0  0
   35.7780   29.2790   38.8280 C   0  0  0  0  0  0  0  0  0  0  0  0
   35.6590   29.6430   37.5160 N   0  0  0  0  0  0  0  0  0  0  0  0
   36.6990   29.7590   36.7000 C   0  0  0  0  0  0  0  0  0  0  0  0
   37.9310   29.5170   37.1460 N   0  0  0  0  0  0  0  0  0  0  0  0
   39.1030   28.9360   38.8780 H   0  0  0  0  0  0  0  0  0  0  0  0
   34.8950   29.2030   39.4400 H   0  0  0  0  0  0  0  0  0  0  0  0
   36.6390   30.1390   35.2980 C   0  0  0  0  0  0  0  0  0  0  0  0
   36.6550   31.5150   34.7110 C   0  0  0  0  0  0  0  0  0  0  0  0
   36.7300   32.3130   35.6140 H   0  0  0  0  0  0  0  0  0  0  0  0
   36.5440   31.0850   32.8810 S   0  0  0  0  0  0  0  0  0  0  0  0
   36.5010   29.2280   33.2670 C   0  0  0  0  0  0  0  0  0  0  0  0
   36.4330   28.6620   32.3480 H   0  0  0  0  0  0  0  0  0  0  0  0
   36.5590   29.1340   34.4280 N   0  0  0  0  0  0  0  0  0  0  0  0
   36.6610   27.6300   42.8640 C   0  0  0  0  0  0  0  0  0  0  0  0
   35.7700   27.0220   43.1990 H   0  0  0  0  0  0  0  0  0  0  0  0
   36.6650   28.5230   43.5320 H   0  0  0  0  0  0  0  0  0  0  0  0
   36.6760   25.0300   41.8720 F   0  0  0  0  0  0  0  0  0  0  0  0
   37.8130   25.4800   42.4670 C   0  0  0  0  0  0  0  0  0  0  0  0
   37.8280   26.7800   42.9720 C   0  0  0  0  0  0  0  0  0  0  0  0
   39.0420   27.1030   43.5470 C   0  0  0  0  0  0  0  0  0  0  0  0
   40.1600   26.3200   43.6620 C   0  0  0  0  0  0  0  0  0  0  0  0
   40.0240   25.0410   43.1200 C   0  0  0  0  0  0  0  0  0  0  0  0
   38.8800   24.5790   42.5170 C   0  0  0  0  0  0  0  0  0  0  0  0
   39.1420   28.1050   43.9710 H   0  0  0  0  0  0  0  0  0  0  0  0
   41.0540   26.6580   44.1240 H   0  0  0  0  0  0  0  0  0  0  0  0
   40.8640   24.3460   43.1650 H   0  0  0  0  0  0  0  0  0  0  0  0
   38.7690   23.5910   42.0970 H   0  0  0  0  0  0  0  0  0  0  0  0
  1  2  2  0  0  0  0
  2 18  1  0  0  0  0
  3  9  1  0  0  0  0
  3  4  1  0  0  0  0
  4  1  1  0  0  0  0
  5  4  2  0  0  0  0
  5 10  1  0  0  0  0
  6  5  1  0  0  0  0
  7  8  1  0  0  0  0
  7  6  2  0  0  0  0
  8  3  2  0  0  0  0
 11  7  1  0  0  0  0
 12 11  2  0  0  0  0
 12 13  1  0  0  0  0
 14 15  1  0  0  0  0
 14 12  1  0  0  0  0
 15 17  2  0  0  0  0
 16 15  1  0  0  0  0
 17 11  1  0  0  0  0
 18 23  1  0  0  0  0
 18 19  1  0  0  0  0
 18 20  1  0  0  0  0
 21 22  1  0  0  0  0
 22 27  2  0  0  0  0
 22 23  1  0  0  0  0
 23 24  2  0  0  0  0
 24 25  1  0  0  0  0
 24 28  1  0  0  0  0
 25 29  1  0  0  0  0
 26 30  1  0  0  0  0
 26 25  2  0  0  0  0
 27 26  1  0  0  0  0
 31 27  1  0  0  0  0
M  END
>  <minimizedAffinity>
-4.83366728

$$$$

 OpenBabel03242517183D

 31 33  0  0  0  0  0  0  0  0999 V2000
   36.3490   28.7510   41.2170 C   0  0  0  0  0  3  0  0  0  0  0  0
   36.5580   27.9290   42.2070 C   0  0  0  0  0  3  0  0  0  0  0  0
   36.1160   27.3820   39.1250 C   0  0  0  0  0  0  0  0  0  0  0  0
   35.6570   28.4300   39.9660 C   0  0  0  0  0  0  0  0  0  0  0  0
   34.5440   29.1530   39.5870 C   0  0  0  0  0  0  0  0  0  0  0  0
   33.9440   28.8070   38.4080 N   0  0  0  0  0  0  0  0  0  0  0  0
   34.3850   27.8240   37.6330 C   0  0  0  0  0  0  0  0  0  0  0  0
   35.4590   27.1190   37.9900 N   0  0  0  0  0  0  0  0  0  0  0  0
   36.9910   26.8760   39.5070 H   0  0  0  0  0  0  0  0  0  0  0  0
   34.1380   29.9610   40.1710 H   0  0  0  0  0  0  0  0  0  0  0  0
   33.7930   27.4070   36.3730 C   0  0  0  0  0  0  0  0  0  0  0  0
   33.9170   28.0580   35.0320 C   0  0  0  0  0  0  0  0  0  0  0  0
   34.6180   29.0340   35.1460 H   0  0  0  0  0  0  0  0  0  0  0  0
   32.8590   26.8860   34.0060 S   0  0  0  0  0  0  0  0  0  0  0  0
   32.4850   25.8110   35.5240 C   0  0  0  0  0  0  0  0  0  0  0  0
   31.8470   24.9850   35.2430 H   0  0  0  0  0  0  0  0  0  0  0  0
   33.0440   26.3060   36.4200 N   0  0  0  0  0  0  0  0  0  0  0  0
   37.2730   28.3290   43.4550 C   0  0  0  0  0  0  0  0  0  0  0  0
   37.3090   27.4000   44.0960 H   0  0  0  0  0  0  0  0  0  0  0  0
   36.6890   29.0670   44.0520 H   0  0  0  0  0  0  0  0  0  0  0  0
   39.3670   26.5010   43.5970 F   0  0  0  0  0  0  0  0  0  0  0  0
   39.6740   27.7810   43.2520 C   0  0  0  0  0  0  0  0  0  0  0  0
   38.6410   28.7130   43.1750 C   0  0  0  0  0  0  0  0  0  0  0  0
   39.0950   29.9670   42.8160 C   0  0  0  0  0  0  0  0  0  0  0  0
   40.3810   30.3580   42.5460 C   0  0  0  0  0  0  0  0  0  0  0  0
   41.3260   29.3370   42.6560 C   0  0  0  0  0  0  0  0  0  0  0  0
   41.0240   28.0430   43.0030 C   0  0  0  0  0  0  0  0  0  0  0  0
   38.3510   30.7630   42.7330 H   0  0  0  0  0  0  0  0  0  0  0  0
   40.6350   31.3530   42.2760 H   0  0  0  0  0  0  0  0  0  0  0  0
   42.3770   29.5550   42.4600 H   0  0  0  0  0  0  0  0  0  0  0  0
   41.7510   27.2500   43.0910 H   0  0  0  0  0  0  0  0  0  0  0  0
  1  2  2  0  0  0  0
  2 18  1  0  0  0  0
  3  9  1  0  0  0  0
  3  4  1  0  0  0  0
  4  1  1  0  0  0  0
  5  4  2  0  0  0  0
  5 10  1  0  0  0  0
  6  5  1  0  0  0  0
  7  8  1  0  0  0  0
  7  6  2  0  0  0  0
  8  3  2  0  0  0  0
 11 17  1  0  0  0  0
 11  7  1  0  0  0  0
 12 13  1  0  0  0  0
 12 11  2  0  0  0  0
 14 12  1  0  0  0  0
 14 15  1  0  0  0  0
 15 17  2  0  0  0  0
 16 15  1  0  0  0  0
 18 20  1  0  0  0  0
 18 19  1  0  0  0  0
 22 21  1  0  0  0  0
 23 22  1  0  0  0  0
 23 18  1  0  0  0  0
 24 23  2  0  0  0  0
 25 26  2  0  0  0  0
 25 24  1  0  0  0  0
 26 27  1  0  0  0  0
 27 31  1  0  0  0  0
 27 22  2  0  0  0  0
 28 24  1  0  0  0  0
 29 25  1  0  0  0  0
 30 26  1  0  0  0  0
M  END
>  <minimizedAffinity>
-4.79537964

$$$$
