
 OpenBabel03242513143D

 28 30  0  0  0  0  0  0  0  0999 V2000
   44.7940   30.3600   47.7720 Cl  0  0  0  0  0  0  0  0  0  0  0  0
   46.1490   29.8160   46.7620 C   0  0  0  0  0  0  0  0  0  0  0  0
   47.0770   30.7160   46.3570 C   0  0  0  0  0  0  0  0  0  0  0  0
   48.1140   30.2430   45.5960 C   0  0  0  0  0  0  0  0  0  0  0  0
   48.2090   28.9150   45.2570 C   0  0  0  0  0  0  0  0  0  0  0  0
   47.2380   27.9960   45.6840 C   0  0  0  0  0  0  0  0  0  0  0  0
   46.2030   28.4850   46.4480 C   0  0  0  0  0  0  0  0  0  0  0  0
   48.9460   30.7780   45.1960 H   0  0  0  0  0  0  0  0  0  0  0  0
   48.9980   28.4510   44.6550 H   0  0  0  0  0  0  0  0  0  0  0  0
   47.3110   26.9350   45.4150 H   0  0  0  0  0  0  0  0  0  0  0  0
   45.1390   27.5730   46.9370 C   0  0  0  0  0  0  0  0  0  0  0  0
   44.0680   27.2130   46.0740 C   0  0  0  0  0  0  0  0  0  0  0  0
   43.8470   27.4850   45.0590 H   0  0  0  0  0  0  0  0  0  0  0  0
   43.0340   26.0730   47.1630 S   0  0  0  0  0  0  0  0  0  0  0  0
   44.2730   26.3190   48.5760 C   0  0  0  0  0  0  0  0  0  0  0  0
   44.2720   25.8920   49.6110 H   0  0  0  0  0  0  0  0  0  0  0  0
   45.0750   27.0330   48.1410 N   0  0  0  0  0  0  0  0  0  0  0  0
   46.9440   32.1150   46.7120 C   0  0  0  0  0  0  0  0  0  0  0  0
   47.3220   32.4360   47.8770 O   0  0  0  0  0  0  0  0  0  0  0  0
   44.8830   34.7770   45.3750 C   0  0  0  0  0  0  0  0  0  0  0  0
   45.3400   34.9900   44.0820 C   0  0  0  0  0  0  0  0  0  0  0  0
   46.3920   34.1740   43.6890 C   0  0  0  0  0  0  0  0  0  0  0  0
   46.8940   33.2480   44.5600 N   0  0  0  0  0  0  0  0  0  0  0  0
   46.4110   33.0910   45.7950 C   0  0  0  0  0  0  0  0  0  0  0  0
   45.3980   33.8680   46.1910 N   0  0  0  0  0  0  0  0  0  0  0  0
   44.0500   35.3910   45.7490 H   0  0  0  0  0  0  0  0  0  0  0  0
   44.9210   35.7310   43.4150 H   0  0  0  0  0  0  0  0  0  0  0  0
   46.7900   34.2970   42.6880 H   0  0  0  0  0  0  0  0  0  0  0  0
  2  1  1  0  0  0  0
  3 18  1  0  0  0  0
  3  2  2  0  0  0  0
  4  3  1  0  0  0  0
  5  4  2  0  0  0  0
  5  6  1  0  0  0  0
  6  7  2  0  0  0  0
  7  2  1  0  0  0  0
  7 11  1  0  0  0  0
  8  4  1  0  0  0  0
  9  5  1  0  0  0  0
 10  6  1  0  0  0  0
 11 17  1  0  0  0  0
 12 11  2  0  0  0  0
 12 14  1  0  0  0  0
 13 12  1  0  0  0  0
 14 15  1  0  0  0  0
 15 16  1  0  0  0  0
 17 15  2  0  0  0  0
 18 19  2  0  0  0  0
 20 26  1  0  0  0  0
 20 25  1  0  0  0  0
 21 20  2  0  0  0  0
 22 21  1  0  0  0  0
 22 23  2  0  0  0  0
 23 24  1  0  0  0  0
 24 25  2  0  0  0  0
 24 18  1  0  0  0  0
 27 21  1  0  0  0  0
 28 22  1  0  0  0  0
M  END
>  <minimizedAffinity>
-4.38890791

>  <minimizedRMSD>
1.94257379

$$$$
