
 OpenBabel03242511283D

 32 35  0  0  0  0  0  0  0  0999 V2000
   44.8080   33.2630   41.1560 Cl  0  0  0  0  0  0  0  0  0  0  0  0
   46.3430   34.0500   40.9790 C   0  0  0  0  0  0  0  0  0  0  0  0
   46.8700   34.7510   42.0440 C   0  0  0  0  0  0  0  0  0  0  0  0
   48.0960   35.4000   41.9530 C   0  0  0  0  0  0  0  0  0  0  0  0
   48.7460   35.2960   40.7400 C   0  0  0  0  0  0  0  0  0  0  0  0
   48.2250   34.6080   39.7000 C   0  0  0  0  0  0  0  0  0  0  0  0
   47.0110   33.9690   39.7960 C   0  0  0  0  0  0  0  0  0  0  0  0
   48.5080   35.9500   42.7930 H   0  0  0  0  0  0  0  0  0  0  0  0
   49.7010   35.8090   40.6920 H   0  0  0  0  0  0  0  0  0  0  0  0
   48.8200   34.5920   38.7960 H   0  0  0  0  0  0  0  0  0  0  0  0
   45.6130   33.9700   45.4240 C   0  0  0  0  0  0  0  0  0  0  0  0
   44.7130   35.0000   45.6520 C   0  0  0  0  0  0  0  0  0  0  0  0
   44.5280   35.9580   44.6680 C   0  0  0  0  0  0  0  0  0  0  0  0
   45.2420   35.8390   43.5230 N   0  0  0  0  0  0  0  0  0  0  0  0
   46.1270   34.8220   43.3070 C   0  0  0  0  0  0  0  0  0  0  0  0
   46.2940   33.9080   44.2630 N   0  0  0  0  0  0  0  0  0  0  0  0
   45.8080   33.1820   46.1520 H   0  0  0  0  0  0  0  0  0  0  0  0
   44.2070   34.9830   46.6000 H   0  0  0  0  0  0  0  0  0  0  0  0
   43.8320   36.7470   44.8520 H   0  0  0  0  0  0  0  0  0  0  0  0
   46.5810   33.2630   38.5810 C   0  0  0  0  0  0  0  0  0  0  0  0
   47.4620   33.1640   37.5140 C   0  0  0  0  0  0  0  0  0  0  0  0
   46.4820   32.2170   36.2620 S   0  0  0  0  0  0  0  0  0  0  0  0
   45.0190   32.1290   37.4560 C   0  0  0  0  0  0  0  0  0  0  0  0
   45.4480   32.6830   38.3210 N   0  0  0  0  0  0  0  0  0  0  0  0
   48.4890   33.5370   37.3930 H   0  0  0  0  0  0  0  0  0  0  0  0
   43.7030   31.4480   37.1380 C   0  0  0  0  0  0  0  0  0  0  0  0
   43.6580   30.4300   36.2020 C   0  0  0  0  0  0  0  0  0  0  0  0
   44.5240   30.0550   35.6460 H   0  0  0  0  0  0  0  0  0  0  0  0
   41.9380   30.0180   36.2320 S   0  0  0  0  0  0  0  0  0  0  0  0
   41.5130   31.3200   37.5450 C   0  0  0  0  0  0  0  0  0  0  0  0
   40.5290   31.5190   37.9670 H   0  0  0  0  0  0  0  0  0  0  0  0
   42.5830   31.7970   37.7320 N   0  0  0  0  0  0  0  0  0  0  0  0
  2  1  1  0  0  0  0
  2  3  1  0  0  0  0
  3 15  1  0  0  0  0
  4  3  2  0  0  0  0
  4  8  1  0  0  0  0
  5  4  1  0  0  0  0
  6  7  1  0  0  0  0
  6  5  2  0  0  0  0
  7  2  2  0  0  0  0
  9  5  1  0  0  0  0
 10  6  1  0  0  0  0
 11 12  1  0  0  0  0
 11 17  1  0  0  0  0
 12 18  1  0  0  0  0
 13 19  1  0  0  0  0
 13 12  2  0  0  0  0
 14 13  1  0  0  0  0
 15 14  2  0  0  0  0
 15 16  1  0  0  0  0
 16 11  2  0  0  0  0
 20  7  1  0  0  0  0
 21 20  2  0  0  0  0
 22 23  1  0  0  0  0
 22 21  1  0  0  0  0
 23 24  2  0  0  0  0
 24 20  1  0  0  0  0
 25 21  1  0  0  0  0
 26 23  1  0  0  0  0
 26 32  1  0  0  0  0
 27 29  1  0  0  0  0
 27 26  2  0  0  0  0
 28 27  1  0  0  0  0
 29 30  1  0  0  0  0
 30 32  2  0  0  0  0
 30 31  1  0  0  0  0
M  END
>  <minimizedAffinity>
-5.86079788

>  <minimizedRMSD>
1.56576908

$$$$
