
 OpenBabel03252506563D

 36 40  0  0  0  0  0  0  0  0999 V2000
   47.2070   31.3350   45.1440 C   0  0  0  0  0  0  0  0  0  0  0  0
   46.8770   32.6790   45.1290 C   0  0  0  0  0  0  0  0  0  0  0  0
   46.2870   33.3100   46.1960 C   0  0  0  0  0  0  0  0  0  0  0  0
   45.9950   32.6070   47.3540 C   0  0  0  0  0  0  0  0  0  0  0  0
   45.4340   32.8850   48.5650 N   0  0  0  0  0  0  0  0  0  0  0  0
   45.4180   31.7450   49.3080 C   0  0  0  0  0  0  0  0  0  0  0  0
   45.9700   30.7790   48.5410 N   0  0  0  0  0  0  0  0  0  0  0  0
   46.3320   31.2760   47.3420 C   0  0  0  0  0  0  0  0  0  0  0  0
   46.9160   30.6060   46.3120 C   0  0  0  0  0  0  0  0  0  0  0  0
   47.6710   30.8470   44.2980 H   0  0  0  0  0  0  0  0  0  0  0  0
   46.0340   34.3630   46.1710 H   0  0  0  0  0  0  0  0  0  0  0  0
   45.0880   33.8420   48.8280 H   0  0  0  0  0  0  0  0  0  0  0  0
   45.0230   31.6690   50.3260 H   0  0  0  0  0  0  0  0  0  0  0  0
   46.5790   35.1440   42.4130 C   0  0  0  0  0  0  0  0  0  0  0  0
   47.7350   34.9350   41.6780 C   0  0  0  0  0  0  0  0  0  0  0  0
   48.6210   33.9430   42.1160 C   0  0  0  0  0  0  0  0  0  0  0  0
   48.3030   33.2360   43.2420 N   0  0  0  0  0  0  0  0  0  0  0  0
   47.1640   33.4680   43.9330 C   0  0  0  0  0  0  0  0  0  0  0  0
   46.3050   34.4160   43.5230 N   0  0  0  0  0  0  0  0  0  0  0  0
   45.8750   35.9100   42.0890 H   0  0  0  0  0  0  0  0  0  0  0  0
   47.9320   35.5310   40.7900 H   0  0  0  0  0  0  0  0  0  0  0  0
   49.5350   33.7530   41.5660 H   0  0  0  0  0  0  0  0  0  0  0  0
   47.2370   29.1800   46.4010 C   0  0  0  0  0  0  0  0  0  0  0  0
   48.5020   28.6550   46.3220 C   0  0  0  0  0  0  0  0  0  0  0  0
   48.2870   27.2730   46.4580 C   0  0  0  0  0  0  0  0  0  0  0  0
   46.9240   27.0390   46.6070 C   0  0  0  0  0  0  0  0  0  0  0  0
   46.3710   28.2320   46.5610 O   0  0  0  0  0  0  0  0  0  0  0  0
   49.4210   29.1720   46.1920 H   0  0  0  0  0  0  0  0  0  0  0  0
   49.0600   26.5230   46.4460 H   0  0  0  0  0  0  0  0  0  0  0  0
   46.2380   25.7420   46.7810 C   0  0  0  0  0  0  0  0  0  0  0  0
   47.0630   24.4960   46.7240 C   0  0  0  0  0  0  0  0  0  0  0  0
   48.0860   24.4550   46.5720 H   0  0  0  0  0  0  0  0  0  0  0  0
   45.6730   23.2460   47.0020 S   0  0  0  0  0  0  0  0  0  0  0  0
   44.3480   24.5950   47.1290 C   0  0  0  0  0  0  0  0  0  0  0  0
   43.3110   24.3530   47.2990 H   0  0  0  0  0  0  0  0  0  0  0  0
   44.9420   25.6520   46.9820 N   0  0  0  0  0  0  0  0  0  0  0  0
  1  9  1  0  0  0  0
  2  1  2  0  0  0  0
  2  3  1  0  0  0  0
  3  4  2  0  0  0  0
  4  5  1  0  0  0  0
  5 12  1  0  0  0  0
  5  6  1  0  0  0  0
  6 13  1  0  0  0  0
  7  6  2  0  0  0  0
  8  4  1  0  0  0  0
  8  7  1  0  0  0  0
  9 23  1  0  0  0  0
  9  8  2  0  0  0  0
 10  1  1  0  0  0  0
 11  3  1  0  0  0  0
 14 19  1  0  0  0  0
 15 16  1  0  0  0  0
 15 14  2  0  0  0  0
 16 17  2  0  0  0  0
 17 18  1  0  0  0  0
 18  2  1  0  0  0  0
 19 18  2  0  0  0  0
 20 14  1  0  0  0  0
 21 15  1  0  0  0  0
 22 16  1  0  0  0  0
 23 27  1  0  0  0  0
 24 23  2  0  0  0  0
 24 25  1  0  0  0  0
 25 26  2  0  0  0  0
 26 30  1  0  0  0  0
 27 26  1  0  0  0  0
 28 24  1  0  0  0  0
 29 25  1  0  0  0  0
 30 36  1  0  0  0  0
 31 30  2  0  0  0  0
 31 33  1  0  0  0  0
 32 31  1  0  0  0  0
 33 34  1  0  0  0  0
 34 35  1  0  0  0  0
 36 34  2  0  0  0  0
M  END
>  <minimizedAffinity>
-5.48593569

>  <minimizedRMSD>
0.43058604

$$$$
