
 OpenBabel03252504423D

 43 46  0  0  0  0  0  0  0  0999 V2000
   46.3570   32.1950   47.8400 C   0  0  0  0  0  0  0  0  0  0  0  0
   45.8870   31.7580   49.0480 C   0  0  0  0  0  0  0  0  0  0  0  0
   46.8950   31.0870   49.6190 N   0  0  0  0  0  0  0  0  0  0  0  0
   47.9750   31.0830   48.8280 C   0  0  0  0  0  0  0  0  0  0  0  0
   47.6190   31.7860   47.7120 N   0  0  0  0  0  0  0  0  0  0  0  0
   49.2590   30.5130   48.9960 N   0  0  0  0  0  0  0  0  0  0  0  0
   50.2840   31.3120   49.6900 C   0  0  0  0  0  0  0  0  0  0  0  0
   50.3840   30.6900   51.0800 C   0  0  0  0  0  0  0  0  0  0  0  0
   50.5070   29.1910   50.9740 C   0  0  0  0  0  0  0  0  0  0  0  0
   50.8850   28.8010   49.5610 C   0  0  0  0  0  0  0  0  0  0  0  0
   49.8090   29.2380   48.6080 C   0  0  0  0  0  0  0  0  0  0  0  0
   44.9010   31.9080   49.4830 H   0  0  0  0  0  0  0  0  0  0  0  0
   46.8730   30.6190   50.5530 H   0  0  0  0  0  0  0  0  0  0  0  0
   51.2480   31.2840   49.1700 H   0  0  0  0  0  0  0  0  0  0  0  0
   49.9560   32.3690   49.8010 H   0  0  0  0  0  0  0  0  0  0  0  0
   49.5700   31.0300   51.7280 H   0  0  0  0  0  0  0  0  0  0  0  0
   51.3230   31.0350   51.5710 H   0  0  0  0  0  0  0  0  0  0  0  0
   49.5730   28.6740   51.3100 H   0  0  0  0  0  0  0  0  0  0  0  0
   51.3210   28.7710   51.6290 H   0  0  0  0  0  0  0  0  0  0  0  0
   51.0330   27.6880   49.5380 H   0  0  0  0  0  0  0  0  0  0  0  0
   51.8600   29.2560   49.3440 H   0  0  0  0  0  0  0  0  0  0  0  0
   50.1590   29.2340   47.5680 H   0  0  0  0  0  0  0  0  0  0  0  0
   48.9750   28.4890   48.7330 H   0  0  0  0  0  0  0  0  0  0  0  0
   45.6010   32.9980   46.8270 C   0  0  0  0  0  0  0  0  0  0  0  0
   45.2920   33.9860   47.2280 H   0  0  0  0  0  0  0  0  0  0  0  0
   44.6540   32.4270   46.6540 H   0  0  0  0  0  0  0  0  0  0  0  0
   45.9660   33.9200   44.5800 C   0  0  0  0  0  3  0  0  0  0  0  0
   46.3900   33.1870   45.6020 C   0  0  0  0  0  3  0  0  0  0  0  0
   46.8550   34.0270   43.4150 C   0  0  0  0  0  0  0  0  0  0  0  0
   46.7470   35.0520   42.4490 C   0  0  0  0  0  0  0  0  0  0  0  0
   47.6260   35.0700   41.3940 C   0  0  0  0  0  0  0  0  0  0  0  0
   48.5690   34.1100   41.3070 N   0  0  0  0  0  0  0  0  0  0  0  0
   48.6590   33.1370   42.2370 C   0  0  0  0  0  0  0  0  0  0  0  0
   47.8300   33.0880   43.2650 N   0  0  0  0  0  0  0  0  0  0  0  0
   45.9650   35.7800   42.5970 H   0  0  0  0  0  0  0  0  0  0  0  0
   47.5600   35.8470   40.6460 H   0  0  0  0  0  0  0  0  0  0  0  0
   49.6640   32.0490   42.2090 C   0  0  0  0  0  0  0  0  0  0  0  0
   49.7470   30.7380   42.9490 C   0  0  0  0  0  0  0  0  0  0  0  0
   48.7360   30.7560   43.6310 H   0  0  0  0  0  0  0  0  0  0  0  0
   51.3760   30.1270   42.2050 S   0  0  0  0  0  0  0  0  0  0  0  0
   51.5820   31.6690   41.1260 C   0  0  0  0  0  0  0  0  0  0  0  0
   52.5030   31.5150   40.5900 H   0  0  0  0  0  0  0  0  0  0  0  0
   50.5880   32.4460   41.3360 N   0  0  0  0  0  0  0  0  0  0  0  0
  1  2  2  0  0  0  0
  2 12  1  0  0  0  0
  2  3  1  0  0  0  0
  3 13  1  0  0  0  0
  4  6  1  0  0  0  0
  4  3  1  0  0  0  0
  5  1  1  0  0  0  0
  5  4  2  0  0  0  0
  6  7  1  0  0  0  0
  7 15  1  0  0  0  0
  7  8  1  0  0  0  0
  8 17  1  0  0  0  0
  8 16  1  0  0  0  0
  9  8  1  0  0  0  0
  9 18  1  0  0  0  0
  9 19  1  0  0  0  0
 10  9  1  0  0  0  0
 11 23  1  0  0  0  0
 11  6  1  0  0  0  0
 11 10  1  0  0  0  0
 14  7  1  0  0  0  0
 20 10  1  0  0  0  0
 21 10  1  0  0  0  0
 22 11  1  0  0  0  0
 24 25  1  0  0  0  0
 24  1  1  0  0  0  0
 26 24  1  0  0  0  0
 27 28  2  0  0  0  0
 28 24  1  0  0  0  0
 29 27  1  0  0  0  0
 30 35  1  0  0  0  0
 30 29  2  0  0  0  0
 31 30  1  0  0  0  0
 32 31  2  0  0  0  0
 32 33  1  0  0  0  0
 33 34  2  0  0  0  0
 34 29  1  0  0  0  0
 36 31  1  0  0  0  0
 37 33  1  0  0  0  0
 37 38  2  0  0  0  0
 38 39  1  0  0  0  0
 40 38  1  0  0  0  0
 41 43  2  0  0  0  0
 41 40  1  0  0  0  0
 42 41  1  0  0  0  0
 43 37  1  0  0  0  0
M  END
>  <minimizedAffinity>
-5.8952322

>  <minimizedRMSD>
0.484474659

$$$$
