
 OpenBabel03252509113D

 29 32  0  0  0  0  0  0  0  0999 V2000
   45.4380   29.7010   45.1790 C   0  0  0  0  0  0  0  0  0  0  0  0
   45.5150   30.8550   44.4150 C   0  0  0  0  0  0  0  0  0  0  0  0
   46.0530   32.0240   44.9020 C   0  0  0  0  0  0  0  0  0  0  0  0
   46.5470   32.0880   46.2050 C   0  0  0  0  0  0  0  0  0  0  0  0
   47.1240   33.0380   46.9830 N   0  0  0  0  0  0  0  0  0  0  0  0
   47.4000   32.5010   48.1960 C   0  0  0  0  0  0  0  0  0  0  0  0
   46.9820   31.2030   48.1450 N   0  0  0  0  0  0  0  0  0  0  0  0
   46.4580   30.9320   46.9390 C   0  0  0  0  0  0  0  0  0  0  0  0
   45.9300   29.7470   46.4890 C   0  0  0  0  0  0  0  0  0  0  0  0
   45.0020   28.8060   44.7370 H   0  0  0  0  0  0  0  0  0  0  0  0
   47.2930   34.0070   46.6280 H   0  0  0  0  0  0  0  0  0  0  0  0
   47.8640   33.1000   48.9650 H   0  0  0  0  0  0  0  0  0  0  0  0
   45.8710   28.8460   47.0870 H   0  0  0  0  0  0  0  0  0  0  0  0
   43.2790   31.2780   41.5320 C   0  0  0  0  0  0  0  0  0  0  0  0
   44.0670   30.7710   40.4730 C   0  0  0  0  0  0  0  0  0  0  0  0
   45.3660   30.2850   40.7580 C   0  0  0  0  0  0  0  0  0  0  0  0
   45.7690   30.3440   42.0660 N   0  0  0  0  0  0  0  0  0  0  0  0
   45.0110   30.8280   43.0530 C   0  0  0  0  0  0  0  0  0  0  0  0
   43.7720   31.2920   42.7850 N   0  0  0  0  0  0  0  0  0  0  0  0
   42.2830   31.6590   41.3600 H   0  0  0  0  0  0  0  0  0  0  0  0
   43.6770   30.7580   39.4690 H   0  0  0  0  0  0  0  0  0  0  0  0
   45.9860   29.8940   39.9810 H   0  0  0  0  0  0  0  0  0  0  0  0
   46.1420   33.2570   44.1060 C   0  0  0  0  0  0  0  0  0  0  0  0
   47.1000   33.4930   43.1170 C   0  0  0  0  0  0  0  0  0  0  0  0
   47.8580   32.7530   42.8710 H   0  0  0  0  0  0  0  0  0  0  0  0
   46.6850   35.1480   42.5240 S   0  0  0  0  0  0  0  0  0  0  0  0
   45.2220   35.2610   43.7600 C   0  0  0  0  0  0  0  0  0  0  0  0
   44.4570   36.1140   43.9450 H   0  0  0  0  0  0  0  0  0  0  0  0
   45.2270   34.1560   44.3970 N   0  0  0  0  0  0  0  0  0  0  0  0
  1  9  1  0  0  0  0
  2  3  1  0  0  0  0
  2  1  2  0  0  0  0
  3  4  2  0  0  0  0
  4  8  1  0  0  0  0
  4  5  1  0  0  0  0
  5  6  1  0  0  0  0
  6 12  1  0  0  0  0
  7  6  2  0  0  0  0
  8  7  1  0  0  0  0
  9  8  2  0  0  0  0
  9 13  1  0  0  0  0
 10  1  1  0  0  0  0
 11  5  1  0  0  0  0
 14 19  1  0  0  0  0
 15 16  1  0  0  0  0
 15 14  2  0  0  0  0
 16 17  2  0  0  0  0
 17 18  1  0  0  0  0
 18  2  1  0  0  0  0
 19 18  2  0  0  0  0
 20 14  1  0  0  0  0
 21 15  1  0  0  0  0
 22 16  1  0  0  0  0
 23 29  1  0  0  0  0
 23  3  1  0  0  0  0
 24 23  2  0  0  0  0
 25 24  1  0  0  0  0
 26 24  1  0  0  0  0
 26 27  1  0  0  0  0
 27 28  1  0  0  0  0
 27 29  2  0  0  0  0
M  END
>  <minimizedAffinity>
-4.02020788

>  <minimizedRMSD>
3.32247949

$$$$
