
 OpenBabel03252505043D

 32 34  0  0  1  0  0  0  0  0999 V2000
   46.4440   32.9480   46.4510 C   0  0  2  0  0  0  0  0  0  0  0  0
   46.9670   31.7320   45.7660 C   0  0  0  0  0  0  0  0  0  0  0  0
   46.0980   30.5420   45.7950 C   0  0  0  0  0  0  0  0  0  0  0  0
   45.7960   30.2840   47.2630 C   0  0  0  0  0  0  0  0  0  0  0  0
   44.9980   31.3600   47.8790 C   0  0  0  0  0  0  0  0  0  0  0  0
   45.3750   32.7450   47.4200 C   0  0  0  0  0  0  0  0  0  0  0  0
   47.2890   33.4680   46.9570 H   0  0  0  0  0  0  0  0  0  0  0  0
   47.2400   31.9290   44.6970 H   0  0  0  0  0  0  0  0  0  0  0  0
   47.9380   31.4480   46.2400 H   0  0  0  0  0  0  0  0  0  0  0  0
   45.1470   30.6970   45.2820 H   0  0  0  0  0  0  0  0  0  0  0  0
   46.6740   29.6670   45.4470 H   0  0  0  0  0  0  0  0  0  0  0  0
   45.0990   29.4090   47.2430 H   0  0  0  0  0  0  0  0  0  0  0  0
   46.6830   30.0570   47.8550 H   0  0  0  0  0  0  0  0  0  0  0  0
   44.2070   31.3500   48.5850 H   0  0  0  0  0  0  0  0  0  0  0  0
   44.5780   35.5510   44.5900 C   0  0  0  0  0  0  0  0  0  0  0  0
   45.2790   35.5960   43.3600 C   0  0  0  0  0  0  0  0  0  0  0  0
   46.3800   34.7220   43.2000 C   0  0  0  0  0  0  0  0  0  0  0  0
   46.6950   33.9000   44.2290 N   0  0  0  0  0  0  0  0  0  0  0  0
   46.0140   33.8820   45.3740 C   0  0  0  0  0  0  0  0  0  0  0  0
   44.9440   34.7100   45.5700 N   0  0  0  0  0  0  0  0  0  0  0  0
   43.7430   36.2330   44.6760 H   0  0  0  0  0  0  0  0  0  0  0  0
   45.0450   36.2370   42.5410 H   0  0  0  0  0  0  0  0  0  0  0  0
   47.1450   34.7220   41.9500 C   0  0  0  0  0  0  0  0  0  0  0  0
   46.7460   33.8730   40.8580 C   0  0  0  0  0  0  0  0  0  0  0  0
   45.8540   33.1670   40.8620 H   0  0  0  0  0  0  0  0  0  0  0  0
   47.9940   34.2490   39.5900 S   0  0  0  0  0  0  0  0  0  0  0  0
   48.8590   35.4940   40.7350 C   0  0  0  0  0  0  0  0  0  0  0  0
   49.7600   36.1010   40.5150 H   0  0  0  0  0  0  0  0  0  0  0  0
   48.2150   35.4510   41.7030 N   0  0  0  0  0  0  0  0  0  0  0  0
   44.6800   33.8780   47.9310 N   0  0  0  0  0  0  0  0  0  0  0  0
   43.7300   33.8040   47.5020 H   0  0  0  0  0  0  0  0  0  0  0  0
   45.1140   34.5660   48.5820 H   0  0  0  0  0  0  0  0  0  0  0  0
  1  7  1  1  0  0  0
  1  6  1  0  0  0  0
  2  3  1  0  0  0  0
  2  9  1  0  0  0  0
  2  1  1  0  0  0  0
  3  4  1  0  0  0  0
  4 13  1  0  0  0  0
  4  5  1  0  0  0  0
  5 14  1  0  0  0  0
  6  5  2  0  0  0  0
  6 30  1  0  0  0  0
  8  2  1  0  0  0  0
 10  3  1  0  0  0  0
 11  3  1  0  0  0  0
 12  4  1  0  0  0  0
 15 21  1  0  0  0  0
 15 20  1  0  0  0  0
 16 15  2  0  0  0  0
 17 16  1  0  0  0  0
 17 18  2  0  0  0  0
 18 19  1  0  0  0  0
 19 20  2  0  0  0  0
 19  1  1  0  0  0  0
 22 16  1  0  0  0  0
 23 17  1  0  0  0  0
 24 25  1  0  0  0  0
 24 23  2  0  0  0  0
 26 27  1  0  0  0  0
 26 24  1  0  0  0  0
 27 29  2  0  0  0  0
 28 27  1  0  0  0  0
 29 23  1  0  0  0  0
 30 32  1  0  0  0  0
 31 30  1  0  0  0  0
M  END
>  <minimizedAffinity>
-6.11387873

>  <minimizedRMSD>
0.947556674

$$$$
