
 OpenBabel03252508383D

 39 42  0  0  0  0  0  0  0  0999 V2000
   45.1590   33.9520   40.6970 C   0  0  0  0  0  0  0  0  0  0  0  0
   44.1060   33.6320   39.8780 C   0  0  0  0  0  0  0  0  0  0  0  0
   44.4040   33.1420   38.6380 C   0  0  0  0  0  0  0  0  0  0  0  0
   45.6840   32.9580   38.1800 C   0  0  0  0  0  0  0  0  0  0  0  0
   46.7100   33.2880   39.0260 C   0  0  0  0  0  0  0  0  0  0  0  0
   46.4740   33.7840   40.2790 C   0  0  0  0  0  0  0  0  0  0  0  0
   43.5780   32.8860   37.9820 H   0  0  0  0  0  0  0  0  0  0  0  0
   45.8920   32.5700   37.1980 H   0  0  0  0  0  0  0  0  0  0  0  0
   47.7220   33.1430   38.6660 H   0  0  0  0  0  0  0  0  0  0  0  0
   40.8180   35.2570   40.7950 C   0  0  0  0  0  0  0  0  0  0  0  0
   42.1180   35.0890   40.2710 C   0  0  0  0  0  0  0  0  0  0  0  0
   42.7710   33.8430   40.4020 C   0  0  0  0  0  0  0  0  0  0  0  0
   42.0650   32.8860   41.0420 N   0  0  0  0  0  0  0  0  0  0  0  0
   40.8330   33.0730   41.5270 C   0  0  0  0  0  0  0  0  0  0  0  0
   40.2170   34.2480   41.4040 N   0  0  0  0  0  0  0  0  0  0  0  0
   40.2190   36.5320   40.6300 N   0  0  0  0  0  0  0  0  0  0  0  0
   42.6450   35.8730   39.7720 H   0  0  0  0  0  0  0  0  0  0  0  0
   40.4280   32.2010   42.0020 H   0  0  0  0  0  0  0  0  0  0  0  0
   40.3970   37.1280   39.7900 H   0  0  0  0  0  0  0  0  0  0  0  0
   39.5890   36.8120   41.4230 H   0  0  0  0  0  0  0  0  0  0  0  0
   47.6230   34.1020   41.0980 C   0  0  0  0  0  0  0  0  0  0  0  0
   48.1350   35.3670   40.9480 C   0  0  0  0  0  0  0  0  0  0  0  0
   49.2400   35.8570   41.6520 C   0  0  0  0  0  0  0  0  0  0  0  0
   49.8440   35.0040   42.5500 C   0  0  0  0  0  0  0  0  0  0  0  0
   49.3540   33.7370   42.7200 C   0  0  0  0  0  0  0  0  0  0  0  0
   48.2580   33.2850   42.0070 C   0  0  0  0  0  0  0  0  0  0  0  0
   47.7030   36.0830   40.2550 H   0  0  0  0  0  0  0  0  0  0  0  0
   49.6130   36.8610   41.5040 H   0  0  0  0  0  0  0  0  0  0  0  0
   50.7040   35.2930   43.1390 H   0  0  0  0  0  0  0  0  0  0  0  0
   49.7520   32.9830   43.4020 H   0  0  0  0  0  0  0  0  0  0  0  0
   47.6900   31.9230   42.1530 C   0  0  0  0  0  0  0  0  0  0  0  0
   46.8370   31.5910   43.1200 C   0  0  0  0  0  0  0  0  0  0  0  0
   46.3720   32.1080   43.9490 H   0  0  0  0  0  0  0  0  0  0  0  0
   46.5200   29.8300   42.7660 S   0  0  0  0  0  0  0  0  0  0  0  0
   47.6910   29.8780   41.2620 C   0  0  0  0  0  0  0  0  0  0  0  0
   47.8790   29.0070   40.6390 H   0  0  0  0  0  0  0  0  0  0  0  0
   48.0020   30.9530   41.3250 N   0  0  0  0  0  0  0  0  0  0  0  0
   44.7500   34.8940   43.0980 N   0  0  0  0  0  0  0  0  0  0  0  0
   44.9300   34.4780   42.0240 C   0  0  0  0  0  0  0  0  0  0  0  0
  1 39  1  0  0  0  0
  2 12  1  0  0  0  0
  2  1  2  0  0  0  0
  3  2  1  0  0  0  0
  4  3  2  0  0  0  0
  4  5  1  0  0  0  0
  5  6  2  0  0  0  0
  6  1  1  0  0  0  0
  6 21  1  0  0  0  0
  7  3  1  0  0  0  0
  8  4  1  0  0  0  0
  9  5  1  0  0  0  0
 10 15  1  0  0  0  0
 11 12  1  0  0  0  0
 11 10  2  0  0  0  0
 12 13  2  0  0  0  0
 13 14  1  0  0  0  0
 14 18  1  0  0  0  0
 15 14  2  0  0  0  0
 16 10  1  0  0  0  0
 16 20  1  0  0  0  0
 17 11  1  0  0  0  0
 19 16  1  0  0  0  0
 21 26  1  0  0  0  0
 22 21  2  0  0  0  0
 22 23  1  0  0  0  0
 23 24  2  0  0  0  0
 24 25  1  0  0  0  0
 24 29  1  0  0  0  0
 25 30  1  0  0  0  0
 26 31  1  0  0  0  0
 26 25  2  0  0  0  0
 27 22  1  0  0  0  0
 28 23  1  0  0  0  0
 31 32  2  0  0  0  0
 32 33  1  0  0  0  0
 34 32  1  0  0  0  0
 35 37  2  0  0  0  0
 35 34  1  0  0  0  0
 36 35  1  0  0  0  0
 37 31  1  0  0  0  0
 39 38  3  0  0  0  0
M  END
>  <minimizedAffinity>
-5.91631746

>  <minimizedRMSD>
0.350091577

$$$$
