
 OpenBabel03252502083D

 46 50  0  0  0  0  0  0  0  0999 V2000
   47.4420   32.0740   47.8760 C   0  0  0  0  0  0  0  0  0  0  0  0
   46.9360   30.7700   47.8730 C   0  0  0  0  0  0  0  0  0  0  0  0
   45.9860   30.4820   46.9400 C   0  0  0  0  0  0  0  0  0  0  0  0
   45.5830   31.4200   46.0800 N   0  0  0  0  0  0  0  0  0  0  0  0
   46.0460   32.6510   46.0610 C   0  0  0  0  0  0  0  0  0  0  0  0
   46.9870   32.9630   46.9810 N   0  0  0  0  0  0  0  0  0  0  0  0
   45.4280   29.2260   46.8950 N   0  0  0  0  0  0  0  0  0  0  0  0
   44.2610   28.8480   46.0550 C   0  0  0  0  0  0  0  0  0  0  0  0
   44.1900   27.3500   46.0900 C   0  0  0  0  0  0  0  0  0  0  0  0
   44.8260   27.0040   47.3840 C   0  0  0  0  0  0  0  0  0  0  0  0
   45.8380   28.0640   47.6340 C   0  0  0  0  0  0  0  0  0  0  0  0
   48.2020   32.3560   48.6050 H   0  0  0  0  0  0  0  0  0  0  0  0
   44.3690   29.2670   45.0340 H   0  0  0  0  0  0  0  0  0  0  0  0
   43.3650   29.2670   46.5750 H   0  0  0  0  0  0  0  0  0  0  0  0
   44.6290   26.8670   45.2120 H   0  0  0  0  0  0  0  0  0  0  0  0
   43.1180   27.0310   46.1500 H   0  0  0  0  0  0  0  0  0  0  0  0
   45.3900   26.0460   47.2400 H   0  0  0  0  0  0  0  0  0  0  0  0
   44.1210   26.8050   48.2060 H   0  0  0  0  0  0  0  0  0  0  0  0
   46.8420   27.7850   47.2880 H   0  0  0  0  0  0  0  0  0  0  0  0
   45.7890   28.2260   48.7360 H   0  0  0  0  0  0  0  0  0  0  0  0
   45.7620   33.8170   45.1790 C   0  0  0  0  0  0  0  0  0  0  0  0
   44.8340   34.7370   45.4450 N   0  0  0  0  0  0  0  0  0  0  0  0
   44.5580   35.7890   44.6860 C   0  0  0  0  0  0  0  0  0  0  0  0
   45.2500   35.9870   43.5390 N   0  0  0  0  0  0  0  0  0  0  0  0
   46.2130   35.1260   43.1610 C   0  0  0  0  0  0  0  0  0  0  0  0
   46.9100   35.3310   41.9950 C   0  0  0  0  0  0  0  0  0  0  0  0
   47.8840   34.4730   41.5960 C   0  0  0  0  0  0  0  0  0  0  0  0
   48.1600   33.3710   42.4020 C   0  0  0  0  0  0  0  0  0  0  0  0
   47.4170   33.2220   43.5730 C   0  0  0  0  0  0  0  0  0  0  0  0
   46.4460   34.0580   43.9930 C   0  0  0  0  0  0  0  0  0  0  0  0
   43.7950   36.5120   44.9420 H   0  0  0  0  0  0  0  0  0  0  0  0
   46.6400   36.2070   41.4210 H   0  0  0  0  0  0  0  0  0  0  0  0
   48.3940   34.6870   40.6740 H   0  0  0  0  0  0  0  0  0  0  0  0
   49.2200   32.4250   41.9790 C   0  0  0  0  0  0  0  0  0  0  0  0
   50.5550   32.7870   41.9790 C   0  0  0  0  0  0  0  0  0  0  0  0
   51.0250   33.7460   42.2660 H   0  0  0  0  0  0  0  0  0  0  0  0
   51.3710   31.2290   41.3670 S   0  0  0  0  0  0  0  0  0  0  0  0
   49.6910   30.3590   41.2240 C   0  0  0  0  0  0  0  0  0  0  0  0
   49.4990   29.3370   40.8910 H   0  0  0  0  0  0  0  0  0  0  0  0
   48.9500   31.1850   41.5770 N   0  0  0  0  0  0  0  0  0  0  0  0
   47.8270   32.0540   44.2860 N   0  0  0  0  0  0  0  0  0  0  0  0
   47.2290   31.3050   43.8320 H   0  0  0  0  0  0  0  0  0  0  0  0
   48.5090   31.8560   45.0450 H   0  0  0  0  0  0  0  0  0  0  0  0
   47.4590   29.8820   48.7760 N   0  0  0  0  0  0  0  0  0  0  0  0
   48.1940   29.1440   48.7050 H   0  0  0  0  0  0  0  0  0  0  0  0
   46.9140   30.1190   49.6580 H   0  0  0  0  0  0  0  0  0  0  0  0
  1 12  1  0  0  0  0
  2  1  1  0  0  0  0
  2 44  1  0  0  0  0
  3  2  2  0  0  0  0
  4  3  1  0  0  0  0
  5  4  2  0  0  0  0
  5  6  1  0  0  0  0
  6  1  2  0  0  0  0
  7  3  1  0  0  0  0
  7 11  1  0  0  0  0
  8  9  1  0  0  0  0
  8 14  1  0  0  0  0
  8  7  1  0  0  0  0
  9 16  1  0  0  0  0
  9 10  1  0  0  0  0
 10 11  1  0  0  0  0
 10 18  1  0  0  0  0
 11 20  1  0  0  0  0
 13  8  1  0  0  0  0
 15  9  1  0  0  0  0
 17 10  1  0  0  0  0
 19 11  1  0  0  0  0
 21 22  1  0  0  0  0
 21  5  1  0  0  0  0
 23 31  1  0  0  0  0
 23 22  2  0  0  0  0
 24 23  1  0  0  0  0
 25 24  2  0  0  0  0
 25 30  1  0  0  0  0
 26 25  1  0  0  0  0
 27 26  2  0  0  0  0
 27 28  1  0  0  0  0
 28 29  2  0  0  0  0
 29 30  1  0  0  0  0
 29 41  1  0  0  0  0
 30 21  2  0  0  0  0
 32 26  1  0  0  0  0
 33 27  1  0  0  0  0
 34 28  1  0  0  0  0
 35 34  2  0  0  0  0
 35 36  1  0  0  0  0
 37 35  1  0  0  0  0
 38 37  1  0  0  0  0
 38 40  2  0  0  0  0
 39 38  1  0  0  0  0
 40 34  1  0  0  0  0
 41 43  1  0  0  0  0
 42 41  1  0  0  0  0
 44 46  1  0  0  0  0
 45 44  1  0  0  0  0
M  END
>  <minimizedAffinity>
-6.81013918

>  <minimizedRMSD>
0.290397793

$$$$
