
 OpenBabel03252505193D

 32 35  0  0  0  0  0  0  0  0999 V2000
   45.0730   35.0370   44.4430 C   0  0  0  0  0  0  0  0  0  0  0  0
   46.0630   34.9130   43.4420 C   0  0  0  0  0  0  0  0  0  0  0  0
   47.0580   33.9950   43.6880 C   0  0  0  0  0  0  0  0  0  0  0  0
   47.0660   33.2600   44.8430 N   0  0  0  0  0  0  0  0  0  0  0  0
   46.0850   33.4120   45.7910 C   0  0  0  0  0  0  0  0  0  0  0  0
   45.1020   34.2950   45.5820 N   0  0  0  0  0  0  0  0  0  0  0  0
   44.2950   35.7640   44.2360 H   0  0  0  0  0  0  0  0  0  0  0  0
   46.0540   35.4860   42.5470 H   0  0  0  0  0  0  0  0  0  0  0  0
   46.1380   32.6020   47.0040 C   0  0  0  0  0  0  0  0  0  0  0  0
   45.0160   32.4950   47.7810 C   0  0  0  0  0  0  0  0  0  0  0  0
   45.0420   31.7400   48.9300 C   0  0  0  0  0  0  0  0  0  0  0  0
   46.2230   31.1060   49.2600 C   0  0  0  0  0  0  0  0  0  0  0  0
   47.3500   31.2410   48.4380 C   0  0  0  0  0  0  0  0  0  0  0  0
   47.2830   31.9930   47.3160 N   0  0  0  0  0  0  0  0  0  0  0  0
   44.1030   33.0010   47.4990 H   0  0  0  0  0  0  0  0  0  0  0  0
   44.1690   31.6440   49.5530 H   0  0  0  0  0  0  0  0  0  0  0  0
   46.2930   30.5010   50.1530 H   0  0  0  0  0  0  0  0  0  0  0  0
   48.6130   30.5580   48.8010 C   0  0  0  0  0  0  0  0  0  0  0  0
   49.3150   29.7720   47.8200 C   0  0  0  0  0  0  0  0  0  0  0  0
   49.0420   29.6000   46.8150 H   0  0  0  0  0  0  0  0  0  0  0  0
   50.7450   29.1770   48.7490 S   0  0  0  0  0  0  0  0  0  0  0  0
   50.1790   30.0810   50.3230 C   0  0  0  0  0  0  0  0  0  0  0  0
   50.6220   30.1520   51.3510 H   0  0  0  0  0  0  0  0  0  0  0  0
   49.1580   30.6210   49.9940 N   0  0  0  0  0  0  0  0  0  0  0  0
   48.1320   33.7720   42.6690 C   0  0  0  0  0  0  0  0  0  0  0  0
   48.1250   34.8180   41.5590 C   0  0  0  0  0  0  0  0  0  0  0  0
   49.2580   34.6720   42.6290 C   0  0  0  0  0  0  0  0  0  0  0  0
   48.0880   32.7510   42.2260 H   0  0  0  0  0  0  0  0  0  0  0  0
   47.4970   35.7090   41.6770 H   0  0  0  0  0  0  0  0  0  0  0  0
   48.3920   34.5280   40.5400 H   0  0  0  0  0  0  0  0  0  0  0  0
   50.2390   34.3180   42.1950 H   0  0  0  0  0  0  0  0  0  0  0  0
   49.3430   35.4670   43.3660 H   0  0  0  0  0  0  0  0  0  0  0  0
  1  6  1  0  0  0  0
  2  3  1  0  0  0  0
  2  1  2  0  0  0  0
  3  4  2  0  0  0  0
  4  5  1  0  0  0  0
  5  9  1  0  0  0  0
  6  5  2  0  0  0  0
  7  1  1  0  0  0  0
  8  2  1  0  0  0  0
  9 14  2  0  0  0  0
  9 10  1  0  0  0  0
 10 11  2  0  0  0  0
 11 12  1  0  0  0  0
 11 16  1  0  0  0  0
 12 17  1  0  0  0  0
 13 18  1  0  0  0  0
 13 12  2  0  0  0  0
 14 13  1  0  0  0  0
 15 10  1  0  0  0  0
 18 24  1  0  0  0  0
 19 21  1  0  0  0  0
 19 18  2  0  0  0  0
 20 19  1  0  0  0  0
 21 22  1  0  0  0  0
 22 23  1  0  0  0  0
 24 22  2  0  0  0  0
 25  3  1  0  0  0  0
 26 29  1  0  0  0  0
 26 27  1  0  0  0  0
 26 25  1  0  0  0  0
 27 25  1  0  0  0  0
 27 32  1  0  0  0  0
 28 25  1  0  0  0  0
 30 26  1  0  0  0  0
 31 27  1  0  0  0  0
M  END
>  <minimizedAffinity>
-5.93015862

>  <minimizedRMSD>
1.59315014

$$$$
