
 OpenBabel03252506253D

 43 47  0  0  0  0  0  0  0  0999 V2000
   46.2150   30.2790   48.4510 C   0  0  0  0  0  0  0  0  0  0  0  0
   46.4610   29.8990   49.4820 H   0  0  0  0  0  0  0  0  0  0  0  0
   45.5530   31.1630   48.6520 H   0  0  0  0  0  0  0  0  0  0  0  0
   45.6650   27.8470   47.8370 C   0  0  0  0  0  0  0  0  0  0  0  0
   45.4970   29.2130   47.7740 C   0  0  0  0  0  0  0  0  0  0  0  0
   44.4840   29.6510   46.9250 C   0  0  0  0  0  0  0  0  0  0  0  0
   43.6950   28.7920   46.1930 C   0  0  0  0  0  0  0  0  0  0  0  0
   42.6850   28.9220   45.3300 N   0  0  0  0  0  0  0  0  0  0  0  0
   42.2490   27.7390   44.8820 C   0  0  0  0  0  0  0  0  0  0  0  0
   43.0010   26.7550   45.4720 C   0  0  0  0  0  0  0  0  0  0  0  0
   43.8890   27.4420   46.2800 C   0  0  0  0  0  0  0  0  0  0  0  0
   44.8900   26.9810   47.1160 C   0  0  0  0  0  0  0  0  0  0  0  0
   46.4620   27.5570   48.5090 H   0  0  0  0  0  0  0  0  0  0  0  0
   44.2380   30.6940   46.7760 H   0  0  0  0  0  0  0  0  0  0  0  0
   42.2720   29.8470   45.0280 H   0  0  0  0  0  0  0  0  0  0  0  0
   41.4330   27.6020   44.1680 H   0  0  0  0  0  0  0  0  0  0  0  0
   42.8600   25.7220   45.2880 H   0  0  0  0  0  0  0  0  0  0  0  0
   45.1310   25.5220   47.2360 C   0  0  0  0  0  0  0  0  0  0  0  0
   46.0130   25.0130   48.2540 C   0  0  0  0  0  0  0  0  0  0  0  0
   46.5710   25.5690   49.0040 H   0  0  0  0  0  0  0  0  0  0  0  0
   45.9420   23.1840   47.9480 S   0  0  0  0  0  0  0  0  0  0  0  0
   44.7360   23.4360   46.5040 C   0  0  0  0  0  0  0  0  0  0  0  0
   44.2820   22.6680   45.8560 H   0  0  0  0  0  0  0  0  0  0  0  0
   44.5800   24.5960   46.4510 N   0  0  0  0  0  0  0  0  0  0  0  0
   47.5030   30.7100   47.8580 C   0  0  0  0  0  0  0  0  0  0  0  0
   48.1190   29.8080   47.7190 H   0  0  0  0  0  0  0  0  0  0  0  0
   48.0710   31.3420   48.5740 H   0  0  0  0  0  0  0  0  0  0  0  0
   46.6140   32.8810   45.1590 C   0  0  0  0  0  0  0  0  0  0  0  0
   47.2510   31.8130   44.4770 C   0  0  0  0  0  0  0  0  0  0  0  0
   47.6560   30.8860   45.3890 C   0  0  0  0  0  0  0  0  0  0  0  0
   47.2800   31.3660   46.5810 N   0  0  0  0  0  0  0  0  0  0  0  0
   46.6630   32.5470   46.4460 N   0  0  0  0  0  0  0  0  0  0  0  0
   47.3790   31.7760   43.4020 H   0  0  0  0  0  0  0  0  0  0  0  0
   48.1650   29.9660   45.2110 H   0  0  0  0  0  0  0  0  0  0  0  0
   44.5460   35.8210   44.5420 C   0  0  0  0  0  0  0  0  0  0  0  0
   44.9670   36.2530   43.2880 C   0  0  0  0  0  0  0  0  0  0  0  0
   45.9670   35.5260   42.6580 C   0  0  0  0  0  0  0  0  0  0  0  0
   46.4740   34.4400   43.2970 N   0  0  0  0  0  0  0  0  0  0  0  0
   46.0610   34.0380   44.4970 C   0  0  0  0  0  0  0  0  0  0  0  0
   45.0880   34.7390   45.1170 N   0  0  0  0  0  0  0  0  0  0  0  0
   43.7700   36.3230   45.1130 H   0  0  0  0  0  0  0  0  0  0  0  0
   44.4950   37.1350   42.8660 H   0  0  0  0  0  0  0  0  0  0  0  0
   46.3050   35.8460   41.6900 H   0  0  0  0  0  0  0  0  0  0  0  0
  1  3  1  0  0  0  0
  1  2  1  0  0  0  0
  4 13  1  0  0  0  0
  5  4  1  0  0  0  0
  5  1  1  0  0  0  0
  6  5  2  0  0  0  0
  7 11  2  0  0  0  0
  7  6  1  0  0  0  0
  8  7  1  0  0  0  0
  9  8  1  0  0  0  0
  9 10  2  0  0  0  0
 10 11  1  0  0  0  0
 11 12  1  0  0  0  0
 12 18  1  0  0  0  0
 12  4  2  0  0  0  0
 14  6  1  0  0  0  0
 15  8  1  0  0  0  0
 16  9  1  0  0  0  0
 17 10  1  0  0  0  0
 18 19  2  0  0  0  0
 19 20  1  0  0  0  0
 21 19  1  0  0  0  0
 22 21  1  0  0  0  0
 23 22  1  0  0  0  0
 24 22  2  0  0  0  0
 24 18  1  0  0  0  0
 25  1  1  0  0  0  0
 25 27  1  0  0  0  0
 26 25  1  0  0  0  0
 28 32  2  0  0  0  0
 29 28  1  0  0  0  0
 29 30  2  0  0  0  0
 30 31  1  0  0  0  0
 31 25  1  0  0  0  0
 32 31  1  0  0  0  0
 33 29  1  0  0  0  0
 34 30  1  0  0  0  0
 35 41  1  0  0  0  0
 35 40  1  0  0  0  0
 36 35  2  0  0  0  0
 37 36  1  0  0  0  0
 37 38  2  0  0  0  0
 38 39  1  0  0  0  0
 39 40  2  0  0  0  0
 39 28  1  0  0  0  0
 42 36  1  0  0  0  0
 43 37  1  0  0  0  0
M  END
>  <minimizedAffinity>
-5.25098181

>  <minimizedRMSD>
0.653645992

$$$$
