
 OpenBabel03252500533D

 22 23  0  0  0  0  0  0  0  0999 V2000
   36.7030   28.6380   41.1950 C   0  0  0  0  0  0  0  0  0  0  0  0
   37.5670   29.6580   41.5190 C   0  0  0  0  0  0  0  0  0  0  0  0
   38.1400   29.5570   42.8200 C   0  0  0  0  0  0  0  0  0  0  0  0
   37.8230   28.5200   43.6300 N   0  0  0  0  0  0  0  0  0  0  0  0
   36.9710   27.5620   43.2510 C   0  0  0  0  0  0  0  0  0  0  0  0
   36.4270   27.6310   42.0510 N   0  0  0  0  0  0  0  0  0  0  0  0
   38.8470   30.2690   43.2490 H   0  0  0  0  0  0  0  0  0  0  0  0
   36.7780   26.7780   43.9630 H   0  0  0  0  0  0  0  0  0  0  0  0
   37.9870   30.7950   40.7210 C   0  0  0  0  0  0  0  0  0  0  0  0
   39.2500   30.8060   39.9200 C   0  0  0  0  0  0  0  0  0  0  0  0
   40.0050   30.2140   39.7560 H   0  0  0  0  0  0  0  0  0  0  0  0
   39.1880   32.3870   39.0920 S   0  0  0  0  0  0  0  0  0  0  0  0
   37.5240   32.8430   39.8870 C   0  0  0  0  0  0  0  0  0  0  0  0
   36.8390   33.7480   39.8210 H   0  0  0  0  0  0  0  0  0  0  0  0
   37.1750   31.8480   40.6520 N   0  0  0  0  0  0  0  0  0  0  0  0
   36.0810   28.5680   39.8650 C   0  0  0  0  0  0  0  0  0  0  0  0
   36.0730   27.5430   39.4730 H   0  0  0  0  0  0  0  0  0  0  0  0
   36.6940   29.1470   39.1290 H   0  0  0  0  0  0  0  0  0  0  0  0
   34.7070   29.1820   39.9120 C   0  0  0  0  0  0  0  0  0  0  0  0
   34.3540   29.4460   40.9260 H   0  0  0  0  0  0  0  0  0  0  0  0
   34.7750   30.2010   39.3990 H   0  0  0  0  0  0  0  0  0  0  0  0
   33.9740   28.6360   39.2880 H   0  0  0  0  0  0  0  0  0  0  0  0
  1  2  2  0  0  0  0
  1  6  1  0  0  0  0
  2  3  1  0  0  0  0
  3  7  1  0  0  0  0
  3  4  2  0  0  0  0
  5  4  1  0  0  0  0
  5  8  1  0  0  0  0
  6  5  2  0  0  0  0
  9  2  1  0  0  0  0
 10  9  2  0  0  0  0
 11 10  1  0  0  0  0
 12 13  1  0  0  0  0
 12 10  1  0  0  0  0
 13 15  2  0  0  0  0
 14 13  1  0  0  0  0
 15  9  1  0  0  0  0
 16 19  1  0  0  0  0
 16  1  1  0  0  0  0
 17 16  1  0  0  0  0
 18 16  1  0  0  0  0
 19 20  1  0  0  0  0
 21 19  1  0  0  0  0
 22 19  1  0  0  0  0
M  END
>  <minimizedAffinity>
-3.73808455

$$$$

 OpenBabel03252500533D

 22 23  0  0  0  0  0  0  0  0999 V2000
   38.3260   27.2880   42.9020 C   0  0  0  0  0  0  0  0  0  0  0  0
   38.6370   28.3760   42.1200 C   0  0  0  0  0  0  0  0  0  0  0  0
   40.0060   28.7680   42.1670 C   0  0  0  0  0  0  0  0  0  0  0  0
   40.8870   28.0890   42.9400 N   0  0  0  0  0  0  0  0  0  0  0  0
   40.5150   27.0390   43.6800 C   0  0  0  0  0  0  0  0  0  0  0  0
   39.2530   26.6540   43.6520 N   0  0  0  0  0  0  0  0  0  0  0  0
   40.4370   29.6040   41.6140 H   0  0  0  0  0  0  0  0  0  0  0  0
   41.2840   26.5640   44.2630 H   0  0  0  0  0  0  0  0  0  0  0  0
   37.7780   29.1550   41.2460 C   0  0  0  0  0  0  0  0  0  0  0  0
   37.6540   28.8920   39.7790 C   0  0  0  0  0  0  0  0  0  0  0  0
   38.0410   28.2890   39.1190 H   0  0  0  0  0  0  0  0  0  0  0  0
   36.4140   30.0680   39.2620 S   0  0  0  0  0  0  0  0  0  0  0  0
   36.2040   30.7600   41.0190 C   0  0  0  0  0  0  0  0  0  0  0  0
   35.5530   31.5720   41.4750 H   0  0  0  0  0  0  0  0  0  0  0  0
   37.0200   30.1020   41.7940 N   0  0  0  0  0  0  0  0  0  0  0  0
   36.9680   26.7250   42.9100 C   0  0  0  0  0  0  0  0  0  0  0  0
   36.2260   27.4460   42.5420 H   0  0  0  0  0  0  0  0  0  0  0  0
   36.6550   26.5100   43.9620 H   0  0  0  0  0  0  0  0  0  0  0  0
   36.9490   25.4300   42.1430 C   0  0  0  0  0  0  0  0  0  0  0  0
   37.8880   25.1970   41.6060 H   0  0  0  0  0  0  0  0  0  0  0  0
   36.8850   24.5850   42.9100 H   0  0  0  0  0  0  0  0  0  0  0  0
   36.0240   25.2980   41.5490 H   0  0  0  0  0  0  0  0  0  0  0  0
  1 16  1  0  0  0  0
  1  6  1  0  0  0  0
  2  3  1  0  0  0  0
  2  1  2  0  0  0  0
  3  4  2  0  0  0  0
  4  5  1  0  0  0  0
  5  8  1  0  0  0  0
  6  5  2  0  0  0  0
  7  3  1  0  0  0  0
  9 15  1  0  0  0  0
  9  2  1  0  0  0  0
 10  9  2  0  0  0  0
 11 10  1  0  0  0  0
 12 10  1  0  0  0  0
 12 13  1  0  0  0  0
 13 14  1  0  0  0  0
 13 15  2  0  0  0  0
 16 18  1  0  0  0  0
 17 16  1  0  0  0  0
 19 16  1  0  0  0  0
 19 21  1  0  0  0  0
 20 19  1  0  0  0  0
 22 19  1  0  0  0  0
M  END
>  <minimizedAffinity>
-3.63926744

$$$$

 OpenBabel03252500533D

 22 23  0  0  0  0  0  0  0  0999 V2000
   37.5060   26.6320   42.2250 C   0  0  0  0  0  0  0  0  0  0  0  0
   37.2060   27.4070   41.1300 C   0  0  0  0  0  0  0  0  0  0  0  0
   36.7120   26.6810   40.0080 C   0  0  0  0  0  0  0  0  0  0  0  0
   36.5710   25.3350   40.0700 N   0  0  0  0  0  0  0  0  0  0  0  0
   36.8860   24.6420   41.1690 C   0  0  0  0  0  0  0  0  0  0  0  0
   37.3440   25.2910   42.2230 N   0  0  0  0  0  0  0  0  0  0  0  0
   36.4190   27.1240   39.0550 H   0  0  0  0  0  0  0  0  0  0  0  0
   36.7440   23.5760   41.1250 H   0  0  0  0  0  0  0  0  0  0  0  0
   37.2990   28.8470   40.9690 C   0  0  0  0  0  0  0  0  0  0  0  0
   38.5570   29.5410   40.5550 C   0  0  0  0  0  0  0  0  0  0  0  0
   39.4780   29.3030   40.3490 H   0  0  0  0  0  0  0  0  0  0  0  0
   38.0520   31.2500   40.4330 S   0  0  0  0  0  0  0  0  0  0  0  0
   36.2630   30.8550   40.9350 C   0  0  0  0  0  0  0  0  0  0  0  0
   35.3250   31.4820   41.0770 H   0  0  0  0  0  0  0  0  0  0  0  0
   36.1930   29.5690   41.1380 N   0  0  0  0  0  0  0  0  0  0  0  0
   37.9660   27.2420   43.4810 C   0  0  0  0  0  0  0  0  0  0  0  0
   37.3540   26.9250   44.3360 H   0  0  0  0  0  0  0  0  0  0  0  0
   37.8300   28.3520   43.4330 H   0  0  0  0  0  0  0  0  0  0  0  0
   39.4310   26.9590   43.6800 C   0  0  0  0  0  0  0  0  0  0  0  0
   39.8670   26.2510   42.9490 H   0  0  0  0  0  0  0  0  0  0  0  0
   39.9950   27.9270   43.4550 H   0  0  0  0  0  0  0  0  0  0  0  0
   39.6880   26.7590   44.7370 H   0  0  0  0  0  0  0  0  0  0  0  0
  1 16  1  0  0  0  0
  2  1  2  0  0  0  0
  3  4  2  0  0  0  0
  3  2  1  0  0  0  0
  4  5  1  0  0  0  0
  5  6  2  0  0  0  0
  6  1  1  0  0  0  0
  7  3  1  0  0  0  0
  8  5  1  0  0  0  0
  9  2  1  0  0  0  0
  9 15  1  0  0  0  0
 10  9  2  0  0  0  0
 11 10  1  0  0  0  0
 12 10  1  0  0  0  0
 12 13  1  0  0  0  0
 13 14  1  0  0  0  0
 13 15  2  0  0  0  0
 16 19  1  0  0  0  0
 16 17  1  0  0  0  0
 18 16  1  0  0  0  0
 19 22  1  0  0  0  0
 20 19  1  0  0  0  0
 21 19  1  0  0  0  0
M  END
>  <minimizedAffinity>
-3.63691616

$$$$

 OpenBabel03252500533D

 22 23  0  0  0  0  0  0  0  0999 V2000
   38.6440   31.5960   40.7190 C   0  0  0  0  0  0  0  0  0  0  0  0
   37.4820   31.7300   39.9970 C   0  0  0  0  0  0  0  0  0  0  0  0
   37.1740   33.0680   39.6140 C   0  0  0  0  0  0  0  0  0  0  0  0
   37.9940   34.0860   39.9630 N   0  0  0  0  0  0  0  0  0  0  0  0
   39.1100   33.8840   40.6710 C   0  0  0  0  0  0  0  0  0  0  0  0
   39.4200   32.6540   41.0360 N   0  0  0  0  0  0  0  0  0  0  0  0
   36.2970   33.3680   39.0370 H   0  0  0  0  0  0  0  0  0  0  0  0
   39.6990   34.7550   40.9030 H   0  0  0  0  0  0  0  0  0  0  0  0
   36.5500   30.7080   39.5550 C   0  0  0  0  0  0  0  0  0  0  0  0
   36.5260   30.1750   38.1580 C   0  0  0  0  0  0  0  0  0  0  0  0
   36.9910   30.3340   37.3170 H   0  0  0  0  0  0  0  0  0  0  0  0
   35.2740   28.9050   38.2330 S   0  0  0  0  0  0  0  0  0  0  0  0
   34.9320   29.2190   40.0750 C   0  0  0  0  0  0  0  0  0  0  0  0
   34.2230   28.7610   40.8360 H   0  0  0  0  0  0  0  0  0  0  0  0
   35.7260   30.1790   40.4570 N   0  0  0  0  0  0  0  0  0  0  0  0
   39.1290   30.2700   41.1320 C   0  0  0  0  0  0  0  0  0  0  0  0
   40.1280   30.0580   40.7270 H   0  0  0  0  0  0  0  0  0  0  0  0
   38.4730   29.4750   40.6960 H   0  0  0  0  0  0  0  0  0  0  0  0
   39.0730   30.1510   42.6310 C   0  0  0  0  0  0  0  0  0  0  0  0
   38.8190   31.0890   43.1600 H   0  0  0  0  0  0  0  0  0  0  0  0
   38.1860   29.4760   42.8830 H   0  0  0  0  0  0  0  0  0  0  0  0
   39.9350   29.5970   43.0490 H   0  0  0  0  0  0  0  0  0  0  0  0
  1  6  1  0  0  0  0
  1 16  1  0  0  0  0
  2  1  2  0  0  0  0
  3  4  2  0  0  0  0
  3  2  1  0  0  0  0
  4  5  1  0  0  0  0
  5  8  1  0  0  0  0
  5  6  2  0  0  0  0
  7  3  1  0  0  0  0
  9  2  1  0  0  0  0
  9 15  1  0  0  0  0
 10 12  1  0  0  0  0
 10  9  2  0  0  0  0
 11 10  1  0  0  0  0
 12 13  1  0  0  0  0
 13 15  2  0  0  0  0
 13 14  1  0  0  0  0
 16 19  1  0  0  0  0
 17 16  1  0  0  0  0
 18 16  1  0  0  0  0
 19 21  1  0  0  0  0
 19 22  1  0  0  0  0
 19 20  1  0  0  0  0
M  END
>  <minimizedAffinity>
-3.63120818

$$$$

 OpenBabel03252500533D

 22 23  0  0  0  0  0  0  0  0999 V2000
   37.0190   30.9790   40.5120 C   0  0  0  0  0  0  0  0  0  0  0  0
   38.0280   30.4330   41.2700 C   0  0  0  0  0  0  0  0  0  0  0  0
   39.1240   31.3090   41.5150 C   0  0  0  0  0  0  0  0  0  0  0  0
   39.1220   32.5670   41.0140 N   0  0  0  0  0  0  0  0  0  0  0  0
   38.1070   33.0330   40.2800 C   0  0  0  0  0  0  0  0  0  0  0  0
   37.0770   32.2430   40.0400 N   0  0  0  0  0  0  0  0  0  0  0  0
   40.0120   31.0530   42.0960 H   0  0  0  0  0  0  0  0  0  0  0  0
   38.1940   34.0450   39.9230 H   0  0  0  0  0  0  0  0  0  0  0  0
   38.1160   29.1130   41.8680 C   0  0  0  0  0  0  0  0  0  0  0  0
   38.7320   27.9420   41.1710 C   0  0  0  0  0  0  0  0  0  0  0  0
   39.1330   27.7470   40.3050 H   0  0  0  0  0  0  0  0  0  0  0  0
   38.6480   26.6510   42.4010 S   0  0  0  0  0  0  0  0  0  0  0  0
   37.8220   27.7910   43.6760 C   0  0  0  0  0  0  0  0  0  0  0  0
   37.4570   27.6490   44.7440 H   0  0  0  0  0  0  0  0  0  0  0  0
   37.6860   28.9610   43.1190 N   0  0  0  0  0  0  0  0  0  0  0  0
   35.7910   30.2210   40.2270 C   0  0  0  0  0  0  0  0  0  0  0  0
   34.8930   30.8400   40.3530 H   0  0  0  0  0  0  0  0  0  0  0  0
   35.6740   29.3970   40.9750 H   0  0  0  0  0  0  0  0  0  0  0  0
   35.8810   29.6000   38.8590 C   0  0  0  0  0  0  0  0  0  0  0  0
   36.7580   29.9180   38.2650 H   0  0  0  0  0  0  0  0  0  0  0  0
   36.0730   28.4840   39.0070 H   0  0  0  0  0  0  0  0  0  0  0  0
   34.9160   29.6180   38.3170 H   0  0  0  0  0  0  0  0  0  0  0  0
  1  2  1  0  0  0  0
  2  3  2  0  0  0  0
  2  9  1  0  0  0  0
  3  7  1  0  0  0  0
  4  3  1  0  0  0  0
  5  4  2  0  0  0  0
  6  5  1  0  0  0  0
  6  1  2  0  0  0  0
  8  5  1  0  0  0  0
  9 15  1  0  0  0  0
 10  9  2  0  0  0  0
 10 12  1  0  0  0  0
 11 10  1  0  0  0  0
 12 13  1  0  0  0  0
 13 14  1  0  0  0  0
 15 13  2  0  0  0  0
 16 17  1  0  0  0  0
 16  1  1  0  0  0  0
 16 18  1  0  0  0  0
 19 21  1  0  0  0  0
 19 16  1  0  0  0  0
 20 19  1  0  0  0  0
 22 19  1  0  0  0  0
M  END
>  <minimizedAffinity>
-3.61694384

$$$$

 OpenBabel03252500533D

 22 23  0  0  0  0  0  0  0  0999 V2000
   36.5110   30.2320   38.3010 C   0  0  0  0  0  0  0  0  0  0  0  0
   36.7050   30.8250   39.5270 C   0  0  0  0  0  0  0  0  0  0  0  0
   35.9020   30.2920   40.5760 C   0  0  0  0  0  0  0  0  0  0  0  0
   35.0330   29.2830   40.3290 N   0  0  0  0  0  0  0  0  0  0  0  0
   34.8930   28.7540   39.1090 C   0  0  0  0  0  0  0  0  0  0  0  0
   35.6260   29.2280   38.1200 N   0  0  0  0  0  0  0  0  0  0  0  0
   35.9200   30.6330   41.6130 H   0  0  0  0  0  0  0  0  0  0  0  0
   34.1770   27.9570   39.0080 H   0  0  0  0  0  0  0  0  0  0  0  0
   37.6190   31.8890   39.8980 C   0  0  0  0  0  0  0  0  0  0  0  0
   37.3460   33.3330   39.6210 C   0  0  0  0  0  0  0  0  0  0  0  0
   36.6580   33.8660   39.1850 H   0  0  0  0  0  0  0  0  0  0  0  0
   38.7390   34.1590   40.3740 S   0  0  0  0  0  0  0  0  0  0  0  0
   39.5100   32.5250   40.9600 C   0  0  0  0  0  0  0  0  0  0  0  0
   40.4530   32.2580   41.5370 H   0  0  0  0  0  0  0  0  0  0  0  0
   38.7200   31.5630   40.5740 N   0  0  0  0  0  0  0  0  0  0  0  0
   37.3120   30.6290   37.1330 C   0  0  0  0  0  0  0  0  0  0  0  0
   38.3810   30.4360   37.2880 H   0  0  0  0  0  0  0  0  0  0  0  0
   37.2430   31.7370   36.9870 H   0  0  0  0  0  0  0  0  0  0  0  0
   36.7750   29.9610   35.8960 C   0  0  0  0  0  0  0  0  0  0  0  0
   35.9890   29.2050   36.0840 H   0  0  0  0  0  0  0  0  0  0  0  0
   36.2160   30.7580   35.2980 H   0  0  0  0  0  0  0  0  0  0  0  0
   37.5750   29.6420   35.2010 H   0  0  0  0  0  0  0  0  0  0  0  0
  1  2  1  0  0  0  0
  2  9  1  0  0  0  0
  2  3  2  0  0  0  0
  3  7  1  0  0  0  0
  4  3  1  0  0  0  0
  5  4  2  0  0  0  0
  6  1  2  0  0  0  0
  6  5  1  0  0  0  0
  8  5  1  0  0  0  0
  9 15  1  0  0  0  0
 10  9  2  0  0  0  0
 10 12  1  0  0  0  0
 11 10  1  0  0  0  0
 12 13  1  0  0  0  0
 13 14  1  0  0  0  0
 15 13  2  0  0  0  0
 16 17  1  0  0  0  0
 16  1  1  0  0  0  0
 18 16  1  0  0  0  0
 19 20  1  0  0  0  0
 19 16  1  0  0  0  0
 21 19  1  0  0  0  0
 22 19  1  0  0  0  0
M  END
>  <minimizedAffinity>
-3.61524725

$$$$

 OpenBabel03252500533D

 22 23  0  0  0  0  0  0  0  0999 V2000
   36.6760   28.5530   41.2540 C   0  0  0  0  0  0  0  0  0  0  0  0
   37.5840   29.5500   41.5250 C   0  0  0  0  0  0  0  0  0  0  0  0
   38.1700   29.4800   42.8220 C   0  0  0  0  0  0  0  0  0  0  0  0
   37.8220   28.4920   43.6800 N   0  0  0  0  0  0  0  0  0  0  0  0
   36.9270   27.5540   43.3510 C   0  0  0  0  0  0  0  0  0  0  0  0
   36.3710   27.5940   42.1550 N   0  0  0  0  0  0  0  0  0  0  0  0
   38.9100   30.1810   43.2130 H   0  0  0  0  0  0  0  0  0  0  0  0
   36.7120   26.8090   44.0980 H   0  0  0  0  0  0  0  0  0  0  0  0
   38.0390   30.6340   40.6750 C   0  0  0  0  0  0  0  0  0  0  0  0
   37.3110   31.9350   40.5520 C   0  0  0  0  0  0  0  0  0  0  0  0
   36.4950   32.3390   40.8940 H   0  0  0  0  0  0  0  0  0  0  0  0
   38.3680   32.8870   39.4720 S   0  0  0  0  0  0  0  0  0  0  0  0
   39.6310   31.4780   39.3110 C   0  0  0  0  0  0  0  0  0  0  0  0
   40.6140   31.3580   38.7530 H   0  0  0  0  0  0  0  0  0  0  0  0
   39.1930   30.4810   40.0270 N   0  0  0  0  0  0  0  0  0  0  0  0
   36.0340   28.4520   39.9350 C   0  0  0  0  0  0  0  0  0  0  0  0
   35.9390   27.4080   39.6080 H   0  0  0  0  0  0  0  0  0  0  0  0
   36.6840   28.9330   39.1610 H   0  0  0  0  0  0  0  0  0  0  0  0
   34.7160   29.1780   39.9530 C   0  0  0  0  0  0  0  0  0  0  0  0
   34.3970   29.5320   40.9520 H   0  0  0  0  0  0  0  0  0  0  0  0
   34.8600   30.1540   39.3780 H   0  0  0  0  0  0  0  0  0  0  0  0
   33.9330   28.6570   39.3690 H   0  0  0  0  0  0  0  0  0  0  0  0
  1  2  2  0  0  0  0
  1  6  1  0  0  0  0
  2  3  1  0  0  0  0
  3  7  1  0  0  0  0
  3  4  2  0  0  0  0
  5  4  1  0  0  0  0
  5  8  1  0  0  0  0
  6  5  2  0  0  0  0
  9  2  1  0  0  0  0
 10  9  2  0  0  0  0
 10 11  1  0  0  0  0
 12 10  1  0  0  0  0
 13 12  1  0  0  0  0
 13 15  2  0  0  0  0
 14 13  1  0  0  0  0
 15  9  1  0  0  0  0
 16 19  1  0  0  0  0
 16  1  1  0  0  0  0
 17 16  1  0  0  0  0
 18 16  1  0  0  0  0
 19 20  1  0  0  0  0
 21 19  1  0  0  0  0
 22 19  1  0  0  0  0
M  END
>  <minimizedAffinity>
-3.60269403

$$$$

 OpenBabel03252500533D

 22 23  0  0  0  0  0  0  0  0999 V2000
   37.0770   29.9220   41.2610 C   0  0  0  0  0  0  0  0  0  0  0  0
   38.3170   30.4930   41.4260 C   0  0  0  0  0  0  0  0  0  0  0  0
   39.0860   29.9400   42.4900 C   0  0  0  0  0  0  0  0  0  0  0  0
   38.5870   28.9360   43.2480 N   0  0  0  0  0  0  0  0  0  0  0  0
   37.3680   28.4280   43.0330 C   0  0  0  0  0  0  0  0  0  0  0  0
   36.6360   28.9210   42.0530 N   0  0  0  0  0  0  0  0  0  0  0  0
   40.0910   30.2630   42.7690 H   0  0  0  0  0  0  0  0  0  0  0  0
   37.0550   27.6320   43.6870 H   0  0  0  0  0  0  0  0  0  0  0  0
   38.9500   31.5520   40.6610 C   0  0  0  0  0  0  0  0  0  0  0  0
   38.8250   33.0000   41.0130 C   0  0  0  0  0  0  0  0  0  0  0  0
   38.3670   33.5430   41.6780 H   0  0  0  0  0  0  0  0  0  0  0  0
   39.8700   33.7990   39.8060 S   0  0  0  0  0  0  0  0  0  0  0  0
   40.3460   32.1520   38.9890 C   0  0  0  0  0  0  0  0  0  0  0  0
   41.0130   31.8690   38.1130 H   0  0  0  0  0  0  0  0  0  0  0  0
   39.7290   31.2060   39.6380 N   0  0  0  0  0  0  0  0  0  0  0  0
   36.1900   30.3410   40.1650 C   0  0  0  0  0  0  0  0  0  0  0  0
   36.7450   30.5010   39.2320 H   0  0  0  0  0  0  0  0  0  0  0  0
   35.7430   31.3390   40.4020 H   0  0  0  0  0  0  0  0  0  0  0  0
   35.0670   29.3510   40.0110 C   0  0  0  0  0  0  0  0  0  0  0  0
   35.1690   28.4380   40.6280 H   0  0  0  0  0  0  0  0  0  0  0  0
   34.1270   29.8370   40.4400 H   0  0  0  0  0  0  0  0  0  0  0  0
   34.7970   29.1730   38.9530 H   0  0  0  0  0  0  0  0  0  0  0  0
  1  2  2  0  0  0  0
  1  6  1  0  0  0  0
  2  3  1  0  0  0  0
  3  7  1  0  0  0  0
  3  4  2  0  0  0  0
  5  4  1  0  0  0  0
  5  8  1  0  0  0  0
  6  5  2  0  0  0  0
  9 10  2  0  0  0  0
  9  2  1  0  0  0  0
 10 11  1  0  0  0  0
 12 10  1  0  0  0  0
 13 15  2  0  0  0  0
 13 12  1  0  0  0  0
 14 13  1  0  0  0  0
 15  9  1  0  0  0  0
 16 18  1  0  0  0  0
 16  1  1  0  0  0  0
 17 16  1  0  0  0  0
 19 16  1  0  0  0  0
 19 21  1  0  0  0  0
 19 20  1  0  0  0  0
 22 19  1  0  0  0  0
M  END
>  <minimizedAffinity>
-3.57425523

$$$$

 OpenBabel03252500533D

 22 23  0  0  0  0  0  0  0  0999 V2000
   37.4560   29.7140   41.6130 C   0  0  0  0  0  0  0  0  0  0  0  0
   37.6060   30.6700   40.6370 C   0  0  0  0  0  0  0  0  0  0  0  0
   36.5730   30.6800   39.6550 C   0  0  0  0  0  0  0  0  0  0  0  0
   35.5520   29.7940   39.7250 N   0  0  0  0  0  0  0  0  0  0  0  0
   35.4710   28.8850   40.7030 C   0  0  0  0  0  0  0  0  0  0  0  0
   36.4130   28.8560   41.6260 N   0  0  0  0  0  0  0  0  0  0  0  0
   36.5210   31.3670   38.8080 H   0  0  0  0  0  0  0  0  0  0  0  0
   34.6240   28.2210   40.6750 H   0  0  0  0  0  0  0  0  0  0  0  0
   38.6430   31.6740   40.4850 C   0  0  0  0  0  0  0  0  0  0  0  0
   40.0010   31.3670   39.9400 C   0  0  0  0  0  0  0  0  0  0  0  0
   40.4940   30.5870   39.6280 H   0  0  0  0  0  0  0  0  0  0  0  0
   40.7900   32.9680   39.8960 S   0  0  0  0  0  0  0  0  0  0  0  0
   39.2560   33.8470   40.5920 C   0  0  0  0  0  0  0  0  0  0  0  0
   39.0120   34.9270   40.8460 H   0  0  0  0  0  0  0  0  0  0  0  0
   38.3440   32.9360   40.7860 N   0  0  0  0  0  0  0  0  0  0  0  0
   38.4060   29.6190   42.7320 C   0  0  0  0  0  0  0  0  0  0  0  0
   38.2960   30.4590   43.4310 H   0  0  0  0  0  0  0  0  0  0  0  0
   39.4530   29.7080   42.3470 H   0  0  0  0  0  0  0  0  0  0  0  0
   38.2690   28.2810   43.4060 C   0  0  0  0  0  0  0  0  0  0  0  0
   37.4160   27.6710   43.0520 H   0  0  0  0  0  0  0  0  0  0  0  0
   39.1700   27.6520   43.0950 H   0  0  0  0  0  0  0  0  0  0  0  0
   38.3750   28.3430   44.5060 H   0  0  0  0  0  0  0  0  0  0  0  0
  1  6  1  0  0  0  0
  1 16  1  0  0  0  0
  2  1  2  0  0  0  0
  3  4  2  0  0  0  0
  3  2  1  0  0  0  0
  4  5  1  0  0  0  0
  5  6  2  0  0  0  0
  7  3  1  0  0  0  0
  8  5  1  0  0  0  0
  9  2  1  0  0  0  0
  9 15  1  0  0  0  0
 10  9  2  0  0  0  0
 11 10  1  0  0  0  0
 12 10  1  0  0  0  0
 12 13  1  0  0  0  0
 13 15  2  0  0  0  0
 13 14  1  0  0  0  0
 16 19  1  0  0  0  0
 16 17  1  0  0  0  0
 18 16  1  0  0  0  0
 19 22  1  0  0  0  0
 20 19  1  0  0  0  0
 21 19  1  0  0  0  0
M  END
>  <minimizedAffinity>
-3.55710125

$$$$
