
 OpenBabel03242512533D

 42 46  0  0  1  0  0  0  0  0999 V2000
   36.5890   29.8880   38.4570 N   0  0  0  0  0  0  0  0  0  0  0  0
   36.2270   29.4710   37.1090 C   0  0  0  0  0  0  0  0  0  0  0  0
   34.7690   29.1630   37.3800 C   0  0  0  0  0  0  0  0  0  0  0  0
   34.9010   28.2410   38.5650 C   0  0  0  0  0  0  0  0  0  0  0  0
   35.9870   28.8950   39.3860 C   0  0  1  0  0  0  0  0  0  0  0  0
   36.7230   28.5350   36.8400 H   0  0  0  0  0  0  0  0  0  0  0  0
   36.3650   30.2610   36.3740 H   0  0  0  0  0  0  0  0  0  0  0  0
   34.3110   28.5780   36.5690 H   0  0  0  0  0  0  0  0  0  0  0  0
   34.2210   30.0780   37.6390 H   0  0  0  0  0  0  0  0  0  0  0  0
   35.2250   27.2370   38.2260 H   0  0  0  0  0  0  0  0  0  0  0  0
   33.9480   28.1540   39.0890 H   0  0  0  0  0  0  0  0  0  0  0  0
   35.5010   29.4920   40.1050 H   0  0  0  0  0  0  0  0  0  0  0  0
   37.0680   28.0020   39.7490 C   0  0  0  0  0  0  0  0  0  0  0  0
   37.7270   27.2800   38.8070 N   0  0  0  0  0  0  0  0  0  0  0  0
   38.7300   26.4210   39.0610 C   0  0  0  0  0  0  0  0  0  0  0  0
   39.1160   26.2620   40.3290 N   0  0  0  0  0  0  0  0  0  0  0  0
   38.5040   26.9460   41.2960 C   0  0  0  0  0  0  0  0  0  0  0  0
   38.9580   26.7350   42.5920 C   0  0  0  0  0  0  0  0  0  0  0  0
   38.3250   27.4510   43.6000 C   0  0  0  0  0  0  0  0  0  0  0  0
   37.2810   28.3490   43.3990 C   0  0  0  0  0  0  0  0  0  0  0  0
   36.9000   28.4910   42.0770 C   0  0  0  0  0  0  0  0  0  0  0  0
   37.4730   27.8290   41.0550 C   0  0  0  0  0  0  0  0  0  0  0  0
   39.2000   25.8830   38.2370 H   0  0  0  0  0  0  0  0  0  0  0  0
   39.7640   26.0520   42.8210 H   0  0  0  0  0  0  0  0  0  0  0  0
   38.7100   27.2590   44.6080 H   0  0  0  0  0  0  0  0  0  0  0  0
   36.8520   28.8570   44.2340 H   0  0  0  0  0  0  0  0  0  0  0  0
   36.1010   29.1540   41.9480 H   0  0  0  0  0  0  0  0  0  0  0  0
   37.7630   32.9180   40.2820 C   0  0  0  0  0  0  0  0  0  0  0  0
   36.9260   31.8790   39.9030 C   0  0  0  0  0  0  0  0  0  0  0  0
   37.3420   30.9830   38.9310 C   0  0  0  0  0  0  0  0  0  0  0  0
   38.5740   31.1720   38.3840 N   0  0  0  0  0  0  0  0  0  0  0  0
   39.3960   32.1930   38.7570 C   0  0  0  0  0  0  0  0  0  0  0  0
   38.9650   33.0660   39.7200 N   0  0  0  0  0  0  0  0  0  0  0  0
   37.4690   33.6380   41.0430 H   0  0  0  0  0  0  0  0  0  0  0  0
   35.9760   31.7920   40.3430 H   0  0  0  0  0  0  0  0  0  0  0  0
   40.7160   32.3050   38.0940 C   0  0  0  0  0  0  0  0  0  0  0  0
   41.3920   31.0650   37.6780 C   0  0  0  0  0  0  0  0  0  0  0  0
   41.0220   30.0820   37.8080 H   0  0  0  0  0  0  0  0  0  0  0  0
   42.8970   31.6380   36.9490 S   0  0  0  0  0  0  0  0  0  0  0  0
   42.4450   33.4730   37.2870 C   0  0  0  0  0  0  0  0  0  0  0  0
   42.8670   34.5770   37.1390 H   0  0  0  0  0  0  0  0  0  0  0  0
   41.4430   33.3630   37.7880 N   0  0  0  0  0  0  0  0  0  0  0  0
  1 30  1  0  0  0  0
  1  5  1  0  0  0  0
  2  3  1  0  0  0  0
  2  1  1  0  0  0  0
  3  9  1  0  0  0  0
  3  4  1  0  0  0  0
  4 11  1  0  0  0  0
  4  5  1  0  0  0  0
  5 13  1  0  0  0  0
  5 12  1  1  0  0  0
  6  2  1  0  0  0  0
  7  2  1  0  0  0  0
  8  3  1  0  0  0  0
 10  4  1  0  0  0  0
 13 22  1  0  0  0  0
 14 15  1  0  0  0  0
 14 13  2  0  0  0  0
 15 16  2  0  0  0  0
 16 17  1  0  0  0  0
 17 18  1  0  0  0  0
 18 24  1  0  0  0  0
 18 19  2  0  0  0  0
 19 25  1  0  0  0  0
 20 19  1  0  0  0  0
 20 26  1  0  0  0  0
 21 20  2  0  0  0  0
 22 17  2  0  0  0  0
 22 21  1  0  0  0  0
 23 15  1  0  0  0  0
 27 21  1  0  0  0  0
 28 34  1  0  0  0  0
 29 28  1  0  0  0  0
 29 35  1  0  0  0  0
 30 29  2  0  0  0  0
 31 32  2  0  0  0  0
 31 30  1  0  0  0  0
 32 33  1  0  0  0  0
 33 28  2  0  0  0  0
 36 32  1  0  0  0  0
 37 38  1  0  0  0  0
 37 36  2  0  0  0  0
 39 40  1  0  0  0  0
 39 37  1  0  0  0  0
 40 42  2  0  0  0  0
 41 40  1  0  0  0  0
 42 36  1  0  0  0  0
M  END
>  <minimizedAffinity>
-6.10821342

$$$$

 OpenBabel03242512533D

 42 46  0  0  1  0  0  0  0  0999 V2000
   36.6820   29.9380   38.6810 N   0  0  0  0  0  0  0  0  0  0  0  0
   36.4470   29.6540   37.2720 C   0  0  0  0  0  0  0  0  0  0  0  0
   34.9770   29.3060   37.3810 C   0  0  0  0  0  0  0  0  0  0  0  0
   35.0230   28.2720   38.4750 C   0  0  0  0  0  0  0  0  0  0  0  0
   36.0200   28.8510   39.4510 C   0  0  1  0  0  0  0  0  0  0  0  0
   36.9820   28.7550   36.9560 H   0  0  0  0  0  0  0  0  0  0  0  0
   36.6340   30.5160   36.6330 H   0  0  0  0  0  0  0  0  0  0  0  0
   34.6030   28.8010   36.4780 H   0  0  0  0  0  0  0  0  0  0  0  0
   34.3910   30.1850   37.6790 H   0  0  0  0  0  0  0  0  0  0  0  0
   35.3930   27.3100   38.0700 H   0  0  0  0  0  0  0  0  0  0  0  0
   34.0290   28.1230   38.9020 H   0  0  0  0  0  0  0  0  0  0  0  0
   35.4630   29.3690   40.1780 H   0  0  0  0  0  0  0  0  0  0  0  0
   37.0820   27.9380   39.8180 C   0  0  0  0  0  0  0  0  0  0  0  0
   37.7390   27.2130   38.8780 N   0  0  0  0  0  0  0  0  0  0  0  0
   38.7250   26.3340   39.1350 C   0  0  0  0  0  0  0  0  0  0  0  0
   39.0940   26.1590   40.4070 N   0  0  0  0  0  0  0  0  0  0  0  0
   38.4830   26.8450   41.3720 C   0  0  0  0  0  0  0  0  0  0  0  0
   38.9190   26.6170   42.6710 C   0  0  0  0  0  0  0  0  0  0  0  0
   38.2860   27.3350   43.6780 C   0  0  0  0  0  0  0  0  0  0  0  0
   37.2600   28.2520   43.4730 C   0  0  0  0  0  0  0  0  0  0  0  0
   36.8960   28.4110   42.1480 C   0  0  0  0  0  0  0  0  0  0  0  0
   37.4690   27.7470   41.1270 C   0  0  0  0  0  0  0  0  0  0  0  0
   39.1950   25.7950   38.3120 H   0  0  0  0  0  0  0  0  0  0  0  0
   39.7100   25.9180   42.9030 H   0  0  0  0  0  0  0  0  0  0  0  0
   38.6570   27.1290   44.6880 H   0  0  0  0  0  0  0  0  0  0  0  0
   36.8300   28.7600   44.3070 H   0  0  0  0  0  0  0  0  0  0  0  0
   36.1100   29.0890   42.0150 H   0  0  0  0  0  0  0  0  0  0  0  0
   37.7760   33.2650   39.9550 C   0  0  0  0  0  0  0  0  0  0  0  0
   37.0140   32.3270   39.2760 C   0  0  0  0  0  0  0  0  0  0  0  0
   37.3700   30.9880   39.3250 C   0  0  0  0  0  0  0  0  0  0  0  0
   38.4720   30.6550   40.0510 N   0  0  0  0  0  0  0  0  0  0  0  0
   39.2200   31.5770   40.7180 C   0  0  0  0  0  0  0  0  0  0  0  0
   38.8500   32.8940   40.6560 N   0  0  0  0  0  0  0  0  0  0  0  0
   37.5250   34.3240   39.9390 H   0  0  0  0  0  0  0  0  0  0  0  0
   36.1850   32.6420   38.7120 H   0  0  0  0  0  0  0  0  0  0  0  0
   40.4010   31.1020   41.4770 C   0  0  0  0  0  0  0  0  0  0  0  0
   41.5870   31.9730   41.5340 C   0  0  0  0  0  0  0  0  0  0  0  0
   41.6820   32.9230   41.0780 H   0  0  0  0  0  0  0  0  0  0  0  0
   42.7320   31.0490   42.5130 S   0  0  0  0  0  0  0  0  0  0  0  0
   41.4900   29.6030   42.7320 C   0  0  0  0  0  0  0  0  0  0  0  0
   41.3880   28.5330   43.2470 H   0  0  0  0  0  0  0  0  0  0  0  0
   40.6050   29.9850   42.1490 N   0  0  0  0  0  0  0  0  0  0  0  0
  1 30  1  0  0  0  0
  1  5  1  0  0  0  0
  2  3  1  0  0  0  0
  2  1  1  0  0  0  0
  3  9  1  0  0  0  0
  3  4  1  0  0  0  0
  4 11  1  0  0  0  0
  4  5  1  0  0  0  0
  5 13  1  0  0  0  0
  5 12  1  1  0  0  0
  6  2  1  0  0  0  0
  7  2  1  0  0  0  0
  8  3  1  0  0  0  0
 10  4  1  0  0  0  0
 13 22  1  0  0  0  0
 14 15  1  0  0  0  0
 14 13  2  0  0  0  0
 15 16  2  0  0  0  0
 16 17  1  0  0  0  0
 17 18  1  0  0  0  0
 18 24  1  0  0  0  0
 18 19  2  0  0  0  0
 19 25  1  0  0  0  0
 20 19  1  0  0  0  0
 20 26  1  0  0  0  0
 21 20  2  0  0  0  0
 22 17  2  0  0  0  0
 22 21  1  0  0  0  0
 23 15  1  0  0  0  0
 27 21  1  0  0  0  0
 28 33  1  0  0  0  0
 29 30  1  0  0  0  0
 29 28  2  0  0  0  0
 30 31  2  0  0  0  0
 31 32  1  0  0  0  0
 32 36  1  0  0  0  0
 33 32  2  0  0  0  0
 34 28  1  0  0  0  0
 35 29  1  0  0  0  0
 36 37  2  0  0  0  0
 36 42  1  0  0  0  0
 37 39  1  0  0  0  0
 38 37  1  0  0  0  0
 39 40  1  0  0  0  0
 40 41  1  0  0  0  0
 42 40  2  0  0  0  0
M  END
>  <minimizedAffinity>
-5.74048996

$$$$

 OpenBabel03242512533D

 42 46  0  0  1  0  0  0  0  0999 V2000
   36.8980   28.6600   37.6590 N   0  0  0  0  0  0  0  0  0  0  0  0
   36.0920   28.0990   36.5850 C   0  0  0  0  0  0  0  0  0  0  0  0
   34.8370   28.9100   36.8310 C   0  0  0  0  0  0  0  0  0  0  0  0
   34.6260   28.6450   38.3000 C   0  0  0  0  0  0  0  0  0  0  0  0
   36.0260   28.7150   38.8630 C   0  0  1  0  0  0  0  0  0  0  0  0
   35.8560   27.0490   36.7770 H   0  0  0  0  0  0  0  0  0  0  0  0
   36.5240   28.2720   35.6000 H   0  0  0  0  0  0  0  0  0  0  0  0
   33.9660   28.4960   36.3030 H   0  0  0  0  0  0  0  0  0  0  0  0
   35.0180   29.9750   36.6340 H   0  0  0  0  0  0  0  0  0  0  0  0
   34.2020   27.6320   38.4430 H   0  0  0  0  0  0  0  0  0  0  0  0
   33.9460   29.3840   38.7270 H   0  0  0  0  0  0  0  0  0  0  0  0
   36.1580   29.6960   39.2190 H   0  0  0  0  0  0  0  0  0  0  0  0
   36.3970   27.5630   39.6590 C   0  0  0  0  0  0  0  0  0  0  0  0
   36.2850   26.3040   39.1650 N   0  0  0  0  0  0  0  0  0  0  0  0
   36.5940   25.1830   39.8410 C   0  0  0  0  0  0  0  0  0  0  0  0
   37.0480   25.3090   41.0910 N   0  0  0  0  0  0  0  0  0  0  0  0
   37.1790   26.5210   41.6280 C   0  0  0  0  0  0  0  0  0  0  0  0
   37.6610   26.5790   42.9290 C   0  0  0  0  0  0  0  0  0  0  0  0
   37.8020   27.8430   43.4880 C   0  0  0  0  0  0  0  0  0  0  0  0
   37.4960   29.0350   42.8390 C   0  0  0  0  0  0  0  0  0  0  0  0
   37.0240   28.8760   41.5490 C   0  0  0  0  0  0  0  0  0  0  0  0
   36.8650   27.6810   40.9500 C   0  0  0  0  0  0  0  0  0  0  0  0
   36.4700   24.2120   39.3610 H   0  0  0  0  0  0  0  0  0  0  0  0
   37.9180   25.6930   43.4930 H   0  0  0  0  0  0  0  0  0  0  0  0
   38.1850   27.8480   44.5150 H   0  0  0  0  0  0  0  0  0  0  0  0
   37.6350   29.9640   43.3460 H   0  0  0  0  0  0  0  0  0  0  0  0
   36.7790   29.7810   41.0850 H   0  0  0  0  0  0  0  0  0  0  0  0
   40.5860   28.9970   37.2330 C   0  0  0  0  0  0  0  0  0  0  0  0
   39.3160   28.4500   37.1280 C   0  0  0  0  0  0  0  0  0  0  0  0
   38.2360   29.1090   37.6940 C   0  0  0  0  0  0  0  0  0  0  0  0
   38.4800   30.2830   38.3380 N   0  0  0  0  0  0  0  0  0  0  0  0
   39.7280   30.8200   38.4400 C   0  0  0  0  0  0  0  0  0  0  0  0
   40.7800   30.1520   37.8730 N   0  0  0  0  0  0  0  0  0  0  0  0
   41.4550   28.5070   36.7990 H   0  0  0  0  0  0  0  0  0  0  0  0
   39.1870   27.5290   36.6380 H   0  0  0  0  0  0  0  0  0  0  0  0
   39.8790   32.1030   39.1660 C   0  0  0  0  0  0  0  0  0  0  0  0
   41.2320   32.6650   39.3120 C   0  0  0  0  0  0  0  0  0  0  0  0
   42.1260   32.2340   38.9440 H   0  0  0  0  0  0  0  0  0  0  0  0
   40.9650   34.1600   40.2150 S   0  0  0  0  0  0  0  0  0  0  0  0
   39.0710   33.8600   40.2920 C   0  0  0  0  0  0  0  0  0  0  0  0
   38.0680   34.3490   40.7100 H   0  0  0  0  0  0  0  0  0  0  0  0
   38.9820   32.8840   39.7380 N   0  0  0  0  0  0  0  0  0  0  0  0
  1 30  1  0  0  0  0
  1  5  1  0  0  0  0
  2  6  1  0  0  0  0
  2  3  1  0  0  0  0
  2  1  1  0  0  0  0
  3  4  1  0  0  0  0
  4 10  1  0  0  0  0
  4 11  1  0  0  0  0
  4  5  1  0  0  0  0
  5 12  1  1  0  0  0
  5 13  1  0  0  0  0
  7  2  1  0  0  0  0
  8  3  1  0  0  0  0
  9  3  1  0  0  0  0
 13 22  1  0  0  0  0
 14 13  2  0  0  0  0
 14 15  1  0  0  0  0
 15 16  2  0  0  0  0
 16 17  1  0  0  0  0
 17 18  1  0  0  0  0
 18 19  2  0  0  0  0
 18 24  1  0  0  0  0
 19 25  1  0  0  0  0
 20 26  1  0  0  0  0
 20 19  1  0  0  0  0
 21 20  2  0  0  0  0
 22 21  1  0  0  0  0
 22 17  2  0  0  0  0
 23 15  1  0  0  0  0
 27 21  1  0  0  0  0
 28 33  1  0  0  0  0
 29 28  2  0  0  0  0
 29 30  1  0  0  0  0
 30 31  2  0  0  0  0
 31 32  1  0  0  0  0
 32 36  1  0  0  0  0
 33 32  2  0  0  0  0
 34 28  1  0  0  0  0
 35 29  1  0  0  0  0
 36 37  2  0  0  0  0
 36 42  1  0  0  0  0
 37 39  1  0  0  0  0
 38 37  1  0  0  0  0
 39 40  1  0  0  0  0
 40 41  1  0  0  0  0
 42 40  2  0  0  0  0
M  END
>  <minimizedAffinity>
-5.71626663

$$$$

 OpenBabel03242512533D

 42 46  0  0  1  0  0  0  0  0999 V2000
   36.0880   29.4390   37.8050 N   0  0  0  0  0  0  0  0  0  0  0  0
   35.6620   29.1250   36.4490 C   0  0  0  0  0  0  0  0  0  0  0  0
   34.1680   29.1950   36.6870 C   0  0  0  0  0  0  0  0  0  0  0  0
   34.0380   28.2710   37.8700 C   0  0  0  0  0  0  0  0  0  0  0  0
   35.2350   28.6310   38.7170 C   0  0  1  0  0  0  0  0  0  0  0  0
   35.9120   28.0940   36.1860 H   0  0  0  0  0  0  0  0  0  0  0  0
   36.0110   29.8550   35.7190 H   0  0  0  0  0  0  0  0  0  0  0  0
   33.5950   28.7430   35.8630 H   0  0  0  0  0  0  0  0  0  0  0  0
   33.8620   30.2190   36.9380 H   0  0  0  0  0  0  0  0  0  0  0  0
   34.1060   27.2170   37.5340 H   0  0  0  0  0  0  0  0  0  0  0  0
   33.0820   28.4270   38.3730 H   0  0  0  0  0  0  0  0  0  0  0  0
   34.9000   29.3320   39.4280 H   0  0  0  0  0  0  0  0  0  0  0  0
   36.0490   27.4960   39.0990 C   0  0  0  0  0  0  0  0  0  0  0  0
   36.3670   26.5290   38.2020 N   0  0  0  0  0  0  0  0  0  0  0  0
   37.1050   25.4380   38.4770 C   0  0  0  0  0  0  0  0  0  0  0  0
   37.5640   25.2880   39.7230 N   0  0  0  0  0  0  0  0  0  0  0  0
   37.2820   26.2070   40.6460 C   0  0  0  0  0  0  0  0  0  0  0  0
   37.7940   25.9910   41.9180 C   0  0  0  0  0  0  0  0  0  0  0  0
   37.5050   26.9500   42.8800 C   0  0  0  0  0  0  0  0  0  0  0  0
   36.7470   28.0950   42.6550 C   0  0  0  0  0  0  0  0  0  0  0  0
   36.2810   28.2220   41.3580 C   0  0  0  0  0  0  0  0  0  0  0  0
   36.5260   27.3300   40.3820 C   0  0  0  0  0  0  0  0  0  0  0  0
   37.3090   24.7120   37.6900 H   0  0  0  0  0  0  0  0  0  0  0  0
   38.3910   25.1240   42.1640 H   0  0  0  0  0  0  0  0  0  0  0  0
   37.9270   26.7460   43.8710 H   0  0  0  0  0  0  0  0  0  0  0  0
   36.5730   28.7810   43.4540 H   0  0  0  0  0  0  0  0  0  0  0  0
   35.6960   29.0780   41.2140 H   0  0  0  0  0  0  0  0  0  0  0  0
   37.9430   32.0910   39.6550 C   0  0  0  0  0  0  0  0  0  0  0  0
   36.8790   31.2970   39.2520 C   0  0  0  0  0  0  0  0  0  0  0  0
   37.0810   30.3110   38.3000 C   0  0  0  0  0  0  0  0  0  0  0  0
   38.3380   30.1680   37.7960 N   0  0  0  0  0  0  0  0  0  0  0  0
   39.3830   30.9480   38.1930 C   0  0  0  0  0  0  0  0  0  0  0  0
   39.1600   31.9160   39.1350 N   0  0  0  0  0  0  0  0  0  0  0  0
   37.8190   32.8730   40.4010 H   0  0  0  0  0  0  0  0  0  0  0  0
   35.9240   31.4650   39.6580 H   0  0  0  0  0  0  0  0  0  0  0  0
   40.7080   30.7060   37.5770 C   0  0  0  0  0  0  0  0  0  0  0  0
   41.0750   29.3220   37.2370 C   0  0  0  0  0  0  0  0  0  0  0  0
   40.4750   28.4650   37.3930 H   0  0  0  0  0  0  0  0  0  0  0  0
   42.6930   29.4800   36.5440 S   0  0  0  0  0  0  0  0  0  0  0  0
   42.6900   31.3840   36.7890 C   0  0  0  0  0  0  0  0  0  0  0  0
   43.3710   32.3460   36.6130 H   0  0  0  0  0  0  0  0  0  0  0  0
   41.6780   31.5430   37.2560 N   0  0  0  0  0  0  0  0  0  0  0  0
  1 30  1  0  0  0  0
  1  5  1  0  0  0  0
  2  3  1  0  0  0  0
  2  1  1  0  0  0  0
  3  9  1  0  0  0  0
  3  4  1  0  0  0  0
  4 11  1  0  0  0  0
  4  5  1  0  0  0  0
  5 13  1  0  0  0  0
  5 12  1  1  0  0  0
  6  2  1  0  0  0  0
  7  2  1  0  0  0  0
  8  3  1  0  0  0  0
 10  4  1  0  0  0  0
 13 22  1  0  0  0  0
 14 15  1  0  0  0  0
 14 13  2  0  0  0  0
 15 16  2  0  0  0  0
 16 17  1  0  0  0  0
 17 18  1  0  0  0  0
 18 24  1  0  0  0  0
 18 19  2  0  0  0  0
 19 25  1  0  0  0  0
 20 19  1  0  0  0  0
 20 26  1  0  0  0  0
 21 20  2  0  0  0  0
 22 17  2  0  0  0  0
 22 21  1  0  0  0  0
 23 15  1  0  0  0  0
 27 21  1  0  0  0  0
 28 34  1  0  0  0  0
 29 28  1  0  0  0  0
 29 35  1  0  0  0  0
 30 29  2  0  0  0  0
 31 32  2  0  0  0  0
 31 30  1  0  0  0  0
 32 33  1  0  0  0  0
 33 28  2  0  0  0  0
 36 32  1  0  0  0  0
 37 38  1  0  0  0  0
 37 36  2  0  0  0  0
 39 40  1  0  0  0  0
 39 37  1  0  0  0  0
 40 42  2  0  0  0  0
 41 40  1  0  0  0  0
 42 36  1  0  0  0  0
M  END
>  <minimizedAffinity>
-5.66696024

$$$$

 OpenBabel03242512533D

 42 46  0  0  1  0  0  0  0  0999 V2000
   37.7490   27.8550   40.5700 N   0  0  0  0  0  0  0  0  0  0  0  0
   38.2300   26.7430   41.3790 C   0  0  0  0  0  0  0  0  0  0  0  0
   37.0630   26.6760   42.3420 C   0  0  0  0  0  0  0  0  0  0  0  0
   37.0000   28.1120   42.7940 C   0  0  0  0  0  0  0  0  0  0  0  0
   37.2410   28.8830   41.5170 C   0  0  1  0  0  0  0  0  0  0  0  0
   39.1190   27.0270   41.9490 H   0  0  0  0  0  0  0  0  0  0  0  0
   38.3600   25.8290   40.8020 H   0  0  0  0  0  0  0  0  0  0  0  0
   37.2930   26.0700   43.2300 H   0  0  0  0  0  0  0  0  0  0  0  0
   36.1460   26.3760   41.8180 H   0  0  0  0  0  0  0  0  0  0  0  0
   37.8080   28.3120   43.5240 H   0  0  0  0  0  0  0  0  0  0  0  0
   36.0350   28.3240   43.2580 H   0  0  0  0  0  0  0  0  0  0  0  0
   36.2930   29.1270   41.1310 H   0  0  0  0  0  0  0  0  0  0  0  0
   38.2960   29.8690   41.6170 C   0  0  0  0  0  0  0  0  0  0  0  0
   39.4330   29.6120   42.3110 N   0  0  0  0  0  0  0  0  0  0  0  0
   40.4530   30.4760   42.4630 C   0  0  0  0  0  0  0  0  0  0  0  0
   40.3490   31.6770   41.8900 N   0  0  0  0  0  0  0  0  0  0  0  0
   39.2540   31.9850   41.1950 C   0  0  0  0  0  0  0  0  0  0  0  0
   39.2140   33.2490   40.6230 C   0  0  0  0  0  0  0  0  0  0  0  0
   38.0760   33.5710   39.8940 C   0  0  0  0  0  0  0  0  0  0  0  0
   36.9900   32.7200   39.7060 C   0  0  0  0  0  0  0  0  0  0  0  0
   37.1220   31.4850   40.3140 C   0  0  0  0  0  0  0  0  0  0  0  0
   38.1990   31.1130   41.0310 C   0  0  0  0  0  0  0  0  0  0  0  0
   41.3290   30.1800   43.0410 H   0  0  0  0  0  0  0  0  0  0  0  0
   40.0210   33.9610   40.7280 H   0  0  0  0  0  0  0  0  0  0  0  0
   38.0800   34.5750   39.4570 H   0  0  0  0  0  0  0  0  0  0  0  0
   36.1530   33.0500   39.1300 H   0  0  0  0  0  0  0  0  0  0  0  0
   36.2880   30.8680   40.1790 H   0  0  0  0  0  0  0  0  0  0  0  0
   38.6220   28.2040   36.9640 C   0  0  0  0  0  0  0  0  0  0  0  0
   38.7980   27.9920   38.3230 C   0  0  0  0  0  0  0  0  0  0  0  0
   37.7050   28.0500   39.1730 C   0  0  0  0  0  0  0  0  0  0  0  0
   36.4900   28.3180   38.6220 N   0  0  0  0  0  0  0  0  0  0  0  0
   36.3180   28.5250   37.2870 C   0  0  0  0  0  0  0  0  0  0  0  0
   37.4110   28.4630   36.4640 N   0  0  0  0  0  0  0  0  0  0  0  0
   39.4570   28.1640   36.2680 H   0  0  0  0  0  0  0  0  0  0  0  0
   39.7620   27.8100   38.6980 H   0  0  0  0  0  0  0  0  0  0  0  0
   34.9490   28.8100   36.7950 C   0  0  0  0  0  0  0  0  0  0  0  0
   33.8520   28.8510   37.7750 C   0  0  0  0  0  0  0  0  0  0  0  0
   33.9450   28.6930   38.8180 H   0  0  0  0  0  0  0  0  0  0  0  0
   32.4300   29.2130   36.7910 S   0  0  0  0  0  0  0  0  0  0  0  0
   33.4700   29.2680   35.1790 C   0  0  0  0  0  0  0  0  0  0  0  0
   33.3600   29.4460   34.0060 H   0  0  0  0  0  0  0  0  0  0  0  0
   34.5000   29.0490   35.5760 N   0  0  0  0  0  0  0  0  0  0  0  0
  1  2  1  0  0  0  0
  1  5  1  0  0  0  0
  2  6  1  0  0  0  0
  2  3  1  0  0  0  0
  3  4  1  0  0  0  0
  3  8  1  0  0  0  0
  4 11  1  0  0  0  0
  4 10  1  0  0  0  0
  5 12  1  6  0  0  0
  5 13  1  0  0  0  0
  5  4  1  0  0  0  0
  7  2  1  0  0  0  0
  9  3  1  0  0  0  0
 13 14  1  0  0  0  0
 14 15  2  0  0  0  0
 15 23  1  0  0  0  0
 16 15  1  0  0  0  0
 17 16  2  0  0  0  0
 18 24  1  0  0  0  0
 18 17  1  0  0  0  0
 19 18  2  0  0  0  0
 20 19  1  0  0  0  0
 20 21  2  0  0  0  0
 21 22  1  0  0  0  0
 22 17  1  0  0  0  0
 22 13  2  0  0  0  0
 25 19  1  0  0  0  0
 26 20  1  0  0  0  0
 27 21  1  0  0  0  0
 28 29  1  0  0  0  0
 29 35  1  0  0  0  0
 29 30  2  0  0  0  0
 30  1  1  0  0  0  0
 31 30  1  0  0  0  0
 32 31  2  0  0  0  0
 33 28  2  0  0  0  0
 33 32  1  0  0  0  0
 34 28  1  0  0  0  0
 36 32  1  0  0  0  0
 36 37  2  0  0  0  0
 37 38  1  0  0  0  0
 39 37  1  0  0  0  0
 40 42  2  0  0  0  0
 40 39  1  0  0  0  0
 41 40  1  0  0  0  0
 42 36  1  0  0  0  0
M  END
>  <minimizedAffinity>
-5.63339996

$$$$

 OpenBabel03242512533D

 42 46  0  0  1  0  0  0  0  0999 V2000
   37.1500   25.6250   40.7530 N   0  0  0  0  0  0  0  0  0  0  0  0
   36.3950   25.2680   39.5600 C   0  0  0  0  0  0  0  0  0  0  0  0
   35.9390   23.8970   40.0140 C   0  0  0  0  0  0  0  0  0  0  0  0
   37.2590   23.2920   40.4170 C   0  0  0  0  0  0  0  0  0  0  0  0
   37.9570   24.4320   41.1200 C   0  0  1  0  0  0  0  0  0  0  0  0
   37.0580   25.1340   38.7010 H   0  0  0  0  0  0  0  0  0  0  0  0
   35.5680   25.9500   39.3670 H   0  0  0  0  0  0  0  0  0  0  0  0
   35.5500   23.2930   39.1820 H   0  0  0  0  0  0  0  0  0  0  0  0
   35.2540   23.9790   40.8680 H   0  0  0  0  0  0  0  0  0  0  0  0
   37.8250   22.9900   39.5140 H   0  0  0  0  0  0  0  0  0  0  0  0
   37.1000   22.4180   41.0510 H   0  0  0  0  0  0  0  0  0  0  0  0
   37.7670   24.3110   42.1480 H   0  0  0  0  0  0  0  0  0  0  0  0
   39.2900   24.7010   40.6220 C   0  0  0  0  0  0  0  0  0  0  0  0
   39.5750   24.6140   39.2980 N   0  0  0  0  0  0  0  0  0  0  0  0
   40.7860   24.8340   38.7570 C   0  0  0  0  0  0  0  0  0  0  0  0
   41.7890   25.1660   39.5740 N   0  0  0  0  0  0  0  0  0  0  0  0
   41.5670   25.2670   40.8840 C   0  0  0  0  0  0  0  0  0  0  0  0
   42.6520   25.6190   41.6750 C   0  0  0  0  0  0  0  0  0  0  0  0
   42.4220   25.7290   43.0410 C   0  0  0  0  0  0  0  0  0  0  0  0
   41.1940   25.5100   43.6570 C   0  0  0  0  0  0  0  0  0  0  0  0
   40.1750   25.1640   42.7880 C   0  0  0  0  0  0  0  0  0  0  0  0
   40.3330   25.0420   41.4570 C   0  0  0  0  0  0  0  0  0  0  0  0
   40.9200   24.7400   37.6790 H   0  0  0  0  0  0  0  0  0  0  0  0
   43.6350   25.8030   41.2640 H   0  0  0  0  0  0  0  0  0  0  0  0
   43.3010   26.0090   43.6320 H   0  0  0  0  0  0  0  0  0  0  0  0
   41.1060   25.6160   44.7160 H   0  0  0  0  0  0  0  0  0  0  0  0
   39.2650   24.9830   43.2710 H   0  0  0  0  0  0  0  0  0  0  0  0
   37.0960   28.1270   43.5160 C   0  0  0  0  0  0  0  0  0  0  0  0
   37.0240   26.8940   42.8850 C   0  0  0  0  0  0  0  0  0  0  0  0
   37.1990   26.8140   41.5130 C   0  0  0  0  0  0  0  0  0  0  0  0
   37.4360   27.9720   40.8380 N   0  0  0  0  0  0  0  0  0  0  0  0
   37.5070   29.1830   41.4580 C   0  0  0  0  0  0  0  0  0  0  0  0
   37.3310   29.2390   42.8150 N   0  0  0  0  0  0  0  0  0  0  0  0
   36.9650   28.2260   44.5920 H   0  0  0  0  0  0  0  0  0  0  0  0
   36.8170   26.0340   43.4520 H   0  0  0  0  0  0  0  0  0  0  0  0
   37.7690   30.3800   40.6250 C   0  0  0  0  0  0  0  0  0  0  0  0
   38.9120   30.3460   39.6990 C   0  0  0  0  0  0  0  0  0  0  0  0
   39.5800   29.5360   39.5670 H   0  0  0  0  0  0  0  0  0  0  0  0
   38.8630   31.9320   38.9210 S   0  0  0  0  0  0  0  0  0  0  0  0
   37.3150   32.4570   39.9270 C   0  0  0  0  0  0  0  0  0  0  0  0
   36.5660   33.3730   40.0730 H   0  0  0  0  0  0  0  0  0  0  0  0
   37.1360   31.5360   40.5500 N   0  0  0  0  0  0  0  0  0  0  0  0
  1  5  1  0  0  0  0
  1 30  1  0  0  0  0
  2  3  1  0  0  0  0
  2  1  1  0  0  0  0
  3  4  1  0  0  0  0
  3  9  1  0  0  0  0
  4 11  1  0  0  0  0
  4  5  1  0  0  0  0
  5 12  1  1  0  0  0
  6  2  1  0  0  0  0
  7  2  1  0  0  0  0
  8  3  1  0  0  0  0
 10  4  1  0  0  0  0
 13  5  1  0  0  0  0
 13 22  1  0  0  0  0
 14 13  2  0  0  0  0
 15 14  1  0  0  0  0
 15 16  2  0  0  0  0
 16 17  1  0  0  0  0
 17 22  2  0  0  0  0
 17 18  1  0  0  0  0
 18 19  2  0  0  0  0
 19 25  1  0  0  0  0
 19 20  1  0  0  0  0
 20 26  1  0  0  0  0
 21 27  1  0  0  0  0
 21 20  2  0  0  0  0
 22 21  1  0  0  0  0
 23 15  1  0  0  0  0
 24 18  1  0  0  0  0
 28 34  1  0  0  0  0
 29 35  1  0  0  0  0
 29 28  1  0  0  0  0
 30 29  2  0  0  0  0
 31 32  2  0  0  0  0
 31 30  1  0  0  0  0
 32 33  1  0  0  0  0
 33 28  2  0  0  0  0
 36 32  1  0  0  0  0
 37 36  2  0  0  0  0
 38 37  1  0  0  0  0
 39 37  1  0  0  0  0
 39 40  1  0  0  0  0
 40 41  1  0  0  0  0
 40 42  2  0  0  0  0
 42 36  1  0  0  0  0
M  END
>  <minimizedAffinity>
-5.61951303

$$$$

 OpenBabel03242512533D

 42 46  0  0  1  0  0  0  0  0999 V2000
   36.6540   27.8140   38.8630 N   0  0  0  0  0  0  0  0  0  0  0  0
   36.5300   27.4310   37.4630 C   0  0  0  0  0  0  0  0  0  0  0  0
   35.4030   26.4320   37.6290 C   0  0  0  0  0  0  0  0  0  0  0  0
   35.9720   25.5590   38.7170 C   0  0  0  0  0  0  0  0  0  0  0  0
   36.6120   26.5560   39.6550 C   0  0  1  0  0  0  0  0  0  0  0  0
   37.4150   26.8860   37.1240 H   0  0  0  0  0  0  0  0  0  0  0  0
   36.2650   28.2690   36.8200 H   0  0  0  0  0  0  0  0  0  0  0  0
   35.2800   25.7960   36.7400 H   0  0  0  0  0  0  0  0  0  0  0  0
   34.4830   26.9360   37.9530 H   0  0  0  0  0  0  0  0  0  0  0  0
   36.7380   24.8800   38.2940 H   0  0  0  0  0  0  0  0  0  0  0  0
   35.1830   24.9660   39.1820 H   0  0  0  0  0  0  0  0  0  0  0  0
   35.9040   26.7610   40.4050 H   0  0  0  0  0  0  0  0  0  0  0  0
   37.9930   26.2580   39.9760 C   0  0  0  0  0  0  0  0  0  0  0  0
   38.8330   25.7390   39.0460 N   0  0  0  0  0  0  0  0  0  0  0  0
   40.1210   25.4220   39.2660 C   0  0  0  0  0  0  0  0  0  0  0  0
   40.6200   25.6320   40.4870 N   0  0  0  0  0  0  0  0  0  0  0  0
   39.8410   26.1400   41.4400 C   0  0  0  0  0  0  0  0  0  0  0  0
   40.4250   26.3360   42.6850 C   0  0  0  0  0  0  0  0  0  0  0  0
   39.6150   26.8700   43.6790 C   0  0  0  0  0  0  0  0  0  0  0  0
   38.2760   27.2130   43.5110 C   0  0  0  0  0  0  0  0  0  0  0  0
   37.7850   26.9820   42.2390 C   0  0  0  0  0  0  0  0  0  0  0  0
   38.5180   26.4690   41.2340 C   0  0  0  0  0  0  0  0  0  0  0  0
   40.7210   25.0080   38.4540 H   0  0  0  0  0  0  0  0  0  0  0  0
   41.4580   26.0910   42.8860 H   0  0  0  0  0  0  0  0  0  0  0  0
   40.1100   27.0110   44.6460 H   0  0  0  0  0  0  0  0  0  0  0  0
   37.7270   27.6180   44.3320 H   0  0  0  0  0  0  0  0  0  0  0  0
   36.7730   27.2270   42.1380 H   0  0  0  0  0  0  0  0  0  0  0  0
   36.1900   30.8330   40.9990 C   0  0  0  0  0  0  0  0  0  0  0  0
   35.9510   29.5750   40.4680 C   0  0  0  0  0  0  0  0  0  0  0  0
   36.7880   29.0750   39.4830 C   0  0  0  0  0  0  0  0  0  0  0  0
   37.8230   29.8600   39.0760 N   0  0  0  0  0  0  0  0  0  0  0  0
   38.0570   31.0960   39.5980 C   0  0  0  0  0  0  0  0  0  0  0  0
   37.2180   31.5700   40.5710 N   0  0  0  0  0  0  0  0  0  0  0  0
   35.5540   31.2550   41.7740 H   0  0  0  0  0  0  0  0  0  0  0  0
   35.1240   29.0190   40.8040 H   0  0  0  0  0  0  0  0  0  0  0  0
   39.2130   31.8660   39.0800 C   0  0  0  0  0  0  0  0  0  0  0  0
   39.8790   31.3830   37.8600 C   0  0  0  0  0  0  0  0  0  0  0  0
   39.6100   30.5230   37.3050 H   0  0  0  0  0  0  0  0  0  0  0  0
   41.1690   32.5610   37.5970 S   0  0  0  0  0  0  0  0  0  0  0  0
   40.6670   33.5650   39.1540 C   0  0  0  0  0  0  0  0  0  0  0  0
   40.9740   34.5340   39.7750 H   0  0  0  0  0  0  0  0  0  0  0  0
   39.7910   32.9640   39.5290 N   0  0  0  0  0  0  0  0  0  0  0  0
  1 30  1  0  0  0  0
  1  5  1  0  0  0  0
  2  3  1  0  0  0  0
  2  1  1  0  0  0  0
  3  9  1  0  0  0  0
  3  4  1  0  0  0  0
  4 11  1  0  0  0  0
  4  5  1  0  0  0  0
  5 13  1  0  0  0  0
  5 12  1  1  0  0  0
  6  2  1  0  0  0  0
  7  2  1  0  0  0  0
  8  3  1  0  0  0  0
 10  4  1  0  0  0  0
 13 22  1  0  0  0  0
 14 15  1  0  0  0  0
 14 13  2  0  0  0  0
 15 16  2  0  0  0  0
 16 17  1  0  0  0  0
 17 18  1  0  0  0  0
 18 24  1  0  0  0  0
 18 19  2  0  0  0  0
 19 25  1  0  0  0  0
 20 19  1  0  0  0  0
 20 26  1  0  0  0  0
 21 20  2  0  0  0  0
 22 17  2  0  0  0  0
 22 21  1  0  0  0  0
 23 15  1  0  0  0  0
 27 21  1  0  0  0  0
 28 34  1  0  0  0  0
 29 35  1  0  0  0  0
 29 28  2  0  0  0  0
 30 29  1  0  0  0  0
 31 30  2  0  0  0  0
 31 32  1  0  0  0  0
 32 33  2  0  0  0  0
 33 28  1  0  0  0  0
 36 42  1  0  0  0  0
 36 32  1  0  0  0  0
 37 36  2  0  0  0  0
 38 37  1  0  0  0  0
 39 37  1  0  0  0  0
 39 40  1  0  0  0  0
 40 42  2  0  0  0  0
 40 41  1  0  0  0  0
M  END
>  <minimizedAffinity>
-5.57278633

$$$$

 OpenBabel03242512533D

 42 46  0  0  1  0  0  0  0  0999 V2000
   40.4950   28.8820   42.3290 N   0  0  0  0  0  0  0  0  0  0  0  0
   41.8380   28.3240   42.4100 C   0  0  0  0  0  0  0  0  0  0  0  0
   42.4810   29.4600   43.1790 C   0  0  0  0  0  0  0  0  0  0  0  0
   42.0810   30.6300   42.3180 C   0  0  0  0  0  0  0  0  0  0  0  0
   40.6500   30.3130   41.9520 C   0  0  1  0  0  0  0  0  0  0  0  0
   42.3060   28.2790   41.4230 H   0  0  0  0  0  0  0  0  0  0  0  0
   41.8670   27.3770   42.9470 H   0  0  0  0  0  0  0  0  0  0  0  0
   43.5790   29.4060   43.1560 H   0  0  0  0  0  0  0  0  0  0  0  0
   42.0550   29.5360   44.1880 H   0  0  0  0  0  0  0  0  0  0  0  0
   42.7140   30.6630   41.4100 H   0  0  0  0  0  0  0  0  0  0  0  0
   42.1950   31.5660   42.8690 H   0  0  0  0  0  0  0  0  0  0  0  0
   40.0430   30.8180   42.6480 H   0  0  0  0  0  0  0  0  0  0  0  0
   40.3810   30.3680   40.5300 C   0  0  0  0  0  0  0  0  0  0  0  0
   41.2090   29.7690   39.6370 N   0  0  0  0  0  0  0  0  0  0  0  0
   41.0390   29.7850   38.3030 C   0  0  0  0  0  0  0  0  0  0  0  0
   39.9780   30.4310   37.8120 N   0  0  0  0  0  0  0  0  0  0  0  0
   39.1310   31.0370   38.6430 C   0  0  0  0  0  0  0  0  0  0  0  0
   38.0480   31.6870   38.0660 C   0  0  0  0  0  0  0  0  0  0  0  0
   37.1610   32.3150   38.9320 C   0  0  0  0  0  0  0  0  0  0  0  0
   37.2880   32.3360   40.3180 C   0  0  0  0  0  0  0  0  0  0  0  0
   38.3970   31.6630   40.7980 C   0  0  0  0  0  0  0  0  0  0  0  0
   39.2910   31.0340   40.0130 C   0  0  0  0  0  0  0  0  0  0  0  0
   41.7580   29.2750   37.6610 H   0  0  0  0  0  0  0  0  0  0  0  0
   37.8880   31.7120   36.9970 H   0  0  0  0  0  0  0  0  0  0  0  0
   36.3200   32.8170   38.4400 H   0  0  0  0  0  0  0  0  0  0  0  0
   36.5580   32.8450   40.9080 H   0  0  0  0  0  0  0  0  0  0  0  0
   38.4860   31.7070   41.8390 H   0  0  0  0  0  0  0  0  0  0  0  0
   37.0460   28.1360   43.5290 C   0  0  0  0  0  0  0  0  0  0  0  0
   38.2600   28.7960   43.4090 C   0  0  0  0  0  0  0  0  0  0  0  0
   39.2240   28.3070   42.5420 C   0  0  0  0  0  0  0  0  0  0  0  0
   38.9270   27.1800   41.8390 N   0  0  0  0  0  0  0  0  0  0  0  0
   37.7350   26.5320   41.9570 C   0  0  0  0  0  0  0  0  0  0  0  0
   36.7960   27.0330   42.8190 N   0  0  0  0  0  0  0  0  0  0  0  0
   36.2660   28.4930   44.1980 H   0  0  0  0  0  0  0  0  0  0  0  0
   38.4450   29.6500   43.9920 H   0  0  0  0  0  0  0  0  0  0  0  0
   37.5190   25.3130   41.1430 C   0  0  0  0  0  0  0  0  0  0  0  0
   36.9280   25.4660   39.8040 C   0  0  0  0  0  0  0  0  0  0  0  0
   36.6350   26.3780   39.3550 H   0  0  0  0  0  0  0  0  0  0  0  0
   36.8480   23.8090   39.1940 S   0  0  0  0  0  0  0  0  0  0  0  0
   37.6150   23.1030   40.8060 C   0  0  0  0  0  0  0  0  0  0  0  0
   37.9420   22.0720   41.3060 H   0  0  0  0  0  0  0  0  0  0  0  0
   37.7700   24.0430   41.4050 N   0  0  0  0  0  0  0  0  0  0  0  0
  1  2  1  0  0  0  0
  1 30  1  0  0  0  0
  2  7  1  0  0  0  0
  2  3  1  0  0  0  0
  3  9  1  0  0  0  0
  4 11  1  0  0  0  0
  4  3  1  0  0  0  0
  5  4  1  0  0  0  0
  5  1  1  0  0  0  0
  5 12  1  1  0  0  0
  6  2  1  0  0  0  0
  8  3  1  0  0  0  0
 10  4  1  0  0  0  0
 13  5  1  0  0  0  0
 14 13  2  0  0  0  0
 15 14  1  0  0  0  0
 16 15  2  0  0  0  0
 16 17  1  0  0  0  0
 17 22  1  0  0  0  0
 18 17  2  0  0  0  0
 18 19  1  0  0  0  0
 19 20  2  0  0  0  0
 20 21  1  0  0  0  0
 20 26  1  0  0  0  0
 21 27  1  0  0  0  0
 22 13  1  0  0  0  0
 22 21  2  0  0  0  0
 23 15  1  0  0  0  0
 24 18  1  0  0  0  0
 25 19  1  0  0  0  0
 28 34  1  0  0  0  0
 29 28  1  0  0  0  0
 29 35  1  0  0  0  0
 30 29  2  0  0  0  0
 31 32  2  0  0  0  0
 31 30  1  0  0  0  0
 32 33  1  0  0  0  0
 33 28  2  0  0  0  0
 36 42  1  0  0  0  0
 36 32  1  0  0  0  0
 37 36  2  0  0  0  0
 38 37  1  0  0  0  0
 39 37  1  0  0  0  0
 39 40  1  0  0  0  0
 40 41  1  0  0  0  0
 40 42  2  0  0  0  0
M  END
>  <minimizedAffinity>
-5.47663116

$$$$

 OpenBabel03242512533D

 42 46  0  0  1  0  0  0  0  0999 V2000
   37.9980   27.7310   40.8050 N   0  0  0  0  0  0  0  0  0  0  0  0
   38.4480   26.7230   41.7560 C   0  0  0  0  0  0  0  0  0  0  0  0
   37.1670   26.6160   42.5560 C   0  0  0  0  0  0  0  0  0  0  0  0
   36.9280   28.0670   42.8820 C   0  0  0  0  0  0  0  0  0  0  0  0
   37.2830   28.7700   41.5930 C   0  0  1  0  0  0  0  0  0  0  0  0
   39.2230   27.1230   42.4150 H   0  0  0  0  0  0  0  0  0  0  0  0
   38.7290   25.7880   41.2740 H   0  0  0  0  0  0  0  0  0  0  0  0
   37.3180   26.0930   43.5120 H   0  0  0  0  0  0  0  0  0  0  0  0
   36.3590   26.2010   41.9400 H   0  0  0  0  0  0  0  0  0  0  0  0
   37.6080   28.3870   43.6960 H   0  0  0  0  0  0  0  0  0  0  0  0
   35.8940   28.2230   43.1950 H   0  0  0  0  0  0  0  0  0  0  0  0
   36.3810   28.9030   41.0650 H   0  0  0  0  0  0  0  0  0  0  0  0
   38.2320   29.8520   41.7550 C   0  0  0  0  0  0  0  0  0  0  0  0
   39.2880   29.7360   42.5990 N   0  0  0  0  0  0  0  0  0  0  0  0
   40.2060   30.6950   42.8170 C   0  0  0  0  0  0  0  0  0  0  0  0
   40.0770   31.8490   42.1560 N   0  0  0  0  0  0  0  0  0  0  0  0
   39.0590   32.0180   41.3140 C   0  0  0  0  0  0  0  0  0  0  0  0
   38.9880   33.2400   40.6580 C   0  0  0  0  0  0  0  0  0  0  0  0
   37.9300   33.4160   39.7760 C   0  0  0  0  0  0  0  0  0  0  0  0
   36.9500   32.4630   39.5130 C   0  0  0  0  0  0  0  0  0  0  0  0
   37.1050   31.2800   40.2130 C   0  0  0  0  0  0  0  0  0  0  0  0
   38.1080   31.0470   41.0800 C   0  0  0  0  0  0  0  0  0  0  0  0
   41.0220   30.5120   43.5160 H   0  0  0  0  0  0  0  0  0  0  0  0
   39.7140   34.0260   40.8140 H   0  0  0  0  0  0  0  0  0  0  0  0
   37.9070   34.3910   39.2770 H   0  0  0  0  0  0  0  0  0  0  0  0
   36.1700   32.6830   38.8190 H   0  0  0  0  0  0  0  0  0  0  0  0
   36.3490   30.5840   40.0180 H   0  0  0  0  0  0  0  0  0  0  0  0
   37.4540   27.5480   37.1220 C   0  0  0  0  0  0  0  0  0  0  0  0
   37.2000   27.3960   38.4770 C   0  0  0  0  0  0  0  0  0  0  0  0
   38.1350   27.8280   39.4040 C   0  0  0  0  0  0  0  0  0  0  0  0
   39.2800   28.3900   38.9300 N   0  0  0  0  0  0  0  0  0  0  0  0
   39.5290   28.5410   37.5990 C   0  0  0  0  0  0  0  0  0  0  0  0
   38.5910   28.1070   36.7010 N   0  0  0  0  0  0  0  0  0  0  0  0
   36.7410   27.2220   36.3680 H   0  0  0  0  0  0  0  0  0  0  0  0
   36.3080   26.9350   38.7880 H   0  0  0  0  0  0  0  0  0  0  0  0
   40.8100   29.1660   37.1940 C   0  0  0  0  0  0  0  0  0  0  0  0
   41.8270   28.3160   36.5540 C   0  0  0  0  0  0  0  0  0  0  0  0
   41.7330   27.2820   36.3510 H   0  0  0  0  0  0  0  0  0  0  0  0
   43.1630   29.4300   36.2420 S   0  0  0  0  0  0  0  0  0  0  0  0
   42.2030   30.9070   37.0060 C   0  0  0  0  0  0  0  0  0  0  0  0
   42.3150   32.0710   37.2330 H   0  0  0  0  0  0  0  0  0  0  0  0
   41.2380   30.4100   37.3040 N   0  0  0  0  0  0  0  0  0  0  0  0
  1  5  1  0  0  0  0
  1  2  1  0  0  0  0
  2  6  1  0  0  0  0
  2  3  1  0  0  0  0
  3  4  1  0  0  0  0
  3  8  1  0  0  0  0
  4 11  1  0  0  0  0
  4 10  1  0  0  0  0
  5 12  1  6  0  0  0
  5 13  1  0  0  0  0
  5  4  1  0  0  0  0
  7  2  1  0  0  0  0
  9  3  1  0  0  0  0
 13 14  1  0  0  0  0
 14 15  2  0  0  0  0
 15 23  1  0  0  0  0
 16 15  1  0  0  0  0
 17 16  2  0  0  0  0
 18 24  1  0  0  0  0
 18 17  1  0  0  0  0
 19 18  2  0  0  0  0
 20 19  1  0  0  0  0
 20 21  2  0  0  0  0
 21 22  1  0  0  0  0
 22 17  1  0  0  0  0
 22 13  2  0  0  0  0
 25 19  1  0  0  0  0
 26 20  1  0  0  0  0
 27 21  1  0  0  0  0
 28 29  1  0  0  0  0
 29 35  1  0  0  0  0
 29 30  2  0  0  0  0
 30  1  1  0  0  0  0
 31 30  1  0  0  0  0
 32 31  2  0  0  0  0
 33 28  2  0  0  0  0
 33 32  1  0  0  0  0
 34 28  1  0  0  0  0
 36 42  1  0  0  0  0
 36 32  1  0  0  0  0
 37 36  2  0  0  0  0
 38 37  1  0  0  0  0
 39 37  1  0  0  0  0
 39 40  1  0  0  0  0
 40 41  1  0  0  0  0
 40 42  2  0  0  0  0
M  END
>  <minimizedAffinity>
-5.41353369

$$$$
