
 OpenBabel03252509143D

 43 47  0  0  1  0  0  0  0  0999 V2000
   47.1610   32.9240   43.0750 C   0  0  0  0  0  0  0  0  0  0  0  0
   46.3590   33.6160   42.1630 C   0  0  0  0  0  0  0  0  0  0  0  0
   45.3290   34.4550   42.5560 C   0  0  0  0  0  0  0  0  0  0  0  0
   45.0760   34.6210   43.9270 C   0  0  0  0  0  0  0  0  0  0  0  0
   44.1930   35.3270   44.6630 N   0  0  0  0  0  0  0  0  0  0  0  0
   44.4090   35.1070   45.9770 C   0  0  0  0  0  0  0  0  0  0  0  0
   45.4410   34.2520   46.0300 N   0  0  0  0  0  0  0  0  0  0  0  0
   45.8760   33.9330   44.8010 C   0  0  0  0  0  0  0  0  0  0  0  0
   46.9120   33.0860   44.4370 C   0  0  0  0  0  0  0  0  0  0  0  0
   47.9620   32.2730   42.7130 H   0  0  0  0  0  0  0  0  0  0  0  0
   43.4970   35.9200   44.1450 H   0  0  0  0  0  0  0  0  0  0  0  0
   43.8090   35.5810   46.7320 H   0  0  0  0  0  0  0  0  0  0  0  0
   47.5250   32.5580   45.1500 H   0  0  0  0  0  0  0  0  0  0  0  0
   46.1410   32.3450   38.7360 C   0  0  0  0  0  0  0  0  0  0  0  0
   47.0810   33.1370   38.0500 C   0  0  0  0  0  0  0  0  0  0  0  0
   47.7760   34.1020   38.7920 C   0  0  0  0  0  0  0  0  0  0  0  0
   47.5240   34.2400   40.1330 N   0  0  0  0  0  0  0  0  0  0  0  0
   46.6110   33.4530   40.7370 C   0  0  0  0  0  0  0  0  0  0  0  0
   45.9060   32.5000   40.0740 N   0  0  0  0  0  0  0  0  0  0  0  0
   45.5680   31.5810   38.2310 H   0  0  0  0  0  0  0  0  0  0  0  0
   47.2400   32.9850   36.9900 H   0  0  0  0  0  0  0  0  0  0  0  0
   48.5040   34.7220   38.2840 H   0  0  0  0  0  0  0  0  0  0  0  0
   44.3230   35.3230   41.3950 S   0  0  0  0  0  0  0  0  0  0  0  0
   42.2150   33.7920   41.7370 N   0  0  0  0  0  0  0  0  0  0  0  0
   43.0150   34.3140   40.6590 C   0  0  1  0  0  0  0  0  0  0  0  0
   42.2140   35.2520   39.7600 C   0  0  0  0  0  0  0  0  0  0  0  0
   40.9390   34.7970   39.4940 O   0  0  0  0  0  0  0  0  0  0  0  0
   40.6850   33.5050   39.8490 C   0  0  0  0  0  0  0  0  0  0  0  0
   40.9140   33.3220   41.3150 C   0  0  1  0  0  0  0  0  0  0  0  0
   42.1090   34.5460   42.4500 H   0  0  0  0  0  0  0  0  0  0  0  0
   43.4590   33.5030   40.0360 H   0  0  0  0  0  0  0  0  0  0  0  0
   42.1550   36.2680   40.2330 H   0  0  0  0  0  0  0  0  0  0  0  0
   42.6960   35.2780   38.7750 H   0  0  0  0  0  0  0  0  0  0  0  0
   39.6090   33.3170   39.6650 H   0  0  0  0  0  0  0  0  0  0  0  0
   41.2280   32.7520   39.2320 H   0  0  0  0  0  0  0  0  0  0  0  0
   40.1310   33.8480   41.8870 H   0  0  0  0  0  0  0  0  0  0  0  0
   40.7930   31.8770   41.6270 C   0  0  0  0  0  0  0  0  0  0  0  0
   40.9540   30.9090   40.5100 C   0  0  0  0  0  0  0  0  0  0  0  0
   41.1830   31.3450   39.3600 H   0  0  0  0  0  0  0  0  0  0  0  0
   40.7280   29.2430   41.3450 S   0  0  0  0  0  0  0  0  0  0  0  0
   40.4660   30.1370   42.9960 C   0  0  0  0  0  0  0  0  0  0  0  0
   40.2830   29.4220   43.8310 H   0  0  0  0  0  0  0  0  0  0  0  0
   40.5570   31.2390   42.7650 N   0  0  0  0  0  0  0  0  0  0  0  0
  1  9  1  0  0  0  0
  2  3  1  0  0  0  0
  2  1  2  0  0  0  0
  3  4  2  0  0  0  0
  4  5  1  0  0  0  0
  4  8  1  0  0  0  0
  5  6  1  0  0  0  0
  6  7  2  0  0  0  0
  6 12  1  0  0  0  0
  8  7  1  0  0  0  0
  9  8  2  0  0  0  0
  9 13  1  0  0  0  0
 10  1  1  0  0  0  0
 11  5  1  0  0  0  0
 14 19  1  0  0  0  0
 15 14  2  0  0  0  0
 15 16  1  0  0  0  0
 16 17  2  0  0  0  0
 17 18  1  0  0  0  0
 18  2  1  0  0  0  0
 19 18  2  0  0  0  0
 20 14  1  0  0  0  0
 21 15  1  0  0  0  0
 22 16  1  0  0  0  0
 23  3  1  0  0  0  0
 24 30  1  0  0  0  0
 25 31  1  6  0  0  0
 25 23  1  0  0  0  0
 25 24  1  0  0  0  0
 26 32  1  0  0  0  0
 26 25  1  0  0  0  0
 27 26  1  0  0  0  0
 27 28  1  0  0  0  0
 28 29  1  0  0  0  0
 29 37  1  0  0  0  0
 29 24  1  0  0  0  0
 29 36  1  1  0  0  0
 33 26  1  0  0  0  0
 34 28  1  0  0  0  0
 35 28  1  0  0  0  0
 37 43  1  0  0  0  0
 38 40  1  0  0  0  0
 38 37  2  0  0  0  0
 39 38  1  0  0  0  0
 40 41  1  0  0  0  0
 41 42  1  0  0  0  0
 43 41  2  0  0  0  0
M  END
>  <minimizedAffinity>
-5.81585455

>  <minimizedRMSD>
2.40186524

$$$$
