
 OpenBabel03252504423D

 43 46  0  0  0  0  0  0  0  0999 V2000
   46.3480   32.2080   47.8290 C   0  0  0  0  0  0  0  0  0  0  0  0
   45.8810   31.7730   49.0400 C   0  0  0  0  0  0  0  0  0  0  0  0
   46.8900   31.1020   49.6080 N   0  0  0  0  0  0  0  0  0  0  0  0
   47.9670   31.0950   48.8140 C   0  0  0  0  0  0  0  0  0  0  0  0
   47.6090   31.7960   47.6980 N   0  0  0  0  0  0  0  0  0  0  0  0
   49.2510   30.5230   48.9800 N   0  0  0  0  0  0  0  0  0  0  0  0
   50.2800   31.3210   49.6690 C   0  0  0  0  0  0  0  0  0  0  0  0
   50.3830   30.7030   51.0600 C   0  0  0  0  0  0  0  0  0  0  0  0
   50.5030   29.2030   50.9560 C   0  0  0  0  0  0  0  0  0  0  0  0
   50.8760   28.8090   49.5430 C   0  0  0  0  0  0  0  0  0  0  0  0
   49.7980   29.2460   48.5920 C   0  0  0  0  0  0  0  0  0  0  0  0
   44.8960   31.9260   49.4770 H   0  0  0  0  0  0  0  0  0  0  0  0
   46.8700   30.6360   50.5440 H   0  0  0  0  0  0  0  0  0  0  0  0
   51.2420   31.2920   49.1460 H   0  0  0  0  0  0  0  0  0  0  0  0
   49.9530   32.3790   49.7790 H   0  0  0  0  0  0  0  0  0  0  0  0
   49.5720   31.0450   51.7100 H   0  0  0  0  0  0  0  0  0  0  0  0
   51.3240   31.0470   51.5480 H   0  0  0  0  0  0  0  0  0  0  0  0
   49.5690   28.6880   51.2970 H   0  0  0  0  0  0  0  0  0  0  0  0
   51.3180   28.7830   51.6100 H   0  0  0  0  0  0  0  0  0  0  0  0
   51.0220   27.6960   49.5220 H   0  0  0  0  0  0  0  0  0  0  0  0
   51.8510   29.2620   49.3220 H   0  0  0  0  0  0  0  0  0  0  0  0
   50.1440   29.2400   47.5510 H   0  0  0  0  0  0  0  0  0  0  0  0
   48.9630   28.4990   48.7210 H   0  0  0  0  0  0  0  0  0  0  0  0
   45.5900   33.0090   46.8170 C   0  0  0  0  0  0  0  0  0  0  0  0
   45.2670   33.9910   47.2240 H   0  0  0  0  0  0  0  0  0  0  0  0
   44.6510   32.4300   46.6330 H   0  0  0  0  0  0  0  0  0  0  0  0
   45.9510   33.9320   44.5700 C   0  0  0  0  0  3  0  0  0  0  0  0
   46.3850   33.2170   45.5990 C   0  0  0  0  0  3  0  0  0  0  0  0
   46.8480   34.0600   43.4130 C   0  0  0  0  0  0  0  0  0  0  0  0
   46.7100   35.0680   42.4320 C   0  0  0  0  0  0  0  0  0  0  0  0
   47.5990   35.1080   41.3870 C   0  0  0  0  0  0  0  0  0  0  0  0
   48.5800   34.1860   41.3230 N   0  0  0  0  0  0  0  0  0  0  0  0
   48.6990   33.2290   42.2660 C   0  0  0  0  0  0  0  0  0  0  0  0
   47.8610   33.1600   43.2850 N   0  0  0  0  0  0  0  0  0  0  0  0
   45.8970   35.7650   42.5630 H   0  0  0  0  0  0  0  0  0  0  0  0
   47.5110   35.8730   40.6280 H   0  0  0  0  0  0  0  0  0  0  0  0
   49.7470   32.1830   42.2640 C   0  0  0  0  0  0  0  0  0  0  0  0
   51.1060   32.1220   41.6140 C   0  0  0  0  0  0  0  0  0  0  0  0
   51.1740   33.1960   41.0420 H   0  0  0  0  0  0  0  0  0  0  0  0
   51.6060   30.4010   42.2250 S   0  0  0  0  0  0  0  0  0  0  0  0
   49.9820   30.1500   43.1640 C   0  0  0  0  0  0  0  0  0  0  0  0
   50.0650   29.1730   43.6110 H   0  0  0  0  0  0  0  0  0  0  0  0
   49.2560   31.1920   43.0050 N   0  0  0  0  0  0  0  0  0  0  0  0
  1  2  2  0  0  0  0
  2 12  1  0  0  0  0
  2  3  1  0  0  0  0
  3 13  1  0  0  0  0
  4  6  1  0  0  0  0
  4  3  1  0  0  0  0
  5  1  1  0  0  0  0
  5  4  2  0  0  0  0
  6  7  1  0  0  0  0
  7 15  1  0  0  0  0
  7  8  1  0  0  0  0
  8 17  1  0  0  0  0
  8 16  1  0  0  0  0
  9  8  1  0  0  0  0
  9 18  1  0  0  0  0
  9 19  1  0  0  0  0
 10  9  1  0  0  0  0
 11 23  1  0  0  0  0
 11  6  1  0  0  0  0
 11 10  1  0  0  0  0
 14  7  1  0  0  0  0
 20 10  1  0  0  0  0
 21 10  1  0  0  0  0
 22 11  1  0  0  0  0
 24 25  1  0  0  0  0
 24  1  1  0  0  0  0
 26 24  1  0  0  0  0
 27 28  2  0  0  0  0
 28 24  1  0  0  0  0
 29 27  1  0  0  0  0
 30 35  1  0  0  0  0
 30 29  2  0  0  0  0
 31 30  1  0  0  0  0
 32 31  2  0  0  0  0
 32 33  1  0  0  0  0
 33 34  2  0  0  0  0
 34 29  1  0  0  0  0
 36 31  1  0  0  0  0
 37 33  1  0  0  0  0
 37 43  1  0  0  0  0
 38 40  1  0  0  0  0
 38 37  2  0  0  0  0
 39 38  1  0  0  0  0
 40 41  1  0  0  0  0
 41 42  1  0  0  0  0
 43 41  2  0  0  0  0
M  END
>  <minimizedAffinity>
-5.86027098

>  <minimizedRMSD>
0.394514292

$$$$
