
 OpenBabel03252500143D

 36 39  0  0  0  0  0  0  0  0999 V2000
   45.5150   32.3610   40.4950 Cl  0  0  0  0  0  0  0  0  0  0  0  0
   46.8100   33.4730   40.1540 C   0  0  0  0  0  0  0  0  0  0  0  0
   47.3860   34.2100   41.1600 C   0  0  0  0  0  0  0  0  0  0  0  0
   48.4250   35.1080   40.9210 C   0  0  0  0  0  0  0  0  0  0  0  0
   48.8420   35.2150   39.6130 C   0  0  0  0  0  0  0  0  0  0  0  0
   48.2650   34.4760   38.5970 C   0  0  0  0  0  0  0  0  0  0  0  0
   47.2710   33.6200   38.8480 C   0  0  0  0  0  0  0  0  0  0  0  0
   48.8640   35.6770   41.7190 H   0  0  0  0  0  0  0  0  0  0  0  0
   49.6440   35.8900   39.3360 H   0  0  0  0  0  0  0  0  0  0  0  0
   48.6060   34.5710   37.5720 H   0  0  0  0  0  0  0  0  0  0  0  0
   46.8900   32.8930   44.5570 C   0  0  0  0  0  0  0  0  0  0  0  0
   45.9520   33.8010   45.1060 C   0  0  0  0  0  0  0  0  0  0  0  0
   45.5100   34.8410   44.3070 C   0  0  0  0  0  0  0  0  0  0  0  0
   46.0030   34.9320   43.0370 N   0  0  0  0  0  0  0  0  0  0  0  0
   46.8970   34.0520   42.5370 C   0  0  0  0  0  0  0  0  0  0  0  0
   47.3280   33.0470   43.3000 N   0  0  0  0  0  0  0  0  0  0  0  0
   47.2140   32.0890   45.2170 H   0  0  0  0  0  0  0  0  0  0  0  0
   45.5590   33.7320   46.1160 H   0  0  0  0  0  0  0  0  0  0  0  0
   44.5160   35.8740   44.7660 C   0  0  0  0  0  0  0  0  0  0  0  0
   44.9850   37.1330   44.5360 F   0  0  0  0  0  0  0  0  0  0  0  0
   43.3330   35.6860   44.0730 F   0  0  0  0  0  0  0  0  0  0  0  0
   44.3080   35.6340   46.1060 F   0  0  0  0  0  0  0  0  0  0  0  0
   46.6420   32.8310   37.8070 C   0  0  0  0  0  0  0  0  0  0  0  0
   45.6150   33.2520   36.9840 C   0  0  0  0  0  0  0  0  0  0  0  0
   45.2560   32.2570   36.1130 C   0  0  0  0  0  0  0  0  0  0  0  0
   46.1130   31.2340   36.4550 C   0  0  0  0  0  0  0  0  0  0  0  0
   46.9080   31.5920   37.4400 O   0  0  0  0  0  0  0  0  0  0  0  0
   45.1670   34.2520   37.0440 H   0  0  0  0  0  0  0  0  0  0  0  0
   44.4840   32.2730   35.3410 H   0  0  0  0  0  0  0  0  0  0  0  0
   46.0810   29.9520   35.7670 C   0  0  0  0  0  0  0  0  0  0  0  0
   45.8330   30.0190   34.3230 C   0  0  0  0  0  0  0  0  0  0  0  0
   45.6480   30.8660   33.5640 H   0  0  0  0  0  0  0  0  0  0  0  0
   45.8580   28.2140   33.7640 S   0  0  0  0  0  0  0  0  0  0  0  0
   46.1940   27.7220   35.5630 C   0  0  0  0  0  0  0  0  0  0  0  0
   46.3810   26.7420   36.2900 H   0  0  0  0  0  0  0  0  0  0  0  0
   46.2250   28.7040   36.1270 N   0  0  0  0  0  0  0  0  0  0  0  0
  2  1  1  0  0  0  0
  2  3  1  0  0  0  0
  3 15  1  0  0  0  0
  4  3  2  0  0  0  0
  4  8  1  0  0  0  0
  5  4  1  0  0  0  0
  6  7  1  0  0  0  0
  6  5  2  0  0  0  0
  7  2  2  0  0  0  0
  9  5  1  0  0  0  0
 10  6  1  0  0  0  0
 11 12  1  0  0  0  0
 11 17  1  0  0  0  0
 12 18  1  0  0  0  0
 13 19  1  0  0  0  0
 13 12  2  0  0  0  0
 14 13  1  0  0  0  0
 15 14  2  0  0  0  0
 15 16  1  0  0  0  0
 16 11  2  0  0  0  0
 19 22  1  0  0  0  0
 20 19  1  0  0  0  0
 21 19  1  0  0  0  0
 23  7  1  0  0  0  0
 24 28  1  0  0  0  0
 24 23  2  0  0  0  0
 25 26  2  0  0  0  0
 25 24  1  0  0  0  0
 26 27  1  0  0  0  0
 27 23  1  0  0  0  0
 29 25  1  0  0  0  0
 30 36  1  0  0  0  0
 30 26  1  0  0  0  0
 31 30  2  0  0  0  0
 32 31  1  0  0  0  0
 33 31  1  0  0  0  0
 33 34  1  0  0  0  0
 34 36  2  0  0  0  0
 34 35  1  0  0  0  0
M  END
>  <minimizedAffinity>
-5.65914154

>  <minimizedRMSD>
0.177415624

$$$$
