
 OpenBabel03252502473D

 43 46  0  0  1  0  0  0  0  0999 V2000
   48.9370   34.8020   41.5190 C   0  0  1  0  0  0  0  0  0  0  0  0
   50.0520   34.8070   42.5240 C   0  0  0  0  0  0  0  0  0  0  0  0
   49.2970   33.5710   42.2050 C   0  0  2  0  0  0  0  0  0  0  0  0
   49.2460   35.0070   40.4970 H   0  0  0  0  0  0  0  0  0  0  0  0
   51.0880   34.9540   42.1770 H   0  0  0  0  0  0  0  0  0  0  0  0
   49.8490   35.3710   43.4650 H   0  0  0  0  0  0  0  0  0  0  0  0
   48.7660   33.1370   43.0490 H   0  0  0  0  0  0  0  0  0  0  0  0
   50.0470   32.6390   41.3610 N   0  0  0  0  0  0  0  0  0  0  0  0
   49.3350   32.1450   40.2450 C   0  0  0  0  0  0  0  0  0  0  0  0
   50.3060   31.2120   39.5380 C   0  0  0  0  0  0  0  0  0  0  0  0
   50.6450   30.0930   40.3430 N   0  0  0  0  0  0  0  0  0  0  0  0
   50.6120   30.3620   41.7690 C   0  0  0  0  0  0  0  0  0  0  0  0
   50.9780   31.8290   42.0240 C   0  0  0  0  0  0  0  0  0  0  0  0
   49.1410   32.9950   39.5400 H   0  0  0  0  0  0  0  0  0  0  0  0
   48.4090   31.5880   40.4970 H   0  0  0  0  0  0  0  0  0  0  0  0
   49.8780   30.9130   38.5680 H   0  0  0  0  0  0  0  0  0  0  0  0
   51.2470   31.8200   39.4230 H   0  0  0  0  0  0  0  0  0  0  0  0
   51.5130   29.6340   40.0400 H   0  0  0  0  0  0  0  0  0  0  0  0
   49.6350   30.1790   42.2270 H   0  0  0  0  0  0  0  0  0  0  0  0
   51.3750   29.7570   42.2720 H   0  0  0  0  0  0  0  0  0  0  0  0
   50.9000   31.9820   43.1330 H   0  0  0  0  0  0  0  0  0  0  0  0
   52.0350   31.9960   41.7350 H   0  0  0  0  0  0  0  0  0  0  0  0
   47.6590   35.4650   41.9050 C   0  0  0  0  0  0  0  0  0  0  0  0
   47.3340   36.2490   41.1590 H   0  0  0  0  0  0  0  0  0  0  0  0
   47.7730   36.0230   42.8510 H   0  0  0  0  0  0  0  0  0  0  0  0
   46.6360   34.3710   42.0670 C   0  0  0  0  0  0  0  0  0  0  0  0
   45.8160   34.5980   41.3320 H   0  0  0  0  0  0  0  0  0  0  0  0
   46.9520   33.3660   41.8420 H   0  0  0  0  0  0  0  0  0  0  0  0
   44.5020   35.7330   44.8430 C   0  0  0  0  0  0  0  0  0  0  0  0
   45.1060   35.5870   43.5680 C   0  0  0  0  0  0  0  0  0  0  0  0
   45.9690   34.5500   43.3950 C   0  0  0  0  0  0  0  0  0  0  0  0
   46.2160   33.7010   44.4410 N   0  0  0  0  0  0  0  0  0  0  0  0
   45.6520   33.8470   45.6120 C   0  0  0  0  0  0  0  0  0  0  0  0
   44.7890   34.8580   45.8370 N   0  0  0  0  0  0  0  0  0  0  0  0
   43.8150   36.5560   44.9840 H   0  0  0  0  0  0  0  0  0  0  0  0
   44.8750   36.2870   42.7760 H   0  0  0  0  0  0  0  0  0  0  0  0
   45.9430   32.9130   46.7160 C   0  0  0  0  0  0  0  0  0  0  0  0
   47.0760   32.0870   46.6610 C   0  0  0  0  0  0  0  0  0  0  0  0
   47.8130   32.0400   45.8650 H   0  0  0  0  0  0  0  0  0  0  0  0
   46.9880   31.1430   48.2260 S   0  0  0  0  0  0  0  0  0  0  0  0
   45.3850   32.0510   48.7050 C   0  0  0  0  0  0  0  0  0  0  0  0
   44.7770   31.9330   49.6030 H   0  0  0  0  0  0  0  0  0  0  0  0
   45.2320   32.7460   47.8090 N   0  0  0  0  0  0  0  0  0  0  0  0
  1  4  1  6  0  0  0
  1 23  1  0  0  0  0
  1  3  1  0  0  0  0
  1  2  1  0  0  0  0
  2  6  1  0  0  0  0
  3  2  1  0  0  0  0
  3  7  1  1  0  0  0
  5  2  1  0  0  0  0
  8 13  1  0  0  0  0
  8  3  1  0  0  0  0
  9 15  1  0  0  0  0
  9  8  1  0  0  0  0
 10  9  1  0  0  0  0
 10 11  1  0  0  0  0
 11 12  1  0  0  0  0
 12 13  1  0  0  0  0
 12 19  1  0  0  0  0
 12 20  1  0  0  0  0
 13 21  1  0  0  0  0
 14  9  1  0  0  0  0
 16 10  1  0  0  0  0
 17 10  1  0  0  0  0
 18 11  1  0  0  0  0
 22 13  1  0  0  0  0
 23 26  1  0  0  0  0
 23 25  1  0  0  0  0
 24 23  1  0  0  0  0
 26 31  1  0  0  0  0
 27 26  1  0  0  0  0
 28 26  1  0  0  0  0
 29 35  1  0  0  0  0
 29 34  1  0  0  0  0
 30 29  2  0  0  0  0
 31 30  1  0  0  0  0
 31 32  2  0  0  0  0
 32 33  1  0  0  0  0
 33 34  2  0  0  0  0
 33 37  1  0  0  0  0
 36 30  1  0  0  0  0
 37 43  1  0  0  0  0
 38 37  2  0  0  0  0
 38 40  1  0  0  0  0
 39 38  1  0  0  0  0
 40 41  1  0  0  0  0
 41 42  1  0  0  0  0
 43 41  2  0  0  0  0
M  END
>  <minimizedAffinity>
-5.64124823

>  <minimizedRMSD>
0.303317338

$$$$
