
 OpenBabel03252507033D

 36 38  0  0  0  0  0  0  0  0999 V2000
   38.7740   27.4580   42.8730 C   0  0  0  0  0  0  0  0  0  0  0  0
   39.3370   27.4400   43.8640 H   0  0  0  0  0  0  0  0  0  0  0  0
   39.2730   28.3050   42.3570 H   0  0  0  0  0  0  0  0  0  0  0  0
   38.7700   26.3650   42.1180 N   0  0  0  0  0  0  0  0  0  0  0  0
   38.5970   25.0140   42.5120 C   0  0  0  0  0  0  0  0  0  0  0  0
   37.1230   24.8290   42.0680 C   0  0  0  0  0  0  0  0  0  0  0  0
   36.9290   25.0070   40.6290 C   0  0  0  0  0  0  0  0  0  0  0  0
   37.8980   25.8110   39.8900 C   0  0  0  0  0  0  0  0  0  0  0  0
   38.9200   26.5910   40.6730 C   0  0  0  0  0  0  0  0  0  0  0  0
   38.6120   24.8780   43.6040 H   0  0  0  0  0  0  0  0  0  0  0  0
   39.1820   24.2330   42.0680 H   0  0  0  0  0  0  0  0  0  0  0  0
   36.5610   25.6080   42.6390 H   0  0  0  0  0  0  0  0  0  0  0  0
   36.7880   23.7990   42.3800 H   0  0  0  0  0  0  0  0  0  0  0  0
   36.9350   23.9880   40.1380 H   0  0  0  0  0  0  0  0  0  0  0  0
   35.8920   25.4000   40.4460 H   0  0  0  0  0  0  0  0  0  0  0  0
   37.9630   25.9360   38.8380 H   0  0  0  0  0  0  0  0  0  0  0  0
   40.0870   27.6560   39.8910 S   0  0  0  0  0  0  0  0  0  0  0  0
   39.4950   28.8550   39.4850 H   0  0  0  0  0  0  0  0  0  0  0  0
   37.3960   27.9490   43.2080 C   0  0  0  0  0  0  0  0  0  0  0  0
   36.6920   27.0860   43.2850 H   0  0  0  0  0  0  0  0  0  0  0  0
   37.3610   28.5290   44.1610 H   0  0  0  0  0  0  0  0  0  0  0  0
   36.9880   28.8720   42.1150 C   0  0  0  0  0  0  0  0  0  0  0  0
   35.8810   28.6180   41.3320 C   0  0  0  0  0  0  0  0  0  0  0  0
   35.5720   29.5400   40.3120 C   0  0  0  0  0  0  0  0  0  0  0  0
   36.3850   30.6260   40.1590 N   0  0  0  0  0  0  0  0  0  0  0  0
   37.4420   30.8170   40.9480 C   0  0  0  0  0  0  0  0  0  0  0  0
   37.7260   29.9460   41.9050 N   0  0  0  0  0  0  0  0  0  0  0  0
   35.2640   27.7430   41.4900 H   0  0  0  0  0  0  0  0  0  0  0  0
   34.7040   29.3590   39.6840 H   0  0  0  0  0  0  0  0  0  0  0  0
   38.2260   32.0310   40.6670 C   0  0  0  0  0  0  0  0  0  0  0  0
   39.5910   31.7820   40.7940 C   0  0  0  0  0  0  0  0  0  0  0  0
   40.2630   30.9550   41.0420 H   0  0  0  0  0  0  0  0  0  0  0  0
   40.3820   33.4230   40.4010 S   0  0  0  0  0  0  0  0  0  0  0  0
   38.6320   34.1610   40.1270 C   0  0  0  0  0  0  0  0  0  0  0  0
   37.9820   35.1530   39.8380 H   0  0  0  0  0  0  0  0  0  0  0  0
   37.9650   33.2790   40.3280 N   0  0  0  0  0  0  0  0  0  0  0  0
  1 19  1  0  0  0  0
  1  2  1  0  0  0  0
  3  1  1  0  0  0  0
  4  5  1  0  0  0  0
  4  1  1  0  0  0  0
  5 10  1  0  0  0  0
  6 13  1  0  0  0  0
  6  5  1  0  0  0  0
  6 12  1  0  0  0  0
  7  6  1  0  0  0  0
  8  7  1  0  0  0  0
  8  9  2  0  0  0  0
  9  4  1  0  0  0  0
 11  5  1  0  0  0  0
 14  7  1  0  0  0  0
 15  7  1  0  0  0  0
 16  8  1  0  0  0  0
 17  9  1  0  0  0  0
 18 17  1  0  0  0  0
 19 20  1  0  0  0  0
 19 21  1  0  0  0  0
 22 19  1  0  0  0  0
 23 28  1  0  0  0  0
 23 22  2  0  0  0  0
 24 23  1  0  0  0  0
 25 24  2  0  0  0  0
 25 26  1  0  0  0  0
 26 27  2  0  0  0  0
 27 22  1  0  0  0  0
 29 24  1  0  0  0  0
 30 31  2  0  0  0  0
 30 26  1  0  0  0  0
 31 32  1  0  0  0  0
 33 31  1  0  0  0  0
 34 36  2  0  0  0  0
 34 33  1  0  0  0  0
 35 34  1  0  0  0  0
 36 30  1  0  0  0  0
M  END
>  <minimizedAffinity>
-4.92952633

$$$$

 OpenBabel03252507033D

 36 38  0  0  0  0  0  0  0  0999 V2000
   36.9230   27.5050   42.3680 C   0  0  0  0  0  0  0  0  0  0  0  0
   36.6100   28.4790   41.8660 H   0  0  0  0  0  0  0  0  0  0  0  0
   35.9850   27.2190   42.8870 H   0  0  0  0  0  0  0  0  0  0  0  0
   37.3790   26.5120   41.6110 N   0  0  0  0  0  0  0  0  0  0  0  0
   38.1410   25.3810   41.9960 C   0  0  0  0  0  0  0  0  0  0  0  0
   37.0090   24.3210   41.9850 C   0  0  0  0  0  0  0  0  0  0  0  0
   36.3980   24.1460   40.6670 C   0  0  0  0  0  0  0  0  0  0  0  0
   36.4840   25.2440   39.7080 C   0  0  0  0  0  0  0  0  0  0  0  0
   37.0020   26.5710   40.1910 C   0  0  0  0  0  0  0  0  0  0  0  0
   38.5040   25.4380   43.0330 H   0  0  0  0  0  0  0  0  0  0  0  0
   38.9420   25.0220   41.3800 H   0  0  0  0  0  0  0  0  0  0  0  0
   36.2590   24.7100   42.7170 H   0  0  0  0  0  0  0  0  0  0  0  0
   37.4370   23.3440   42.3470 H   0  0  0  0  0  0  0  0  0  0  0  0
   36.8830   23.2570   40.1640 H   0  0  0  0  0  0  0  0  0  0  0  0
   35.3250   23.8420   40.8000 H   0  0  0  0  0  0  0  0  0  0  0  0
   36.2000   25.2300   38.6860 H   0  0  0  0  0  0  0  0  0  0  0  0
   37.0750   27.9870   39.1430 S   0  0  0  0  0  0  0  0  0  0  0  0
   35.8130   28.5560   38.9600 H   0  0  0  0  0  0  0  0  0  0  0  0
   37.8770   27.9060   43.4540 C   0  0  0  0  0  0  0  0  0  0  0  0
   37.3220   28.4060   44.2830 H   0  0  0  0  0  0  0  0  0  0  0  0
   38.4470   27.0430   43.8720 H   0  0  0  0  0  0  0  0  0  0  0  0
   38.8660   28.8330   42.8410 C   0  0  0  0  0  0  0  0  0  0  0  0
   40.2220   28.5910   42.9120 C   0  0  0  0  0  0  0  0  0  0  0  0
   41.0890   29.5270   42.3130 C   0  0  0  0  0  0  0  0  0  0  0  0
   40.5360   30.6140   41.6990 N   0  0  0  0  0  0  0  0  0  0  0  0
   39.2160   30.7930   41.6630 C   0  0  0  0  0  0  0  0  0  0  0  0
   38.4070   29.9090   42.2280 N   0  0  0  0  0  0  0  0  0  0  0  0
   40.6160   27.7160   43.4100 H   0  0  0  0  0  0  0  0  0  0  0  0
   42.1610   29.3560   42.3570 H   0  0  0  0  0  0  0  0  0  0  0  0
   38.7640   32.0090   40.9660 C   0  0  0  0  0  0  0  0  0  0  0  0
   37.6490   31.7420   40.1740 C   0  0  0  0  0  0  0  0  0  0  0  0
   37.0030   30.9000   39.9090 H   0  0  0  0  0  0  0  0  0  0  0  0
   37.2500   33.3890   39.3970 S   0  0  0  0  0  0  0  0  0  0  0  0
   38.7370   34.1530   40.3390 C   0  0  0  0  0  0  0  0  0  0  0  0
   39.3890   35.1610   40.5610 H   0  0  0  0  0  0  0  0  0  0  0  0
   39.1430   33.2700   40.9040 N   0  0  0  0  0  0  0  0  0  0  0  0
  1  3  1  0  0  0  0
  1 19  1  0  0  0  0
  2  1  1  0  0  0  0
  4  5  1  0  0  0  0
  4  1  1  0  0  0  0
  5 10  1  0  0  0  0
  6  5  1  0  0  0  0
  6 13  1  0  0  0  0
  6 12  1  0  0  0  0
  7 15  1  0  0  0  0
  7  6  1  0  0  0  0
  8  9  2  0  0  0  0
  8  7  1  0  0  0  0
  9  4  1  0  0  0  0
 11  5  1  0  0  0  0
 14  7  1  0  0  0  0
 16  8  1  0  0  0  0
 17  9  1  0  0  0  0
 18 17  1  0  0  0  0
 19 21  1  0  0  0  0
 19 20  1  0  0  0  0
 22 23  1  0  0  0  0
 22 19  1  0  0  0  0
 23 28  1  0  0  0  0
 24 29  1  0  0  0  0
 24 23  2  0  0  0  0
 25 24  1  0  0  0  0
 26 25  2  0  0  0  0
 26 27  1  0  0  0  0
 27 22  2  0  0  0  0
 30 26  1  0  0  0  0
 31 30  2  0  0  0  0
 32 31  1  0  0  0  0
 33 31  1  0  0  0  0
 33 34  1  0  0  0  0
 34 35  1  0  0  0  0
 34 36  2  0  0  0  0
 36 30  1  0  0  0  0
M  END
>  <minimizedAffinity>
-4.90497208

$$$$

 OpenBabel03252507033D

 36 38  0  0  0  0  0  0  0  0999 V2000
   36.7800   27.6800   42.0860 C   0  0  0  0  0  0  0  0  0  0  0  0
   36.0540   28.3410   41.5090 H   0  0  0  0  0  0  0  0  0  0  0  0
   36.1530   27.3740   42.9490 H   0  0  0  0  0  0  0  0  0  0  0  0
   37.3120   26.6250   41.4760 N   0  0  0  0  0  0  0  0  0  0  0  0
   38.1910   25.6460   42.0020 C   0  0  0  0  0  0  0  0  0  0  0  0
   37.1680   24.4980   42.2040 C   0  0  0  0  0  0  0  0  0  0  0  0
   36.5440   24.0590   40.9550 C   0  0  0  0  0  0  0  0  0  0  0  0
   36.4970   24.9920   39.8330 C   0  0  0  0  0  0  0  0  0  0  0  0
   36.8950   26.4220   40.0810 C   0  0  0  0  0  0  0  0  0  0  0  0
   38.5720   25.9010   43.0020 H   0  0  0  0  0  0  0  0  0  0  0  0
   39.0070   25.2690   41.4170 H   0  0  0  0  0  0  0  0  0  0  0  0
   36.4020   24.9270   42.8950 H   0  0  0  0  0  0  0  0  0  0  0  0
   37.6990   23.6350   42.6960 H   0  0  0  0  0  0  0  0  0  0  0  0
   37.1000   23.1500   40.5780 H   0  0  0  0  0  0  0  0  0  0  0  0
   35.5090   23.6820   41.1770 H   0  0  0  0  0  0  0  0  0  0  0  0
   36.1890   24.7890   38.8390 H   0  0  0  0  0  0  0  0  0  0  0  0
   36.8020   27.6530   38.8220 S   0  0  0  0  0  0  0  0  0  0  0  0
   35.4860   28.0660   38.6040 H   0  0  0  0  0  0  0  0  0  0  0  0
   37.8080   28.6160   42.6500 C   0  0  0  0  0  0  0  0  0  0  0  0
   37.5920   28.8150   43.7270 H   0  0  0  0  0  0  0  0  0  0  0  0
   38.8490   28.2260   42.5570 H   0  0  0  0  0  0  0  0  0  0  0  0
   37.7350   29.8700   41.8520 C   0  0  0  0  0  0  0  0  0  0  0  0
   36.5380   30.3360   41.3490 C   0  0  0  0  0  0  0  0  0  0  0  0
   36.5610   31.5270   40.5960 C   0  0  0  0  0  0  0  0  0  0  0  0
   37.7630   32.1460   40.4090 N   0  0  0  0  0  0  0  0  0  0  0  0
   38.8880   31.6470   40.9220 C   0  0  0  0  0  0  0  0  0  0  0  0
   38.8590   30.5270   41.6290 N   0  0  0  0  0  0  0  0  0  0  0  0
   35.6080   29.8110   41.5210 H   0  0  0  0  0  0  0  0  0  0  0  0
   35.6300   31.9110   40.1890 H   0  0  0  0  0  0  0  0  0  0  0  0
   40.1070   32.4230   40.6410 C   0  0  0  0  0  0  0  0  0  0  0  0
   39.9060   33.2930   39.5710 C   0  0  0  0  0  0  0  0  0  0  0  0
   39.1160   33.5770   38.8710 H   0  0  0  0  0  0  0  0  0  0  0  0
   41.5460   34.1610   39.3900 S   0  0  0  0  0  0  0  0  0  0  0  0
   42.2140   33.1310   40.8650 C   0  0  0  0  0  0  0  0  0  0  0  0
   43.1680   32.8950   41.5900 H   0  0  0  0  0  0  0  0  0  0  0  0
   41.3250   32.5010   41.1410 N   0  0  0  0  0  0  0  0  0  0  0  0
  1 19  1  0  0  0  0
  1  3  1  0  0  0  0
  2  1  1  0  0  0  0
  4  5  1  0  0  0  0
  4  1  1  0  0  0  0
  5  6  1  0  0  0  0
  5 10  1  0  0  0  0
  6 13  1  0  0  0  0
  6 12  1  0  0  0  0
  7 15  1  0  0  0  0
  7  6  1  0  0  0  0
  8  9  2  0  0  0  0
  8  7  1  0  0  0  0
  9  4  1  0  0  0  0
 11  5  1  0  0  0  0
 14  7  1  0  0  0  0
 16  8  1  0  0  0  0
 17  9  1  0  0  0  0
 18 17  1  0  0  0  0
 19 20  1  0  0  0  0
 21 19  1  0  0  0  0
 22 19  1  0  0  0  0
 23 28  1  0  0  0  0
 23 22  2  0  0  0  0
 24 23  1  0  0  0  0
 25 24  2  0  0  0  0
 25 26  1  0  0  0  0
 26 27  2  0  0  0  0
 27 22  1  0  0  0  0
 29 24  1  0  0  0  0
 30 26  1  0  0  0  0
 30 36  1  0  0  0  0
 31 30  2  0  0  0  0
 32 31  1  0  0  0  0
 33 31  1  0  0  0  0
 33 34  1  0  0  0  0
 34 36  2  0  0  0  0
 34 35  1  0  0  0  0
M  END
>  <minimizedAffinity>
-4.88576984

$$$$

 OpenBabel03252507033D

 36 38  0  0  0  0  0  0  0  0999 V2000
   36.5500   30.7410   41.0850 C   0  0  0  0  0  0  0  0  0  0  0  0
   36.8170   30.4180   42.1450 H   0  0  0  0  0  0  0  0  0  0  0  0
   35.6520   31.3660   41.2710 H   0  0  0  0  0  0  0  0  0  0  0  0
   37.4560   31.3970   40.3670 N   0  0  0  0  0  0  0  0  0  0  0  0
   37.3660   31.8530   39.0280 C   0  0  0  0  0  0  0  0  0  0  0  0
   37.1040   33.3560   39.3120 C   0  0  0  0  0  0  0  0  0  0  0  0
   38.1960   34.0030   40.0380 C   0  0  0  0  0  0  0  0  0  0  0  0
   39.0820   33.1730   40.8500 C   0  0  0  0  0  0  0  0  0  0  0  0
   38.7020   31.7340   41.0720 C   0  0  0  0  0  0  0  0  0  0  0  0
   36.4770   31.4760   38.5030 H   0  0  0  0  0  0  0  0  0  0  0  0
   38.2050   31.7790   38.3650 H   0  0  0  0  0  0  0  0  0  0  0  0
   36.1680   33.3630   39.9220 H   0  0  0  0  0  0  0  0  0  0  0  0
   36.9310   33.8750   38.3270 H   0  0  0  0  0  0  0  0  0  0  0  0
   38.8630   34.5260   39.2900 H   0  0  0  0  0  0  0  0  0  0  0  0
   37.7750   34.8340   40.6670 H   0  0  0  0  0  0  0  0  0  0  0  0
   39.9780   33.4690   41.3350 H   0  0  0  0  0  0  0  0  0  0  0  0
   39.6520   30.6600   42.0970 S   0  0  0  0  0  0  0  0  0  0  0  0
   39.4330   30.9190   43.4520 H   0  0  0  0  0  0  0  0  0  0  0  0
   36.0430   29.5020   40.4070 C   0  0  0  0  0  0  0  0  0  0  0  0
   34.9290   29.5320   40.3430 H   0  0  0  0  0  0  0  0  0  0  0  0
   36.4600   29.3660   39.3820 H   0  0  0  0  0  0  0  0  0  0  0  0
   36.4980   28.3450   41.2250 C   0  0  0  0  0  0  0  0  0  0  0  0
   36.7950   28.4810   42.5650 C   0  0  0  0  0  0  0  0  0  0  0  0
   37.2290   27.3350   43.2610 C   0  0  0  0  0  0  0  0  0  0  0  0
   37.3290   26.1620   42.5700 N   0  0  0  0  0  0  0  0  0  0  0  0
   37.0270   26.0930   41.2730 C   0  0  0  0  0  0  0  0  0  0  0  0
   36.6200   27.1750   40.6250 N   0  0  0  0  0  0  0  0  0  0  0  0
   36.7010   29.4310   43.0720 H   0  0  0  0  0  0  0  0  0  0  0  0
   37.4680   27.4190   44.3180 H   0  0  0  0  0  0  0  0  0  0  0  0
   37.1820   24.7630   40.6600 C   0  0  0  0  0  0  0  0  0  0  0  0
   36.4170   24.6600   39.5000 C   0  0  0  0  0  0  0  0  0  0  0  0
   35.7310   25.2670   38.9020 H   0  0  0  0  0  0  0  0  0  0  0  0
   36.7560   22.9280   38.8980 S   0  0  0  0  0  0  0  0  0  0  0  0
   37.9200   22.6710   40.4010 C   0  0  0  0  0  0  0  0  0  0  0  0
   38.6670   21.9030   40.9870 H   0  0  0  0  0  0  0  0  0  0  0  0
   37.8540   23.6610   40.9290 N   0  0  0  0  0  0  0  0  0  0  0  0
  1  3  1  0  0  0  0
  1  2  1  0  0  0  0
  4  9  1  0  0  0  0
  4  1  1  0  0  0  0
  5  6  1  0  0  0  0
  5  4  1  0  0  0  0
  6 12  1  0  0  0  0
  6  7  1  0  0  0  0
  7 15  1  0  0  0  0
  7  8  1  0  0  0  0
  8  9  2  0  0  0  0
  8 16  1  0  0  0  0
  9 17  1  0  0  0  0
 10  5  1  0  0  0  0
 11  5  1  0  0  0  0
 13  6  1  0  0  0  0
 14  7  1  0  0  0  0
 17 18  1  0  0  0  0
 19  1  1  0  0  0  0
 19 22  1  0  0  0  0
 20 19  1  0  0  0  0
 21 19  1  0  0  0  0
 22 23  1  0  0  0  0
 23 28  1  0  0  0  0
 23 24  2  0  0  0  0
 24 29  1  0  0  0  0
 25 24  1  0  0  0  0
 26 25  2  0  0  0  0
 27 22  2  0  0  0  0
 27 26  1  0  0  0  0
 30 36  1  0  0  0  0
 30 26  1  0  0  0  0
 31 30  2  0  0  0  0
 32 31  1  0  0  0  0
 33 31  1  0  0  0  0
 33 34  1  0  0  0  0
 34 36  2  0  0  0  0
 34 35  1  0  0  0  0
M  END
>  <minimizedAffinity>
-4.88559818

$$$$

 OpenBabel03252507033D

 36 38  0  0  0  0  0  0  0  0999 V2000
   38.3270   29.4660   39.9520 C   0  0  0  0  0  0  0  0  0  0  0  0
   39.4430   29.6930   39.9200 H   0  0  0  0  0  0  0  0  0  0  0  0
   38.2930   28.4790   39.4430 H   0  0  0  0  0  0  0  0  0  0  0  0
   37.7140   29.4240   41.1300 N   0  0  0  0  0  0  0  0  0  0  0  0
   36.3440   29.1930   41.4100 C   0  0  0  0  0  0  0  0  0  0  0  0
   36.4450   27.7160   41.8720 C   0  0  0  0  0  0  0  0  0  0  0  0
   37.2830   27.5410   43.0580 C   0  0  0  0  0  0  0  0  0  0  0  0
   38.3010   28.5460   43.3480 C   0  0  0  0  0  0  0  0  0  0  0  0
   38.5830   29.5930   42.3040 C   0  0  0  0  0  0  0  0  0  0  0  0
   35.7130   29.1950   40.5090 H   0  0  0  0  0  0  0  0  0  0  0  0
   35.8390   29.7500   42.1750 H   0  0  0  0  0  0  0  0  0  0  0  0
   36.8880   27.1820   40.9960 H   0  0  0  0  0  0  0  0  0  0  0  0
   35.4030   27.3370   42.0730 H   0  0  0  0  0  0  0  0  0  0  0  0
   36.6120   27.5090   43.9680 H   0  0  0  0  0  0  0  0  0  0  0  0
   37.7560   26.5220   43.0240 H   0  0  0  0  0  0  0  0  0  0  0  0
   38.9000   28.6250   44.2200 H   0  0  0  0  0  0  0  0  0  0  0  0
   39.8440   30.8080   42.5110 S   0  0  0  0  0  0  0  0  0  0  0  0
   41.1150   30.2680   42.3020 H   0  0  0  0  0  0  0  0  0  0  0  0
   37.6970   30.4330   38.9930 C   0  0  0  0  0  0  0  0  0  0  0  0
   37.9250   30.1310   37.9430 H   0  0  0  0  0  0  0  0  0  0  0  0
   36.5900   30.5070   39.1140 H   0  0  0  0  0  0  0  0  0  0  0  0
   38.2650   31.7740   39.2950 C   0  0  0  0  0  0  0  0  0  0  0  0
   37.5080   32.7590   39.8970 C   0  0  0  0  0  0  0  0  0  0  0  0
   38.1230   34.0040   40.1380 C   0  0  0  0  0  0  0  0  0  0  0  0
   39.4260   34.1610   39.7620 N   0  0  0  0  0  0  0  0  0  0  0  0
   40.1050   33.1710   39.1840 C   0  0  0  0  0  0  0  0  0  0  0  0
   39.5210   32.0030   38.9610 N   0  0  0  0  0  0  0  0  0  0  0  0
   36.4780   32.5890   40.1770 H   0  0  0  0  0  0  0  0  0  0  0  0
   37.5450   34.7930   40.6100 H   0  0  0  0  0  0  0  0  0  0  0  0
   41.5010   33.4850   38.8350 C   0  0  0  0  0  0  0  0  0  0  0  0
   42.3360   33.3260   39.9390 C   0  0  0  0  0  0  0  0  0  0  0  0
   42.2730   33.0390   40.9930 H   0  0  0  0  0  0  0  0  0  0  0  0
   44.0260   33.7660   39.2850 S   0  0  0  0  0  0  0  0  0  0  0  0
   43.2370   34.0930   37.5670 C   0  0  0  0  0  0  0  0  0  0  0  0
   43.4280   34.4280   36.4090 H   0  0  0  0  0  0  0  0  0  0  0  0
   42.1510   33.8720   37.7550 N   0  0  0  0  0  0  0  0  0  0  0  0
  1  4  1  0  0  0  0
  2  1  1  0  0  0  0
  3  1  1  0  0  0  0
  4  5  1  0  0  0  0
  4  9  1  0  0  0  0
  5  6  1  0  0  0  0
  5 11  1  0  0  0  0
  6 13  1  0  0  0  0
  6  7  1  0  0  0  0
  7  8  1  0  0  0  0
  7 14  1  0  0  0  0
  8 16  1  0  0  0  0
  9 17  1  0  0  0  0
  9  8  2  0  0  0  0
 10  5  1  0  0  0  0
 12  6  1  0  0  0  0
 15  7  1  0  0  0  0
 18 17  1  0  0  0  0
 19 21  1  0  0  0  0
 19 22  1  0  0  0  0
 19  1  1  0  0  0  0
 20 19  1  0  0  0  0
 22 23  1  0  0  0  0
 23 24  2  0  0  0  0
 23 28  1  0  0  0  0
 24 29  1  0  0  0  0
 25 24  1  0  0  0  0
 26 25  2  0  0  0  0
 27 26  1  0  0  0  0
 27 22  2  0  0  0  0
 30 26  1  0  0  0  0
 30 31  2  0  0  0  0
 31 32  1  0  0  0  0
 33 31  1  0  0  0  0
 34 36  2  0  0  0  0
 34 33  1  0  0  0  0
 35 34  1  0  0  0  0
 36 30  1  0  0  0  0
M  END
>  <minimizedAffinity>
-4.86451244

$$$$

 OpenBabel03252507033D

 36 38  0  0  0  0  0  0  0  0999 V2000
   35.9410   29.3160   40.8130 C   0  0  0  0  0  0  0  0  0  0  0  0
   35.6880   29.1620   39.7120 H   0  0  0  0  0  0  0  0  0  0  0  0
   34.9520   29.1390   41.2870 H   0  0  0  0  0  0  0  0  0  0  0  0
   36.8850   28.5600   41.3660 N   0  0  0  0  0  0  0  0  0  0  0  0
   37.5560   28.7430   42.6010 C   0  0  0  0  0  0  0  0  0  0  0  0
   36.7930   27.6830   43.4390 C   0  0  0  0  0  0  0  0  0  0  0  0
   36.9510   26.3220   42.9260 C   0  0  0  0  0  0  0  0  0  0  0  0
   37.2900   26.1430   41.5170 C   0  0  0  0  0  0  0  0  0  0  0  0
   37.2480   27.3490   40.6170 C   0  0  0  0  0  0  0  0  0  0  0  0
   37.3460   29.7160   43.0670 H   0  0  0  0  0  0  0  0  0  0  0  0
   38.6060   28.5470   42.6890 H   0  0  0  0  0  0  0  0  0  0  0  0
   35.7240   28.0020   43.3820 H   0  0  0  0  0  0  0  0  0  0  0  0
   37.1630   27.7420   44.5020 H   0  0  0  0  0  0  0  0  0  0  0  0
   37.7760   25.8130   43.5080 H   0  0  0  0  0  0  0  0  0  0  0  0
   36.0280   25.7300   43.1710 H   0  0  0  0  0  0  0  0  0  0  0  0
   37.5510   25.2390   41.0270 H   0  0  0  0  0  0  0  0  0  0  0  0
   37.5610   27.2380   38.8850 S   0  0  0  0  0  0  0  0  0  0  0  0
   36.4690   26.6990   38.2010 H   0  0  0  0  0  0  0  0  0  0  0  0
   36.1990   30.7860   40.9590 C   0  0  0  0  0  0  0  0  0  0  0  0
   35.2400   31.3510   40.8800 H   0  0  0  0  0  0  0  0  0  0  0  0
   36.6920   31.0470   41.9250 H   0  0  0  0  0  0  0  0  0  0  0  0
   37.1350   31.1720   39.8680 C   0  0  0  0  0  0  0  0  0  0  0  0
   36.8470   30.9090   38.5450 C   0  0  0  0  0  0  0  0  0  0  0  0
   37.7940   31.3000   37.5770 C   0  0  0  0  0  0  0  0  0  0  0  0
   38.9360   31.9130   38.0050 N   0  0  0  0  0  0  0  0  0  0  0  0
   39.1580   32.1400   39.3000 C   0  0  0  0  0  0  0  0  0  0  0  0
   38.2630   31.7700   40.2050 N   0  0  0  0  0  0  0  0  0  0  0  0
   35.9280   30.4200   38.2510 H   0  0  0  0  0  0  0  0  0  0  0  0
   37.5870   31.1020   36.5290 H   0  0  0  0  0  0  0  0  0  0  0  0
   40.4310   32.8100   39.6130 C   0  0  0  0  0  0  0  0  0  0  0  0
   40.9210   32.3920   40.8490 C   0  0  0  0  0  0  0  0  0  0  0  0
   40.6470   31.7150   41.6630 H   0  0  0  0  0  0  0  0  0  0  0  0
   42.5100   33.3470   41.0420 S   0  0  0  0  0  0  0  0  0  0  0  0
   42.1880   34.1610   39.3350 C   0  0  0  0  0  0  0  0  0  0  0  0
   42.5930   34.9450   38.4910 H   0  0  0  0  0  0  0  0  0  0  0  0
   41.2140   33.6930   39.0250 N   0  0  0  0  0  0  0  0  0  0  0  0
  1 19  1  0  0  0  0
  1  3  1  0  0  0  0
  1  4  1  0  0  0  0
  2  1  1  0  0  0  0
  4  5  1  0  0  0  0
  5 11  1  0  0  0  0
  5 10  1  0  0  0  0
  5  6  1  0  0  0  0
  6 13  1  0  0  0  0
  7 15  1  0  0  0  0
  7  6  1  0  0  0  0
  7 14  1  0  0  0  0
  8  7  1  0  0  0  0
  9  4  1  0  0  0  0
  9  8  2  0  0  0  0
 12  6  1  0  0  0  0
 16  8  1  0  0  0  0
 17  9  1  0  0  0  0
 18 17  1  0  0  0  0
 19 21  1  0  0  0  0
 20 19  1  0  0  0  0
 22 27  1  0  0  0  0
 22 19  1  0  0  0  0
 23 22  2  0  0  0  0
 24 25  2  0  0  0  0
 24 23  1  0  0  0  0
 25 26  1  0  0  0  0
 26 30  1  0  0  0  0
 26 27  2  0  0  0  0
 28 23  1  0  0  0  0
 29 24  1  0  0  0  0
 30 31  2  0  0  0  0
 31 33  1  0  0  0  0
 31 32  1  0  0  0  0
 34 33  1  0  0  0  0
 35 34  1  0  0  0  0
 36 34  2  0  0  0  0
 36 30  1  0  0  0  0
M  END
>  <minimizedAffinity>
-4.84856415

$$$$

 OpenBabel03252507033D

 36 38  0  0  0  0  0  0  0  0999 V2000
   38.6460   27.2310   40.2970 C   0  0  0  0  0  0  0  0  0  0  0  0
   39.4410   27.8940   39.8210 H   0  0  0  0  0  0  0  0  0  0  0  0
   38.8580   26.2570   39.8090 H   0  0  0  0  0  0  0  0  0  0  0  0
   38.6170   27.1130   41.6210 N   0  0  0  0  0  0  0  0  0  0  0  0
   39.4870   27.6870   42.5820 C   0  0  0  0  0  0  0  0  0  0  0  0
   38.5660   28.8330   43.0740 C   0  0  0  0  0  0  0  0  0  0  0  0
   37.3240   28.3530   43.6800 C   0  0  0  0  0  0  0  0  0  0  0  0
   36.8330   27.0290   43.3060 C   0  0  0  0  0  0  0  0  0  0  0  0
   37.5060   26.3170   42.1630 C   0  0  0  0  0  0  0  0  0  0  0  0
   40.3680   28.1680   42.1330 H   0  0  0  0  0  0  0  0  0  0  0  0
   39.8090   27.1250   43.4360 H   0  0  0  0  0  0  0  0  0  0  0  0
   38.3490   29.4300   42.1550 H   0  0  0  0  0  0  0  0  0  0  0  0
   39.1430   29.4550   43.8160 H   0  0  0  0  0  0  0  0  0  0  0  0
   37.4590   28.3260   44.8020 H   0  0  0  0  0  0  0  0  0  0  0  0
   36.5170   29.1160   43.5120 H   0  0  0  0  0  0  0  0  0  0  0  0
   36.0240   26.4960   43.7380 H   0  0  0  0  0  0  0  0  0  0  0  0
   36.9490   24.7520   41.5740 S   0  0  0  0  0  0  0  0  0  0  0  0
   35.7910   24.8770   40.8030 H   0  0  0  0  0  0  0  0  0  0  0  0
   37.3420   27.6950   39.7170 C   0  0  0  0  0  0  0  0  0  0  0  0
   37.2990   27.4430   38.6300 H   0  0  0  0  0  0  0  0  0  0  0  0
   36.4560   27.2470   40.2260 H   0  0  0  0  0  0  0  0  0  0  0  0
   37.2750   29.1660   39.9260 C   0  0  0  0  0  0  0  0  0  0  0  0
   36.1850   29.7600   40.5270 C   0  0  0  0  0  0  0  0  0  0  0  0
   36.1990   31.1610   40.6770 C   0  0  0  0  0  0  0  0  0  0  0  0
   37.2880   31.8460   40.2170 N   0  0  0  0  0  0  0  0  0  0  0  0
   38.3120   31.2140   39.6430 C   0  0  0  0  0  0  0  0  0  0  0  0
   38.2920   29.8970   39.5070 N   0  0  0  0  0  0  0  0  0  0  0  0
   35.3430   29.1770   40.8760 H   0  0  0  0  0  0  0  0  0  0  0  0
   35.3510   31.6500   41.1480 H   0  0  0  0  0  0  0  0  0  0  0  0
   39.4160   32.0810   39.1980 C   0  0  0  0  0  0  0  0  0  0  0  0
   40.0370   31.5530   38.0680 C   0  0  0  0  0  0  0  0  0  0  0  0
   39.9560   30.6860   37.4070 H   0  0  0  0  0  0  0  0  0  0  0  0
   41.3790   32.7870   37.6810 S   0  0  0  0  0  0  0  0  0  0  0  0
   40.8130   33.8250   39.1920 C   0  0  0  0  0  0  0  0  0  0  0  0
   40.9970   34.8290   39.8610 H   0  0  0  0  0  0  0  0  0  0  0  0
   39.9570   33.2170   39.5940 N   0  0  0  0  0  0  0  0  0  0  0  0
  1  4  1  0  0  0  0
  2  1  1  0  0  0  0
  3  1  1  0  0  0  0
  4  9  1  0  0  0  0
  4  5  1  0  0  0  0
  5  6  1  0  0  0  0
  5 11  1  0  0  0  0
  6  7  1  0  0  0  0
  6 13  1  0  0  0  0
  7 14  1  0  0  0  0
  8  7  1  0  0  0  0
  8 16  1  0  0  0  0
  9  8  2  0  0  0  0
 10  5  1  0  0  0  0
 12  6  1  0  0  0  0
 15  7  1  0  0  0  0
 17  9  1  0  0  0  0
 18 17  1  0  0  0  0
 19 22  1  0  0  0  0
 19 21  1  0  0  0  0
 19  1  1  0  0  0  0
 20 19  1  0  0  0  0
 22 23  1  0  0  0  0
 23 24  2  0  0  0  0
 23 28  1  0  0  0  0
 24 29  1  0  0  0  0
 25 24  1  0  0  0  0
 26 25  2  0  0  0  0
 27 26  1  0  0  0  0
 27 22  2  0  0  0  0
 30 36  1  0  0  0  0
 30 26  1  0  0  0  0
 31 30  2  0  0  0  0
 32 31  1  0  0  0  0
 33 31  1  0  0  0  0
 33 34  1  0  0  0  0
 34 36  2  0  0  0  0
 34 35  1  0  0  0  0
M  END
>  <minimizedAffinity>
-4.83499336

$$$$

 OpenBabel03252507033D

 36 38  0  0  0  0  0  0  0  0999 V2000
   38.2470   29.3150   42.7820 C   0  0  0  0  0  0  0  0  0  0  0  0
   39.3750   29.1710   42.8520 H   0  0  0  0  0  0  0  0  0  0  0  0
   38.1150   30.2540   43.3580 H   0  0  0  0  0  0  0  0  0  0  0  0
   37.6840   29.3990   41.5820 N   0  0  0  0  0  0  0  0  0  0  0  0
   36.3080   29.4970   41.2520 C   0  0  0  0  0  0  0  0  0  0  0  0
   36.2520   31.0130   40.9320 C   0  0  0  0  0  0  0  0  0  0  0  0
   37.1120   31.3970   39.8120 C   0  0  0  0  0  0  0  0  0  0  0  0
   38.2540   30.5470   39.4870 C   0  0  0  0  0  0  0  0  0  0  0  0
   38.6150   29.4440   40.4450 C   0  0  0  0  0  0  0  0  0  0  0  0
   35.6450   29.3360   42.1140 H   0  0  0  0  0  0  0  0  0  0  0  0
   35.9050   28.9620   40.4140 H   0  0  0  0  0  0  0  0  0  0  0  0
   36.5920   31.5080   41.8750 H   0  0  0  0  0  0  0  0  0  0  0  0
   35.1820   31.2870   40.7110 H   0  0  0  0  0  0  0  0  0  0  0  0
   36.4810   31.4380   38.8750 H   0  0  0  0  0  0  0  0  0  0  0  0
   37.4590   32.4550   39.9640 H   0  0  0  0  0  0  0  0  0  0  0  0
   38.8930   30.6220   38.6440 H   0  0  0  0  0  0  0  0  0  0  0  0
   40.0190   28.4070   40.1950 S   0  0  0  0  0  0  0  0  0  0  0  0
   41.2070   29.0670   40.5190 H   0  0  0  0  0  0  0  0  0  0  0  0
   37.6560   28.2330   43.6380 C   0  0  0  0  0  0  0  0  0  0  0  0
   37.8590   28.4460   44.7150 H   0  0  0  0  0  0  0  0  0  0  0  0
   36.5550   28.1180   43.4940 H   0  0  0  0  0  0  0  0  0  0  0  0
   38.2910   26.9540   43.2190 C   0  0  0  0  0  0  0  0  0  0  0  0
   39.5380   26.5850   43.6780 C   0  0  0  0  0  0  0  0  0  0  0  0
   40.0690   25.3610   43.2230 C   0  0  0  0  0  0  0  0  0  0  0  0
   39.3200   24.6180   42.3570 N   0  0  0  0  0  0  0  0  0  0  0  0
   38.1200   25.0290   41.9490 C   0  0  0  0  0  0  0  0  0  0  0  0
   37.6270   26.1800   42.3810 N   0  0  0  0  0  0  0  0  0  0  0  0
   40.0970   27.2070   44.3640 H   0  0  0  0  0  0  0  0  0  0  0  0
   41.0500   25.0510   43.5710 H   0  0  0  0  0  0  0  0  0  0  0  0
   37.4270   24.1240   41.0170 C   0  0  0  0  0  0  0  0  0  0  0  0
   38.2560   23.0680   40.6420 C   0  0  0  0  0  0  0  0  0  0  0  0
   39.2710   22.7040   40.8280 H   0  0  0  0  0  0  0  0  0  0  0  0
   37.1980   22.0630   39.4820 S   0  0  0  0  0  0  0  0  0  0  0  0
   35.7750   23.3230   39.7430 C   0  0  0  0  0  0  0  0  0  0  0  0
   34.6290   23.6330   39.4610 H   0  0  0  0  0  0  0  0  0  0  0  0
   36.2350   24.0610   40.4560 N   0  0  0  0  0  0  0  0  0  0  0  0
  1  2  1  0  0  0  0
  1  3  1  0  0  0  0
  1 19  1  0  0  0  0
  4  1  1  0  0  0  0
  5  4  1  0  0  0  0
  5 10  1  0  0  0  0
  6  5  1  0  0  0  0
  6 12  1  0  0  0  0
  7 15  1  0  0  0  0
  7  6  1  0  0  0  0
  8  7  1  0  0  0  0
  8  9  2  0  0  0  0
  9  4  1  0  0  0  0
 11  5  1  0  0  0  0
 13  6  1  0  0  0  0
 14  7  1  0  0  0  0
 16  8  1  0  0  0  0
 17  9  1  0  0  0  0
 17 18  1  0  0  0  0
 19 20  1  0  0  0  0
 21 19  1  0  0  0  0
 22 19  1  0  0  0  0
 22 23  1  0  0  0  0
 23 28  1  0  0  0  0
 24 29  1  0  0  0  0
 24 23  2  0  0  0  0
 25 24  1  0  0  0  0
 26 25  2  0  0  0  0
 26 27  1  0  0  0  0
 27 22  2  0  0  0  0
 30 26  1  0  0  0  0
 31 32  1  0  0  0  0
 31 30  2  0  0  0  0
 33 34  1  0  0  0  0
 33 31  1  0  0  0  0
 34 36  2  0  0  0  0
 35 34  1  0  0  0  0
 36 30  1  0  0  0  0
M  END
>  <minimizedAffinity>
-4.8328824

$$$$

 OpenBabel03252507033D

 36 38  0  0  0  0  0  0  0  0999 V2000
   39.3100   30.8830   42.0320 C   0  0  0  0  0  0  0  0  0  0  0  0
   39.9630   31.4620   42.7650 H   0  0  0  0  0  0  0  0  0  0  0  0
   38.3660   30.7940   42.6100 H   0  0  0  0  0  0  0  0  0  0  0  0
   39.0920   31.3950   40.8250 N   0  0  0  0  0  0  0  0  0  0  0  0
   38.1880   30.9550   39.8250 C   0  0  0  0  0  0  0  0  0  0  0  0
   37.0800   32.0210   40.0260 C   0  0  0  0  0  0  0  0  0  0  0  0
   37.5450   33.3860   39.7810 C   0  0  0  0  0  0  0  0  0  0  0  0
   38.9710   33.6720   39.9130 C   0  0  0  0  0  0  0  0  0  0  0  0
   39.8580   32.6070   40.5010 C   0  0  0  0  0  0  0  0  0  0  0  0
   37.7290   29.9820   40.0560 H   0  0  0  0  0  0  0  0  0  0  0  0
   38.4710   30.9560   38.7910 H   0  0  0  0  0  0  0  0  0  0  0  0
   36.7680   31.8980   41.0920 H   0  0  0  0  0  0  0  0  0  0  0  0
   36.2230   31.7730   39.3380 H   0  0  0  0  0  0  0  0  0  0  0  0
   37.2690   33.6730   38.7230 H   0  0  0  0  0  0  0  0  0  0  0  0
   36.9560   34.0940   40.4260 H   0  0  0  0  0  0  0  0  0  0  0  0
   39.4750   34.5690   39.6570 H   0  0  0  0  0  0  0  0  0  0  0  0
   41.5780   32.8690   40.7810 S   0  0  0  0  0  0  0  0  0  0  0  0
   41.7990   33.6640   41.9080 H   0  0  0  0  0  0  0  0  0  0  0  0
   39.8880   29.4990   41.9920 C   0  0  0  0  0  0  0  0  0  0  0  0
   40.2780   29.2790   40.9700 H   0  0  0  0  0  0  0  0  0  0  0  0
   40.7100   29.3500   42.7320 H   0  0  0  0  0  0  0  0  0  0  0  0
   38.7910   28.5620   42.3560 C   0  0  0  0  0  0  0  0  0  0  0  0
   37.9280   28.8310   43.3970 C   0  0  0  0  0  0  0  0  0  0  0  0
   36.9240   27.8830   43.6800 C   0  0  0  0  0  0  0  0  0  0  0  0
   36.8660   26.7580   42.9090 N   0  0  0  0  0  0  0  0  0  0  0  0
   37.7310   26.5540   41.9150 C   0  0  0  0  0  0  0  0  0  0  0  0
   38.6720   27.4490   41.6550 N   0  0  0  0  0  0  0  0  0  0  0  0
   38.0110   29.7370   43.9820 H   0  0  0  0  0  0  0  0  0  0  0  0
   36.2320   28.0760   44.4960 H   0  0  0  0  0  0  0  0  0  0  0  0
   37.5470   25.2970   41.1690 C   0  0  0  0  0  0  0  0  0  0  0  0
   36.9750   25.5390   39.9220 C   0  0  0  0  0  0  0  0  0  0  0  0
   36.6170   26.3820   39.3240 H   0  0  0  0  0  0  0  0  0  0  0  0
   36.8360   23.8440   39.1610 S   0  0  0  0  0  0  0  0  0  0  0  0
   37.6160   23.1040   40.7500 C   0  0  0  0  0  0  0  0  0  0  0  0
   37.9820   22.0910   41.3250 H   0  0  0  0  0  0  0  0  0  0  0  0
   37.7870   24.0180   41.3820 N   0  0  0  0  0  0  0  0  0  0  0  0
  1  3  1  0  0  0  0
  1  2  1  0  0  0  0
  4  1  1  0  0  0  0
  5  6  1  0  0  0  0
  5 10  1  0  0  0  0
  5  4  1  0  0  0  0
  6 12  1  0  0  0  0
  7  8  1  0  0  0  0
  7  6  1  0  0  0  0
  7 15  1  0  0  0  0
  8  9  2  0  0  0  0
  9 17  1  0  0  0  0
  9  4  1  0  0  0  0
 11  5  1  0  0  0  0
 13  6  1  0  0  0  0
 14  7  1  0  0  0  0
 16  8  1  0  0  0  0
 17 18  1  0  0  0  0
 19  1  1  0  0  0  0
 19 22  1  0  0  0  0
 19 21  1  0  0  0  0
 20 19  1  0  0  0  0
 22 23  1  0  0  0  0
 23 24  2  0  0  0  0
 23 28  1  0  0  0  0
 24 29  1  0  0  0  0
 25 24  1  0  0  0  0
 26 25  2  0  0  0  0
 27 26  1  0  0  0  0
 27 22  2  0  0  0  0
 30 36  1  0  0  0  0
 30 26  1  0  0  0  0
 31 30  2  0  0  0  0
 32 31  1  0  0  0  0
 33 31  1  0  0  0  0
 33 34  1  0  0  0  0
 34 35  1  0  0  0  0
 34 36  2  0  0  0  0
M  END
>  <minimizedAffinity>
-4.79798174

$$$$
