
 OpenBabel03242517233D

 41 44  0  0  1  0  0  0  0  0999 V2000
   44.5700   35.4130   45.5920 C   0  0  0  0  0  0  0  0  0  0  0  0
   44.3790   35.9280   44.2910 C   0  0  0  0  0  0  0  0  0  0  0  0
   44.8880   35.2100   43.1970 C   0  0  0  0  0  0  0  0  0  0  0  0
   45.5390   34.0520   43.4600 N   0  0  0  0  0  0  0  0  0  0  0  0
   45.7080   33.5800   44.7240 C   0  0  0  0  0  0  0  0  0  0  0  0
   45.2190   34.2660   45.7960 N   0  0  0  0  0  0  0  0  0  0  0  0
   46.4150   32.3390   44.8950 N   0  0  0  0  0  0  0  0  0  0  0  0
   46.3110   31.7400   46.2200 C   0  0  0  0  0  0  0  0  0  0  0  0
   47.3030   30.6920   46.5040 C   0  0  0  0  0  0  0  0  0  0  0  0
   47.6510   29.9260   45.2710 C   0  0  0  0  0  0  0  0  0  0  0  0
   48.2550   30.9130   44.3190 C   0  0  0  0  0  0  0  0  0  0  0  0
   47.1580   31.7720   43.7970 C   0  0  2  0  0  0  0  0  0  0  0  0
   44.1510   36.0190   46.3890 H   0  0  0  0  0  0  0  0  0  0  0  0
   43.8590   36.8550   44.0720 H   0  0  0  0  0  0  0  0  0  0  0  0
   44.7510   35.5890   42.1970 H   0  0  0  0  0  0  0  0  0  0  0  0
   45.2550   31.4410   46.3810 H   0  0  0  0  0  0  0  0  0  0  0  0
   46.4840   32.5910   46.9420 H   0  0  0  0  0  0  0  0  0  0  0  0
   48.2530   31.0830   46.9380 H   0  0  0  0  0  0  0  0  0  0  0  0
   46.9030   29.9790   47.2550 H   0  0  0  0  0  0  0  0  0  0  0  0
   48.3480   29.0940   45.4450 H   0  0  0  0  0  0  0  0  0  0  0  0
   46.7240   29.5190   44.8110 H   0  0  0  0  0  0  0  0  0  0  0  0
   48.9290   31.5740   44.9210 H   0  0  0  0  0  0  0  0  0  0  0  0
   48.8600   30.4480   43.5250 H   0  0  0  0  0  0  0  0  0  0  0  0
   46.4340   31.1320   43.2430 H   0  0  0  0  0  0  0  0  0  0  0  0
   46.5780   31.7070   41.0080 F   0  0  0  0  0  0  0  0  0  0  0  0
   47.3530   32.7300   41.4370 C   0  0  0  0  0  0  0  0  0  0  0  0
   47.6370   32.7680   42.8030 C   0  0  0  0  0  0  0  0  0  0  0  0
   48.4400   33.8410   43.2050 C   0  0  0  0  0  0  0  0  0  0  0  0
   48.9220   34.7920   42.3500 C   0  0  0  0  0  0  0  0  0  0  0  0
   48.6170   34.7130   41.0230 C   0  0  0  0  0  0  0  0  0  0  0  0
   47.8260   33.6710   40.5720 C   0  0  0  0  0  0  0  0  0  0  0  0
   48.6690   33.8830   44.2610 H   0  0  0  0  0  0  0  0  0  0  0  0
   49.5360   35.5940   42.7290 H   0  0  0  0  0  0  0  0  0  0  0  0
   49.0170   35.4830   40.3830 H   0  0  0  0  0  0  0  0  0  0  0  0
   47.5710   33.6910   39.1450 C   0  0  0  0  0  0  0  0  0  0  0  0
   46.3720   33.0570   38.6270 C   0  0  0  0  0  0  0  0  0  0  0  0
   45.4730   32.4850   39.0590 H   0  0  0  0  0  0  0  0  0  0  0  0
   46.4240   33.3010   36.8260 S   0  0  0  0  0  0  0  0  0  0  0  0
   48.0690   34.2310   37.0230 C   0  0  0  0  0  0  0  0  0  0  0  0
   48.9580   34.8230   36.3810 H   0  0  0  0  0  0  0  0  0  0  0  0
   48.2320   34.1940   38.1320 N   0  0  0  0  0  0  0  0  0  0  0  0
  1  6  1  0  0  0  0
  1 13  1  0  0  0  0
  2  1  2  0  0  0  0
  3  4  2  0  0  0  0
  3  2  1  0  0  0  0
  4  5  1  0  0  0  0
  5  7  1  0  0  0  0
  5  6  2  0  0  0  0
  7  8  1  0  0  0  0
  8 16  1  0  0  0  0
  8  9  1  0  0  0  0
  8 17  1  0  0  0  0
  9 18  1  0  0  0  0
  9 19  1  0  0  0  0
 10 20  1  0  0  0  0
 10  9  1  0  0  0  0
 11 22  1  0  0  0  0
 11 10  1  0  0  0  0
 12 24  1  6  0  0  0
 12 11  1  0  0  0  0
 12  7  1  0  0  0  0
 14  2  1  0  0  0  0
 15  3  1  0  0  0  0
 21 10  1  0  0  0  0
 23 11  1  0  0  0  0
 25 26  1  0  0  0  0
 26 27  1  0  0  0  0
 27 28  2  0  0  0  0
 27 12  1  0  0  0  0
 28 32  1  0  0  0  0
 29 33  1  0  0  0  0
 29 28  1  0  0  0  0
 30 29  2  0  0  0  0
 31 30  1  0  0  0  0
 31 26  2  0  0  0  0
 34 30  1  0  0  0  0
 35 31  1  0  0  0  0
 36 37  1  0  0  0  0
 36 35  2  0  0  0  0
 38 39  1  0  0  0  0
 38 36  1  0  0  0  0
 39 41  2  0  0  0  0
 40 39  1  0  0  0  0
 41 35  1  0  0  0  0
M  END
>  <minimizedAffinity>
-5.99227142

>  <minimizedRMSD>
1.17181885

$$$$
