
 OpenBabel03252504493D

 22 23  0  0  0  0  0  0  0  0999 V2000
   46.7720   34.9940   42.7010 C   0  0  0  0  0  0  0  0  0  0  0  0
   47.9320   34.5630   42.0610 C   0  0  0  0  0  0  0  0  0  0  0  0
   48.5920   33.4610   42.6050 C   0  0  0  0  0  0  0  0  0  0  0  0
   48.0680   32.8710   43.7240 N   0  0  0  0  0  0  0  0  0  0  0  0
   46.9420   33.3160   44.3150 C   0  0  0  0  0  0  0  0  0  0  0  0
   46.2860   34.3870   43.8020 N   0  0  0  0  0  0  0  0  0  0  0  0
   46.2170   35.8510   42.3180 H   0  0  0  0  0  0  0  0  0  0  0  0
   49.4920   33.0940   42.1430 H   0  0  0  0  0  0  0  0  0  0  0  0
   46.4010   32.6710   45.5080 C   0  0  0  0  0  0  0  0  0  0  0  0
   46.5580   31.2630   45.7080 C   0  0  0  0  0  0  0  0  0  0  0  0
   47.0430   30.5910   45.0640 H   0  0  0  0  0  0  0  0  0  0  0  0
   45.7010   31.0300   47.3280 S   0  0  0  0  0  0  0  0  0  0  0  0
   45.2910   32.8890   47.4300 C   0  0  0  0  0  0  0  0  0  0  0  0
   44.7420   33.3650   48.2550 H   0  0  0  0  0  0  0  0  0  0  0  0
   45.7500   33.2920   46.4680 N   0  0  0  0  0  0  0  0  0  0  0  0
   48.3810   35.2670   40.8850 C   0  0  0  0  0  0  0  0  0  0  0  0
   49.4410   35.5240   40.9400 H   0  0  0  0  0  0  0  0  0  0  0  0
   47.7790   36.2150   40.7880 H   0  0  0  0  0  0  0  0  0  0  0  0
   48.0660   34.4230   39.6640 C   0  0  0  0  0  0  0  0  0  0  0  0
   47.7450   35.0950   38.8180 H   0  0  0  0  0  0  0  0  0  0  0  0
   47.3380   33.6470   39.9000 H   0  0  0  0  0  0  0  0  0  0  0  0
   49.0320   33.9460   39.3250 H   0  0  0  0  0  0  0  0  0  0  0  0
  1  6  1  0  0  0  0
  2  3  1  0  0  0  0
  2  1  2  0  0  0  0
  3  4  2  0  0  0  0
  4  5  1  0  0  0  0
  5  9  1  0  0  0  0
  6  5  2  0  0  0  0
  7  1  1  0  0  0  0
  8  3  1  0  0  0  0
  9 10  2  0  0  0  0
  9 15  1  0  0  0  0
 10 12  1  0  0  0  0
 11 10  1  0  0  0  0
 12 13  1  0  0  0  0
 13 14  1  0  0  0  0
 15 13  2  0  0  0  0
 16 17  1  0  0  0  0
 16  2  1  0  0  0  0
 18 16  1  0  0  0  0
 19 21  1  0  0  0  0
 19 16  1  0  0  0  0
 20 19  1  0  0  0  0
 22 19  1  0  0  0  0
M  END
>  <minimizedAffinity>
-3.8379662

>  <minimizedRMSD>
2.34384012

$$$$
