
 OpenBabel03242513153D

 28 30  0  0  0  0  0  0  0  0999 V2000
   38.8430   30.0280   42.6970 Cl  0  0  0  0  0  0  0  0  0  0  0  0
   37.7400   29.5420   41.3940 C   0  0  0  0  0  0  0  0  0  0  0  0
   37.0010   28.4150   41.5370 C   0  0  0  0  0  0  0  0  0  0  0  0
   36.1510   28.0940   40.5110 C   0  0  0  0  0  0  0  0  0  0  0  0
   36.0520   28.8780   39.3870 C   0  0  0  0  0  0  0  0  0  0  0  0
   36.8260   30.0410   39.2550 C   0  0  0  0  0  0  0  0  0  0  0  0
   37.6750   30.3510   40.2930 C   0  0  0  0  0  0  0  0  0  0  0  0
   35.4790   27.2690   40.4360 H   0  0  0  0  0  0  0  0  0  0  0  0
   35.4030   28.6990   38.5230 H   0  0  0  0  0  0  0  0  0  0  0  0
   36.7500   30.6680   38.3590 H   0  0  0  0  0  0  0  0  0  0  0  0
   38.5250   31.5660   40.2250 C   0  0  0  0  0  0  0  0  0  0  0  0
   39.8110   31.4940   39.6230 C   0  0  0  0  0  0  0  0  0  0  0  0
   40.3420   30.6780   39.1700 H   0  0  0  0  0  0  0  0  0  0  0  0
   40.4420   33.2620   39.7980 S   0  0  0  0  0  0  0  0  0  0  0  0
   38.8220   33.7420   40.6580 C   0  0  0  0  0  0  0  0  0  0  0  0
   38.4940   34.7320   41.0640 H   0  0  0  0  0  0  0  0  0  0  0  0
   38.2030   32.7640   40.6820 N   0  0  0  0  0  0  0  0  0  0  0  0
   37.1370   27.5960   42.7240 C   0  0  0  0  0  0  0  0  0  0  0  0
   36.3500   27.8580   43.6800 O   0  0  0  0  0  0  0  0  0  0  0  0
   38.8000   24.4220   42.1860 C   0  0  0  0  0  0  0  0  0  0  0  0
   39.9550   24.4720   42.9530 C   0  0  0  0  0  0  0  0  0  0  0  0
   40.1380   25.6490   43.6660 C   0  0  0  0  0  0  0  0  0  0  0  0
   39.2090   26.6470   43.5760 N   0  0  0  0  0  0  0  0  0  0  0  0
   38.1150   26.5400   42.8180 C   0  0  0  0  0  0  0  0  0  0  0  0
   37.9220   25.4130   42.1250 N   0  0  0  0  0  0  0  0  0  0  0  0
   38.5950   23.5160   41.5970 H   0  0  0  0  0  0  0  0  0  0  0  0
   40.6730   23.6640   43.0050 H   0  0  0  0  0  0  0  0  0  0  0  0
   41.0250   25.7430   44.2830 H   0  0  0  0  0  0  0  0  0  0  0  0
  2  3  1  0  0  0  0
  2  1  1  0  0  0  0
  3 18  1  0  0  0  0
  4  3  2  0  0  0  0
  5  4  1  0  0  0  0
  6  5  2  0  0  0  0
  6  7  1  0  0  0  0
  7  2  2  0  0  0  0
  8  4  1  0  0  0  0
  9  5  1  0  0  0  0
 10  6  1  0  0  0  0
 11  7  1  0  0  0  0
 11 17  1  0  0  0  0
 12 14  1  0  0  0  0
 12 11  2  0  0  0  0
 13 12  1  0  0  0  0
 14 15  1  0  0  0  0
 15 17  2  0  0  0  0
 15 16  1  0  0  0  0
 18 24  1  0  0  0  0
 18 19  2  0  0  0  0
 20 21  1  0  0  0  0
 21 27  1  0  0  0  0
 21 22  2  0  0  0  0
 22 28  1  0  0  0  0
 23 22  1  0  0  0  0
 24 23  2  0  0  0  0
 25 20  2  0  0  0  0
 25 24  1  0  0  0  0
 26 20  1  0  0  0  0
M  END
>  <minimizedAffinity>
-5.22706985

$$$$

 OpenBabel03242513153D

 28 30  0  0  0  0  0  0  0  0999 V2000
   36.7720   25.6510   40.7350 Cl  0  0  0  0  0  0  0  0  0  0  0  0
   38.1360   25.7350   41.8680 C   0  0  0  0  0  0  0  0  0  0  0  0
   38.1540   26.7070   42.8120 C   0  0  0  0  0  0  0  0  0  0  0  0
   39.2190   26.7180   43.6740 C   0  0  0  0  0  0  0  0  0  0  0  0
   40.2240   25.7860   43.5860 C   0  0  0  0  0  0  0  0  0  0  0  0
   40.1910   24.7870   42.6010 C   0  0  0  0  0  0  0  0  0  0  0  0
   39.1150   24.7880   41.7430 C   0  0  0  0  0  0  0  0  0  0  0  0
   39.4110   27.3800   44.4880 H   0  0  0  0  0  0  0  0  0  0  0  0
   41.1090   25.7190   44.2300 H   0  0  0  0  0  0  0  0  0  0  0  0
   40.9920   24.0420   42.5280 H   0  0  0  0  0  0  0  0  0  0  0  0
   39.0100   23.7620   40.6760 C   0  0  0  0  0  0  0  0  0  0  0  0
   39.6930   23.9530   39.4430 C   0  0  0  0  0  0  0  0  0  0  0  0
   40.3210   24.7500   39.0920 H   0  0  0  0  0  0  0  0  0  0  0  0
   39.2340   22.4000   38.4780 S   0  0  0  0  0  0  0  0  0  0  0  0
   38.2020   21.8030   39.9520 C   0  0  0  0  0  0  0  0  0  0  0  0
   37.6000   20.8680   40.0720 H   0  0  0  0  0  0  0  0  0  0  0  0
   38.3210   22.6360   40.7480 N   0  0  0  0  0  0  0  0  0  0  0  0
   37.0910   27.6900   42.8720 C   0  0  0  0  0  0  0  0  0  0  0  0
   36.1470   27.4450   43.6790 O   0  0  0  0  0  0  0  0  0  0  0  0
   36.0010   30.2520   40.5550 C   0  0  0  0  0  0  0  0  0  0  0  0
   37.0520   31.1550   40.4740 C   0  0  0  0  0  0  0  0  0  0  0  0
   38.1570   30.8410   41.2540 C   0  0  0  0  0  0  0  0  0  0  0  0
   38.1450   29.7110   42.0230 N   0  0  0  0  0  0  0  0  0  0  0  0
   37.1000   28.8800   42.0590 C   0  0  0  0  0  0  0  0  0  0  0  0
   36.0280   29.1660   41.3140 N   0  0  0  0  0  0  0  0  0  0  0  0
   35.0950   30.4420   39.9600 H   0  0  0  0  0  0  0  0  0  0  0  0
   37.0320   32.0420   39.8560 H   0  0  0  0  0  0  0  0  0  0  0  0
   39.0090   31.5120   41.2310 H   0  0  0  0  0  0  0  0  0  0  0  0
  1  2  1  0  0  0  0
  2  3  1  0  0  0  0
  3 18  1  0  0  0  0
  3  4  2  0  0  0  0
  4  8  1  0  0  0  0
  5  4  1  0  0  0  0
  5  9  1  0  0  0  0
  6  5  2  0  0  0  0
  7  2  2  0  0  0  0
  7  6  1  0  0  0  0
 10  6  1  0  0  0  0
 11 17  1  0  0  0  0
 11  7  1  0  0  0  0
 12 11  2  0  0  0  0
 13 12  1  0  0  0  0
 14 12  1  0  0  0  0
 14 15  1  0  0  0  0
 15 16  1  0  0  0  0
 15 17  2  0  0  0  0
 18 19  2  0  0  0  0
 20 25  1  0  0  0  0
 21 20  2  0  0  0  0
 21 22  1  0  0  0  0
 22 23  2  0  0  0  0
 23 24  1  0  0  0  0
 24 18  1  0  0  0  0
 25 24  2  0  0  0  0
 26 20  1  0  0  0  0
 27 21  1  0  0  0  0
 28 22  1  0  0  0  0
M  END
>  <minimizedAffinity>
-5.21315002

$$$$

 OpenBabel03242513153D

 28 30  0  0  0  0  0  0  0  0999 V2000
   39.1630   29.9970   42.2920 Cl  0  0  0  0  0  0  0  0  0  0  0  0
   37.7370   29.7970   41.2540 C   0  0  0  0  0  0  0  0  0  0  0  0
   36.9120   28.7420   41.4590 C   0  0  0  0  0  0  0  0  0  0  0  0
   35.8140   28.6430   40.6430 C   0  0  0  0  0  0  0  0  0  0  0  0
   35.5630   29.5700   39.6610 C   0  0  0  0  0  0  0  0  0  0  0  0
   36.4290   30.6550   39.4610 C   0  0  0  0  0  0  0  0  0  0  0  0
   37.5260   30.7420   40.2880 C   0  0  0  0  0  0  0  0  0  0  0  0
   35.0420   27.9070   40.6510 H   0  0  0  0  0  0  0  0  0  0  0  0
   34.7150   29.5690   38.9670 H   0  0  0  0  0  0  0  0  0  0  0  0
   36.2310   31.3960   38.6780 H   0  0  0  0  0  0  0  0  0  0  0  0
   38.4880   31.8630   40.1370 C   0  0  0  0  0  0  0  0  0  0  0  0
   39.6100   31.7190   39.2760 C   0  0  0  0  0  0  0  0  0  0  0  0
   39.9360   30.9020   38.6600 H   0  0  0  0  0  0  0  0  0  0  0  0
   40.4740   33.3860   39.4500 S   0  0  0  0  0  0  0  0  0  0  0  0
   39.1280   33.9420   40.6650 C   0  0  0  0  0  0  0  0  0  0  0  0
   39.0110   34.9150   41.2060 H   0  0  0  0  0  0  0  0  0  0  0  0
   38.4120   33.0360   40.7420 N   0  0  0  0  0  0  0  0  0  0  0  0
   37.2090   27.7680   42.4890 C   0  0  0  0  0  0  0  0  0  0  0  0
   36.9390   28.1080   43.6780 O   0  0  0  0  0  0  0  0  0  0  0  0
   39.6700   25.2180   41.7350 C   0  0  0  0  0  0  0  0  0  0  0  0
   38.9540   24.0370   41.5980 C   0  0  0  0  0  0  0  0  0  0  0  0
   37.5820   24.1570   41.7770 C   0  0  0  0  0  0  0  0  0  0  0  0
   37.0410   25.3780   42.0650 N   0  0  0  0  0  0  0  0  0  0  0  0
   37.7840   26.4810   42.1840 C   0  0  0  0  0  0  0  0  0  0  0  0
   39.1070   26.3850   42.0150 N   0  0  0  0  0  0  0  0  0  0  0  0
   40.7620   25.1920   41.6040 H   0  0  0  0  0  0  0  0  0  0  0  0
   39.4120   23.0840   41.3700 H   0  0  0  0  0  0  0  0  0  0  0  0
   36.9730   23.2650   41.6830 H   0  0  0  0  0  0  0  0  0  0  0  0
  2  3  1  0  0  0  0
  2  1  1  0  0  0  0
  3 18  1  0  0  0  0
  4  8  1  0  0  0  0
  4  3  2  0  0  0  0
  5  4  1  0  0  0  0
  6  5  2  0  0  0  0
  6  7  1  0  0  0  0
  7  2  2  0  0  0  0
  9  5  1  0  0  0  0
 10  6  1  0  0  0  0
 11  7  1  0  0  0  0
 11 17  1  0  0  0  0
 12 14  1  0  0  0  0
 12 11  2  0  0  0  0
 13 12  1  0  0  0  0
 14 15  1  0  0  0  0
 15 17  2  0  0  0  0
 15 16  1  0  0  0  0
 18 19  2  0  0  0  0
 20 25  1  0  0  0  0
 21 20  2  0  0  0  0
 21 22  1  0  0  0  0
 22 23  2  0  0  0  0
 23 24  1  0  0  0  0
 24 18  1  0  0  0  0
 25 24  2  0  0  0  0
 26 20  1  0  0  0  0
 27 21  1  0  0  0  0
 28 22  1  0  0  0  0
M  END
>  <minimizedAffinity>
-5.11515665

$$$$

 OpenBabel03242513153D

 28 30  0  0  0  0  0  0  0  0999 V2000
   36.2380   26.7820   38.8270 Cl  0  0  0  0  0  0  0  0  0  0  0  0
   36.6370   27.0140   40.5410 C   0  0  0  0  0  0  0  0  0  0  0  0
   36.2860   28.1720   41.1520 C   0  0  0  0  0  0  0  0  0  0  0  0
   36.5990   28.2950   42.4810 C   0  0  0  0  0  0  0  0  0  0  0  0
   37.2410   27.2900   43.1630 C   0  0  0  0  0  0  0  0  0  0  0  0
   37.5990   26.0980   42.5150 C   0  0  0  0  0  0  0  0  0  0  0  0
   37.2770   25.9890   41.1810 C   0  0  0  0  0  0  0  0  0  0  0  0
   36.3980   29.1080   43.1410 H   0  0  0  0  0  0  0  0  0  0  0  0
   37.5290   27.3020   44.2210 H   0  0  0  0  0  0  0  0  0  0  0  0
   38.1110   25.2950   43.0570 H   0  0  0  0  0  0  0  0  0  0  0  0
   37.6230   24.7570   40.4280 C   0  0  0  0  0  0  0  0  0  0  0  0
   38.8930   24.6480   39.8000 C   0  0  0  0  0  0  0  0  0  0  0  0
   39.7260   25.3250   39.7500 H   0  0  0  0  0  0  0  0  0  0  0  0
   38.8120   22.9380   39.0100 S   0  0  0  0  0  0  0  0  0  0  0  0
   37.0580   22.7180   39.6970 C   0  0  0  0  0  0  0  0  0  0  0  0
   36.3540   21.8540   39.5970 H   0  0  0  0  0  0  0  0  0  0  0  0
   36.8440   23.7010   40.2700 N   0  0  0  0  0  0  0  0  0  0  0  0
   35.6270   29.2240   40.4050 C   0  0  0  0  0  0  0  0  0  0  0  0
   34.3780   29.0970   40.2410 O   0  0  0  0  0  0  0  0  0  0  0  0
   37.3340   32.4140   40.2380 C   0  0  0  0  0  0  0  0  0  0  0  0
   37.7340   32.5550   38.9170 C   0  0  0  0  0  0  0  0  0  0  0  0
   37.3880   31.5010   38.0820 C   0  0  0  0  0  0  0  0  0  0  0  0
   36.7040   30.4320   38.5890 N   0  0  0  0  0  0  0  0  0  0  0  0
   36.3470   30.3540   39.8740 C   0  0  0  0  0  0  0  0  0  0  0  0
   36.6720   31.3600   40.6920 N   0  0  0  0  0  0  0  0  0  0  0  0
   37.5770   33.2160   40.9520 H   0  0  0  0  0  0  0  0  0  0  0  0
   38.2750   33.4150   38.5450 H   0  0  0  0  0  0  0  0  0  0  0  0
   37.6750   31.5580   37.0380 H   0  0  0  0  0  0  0  0  0  0  0  0
  1  2  1  0  0  0  0
  2  3  2  0  0  0  0
  2  7  1  0  0  0  0
  3  4  1  0  0  0  0
  4  8  1  0  0  0  0
  4  5  2  0  0  0  0
  5  9  1  0  0  0  0
  6 10  1  0  0  0  0
  6  5  1  0  0  0  0
  7  6  2  0  0  0  0
 11  7  1  0  0  0  0
 12 11  2  0  0  0  0
 13 12  1  0  0  0  0
 14 15  1  0  0  0  0
 14 12  1  0  0  0  0
 15 17  2  0  0  0  0
 16 15  1  0  0  0  0
 17 11  1  0  0  0  0
 18  3  1  0  0  0  0
 19 18  2  0  0  0  0
 20 25  1  0  0  0  0
 20 26  1  0  0  0  0
 21 20  2  0  0  0  0
 22 23  2  0  0  0  0
 22 21  1  0  0  0  0
 23 24  1  0  0  0  0
 24 18  1  0  0  0  0
 24 25  2  0  0  0  0
 27 21  1  0  0  0  0
 28 22  1  0  0  0  0
M  END
>  <minimizedAffinity>
-5.11139822

$$$$

 OpenBabel03242513153D

 28 30  0  0  0  0  0  0  0  0999 V2000
   39.4090   27.9520   39.9450 Cl  0  0  0  0  0  0  0  0  0  0  0  0
   38.4500   27.9050   41.4380 C   0  0  0  0  0  0  0  0  0  0  0  0
   38.4230   28.9950   42.2430 C   0  0  0  0  0  0  0  0  0  0  0  0
   37.6530   28.9150   43.3730 C   0  0  0  0  0  0  0  0  0  0  0  0
   36.9400   27.7810   43.6790 C   0  0  0  0  0  0  0  0  0  0  0  0
   36.9810   26.6610   42.8360 C   0  0  0  0  0  0  0  0  0  0  0  0
   37.7580   26.7550   41.7030 C   0  0  0  0  0  0  0  0  0  0  0  0
   37.4850   29.6590   44.1200 H   0  0  0  0  0  0  0  0  0  0  0  0
   36.3020   27.6300   44.5570 H   0  0  0  0  0  0  0  0  0  0  0  0
   36.4130   25.7540   43.0770 H   0  0  0  0  0  0  0  0  0  0  0  0
   37.8490   25.6110   40.7630 C   0  0  0  0  0  0  0  0  0  0  0  0
   38.8100   24.5880   40.9880 C   0  0  0  0  0  0  0  0  0  0  0  0
   39.5460   24.4570   41.7600 H   0  0  0  0  0  0  0  0  0  0  0  0
   38.5060   23.4160   39.5430 S   0  0  0  0  0  0  0  0  0  0  0  0
   37.1270   24.5610   38.9230 C   0  0  0  0  0  0  0  0  0  0  0  0
   36.4640   24.4610   38.0270 H   0  0  0  0  0  0  0  0  0  0  0  0
   37.1010   25.4280   39.6890 N   0  0  0  0  0  0  0  0  0  0  0  0
   39.1980   30.1720   41.9070 C   0  0  0  0  0  0  0  0  0  0  0  0
   40.3980   30.1870   42.3110 O   0  0  0  0  0  0  0  0  0  0  0  0
   37.0270   32.0390   39.6890 C   0  0  0  0  0  0  0  0  0  0  0  0
   37.5140   33.3380   39.6950 C   0  0  0  0  0  0  0  0  0  0  0  0
   38.6270   33.5450   40.4990 C   0  0  0  0  0  0  0  0  0  0  0  0
   39.1560   32.5010   41.2060 N   0  0  0  0  0  0  0  0  0  0  0  0
   38.6390   31.2710   41.1590 C   0  0  0  0  0  0  0  0  0  0  0  0
   37.5680   31.0530   40.3900 N   0  0  0  0  0  0  0  0  0  0  0  0
   36.1460   31.8080   39.0710 H   0  0  0  0  0  0  0  0  0  0  0  0
   37.0740   34.1440   39.1230 H   0  0  0  0  0  0  0  0  0  0  0  0
   39.0510   34.5420   40.5420 H   0  0  0  0  0  0  0  0  0  0  0  0
  1  2  1  0  0  0  0
  2  7  2  0  0  0  0
  2  3  1  0  0  0  0
  3  4  2  0  0  0  0
  4  5  1  0  0  0  0
  4  8  1  0  0  0  0
  5  9  1  0  0  0  0
  6 10  1  0  0  0  0
  6  5  2  0  0  0  0
  7  6  1  0  0  0  0
 11 12  2  0  0  0  0
 11  7  1  0  0  0  0
 12 13  1  0  0  0  0
 14 12  1  0  0  0  0
 15 14  1  0  0  0  0
 15 17  2  0  0  0  0
 16 15  1  0  0  0  0
 17 11  1  0  0  0  0
 18  3  1  0  0  0  0
 18 19  2  0  0  0  0
 20 21  2  0  0  0  0
 20 25  1  0  0  0  0
 21 22  1  0  0  0  0
 22 28  1  0  0  0  0
 22 23  2  0  0  0  0
 24 23  1  0  0  0  0
 24 18  1  0  0  0  0
 25 24  2  0  0  0  0
 26 20  1  0  0  0  0
 27 21  1  0  0  0  0
M  END
>  <minimizedAffinity>
-5.04573488

$$$$

 OpenBabel03242513153D

 28 30  0  0  0  0  0  0  0  0999 V2000
   40.6210   30.1890   39.2620 Cl  0  0  0  0  0  0  0  0  0  0  0  0
   39.3090   31.3510   39.5400 C   0  0  0  0  0  0  0  0  0  0  0  0
   38.0870   30.8950   39.9090 C   0  0  0  0  0  0  0  0  0  0  0  0
   37.1120   31.8320   40.1300 C   0  0  0  0  0  0  0  0  0  0  0  0
   37.3610   33.1750   39.9840 C   0  0  0  0  0  0  0  0  0  0  0  0
   38.6320   33.6310   39.6000 C   0  0  0  0  0  0  0  0  0  0  0  0
   39.6010   32.6780   39.3830 C   0  0  0  0  0  0  0  0  0  0  0  0
   36.1020   31.6840   40.4390 H   0  0  0  0  0  0  0  0  0  0  0  0
   36.6460   33.9910   40.1390 H   0  0  0  0  0  0  0  0  0  0  0  0
   38.8340   34.7020   39.4830 H   0  0  0  0  0  0  0  0  0  0  0  0
   40.9690   33.0830   38.9740 C   0  0  0  0  0  0  0  0  0  0  0  0
   41.9540   33.3410   39.9660 C   0  0  0  0  0  0  0  0  0  0  0  0
   41.9140   33.3010   41.0390 H   0  0  0  0  0  0  0  0  0  0  0  0
   43.4620   33.8030   38.9330 S   0  0  0  0  0  0  0  0  0  0  0  0
   42.4420   33.5510   37.3550 C   0  0  0  0  0  0  0  0  0  0  0  0
   42.7430   33.6670   36.2830 H   0  0  0  0  0  0  0  0  0  0  0  0
   41.3930   33.2380   37.7320 N   0  0  0  0  0  0  0  0  0  0  0  0
   37.8440   29.4720   40.0380 C   0  0  0  0  0  0  0  0  0  0  0  0
   37.4580   28.8720   38.9920 O   0  0  0  0  0  0  0  0  0  0  0  0
   39.0240   27.0370   42.4460 C   0  0  0  0  0  0  0  0  0  0  0  0
   38.4280   27.3840   43.6510 C   0  0  0  0  0  0  0  0  0  0  0  0
   37.5980   28.4960   43.5970 C   0  0  0  0  0  0  0  0  0  0  0  0
   37.4250   29.1550   42.4130 N   0  0  0  0  0  0  0  0  0  0  0  0
   38.0280   28.7730   41.2850 C   0  0  0  0  0  0  0  0  0  0  0  0
   38.8310   27.7040   41.3180 N   0  0  0  0  0  0  0  0  0  0  0  0
   39.6940   26.1640   42.4200 H   0  0  0  0  0  0  0  0  0  0  0  0
   38.5850   26.8410   44.5730 H   0  0  0  0  0  0  0  0  0  0  0  0
   37.1050   28.8130   44.5090 H   0  0  0  0  0  0  0  0  0  0  0  0
  1  2  1  0  0  0  0
  2  3  1  0  0  0  0
  3 18  1  0  0  0  0
  3  4  2  0  0  0  0
  4  8  1  0  0  0  0
  5  4  1  0  0  0  0
  5  9  1  0  0  0  0
  6  5  2  0  0  0  0
  7  2  2  0  0  0  0
  7  6  1  0  0  0  0
 10  6  1  0  0  0  0
 11  7  1  0  0  0  0
 11 12  2  0  0  0  0
 12 13  1  0  0  0  0
 14 12  1  0  0  0  0
 15 17  2  0  0  0  0
 15 14  1  0  0  0  0
 16 15  1  0  0  0  0
 17 11  1  0  0  0  0
 18 24  1  0  0  0  0
 19 18  2  0  0  0  0
 20 21  1  0  0  0  0
 21 27  1  0  0  0  0
 22 21  2  0  0  0  0
 22 28  1  0  0  0  0
 23 22  1  0  0  0  0
 24 25  1  0  0  0  0
 24 23  2  0  0  0  0
 25 20  2  0  0  0  0
 26 20  1  0  0  0  0
M  END
>  <minimizedAffinity>
-4.81091118

$$$$

 OpenBabel03242513153D

 28 30  0  0  0  0  0  0  0  0999 V2000
   36.9250   28.0400   39.3240 Cl  0  0  0  0  0  0  0  0  0  0  0  0
   37.3770   27.9890   41.0400 C   0  0  0  0  0  0  0  0  0  0  0  0
   37.4030   29.1420   41.7530 C   0  0  0  0  0  0  0  0  0  0  0  0
   37.7390   29.0470   43.0780 C   0  0  0  0  0  0  0  0  0  0  0  0
   38.0370   27.8390   43.6590 C   0  0  0  0  0  0  0  0  0  0  0  0
   38.0080   26.6550   42.9060 C   0  0  0  0  0  0  0  0  0  0  0  0
   37.6680   26.7650   41.5770 C   0  0  0  0  0  0  0  0  0  0  0  0
   37.8000   29.8230   43.8080 H   0  0  0  0  0  0  0  0  0  0  0  0
   38.3150   27.6700   44.7060 H   0  0  0  0  0  0  0  0  0  0  0  0
   38.2450   25.6890   43.3670 H   0  0  0  0  0  0  0  0  0  0  0  0
   37.6140   25.5570   40.7170 C   0  0  0  0  0  0  0  0  0  0  0  0
   38.7880   25.1130   40.0490 C   0  0  0  0  0  0  0  0  0  0  0  0
   39.7900   25.5010   40.0350 H   0  0  0  0  0  0  0  0  0  0  0  0
   38.1800   23.5870   39.1240 S   0  0  0  0  0  0  0  0  0  0  0  0
   36.4440   23.8640   39.8360 C   0  0  0  0  0  0  0  0  0  0  0  0
   35.5070   23.2720   39.6840 H   0  0  0  0  0  0  0  0  0  0  0  0
   36.5460   24.8120   40.4930 N   0  0  0  0  0  0  0  0  0  0  0  0
   37.1020   30.4060   41.1120 C   0  0  0  0  0  0  0  0  0  0  0  0
   35.8770   30.7120   41.0230 O   0  0  0  0  0  0  0  0  0  0  0  0
   38.8750   33.4200   40.1640 C   0  0  0  0  0  0  0  0  0  0  0  0
   40.0840   32.9910   39.6340 C   0  0  0  0  0  0  0  0  0  0  0  0
   40.2620   31.6140   39.6160 C   0  0  0  0  0  0  0  0  0  0  0  0
   39.2800   30.7970   40.1010 N   0  0  0  0  0  0  0  0  0  0  0  0
   38.1360   31.2710   40.6000 C   0  0  0  0  0  0  0  0  0  0  0  0
   37.9470   32.5940   40.6250 N   0  0  0  0  0  0  0  0  0  0  0  0
   38.6710   34.5000   40.2060 H   0  0  0  0  0  0  0  0  0  0  0  0
   40.8430   33.6630   39.2570 H   0  0  0  0  0  0  0  0  0  0  0  0
   41.1890   31.2220   39.2130 H   0  0  0  0  0  0  0  0  0  0  0  0
  1  2  1  0  0  0  0
  2  7  2  0  0  0  0
  2  3  1  0  0  0  0
  3  4  2  0  0  0  0
  4  5  1  0  0  0  0
  4  8  1  0  0  0  0
  5  9  1  0  0  0  0
  6 10  1  0  0  0  0
  6  5  2  0  0  0  0
  7  6  1  0  0  0  0
 11  7  1  0  0  0  0
 12 11  2  0  0  0  0
 13 12  1  0  0  0  0
 14 15  1  0  0  0  0
 14 12  1  0  0  0  0
 15 17  2  0  0  0  0
 16 15  1  0  0  0  0
 17 11  1  0  0  0  0
 18  3  1  0  0  0  0
 19 18  2  0  0  0  0
 20 26  1  0  0  0  0
 20 25  1  0  0  0  0
 21 20  2  0  0  0  0
 22 21  1  0  0  0  0
 22 23  2  0  0  0  0
 23 24  1  0  0  0  0
 24 25  2  0  0  0  0
 24 18  1  0  0  0  0
 27 21  1  0  0  0  0
 28 22  1  0  0  0  0
M  END
>  <minimizedAffinity>
-4.79473686

$$$$

 OpenBabel03242513153D

 28 30  0  0  0  0  0  0  0  0999 V2000
   34.0910   29.0510   39.7150 Cl  0  0  0  0  0  0  0  0  0  0  0  0
   35.5050   29.4630   38.7230 C   0  0  0  0  0  0  0  0  0  0  0  0
   36.6100   29.9690   39.3230 C   0  0  0  0  0  0  0  0  0  0  0  0
   37.6810   30.2530   38.5160 C   0  0  0  0  0  0  0  0  0  0  0  0
   37.6370   30.0360   37.1610 C   0  0  0  0  0  0  0  0  0  0  0  0
   36.4840   29.5130   36.5550 C   0  0  0  0  0  0  0  0  0  0  0  0
   35.4170   29.2320   37.3780 C   0  0  0  0  0  0  0  0  0  0  0  0
   38.6380   30.6360   38.7890 H   0  0  0  0  0  0  0  0  0  0  0  0
   38.4420   30.2330   36.4430 H   0  0  0  0  0  0  0  0  0  0  0  0
   36.4460   29.3390   35.4740 H   0  0  0  0  0  0  0  0  0  0  0  0
   34.1630   28.6760   36.8110 C   0  0  0  0  0  0  0  0  0  0  0  0
   34.0580   27.2810   36.5620 C   0  0  0  0  0  0  0  0  0  0  0  0
   34.7540   26.4750   36.7100 H   0  0  0  0  0  0  0  0  0  0  0  0
   32.3140   27.1200   35.8650 S   0  0  0  0  0  0  0  0  0  0  0  0
   32.0800   28.9920   36.0530 C   0  0  0  0  0  0  0  0  0  0  0  0
   31.1950   29.6300   35.8060 H   0  0  0  0  0  0  0  0  0  0  0  0
   33.0810   29.3680   36.4970 N   0  0  0  0  0  0  0  0  0  0  0  0
   36.6240   30.2060   40.7520 C   0  0  0  0  0  0  0  0  0  0  0  0
   36.1130   31.2960   41.1440 O   0  0  0  0  0  0  0  0  0  0  0  0
   36.9490   27.3140   42.9080 C   0  0  0  0  0  0  0  0  0  0  0  0
   38.2190   27.4010   43.4610 C   0  0  0  0  0  0  0  0  0  0  0  0
   38.9610   28.5030   43.0590 C   0  0  0  0  0  0  0  0  0  0  0  0
   38.4210   29.3990   42.1790 N   0  0  0  0  0  0  0  0  0  0  0  0
   37.1910   29.2600   41.6810 C   0  0  0  0  0  0  0  0  0  0  0  0
   36.4610   28.2050   42.0570 N   0  0  0  0  0  0  0  0  0  0  0  0
   36.3090   26.4640   43.1870 H   0  0  0  0  0  0  0  0  0  0  0  0
   38.6190   26.6750   44.1560 H   0  0  0  0  0  0  0  0  0  0  0  0
   39.9620   28.6220   43.4590 H   0  0  0  0  0  0  0  0  0  0  0  0
  2  3  1  0  0  0  0
  2  1  1  0  0  0  0
  3 18  1  0  0  0  0
  4  8  1  0  0  0  0
  4  3  2  0  0  0  0
  5  4  1  0  0  0  0
  6  5  2  0  0  0  0
  6  7  1  0  0  0  0
  7  2  2  0  0  0  0
  9  5  1  0  0  0  0
 10  6  1  0  0  0  0
 11  7  1  0  0  0  0
 12 13  1  0  0  0  0
 12 11  2  0  0  0  0
 14 15  1  0  0  0  0
 14 12  1  0  0  0  0
 15 17  2  0  0  0  0
 16 15  1  0  0  0  0
 17 11  1  0  0  0  0
 18 19  2  0  0  0  0
 18 24  1  0  0  0  0
 20 26  1  0  0  0  0
 20 21  1  0  0  0  0
 21 27  1  0  0  0  0
 22 28  1  0  0  0  0
 22 21  2  0  0  0  0
 23 22  1  0  0  0  0
 24 25  1  0  0  0  0
 24 23  2  0  0  0  0
 25 20  2  0  0  0  0
M  END
>  <minimizedAffinity>
-4.74033594

$$$$

 OpenBabel03242513153D

 28 30  0  0  0  0  0  0  0  0999 V2000
   37.2640   29.5830   40.9350 Cl  0  0  0  0  0  0  0  0  0  0  0  0
   38.6850   29.0170   41.8360 C   0  0  0  0  0  0  0  0  0  0  0  0
   38.6150   27.8470   42.5170 C   0  0  0  0  0  0  0  0  0  0  0  0
   39.7440   27.4440   43.1800 C   0  0  0  0  0  0  0  0  0  0  0  0
   40.8960   28.1920   43.1590 C   0  0  0  0  0  0  0  0  0  0  0  0
   40.9510   29.4030   42.4510 C   0  0  0  0  0  0  0  0  0  0  0  0
   39.8090   29.7940   41.7880 C   0  0  0  0  0  0  0  0  0  0  0  0
   39.9000   26.5580   43.7530 H   0  0  0  0  0  0  0  0  0  0  0  0
   41.8400   27.9490   43.6580 H   0  0  0  0  0  0  0  0  0  0  0  0
   41.8680   30.0020   42.4320 H   0  0  0  0  0  0  0  0  0  0  0  0
   39.7910   31.0630   41.0180 C   0  0  0  0  0  0  0  0  0  0  0  0
   40.3920   31.1150   39.7310 C   0  0  0  0  0  0  0  0  0  0  0  0
   40.9000   30.3680   39.1490 H   0  0  0  0  0  0  0  0  0  0  0  0
   40.0930   32.9030   39.2130 S   0  0  0  0  0  0  0  0  0  0  0  0
   39.2080   33.2190   40.8600 C   0  0  0  0  0  0  0  0  0  0  0  0
   38.7350   34.1550   41.2500 H   0  0  0  0  0  0  0  0  0  0  0  0
   39.2520   32.2030   41.4140 N   0  0  0  0  0  0  0  0  0  0  0  0
   37.3820   27.0860   42.5390 C   0  0  0  0  0  0  0  0  0  0  0  0
   36.5480   27.3970   43.4390 O   0  0  0  0  0  0  0  0  0  0  0  0
   37.0430   23.7630   41.1370 C   0  0  0  0  0  0  0  0  0  0  0  0
   36.6200   23.9510   39.8290 C   0  0  0  0  0  0  0  0  0  0  0  0
   36.4570   25.2770   39.4480 C   0  0  0  0  0  0  0  0  0  0  0  0
   36.7110   26.2750   40.3460 N   0  0  0  0  0  0  0  0  0  0  0  0
   37.1160   26.0300   41.5950 C   0  0  0  0  0  0  0  0  0  0  0  0
   37.2790   24.7600   41.9780 N   0  0  0  0  0  0  0  0  0  0  0  0
   37.1920   22.7360   41.5010 H   0  0  0  0  0  0  0  0  0  0  0  0
   36.4270   23.1390   39.1410 H   0  0  0  0  0  0  0  0  0  0  0  0
   36.1270   25.4830   38.4370 H   0  0  0  0  0  0  0  0  0  0  0  0
  1  2  1  0  0  0  0
  2  3  1  0  0  0  0
  3 18  1  0  0  0  0
  3  4  2  0  0  0  0
  4  8  1  0  0  0  0
  5  4  1  0  0  0  0
  5  9  1  0  0  0  0
  6  5  2  0  0  0  0
  7  2  2  0  0  0  0
  7  6  1  0  0  0  0
 10  6  1  0  0  0  0
 11 17  1  0  0  0  0
 11  7  1  0  0  0  0
 12 11  2  0  0  0  0
 13 12  1  0  0  0  0
 14 12  1  0  0  0  0
 14 15  1  0  0  0  0
 15 16  1  0  0  0  0
 15 17  2  0  0  0  0
 18 19  2  0  0  0  0
 20 26  1  0  0  0  0
 20 25  1  0  0  0  0
 21 20  2  0  0  0  0
 22 21  1  0  0  0  0
 22 23  2  0  0  0  0
 23 24  1  0  0  0  0
 24 25  2  0  0  0  0
 24 18  1  0  0  0  0
 27 21  1  0  0  0  0
 28 22  1  0  0  0  0
M  END
>  <minimizedAffinity>
-4.70088434

$$$$
