
 OpenBabel03252502393D

 44 47  0  0  1  0  0  0  0  0999 V2000
   45.9050   33.1290   38.9990 C   0  0  1  0  0  0  0  0  0  0  0  0
   45.1310   33.9250   38.7870 H   0  0  0  0  0  0  0  0  0  0  0  0
   46.4570   33.4590   40.2840 N   0  0  0  0  0  0  0  0  0  0  0  0
   45.6370   34.3430   41.0310 C   0  0  0  0  0  0  0  0  0  0  0  0
   46.5430   34.8720   42.1630 C   0  0  0  0  0  0  0  0  0  0  0  0
   46.6800   33.7520   43.0060 N   0  0  0  0  0  0  0  0  0  0  0  0
   47.3020   32.6390   42.4200 C   0  0  0  0  0  0  0  0  0  0  0  0
   46.8310   32.3190   41.0150 C   0  0  0  0  0  0  0  0  0  0  0  0
   44.7800   33.8300   41.5340 H   0  0  0  0  0  0  0  0  0  0  0  0
   45.2320   35.1760   40.4380 H   0  0  0  0  0  0  0  0  0  0  0  0
   47.4700   35.2850   41.7390 H   0  0  0  0  0  0  0  0  0  0  0  0
   45.9290   35.6520   42.6770 H   0  0  0  0  0  0  0  0  0  0  0  0
   46.3820   33.7520   43.9520 H   0  0  0  0  0  0  0  0  0  0  0  0
   48.4100   32.8450   42.3630 H   0  0  0  0  0  0  0  0  0  0  0  0
   47.2110   31.7590   43.0990 H   0  0  0  0  0  0  0  0  0  0  0  0
   45.8380   31.8370   41.2930 H   0  0  0  0  0  0  0  0  0  0  0  0
   47.5590   31.6220   40.6700 H   0  0  0  0  0  0  0  0  0  0  0  0
   46.7250   32.2100   36.8360 C   0  0  0  0  0  0  0  0  0  0  0  0
   46.8220   33.0810   37.9020 C   0  0  0  0  0  0  0  0  0  0  0  0
   47.9140   33.9730   37.8730 C   0  0  0  0  0  0  0  0  0  0  0  0
   48.7920   33.9300   36.8240 N   0  0  0  0  0  0  0  0  0  0  0  0
   48.6380   33.0500   35.8100 C   0  0  0  0  0  0  0  0  0  0  0  0
   47.5920   32.1790   35.8150 N   0  0  0  0  0  0  0  0  0  0  0  0
   45.9130   31.4980   36.7890 H   0  0  0  0  0  0  0  0  0  0  0  0
   48.0380   34.6770   38.6830 H   0  0  0  0  0  0  0  0  0  0  0  0
   49.4410   33.1950   35.0990 H   0  0  0  0  0  0  0  0  0  0  0  0
   45.2030   31.7690   39.0980 C   0  0  0  0  0  0  0  0  0  0  0  0
   45.2500   31.6640   40.2300 H   0  0  0  0  0  0  0  0  0  0  0  0
   45.7980   30.9070   38.8090 H   0  0  0  0  0  0  0  0  0  0  0  0
   43.8720   31.7050   38.5900 C   0  0  0  0  0  0  0  0  0  0  0  0
   43.1590   30.9500   37.7210 C   0  0  0  0  0  0  0  0  0  0  0  0
   41.8320   31.0830   37.3640 C   0  0  0  0  0  0  0  0  0  0  0  0
   41.1770   32.0800   37.9500 N   0  0  0  0  0  0  0  0  0  0  0  0
   41.7920   32.8630   38.8070 C   0  0  0  0  0  0  0  0  0  0  0  0
   43.0690   32.6690   39.0960 N   0  0  0  0  0  0  0  0  0  0  0  0
   43.7850   30.1520   37.2780 H   0  0  0  0  0  0  0  0  0  0  0  0
   41.4780   30.3430   36.6340 H   0  0  0  0  0  0  0  0  0  0  0  0
   40.9670   33.9360   39.3930 C   0  0  0  0  0  0  0  0  0  0  0  0
   41.6210   35.0060   39.9640 C   0  0  0  0  0  0  0  0  0  0  0  0
   42.6870   35.2470   40.0850 H   0  0  0  0  0  0  0  0  0  0  0  0
   40.3050   36.0770   40.5550 S   0  0  0  0  0  0  0  0  0  0  0  0
   38.9920   34.8390   39.8980 C   0  0  0  0  0  0  0  0  0  0  0  0
   37.8170   34.7360   39.8520 H   0  0  0  0  0  0  0  0  0  0  0  0
   39.6650   34.0530   39.4670 N   0  0  0  0  0  0  0  0  0  0  0  0
  1  2  1  6  0  0  0
  1 27  1  0  0  0  0
  1  3  1  0  0  0  0
  3  8  1  0  0  0  0
  3  4  1  0  0  0  0
  4  9  1  0  0  0  0
  4  5  1  0  0  0  0
  5 12  1  0  0  0  0
  5  6  1  0  0  0  0
  6 13  1  0  0  0  0
  7  6  1  0  0  0  0
  7 15  1  0  0  0  0
  8 16  1  0  0  0  0
  8  7  1  0  0  0  0
 10  4  1  0  0  0  0
 11  5  1  0  0  0  0
 14  7  1  0  0  0  0
 17  8  1  0  0  0  0
 18 19  1  0  0  0  0
 19  1  1  0  0  0  0
 20 19  2  0  0  0  0
 20 25  1  0  0  0  0
 21 20  1  0  0  0  0
 22 23  1  0  0  0  0
 22 21  2  0  0  0  0
 23 18  2  0  0  0  0
 24 18  1  0  0  0  0
 26 22  1  0  0  0  0
 27 28  1  0  0  0  0
 29 27  1  0  0  0  0
 30 35  1  0  0  0  0
 30 27  1  0  0  0  0
 31 30  2  0  0  0  0
 32 31  1  0  0  0  0
 32 33  2  0  0  0  0
 33 34  1  0  0  0  0
 34 35  2  0  0  0  0
 34 38  1  0  0  0  0
 36 31  1  0  0  0  0
 37 32  1  0  0  0  0
 38 44  1  0  0  0  0
 38 39  2  0  0  0  0
 39 40  1  0  0  0  0
 39 41  1  0  0  0  0
 42 41  1  0  0  0  0
 43 42  1  0  0  0  0
 44 42  2  0  0  0  0
M  END
>  <minimizedAffinity>
-4.46834707

>  <minimizedRMSD>
7.2784462

$$$$
