
 OpenBabel03252509143D

 43 47  0  0  1  0  0  0  0  0999 V2000
   47.2170   32.9660   43.1380 C   0  0  0  0  0  0  0  0  0  0  0  0
   46.4230   33.6710   42.2290 C   0  0  0  0  0  0  0  0  0  0  0  0
   45.3780   34.4900   42.6230 C   0  0  0  0  0  0  0  0  0  0  0  0
   45.0980   34.6200   43.9920 C   0  0  0  0  0  0  0  0  0  0  0  0
   44.1950   35.2990   44.7300 N   0  0  0  0  0  0  0  0  0  0  0  0
   44.3890   35.0490   46.0410 C   0  0  0  0  0  0  0  0  0  0  0  0
   45.4290   34.2040   46.0930 N   0  0  0  0  0  0  0  0  0  0  0  0
   45.8890   33.9190   44.8640 C   0  0  0  0  0  0  0  0  0  0  0  0
   46.9420   33.0920   44.4990 C   0  0  0  0  0  0  0  0  0  0  0  0
   48.0310   32.3320   42.7760 H   0  0  0  0  0  0  0  0  0  0  0  0
   43.5010   35.8970   44.2130 H   0  0  0  0  0  0  0  0  0  0  0  0
   43.7700   35.4980   46.7960 H   0  0  0  0  0  0  0  0  0  0  0  0
   47.5460   32.5530   45.2100 H   0  0  0  0  0  0  0  0  0  0  0  0
   46.2490   32.5140   38.7600 C   0  0  0  0  0  0  0  0  0  0  0  0
   47.2250   33.3010   38.1190 C   0  0  0  0  0  0  0  0  0  0  0  0
   47.9280   34.2230   38.9060 C   0  0  0  0  0  0  0  0  0  0  0  0
   47.6500   34.3270   40.2450 N   0  0  0  0  0  0  0  0  0  0  0  0
   46.7030   33.5460   40.8040 C   0  0  0  0  0  0  0  0  0  0  0  0
   45.9880   32.6330   40.0970 N   0  0  0  0  0  0  0  0  0  0  0  0
   45.6670   31.7820   38.2190 H   0  0  0  0  0  0  0  0  0  0  0  0
   47.4030   33.1780   37.0590 H   0  0  0  0  0  0  0  0  0  0  0  0
   48.6830   34.8390   38.4330 H   0  0  0  0  0  0  0  0  0  0  0  0
   44.3840   35.3760   41.4650 S   0  0  0  0  0  0  0  0  0  0  0  0
   42.1780   33.9790   41.7680 N   0  0  0  0  0  0  0  0  0  0  0  0
   43.0730   34.3830   40.7130 C   0  0  1  0  0  0  0  0  0  0  0  0
   42.3820   35.2920   39.7010 C   0  0  0  0  0  0  0  0  0  0  0  0
   41.1040   34.8830   39.3810 O   0  0  0  0  0  0  0  0  0  0  0  0
   40.7580   33.6340   39.8060 C   0  0  0  0  0  0  0  0  0  0  0  0
   40.8830   33.5460   41.2920 C   0  0  1  0  0  0  0  0  0  0  0  0
   42.0680   34.7880   42.4190 H   0  0  0  0  0  0  0  0  0  0  0  0
   43.5110   33.5080   40.1780 H   0  0  0  0  0  0  0  0  0  0  0  0
   42.3480   36.3420   40.0980 H   0  0  0  0  0  0  0  0  0  0  0  0
   42.9270   35.2240   38.7500 H   0  0  0  0  0  0  0  0  0  0  0  0
   39.6870   33.4870   39.5620 H   0  0  0  0  0  0  0  0  0  0  0  0
   41.2980   32.8130   39.2790 H   0  0  0  0  0  0  0  0  0  0  0  0
   40.0950   34.1490   41.7730 H   0  0  0  0  0  0  0  0  0  0  0  0
   40.6640   32.1350   41.6940 C   0  0  0  0  0  0  0  0  0  0  0  0
   41.8270   31.3750   42.2270 C   0  0  0  0  0  0  0  0  0  0  0  0
   42.9350   31.9490   42.3150 H   0  0  0  0  0  0  0  0  0  0  0  0
   41.1060   29.6820   42.5960 S   0  0  0  0  0  0  0  0  0  0  0  0
   39.4210   30.2960   41.9820 C   0  0  0  0  0  0  0  0  0  0  0  0
   38.6410   29.5030   42.0460 H   0  0  0  0  0  0  0  0  0  0  0  0
   39.5810   31.3710   41.6740 N   0  0  0  0  0  0  0  0  0  0  0  0
  1  9  1  0  0  0  0
  2  3  1  0  0  0  0
  2  1  2  0  0  0  0
  3  4  2  0  0  0  0
  4  5  1  0  0  0  0
  4  8  1  0  0  0  0
  5  6  1  0  0  0  0
  6  7  2  0  0  0  0
  6 12  1  0  0  0  0
  8  7  1  0  0  0  0
  9  8  2  0  0  0  0
  9 13  1  0  0  0  0
 10  1  1  0  0  0  0
 11  5  1  0  0  0  0
 14 19  1  0  0  0  0
 15 14  2  0  0  0  0
 15 16  1  0  0  0  0
 16 17  2  0  0  0  0
 17 18  1  0  0  0  0
 18  2  1  0  0  0  0
 19 18  2  0  0  0  0
 20 14  1  0  0  0  0
 21 15  1  0  0  0  0
 22 16  1  0  0  0  0
 23  3  1  0  0  0  0
 24 30  1  0  0  0  0
 25 31  1  6  0  0  0
 25 23  1  0  0  0  0
 25 24  1  0  0  0  0
 26 32  1  0  0  0  0
 26 25  1  0  0  0  0
 27 26  1  0  0  0  0
 27 28  1  0  0  0  0
 28 29  1  0  0  0  0
 29 37  1  0  0  0  0
 29 24  1  0  0  0  0
 29 36  1  1  0  0  0
 33 26  1  0  0  0  0
 34 28  1  0  0  0  0
 35 28  1  0  0  0  0
 37 38  2  0  0  0  0
 38 39  1  0  0  0  0
 38 40  1  0  0  0  0
 41 42  1  0  0  0  0
 41 40  1  0  0  0  0
 43 37  1  0  0  0  0
 43 41  2  0  0  0  0
M  END
>  <minimizedAffinity>
-5.86385441

>  <minimizedRMSD>
2.20839214

$$$$
