
 OpenBabel03252504493D

 22 23  0  0  0  0  0  0  0  0999 V2000
   48.7740   31.7680   42.7730 C   0  0  0  0  0  0  0  0  0  0  0  0
   48.6880   30.6780   43.6370 C   0  0  0  0  0  0  0  0  0  0  0  0
   47.7220   30.7330   44.6410 C   0  0  0  0  0  0  0  0  0  0  0  0
   46.9220   31.8400   44.7210 N   0  0  0  0  0  0  0  0  0  0  0  0
   47.0350   32.8760   43.8670 C   0  0  0  0  0  0  0  0  0  0  0  0
   47.9680   32.8430   42.8830 N   0  0  0  0  0  0  0  0  0  0  0  0
   49.5120   31.7780   41.9700 H   0  0  0  0  0  0  0  0  0  0  0  0
   47.6200   29.9120   45.3310 H   0  0  0  0  0  0  0  0  0  0  0  0
   46.1700   34.0480   43.9700 C   0  0  0  0  0  0  0  0  0  0  0  0
   45.3670   34.2570   45.1350 C   0  0  0  0  0  0  0  0  0  0  0  0
   45.3160   33.6360   45.9800 H   0  0  0  0  0  0  0  0  0  0  0  0
   44.5180   35.8440   44.7090 S   0  0  0  0  0  0  0  0  0  0  0  0
   45.4140   35.9220   43.0280 C   0  0  0  0  0  0  0  0  0  0  0  0
   45.2830   36.7230   42.2860 H   0  0  0  0  0  0  0  0  0  0  0  0
   46.0510   34.9790   43.0470 N   0  0  0  0  0  0  0  0  0  0  0  0
   49.5870   29.5660   43.4470 C   0  0  0  0  0  0  0  0  0  0  0  0
   50.4030   29.8100   42.7640 H   0  0  0  0  0  0  0  0  0  0  0  0
   48.9990   28.7040   43.0210 H   0  0  0  0  0  0  0  0  0  0  0  0
   50.0980   29.1180   44.8030 C   0  0  0  0  0  0  0  0  0  0  0  0
   50.1850   27.9940   44.8170 H   0  0  0  0  0  0  0  0  0  0  0  0
   49.4780   29.5150   45.6070 H   0  0  0  0  0  0  0  0  0  0  0  0
   51.1530   29.5060   44.9110 H   0  0  0  0  0  0  0  0  0  0  0  0
  1  6  2  0  0  0  0
  1  2  1  0  0  0  0
  2  3  2  0  0  0  0
  3  4  1  0  0  0  0
  3  8  1  0  0  0  0
  5  9  1  0  0  0  0
  5  4  2  0  0  0  0
  6  5  1  0  0  0  0
  7  1  1  0  0  0  0
  9 10  2  0  0  0  0
 10 11  1  0  0  0  0
 12 10  1  0  0  0  0
 13 15  2  0  0  0  0
 13 12  1  0  0  0  0
 14 13  1  0  0  0  0
 15  9  1  0  0  0  0
 16  2  1  0  0  0  0
 16 19  1  0  0  0  0
 17 16  1  0  0  0  0
 18 16  1  0  0  0  0
 19 20  1  0  0  0  0
 19 22  1  0  0  0  0
 19 21  1  0  0  0  0
M  END
>  <minimizedAffinity>
-2.98007655

>  <minimizedRMSD>
4.86505699

$$$$
