
 OpenBabel03252504413D

 43 46  0  0  0  0  0  0  0  0999 V2000
   46.2400   32.1170   48.0560 C   0  0  0  0  0  0  0  0  0  0  0  0
   45.7890   31.4870   49.1840 C   0  0  0  0  0  0  0  0  0  0  0  0
   46.8280   30.7880   49.6590 N   0  0  0  0  0  0  0  0  0  0  0  0
   47.9070   30.9490   48.8840 C   0  0  0  0  0  0  0  0  0  0  0  0
   47.5200   31.7890   47.8790 N   0  0  0  0  0  0  0  0  0  0  0  0
   49.2170   30.4200   48.9780 N   0  0  0  0  0  0  0  0  0  0  0  0
   50.2020   31.1570   49.7880 C   0  0  0  0  0  0  0  0  0  0  0  0
   50.3300   30.3460   51.0740 C   0  0  0  0  0  0  0  0  0  0  0  0
   50.5230   28.8850   50.7530 C   0  0  0  0  0  0  0  0  0  0  0  0
   50.9210   28.7220   49.3010 C   0  0  0  0  0  0  0  0  0  0  0  0
   49.8260   29.2420   48.4130 C   0  0  0  0  0  0  0  0  0  0  0  0
   44.7970   31.5270   49.6290 H   0  0  0  0  0  0  0  0  0  0  0  0
   46.8270   30.1890   50.5160 H   0  0  0  0  0  0  0  0  0  0  0  0
   51.1670   31.2500   49.2760 H   0  0  0  0  0  0  0  0  0  0  0  0
   49.8250   32.1710   50.0480 H   0  0  0  0  0  0  0  0  0  0  0  0
   49.5010   30.5500   51.7580 H   0  0  0  0  0  0  0  0  0  0  0  0
   51.2520   30.6590   51.6170 H   0  0  0  0  0  0  0  0  0  0  0  0
   49.6150   28.2830   51.0040 H   0  0  0  0  0  0  0  0  0  0  0  0
   51.3560   28.4130   51.3470 H   0  0  0  0  0  0  0  0  0  0  0  0
   51.1200   27.6320   49.1190 H   0  0  0  0  0  0  0  0  0  0  0  0
   51.8740   29.2480   49.1590 H   0  0  0  0  0  0  0  0  0  0  0  0
   50.1760   29.4050   47.3860 H   0  0  0  0  0  0  0  0  0  0  0  0
   49.0280   28.4450   48.4220 H   0  0  0  0  0  0  0  0  0  0  0  0
   45.4470   33.0210   47.1640 C   0  0  0  0  0  0  0  0  0  0  0  0
   45.2570   34.0070   47.6380 H   0  0  0  0  0  0  0  0  0  0  0  0
   44.4470   32.5290   47.0670 H   0  0  0  0  0  0  0  0  0  0  0  0
   45.6760   34.0630   44.9510 C   0  0  0  0  0  3  0  0  0  0  0  0
   46.1190   33.2160   45.8710 C   0  0  0  0  0  3  0  0  0  0  0  0
   46.4440   34.1610   43.7020 C   0  0  0  0  0  0  0  0  0  0  0  0
   46.1150   35.0550   42.6580 C   0  0  0  0  0  0  0  0  0  0  0  0
   46.8950   35.0750   41.5280 C   0  0  0  0  0  0  0  0  0  0  0  0
   47.9520   34.2430   41.4430 N   0  0  0  0  0  0  0  0  0  0  0  0
   48.2530   33.3950   42.4470 C   0  0  0  0  0  0  0  0  0  0  0  0
   47.5250   33.3480   43.5490 N   0  0  0  0  0  0  0  0  0  0  0  0
   45.2530   35.6850   42.8110 H   0  0  0  0  0  0  0  0  0  0  0  0
   46.6600   35.7530   40.7190 H   0  0  0  0  0  0  0  0  0  0  0  0
   49.3940   32.4510   42.4280 C   0  0  0  0  0  0  0  0  0  0  0  0
   50.8240   32.6130   41.9800 C   0  0  0  0  0  0  0  0  0  0  0  0
   50.8540   33.7730   41.6050 H   0  0  0  0  0  0  0  0  0  0  0  0
   51.4160   30.8580   42.3700 S   0  0  0  0  0  0  0  0  0  0  0  0
   49.7180   30.3190   43.0120 C   0  0  0  0  0  0  0  0  0  0  0  0
   49.8430   29.2890   43.3030 H   0  0  0  0  0  0  0  0  0  0  0  0
   48.9170   31.3110   42.9210 N   0  0  0  0  0  0  0  0  0  0  0  0
  1  2  2  0  0  0  0
  2 12  1  0  0  0  0
  2  3  1  0  0  0  0
  3 13  1  0  0  0  0
  4  6  1  0  0  0  0
  4  3  1  0  0  0  0
  5  1  1  0  0  0  0
  5  4  2  0  0  0  0
  6  7  1  0  0  0  0
  7 15  1  0  0  0  0
  7  8  1  0  0  0  0
  8 17  1  0  0  0  0
  8 16  1  0  0  0  0
  9 18  1  0  0  0  0
  9  8  1  0  0  0  0
  9 19  1  0  0  0  0
 10  9  1  0  0  0  0
 11 23  1  0  0  0  0
 11  6  1  0  0  0  0
 11 10  1  0  0  0  0
 14  7  1  0  0  0  0
 20 10  1  0  0  0  0
 21 10  1  0  0  0  0
 22 11  1  0  0  0  0
 24 25  1  0  0  0  0
 24  1  1  0  0  0  0
 26 24  1  0  0  0  0
 27 28  2  0  0  0  0
 28 24  1  0  0  0  0
 29 27  1  0  0  0  0
 30 35  1  0  0  0  0
 30 29  2  0  0  0  0
 31 30  1  0  0  0  0
 32 31  2  0  0  0  0
 32 33  1  0  0  0  0
 33 34  2  0  0  0  0
 34 29  1  0  0  0  0
 36 31  1  0  0  0  0
 37 33  1  0  0  0  0
 37 43  1  0  0  0  0
 38 40  1  0  0  0  0
 38 37  2  0  0  0  0
 39 38  1  0  0  0  0
 40 41  1  0  0  0  0
 41 42  1  0  0  0  0
 43 41  2  0  0  0  0
M  END
>  <minimizedAffinity>
-5.84555101

>  <minimizedRMSD>
0.713527799

$$$$
