
 OpenBabel03252508383D

 39 42  0  0  0  0  0  0  0  0999 V2000
   45.1050   33.9530   40.7300 C   0  0  0  0  0  0  0  0  0  0  0  0
   44.0530   33.6260   39.9130 C   0  0  0  0  0  0  0  0  0  0  0  0
   44.3510   33.1170   38.6810 C   0  0  0  0  0  0  0  0  0  0  0  0
   45.6310   32.9190   38.2290 C   0  0  0  0  0  0  0  0  0  0  0  0
   46.6570   33.2570   39.0720 C   0  0  0  0  0  0  0  0  0  0  0  0
   46.4200   33.7720   40.3180 C   0  0  0  0  0  0  0  0  0  0  0  0
   43.5260   32.8550   38.0270 H   0  0  0  0  0  0  0  0  0  0  0  0
   45.8400   32.5160   37.2530 H   0  0  0  0  0  0  0  0  0  0  0  0
   47.6690   33.1020   38.7170 H   0  0  0  0  0  0  0  0  0  0  0  0
   40.7770   35.2850   40.8150 C   0  0  0  0  0  0  0  0  0  0  0  0
   42.0780   35.1040   40.2980 C   0  0  0  0  0  0  0  0  0  0  0  0
   42.7170   33.8510   40.4310 C   0  0  0  0  0  0  0  0  0  0  0  0
   41.9980   32.9010   41.0670 N   0  0  0  0  0  0  0  0  0  0  0  0
   40.7660   33.1010   41.5460 C   0  0  0  0  0  0  0  0  0  0  0  0
   40.1630   34.2820   41.4210 N   0  0  0  0  0  0  0  0  0  0  0  0
   40.1930   36.5670   40.6480 N   0  0  0  0  0  0  0  0  0  0  0  0
   42.6160   35.8820   39.8010 H   0  0  0  0  0  0  0  0  0  0  0  0
   40.3490   32.2340   42.0190 H   0  0  0  0  0  0  0  0  0  0  0  0
   40.3820   37.1620   39.8090 H   0  0  0  0  0  0  0  0  0  0  0  0
   39.5630   36.8540   41.4380 H   0  0  0  0  0  0  0  0  0  0  0  0
   47.5690   34.0970   41.1350 C   0  0  0  0  0  0  0  0  0  0  0  0
   48.1190   35.3380   40.9300 C   0  0  0  0  0  0  0  0  0  0  0  0
   49.2290   35.8300   41.6240 C   0  0  0  0  0  0  0  0  0  0  0  0
   49.7990   35.0040   42.5690 C   0  0  0  0  0  0  0  0  0  0  0  0
   49.2710   33.7610   42.7940 C   0  0  0  0  0  0  0  0  0  0  0  0
   48.1700   33.3070   42.0890 C   0  0  0  0  0  0  0  0  0  0  0  0
   47.7150   36.0320   40.1990 H   0  0  0  0  0  0  0  0  0  0  0  0
   49.6330   36.8140   41.4330 H   0  0  0  0  0  0  0  0  0  0  0  0
   50.6600   35.2960   43.1550 H   0  0  0  0  0  0  0  0  0  0  0  0
   49.6390   33.0300   43.5160 H   0  0  0  0  0  0  0  0  0  0  0  0
   47.5610   31.9700   42.2940 C   0  0  0  0  0  0  0  0  0  0  0  0
   47.9060   30.8970   41.5840 C   0  0  0  0  0  0  0  0  0  0  0  0
   48.6070   30.6950   40.7870 H   0  0  0  0  0  0  0  0  0  0  0  0
   46.8290   29.6060   42.2900 S   0  0  0  0  0  0  0  0  0  0  0  0
   46.0550   30.8560   43.5050 C   0  0  0  0  0  0  0  0  0  0  0  0
   45.2850   30.5760   44.2200 H   0  0  0  0  0  0  0  0  0  0  0  0
   46.6320   31.7680   43.1990 N   0  0  0  0  0  0  0  0  0  0  0  0
   44.6950   34.9320   43.1160 N   0  0  0  0  0  0  0  0  0  0  0  0
   44.8760   34.4990   42.0490 C   0  0  0  0  0  0  0  0  0  0  0  0
  1 39  1  0  0  0  0
  2 12  1  0  0  0  0
  2  1  2  0  0  0  0
  3  2  1  0  0  0  0
  4  3  2  0  0  0  0
  4  5  1  0  0  0  0
  5  6  2  0  0  0  0
  6  1  1  0  0  0  0
  6 21  1  0  0  0  0
  7  3  1  0  0  0  0
  8  4  1  0  0  0  0
  9  5  1  0  0  0  0
 10 15  1  0  0  0  0
 11 12  1  0  0  0  0
 11 10  2  0  0  0  0
 12 13  2  0  0  0  0
 13 14  1  0  0  0  0
 14 18  1  0  0  0  0
 15 14  2  0  0  0  0
 16 10  1  0  0  0  0
 16 20  1  0  0  0  0
 17 11  1  0  0  0  0
 19 16  1  0  0  0  0
 21 26  1  0  0  0  0
 22 21  2  0  0  0  0
 22 23  1  0  0  0  0
 23 24  2  0  0  0  0
 24 25  1  0  0  0  0
 24 29  1  0  0  0  0
 25 30  1  0  0  0  0
 26 31  1  0  0  0  0
 26 25  2  0  0  0  0
 27 22  1  0  0  0  0
 28 23  1  0  0  0  0
 31 37  1  0  0  0  0
 32 34  1  0  0  0  0
 32 31  2  0  0  0  0
 33 32  1  0  0  0  0
 34 35  1  0  0  0  0
 35 36  1  0  0  0  0
 37 35  2  0  0  0  0
 39 38  3  0  0  0  0
M  END
>  <minimizedAffinity>
-5.94409084

>  <minimizedRMSD>
0.293783575

$$$$
