
 OpenBabel03242513183D

 35 38  0  0  0  0  0  0  0  0999 V2000
   44.8260   30.5790   47.9860 Cl  0  0  0  0  0  0  0  0  0  0  0  0
   46.0800   29.9380   46.9180 C   0  0  0  0  0  0  0  0  0  0  0  0
   47.0380   30.7740   46.3970 C   0  0  0  0  0  0  0  0  0  0  0  0
   47.9880   30.2280   45.5910 C   0  0  0  0  0  0  0  0  0  0  0  0
   47.9880   28.8870   45.3060 C   0  0  0  0  0  0  0  0  0  0  0  0
   47.0230   28.0430   45.8280 C   0  0  0  0  0  0  0  0  0  0  0  0
   46.0600   28.5980   46.6460 C   0  0  0  0  0  0  0  0  0  0  0  0
   48.7580   30.8720   45.1680 H   0  0  0  0  0  0  0  0  0  0  0  0
   48.7530   28.4710   44.6620 H   0  0  0  0  0  0  0  0  0  0  0  0
   47.0680   27.0030   45.5740 H   0  0  0  0  0  0  0  0  0  0  0  0
   45.0800   27.6260   47.1430 C   0  0  0  0  0  0  0  0  0  0  0  0
   43.9850   27.0640   46.5070 C   0  0  0  0  0  0  0  0  0  0  0  0
   43.3090   26.1870   47.3210 C   0  0  0  0  0  0  0  0  0  0  0  0
   44.0520   26.2470   48.4840 C   0  0  0  0  0  0  0  0  0  0  0  0
   45.0390   27.0760   48.3250 O   0  0  0  0  0  0  0  0  0  0  0  0
   43.7150   27.3130   45.4670 H   0  0  0  0  0  0  0  0  0  0  0  0
   42.4250   25.6060   47.0990 H   0  0  0  0  0  0  0  0  0  0  0  0
   43.8440   25.6830   49.4080 H   0  0  0  0  0  0  0  0  0  0  0  0
   46.9750   32.1940   46.7320 C   0  0  0  0  0  0  0  0  0  0  0  0
   47.3860   32.5420   47.8620 O   0  0  0  0  0  0  0  0  0  0  0  0
   44.8830   34.7620   45.2670 C   0  0  0  0  0  0  0  0  0  0  0  0
   45.4170   35.0100   43.9970 C   0  0  0  0  0  0  0  0  0  0  0  0
   46.5310   34.2520   43.6600 C   0  0  0  0  0  0  0  0  0  0  0  0
   46.9890   33.3550   44.5880 N   0  0  0  0  0  0  0  0  0  0  0  0
   46.4540   33.1540   45.7780 C   0  0  0  0  0  0  0  0  0  0  0  0
   45.3880   33.8810   46.0950 N   0  0  0  0  0  0  0  0  0  0  0  0
   44.0160   35.3550   45.5210 H   0  0  0  0  0  0  0  0  0  0  0  0
   44.9980   35.7290   43.3290 H   0  0  0  0  0  0  0  0  0  0  0  0
   47.1920   34.4160   42.3440 C   0  0  0  0  0  0  0  0  0  0  0  0
   46.8170   33.6710   41.2530 C   0  0  0  0  0  0  0  0  0  0  0  0
   45.9790   32.8470   41.1840 H   0  0  0  0  0  0  0  0  0  0  0  0
   47.9390   34.2710   39.9290 S   0  0  0  0  0  0  0  0  0  0  0  0
   48.7570   35.4820   41.1440 C   0  0  0  0  0  0  0  0  0  0  0  0
   49.5680   36.1690   40.9000 H   0  0  0  0  0  0  0  0  0  0  0  0
   48.1680   35.2480   42.0680 N   0  0  0  0  0  0  0  0  0  0  0  0
  2  1  1  0  0  0  0
  3 19  1  0  0  0  0
  3  2  2  0  0  0  0
  4  3  1  0  0  0  0
  5  4  2  0  0  0  0
  5  6  1  0  0  0  0
  6  7  2  0  0  0  0
  7  2  1  0  0  0  0
  7 11  1  0  0  0  0
  8  4  1  0  0  0  0
  9  5  1  0  0  0  0
 10  6  1  0  0  0  0
 11 15  1  0  0  0  0
 12 11  2  0  0  0  0
 12 13  1  0  0  0  0
 13 14  2  0  0  0  0
 14 18  1  0  0  0  0
 15 14  1  0  0  0  0
 16 12  1  0  0  0  0
 17 13  1  0  0  0  0
 19 20  2  0  0  0  0
 21 27  1  0  0  0  0
 21 26  1  0  0  0  0
 22 21  2  0  0  0  0
 23 22  1  0  0  0  0
 23 24  2  0  0  0  0
 24 25  1  0  0  0  0
 25 26  2  0  0  0  0
 25 19  1  0  0  0  0
 28 22  1  0  0  0  0
 29 23  1  0  0  0  0
 30 29  2  0  0  0  0
 31 30  1  0  0  0  0
 32 33  1  0  0  0  0
 32 30  1  0  0  0  0
 33 35  2  0  0  0  0
 34 33  1  0  0  0  0
 35 29  1  0  0  0  0
M  END
>  <minimizedAffinity>
-5.77074862

>  <minimizedRMSD>
0.26841414

$$$$
