
 OpenBabel03252502083D

 46 50  0  0  0  0  0  0  0  0999 V2000
   47.4530   32.0560   47.8440 C   0  0  0  0  0  0  0  0  0  0  0  0
   46.9130   30.7660   47.8690 C   0  0  0  0  0  0  0  0  0  0  0  0
   45.9280   30.4950   46.9680 C   0  0  0  0  0  0  0  0  0  0  0  0
   45.5230   31.4350   46.1120 N   0  0  0  0  0  0  0  0  0  0  0  0
   46.0170   32.6530   46.0670 C   0  0  0  0  0  0  0  0  0  0  0  0
   46.9940   32.9490   46.9550 N   0  0  0  0  0  0  0  0  0  0  0  0
   45.3370   29.2530   46.9520 N   0  0  0  0  0  0  0  0  0  0  0  0
   44.1350   28.8990   46.1520 C   0  0  0  0  0  0  0  0  0  0  0  0
   44.0260   27.4030   46.2040 C   0  0  0  0  0  0  0  0  0  0  0  0
   44.6930   27.0520   47.4810 C   0  0  0  0  0  0  0  0  0  0  0  0
   45.7390   28.0870   47.6890 C   0  0  0  0  0  0  0  0  0  0  0  0
   48.2430   32.3240   48.5470 H   0  0  0  0  0  0  0  0  0  0  0  0
   44.2230   29.3060   45.1250 H   0  0  0  0  0  0  0  0  0  0  0  0
   43.2660   29.3450   46.6950 H   0  0  0  0  0  0  0  0  0  0  0  0
   44.4250   26.9020   45.3170 H   0  0  0  0  0  0  0  0  0  0  0  0
   42.9490   27.1130   46.2990 H   0  0  0  0  0  0  0  0  0  0  0  0
   45.2270   26.0780   47.3290 H   0  0  0  0  0  0  0  0  0  0  0  0
   44.0080   26.8780   48.3250 H   0  0  0  0  0  0  0  0  0  0  0  0
   46.7250   27.7800   47.3150 H   0  0  0  0  0  0  0  0  0  0  0  0
   45.7280   28.2610   48.7910 H   0  0  0  0  0  0  0  0  0  0  0  0
   45.7370   33.8190   45.1830 C   0  0  0  0  0  0  0  0  0  0  0  0
   44.8560   34.7770   45.4800 N   0  0  0  0  0  0  0  0  0  0  0  0
   44.5860   35.8290   44.7200 C   0  0  0  0  0  0  0  0  0  0  0  0
   45.2300   35.9870   43.5390 N   0  0  0  0  0  0  0  0  0  0  0  0
   46.1420   35.0860   43.1290 C   0  0  0  0  0  0  0  0  0  0  0  0
   46.7910   35.2500   41.9290 C   0  0  0  0  0  0  0  0  0  0  0  0
   47.7110   34.3500   41.4980 C   0  0  0  0  0  0  0  0  0  0  0  0
   47.9840   33.2490   42.3050 C   0  0  0  0  0  0  0  0  0  0  0  0
   47.2910   33.1420   43.5110 C   0  0  0  0  0  0  0  0  0  0  0  0
   46.3720   34.0200   43.9640 C   0  0  0  0  0  0  0  0  0  0  0  0
   43.8630   36.5840   45.0010 H   0  0  0  0  0  0  0  0  0  0  0  0
   46.5270   36.1290   41.3570 H   0  0  0  0  0  0  0  0  0  0  0  0
   48.1860   34.5340   40.5500 H   0  0  0  0  0  0  0  0  0  0  0  0
   48.9860   32.2580   41.8460 C   0  0  0  0  0  0  0  0  0  0  0  0
   48.7300   31.4080   40.7870 C   0  0  0  0  0  0  0  0  0  0  0  0
   47.8250   31.3200   40.1560 H   0  0  0  0  0  0  0  0  0  0  0  0
   50.3130   30.4320   40.6900 S   0  0  0  0  0  0  0  0  0  0  0  0
   51.0420   31.3960   42.1520 C   0  0  0  0  0  0  0  0  0  0  0  0
   52.0270   31.2720   42.6050 H   0  0  0  0  0  0  0  0  0  0  0  0
   50.1790   32.1320   42.4220 N   0  0  0  0  0  0  0  0  0  0  0  0
   47.6890   31.9680   44.2200 N   0  0  0  0  0  0  0  0  0  0  0  0
   47.0440   31.2370   43.8050 H   0  0  0  0  0  0  0  0  0  0  0  0
   48.3980   31.7530   44.9500 H   0  0  0  0  0  0  0  0  0  0  0  0
   47.4410   29.8720   48.7640 N   0  0  0  0  0  0  0  0  0  0  0  0
   48.1540   29.1150   48.6780 H   0  0  0  0  0  0  0  0  0  0  0  0
   46.9300   30.1310   49.6600 H   0  0  0  0  0  0  0  0  0  0  0  0
  1  2  1  0  0  0  0
  1 12  1  0  0  0  0
  2 44  1  0  0  0  0
  3  2  2  0  0  0  0
  4  3  1  0  0  0  0
  5  4  2  0  0  0  0
  5  6  1  0  0  0  0
  6  1  2  0  0  0  0
  7  3  1  0  0  0  0
  7 11  1  0  0  0  0
  8  9  1  0  0  0  0
  8 14  1  0  0  0  0
  8  7  1  0  0  0  0
  9 16  1  0  0  0  0
  9 10  1  0  0  0  0
 10 11  1  0  0  0  0
 10 18  1  0  0  0  0
 11 20  1  0  0  0  0
 13  8  1  0  0  0  0
 15  9  1  0  0  0  0
 17 10  1  0  0  0  0
 19 11  1  0  0  0  0
 21 22  1  0  0  0  0
 21  5  1  0  0  0  0
 23 31  1  0  0  0  0
 23 22  2  0  0  0  0
 24 23  1  0  0  0  0
 25 24  2  0  0  0  0
 25 30  1  0  0  0  0
 26 25  1  0  0  0  0
 27 26  2  0  0  0  0
 27 28  1  0  0  0  0
 28 29  2  0  0  0  0
 29 30  1  0  0  0  0
 29 41  1  0  0  0  0
 30 21  2  0  0  0  0
 32 26  1  0  0  0  0
 33 27  1  0  0  0  0
 34 28  1  0  0  0  0
 34 40  1  0  0  0  0
 35 34  2  0  0  0  0
 36 35  1  0  0  0  0
 37 35  1  0  0  0  0
 37 38  1  0  0  0  0
 38 40  2  0  0  0  0
 38 39  1  0  0  0  0
 41 43  1  0  0  0  0
 42 41  1  0  0  0  0
 44 46  1  0  0  0  0
 45 44  1  0  0  0  0
M  END
>  <minimizedAffinity>
-6.75976992

>  <minimizedRMSD>
0.10200832

$$$$
