
 OpenBabel03252505263D

 41 44  0  0  1  0  0  0  0  0999 V2000
   40.2280   30.1490   41.6380 F   0  0  0  0  0  0  0  0  0  0  0  0
   39.0130   30.6210   41.2490 C   0  0  0  0  0  0  0  0  0  0  0  0
   38.9870   31.7310   40.4400 C   0  0  0  0  0  0  0  0  0  0  0  0
   37.7580   32.2080   40.0480 C   0  0  0  0  0  0  0  0  0  0  0  0
   36.6080   31.5690   40.4700 C   0  0  0  0  0  0  0  0  0  0  0  0
   36.6310   30.4660   41.2740 C   0  0  0  0  0  0  0  0  0  0  0  0
   37.8890   29.9860   41.6700 C   0  0  0  0  0  0  0  0  0  0  0  0
   37.6780   33.0800   39.4100 H   0  0  0  0  0  0  0  0  0  0  0  0
   35.6420   31.9490   40.1570 H   0  0  0  0  0  0  0  0  0  0  0  0
   35.7230   29.9810   41.5930 H   0  0  0  0  0  0  0  0  0  0  0  0
   37.8630   28.8410   42.5010 N   0  0  0  0  0  0  0  0  0  0  0  0
   37.3410   28.6360   43.8260 C   0  0  0  0  0  0  0  0  0  0  0  0
   36.5000   27.3530   43.6580 C   0  0  0  0  0  0  0  0  0  0  0  0
   37.1150   26.6780   42.4630 C   0  0  0  0  0  0  0  0  0  0  0  0
   38.3760   27.4900   42.2470 C   0  0  2  0  0  0  0  0  0  0  0  0
   38.1920   28.4630   44.5010 H   0  0  0  0  0  0  0  0  0  0  0  0
   36.6870   29.4560   44.1690 H   0  0  0  0  0  0  0  0  0  0  0  0
   36.6510   26.7820   44.5970 H   0  0  0  0  0  0  0  0  0  0  0  0
   35.4460   27.6530   43.5010 H   0  0  0  0  0  0  0  0  0  0  0  0
   36.4630   26.6500   41.5850 H   0  0  0  0  0  0  0  0  0  0  0  0
   37.4330   25.6530   42.7900 H   0  0  0  0  0  0  0  0  0  0  0  0
   38.5910   27.4560   41.1530 H   0  0  0  0  0  0  0  0  0  0  0  0
   39.5090   27.0950   43.1110 C   0  0  0  0  0  0  0  0  0  0  0  0
   39.1640   26.4640   43.9540 H   0  0  0  0  0  0  0  0  0  0  0  0
   40.2090   26.4680   42.5140 H   0  0  0  0  0  0  0  0  0  0  0  0
   40.0980   27.9730   43.4360 H   0  0  0  0  0  0  0  0  0  0  0  0
   41.7730   34.1090   40.1870 C   0  0  0  0  0  0  0  0  0  0  0  0
   42.5680   33.5380   39.1880 C   0  0  0  0  0  0  0  0  0  0  0  0
   42.1320   32.3350   38.6130 C   0  0  0  0  0  0  0  0  0  0  0  0
   40.9760   31.8420   39.0830 N   0  0  0  0  0  0  0  0  0  0  0  0
   40.2270   32.3710   40.0180 C   0  0  0  0  0  0  0  0  0  0  0  0
   40.6310   33.5090   40.5680 N   0  0  0  0  0  0  0  0  0  0  0  0
   42.0980   35.0420   40.6440 H   0  0  0  0  0  0  0  0  0  0  0  0
   43.4840   33.9680   38.8440 H   0  0  0  0  0  0  0  0  0  0  0  0
   42.8920   31.6410   37.5480 C   0  0  0  0  0  0  0  0  0  0  0  0
   42.2930   30.6730   36.7580 C   0  0  0  0  0  0  0  0  0  0  0  0
   41.2370   30.3230   36.8220 H   0  0  0  0  0  0  0  0  0  0  0  0
   43.6720   30.1740   35.6430 S   0  0  0  0  0  0  0  0  0  0  0  0
   44.8450   31.4110   36.4840 C   0  0  0  0  0  0  0  0  0  0  0  0
   45.9230   31.6340   36.2720 H   0  0  0  0  0  0  0  0  0  0  0  0
   44.1600   31.8850   37.2820 N   0  0  0  0  0  0  0  0  0  0  0  0
  2  1  1  0  0  0  0
  2  7  1  0  0  0  0
  3  2  2  0  0  0  0
  4  3  1  0  0  0  0
  4  5  2  0  0  0  0
  5  6  1  0  0  0  0
  6 10  1  0  0  0  0
  6  7  2  0  0  0  0
  7 11  1  0  0  0  0
  8  4  1  0  0  0  0
  9  5  1  0  0  0  0
 11 12  1  0  0  0  0
 12 17  1  0  0  0  0
 12 16  1  0  0  0  0
 13 12  1  0  0  0  0
 13 18  1  0  0  0  0
 14 21  1  0  0  0  0
 14 13  1  0  0  0  0
 15 22  1  6  0  0  0
 15 14  1  0  0  0  0
 15 11  1  0  0  0  0
 15 23  1  0  0  0  0
 19 13  1  0  0  0  0
 20 14  1  0  0  0  0
 23 26  1  0  0  0  0
 23 24  1  0  0  0  0
 25 23  1  0  0  0  0
 27 32  1  0  0  0  0
 27 33  1  0  0  0  0
 28 27  2  0  0  0  0
 29 30  2  0  0  0  0
 29 28  1  0  0  0  0
 30 31  1  0  0  0  0
 31  3  1  0  0  0  0
 31 32  2  0  0  0  0
 34 28  1  0  0  0  0
 35 29  1  0  0  0  0
 36 37  1  0  0  0  0
 36 35  2  0  0  0  0
 38 39  1  0  0  0  0
 38 36  1  0  0  0  0
 39 41  2  0  0  0  0
 40 39  1  0  0  0  0
 41 35  1  0  0  0  0
M  END
>  <minimizedAffinity>
-5.94110012

$$$$

 OpenBabel03252505263D

 41 44  0  0  1  0  0  0  0  0999 V2000
   37.9230   28.2250   39.6920 F   0  0  0  0  0  0  0  0  0  0  0  0
   37.6780   28.0590   41.0200 C   0  0  0  0  0  0  0  0  0  0  0  0
   37.6610   29.1790   41.8140 C   0  0  0  0  0  0  0  0  0  0  0  0
   37.4140   29.0090   43.1560 C   0  0  0  0  0  0  0  0  0  0  0  0
   37.1920   27.7400   43.6570 C   0  0  0  0  0  0  0  0  0  0  0  0
   37.2090   26.6250   42.8700 C   0  0  0  0  0  0  0  0  0  0  0  0
   37.4620   26.8070   41.5020 C   0  0  0  0  0  0  0  0  0  0  0  0
   37.3890   29.8570   43.8290 H   0  0  0  0  0  0  0  0  0  0  0  0
   36.9980   27.6110   44.7160 H   0  0  0  0  0  0  0  0  0  0  0  0
   37.0340   25.6420   43.2790 H   0  0  0  0  0  0  0  0  0  0  0  0
   37.4680   25.6240   40.7270 N   0  0  0  0  0  0  0  0  0  0  0  0
   38.4240   24.5520   40.6290 C   0  0  0  0  0  0  0  0  0  0  0  0
   37.5380   23.2990   40.7920 C   0  0  0  0  0  0  0  0  0  0  0  0
   36.1740   23.7690   40.3680 C   0  0  0  0  0  0  0  0  0  0  0  0
   36.4730   25.1280   39.7680 C   0  0  2  0  0  0  0  0  0  0  0  0
   38.8710   24.5890   39.6240 H   0  0  0  0  0  0  0  0  0  0  0  0
   39.1820   24.5680   41.4310 H   0  0  0  0  0  0  0  0  0  0  0  0
   37.9670   22.5480   40.0980 H   0  0  0  0  0  0  0  0  0  0  0  0
   37.5850   22.9830   41.8520 H   0  0  0  0  0  0  0  0  0  0  0  0
   35.4440   23.8080   41.1830 H   0  0  0  0  0  0  0  0  0  0  0  0
   35.8410   23.1030   39.5290 H   0  0  0  0  0  0  0  0  0  0  0  0
   35.5660   25.7550   39.9340 H   0  0  0  0  0  0  0  0  0  0  0  0
   36.9450   25.0850   38.3670 C   0  0  0  0  0  0  0  0  0  0  0  0
   37.2600   24.0600   38.0870 H   0  0  0  0  0  0  0  0  0  0  0  0
   36.0940   25.3460   37.6990 H   0  0  0  0  0  0  0  0  0  0  0  0
   37.7220   25.8480   38.1750 H   0  0  0  0  0  0  0  0  0  0  0  0
   37.1240   32.3950   40.1270 C   0  0  0  0  0  0  0  0  0  0  0  0
   38.3950   32.9780   40.1740 C   0  0  0  0  0  0  0  0  0  0  0  0
   39.4240   32.2510   40.7910 C   0  0  0  0  0  0  0  0  0  0  0  0
   39.0860   31.0490   41.2820 N   0  0  0  0  0  0  0  0  0  0  0  0
   37.8980   30.4980   41.2400 C   0  0  0  0  0  0  0  0  0  0  0  0
   36.9170   31.1770   40.6600 N   0  0  0  0  0  0  0  0  0  0  0  0
   36.3140   32.9460   39.6520 H   0  0  0  0  0  0  0  0  0  0  0  0
   38.6190   33.9410   39.7680 H   0  0  0  0  0  0  0  0  0  0  0  0
   40.8080   32.7680   40.8990 C   0  0  0  0  0  0  0  0  0  0  0  0
   41.8070   32.0160   41.4980 C   0  0  0  0  0  0  0  0  0  0  0  0
   41.6980   31.0010   41.9410 H   0  0  0  0  0  0  0  0  0  0  0  0
   43.2690   33.1270   41.3510 S   0  0  0  0  0  0  0  0  0  0  0  0
   42.2200   34.4490   40.4750 C   0  0  0  0  0  0  0  0  0  0  0  0
   42.5180   35.4560   40.0830 H   0  0  0  0  0  0  0  0  0  0  0  0
   41.1810   33.9490   40.4460 N   0  0  0  0  0  0  0  0  0  0  0  0
  1  2  1  0  0  0  0
  2  7  2  0  0  0  0
  2  3  1  0  0  0  0
  3  4  2  0  0  0  0
  4  5  1  0  0  0  0
  4  8  1  0  0  0  0
  5  9  1  0  0  0  0
  6 10  1  0  0  0  0
  6  5  2  0  0  0  0
  7  6  1  0  0  0  0
 11  7  1  0  0  0  0
 12 11  1  0  0  0  0
 12 13  1  0  0  0  0
 12 17  1  0  0  0  0
 13 19  1  0  0  0  0
 14 13  1  0  0  0  0
 14 20  1  0  0  0  0
 15 22  1  1  0  0  0
 15 14  1  0  0  0  0
 15 11  1  0  0  0  0
 16 12  1  0  0  0  0
 18 13  1  0  0  0  0
 21 14  1  0  0  0  0
 23 15  1  0  0  0  0
 24 23  1  0  0  0  0
 25 23  1  0  0  0  0
 26 23  1  0  0  0  0
 27 28  2  0  0  0  0
 27 32  1  0  0  0  0
 28 29  1  0  0  0  0
 29 35  1  0  0  0  0
 29 30  2  0  0  0  0
 31 30  1  0  0  0  0
 31  3  1  0  0  0  0
 32 31  2  0  0  0  0
 33 27  1  0  0  0  0
 34 28  1  0  0  0  0
 35 36  2  0  0  0  0
 36 37  1  0  0  0  0
 38 36  1  0  0  0  0
 39 38  1  0  0  0  0
 40 39  1  0  0  0  0
 41 39  2  0  0  0  0
 41 35  1  0  0  0  0
M  END
>  <minimizedAffinity>
-5.84590149

$$$$

 OpenBabel03252505263D

 41 44  0  0  1  0  0  0  0  0999 V2000
   37.7590   28.0080   39.6860 F   0  0  0  0  0  0  0  0  0  0  0  0
   37.8190   28.0320   41.0440 C   0  0  0  0  0  0  0  0  0  0  0  0
   37.9330   29.2550   41.6590 C   0  0  0  0  0  0  0  0  0  0  0  0
   37.9940   29.2780   43.0330 C   0  0  0  0  0  0  0  0  0  0  0  0
   37.9390   28.0930   43.7410 C   0  0  0  0  0  0  0  0  0  0  0  0
   37.8260   26.8760   43.1330 C   0  0  0  0  0  0  0  0  0  0  0  0
   37.7650   26.8610   41.7310 C   0  0  0  0  0  0  0  0  0  0  0  0
   38.0840   30.2140   43.5700 H   0  0  0  0  0  0  0  0  0  0  0  0
   37.9880   28.1170   44.8240 H   0  0  0  0  0  0  0  0  0  0  0  0
   37.7850   25.9620   43.7030 H   0  0  0  0  0  0  0  0  0  0  0  0
   37.6470   25.5790   41.1460 N   0  0  0  0  0  0  0  0  0  0  0  0
   36.9780   24.3850   41.5900 C   0  0  0  0  0  0  0  0  0  0  0  0
   36.1650   23.9750   40.3440 C   0  0  0  0  0  0  0  0  0  0  0  0
   36.9140   24.6110   39.2050 C   0  0  0  0  0  0  0  0  0  0  0  0
   38.1890   25.0770   39.8780 C   0  0  2  0  0  0  0  0  0  0  0  0
   37.7460   23.6330   41.8220 H   0  0  0  0  0  0  0  0  0  0  0  0
   36.2860   24.5600   42.4330 H   0  0  0  0  0  0  0  0  0  0  0  0
   36.2090   22.8670   40.3200 H   0  0  0  0  0  0  0  0  0  0  0  0
   35.1350   24.3630   40.4640 H   0  0  0  0  0  0  0  0  0  0  0  0
   36.3670   25.4190   38.7090 H   0  0  0  0  0  0  0  0  0  0  0  0
   37.1950   23.7890   38.4960 H   0  0  0  0  0  0  0  0  0  0  0  0
   38.5280   25.9820   39.3230 H   0  0  0  0  0  0  0  0  0  0  0  0
   39.2170   24.0240   40.0290 C   0  0  0  0  0  0  0  0  0  0  0  0
   38.7800   23.0180   39.8750 H   0  0  0  0  0  0  0  0  0  0  0  0
   39.9820   24.1590   39.2310 H   0  0  0  0  0  0  0  0  0  0  0  0
   39.7630   24.1220   40.9850 H   0  0  0  0  0  0  0  0  0  0  0  0
   36.9500   32.3840   40.0090 C   0  0  0  0  0  0  0  0  0  0  0  0
   38.1330   32.7750   39.3720 C   0  0  0  0  0  0  0  0  0  0  0  0
   39.2590   31.9510   39.5220 C   0  0  0  0  0  0  0  0  0  0  0  0
   39.0890   30.8520   40.2720 N   0  0  0  0  0  0  0  0  0  0  0  0
   37.9850   30.4800   40.8700 C   0  0  0  0  0  0  0  0  0  0  0  0
   36.9140   31.2520   40.7340 N   0  0  0  0  0  0  0  0  0  0  0  0
   36.0680   33.0120   39.9030 H   0  0  0  0  0  0  0  0  0  0  0  0
   38.2210   33.6620   38.7830 H   0  0  0  0  0  0  0  0  0  0  0  0
   40.5630   32.2650   38.8940 C   0  0  0  0  0  0  0  0  0  0  0  0
   40.7080   32.2750   37.5160 C   0  0  0  0  0  0  0  0  0  0  0  0
   39.9150   32.0640   36.7630 H   0  0  0  0  0  0  0  0  0  0  0  0
   42.4860   32.7150   37.3160 S   0  0  0  0  0  0  0  0  0  0  0  0
   42.7100   32.8070   39.2020 C   0  0  0  0  0  0  0  0  0  0  0  0
   43.6250   33.0470   39.8030 H   0  0  0  0  0  0  0  0  0  0  0  0
   41.6520   32.5490   39.5810 N   0  0  0  0  0  0  0  0  0  0  0  0
  1  2  1  0  0  0  0
  2  3  2  0  0  0  0
  2  7  1  0  0  0  0
  3  4  1  0  0  0  0
  4  8  1  0  0  0  0
  4  5  2  0  0  0  0
  5  9  1  0  0  0  0
  6 10  1  0  0  0  0
  6  5  1  0  0  0  0
  7  6  2  0  0  0  0
 11 12  1  0  0  0  0
 11  7  1  0  0  0  0
 12 16  1  0  0  0  0
 12 17  1  0  0  0  0
 13 19  1  0  0  0  0
 13 12  1  0  0  0  0
 14 15  1  0  0  0  0
 14 13  1  0  0  0  0
 15 22  1  6  0  0  0
 15 23  1  0  0  0  0
 15 11  1  0  0  0  0
 18 13  1  0  0  0  0
 20 14  1  0  0  0  0
 21 14  1  0  0  0  0
 23 26  1  0  0  0  0
 24 23  1  0  0  0  0
 25 23  1  0  0  0  0
 27 32  1  0  0  0  0
 28 29  1  0  0  0  0
 28 27  2  0  0  0  0
 29 30  2  0  0  0  0
 30 31  1  0  0  0  0
 31  3  1  0  0  0  0
 32 31  2  0  0  0  0
 33 27  1  0  0  0  0
 34 28  1  0  0  0  0
 35 29  1  0  0  0  0
 35 41  1  0  0  0  0
 36 35  2  0  0  0  0
 37 36  1  0  0  0  0
 38 36  1  0  0  0  0
 38 39  1  0  0  0  0
 39 41  2  0  0  0  0
 39 40  1  0  0  0  0
M  END
>  <minimizedAffinity>
-5.61987352

$$$$

 OpenBabel03252505263D

 41 44  0  0  1  0  0  0  0  0999 V2000
   40.4810   30.9510   41.4460 F   0  0  0  0  0  0  0  0  0  0  0  0
   39.3010   31.3010   40.8640 C   0  0  0  0  0  0  0  0  0  0  0  0
   38.1860   30.5660   41.1840 C   0  0  0  0  0  0  0  0  0  0  0  0
   36.9950   30.9210   40.5950 C   0  0  0  0  0  0  0  0  0  0  0  0
   36.9560   31.9870   39.7160 C   0  0  0  0  0  0  0  0  0  0  0  0
   38.0630   32.7190   39.3970 C   0  0  0  0  0  0  0  0  0  0  0  0
   39.2740   32.3500   40.0020 C   0  0  0  0  0  0  0  0  0  0  0  0
   36.0840   30.3760   40.8100 H   0  0  0  0  0  0  0  0  0  0  0  0
   36.0140   32.2620   39.2550 H   0  0  0  0  0  0  0  0  0  0  0  0
   38.0120   33.5470   38.7080 H   0  0  0  0  0  0  0  0  0  0  0  0
   40.3920   33.1370   39.6410 N   0  0  0  0  0  0  0  0  0  0  0  0
   40.6740   34.5360   39.8280 C   0  0  0  0  0  0  0  0  0  0  0  0
   42.0940   34.5120   40.4340 C   0  0  0  0  0  0  0  0  0  0  0  0
   42.6580   33.1970   39.9690 C   0  0  0  0  0  0  0  0  0  0  0  0
   41.6280   32.7460   38.9530 C   0  0  2  0  0  0  0  0  0  0  0  0
   40.6790   35.0150   38.8380 H   0  0  0  0  0  0  0  0  0  0  0  0
   39.9860   35.0300   40.5360 H   0  0  0  0  0  0  0  0  0  0  0  0
   42.6150   35.3830   39.9880 H   0  0  0  0  0  0  0  0  0  0  0  0
   41.9970   34.5850   41.5340 H   0  0  0  0  0  0  0  0  0  0  0  0
   42.8170   32.4730   40.7740 H   0  0  0  0  0  0  0  0  0  0  0  0
   43.6010   33.4240   39.4060 H   0  0  0  0  0  0  0  0  0  0  0  0
   41.6350   31.6320   38.9690 H   0  0  0  0  0  0  0  0  0  0  0  0
   41.7940   33.3460   37.6110 C   0  0  0  0  0  0  0  0  0  0  0  0
   42.4680   34.2240   37.6500 H   0  0  0  0  0  0  0  0  0  0  0  0
   42.2880   32.6000   36.9480 H   0  0  0  0  0  0  0  0  0  0  0  0
   40.8180   33.5650   37.1400 H   0  0  0  0  0  0  0  0  0  0  0  0
   37.2930   28.0400   43.6940 C   0  0  0  0  0  0  0  0  0  0  0  0
   38.4960   27.3450   43.8650 C   0  0  0  0  0  0  0  0  0  0  0  0
   39.6030   27.7590   43.1090 C   0  0  0  0  0  0  0  0  0  0  0  0
   39.3980   28.7960   42.2830 N   0  0  0  0  0  0  0  0  0  0  0  0
   38.2760   29.4500   42.1180 C   0  0  0  0  0  0  0  0  0  0  0  0
   37.2230   29.0670   42.8290 N   0  0  0  0  0  0  0  0  0  0  0  0
   36.4250   27.7310   44.2730 H   0  0  0  0  0  0  0  0  0  0  0  0
   38.6120   26.5230   44.5370 H   0  0  0  0  0  0  0  0  0  0  0  0
   40.9250   27.0980   43.2090 C   0  0  0  0  0  0  0  0  0  0  0  0
   42.0680   27.8280   43.4920 C   0  0  0  0  0  0  0  0  0  0  0  0
   42.1290   28.9260   43.6690 H   0  0  0  0  0  0  0  0  0  0  0  0
   43.3700   26.5250   43.4910 S   0  0  0  0  0  0  0  0  0  0  0  0
   42.0790   25.1880   43.0920 C   0  0  0  0  0  0  0  0  0  0  0  0
   42.2130   24.0850   42.9440 H   0  0  0  0  0  0  0  0  0  0  0  0
   41.1060   25.8040   43.0380 N   0  0  0  0  0  0  0  0  0  0  0  0
  2  3  1  0  0  0  0
  2  1  1  0  0  0  0
  3 31  1  0  0  0  0
  4  8  1  0  0  0  0
  4  3  2  0  0  0  0
  5  4  1  0  0  0  0
  6  5  2  0  0  0  0
  6  7  1  0  0  0  0
  7  2  2  0  0  0  0
  9  5  1  0  0  0  0
 10  6  1  0  0  0  0
 11 12  1  0  0  0  0
 11  7  1  0  0  0  0
 12 13  1  0  0  0  0
 12 17  1  0  0  0  0
 13 19  1  0  0  0  0
 14 13  1  0  0  0  0
 14 20  1  0  0  0  0
 15 22  1  6  0  0  0
 15 11  1  0  0  0  0
 15 14  1  0  0  0  0
 16 12  1  0  0  0  0
 18 13  1  0  0  0  0
 21 14  1  0  0  0  0
 23 24  1  0  0  0  0
 23 15  1  0  0  0  0
 25 23  1  0  0  0  0
 26 23  1  0  0  0  0
 27 28  1  0  0  0  0
 27 33  1  0  0  0  0
 28 34  1  0  0  0  0
 29 35  1  0  0  0  0
 29 28  2  0  0  0  0
 30 29  1  0  0  0  0
 31 30  2  0  0  0  0
 31 32  1  0  0  0  0
 32 27  2  0  0  0  0
 35 36  2  0  0  0  0
 36 37  1  0  0  0  0
 38 36  1  0  0  0  0
 39 38  1  0  0  0  0
 40 39  1  0  0  0  0
 41 39  2  0  0  0  0
 41 35  1  0  0  0  0
M  END
>  <minimizedAffinity>
-5.58493233

$$$$

 OpenBabel03252505263D

 41 44  0  0  1  0  0  0  0  0999 V2000
   40.1360   30.4600   41.2460 F   0  0  0  0  0  0  0  0  0  0  0  0
   39.0790   31.1550   40.7450 C   0  0  0  0  0  0  0  0  0  0  0  0
   37.8210   30.6470   40.9560 C   0  0  0  0  0  0  0  0  0  0  0  0
   36.7530   31.3500   40.4490 C   0  0  0  0  0  0  0  0  0  0  0  0
   36.9730   32.5250   39.7560 C   0  0  0  0  0  0  0  0  0  0  0  0
   38.2220   33.0320   39.5450 C   0  0  0  0  0  0  0  0  0  0  0  0
   39.3060   32.3090   40.0650 C   0  0  0  0  0  0  0  0  0  0  0  0
   35.7390   30.9950   40.5850 H   0  0  0  0  0  0  0  0  0  0  0  0
   36.1270   33.0750   39.3580 H   0  0  0  0  0  0  0  0  0  0  0  0
   38.3740   33.9510   39.0010 H   0  0  0  0  0  0  0  0  0  0  0  0
   40.5800   32.8730   39.8230 N   0  0  0  0  0  0  0  0  0  0  0  0
   41.2900   33.9420   40.4740 C   0  0  0  0  0  0  0  0  0  0  0  0
   42.6780   33.3130   40.7300 C   0  0  0  0  0  0  0  0  0  0  0  0
   42.7740   32.2290   39.6920 C   0  0  0  0  0  0  0  0  0  0  0  0
   41.5800   32.5230   38.8060 C   0  0  2  0  0  0  0  0  0  0  0  0
   41.3640   34.7800   39.7660 H   0  0  0  0  0  0  0  0  0  0  0  0
   40.8440   34.2380   41.4390 H   0  0  0  0  0  0  0  0  0  0  0  0
   43.4030   34.1340   40.5600 H   0  0  0  0  0  0  0  0  0  0  0  0
   42.6940   32.9300   41.7680 H   0  0  0  0  0  0  0  0  0  0  0  0
   42.7660   31.2160   40.1050 H   0  0  0  0  0  0  0  0  0  0  0  0
   43.6950   32.4350   39.0850 H   0  0  0  0  0  0  0  0  0  0  0  0
   41.2460   31.5450   38.3890 H   0  0  0  0  0  0  0  0  0  0  0  0
   41.8160   33.5770   37.7960 C   0  0  0  0  0  0  0  0  0  0  0  0
   42.7270   34.1590   38.0360 H   0  0  0  0  0  0  0  0  0  0  0  0
   42.0050   33.0890   36.8130 H   0  0  0  0  0  0  0  0  0  0  0  0
   40.9210   34.2090   37.6490 H   0  0  0  0  0  0  0  0  0  0  0  0
   37.5700   28.2330   43.7110 C   0  0  0  0  0  0  0  0  0  0  0  0
   37.2840   27.0380   43.0410 C   0  0  0  0  0  0  0  0  0  0  0  0
   37.1800   27.0810   41.6430 C   0  0  0  0  0  0  0  0  0  0  0  0
   37.3690   28.2820   41.0740 N   0  0  0  0  0  0  0  0  0  0  0  0
   37.6370   29.4030   41.6960 C   0  0  0  0  0  0  0  0  0  0  0  0
   37.7370   29.3730   43.0180 N   0  0  0  0  0  0  0  0  0  0  0  0
   37.6540   28.2160   44.7960 H   0  0  0  0  0  0  0  0  0  0  0  0
   37.1420   26.1020   43.5370 H   0  0  0  0  0  0  0  0  0  0  0  0
   36.8820   25.8790   40.8300 C   0  0  0  0  0  0  0  0  0  0  0  0
   36.9750   24.6080   41.3740 C   0  0  0  0  0  0  0  0  0  0  0  0
   37.2650   24.3520   42.4180 H   0  0  0  0  0  0  0  0  0  0  0  0
   36.5050   23.5410   39.9480 S   0  0  0  0  0  0  0  0  0  0  0  0
   36.2610   25.0680   38.8420 C   0  0  0  0  0  0  0  0  0  0  0  0
   35.9510   25.1310   37.7660 H   0  0  0  0  0  0  0  0  0  0  0  0
   36.5170   25.9290   39.5640 N   0  0  0  0  0  0  0  0  0  0  0  0
  2  3  1  0  0  0  0
  2  1  1  0  0  0  0
  3 31  1  0  0  0  0
  4  8  1  0  0  0  0
  4  3  2  0  0  0  0
  5  4  1  0  0  0  0
  6  5  2  0  0  0  0
  6  7  1  0  0  0  0
  7  2  2  0  0  0  0
  9  5  1  0  0  0  0
 10  6  1  0  0  0  0
 11  7  1  0  0  0  0
 11 12  1  0  0  0  0
 12 13  1  0  0  0  0
 12 17  1  0  0  0  0
 13 19  1  0  0  0  0
 14 20  1  0  0  0  0
 14 13  1  0  0  0  0
 15 22  1  6  0  0  0
 15 14  1  0  0  0  0
 15 11  1  0  0  0  0
 16 12  1  0  0  0  0
 18 13  1  0  0  0  0
 21 14  1  0  0  0  0
 23 24  1  0  0  0  0
 23 15  1  0  0  0  0
 25 23  1  0  0  0  0
 26 23  1  0  0  0  0
 27 33  1  0  0  0  0
 28 34  1  0  0  0  0
 28 27  1  0  0  0  0
 29 28  2  0  0  0  0
 30 29  1  0  0  0  0
 30 31  2  0  0  0  0
 31 32  1  0  0  0  0
 32 27  2  0  0  0  0
 35 36  2  0  0  0  0
 35 29  1  0  0  0  0
 36 37  1  0  0  0  0
 38 36  1  0  0  0  0
 39 41  2  0  0  0  0
 39 38  1  0  0  0  0
 40 39  1  0  0  0  0
 41 35  1  0  0  0  0
M  END
>  <minimizedAffinity>
-5.58061886

$$$$

 OpenBabel03252505263D

 41 44  0  0  1  0  0  0  0  0999 V2000
   32.6320   29.3980   39.3700 F   0  0  0  0  0  0  0  0  0  0  0  0
   33.1530   29.2550   38.1220 C   0  0  0  0  0  0  0  0  0  0  0  0
   34.4870   28.9490   38.0150 C   0  0  0  0  0  0  0  0  0  0  0  0
   35.0130   28.8050   36.7530 C   0  0  0  0  0  0  0  0  0  0  0  0
   34.1980   28.9690   35.6490 C   0  0  0  0  0  0  0  0  0  0  0  0
   32.8710   29.2730   35.7510 C   0  0  0  0  0  0  0  0  0  0  0  0
   32.3430   29.4180   37.0430 C   0  0  0  0  0  0  0  0  0  0  0  0
   36.0590   28.5650   36.6100 H   0  0  0  0  0  0  0  0  0  0  0  0
   34.6180   28.8550   34.6550 H   0  0  0  0  0  0  0  0  0  0  0  0
   32.2520   29.3970   34.8780 H   0  0  0  0  0  0  0  0  0  0  0  0
   30.9650   29.7320   37.1000 N   0  0  0  0  0  0  0  0  0  0  0  0
   29.7970   28.9650   36.7560 C   0  0  0  0  0  0  0  0  0  0  0  0
   28.9070   29.1350   38.0060 C   0  0  0  0  0  0  0  0  0  0  0  0
   29.3960   30.4180   38.6210 C   0  0  0  0  0  0  0  0  0  0  0  0
   30.3050   30.9670   37.5390 C   0  0  2  0  0  0  0  0  0  0  0  0
   29.3320   29.4340   35.8770 H   0  0  0  0  0  0  0  0  0  0  0  0
   30.0080   27.8920   36.6050 H   0  0  0  0  0  0  0  0  0  0  0  0
   27.8720   29.2140   37.6170 H   0  0  0  0  0  0  0  0  0  0  0  0
   29.0570   28.2510   38.6560 H   0  0  0  0  0  0  0  0  0  0  0  0
   29.9000   30.2860   39.5830 H   0  0  0  0  0  0  0  0  0  0  0  0
   28.5140   31.1060   38.6930 H   0  0  0  0  0  0  0  0  0  0  0  0
   31.0960   31.5560   38.0590 H   0  0  0  0  0  0  0  0  0  0  0  0
   29.5990   31.6960   36.4630 C   0  0  0  0  0  0  0  0  0  0  0  0
   28.5120   31.4820   36.4870 H   0  0  0  0  0  0  0  0  0  0  0  0
   29.7070   32.7890   36.6460 H   0  0  0  0  0  0  0  0  0  0  0  0
   30.0590   31.5110   35.4750 H   0  0  0  0  0  0  0  0  0  0  0  0
   36.3030   29.6650   41.1250 C   0  0  0  0  0  0  0  0  0  0  0  0
   36.8600   28.4210   41.4440 C   0  0  0  0  0  0  0  0  0  0  0  0
   36.6000   27.3480   40.5790 C   0  0  0  0  0  0  0  0  0  0  0  0
   35.8320   27.6220   39.5130 N   0  0  0  0  0  0  0  0  0  0  0  0
   35.3080   28.7840   39.2100 C   0  0  0  0  0  0  0  0  0  0  0  0
   35.5480   29.8050   40.0210 N   0  0  0  0  0  0  0  0  0  0  0  0
   36.4950   30.5070   41.7870 H   0  0  0  0  0  0  0  0  0  0  0  0
   37.4680   28.2500   42.3060 H   0  0  0  0  0  0  0  0  0  0  0  0
   37.1370   25.9880   40.8150 C   0  0  0  0  0  0  0  0  0  0  0  0
   36.6730   24.9010   40.0910 C   0  0  0  0  0  0  0  0  0  0  0  0
   35.8940   24.9160   39.2960 H   0  0  0  0  0  0  0  0  0  0  0  0
   37.6670   23.5170   40.7900 S   0  0  0  0  0  0  0  0  0  0  0  0
   38.5570   24.7080   41.9740 C   0  0  0  0  0  0  0  0  0  0  0  0
   39.3500   24.4990   42.7380 H   0  0  0  0  0  0  0  0  0  0  0  0
   38.0690   25.7190   41.7080 N   0  0  0  0  0  0  0  0  0  0  0  0
  2  1  1  0  0  0  0
  3  2  1  0  0  0  0
  3 31  1  0  0  0  0
  4  3  2  0  0  0  0
  5  6  2  0  0  0  0
  5  4  1  0  0  0  0
  6  7  1  0  0  0  0
  7 11  1  0  0  0  0
  7  2  2  0  0  0  0
  8  4  1  0  0  0  0
  9  5  1  0  0  0  0
 10  6  1  0  0  0  0
 11 15  1  0  0  0  0
 12 11  1  0  0  0  0
 12 13  1  0  0  0  0
 13 14  1  0  0  0  0
 13 19  1  0  0  0  0
 14 21  1  0  0  0  0
 14 20  1  0  0  0  0
 15 22  1  1  0  0  0
 15 14  1  0  0  0  0
 16 12  1  0  0  0  0
 17 12  1  0  0  0  0
 18 13  1  0  0  0  0
 23 24  1  0  0  0  0
 23 25  1  0  0  0  0
 23 15  1  0  0  0  0
 26 23  1  0  0  0  0
 27 28  1  0  0  0  0
 27 33  1  0  0  0  0
 28 34  1  0  0  0  0
 29 35  1  0  0  0  0
 29 28  2  0  0  0  0
 30 29  1  0  0  0  0
 31 30  2  0  0  0  0
 31 32  1  0  0  0  0
 32 27  2  0  0  0  0
 35 41  1  0  0  0  0
 36 38  1  0  0  0  0
 36 35  2  0  0  0  0
 37 36  1  0  0  0  0
 38 39  1  0  0  0  0
 39 40  1  0  0  0  0
 41 39  2  0  0  0  0
M  END
>  <minimizedAffinity>
-5.51499987

$$$$

 OpenBabel03252505263D

 41 44  0  0  1  0  0  0  0  0999 V2000
   40.1090   30.7230   39.2940 F   0  0  0  0  0  0  0  0  0  0  0  0
   39.7010   31.9690   39.6570 C   0  0  0  0  0  0  0  0  0  0  0  0
   38.4910   32.0880   40.2940 C   0  0  0  0  0  0  0  0  0  0  0  0
   38.0800   33.3480   40.6600 C   0  0  0  0  0  0  0  0  0  0  0  0
   38.8820   34.4380   40.3810 C   0  0  0  0  0  0  0  0  0  0  0  0
   40.0860   34.3240   39.7470 C   0  0  0  0  0  0  0  0  0  0  0  0
   40.4980   33.0340   39.3780 C   0  0  0  0  0  0  0  0  0  0  0  0
   37.1340   33.5000   41.1650 H   0  0  0  0  0  0  0  0  0  0  0  0
   38.5540   35.4300   40.6710 H   0  0  0  0  0  0  0  0  0  0  0  0
   40.6980   35.1860   39.5380 H   0  0  0  0  0  0  0  0  0  0  0  0
   41.7510   32.9650   38.7250 N   0  0  0  0  0  0  0  0  0  0  0  0
   42.1400   33.2660   37.3730 C   0  0  0  0  0  0  0  0  0  0  0  0
   43.3740   34.1720   37.5760 C   0  0  0  0  0  0  0  0  0  0  0  0
   43.8750   33.7910   38.9420 C   0  0  0  0  0  0  0  0  0  0  0  0
   43.0580   32.5530   39.2520 C   0  0  2  0  0  0  0  0  0  0  0  0
   42.4220   32.3220   36.8840 H   0  0  0  0  0  0  0  0  0  0  0  0
   41.3710   33.8230   36.8110 H   0  0  0  0  0  0  0  0  0  0  0  0
   44.0780   33.8890   36.7670 H   0  0  0  0  0  0  0  0  0  0  0  0
   43.0400   35.2250   37.5080 H   0  0  0  0  0  0  0  0  0  0  0  0
   43.7660   34.5800   39.6910 H   0  0  0  0  0  0  0  0  0  0  0  0
   44.9410   33.4620   38.8210 H   0  0  0  0  0  0  0  0  0  0  0  0
   42.9340   32.5240   40.3590 H   0  0  0  0  0  0  0  0  0  0  0  0
   43.5890   31.3080   38.6570 C   0  0  0  0  0  0  0  0  0  0  0  0
   44.3330   31.5320   37.8670 H   0  0  0  0  0  0  0  0  0  0  0  0
   44.1320   30.7420   39.4470 H   0  0  0  0  0  0  0  0  0  0  0  0
   42.7770   30.6400   38.3160 H   0  0  0  0  0  0  0  0  0  0  0  0
   35.6330   29.7920   40.4990 C   0  0  0  0  0  0  0  0  0  0  0  0
   36.1930   28.6650   41.1100 C   0  0  0  0  0  0  0  0  0  0  0  0
   37.5550   28.7120   41.4440 C   0  0  0  0  0  0  0  0  0  0  0  0
   38.1980   29.8500   41.1410 N   0  0  0  0  0  0  0  0  0  0  0  0
   37.6790   30.9080   40.5700 C   0  0  0  0  0  0  0  0  0  0  0  0
   36.3920   30.8740   40.2500 N   0  0  0  0  0  0  0  0  0  0  0  0
   34.5780   29.7720   40.2330 H   0  0  0  0  0  0  0  0  0  0  0  0
   35.6410   27.7780   41.3320 H   0  0  0  0  0  0  0  0  0  0  0  0
   38.2540   27.5790   42.0930 C   0  0  0  0  0  0  0  0  0  0  0  0
   38.2130   26.3060   41.5460 C   0  0  0  0  0  0  0  0  0  0  0  0
   37.6870   26.0000   40.6130 H   0  0  0  0  0  0  0  0  0  0  0  0
   39.2250   25.3370   42.7420 S   0  0  0  0  0  0  0  0  0  0  0  0
   39.5240   26.8890   43.7980 C   0  0  0  0  0  0  0  0  0  0  0  0
   40.1090   27.0070   44.7480 H   0  0  0  0  0  0  0  0  0  0  0  0
   38.9450   27.6940   43.2100 N   0  0  0  0  0  0  0  0  0  0  0  0
  1  2  1  0  0  0  0
  2  3  1  0  0  0  0
  3 31  1  0  0  0  0
  3  4  2  0  0  0  0
  4  8  1  0  0  0  0
  5  4  1  0  0  0  0
  5  9  1  0  0  0  0
  6  5  2  0  0  0  0
  7  2  2  0  0  0  0
  7  6  1  0  0  0  0
 10  6  1  0  0  0  0
 11 15  1  0  0  0  0
 11  7  1  0  0  0  0
 12 13  1  0  0  0  0
 12 11  1  0  0  0  0
 13 14  1  0  0  0  0
 14 15  1  0  0  0  0
 14 20  1  0  0  0  0
 15 22  1  1  0  0  0
 16 12  1  0  0  0  0
 17 12  1  0  0  0  0
 18 13  1  0  0  0  0
 19 13  1  0  0  0  0
 21 14  1  0  0  0  0
 23 15  1  0  0  0  0
 23 25  1  0  0  0  0
 24 23  1  0  0  0  0
 26 23  1  0  0  0  0
 27 28  1  0  0  0  0
 28 34  1  0  0  0  0
 28 29  2  0  0  0  0
 29 35  1  0  0  0  0
 30 29  1  0  0  0  0
 31 30  2  0  0  0  0
 32 27  2  0  0  0  0
 32 31  1  0  0  0  0
 33 27  1  0  0  0  0
 35 41  1  0  0  0  0
 36 35  2  0  0  0  0
 36 38  1  0  0  0  0
 37 36  1  0  0  0  0
 38 39  1  0  0  0  0
 39 40  1  0  0  0  0
 41 39  2  0  0  0  0
M  END
>  <minimizedAffinity>
-5.46230459

$$$$

 OpenBabel03252505263D

 41 44  0  0  1  0  0  0  0  0999 V2000
   37.3990   31.1450   37.3770 F   0  0  0  0  0  0  0  0  0  0  0  0
   36.6860   30.6060   38.4030 C   0  0  0  0  0  0  0  0  0  0  0  0
   36.8620   31.1390   39.6560 C   0  0  0  0  0  0  0  0  0  0  0  0
   36.1400   30.5930   40.6920 C   0  0  0  0  0  0  0  0  0  0  0  0
   35.2750   29.5440   40.4450 C   0  0  0  0  0  0  0  0  0  0  0  0
   35.0980   29.0120   39.2010 C   0  0  0  0  0  0  0  0  0  0  0  0
   35.8380   29.5750   38.1500 C   0  0  0  0  0  0  0  0  0  0  0  0
   36.2400   30.9730   41.7000 H   0  0  0  0  0  0  0  0  0  0  0  0
   34.7080   29.1170   41.2650 H   0  0  0  0  0  0  0  0  0  0  0  0
   34.4170   28.1930   39.0280 H   0  0  0  0  0  0  0  0  0  0  0  0
   35.6210   28.9920   36.8790 N   0  0  0  0  0  0  0  0  0  0  0  0
   34.4870   29.0300   35.9940 C   0  0  0  0  0  0  0  0  0  0  0  0
   35.1310   29.4140   34.6440 C   0  0  0  0  0  0  0  0  0  0  0  0
   36.5600   28.9680   34.7910 C   0  0  0  0  0  0  0  0  0  0  0  0
   36.5140   28.1550   36.0690 C   0  0  2  0  0  0  0  0  0  0  0  0
   34.0590   28.0180   35.9500 H   0  0  0  0  0  0  0  0  0  0  0  0
   33.7420   29.7950   36.2700 H   0  0  0  0  0  0  0  0  0  0  0  0
   34.5770   28.8310   33.8810 H   0  0  0  0  0  0  0  0  0  0  0  0
   35.0230   30.5080   34.5130 H   0  0  0  0  0  0  0  0  0  0  0  0
   37.2810   29.7910   34.8270 H   0  0  0  0  0  0  0  0  0  0  0  0
   36.7700   28.2540   33.9520 H   0  0  0  0  0  0  0  0  0  0  0  0
   37.5190   28.2530   36.5430 H   0  0  0  0  0  0  0  0  0  0  0  0
   36.0490   26.7640   35.8900 C   0  0  0  0  0  0  0  0  0  0  0  0
   35.5550   26.6350   34.9060 H   0  0  0  0  0  0  0  0  0  0  0  0
   36.9360   26.0910   35.8860 H   0  0  0  0  0  0  0  0  0  0  0  0
   35.4240   26.4300   36.7390 H   0  0  0  0  0  0  0  0  0  0  0  0
   38.2090   34.5360   40.0110 C   0  0  0  0  0  0  0  0  0  0  0  0
   39.5630   34.2990   40.2710 C   0  0  0  0  0  0  0  0  0  0  0  0
   39.9960   32.9650   40.3210 C   0  0  0  0  0  0  0  0  0  0  0  0
   39.0540   32.0320   40.1110 N   0  0  0  0  0  0  0  0  0  0  0  0
   37.7860   32.2470   39.8670 C   0  0  0  0  0  0  0  0  0  0  0  0
   37.3670   33.5050   39.8180 N   0  0  0  0  0  0  0  0  0  0  0  0
   37.8580   35.5650   39.9700 H   0  0  0  0  0  0  0  0  0  0  0  0
   40.2790   35.0760   40.4320 H   0  0  0  0  0  0  0  0  0  0  0  0
   41.4050   32.5950   40.5870 C   0  0  0  0  0  0  0  0  0  0  0  0
   42.3220   33.5410   41.0160 C   0  0  0  0  0  0  0  0  0  0  0  0
   42.1260   34.6220   41.2010 H   0  0  0  0  0  0  0  0  0  0  0  0
   43.8610   32.5420   41.1790 S   0  0  0  0  0  0  0  0  0  0  0  0
   42.9440   30.9750   40.6160 C   0  0  0  0  0  0  0  0  0  0  0  0
   43.3270   29.9290   40.4860 H   0  0  0  0  0  0  0  0  0  0  0  0
   41.8770   31.3730   40.4390 N   0  0  0  0  0  0  0  0  0  0  0  0
  1  2  1  0  0  0  0
  2  3  1  0  0  0  0
  3 31  1  0  0  0  0
  3  4  2  0  0  0  0
  4  8  1  0  0  0  0
  5  4  1  0  0  0  0
  5  9  1  0  0  0  0
  6  5  2  0  0  0  0
  7  2  2  0  0  0  0
  7  6  1  0  0  0  0
 10  6  1  0  0  0  0
 11  7  1  0  0  0  0
 12 17  1  0  0  0  0
 12 11  1  0  0  0  0
 13 14  1  0  0  0  0
 13 12  1  0  0  0  0
 14 20  1  0  0  0  0
 14 15  1  0  0  0  0
 15 22  1  1  0  0  0
 15 11  1  0  0  0  0
 16 12  1  0  0  0  0
 18 13  1  0  0  0  0
 19 13  1  0  0  0  0
 21 14  1  0  0  0  0
 23 15  1  0  0  0  0
 23 26  1  0  0  0  0
 24 23  1  0  0  0  0
 25 23  1  0  0  0  0
 27 28  1  0  0  0  0
 28 29  2  0  0  0  0
 28 34  1  0  0  0  0
 29 35  1  0  0  0  0
 30 29  1  0  0  0  0
 31 30  2  0  0  0  0
 32 31  1  0  0  0  0
 32 27  2  0  0  0  0
 33 27  1  0  0  0  0
 35 36  2  0  0  0  0
 36 38  1  0  0  0  0
 36 37  1  0  0  0  0
 39 38  1  0  0  0  0
 40 39  1  0  0  0  0
 41 35  1  0  0  0  0
 41 39  2  0  0  0  0
M  END
>  <minimizedAffinity>
-5.42004919

$$$$

 OpenBabel03252505263D

 41 44  0  0  1  0  0  0  0  0999 V2000
   39.7100   30.4380   38.2650 F   0  0  0  0  0  0  0  0  0  0  0  0
   39.1570   31.5200   38.8760 C   0  0  0  0  0  0  0  0  0  0  0  0
   37.8330   31.4480   39.2310 C   0  0  0  0  0  0  0  0  0  0  0  0
   37.2740   32.5430   39.8480 C   0  0  0  0  0  0  0  0  0  0  0  0
   38.0480   33.6630   40.0880 C   0  0  0  0  0  0  0  0  0  0  0  0
   39.3640   33.7380   39.7350 C   0  0  0  0  0  0  0  0  0  0  0  0
   39.9260   32.6160   39.1060 C   0  0  0  0  0  0  0  0  0  0  0  0
   36.2340   32.5410   40.1500 H   0  0  0  0  0  0  0  0  0  0  0  0
   37.6020   34.5240   40.5740 H   0  0  0  0  0  0  0  0  0  0  0  0
   39.9520   34.6210   39.9300 H   0  0  0  0  0  0  0  0  0  0  0  0
   41.2920   32.7390   38.7600 N   0  0  0  0  0  0  0  0  0  0  0  0
   42.4920   32.4010   39.4780 C   0  0  0  0  0  0  0  0  0  0  0  0
   43.2890   31.5910   38.4330 C   0  0  0  0  0  0  0  0  0  0  0  0
   42.7400   32.0700   37.1170 C   0  0  0  0  0  0  0  0  0  0  0  0
   41.9020   33.2630   37.5320 C   0  0  2  0  0  0  0  0  0  0  0  0
   43.0120   33.3370   39.7290 H   0  0  0  0  0  0  0  0  0  0  0  0
   42.3080   31.7670   40.3630 H   0  0  0  0  0  0  0  0  0  0  0  0
   44.3480   31.8830   38.5860 H   0  0  0  0  0  0  0  0  0  0  0  0
   43.1070   30.5160   38.6210 H   0  0  0  0  0  0  0  0  0  0  0  0
   42.1710   31.3110   36.5710 H   0  0  0  0  0  0  0  0  0  0  0  0
   43.6050   32.4640   36.5220 H   0  0  0  0  0  0  0  0  0  0  0  0
   41.0680   33.3360   36.7960 H   0  0  0  0  0  0  0  0  0  0  0  0
   42.6720   34.5120   37.7190 C   0  0  0  0  0  0  0  0  0  0  0  0
   43.7570   34.3010   37.7910 H   0  0  0  0  0  0  0  0  0  0  0  0
   42.5350   35.1500   36.8170 H   0  0  0  0  0  0  0  0  0  0  0  0
   42.2850   35.1060   38.5670 H   0  0  0  0  0  0  0  0  0  0  0  0
   35.4710   29.0940   37.6940 C   0  0  0  0  0  0  0  0  0  0  0  0
   35.6170   27.9540   38.4910 C   0  0  0  0  0  0  0  0  0  0  0  0
   36.5330   28.0120   39.5530 C   0  0  0  0  0  0  0  0  0  0  0  0
   37.1890   29.1730   39.7030 N   0  0  0  0  0  0  0  0  0  0  0  0
   37.0560   30.2440   38.9600 C   0  0  0  0  0  0  0  0  0  0  0  0
   36.1930   30.1990   37.9530 N   0  0  0  0  0  0  0  0  0  0  0  0
   34.7660   29.0650   36.8660 H   0  0  0  0  0  0  0  0  0  0  0  0
   35.0720   27.0490   38.3340 H   0  0  0  0  0  0  0  0  0  0  0  0
   36.7700   26.8680   40.4630 C   0  0  0  0  0  0  0  0  0  0  0  0
   36.7650   25.5650   39.9880 C   0  0  0  0  0  0  0  0  0  0  0  0
   36.5950   25.2420   38.9360 H   0  0  0  0  0  0  0  0  0  0  0  0
   37.1030   24.5940   41.5160 S   0  0  0  0  0  0  0  0  0  0  0  0
   37.1910   26.1870   42.5500 C   0  0  0  0  0  0  0  0  0  0  0  0
   37.3820   26.3200   43.6470 H   0  0  0  0  0  0  0  0  0  0  0  0
   36.9950   26.9990   41.7550 N   0  0  0  0  0  0  0  0  0  0  0  0
  1  2  1  0  0  0  0
  2  7  2  0  0  0  0
  2  3  1  0  0  0  0
  3  4  2  0  0  0  0
  4  5  1  0  0  0  0
  4  8  1  0  0  0  0
  5  9  1  0  0  0  0
  6 10  1  0  0  0  0
  6  5  2  0  0  0  0
  7  6  1  0  0  0  0
 11  7  1  0  0  0  0
 11 12  1  0  0  0  0
 12 16  1  0  0  0  0
 12 17  1  0  0  0  0
 13 18  1  0  0  0  0
 13 19  1  0  0  0  0
 13 12  1  0  0  0  0
 14 15  1  0  0  0  0
 14 13  1  0  0  0  0
 15 22  1  6  0  0  0
 15 23  1  0  0  0  0
 15 11  1  0  0  0  0
 20 14  1  0  0  0  0
 21 14  1  0  0  0  0
 23 24  1  0  0  0  0
 23 26  1  0  0  0  0
 25 23  1  0  0  0  0
 27 32  2  0  0  0  0
 27 28  1  0  0  0  0
 28 29  2  0  0  0  0
 29 30  1  0  0  0  0
 29 35  1  0  0  0  0
 31  3  1  0  0  0  0
 31 30  2  0  0  0  0
 32 31  1  0  0  0  0
 33 27  1  0  0  0  0
 34 28  1  0  0  0  0
 35 41  1  0  0  0  0
 36 35  2  0  0  0  0
 36 38  1  0  0  0  0
 37 36  1  0  0  0  0
 38 39  1  0  0  0  0
 39 40  1  0  0  0  0
 41 39  2  0  0  0  0
M  END
>  <minimizedAffinity>
-5.40576077

$$$$
