
 OpenBabel03252506563D

 36 40  0  0  0  0  0  0  0  0999 V2000
   47.2790   31.4010   45.1780 C   0  0  0  0  0  0  0  0  0  0  0  0
   46.8720   32.7240   45.1430 C   0  0  0  0  0  0  0  0  0  0  0  0
   46.2280   33.3290   46.1940 C   0  0  0  0  0  0  0  0  0  0  0  0
   45.9570   32.6220   47.3530 C   0  0  0  0  0  0  0  0  0  0  0  0
   45.3600   32.8790   48.5520 N   0  0  0  0  0  0  0  0  0  0  0  0
   45.3970   31.7460   49.3070 C   0  0  0  0  0  0  0  0  0  0  0  0
   46.0180   30.8070   48.5590 N   0  0  0  0  0  0  0  0  0  0  0  0
   46.3710   31.3130   47.3620 C   0  0  0  0  0  0  0  0  0  0  0  0
   47.0110   30.6680   46.3490 C   0  0  0  0  0  0  0  0  0  0  0  0
   47.7850   30.9320   44.3450 H   0  0  0  0  0  0  0  0  0  0  0  0
   45.9150   34.3660   46.1530 H   0  0  0  0  0  0  0  0  0  0  0  0
   44.9550   33.8160   48.7990 H   0  0  0  0  0  0  0  0  0  0  0  0
   44.9900   31.6580   50.3190 H   0  0  0  0  0  0  0  0  0  0  0  0
   46.4990   35.1720   42.4210 C   0  0  0  0  0  0  0  0  0  0  0  0
   47.6570   34.9910   41.6820 C   0  0  0  0  0  0  0  0  0  0  0  0
   48.5700   34.0230   42.1190 C   0  0  0  0  0  0  0  0  0  0  0  0
   48.2750   33.3110   43.2480 N   0  0  0  0  0  0  0  0  0  0  0  0
   47.1330   33.5160   43.9440 C   0  0  0  0  0  0  0  0  0  0  0  0
   46.2480   34.4400   43.5350 N   0  0  0  0  0  0  0  0  0  0  0  0
   45.7750   35.9190   42.0990 H   0  0  0  0  0  0  0  0  0  0  0  0
   47.8350   35.5890   40.7920 H   0  0  0  0  0  0  0  0  0  0  0  0
   49.4860   33.8550   41.5650 H   0  0  0  0  0  0  0  0  0  0  0  0
   47.4120   29.2640   46.4580 C   0  0  0  0  0  0  0  0  0  0  0  0
   48.7090   28.8210   46.5200 C   0  0  0  0  0  0  0  0  0  0  0  0
   48.5720   27.4260   46.6140 C   0  0  0  0  0  0  0  0  0  0  0  0
   47.2190   27.1040   46.6040 C   0  0  0  0  0  0  0  0  0  0  0  0
   46.5980   28.2590   46.5070 O   0  0  0  0  0  0  0  0  0  0  0  0
   49.6010   29.3980   46.5020 H   0  0  0  0  0  0  0  0  0  0  0  0
   49.3880   26.7280   46.6830 H   0  0  0  0  0  0  0  0  0  0  0  0
   46.6030   25.7630   46.6830 C   0  0  0  0  0  0  0  0  0  0  0  0
   45.1420   25.6740   46.9870 C   0  0  0  0  0  0  0  0  0  0  0  0
   44.5100   26.4750   47.1520 H   0  0  0  0  0  0  0  0  0  0  0  0
   44.9790   23.7900   46.9510 S   0  0  0  0  0  0  0  0  0  0  0  0
   46.8150   23.5380   46.5540 C   0  0  0  0  0  0  0  0  0  0  0  0
   47.2340   22.5530   46.4290 H   0  0  0  0  0  0  0  0  0  0  0  0
   47.2950   24.6600   46.4960 N   0  0  0  0  0  0  0  0  0  0  0  0
  1  9  1  0  0  0  0
  2  1  2  0  0  0  0
  2  3  1  0  0  0  0
  3  4  2  0  0  0  0
  4  8  1  0  0  0  0
  4  5  1  0  0  0  0
  5 12  1  0  0  0  0
  5  6  1  0  0  0  0
  6 13  1  0  0  0  0
  7  6  2  0  0  0  0
  8  7  1  0  0  0  0
  9 23  1  0  0  0  0
  9  8  2  0  0  0  0
 10  1  1  0  0  0  0
 11  3  1  0  0  0  0
 14 19  1  0  0  0  0
 15 16  1  0  0  0  0
 15 14  2  0  0  0  0
 16 17  2  0  0  0  0
 17 18  1  0  0  0  0
 18  2  1  0  0  0  0
 19 18  2  0  0  0  0
 20 14  1  0  0  0  0
 21 15  1  0  0  0  0
 22 16  1  0  0  0  0
 23 27  1  0  0  0  0
 23 24  2  0  0  0  0
 24 25  1  0  0  0  0
 25 29  1  0  0  0  0
 26 25  2  0  0  0  0
 26 30  1  0  0  0  0
 27 26  1  0  0  0  0
 28 24  1  0  0  0  0
 30 31  2  0  0  0  0
 31 32  1  0  0  0  0
 33 31  1  0  0  0  0
 34 33  1  0  0  0  0
 35 34  1  0  0  0  0
 36 34  2  0  0  0  0
 36 30  1  0  0  0  0
M  END
>  <minimizedAffinity>
-5.38042259

>  <minimizedRMSD>
0.216333017

$$$$
