
 OpenBabel03242520233D

 42 45  0  0  0  0  0  0  0  0999 V2000
   35.9630   29.6850   39.5460 C   0  0  0  0  0  0  0  0  0  0  0  0
   36.4630   29.0080   38.8470 H   0  0  0  0  0  0  0  0  0  0  0  0
   35.0500   30.0460   39.0180 H   0  0  0  0  0  0  0  0  0  0  0  0
   37.4250   31.4920   38.8300 C   0  0  0  0  0  0  0  0  0  0  0  0
   37.2920   31.1970   37.5950 O   0  0  0  0  0  0  0  0  0  0  0  0
   36.7440   30.8570   39.8830 N   0  0  0  0  0  0  0  0  0  0  0  0
   36.7620   31.1640   40.8570 H   0  0  0  0  0  0  0  0  0  0  0  0
   38.3600   32.5800   39.2010 C   0  0  0  0  0  0  0  0  0  0  0  0
   37.8590   33.6810   39.8610 C   0  0  0  0  0  0  0  0  0  0  0  0
   38.6010   34.7700   40.2780 C   0  0  0  0  0  0  0  0  0  0  0  0
   39.9550   34.7300   40.0020 C   0  0  0  0  0  0  0  0  0  0  0  0
   40.4190   33.5990   39.3340 C   0  0  0  0  0  0  0  0  0  0  0  0
   39.6650   32.5770   38.9520 N   0  0  0  0  0  0  0  0  0  0  0  0
   36.7930   33.6970   40.0720 H   0  0  0  0  0  0  0  0  0  0  0  0
   38.1570   35.6110   40.7940 H   0  0  0  0  0  0  0  0  0  0  0  0
   40.5350   35.5620   40.3190 H   0  0  0  0  0  0  0  0  0  0  0  0
   41.8780   33.5360   39.0260 C   0  0  0  0  0  0  0  0  0  0  0  0
   42.3920   34.0160   37.7490 C   0  0  0  0  0  0  0  0  0  0  0  0
   41.8190   34.4710   36.8760 H   0  0  0  0  0  0  0  0  0  0  0  0
   44.1800   33.7160   37.8890 S   0  0  0  0  0  0  0  0  0  0  0  0
   43.9860   32.9930   39.6250 C   0  0  0  0  0  0  0  0  0  0  0  0
   44.7150   32.5930   40.3250 H   0  0  0  0  0  0  0  0  0  0  0  0
   42.8130   33.0690   39.8170 N   0  0  0  0  0  0  0  0  0  0  0  0
   35.4330   28.9600   40.7820 C   0  0  0  0  0  0  0  0  0  0  0  0
   34.8240   29.6600   41.3690 H   0  0  0  0  0  0  0  0  0  0  0  0
   34.8380   28.0890   40.5000 H   0  0  0  0  0  0  0  0  0  0  0  0
   38.0750   26.8360   42.4680 C   0  0  0  0  0  0  0  0  0  0  0  0
   36.9760   27.2050   41.6470 C   0  0  0  0  0  0  0  0  0  0  0  0
   36.5600   28.5210   41.6220 C   0  0  0  0  0  0  0  0  0  0  0  0
   37.2640   29.4030   42.4190 N   0  0  0  0  0  0  0  0  0  0  0  0
   38.3110   28.9950   43.1870 C   0  0  0  0  0  0  0  0  0  0  0  0
   38.7150   27.7160   43.2110 N   0  0  0  0  0  0  0  0  0  0  0  0
   36.4390   26.4950   41.0320 H   0  0  0  0  0  0  0  0  0  0  0  0
   38.8320   29.7280   43.7960 H   0  0  0  0  0  0  0  0  0  0  0  0
   38.4970   25.4030   42.4830 C   0  0  0  0  0  0  0  0  0  0  0  0
   39.8240   25.2030   41.6490 C   0  0  0  0  0  0  0  0  0  0  0  0
   39.6650   24.8900   43.0730 C   0  0  0  0  0  0  0  0  0  0  0  0
   37.6670   24.7530   42.0820 H   0  0  0  0  0  0  0  0  0  0  0  0
   40.3960   26.1010   41.4090 H   0  0  0  0  0  0  0  0  0  0  0  0
   39.7780   24.4520   40.8540 H   0  0  0  0  0  0  0  0  0  0  0  0
   40.2230   25.5220   43.8160 H   0  0  0  0  0  0  0  0  0  0  0  0
   39.6990   23.8240   43.3810 H   0  0  0  0  0  0  0  0  0  0  0  0
  1  6  1  0  0  0  0
  1 24  1  0  0  0  0
  2  1  1  0  0  0  0
  3  1  1  0  0  0  0
  4  8  1  0  0  0  0
  4  6  1  0  0  0  0
  5  4  2  0  0  0  0
  6  7  1  0  0  0  0
  8  9  1  0  0  0  0
  9 14  1  0  0  0  0
  9 10  2  0  0  0  0
 10 15  1  0  0  0  0
 11 10  1  0  0  0  0
 11 16  1  0  0  0  0
 12 11  2  0  0  0  0
 13  8  2  0  0  0  0
 13 12  1  0  0  0  0
 17 12  1  0  0  0  0
 17 23  1  0  0  0  0
 18 20  1  0  0  0  0
 18 17  2  0  0  0  0
 19 18  1  0  0  0  0
 20 21  1  0  0  0  0
 21 23  2  0  0  0  0
 21 22  1  0  0  0  0
 24 25  1  0  0  0  0
 24 29  1  0  0  0  0
 26 24  1  0  0  0  0
 27 35  1  0  0  0  0
 27 32  1  0  0  0  0
 28 27  2  0  0  0  0
 29 28  1  0  0  0  0
 29 30  2  0  0  0  0
 30 31  1  0  0  0  0
 31 32  2  0  0  0  0
 31 34  1  0  0  0  0
 33 28  1  0  0  0  0
 35 37  1  0  0  0  0
 36 35  1  0  0  0  0
 36 37  1  0  0  0  0
 37 42  1  0  0  0  0
 37 41  1  0  0  0  0
 38 35  1  0  0  0  0
 39 36  1  0  0  0  0
 40 36  1  0  0  0  0
M  END
>  <minimizedAffinity>
-5.84850359

$$$$

 OpenBabel03242520233D

 42 45  0  0  0  0  0  0  0  0999 V2000
   36.6260   29.9660   37.9730 C   0  0  0  0  0  0  0  0  0  0  0  0
   37.3360   29.1720   37.7230 H   0  0  0  0  0  0  0  0  0  0  0  0
   36.0350   30.1470   37.0460 H   0  0  0  0  0  0  0  0  0  0  0  0
   38.4810   31.1530   39.0050 C   0  0  0  0  0  0  0  0  0  0  0  0
   39.1390   30.0790   39.2110 O   0  0  0  0  0  0  0  0  0  0  0  0
   37.2540   31.2230   38.3220 N   0  0  0  0  0  0  0  0  0  0  0  0
   36.7830   32.0910   38.0580 H   0  0  0  0  0  0  0  0  0  0  0  0
   39.0330   32.4310   39.5150 C   0  0  0  0  0  0  0  0  0  0  0  0
   38.1620   33.4670   39.7750 C   0  0  0  0  0  0  0  0  0  0  0  0
   38.5200   34.7120   40.2580 C   0  0  0  0  0  0  0  0  0  0  0  0
   39.8680   34.9110   40.4930 C   0  0  0  0  0  0  0  0  0  0  0  0
   40.7120   33.8390   40.2180 C   0  0  0  0  0  0  0  0  0  0  0  0
   40.3190   32.6600   39.7530 N   0  0  0  0  0  0  0  0  0  0  0  0
   37.1060   33.2930   39.5850 H   0  0  0  0  0  0  0  0  0  0  0  0
   37.7950   35.4920   40.4440 H   0  0  0  0  0  0  0  0  0  0  0  0
   40.1550   35.8650   40.8650 H   0  0  0  0  0  0  0  0  0  0  0  0
   42.1700   34.0340   40.4670 C   0  0  0  0  0  0  0  0  0  0  0  0
   43.1630   33.4780   39.5540 C   0  0  0  0  0  0  0  0  0  0  0  0
   42.9980   32.8720   38.6050 H   0  0  0  0  0  0  0  0  0  0  0  0
   44.7390   33.9930   40.3020 S   0  0  0  0  0  0  0  0  0  0  0  0
   43.8510   34.8710   41.7200 C   0  0  0  0  0  0  0  0  0  0  0  0
   44.2300   35.4240   42.5760 H   0  0  0  0  0  0  0  0  0  0  0  0
   42.7010   34.6860   41.4730 N   0  0  0  0  0  0  0  0  0  0  0  0
   35.5940   29.5200   39.0090 C   0  0  0  0  0  0  0  0  0  0  0  0
   35.4560   30.3280   39.7390 H   0  0  0  0  0  0  0  0  0  0  0  0
   34.6430   29.2760   38.5330 H   0  0  0  0  0  0  0  0  0  0  0  0
   36.7270   27.1600   41.7440 C   0  0  0  0  0  0  0  0  0  0  0  0
   36.2530   28.3330   41.0990 C   0  0  0  0  0  0  0  0  0  0  0  0
   36.0910   28.3350   39.7270 C   0  0  0  0  0  0  0  0  0  0  0  0
   36.4140   27.1640   39.0690 N   0  0  0  0  0  0  0  0  0  0  0  0
   36.8650   26.0670   39.7380 C   0  0  0  0  0  0  0  0  0  0  0  0
   37.0210   26.0660   41.0700 N   0  0  0  0  0  0  0  0  0  0  0  0
   36.0080   29.2400   41.6350 H   0  0  0  0  0  0  0  0  0  0  0  0
   37.1040   25.1700   39.1750 H   0  0  0  0  0  0  0  0  0  0  0  0
   36.9000   27.1900   43.2270 C   0  0  0  0  0  0  0  0  0  0  0  0
   38.4130   27.4440   43.6070 C   0  0  0  0  0  0  0  0  0  0  0  0
   37.2880   28.3020   43.9930 C   0  0  0  0  0  0  0  0  0  0  0  0
   36.5280   26.2250   43.6780 H   0  0  0  0  0  0  0  0  0  0  0  0
   39.0630   27.8220   42.8170 H   0  0  0  0  0  0  0  0  0  0  0  0
   38.8670   26.7030   44.2730 H   0  0  0  0  0  0  0  0  0  0  0  0
   37.2260   29.3270   43.5360 H   0  0  0  0  0  0  0  0  0  0  0  0
   37.0110   28.3490   45.0680 H   0  0  0  0  0  0  0  0  0  0  0  0
  1  6  1  0  0  0  0
  1 24  1  0  0  0  0
  2  1  1  0  0  0  0
  3  1  1  0  0  0  0
  4  5  2  0  0  0  0
  4  8  1  0  0  0  0
  6  4  1  0  0  0  0
  7  6  1  0  0  0  0
  8 13  2  0  0  0  0
  8  9  1  0  0  0  0
  9 10  2  0  0  0  0
 10 15  1  0  0  0  0
 10 11  1  0  0  0  0
 11 16  1  0  0  0  0
 12 17  1  0  0  0  0
 12 11  2  0  0  0  0
 13 12  1  0  0  0  0
 14  9  1  0  0  0  0
 17 23  1  0  0  0  0
 18 20  1  0  0  0  0
 18 17  2  0  0  0  0
 19 18  1  0  0  0  0
 20 21  1  0  0  0  0
 21 22  1  0  0  0  0
 23 21  2  0  0  0  0
 24 29  1  0  0  0  0
 24 25  1  0  0  0  0
 26 24  1  0  0  0  0
 27 35  1  0  0  0  0
 28 33  1  0  0  0  0
 28 27  1  0  0  0  0
 29 28  2  0  0  0  0
 30 29  1  0  0  0  0
 30 31  2  0  0  0  0
 31 32  1  0  0  0  0
 32 27  2  0  0  0  0
 34 31  1  0  0  0  0
 35 36  1  0  0  0  0
 35 38  1  0  0  0  0
 35 37  1  0  0  0  0
 36 37  1  0  0  0  0
 36 40  1  0  0  0  0
 37 42  1  0  0  0  0
 39 36  1  0  0  0  0
 41 37  1  0  0  0  0
M  END
>  <minimizedAffinity>
-5.76013565

$$$$

 OpenBabel03242520233D

 42 45  0  0  0  0  0  0  0  0999 V2000
   36.3930   28.1520   41.5120 C   0  0  0  0  0  0  0  0  0  0  0  0
   36.8290   27.5110   40.7410 H   0  0  0  0  0  0  0  0  0  0  0  0
   35.2910   28.1150   41.3500 H   0  0  0  0  0  0  0  0  0  0  0  0
   37.4320   29.9320   40.2220 C   0  0  0  0  0  0  0  0  0  0  0  0
   37.5680   29.1940   39.1900 O   0  0  0  0  0  0  0  0  0  0  0  0
   36.7860   29.5420   41.4070 N   0  0  0  0  0  0  0  0  0  0  0  0
   36.5770   30.1650   42.1900 H   0  0  0  0  0  0  0  0  0  0  0  0
   37.9890   31.3060   40.1880 C   0  0  0  0  0  0  0  0  0  0  0  0
   37.1670   32.3390   39.7910 C   0  0  0  0  0  0  0  0  0  0  0  0
   37.5350   33.6690   39.7140 C   0  0  0  0  0  0  0  0  0  0  0  0
   38.8380   33.9650   40.0690 C   0  0  0  0  0  0  0  0  0  0  0  0
   39.6330   32.8920   40.4640 C   0  0  0  0  0  0  0  0  0  0  0  0
   39.2340   31.6280   40.5210 N   0  0  0  0  0  0  0  0  0  0  0  0
   36.1460   32.0890   39.5160 H   0  0  0  0  0  0  0  0  0  0  0  0
   36.8490   34.4420   39.3950 H   0  0  0  0  0  0  0  0  0  0  0  0
   39.1310   34.9850   40.0140 H   0  0  0  0  0  0  0  0  0  0  0  0
   41.0430   33.1900   40.8520 C   0  0  0  0  0  0  0  0  0  0  0  0
   41.8860   32.1600   41.4490 C   0  0  0  0  0  0  0  0  0  0  0  0
   41.6270   31.0770   41.6860 H   0  0  0  0  0  0  0  0  0  0  0  0
   43.4600   33.0280   41.7210 S   0  0  0  0  0  0  0  0  0  0  0  0
   42.7710   34.6350   41.0040 C   0  0  0  0  0  0  0  0  0  0  0  0
   43.2220   35.6140   40.8630 H   0  0  0  0  0  0  0  0  0  0  0  0
   41.6540   34.3410   40.7130 N   0  0  0  0  0  0  0  0  0  0  0  0
   36.5950   27.5910   42.9190 C   0  0  0  0  0  0  0  0  0  0  0  0
   36.8520   28.4180   43.5950 H   0  0  0  0  0  0  0  0  0  0  0  0
   35.6950   27.0830   43.2710 H   0  0  0  0  0  0  0  0  0  0  0  0
   39.9820   25.9900   43.4680 C   0  0  0  0  0  0  0  0  0  0  0  0
   38.9350   26.9500   43.4880 C   0  0  0  0  0  0  0  0  0  0  0  0
   37.7170   26.6380   42.9180 C   0  0  0  0  0  0  0  0  0  0  0  0
   37.6070   25.3810   42.3540 N   0  0  0  0  0  0  0  0  0  0  0  0
   38.6440   24.4990   42.3620 C   0  0  0  0  0  0  0  0  0  0  0  0
   39.8260   24.8030   42.9170 N   0  0  0  0  0  0  0  0  0  0  0  0
   39.0460   27.9290   43.9350 H   0  0  0  0  0  0  0  0  0  0  0  0
   38.5060   23.5230   41.9060 H   0  0  0  0  0  0  0  0  0  0  0  0
   41.2920   26.3580   44.0840 C   0  0  0  0  0  0  0  0  0  0  0  0
   42.3770   26.6290   42.9680 C   0  0  0  0  0  0  0  0  0  0  0  0
   41.9380   27.6020   43.9740 C   0  0  0  0  0  0  0  0  0  0  0  0
   41.6300   25.5430   44.7860 H   0  0  0  0  0  0  0  0  0  0  0  0
   42.0120   26.7820   41.9520 H   0  0  0  0  0  0  0  0  0  0  0  0
   43.3000   26.0460   43.0510 H   0  0  0  0  0  0  0  0  0  0  0  0
   41.3490   28.4920   43.6230 H   0  0  0  0  0  0  0  0  0  0  0  0
   42.6650   27.9110   44.7550 H   0  0  0  0  0  0  0  0  0  0  0  0
  1 24  1  0  0  0  0
  2  1  1  0  0  0  0
  3  1  1  0  0  0  0
  4  6  1  0  0  0  0
  5  4  2  0  0  0  0
  6  1  1  0  0  0  0
  6  7  1  0  0  0  0
  8  4  1  0  0  0  0
  8 13  1  0  0  0  0
  9  8  2  0  0  0  0
 10  9  1  0  0  0  0
 10 11  2  0  0  0  0
 11 12  1  0  0  0  0
 12 13  2  0  0  0  0
 12 17  1  0  0  0  0
 14  9  1  0  0  0  0
 15 10  1  0  0  0  0
 16 11  1  0  0  0  0
 17 18  2  0  0  0  0
 18 19  1  0  0  0  0
 18 20  1  0  0  0  0
 21 20  1  0  0  0  0
 22 21  1  0  0  0  0
 23 17  1  0  0  0  0
 23 21  2  0  0  0  0
 24 26  1  0  0  0  0
 24 25  1  0  0  0  0
 27 28  1  0  0  0  0
 27 35  1  0  0  0  0
 28 33  1  0  0  0  0
 29 24  1  0  0  0  0
 29 28  2  0  0  0  0
 30 31  2  0  0  0  0
 30 29  1  0  0  0  0
 31 32  1  0  0  0  0
 32 27  2  0  0  0  0
 34 31  1  0  0  0  0
 35 38  1  0  0  0  0
 36 40  1  0  0  0  0
 36 37  1  0  0  0  0
 36 35  1  0  0  0  0
 37 35  1  0  0  0  0
 37 42  1  0  0  0  0
 39 36  1  0  0  0  0
 41 37  1  0  0  0  0
M  END
>  <minimizedAffinity>
-5.6290431

$$$$

 OpenBabel03242520233D

 42 45  0  0  0  0  0  0  0  0999 V2000
   36.3510   31.2240   40.7800 C   0  0  0  0  0  0  0  0  0  0  0  0
   35.5930   31.8640   40.3220 H   0  0  0  0  0  0  0  0  0  0  0  0
   36.1130   31.2010   41.8690 H   0  0  0  0  0  0  0  0  0  0  0  0
   37.8900   32.8250   39.7890 C   0  0  0  0  0  0  0  0  0  0  0  0
   36.9510   33.4730   39.2190 O   0  0  0  0  0  0  0  0  0  0  0  0
   37.7000   31.7360   40.6580 N   0  0  0  0  0  0  0  0  0  0  0  0
   38.4410   31.2890   41.2020 H   0  0  0  0  0  0  0  0  0  0  0  0
   39.2920   33.2340   39.5310 C   0  0  0  0  0  0  0  0  0  0  0  0
   39.7520   34.4010   40.1000 C   0  0  0  0  0  0  0  0  0  0  0  0
   41.0290   34.9110   39.9590 C   0  0  0  0  0  0  0  0  0  0  0  0
   41.9000   34.1720   39.1800 C   0  0  0  0  0  0  0  0  0  0  0  0
   41.3940   33.0000   38.6240 C   0  0  0  0  0  0  0  0  0  0  0  0
   40.1560   32.5510   38.7880 N   0  0  0  0  0  0  0  0  0  0  0  0
   39.0550   34.9700   40.7110 H   0  0  0  0  0  0  0  0  0  0  0  0
   41.3390   35.8350   40.4290 H   0  0  0  0  0  0  0  0  0  0  0  0
   42.8850   34.5550   39.0650 H   0  0  0  0  0  0  0  0  0  0  0  0
   42.3180   32.1880   37.7800 C   0  0  0  0  0  0  0  0  0  0  0  0
   41.8100   31.0990   36.9520 C   0  0  0  0  0  0  0  0  0  0  0  0
   40.7370   30.7370   36.8320 H   0  0  0  0  0  0  0  0  0  0  0  0
   43.3120   30.4580   36.1530 S   0  0  0  0  0  0  0  0  0  0  0  0
   44.3990   31.7280   37.0340 C   0  0  0  0  0  0  0  0  0  0  0  0
   45.4710   31.9080   37.0000 H   0  0  0  0  0  0  0  0  0  0  0  0
   43.6160   32.3440   37.6880 N   0  0  0  0  0  0  0  0  0  0  0  0
   36.2360   29.7680   40.3290 C   0  0  0  0  0  0  0  0  0  0  0  0
   35.1730   29.4910   40.2980 H   0  0  0  0  0  0  0  0  0  0  0  0
   36.6900   29.6260   39.3470 H   0  0  0  0  0  0  0  0  0  0  0  0
   37.8000   26.7560   42.0070 C   0  0  0  0  0  0  0  0  0  0  0  0
   37.1390   27.5560   41.0370 C   0  0  0  0  0  0  0  0  0  0  0  0
   36.9070   28.8910   41.3020 C   0  0  0  0  0  0  0  0  0  0  0  0
   37.3480   29.3600   42.5260 N   0  0  0  0  0  0  0  0  0  0  0  0
   37.9760   28.5480   43.4190 C   0  0  0  0  0  0  0  0  0  0  0  0
   38.2010   27.2510   43.1610 N   0  0  0  0  0  0  0  0  0  0  0  0
   36.8020   27.1660   40.0860 H   0  0  0  0  0  0  0  0  0  0  0  0
   38.3040   28.9650   44.3670 H   0  0  0  0  0  0  0  0  0  0  0  0
   38.0280   25.3130   41.6970 C   0  0  0  0  0  0  0  0  0  0  0  0
   36.7330   24.4630   42.0070 C   0  0  0  0  0  0  0  0  0  0  0  0
   37.3820   24.5690   40.6960 C   0  0  0  0  0  0  0  0  0  0  0  0
   38.9120   24.9290   42.2830 H   0  0  0  0  0  0  0  0  0  0  0  0
   35.8000   25.0150   42.1340 H   0  0  0  0  0  0  0  0  0  0  0  0
   36.8710   23.6160   42.6860 H   0  0  0  0  0  0  0  0  0  0  0  0
   36.8340   25.1140   39.8800 H   0  0  0  0  0  0  0  0  0  0  0  0
   37.8750   23.6640   40.2830 H   0  0  0  0  0  0  0  0  0  0  0  0
  1  3  1  0  0  0  0
  2  1  1  0  0  0  0
  4  6  1  0  0  0  0
  5  4  2  0  0  0  0
  6  1  1  0  0  0  0
  6  7  1  0  0  0  0
  8  4  1  0  0  0  0
  8  9  1  0  0  0  0
  9 14  1  0  0  0  0
 10  9  2  0  0  0  0
 10 15  1  0  0  0  0
 11 10  1  0  0  0  0
 12 13  1  0  0  0  0
 12 11  2  0  0  0  0
 13  8  2  0  0  0  0
 16 11  1  0  0  0  0
 17 12  1  0  0  0  0
 18 17  2  0  0  0  0
 19 18  1  0  0  0  0
 20 18  1  0  0  0  0
 20 21  1  0  0  0  0
 21 23  2  0  0  0  0
 22 21  1  0  0  0  0
 23 17  1  0  0  0  0
 24  1  1  0  0  0  0
 24 29  1  0  0  0  0
 25 24  1  0  0  0  0
 26 24  1  0  0  0  0
 27 32  1  0  0  0  0
 28 29  1  0  0  0  0
 28 27  2  0  0  0  0
 29 30  2  0  0  0  0
 30 31  1  0  0  0  0
 31 34  1  0  0  0  0
 32 31  2  0  0  0  0
 33 28  1  0  0  0  0
 35 36  1  0  0  0  0
 35 27  1  0  0  0  0
 35 38  1  0  0  0  0
 36 39  1  0  0  0  0
 36 40  1  0  0  0  0
 37 35  1  0  0  0  0
 37 36  1  0  0  0  0
 41 37  1  0  0  0  0
 42 37  1  0  0  0  0
M  END
>  <minimizedAffinity>
-5.58830118

$$$$

 OpenBabel03242520233D

 42 45  0  0  0  0  0  0  0  0999 V2000
   37.0190   28.2510   43.5360 C   0  0  0  0  0  0  0  0  0  0  0  0
   36.1510   27.8110   43.0360 H   0  0  0  0  0  0  0  0  0  0  0  0
   36.6880   28.4780   44.5760 H   0  0  0  0  0  0  0  0  0  0  0  0
   36.9890   29.8000   41.6610 C   0  0  0  0  0  0  0  0  0  0  0  0
   36.1090   29.1230   41.0320 O   0  0  0  0  0  0  0  0  0  0  0  0
   37.4550   29.5030   42.9540 N   0  0  0  0  0  0  0  0  0  0  0  0
   38.0740   30.1040   43.5020 H   0  0  0  0  0  0  0  0  0  0  0  0
   37.5740   30.9900   40.9990 C   0  0  0  0  0  0  0  0  0  0  0  0
   36.7850   31.7170   40.1350 C   0  0  0  0  0  0  0  0  0  0  0  0
   37.1810   32.8490   39.4490 C   0  0  0  0  0  0  0  0  0  0  0  0
   38.4800   33.2710   39.6630 C   0  0  0  0  0  0  0  0  0  0  0  0
   39.2420   32.5080   40.5440 C   0  0  0  0  0  0  0  0  0  0  0  0
   38.8170   31.4250   41.1790 N   0  0  0  0  0  0  0  0  0  0  0  0
   35.7650   31.3730   39.9780 H   0  0  0  0  0  0  0  0  0  0  0  0
   36.5190   33.3840   38.7800 H   0  0  0  0  0  0  0  0  0  0  0  0
   38.7950   34.1410   39.1410 H   0  0  0  0  0  0  0  0  0  0  0  0
   40.6480   32.9470   40.7890 C   0  0  0  0  0  0  0  0  0  0  0  0
   41.1120   34.2520   40.3340 C   0  0  0  0  0  0  0  0  0  0  0  0
   40.5340   35.0590   39.7780 H   0  0  0  0  0  0  0  0  0  0  0  0
   42.8490   34.2800   40.8740 S   0  0  0  0  0  0  0  0  0  0  0  0
   42.7070   32.5510   41.6270 C   0  0  0  0  0  0  0  0  0  0  0  0
   43.4320   31.9290   42.1450 H   0  0  0  0  0  0  0  0  0  0  0  0
   41.5760   32.2540   41.4050 N   0  0  0  0  0  0  0  0  0  0  0  0
   38.1640   27.2530   43.7040 C   0  0  0  0  0  0  0  0  0  0  0  0
   39.0840   27.8070   43.9340 H   0  0  0  0  0  0  0  0  0  0  0  0
   37.9460   26.5390   44.5000 H   0  0  0  0  0  0  0  0  0  0  0  0
   37.9770   24.6580   40.9540 C   0  0  0  0  0  0  0  0  0  0  0  0
   37.7470   25.3180   42.1910 C   0  0  0  0  0  0  0  0  0  0  0  0
   38.3740   26.5220   42.4440 C   0  0  0  0  0  0  0  0  0  0  0  0
   39.2010   27.0050   41.4480 N   0  0  0  0  0  0  0  0  0  0  0  0
   39.3850   26.3300   40.2800 C   0  0  0  0  0  0  0  0  0  0  0  0
   38.7760   25.1610   40.0350 N   0  0  0  0  0  0  0  0  0  0  0  0
   37.0960   24.9190   42.9570 H   0  0  0  0  0  0  0  0  0  0  0  0
   40.0450   26.7530   39.5280 H   0  0  0  0  0  0  0  0  0  0  0  0
   37.2930   23.3520   40.7120 C   0  0  0  0  0  0  0  0  0  0  0  0
   35.9450   23.5670   39.9170 C   0  0  0  0  0  0  0  0  0  0  0  0
   37.0750   22.7520   39.4600 C   0  0  0  0  0  0  0  0  0  0  0  0
   37.1030   22.8290   41.6930 H   0  0  0  0  0  0  0  0  0  0  0  0
   35.8110   24.5320   39.4250 H   0  0  0  0  0  0  0  0  0  0  0  0
   35.0460   23.1520   40.3830 H   0  0  0  0  0  0  0  0  0  0  0  0
   37.6610   23.1150   38.5730 H   0  0  0  0  0  0  0  0  0  0  0  0
   36.9340   21.6520   39.3980 H   0  0  0  0  0  0  0  0  0  0  0  0
  1 24  1  0  0  0  0
  1  3  1  0  0  0  0
  2  1  1  0  0  0  0
  4  6  1  0  0  0  0
  5  4  2  0  0  0  0
  6  7  1  0  0  0  0
  6  1  1  0  0  0  0
  8 13  1  0  0  0  0
  8  4  1  0  0  0  0
  9  8  2  0  0  0  0
 10 11  2  0  0  0  0
 10  9  1  0  0  0  0
 11 12  1  0  0  0  0
 12 17  1  0  0  0  0
 12 13  2  0  0  0  0
 14  9  1  0  0  0  0
 15 10  1  0  0  0  0
 16 11  1  0  0  0  0
 17 23  1  0  0  0  0
 18 17  2  0  0  0  0
 18 20  1  0  0  0  0
 19 18  1  0  0  0  0
 20 21  1  0  0  0  0
 21 22  1  0  0  0  0
 23 21  2  0  0  0  0
 24 25  1  0  0  0  0
 24 26  1  0  0  0  0
 27 28  1  0  0  0  0
 28 29  2  0  0  0  0
 28 33  1  0  0  0  0
 29 24  1  0  0  0  0
 30 29  1  0  0  0  0
 31 30  2  0  0  0  0
 32 31  1  0  0  0  0
 32 27  2  0  0  0  0
 34 31  1  0  0  0  0
 35 27  1  0  0  0  0
 35 38  1  0  0  0  0
 36 40  1  0  0  0  0
 36 35  1  0  0  0  0
 37 36  1  0  0  0  0
 37 35  1  0  0  0  0
 39 36  1  0  0  0  0
 41 37  1  0  0  0  0
 42 37  1  0  0  0  0
M  END
>  <minimizedAffinity>
-5.57825756

$$$$

 OpenBabel03242520233D

 42 45  0  0  0  0  0  0  0  0999 V2000
   37.5670   28.8900   43.2180 C   0  0  0  0  0  0  0  0  0  0  0  0
   37.0290   29.6330   43.8150 H   0  0  0  0  0  0  0  0  0  0  0  0
   38.3870   28.5110   43.8710 H   0  0  0  0  0  0  0  0  0  0  0  0
   37.4180   30.3050   41.2460 C   0  0  0  0  0  0  0  0  0  0  0  0
   36.2670   30.7500   41.5720 O   0  0  0  0  0  0  0  0  0  0  0  0
   38.1940   29.4370   42.0340 N   0  0  0  0  0  0  0  0  0  0  0  0
   39.1590   29.1710   41.8280 H   0  0  0  0  0  0  0  0  0  0  0  0
   37.9970   30.7230   39.9470 C   0  0  0  0  0  0  0  0  0  0  0  0
   37.1800   31.3590   39.0360 C   0  0  0  0  0  0  0  0  0  0  0  0
   37.5710   31.8120   37.7910 C   0  0  0  0  0  0  0  0  0  0  0  0
   38.8940   31.6020   37.4510 C   0  0  0  0  0  0  0  0  0  0  0  0
   39.6840   30.9570   38.4000 C   0  0  0  0  0  0  0  0  0  0  0  0
   39.2610   30.5380   39.5850 N   0  0  0  0  0  0  0  0  0  0  0  0
   36.1420   31.5170   39.3200 H   0  0  0  0  0  0  0  0  0  0  0  0
   36.8870   32.3060   37.1130 H   0  0  0  0  0  0  0  0  0  0  0  0
   39.2060   31.9470   36.4960 H   0  0  0  0  0  0  0  0  0  0  0  0
   41.1160   30.7210   38.0520 C   0  0  0  0  0  0  0  0  0  0  0  0
   41.9770   29.9370   38.9310 C   0  0  0  0  0  0  0  0  0  0  0  0
   41.7170   29.4320   39.9180 H   0  0  0  0  0  0  0  0  0  0  0  0
   43.5750   29.9580   38.0620 S   0  0  0  0  0  0  0  0  0  0  0  0
   42.8680   31.0060   36.6570 C   0  0  0  0  0  0  0  0  0  0  0  0
   43.3240   31.4010   35.7530 H   0  0  0  0  0  0  0  0  0  0  0  0
   41.7330   31.1620   36.9840 N   0  0  0  0  0  0  0  0  0  0  0  0
   36.7150   27.6580   42.9140 C   0  0  0  0  0  0  0  0  0  0  0  0
   36.0970   27.4300   43.7930 H   0  0  0  0  0  0  0  0  0  0  0  0
   36.0810   27.8280   42.0410 H   0  0  0  0  0  0  0  0  0  0  0  0
   38.0510   24.3380   41.6780 C   0  0  0  0  0  0  0  0  0  0  0  0
   37.1640   25.4250   41.9040 C   0  0  0  0  0  0  0  0  0  0  0  0
   37.5890   26.5020   42.6570 C   0  0  0  0  0  0  0  0  0  0  0  0
   38.8790   26.4370   43.1490 N   0  0  0  0  0  0  0  0  0  0  0  0
   39.6860   25.3690   42.9020 C   0  0  0  0  0  0  0  0  0  0  0  0
   39.2730   24.3250   42.1690 N   0  0  0  0  0  0  0  0  0  0  0  0
   36.1580   25.4530   41.5090 H   0  0  0  0  0  0  0  0  0  0  0  0
   40.6930   25.3670   43.3110 H   0  0  0  0  0  0  0  0  0  0  0  0
   37.5620   23.1830   40.8670 C   0  0  0  0  0  0  0  0  0  0  0  0
   37.9110   23.3860   39.3400 C   0  0  0  0  0  0  0  0  0  0  0  0
   38.3630   22.2640   40.1690 C   0  0  0  0  0  0  0  0  0  0  0  0
   36.4510   23.0530   41.0130 H   0  0  0  0  0  0  0  0  0  0  0  0
   38.6570   24.1450   39.1010 H   0  0  0  0  0  0  0  0  0  0  0  0
   37.0660   23.3260   38.6460 H   0  0  0  0  0  0  0  0  0  0  0  0
   39.4570   22.1990   40.4140 H   0  0  0  0  0  0  0  0  0  0  0  0
   37.9640   21.2530   39.9420 H   0  0  0  0  0  0  0  0  0  0  0  0
  1  2  1  0  0  0  0
  1  3  1  0  0  0  0
  4  5  2  0  0  0  0
  4  6  1  0  0  0  0
  6  1  1  0  0  0  0
  7  6  1  0  0  0  0
  8  4  1  0  0  0  0
  9 14  1  0  0  0  0
  9  8  2  0  0  0  0
 10  9  1  0  0  0  0
 11 10  2  0  0  0  0
 11 12  1  0  0  0  0
 12 13  2  0  0  0  0
 13  8  1  0  0  0  0
 15 10  1  0  0  0  0
 16 11  1  0  0  0  0
 17 12  1  0  0  0  0
 17 18  2  0  0  0  0
 18 19  1  0  0  0  0
 20 18  1  0  0  0  0
 21 23  2  0  0  0  0
 21 20  1  0  0  0  0
 22 21  1  0  0  0  0
 23 17  1  0  0  0  0
 24  1  1  0  0  0  0
 24 25  1  0  0  0  0
 26 24  1  0  0  0  0
 27 28  2  0  0  0  0
 27 32  1  0  0  0  0
 28 29  1  0  0  0  0
 29 24  1  0  0  0  0
 29 30  2  0  0  0  0
 31 30  1  0  0  0  0
 31 34  1  0  0  0  0
 32 31  2  0  0  0  0
 33 28  1  0  0  0  0
 35 38  1  0  0  0  0
 35 27  1  0  0  0  0
 36 37  1  0  0  0  0
 36 35  1  0  0  0  0
 37 41  1  0  0  0  0
 37 35  1  0  0  0  0
 39 36  1  0  0  0  0
 40 36  1  0  0  0  0
 42 37  1  0  0  0  0
M  END
>  <minimizedAffinity>
-5.2940011

$$$$

 OpenBabel03242520233D

 42 45  0  0  0  0  0  0  0  0999 V2000
   36.8490   29.5410   37.7860 C   0  0  0  0  0  0  0  0  0  0  0  0
   35.8130   29.8790   37.8780 H   0  0  0  0  0  0  0  0  0  0  0  0
   36.8360   28.7230   37.0300 H   0  0  0  0  0  0  0  0  0  0  0  0
   36.4870   28.7760   40.0660 C   0  0  0  0  0  0  0  0  0  0  0  0
   35.2220   28.9230   39.9840 O   0  0  0  0  0  0  0  0  0  0  0  0
   37.3880   28.9750   39.0060 N   0  0  0  0  0  0  0  0  0  0  0  0
   38.3840   28.7500   39.0370 H   0  0  0  0  0  0  0  0  0  0  0  0
   37.0700   28.3650   41.3660 C   0  0  0  0  0  0  0  0  0  0  0  0
   36.2220   27.9070   42.3520 C   0  0  0  0  0  0  0  0  0  0  0  0
   36.6110   27.4830   43.6080 C   0  0  0  0  0  0  0  0  0  0  0  0
   37.9670   27.5290   43.8770 C   0  0  0  0  0  0  0  0  0  0  0  0
   38.7860   27.9970   42.8530 C   0  0  0  0  0  0  0  0  0  0  0  0
   38.3650   28.3950   41.6610 N   0  0  0  0  0  0  0  0  0  0  0  0
   35.1600   27.8780   42.1240 H   0  0  0  0  0  0  0  0  0  0  0  0
   35.9020   27.1330   44.3470 H   0  0  0  0  0  0  0  0  0  0  0  0
   38.2770   27.2040   44.8400 H   0  0  0  0  0  0  0  0  0  0  0  0
   40.2530   28.0530   43.1230 C   0  0  0  0  0  0  0  0  0  0  0  0
   41.0850   29.0850   42.5140 C   0  0  0  0  0  0  0  0  0  0  0  0
   40.7750   29.9250   41.8110 H   0  0  0  0  0  0  0  0  0  0  0  0
   42.7430   28.7060   43.1550 S   0  0  0  0  0  0  0  0  0  0  0  0
   42.0930   27.2290   44.1400 C   0  0  0  0  0  0  0  0  0  0  0  0
   42.5970   26.5160   44.7880 H   0  0  0  0  0  0  0  0  0  0  0  0
   40.9290   27.2320   43.8900 N   0  0  0  0  0  0  0  0  0  0  0  0
   37.7600   30.6100   37.1840 C   0  0  0  0  0  0  0  0  0  0  0  0
   38.6890   30.1310   36.8460 H   0  0  0  0  0  0  0  0  0  0  0  0
   37.2720   31.1150   36.3490 H   0  0  0  0  0  0  0  0  0  0  0  0
   39.6910   32.9660   39.4310 C   0  0  0  0  0  0  0  0  0  0  0  0
   39.4130   31.9960   38.4320 C   0  0  0  0  0  0  0  0  0  0  0  0
   38.1070   31.6040   38.2130 C   0  0  0  0  0  0  0  0  0  0  0  0
   37.1450   32.2020   39.0050 N   0  0  0  0  0  0  0  0  0  0  0  0
   37.4690   33.1270   39.9490 C   0  0  0  0  0  0  0  0  0  0  0  0
   38.7370   33.5080   40.1610 N   0  0  0  0  0  0  0  0  0  0  0  0
   40.1830   31.5410   37.8250 H   0  0  0  0  0  0  0  0  0  0  0  0
   36.6750   33.5680   40.5460 H   0  0  0  0  0  0  0  0  0  0  0  0
   41.1140   33.3640   39.6530 C   0  0  0  0  0  0  0  0  0  0  0  0
   41.4300   34.7330   38.9300 C   0  0  0  0  0  0  0  0  0  0  0  0
   41.5570   34.4890   40.3700 C   0  0  0  0  0  0  0  0  0  0  0  0
   41.8030   32.5480   39.2910 H   0  0  0  0  0  0  0  0  0  0  0  0
   40.5750   35.3310   38.6110 H   0  0  0  0  0  0  0  0  0  0  0  0
   42.2760   34.7190   38.2350 H   0  0  0  0  0  0  0  0  0  0  0  0
   40.8400   35.0140   41.0580 H   0  0  0  0  0  0  0  0  0  0  0  0
   42.5760   34.4890   40.8120 H   0  0  0  0  0  0  0  0  0  0  0  0
  1  2  1  0  0  0  0
  1  6  1  0  0  0  0
  3  1  1  0  0  0  0
  4  8  1  0  0  0  0
  5  4  2  0  0  0  0
  6  7  1  0  0  0  0
  6  4  1  0  0  0  0
  8 13  2  0  0  0  0
  8  9  1  0  0  0  0
  9 10  2  0  0  0  0
 10 11  1  0  0  0  0
 10 15  1  0  0  0  0
 11 16  1  0  0  0  0
 12 17  1  0  0  0  0
 12 11  2  0  0  0  0
 13 12  1  0  0  0  0
 14  9  1  0  0  0  0
 17 23  1  0  0  0  0
 18 17  2  0  0  0  0
 18 20  1  0  0  0  0
 19 18  1  0  0  0  0
 20 21  1  0  0  0  0
 21 22  1  0  0  0  0
 23 21  2  0  0  0  0
 24  1  1  0  0  0  0
 24 29  1  0  0  0  0
 25 24  1  0  0  0  0
 26 24  1  0  0  0  0
 27 35  1  0  0  0  0
 27 32  1  0  0  0  0
 28 27  2  0  0  0  0
 29 28  1  0  0  0  0
 29 30  2  0  0  0  0
 30 31  1  0  0  0  0
 31 32  2  0  0  0  0
 31 34  1  0  0  0  0
 33 28  1  0  0  0  0
 35 37  1  0  0  0  0
 36 35  1  0  0  0  0
 36 37  1  0  0  0  0
 37 42  1  0  0  0  0
 37 41  1  0  0  0  0
 38 35  1  0  0  0  0
 39 36  1  0  0  0  0
 40 36  1  0  0  0  0
M  END
>  <minimizedAffinity>
-5.28109884

$$$$

 OpenBabel03242520233D

 42 45  0  0  0  0  0  0  0  0999 V2000
   36.5510   27.5470   43.2530 C   0  0  0  0  0  0  0  0  0  0  0  0
   35.4570   27.5480   43.2540 H   0  0  0  0  0  0  0  0  0  0  0  0
   36.8560   27.4180   44.3170 H   0  0  0  0  0  0  0  0  0  0  0  0
   36.6030   29.3520   41.6240 C   0  0  0  0  0  0  0  0  0  0  0  0
   35.5630   28.9240   41.0200 O   0  0  0  0  0  0  0  0  0  0  0  0
   37.1360   28.7910   42.7970 N   0  0  0  0  0  0  0  0  0  0  0  0
   37.8990   29.1970   43.3430 H   0  0  0  0  0  0  0  0  0  0  0  0
   37.3150   30.5250   41.0630 C   0  0  0  0  0  0  0  0  0  0  0  0
   36.6390   31.3510   40.1920 C   0  0  0  0  0  0  0  0  0  0  0  0
   37.1600   32.4820   39.5930 C   0  0  0  0  0  0  0  0  0  0  0  0
   38.4700   32.7920   39.9100 C   0  0  0  0  0  0  0  0  0  0  0  0
   39.1150   31.9320   40.7940 C   0  0  0  0  0  0  0  0  0  0  0  0
   38.5710   30.8550   41.3430 N   0  0  0  0  0  0  0  0  0  0  0  0
   35.6100   31.0930   39.9540 H   0  0  0  0  0  0  0  0  0  0  0  0
   36.5840   33.0960   38.9140 H   0  0  0  0  0  0  0  0  0  0  0  0
   38.8810   33.6610   39.4550 H   0  0  0  0  0  0  0  0  0  0  0  0
   40.5300   32.2500   41.1490 C   0  0  0  0  0  0  0  0  0  0  0  0
   41.2810   31.3930   42.0580 C   0  0  0  0  0  0  0  0  0  0  0  0
   40.9420   30.4420   42.5850 H   0  0  0  0  0  0  0  0  0  0  0  0
   42.9020   32.2120   42.1460 S   0  0  0  0  0  0  0  0  0  0  0  0
   42.3470   33.5770   40.9620 C   0  0  0  0  0  0  0  0  0  0  0  0
   42.8690   34.4450   40.5670 H   0  0  0  0  0  0  0  0  0  0  0  0
   41.2220   33.2750   40.7140 N   0  0  0  0  0  0  0  0  0  0  0  0
   37.1320   26.3290   42.5340 C   0  0  0  0  0  0  0  0  0  0  0  0
   36.7200   25.4190   42.9910 H   0  0  0  0  0  0  0  0  0  0  0  0
   36.8960   26.3550   41.4690 H   0  0  0  0  0  0  0  0  0  0  0  0
   40.8350   25.8180   41.9320 C   0  0  0  0  0  0  0  0  0  0  0  0
   39.4300   25.8110   41.7220 C   0  0  0  0  0  0  0  0  0  0  0  0
   38.5940   26.3030   42.7040 C   0  0  0  0  0  0  0  0  0  0  0  0
   39.2050   26.7760   43.8500 N   0  0  0  0  0  0  0  0  0  0  0  0
   40.5580   26.7590   43.9990 C   0  0  0  0  0  0  0  0  0  0  0  0
   41.3690   26.2810   43.0440 N   0  0  0  0  0  0  0  0  0  0  0  0
   38.9750   25.4340   40.8160 H   0  0  0  0  0  0  0  0  0  0  0  0
   40.9890   27.1430   44.9190 H   0  0  0  0  0  0  0  0  0  0  0  0
   41.7140   25.2710   40.8560 C   0  0  0  0  0  0  0  0  0  0  0  0
   42.2730   26.4350   39.9460 C   0  0  0  0  0  0  0  0  0  0  0  0
   43.0940   25.4980   40.7190 C   0  0  0  0  0  0  0  0  0  0  0  0
   41.1450   24.5160   40.2400 H   0  0  0  0  0  0  0  0  0  0  0  0
   42.1930   27.4500   40.3390 H   0  0  0  0  0  0  0  0  0  0  0  0
   42.0830   26.3330   38.8730 H   0  0  0  0  0  0  0  0  0  0  0  0
   43.6690   25.9010   41.5960 H   0  0  0  0  0  0  0  0  0  0  0  0
   43.7160   24.7660   40.1620 H   0  0  0  0  0  0  0  0  0  0  0  0
  1  2  1  0  0  0  0
  1  3  1  0  0  0  0
  4  6  1  0  0  0  0
  5  4  2  0  0  0  0
  6  1  1  0  0  0  0
  6  7  1  0  0  0  0
  8 13  1  0  0  0  0
  8  4  1  0  0  0  0
  9  8  2  0  0  0  0
 10 11  2  0  0  0  0
 10  9  1  0  0  0  0
 11 12  1  0  0  0  0
 12 17  1  0  0  0  0
 12 13  2  0  0  0  0
 14  9  1  0  0  0  0
 15 10  1  0  0  0  0
 16 11  1  0  0  0  0
 17 18  2  0  0  0  0
 18 20  1  0  0  0  0
 18 19  1  0  0  0  0
 21 20  1  0  0  0  0
 22 21  1  0  0  0  0
 23 21  2  0  0  0  0
 23 17  1  0  0  0  0
 24 29  1  0  0  0  0
 24 25  1  0  0  0  0
 24  1  1  0  0  0  0
 26 24  1  0  0  0  0
 27 32  1  0  0  0  0
 28 27  2  0  0  0  0
 28 29  1  0  0  0  0
 29 30  2  0  0  0  0
 30 31  1  0  0  0  0
 31 34  1  0  0  0  0
 32 31  2  0  0  0  0
 33 28  1  0  0  0  0
 35 27  1  0  0  0  0
 36 39  1  0  0  0  0
 36 37  1  0  0  0  0
 36 35  1  0  0  0  0
 37 35  1  0  0  0  0
 37 41  1  0  0  0  0
 38 35  1  0  0  0  0
 40 36  1  0  0  0  0
 42 37  1  0  0  0  0
M  END
>  <minimizedAffinity>
-5.26434755

$$$$

 OpenBabel03242520233D

 42 45  0  0  0  0  0  0  0  0999 V2000
   35.9000   29.4570   41.0180 C   0  0  0  0  0  0  0  0  0  0  0  0
   35.8260   29.0710   39.9970 H   0  0  0  0  0  0  0  0  0  0  0  0
   34.8560   29.6920   41.3300 H   0  0  0  0  0  0  0  0  0  0  0  0
   37.0240   31.3130   39.9190 C   0  0  0  0  0  0  0  0  0  0  0  0
   36.6240   30.9550   38.7620 O   0  0  0  0  0  0  0  0  0  0  0  0
   36.6560   30.6880   41.1230 N   0  0  0  0  0  0  0  0  0  0  0  0
   36.8830   31.0390   42.0560 H   0  0  0  0  0  0  0  0  0  0  0  0
   37.9440   32.4710   40.0240 C   0  0  0  0  0  0  0  0  0  0  0  0
   37.4430   33.7330   39.7880 C   0  0  0  0  0  0  0  0  0  0  0  0
   38.1680   34.9070   39.8530 C   0  0  0  0  0  0  0  0  0  0  0  0
   39.5050   34.7820   40.1850 C   0  0  0  0  0  0  0  0  0  0  0  0
   39.9690   33.4900   40.4150 C   0  0  0  0  0  0  0  0  0  0  0  0
   39.2310   32.3900   40.3400 N   0  0  0  0  0  0  0  0  0  0  0  0
   36.3900   33.8130   39.5290 H   0  0  0  0  0  0  0  0  0  0  0  0
   37.7250   35.8740   39.6570 H   0  0  0  0  0  0  0  0  0  0  0  0
   40.0720   35.6790   40.2380 H   0  0  0  0  0  0  0  0  0  0  0  0
   41.4090   33.3340   40.7760 C   0  0  0  0  0  0  0  0  0  0  0  0
   41.9950   32.0100   40.9500 C   0  0  0  0  0  0  0  0  0  0  0  0
   41.4960   30.9910   40.8470 H   0  0  0  0  0  0  0  0  0  0  0  0
   43.7250   32.3800   41.3710 S   0  0  0  0  0  0  0  0  0  0  0  0
   43.4200   34.2420   41.2560 C   0  0  0  0  0  0  0  0  0  0  0  0
   44.0820   35.0910   41.4020 H   0  0  0  0  0  0  0  0  0  0  0  0
   42.2660   34.3070   40.9680 N   0  0  0  0  0  0  0  0  0  0  0  0
   36.3700   28.3950   42.0110 C   0  0  0  0  0  0  0  0  0  0  0  0
   36.9490   28.8850   42.8050 H   0  0  0  0  0  0  0  0  0  0  0  0
   35.5210   27.8590   42.4410 H   0  0  0  0  0  0  0  0  0  0  0  0
   38.0200   25.1880   40.8580 C   0  0  0  0  0  0  0  0  0  0  0  0
   37.1500   26.0740   41.5490 C   0  0  0  0  0  0  0  0  0  0  0  0
   37.2520   27.4330   41.3290 C   0  0  0  0  0  0  0  0  0  0  0  0
   38.2190   27.8390   40.4290 N   0  0  0  0  0  0  0  0  0  0  0  0
   39.0260   26.9460   39.7940 C   0  0  0  0  0  0  0  0  0  0  0  0
   38.9260   25.6260   40.0080 N   0  0  0  0  0  0  0  0  0  0  0  0
   36.4020   25.7320   42.2510 H   0  0  0  0  0  0  0  0  0  0  0  0
   39.7700   27.3160   39.0950 H   0  0  0  0  0  0  0  0  0  0  0  0
   37.8940   23.7230   41.1230 C   0  0  0  0  0  0  0  0  0  0  0  0
   37.0110   23.0290   40.0120 C   0  0  0  0  0  0  0  0  0  0  0  0
   38.4040   22.6900   40.3190 C   0  0  0  0  0  0  0  0  0  0  0  0
   37.4580   23.5540   42.1490 H   0  0  0  0  0  0  0  0  0  0  0  0
   36.8380   23.5940   39.0950 H   0  0  0  0  0  0  0  0  0  0  0  0
   36.1520   22.4550   40.3760 H   0  0  0  0  0  0  0  0  0  0  0  0
   39.1860   22.9330   39.5500 H   0  0  0  0  0  0  0  0  0  0  0  0
   38.6130   21.6970   40.7710 H   0  0  0  0  0  0  0  0  0  0  0  0
  1  6  1  0  0  0  0
  1  3  1  0  0  0  0
  1 24  1  0  0  0  0
  2  1  1  0  0  0  0
  4  8  1  0  0  0  0
  4  6  1  0  0  0  0
  5  4  2  0  0  0  0
  6  7  1  0  0  0  0
  8 13  1  0  0  0  0
  9 10  1  0  0  0  0
  9  8  2  0  0  0  0
 10 11  2  0  0  0  0
 11 16  1  0  0  0  0
 11 12  1  0  0  0  0
 12 17  1  0  0  0  0
 13 12  2  0  0  0  0
 14  9  1  0  0  0  0
 15 10  1  0  0  0  0
 17 18  2  0  0  0  0
 17 23  1  0  0  0  0
 18 20  1  0  0  0  0
 19 18  1  0  0  0  0
 21 20  1  0  0  0  0
 21 22  1  0  0  0  0
 23 21  2  0  0  0  0
 24 26  1  0  0  0  0
 24 25  1  0  0  0  0
 27 35  1  0  0  0  0
 27 28  1  0  0  0  0
 28 33  1  0  0  0  0
 29 28  2  0  0  0  0
 29 24  1  0  0  0  0
 30 29  1  0  0  0  0
 31 32  1  0  0  0  0
 31 30  2  0  0  0  0
 32 27  2  0  0  0  0
 34 31  1  0  0  0  0
 35 38  1  0  0  0  0
 36 37  1  0  0  0  0
 36 40  1  0  0  0  0
 36 35  1  0  0  0  0
 37 42  1  0  0  0  0
 37 35  1  0  0  0  0
 39 36  1  0  0  0  0
 41 37  1  0  0  0  0
M  END
>  <minimizedAffinity>
-5.211308

$$$$
