
 OpenBabel03252508263D

 39 43  0  0  1  0  0  0  0  0999 V2000
   46.4170   32.2950   46.3170 C   0  0  1  0  0  0  0  0  0  0  0  0
   46.6530   32.5440   47.7470 C   0  0  0  0  0  0  0  0  0  0  0  0
   45.3710   31.8040   47.1960 C   0  0  2  0  0  0  0  0  0  0  0  0
   47.3320   31.6950   45.9690 H   0  0  0  0  0  0  0  0  0  0  0  0
   46.5210   33.5450   48.1870 H   0  0  0  0  0  0  0  0  0  0  0  0
   47.1900   31.8580   48.4150 H   0  0  0  0  0  0  0  0  0  0  0  0
   44.5510   32.4600   47.6200 H   0  0  0  0  0  0  0  0  0  0  0  0
   45.1420   30.3960   47.5340 C   0  0  0  0  0  0  0  0  0  0  0  0
   45.0400   29.8520   48.7760 C   0  0  0  0  0  0  0  0  0  0  0  0
   44.9510   28.4990   49.0680 C   0  0  0  0  0  0  0  0  0  0  0  0
   44.9710   27.6230   47.9640 C   0  0  0  0  0  0  0  0  0  0  0  0
   45.0720   28.1520   46.6820 C   0  0  0  0  0  0  0  0  0  0  0  0
   45.0270   27.2620   45.6260 C   0  0  0  0  0  0  0  0  0  0  0  0
   45.0540   27.7490   44.3270 C   0  0  0  0  0  0  0  0  0  0  0  0
   45.1220   29.1060   44.0840 C   0  0  0  0  0  0  0  0  0  0  0  0
   45.1680   29.9520   45.1710 C   0  0  0  0  0  0  0  0  0  0  0  0
   45.1520   29.5160   46.4810 C   0  0  0  0  0  0  0  0  0  0  0  0
   45.0290   30.5670   49.5950 H   0  0  0  0  0  0  0  0  0  0  0  0
   44.8710   28.1350   50.0850 H   0  0  0  0  0  0  0  0  0  0  0  0
   44.9080   26.5620   48.1480 H   0  0  0  0  0  0  0  0  0  0  0  0
   44.9710   26.1990   45.8460 H   0  0  0  0  0  0  0  0  0  0  0  0
   45.0150   26.9480   43.5710 H   0  0  0  0  0  0  0  0  0  0  0  0
   45.1300   29.2820   43.0350 H   0  0  0  0  0  0  0  0  0  0  0  0
   45.1290   30.9100   44.7390 H   0  0  0  0  0  0  0  0  0  0  0  0
   44.8470   35.2930   44.8530 C   0  0  0  0  0  0  0  0  0  0  0  0
   45.5470   35.4380   43.6100 C   0  0  0  0  0  0  0  0  0  0  0  0
   46.5670   34.4680   43.3210 C   0  0  0  0  0  0  0  0  0  0  0  0
   46.8090   33.5060   44.2010 N   0  0  0  0  0  0  0  0  0  0  0  0
   46.1120   33.4100   45.3790 C   0  0  0  0  0  0  0  0  0  0  0  0
   45.1600   34.2810   45.6890 N   0  0  0  0  0  0  0  0  0  0  0  0
   44.1140   36.0590   44.9690 H   0  0  0  0  0  0  0  0  0  0  0  0
   45.3500   36.2150   42.9050 H   0  0  0  0  0  0  0  0  0  0  0  0
   47.2720   34.6150   42.0580 C   0  0  0  0  0  0  0  0  0  0  0  0
   46.8610   33.7520   40.9370 C   0  0  0  0  0  0  0  0  0  0  0  0
   46.0660   32.9980   40.9590 H   0  0  0  0  0  0  0  0  0  0  0  0
   48.0380   34.3100   39.5740 S   0  0  0  0  0  0  0  0  0  0  0  0
   48.8270   35.5630   40.7580 C   0  0  0  0  0  0  0  0  0  0  0  0
   49.6700   36.2900   40.5610 H   0  0  0  0  0  0  0  0  0  0  0  0
   48.2700   35.4530   41.7730 N   0  0  0  0  0  0  0  0  0  0  0  0
  1  4  1  6  0  0  0
  1  3  1  0  0  0  0
  1  2  1  0  0  0  0
  2  5  1  0  0  0  0
  2  6  1  0  0  0  0
  3  8  1  0  0  0  0
  3  7  1  1  0  0  0
  3  2  1  0  0  0  0
  8  9  1  0  0  0  0
  9 10  2  0  0  0  0
  9 18  1  0  0  0  0
 10 19  1  0  0  0  0
 11 20  1  0  0  0  0
 11 10  1  0  0  0  0
 12 11  2  0  0  0  0
 13 21  1  0  0  0  0
 13 12  1  0  0  0  0
 14 13  2  0  0  0  0
 15 14  1  0  0  0  0
 15 16  2  0  0  0  0
 16 17  1  0  0  0  0
 17 12  1  0  0  0  0
 17  8  2  0  0  0  0
 22 14  1  0  0  0  0
 23 15  1  0  0  0  0
 24 16  1  0  0  0  0
 25 31  1  0  0  0  0
 25 30  1  0  0  0  0
 26 25  2  0  0  0  0
 27 26  1  0  0  0  0
 27 28  2  0  0  0  0
 28 29  1  0  0  0  0
 29 30  2  0  0  0  0
 29  1  1  0  0  0  0
 32 26  1  0  0  0  0
 33 27  1  0  0  0  0
 34 35  1  0  0  0  0
 34 33  2  0  0  0  0
 36 37  1  0  0  0  0
 36 34  1  0  0  0  0
 37 39  2  0  0  0  0
 38 37  1  0  0  0  0
 39 33  1  0  0  0  0
M  END
>  <minimizedAffinity>
-5.22977781

>  <minimizedRMSD>
0.759122789

$$$$
