
 OpenBabel03252508393D

 39 42  0  0  0  0  0  0  0  0999 V2000
   45.1590   33.9510   40.6970 C   0  0  0  0  0  0  0  0  0  0  0  0
   44.1060   33.6310   39.8770 C   0  0  0  0  0  0  0  0  0  0  0  0
   44.4040   33.1420   38.6380 C   0  0  0  0  0  0  0  0  0  0  0  0
   45.6840   32.9580   38.1800 C   0  0  0  0  0  0  0  0  0  0  0  0
   46.7100   33.2880   39.0250 C   0  0  0  0  0  0  0  0  0  0  0  0
   46.4740   33.7830   40.2790 C   0  0  0  0  0  0  0  0  0  0  0  0
   43.5780   32.8860   37.9820 H   0  0  0  0  0  0  0  0  0  0  0  0
   45.8920   32.5700   37.1970 H   0  0  0  0  0  0  0  0  0  0  0  0
   47.7230   33.1430   38.6660 H   0  0  0  0  0  0  0  0  0  0  0  0
   40.8180   35.2560   40.7950 C   0  0  0  0  0  0  0  0  0  0  0  0
   42.1180   35.0890   40.2720 C   0  0  0  0  0  0  0  0  0  0  0  0
   42.7710   33.8430   40.4010 C   0  0  0  0  0  0  0  0  0  0  0  0
   42.0640   32.8850   41.0410 N   0  0  0  0  0  0  0  0  0  0  0  0
   40.8330   33.0720   41.5260 C   0  0  0  0  0  0  0  0  0  0  0  0
   40.2170   34.2470   41.4040 N   0  0  0  0  0  0  0  0  0  0  0  0
   40.2190   36.5310   40.6310 N   0  0  0  0  0  0  0  0  0  0  0  0
   42.6450   35.8730   39.7720 H   0  0  0  0  0  0  0  0  0  0  0  0
   40.4280   32.2010   42.0010 H   0  0  0  0  0  0  0  0  0  0  0  0
   40.3980   37.1290   39.7910 H   0  0  0  0  0  0  0  0  0  0  0  0
   39.5900   36.8120   41.4240 H   0  0  0  0  0  0  0  0  0  0  0  0
   47.6230   34.1020   41.0980 C   0  0  0  0  0  0  0  0  0  0  0  0
   48.1350   35.3660   40.9480 C   0  0  0  0  0  0  0  0  0  0  0  0
   49.2400   35.8560   41.6520 C   0  0  0  0  0  0  0  0  0  0  0  0
   49.8440   35.0040   42.5500 C   0  0  0  0  0  0  0  0  0  0  0  0
   49.3540   33.7360   42.7200 C   0  0  0  0  0  0  0  0  0  0  0  0
   48.2580   33.2840   42.0060 C   0  0  0  0  0  0  0  0  0  0  0  0
   47.7030   36.0830   40.2550 H   0  0  0  0  0  0  0  0  0  0  0  0
   49.6130   36.8600   41.5040 H   0  0  0  0  0  0  0  0  0  0  0  0
   50.7040   35.2920   43.1390 H   0  0  0  0  0  0  0  0  0  0  0  0
   49.7520   32.9820   43.4020 H   0  0  0  0  0  0  0  0  0  0  0  0
   47.6900   31.9230   42.1530 C   0  0  0  0  0  0  0  0  0  0  0  0
   46.8360   31.5910   43.1210 C   0  0  0  0  0  0  0  0  0  0  0  0
   46.3730   32.1080   43.9490 H   0  0  0  0  0  0  0  0  0  0  0  0
   46.5200   29.8300   42.7670 S   0  0  0  0  0  0  0  0  0  0  0  0
   47.6890   29.8770   41.2620 C   0  0  0  0  0  0  0  0  0  0  0  0
   47.8770   29.0060   40.6390 H   0  0  0  0  0  0  0  0  0  0  0  0
   48.0020   30.9530   41.3250 N   0  0  0  0  0  0  0  0  0  0  0  0
   44.7500   34.8930   43.0980 N   0  0  0  0  0  0  0  0  0  0  0  0
   44.9300   34.4780   42.0240 C   0  0  0  0  0  0  0  0  0  0  0  0
  1 39  1  0  0  0  0
  2 12  1  0  0  0  0
  2  1  2  0  0  0  0
  3  2  1  0  0  0  0
  4  3  2  0  0  0  0
  4  5  1  0  0  0  0
  5  6  2  0  0  0  0
  6  1  1  0  0  0  0
  6 21  1  0  0  0  0
  7  3  1  0  0  0  0
  8  4  1  0  0  0  0
  9  5  1  0  0  0  0
 10 15  1  0  0  0  0
 11 12  1  0  0  0  0
 11 10  2  0  0  0  0
 12 13  2  0  0  0  0
 13 14  1  0  0  0  0
 14 18  1  0  0  0  0
 15 14  2  0  0  0  0
 16 10  1  0  0  0  0
 16 20  1  0  0  0  0
 17 11  1  0  0  0  0
 19 16  1  0  0  0  0
 21 26  1  0  0  0  0
 22 21  2  0  0  0  0
 22 23  1  0  0  0  0
 23 24  2  0  0  0  0
 24 25  1  0  0  0  0
 24 29  1  0  0  0  0
 25 30  1  0  0  0  0
 26 31  1  0  0  0  0
 26 25  2  0  0  0  0
 27 22  1  0  0  0  0
 28 23  1  0  0  0  0
 31 32  2  0  0  0  0
 32 33  1  0  0  0  0
 34 32  1  0  0  0  0
 35 37  2  0  0  0  0
 35 34  1  0  0  0  0
 36 35  1  0  0  0  0
 37 31  1  0  0  0  0
 39 38  3  0  0  0  0
M  END
>  <minimizedAffinity>
-5.91672516

>  <minimizedRMSD>
0.0704058036

$$$$
