
 OpenBabel03252504493D

 22 23  0  0  0  0  0  0  0  0999 V2000
   46.6050   34.8930   42.9510 C   0  0  0  0  0  0  0  0  0  0  0  0
   47.7650   34.4860   42.2930 C   0  0  0  0  0  0  0  0  0  0  0  0
   48.4290   33.3690   42.8000 C   0  0  0  0  0  0  0  0  0  0  0  0
   47.9120   32.7430   43.9010 N   0  0  0  0  0  0  0  0  0  0  0  0
   46.7870   33.1660   44.5100 C   0  0  0  0  0  0  0  0  0  0  0  0
   46.1260   34.2500   44.0330 N   0  0  0  0  0  0  0  0  0  0  0  0
   46.0470   35.7600   42.5970 H   0  0  0  0  0  0  0  0  0  0  0  0
   49.3290   33.0200   42.3230 H   0  0  0  0  0  0  0  0  0  0  0  0
   46.2520   32.4810   45.6840 C   0  0  0  0  0  0  0  0  0  0  0  0
   46.2690   31.0530   45.7630 C   0  0  0  0  0  0  0  0  0  0  0  0
   46.6410   30.3910   45.0380 H   0  0  0  0  0  0  0  0  0  0  0  0
   45.4900   30.7720   47.4160 S   0  0  0  0  0  0  0  0  0  0  0  0
   45.2880   32.6490   47.6880 C   0  0  0  0  0  0  0  0  0  0  0  0
   44.8430   33.1070   48.5820 H   0  0  0  0  0  0  0  0  0  0  0  0
   45.7280   33.0820   46.7320 N   0  0  0  0  0  0  0  0  0  0  0  0
   48.2070   35.2280   41.1390 C   0  0  0  0  0  0  0  0  0  0  0  0
   49.2370   35.5740   41.2420 H   0  0  0  0  0  0  0  0  0  0  0  0
   47.5320   36.1220   41.0110 H   0  0  0  0  0  0  0  0  0  0  0  0
   48.0220   34.3640   39.9050 C   0  0  0  0  0  0  0  0  0  0  0  0
   47.6860   35.0090   39.0440 H   0  0  0  0  0  0  0  0  0  0  0  0
   47.3520   33.5280   40.1080 H   0  0  0  0  0  0  0  0  0  0  0  0
   49.0400   33.9710   39.6130 H   0  0  0  0  0  0  0  0  0  0  0  0
  1  6  1  0  0  0  0
  2  3  1  0  0  0  0
  2  1  2  0  0  0  0
  3  4  2  0  0  0  0
  4  5  1  0  0  0  0
  5  9  1  0  0  0  0
  6  5  2  0  0  0  0
  7  1  1  0  0  0  0
  8  3  1  0  0  0  0
  9 10  2  0  0  0  0
  9 15  1  0  0  0  0
 10 12  1  0  0  0  0
 11 10  1  0  0  0  0
 12 13  1  0  0  0  0
 13 14  1  0  0  0  0
 15 13  2  0  0  0  0
 16 17  1  0  0  0  0
 16  2  1  0  0  0  0
 18 16  1  0  0  0  0
 19 21  1  0  0  0  0
 19 16  1  0  0  0  0
 20 19  1  0  0  0  0
 22 19  1  0  0  0  0
M  END
>  <minimizedAffinity>
-3.82457972

>  <minimizedRMSD>
2.32343841

$$$$
