
 OpenBabel03242511013D

 44 47  0  0  0  0  0  0  0  0999 V2000
   45.6330   31.5000   47.0790 C   0  0  0  0  0  0  0  0  0  0  0  0
   45.3900   31.9620   48.3690 C   0  0  0  0  0  0  0  0  0  0  0  0
   45.1510   31.1310   49.4430 C   0  0  0  0  0  0  0  0  0  0  0  0
   45.1570   29.7760   49.2100 C   0  0  0  0  0  0  0  0  0  0  0  0
   45.4020   29.3150   47.9160 C   0  0  0  0  0  0  0  0  0  0  0  0
   45.6280   30.1720   46.9120 N   0  0  0  0  0  0  0  0  0  0  0  0
   45.3940   33.0350   48.5120 H   0  0  0  0  0  0  0  0  0  0  0  0
   44.9700   31.5730   50.4150 H   0  0  0  0  0  0  0  0  0  0  0  0
   44.9700   29.1380   50.0540 H   0  0  0  0  0  0  0  0  0  0  0  0
   44.7770   36.5520   43.8600 C   0  0  0  0  0  0  0  0  0  0  0  0
   45.6670   36.2510   42.8180 C   0  0  0  0  0  0  0  0  0  0  0  0
   46.3140   35.0210   42.8320 C   0  0  0  0  0  0  0  0  0  0  0  0
   46.0660   34.1400   43.8590 N   0  0  0  0  0  0  0  0  0  0  0  0
   45.1910   34.4790   44.8510 C   0  0  0  0  0  0  0  0  0  0  0  0
   44.5550   35.6770   44.8450 N   0  0  0  0  0  0  0  0  0  0  0  0
   45.8770   32.4590   46.0020 C   0  0  0  0  0  0  0  0  0  0  0  0
   46.8600   32.2760   45.2470 O   0  0  0  0  0  0  0  0  0  0  0  0
   44.9590   33.5460   45.8950 N   0  0  0  0  0  0  0  0  0  0  0  0
   44.2080   37.4630   43.9780 H   0  0  0  0  0  0  0  0  0  0  0  0
   45.7890   37.0000   42.0710 H   0  0  0  0  0  0  0  0  0  0  0  0
   46.9970   34.7870   42.0330 H   0  0  0  0  0  0  0  0  0  0  0  0
   44.1570   33.6610   46.5400 H   0  0  0  0  0  0  0  0  0  0  0  0
   45.4080   27.8840   47.6710 C   0  0  0  0  0  0  0  0  0  0  0  0
   44.3720   27.2950   47.1170 C   0  0  0  0  0  0  0  0  0  0  0  0
   44.2500   25.8350   46.8150 C   0  0  0  0  0  0  0  0  0  0  0  0
   44.9650   25.6610   46.0140 H   0  0  0  0  0  0  0  0  0  0  0  0
   44.6030   25.2480   47.6880 H   0  0  0  0  0  0  0  0  0  0  0  0
   44.1120   23.2420   45.4500 Cl  0  0  0  0  0  0  0  0  0  0  0  0
   42.7200   24.2700   45.7820 C   0  0  0  0  0  0  0  0  0  0  0  0
   42.8630   25.4860   46.4240 C   0  0  0  0  0  0  0  0  0  0  0  0
   41.7610   26.2910   46.6650 C   0  0  0  0  0  0  0  0  0  0  0  0
   40.5080   25.8730   46.2580 C   0  0  0  0  0  0  0  0  0  0  0  0
   40.3840   24.6770   45.6280 C   0  0  0  0  0  0  0  0  0  0  0  0
   41.4880   23.8390   45.3730 C   0  0  0  0  0  0  0  0  0  0  0  0
   41.9920   27.2000   47.1640 H   0  0  0  0  0  0  0  0  0  0  0  0
   39.6710   26.5100   46.4540 H   0  0  0  0  0  0  0  0  0  0  0  0
   39.3700   24.4190   45.3400 H   0  0  0  0  0  0  0  0  0  0  0  0
   41.1170   22.6310   44.6740 C   0  0  0  0  0  0  0  0  0  0  0  0
   40.2860   21.6140   45.3400 C   0  0  0  0  0  0  0  0  0  0  0  0
   39.8110   21.4760   46.3330 H   0  0  0  0  0  0  0  0  0  0  0  0
   40.0400   20.2950   44.0200 S   0  0  0  0  0  0  0  0  0  0  0  0
   41.0850   21.3440   42.8350 C   0  0  0  0  0  0  0  0  0  0  0  0
   41.4360   21.2100   41.7160 H   0  0  0  0  0  0  0  0  0  0  0  0
   41.3680   22.2510   43.4460 N   0  0  0  0  0  0  0  0  0  0  0  0
  1  2  1  0  0  0  0
  2  7  1  0  0  0  0
  2  3  2  0  0  0  0
  3  8  1  0  0  0  0
  4  3  1  0  0  0  0
  4  9  1  0  0  0  0
  5  4  2  0  0  0  0
  6  1  2  0  0  0  0
  6  5  1  0  0  0  0
 10 19  1  0  0  0  0
 10 15  1  0  0  0  0
 11 12  1  0  0  0  0
 11 10  2  0  0  0  0
 12 13  2  0  0  0  0
 13 14  1  0  0  0  0
 14 18  1  0  0  0  0
 15 14  2  0  0  0  0
 16  1  1  0  0  0  0
 17 16  2  0  0  0  0
 18 16  1  0  0  0  0
 18 22  1  0  0  0  0
 20 11  1  0  0  0  0
 21 12  1  0  0  0  0
 23  5  1  0  0  0  0
 24 23  2  0  0  0  0
 25 24  1  0  0  0  0
 25 27  1  0  0  0  0
 26 25  1  0  0  0  0
 28 29  1  0  0  0  0
 29 30  1  0  0  0  0
 30 31  2  0  0  0  0
 30 25  1  0  0  0  0
 31 35  1  0  0  0  0
 32 36  1  0  0  0  0
 32 31  1  0  0  0  0
 33 32  2  0  0  0  0
 34 33  1  0  0  0  0
 34 29  2  0  0  0  0
 37 33  1  0  0  0  0
 38 39  2  0  0  0  0
 38 34  1  0  0  0  0
 39 40  1  0  0  0  0
 41 39  1  0  0  0  0
 42 44  2  0  0  0  0
 42 41  1  0  0  0  0
 43 42  1  0  0  0  0
 44 38  1  0  0  0  0
M  END
>  <minimizedAffinity>
-6.14099789

>  <minimizedRMSD>
1.26716506

$$$$
