
 OpenBabel03242512523D

 42 46  0  0  1  0  0  0  0  0999 V2000
   47.1880   34.3320   42.7800 N   0  0  0  0  0  0  0  0  0  0  0  0
   48.5490   33.8150   42.7250 C   0  0  0  0  0  0  0  0  0  0  0  0
   49.1280   34.8740   41.8090 C   0  0  0  0  0  0  0  0  0  0  0  0
   48.1370   34.8240   40.6750 C   0  0  0  0  0  0  0  0  0  0  0  0
   46.8110   34.6890   41.3870 C   0  0  1  0  0  0  0  0  0  0  0  0
   48.5850   32.8580   42.1970 H   0  0  0  0  0  0  0  0  0  0  0  0
   49.0280   33.7890   43.7020 H   0  0  0  0  0  0  0  0  0  0  0  0
   50.1020   34.5750   41.3960 H   0  0  0  0  0  0  0  0  0  0  0  0
   49.1300   35.8540   42.3020 H   0  0  0  0  0  0  0  0  0  0  0  0
   48.3290   33.9330   40.0460 H   0  0  0  0  0  0  0  0  0  0  0  0
   48.2140   35.7230   40.0610 H   0  0  0  0  0  0  0  0  0  0  0  0
   46.4190   35.6620   41.4780 H   0  0  0  0  0  0  0  0  0  0  0  0
   45.9990   33.5870   40.9130 C   0  0  0  0  0  0  0  0  0  0  0  0
   46.5320   32.3530   40.7290 N   0  0  0  0  0  0  0  0  0  0  0  0
   45.8530   31.2820   40.2810 C   0  0  0  0  0  0  0  0  0  0  0  0
   44.5570   31.4340   39.9970 N   0  0  0  0  0  0  0  0  0  0  0  0
   43.9800   32.6240   40.1590 C   0  0  0  0  0  0  0  0  0  0  0  0
   42.6300   32.7100   39.8480 C   0  0  0  0  0  0  0  0  0  0  0  0
   42.0260   33.9490   40.0210 C   0  0  0  0  0  0  0  0  0  0  0  0
   42.6780   35.0910   40.4770 C   0  0  0  0  0  0  0  0  0  0  0  0
   44.0190   34.9070   40.7600 C   0  0  0  0  0  0  0  0  0  0  0  0
   44.6610   33.7330   40.6150 C   0  0  0  0  0  0  0  0  0  0  0  0
   46.3670   30.3270   40.1640 H   0  0  0  0  0  0  0  0  0  0  0  0
   42.0610   31.8640   39.4880 H   0  0  0  0  0  0  0  0  0  0  0  0
   40.9600   33.9790   39.7670 H   0  0  0  0  0  0  0  0  0  0  0  0
   42.1350   36.0050   40.5800 H   0  0  0  0  0  0  0  0  0  0  0  0
   44.4960   35.7800   41.0810 H   0  0  0  0  0  0  0  0  0  0  0  0
   44.4990   35.5700   45.0450 C   0  0  0  0  0  0  0  0  0  0  0  0
   45.3130   35.4920   43.9250 C   0  0  0  0  0  0  0  0  0  0  0  0
   46.2970   34.5180   43.8590 C   0  0  0  0  0  0  0  0  0  0  0  0
   46.4200   33.6720   44.9180 N   0  0  0  0  0  0  0  0  0  0  0  0
   45.6200   33.7500   46.0180 C   0  0  0  0  0  0  0  0  0  0  0  0
   44.6540   34.7190   46.0620 N   0  0  0  0  0  0  0  0  0  0  0  0
   43.7160   36.3210   45.1290 H   0  0  0  0  0  0  0  0  0  0  0  0
   45.1890   36.1850   43.1440 H   0  0  0  0  0  0  0  0  0  0  0  0
   45.8420   32.7770   47.1140 C   0  0  0  0  0  0  0  0  0  0  0  0
   47.2150   32.3030   47.3540 C   0  0  0  0  0  0  0  0  0  0  0  0
   48.0760   32.5930   46.8110 H   0  0  0  0  0  0  0  0  0  0  0  0
   47.0360   31.1870   48.7130 S   0  0  0  0  0  0  0  0  0  0  0  0
   45.1420   31.4860   48.8010 C   0  0  0  0  0  0  0  0  0  0  0  0
   44.1750   31.1560   49.4150 H   0  0  0  0  0  0  0  0  0  0  0  0
   44.9970   32.2240   47.9640 N   0  0  0  0  0  0  0  0  0  0  0  0
  1 30  1  0  0  0  0
  2  1  1  0  0  0  0
  2  7  1  0  0  0  0
  3  9  1  0  0  0  0
  3  2  1  0  0  0  0
  4  5  1  0  0  0  0
  4  3  1  0  0  0  0
  5 12  1  6  0  0  0
  5  1  1  0  0  0  0
  6  2  1  0  0  0  0
  8  3  1  0  0  0  0
 10  4  1  0  0  0  0
 11  4  1  0  0  0  0
 13  5  1  0  0  0  0
 14 13  1  0  0  0  0
 15 14  2  0  0  0  0
 16 17  2  0  0  0  0
 16 15  1  0  0  0  0
 17 22  1  0  0  0  0
 18 19  2  0  0  0  0
 18 17  1  0  0  0  0
 19 20  1  0  0  0  0
 20 26  1  0  0  0  0
 20 21  2  0  0  0  0
 21 27  1  0  0  0  0
 22 21  1  0  0  0  0
 22 13  2  0  0  0  0
 23 15  1  0  0  0  0
 24 18  1  0  0  0  0
 25 19  1  0  0  0  0
 28 34  1  0  0  0  0
 28 33  1  0  0  0  0
 29 28  2  0  0  0  0
 30 29  1  0  0  0  0
 30 31  2  0  0  0  0
 31 32  1  0  0  0  0
 32 33  2  0  0  0  0
 32 36  1  0  0  0  0
 35 29  1  0  0  0  0
 36 37  2  0  0  0  0
 36 42  1  0  0  0  0
 37 39  1  0  0  0  0
 38 37  1  0  0  0  0
 39 40  1  0  0  0  0
 40 41  1  0  0  0  0
 42 40  2  0  0  0  0
M  END
>  <minimizedAffinity>
-6.72041178

>  <minimizedRMSD>
0.485847145

$$$$
