
 OpenBabel03242521243D

 40 43  0  0  0  0  0  0  0  0999 V2000
   45.3470   33.7700   45.6450 C   0  0  0  0  0  0  0  0  0  0  0  0
   44.8080   34.9920   45.9360 C   0  0  0  0  0  0  0  0  0  0  0  0
   44.3830   35.8960   44.9960 C   0  0  0  0  0  0  0  0  0  0  0  0
   44.5280   35.5080   43.7050 N   0  0  0  0  0  0  0  0  0  0  0  0
   45.0550   34.3090   43.4100 C   0  0  0  0  0  0  0  0  0  0  0  0
   45.4720   33.4230   44.3440 N   0  0  0  0  0  0  0  0  0  0  0  0
   44.7150   35.2550   46.9810 H   0  0  0  0  0  0  0  0  0  0  0  0
   43.9700   36.8370   45.2880 H   0  0  0  0  0  0  0  0  0  0  0  0
   45.2040   33.9010   41.9980 C   0  0  0  0  0  0  0  0  0  0  0  0
   44.1640   33.2450   41.3690 C   0  0  0  0  0  0  0  0  0  0  0  0
   44.2010   32.8200   40.0510 C   0  0  0  0  0  0  0  0  0  0  0  0
   45.3610   33.0820   39.3440 C   0  0  0  0  0  0  0  0  0  0  0  0
   46.3830   33.7260   39.9610 C   0  0  0  0  0  0  0  0  0  0  0  0
   46.3380   34.1440   41.2700 C   0  0  0  0  0  0  0  0  0  0  0  0
   43.2440   33.0330   41.9140 H   0  0  0  0  0  0  0  0  0  0  0  0
   43.3450   32.3110   39.6260 H   0  0  0  0  0  0  0  0  0  0  0  0
   45.3770   32.7450   38.3160 H   0  0  0  0  0  0  0  0  0  0  0  0
   47.2900   33.9240   39.3910 H   0  0  0  0  0  0  0  0  0  0  0  0
   47.3610   34.8000   41.9250 O   0  0  0  0  0  0  0  0  0  0  0  0
   49.8080   35.4390   42.5840 O   0  0  0  0  0  0  0  0  0  0  0  0
   48.9810   34.8390   41.4460 P   0  0  0  0  0  0  0  0  0  0  0  0
   49.6040   33.3670   40.9860 O   0  0  0  0  0  0  0  0  0  0  0  0
   49.7930   33.2630   40.0280 H   0  0  0  0  0  0  0  0  0  0  0  0
   49.1300   35.9040   40.1340 O   0  0  0  0  0  0  0  0  0  0  0  0
   49.1980   36.8370   40.4160 H   0  0  0  0  0  0  0  0  0  0  0  0
   45.5870   32.0640   48.8750 C   0  0  0  0  0  0  0  0  0  0  0  0
   46.6010   31.1350   48.6270 C   0  0  0  0  0  0  0  0  0  0  0  0
   47.1980   31.0830   47.3820 C   0  0  0  0  0  0  0  0  0  0  0  0
   46.7500   31.9700   46.4360 N   0  0  0  0  0  0  0  0  0  0  0  0
   45.7760   32.8600   46.6850 C   0  0  0  0  0  0  0  0  0  0  0  0
   45.2090   32.8940   47.8970 N   0  0  0  0  0  0  0  0  0  0  0  0
   45.1250   32.1020   49.8400 H   0  0  0  0  0  0  0  0  0  0  0  0
   46.9350   30.4470   49.3870 H   0  0  0  0  0  0  0  0  0  0  0  0
   48.2770   30.1280   47.0410 C   0  0  0  0  0  0  0  0  0  0  0  0
   49.1150   29.5930   48.0300 C   0  0  0  0  0  0  0  0  0  0  0  0
   49.0910   29.7860   49.0770 H   0  0  0  0  0  0  0  0  0  0  0  0
   50.2270   28.5070   47.0660 S   0  0  0  0  0  0  0  0  0  0  0  0
   49.3410   28.9790   45.4520 C   0  0  0  0  0  0  0  0  0  0  0  0
   49.4970   28.6670   44.3520 H   0  0  0  0  0  0  0  0  0  0  0  0
   48.5330   29.7100   45.8040 N   0  0  0  0  0  0  0  0  0  0  0  0
  1  2  1  0  0  0  0
  1 30  1  0  0  0  0
  2  7  1  0  0  0  0
  3  8  1  0  0  0  0
  3  2  2  0  0  0  0
  4  3  1  0  0  0  0
  5  4  2  0  0  0  0
  5  6  1  0  0  0  0
  6  1  2  0  0  0  0
  9  5  1  0  0  0  0
 10 15  1  0  0  0  0
 10  9  1  0  0  0  0
 11 10  2  0  0  0  0
 12 13  2  0  0  0  0
 12 11  1  0  0  0  0
 13 14  1  0  0  0  0
 14 19  1  0  0  0  0
 14  9  2  0  0  0  0
 16 11  1  0  0  0  0
 17 12  1  0  0  0  0
 18 13  1  0  0  0  0
 21 19  1  0  0  0  0
 21 20  2  0  0  0  0
 22 21  1  0  0  0  0
 23 22  1  0  0  0  0
 24 25  1  0  0  0  0
 24 21  1  0  0  0  0
 26 32  1  0  0  0  0
 27 26  1  0  0  0  0
 27 33  1  0  0  0  0
 28 27  2  0  0  0  0
 29 30  2  0  0  0  0
 29 28  1  0  0  0  0
 30 31  1  0  0  0  0
 31 26  2  0  0  0  0
 34 28  1  0  0  0  0
 34 35  2  0  0  0  0
 35 36  1  0  0  0  0
 37 35  1  0  0  0  0
 38 40  2  0  0  0  0
 38 37  1  0  0  0  0
 39 38  1  0  0  0  0
 40 34  1  0  0  0  0
M  END
>  <minimizedAffinity>
-6.3087492

>  <minimizedRMSD>
0.536452651

$$$$
