
 OpenBabel03252502093D

 46 50  0  0  0  0  0  0  0  0999 V2000
   47.4530   32.0570   47.8450 C   0  0  0  0  0  0  0  0  0  0  0  0
   46.9140   30.7670   47.8700 C   0  0  0  0  0  0  0  0  0  0  0  0
   45.9290   30.4950   46.9690 C   0  0  0  0  0  0  0  0  0  0  0  0
   45.5240   31.4350   46.1130 N   0  0  0  0  0  0  0  0  0  0  0  0
   46.0170   32.6540   46.0680 C   0  0  0  0  0  0  0  0  0  0  0  0
   46.9940   32.9500   46.9560 N   0  0  0  0  0  0  0  0  0  0  0  0
   45.3390   29.2530   46.9530 N   0  0  0  0  0  0  0  0  0  0  0  0
   44.1370   28.8990   46.1530 C   0  0  0  0  0  0  0  0  0  0  0  0
   44.0290   27.4030   46.2040 C   0  0  0  0  0  0  0  0  0  0  0  0
   44.6960   27.0520   47.4810 C   0  0  0  0  0  0  0  0  0  0  0  0
   45.7420   28.0870   47.6900 C   0  0  0  0  0  0  0  0  0  0  0  0
   48.2430   32.3250   48.5490 H   0  0  0  0  0  0  0  0  0  0  0  0
   44.2250   29.3060   45.1250 H   0  0  0  0  0  0  0  0  0  0  0  0
   43.2680   29.3440   46.6960 H   0  0  0  0  0  0  0  0  0  0  0  0
   44.4280   26.9010   45.3170 H   0  0  0  0  0  0  0  0  0  0  0  0
   42.9520   27.1120   46.3000 H   0  0  0  0  0  0  0  0  0  0  0  0
   45.2300   26.0780   47.3290 H   0  0  0  0  0  0  0  0  0  0  0  0
   44.0110   26.8780   48.3260 H   0  0  0  0  0  0  0  0  0  0  0  0
   46.7270   27.7800   47.3160 H   0  0  0  0  0  0  0  0  0  0  0  0
   45.7300   28.2610   48.7920 H   0  0  0  0  0  0  0  0  0  0  0  0
   45.7370   33.8190   45.1840 C   0  0  0  0  0  0  0  0  0  0  0  0
   44.8560   34.7770   45.4810 N   0  0  0  0  0  0  0  0  0  0  0  0
   44.5850   35.8290   44.7210 C   0  0  0  0  0  0  0  0  0  0  0  0
   45.2300   35.9870   43.5410 N   0  0  0  0  0  0  0  0  0  0  0  0
   46.1410   35.0860   43.1300 C   0  0  0  0  0  0  0  0  0  0  0  0
   46.7890   35.2500   41.9300 C   0  0  0  0  0  0  0  0  0  0  0  0
   47.7100   34.3500   41.4990 C   0  0  0  0  0  0  0  0  0  0  0  0
   47.9830   33.2490   42.3060 C   0  0  0  0  0  0  0  0  0  0  0  0
   47.2910   33.1420   43.5120 C   0  0  0  0  0  0  0  0  0  0  0  0
   46.3720   34.0200   43.9650 C   0  0  0  0  0  0  0  0  0  0  0  0
   43.8630   36.5840   45.0020 H   0  0  0  0  0  0  0  0  0  0  0  0
   46.5250   36.1290   41.3570 H   0  0  0  0  0  0  0  0  0  0  0  0
   48.1850   34.5340   40.5510 H   0  0  0  0  0  0  0  0  0  0  0  0
   48.9850   32.2580   41.8460 C   0  0  0  0  0  0  0  0  0  0  0  0
   48.7290   31.4090   40.7860 C   0  0  0  0  0  0  0  0  0  0  0  0
   47.8250   31.3230   40.1550 H   0  0  0  0  0  0  0  0  0  0  0  0
   50.3110   30.4320   40.6900 S   0  0  0  0  0  0  0  0  0  0  0  0
   51.0400   31.3950   42.1530 C   0  0  0  0  0  0  0  0  0  0  0  0
   52.0260   31.2690   42.6070 H   0  0  0  0  0  0  0  0  0  0  0  0
   50.1780   32.1310   42.4230 N   0  0  0  0  0  0  0  0  0  0  0  0
   47.6890   31.9690   44.2210 N   0  0  0  0  0  0  0  0  0  0  0  0
   47.0430   31.2370   43.8060 H   0  0  0  0  0  0  0  0  0  0  0  0
   48.3990   31.7530   44.9500 H   0  0  0  0  0  0  0  0  0  0  0  0
   47.4430   29.8730   48.7650 N   0  0  0  0  0  0  0  0  0  0  0  0
   48.1560   29.1160   48.6790 H   0  0  0  0  0  0  0  0  0  0  0  0
   46.9320   30.1310   49.6610 H   0  0  0  0  0  0  0  0  0  0  0  0
  1  2  1  0  0  0  0
  1 12  1  0  0  0  0
  2 44  1  0  0  0  0
  3  2  2  0  0  0  0
  4  3  1  0  0  0  0
  5  4  2  0  0  0  0
  5  6  1  0  0  0  0
  6  1  2  0  0  0  0
  7  3  1  0  0  0  0
  7 11  1  0  0  0  0
  8  9  1  0  0  0  0
  8 14  1  0  0  0  0
  8  7  1  0  0  0  0
  9 16  1  0  0  0  0
  9 10  1  0  0  0  0
 10 11  1  0  0  0  0
 10 18  1  0  0  0  0
 11 20  1  0  0  0  0
 13  8  1  0  0  0  0
 15  9  1  0  0  0  0
 17 10  1  0  0  0  0
 19 11  1  0  0  0  0
 21 22  1  0  0  0  0
 21  5  1  0  0  0  0
 23 31  1  0  0  0  0
 23 22  2  0  0  0  0
 24 23  1  0  0  0  0
 25 24  2  0  0  0  0
 25 30  1  0  0  0  0
 26 25  1  0  0  0  0
 27 26  2  0  0  0  0
 27 28  1  0  0  0  0
 28 29  2  0  0  0  0
 29 30  1  0  0  0  0
 29 41  1  0  0  0  0
 30 21  2  0  0  0  0
 32 26  1  0  0  0  0
 33 27  1  0  0  0  0
 34 28  1  0  0  0  0
 34 40  1  0  0  0  0
 35 34  2  0  0  0  0
 36 35  1  0  0  0  0
 37 35  1  0  0  0  0
 37 38  1  0  0  0  0
 38 40  2  0  0  0  0
 38 39  1  0  0  0  0
 41 43  1  0  0  0  0
 42 41  1  0  0  0  0
 44 46  1  0  0  0  0
 45 44  1  0  0  0  0
M  END
>  <minimizedAffinity>
-6.75991154

>  <minimizedRMSD>
0.153818905

$$$$
