
 OpenBabel03252509143D

 43 47  0  0  1  0  0  0  0  0999 V2000
   47.5230   32.6960   44.0110 C   0  0  0  0  0  0  0  0  0  0  0  0
   46.8150   33.5920   43.2040 C   0  0  0  0  0  0  0  0  0  0  0  0
   45.7490   34.3430   43.6720 C   0  0  0  0  0  0  0  0  0  0  0  0
   45.3580   34.2010   45.0130 C   0  0  0  0  0  0  0  0  0  0  0  0
   44.4040   34.7420   45.7990 N   0  0  0  0  0  0  0  0  0  0  0  0
   44.4860   34.2280   47.0430 C   0  0  0  0  0  0  0  0  0  0  0  0
   45.5090   33.3620   47.0040 N   0  0  0  0  0  0  0  0  0  0  0  0
   46.0670   33.3180   45.7840 C   0  0  0  0  0  0  0  0  0  0  0  0
   47.1370   32.5530   45.3430 C   0  0  0  0  0  0  0  0  0  0  0  0
   48.3570   32.1270   43.5930 H   0  0  0  0  0  0  0  0  0  0  0  0
   43.7620   35.4500   45.3610 H   0  0  0  0  0  0  0  0  0  0  0  0
   43.8110   34.5320   47.8220 H   0  0  0  0  0  0  0  0  0  0  0  0
   47.6750   31.8660   45.9750 H   0  0  0  0  0  0  0  0  0  0  0  0
   47.1270   32.9770   39.6080 C   0  0  0  0  0  0  0  0  0  0  0  0
   47.9530   34.0340   39.1820 C   0  0  0  0  0  0  0  0  0  0  0  0
   48.3880   34.9450   40.1530 C   0  0  0  0  0  0  0  0  0  0  0  0
   48.0050   34.7810   41.4610 N   0  0  0  0  0  0  0  0  0  0  0  0
   47.2110   33.7480   41.8100 C   0  0  0  0  0  0  0  0  0  0  0  0
   46.7570   32.8320   40.9160 N   0  0  0  0  0  0  0  0  0  0  0  0
   46.7530   32.2360   38.9170 H   0  0  0  0  0  0  0  0  0  0  0  0
   48.2250   34.1160   38.1370 H   0  0  0  0  0  0  0  0  0  0  0  0
   49.0250   35.7660   39.8470 H   0  0  0  0  0  0  0  0  0  0  0  0
   44.8640   35.4700   42.6430 S   0  0  0  0  0  0  0  0  0  0  0  0
   42.8090   33.9080   42.1480 N   0  0  0  0  0  0  0  0  0  0  0  0
   43.7960   34.6670   41.4240 C   0  0  1  0  0  0  0  0  0  0  0  0
   43.1620   35.7920   40.6110 C   0  0  0  0  0  0  0  0  0  0  0  0
   41.9990   35.4170   39.9730 O   0  0  0  0  0  0  0  0  0  0  0  0
   41.7370   34.0790   39.9560 C   0  0  0  0  0  0  0  0  0  0  0  0
   41.6540   33.5550   41.3530 C   0  0  1  0  0  0  0  0  0  0  0  0
   42.5150   34.4740   42.9750 H   0  0  0  0  0  0  0  0  0  0  0  0
   44.4030   34.0230   40.7450 H   0  0  0  0  0  0  0  0  0  0  0  0
   42.9530   36.6690   41.2810 H   0  0  0  0  0  0  0  0  0  0  0  0
   43.8440   36.0480   39.7900 H   0  0  0  0  0  0  0  0  0  0  0  0
   40.7360   33.9440   39.5000 H   0  0  0  0  0  0  0  0  0  0  0  0
   42.4360   33.4910   39.3170 H   0  0  0  0  0  0  0  0  0  0  0  0
   40.7410   33.9350   41.8430 H   0  0  0  0  0  0  0  0  0  0  0  0
   41.5380   32.0780   41.2900 C   0  0  0  0  0  0  0  0  0  0  0  0
   42.4330   31.2730   42.1650 C   0  0  0  0  0  0  0  0  0  0  0  0
   43.2410   31.8670   42.9140 H   0  0  0  0  0  0  0  0  0  0  0  0
   41.9510   29.5040   41.7650 S   0  0  0  0  0  0  0  0  0  0  0  0
   40.6730   30.1600   40.5300 C   0  0  0  0  0  0  0  0  0  0  0  0
   40.1170   29.3330   40.0280 H   0  0  0  0  0  0  0  0  0  0  0  0
   40.7560   31.2860   40.5720 N   0  0  0  0  0  0  0  0  0  0  0  0
  1  9  1  0  0  0  0
  2  3  1  0  0  0  0
  2  1  2  0  0  0  0
  3  4  2  0  0  0  0
  4  8  1  0  0  0  0
  4  5  1  0  0  0  0
  5  6  1  0  0  0  0
  6 12  1  0  0  0  0
  7  6  2  0  0  0  0
  8  7  1  0  0  0  0
  9  8  2  0  0  0  0
  9 13  1  0  0  0  0
 10  1  1  0  0  0  0
 11  5  1  0  0  0  0
 14 19  1  0  0  0  0
 15 14  2  0  0  0  0
 15 16  1  0  0  0  0
 16 17  2  0  0  0  0
 17 18  1  0  0  0  0
 18  2  1  0  0  0  0
 19 18  2  0  0  0  0
 20 14  1  0  0  0  0
 21 15  1  0  0  0  0
 22 16  1  0  0  0  0
 23  3  1  0  0  0  0
 24 30  1  0  0  0  0
 25 31  1  6  0  0  0
 25 24  1  0  0  0  0
 25 23  1  0  0  0  0
 26 32  1  0  0  0  0
 26 25  1  0  0  0  0
 27 26  1  0  0  0  0
 28 27  1  0  0  0  0
 28 29  1  0  0  0  0
 29 36  1  1  0  0  0
 29 24  1  0  0  0  0
 33 26  1  0  0  0  0
 34 28  1  0  0  0  0
 35 28  1  0  0  0  0
 37 29  1  0  0  0  0
 37 38  2  0  0  0  0
 38 39  1  0  0  0  0
 40 38  1  0  0  0  0
 41 43  2  0  0  0  0
 41 40  1  0  0  0  0
 42 41  1  0  0  0  0
 43 37  1  0  0  0  0
M  END
>  <minimizedAffinity>
-5.47899055

>  <minimizedRMSD>
2.06557727

$$$$
