
 OpenBabel03252508393D

 39 42  0  0  0  0  0  0  0  0999 V2000
   45.1770   33.9720   40.7360 C   0  0  0  0  0  0  0  0  0  0  0  0
   44.1120   33.6620   39.9270 C   0  0  0  0  0  0  0  0  0  0  0  0
   44.3940   33.1650   38.6860 C   0  0  0  0  0  0  0  0  0  0  0  0
   45.6670   32.9630   38.2180 C   0  0  0  0  0  0  0  0  0  0  0  0
   46.7040   33.2840   39.0530 C   0  0  0  0  0  0  0  0  0  0  0  0
   46.4850   33.7870   40.3070 C   0  0  0  0  0  0  0  0  0  0  0  0
   43.5590   32.9160   38.0390 H   0  0  0  0  0  0  0  0  0  0  0  0
   45.8620   32.5700   37.2350 H   0  0  0  0  0  0  0  0  0  0  0  0
   47.7120   33.1260   38.6860 H   0  0  0  0  0  0  0  0  0  0  0  0
   40.9270   35.3700   41.0360 C   0  0  0  0  0  0  0  0  0  0  0  0
   42.2230   35.1870   40.5080 C   0  0  0  0  0  0  0  0  0  0  0  0
   42.7840   33.8910   40.4610 C   0  0  0  0  0  0  0  0  0  0  0  0
   41.9990   32.9050   40.9470 N   0  0  0  0  0  0  0  0  0  0  0  0
   40.7740   33.1080   41.4400 C   0  0  0  0  0  0  0  0  0  0  0  0
   40.2450   34.3300   41.4840 N   0  0  0  0  0  0  0  0  0  0  0  0
   40.4230   36.6960   41.0530 N   0  0  0  0  0  0  0  0  0  0  0  0
   42.8150   35.9950   40.1340 H   0  0  0  0  0  0  0  0  0  0  0  0
   40.2990   32.2090   41.7780 H   0  0  0  0  0  0  0  0  0  0  0  0
   40.6610   37.3940   40.3120 H   0  0  0  0  0  0  0  0  0  0  0  0
   39.7980   36.9030   41.8720 H   0  0  0  0  0  0  0  0  0  0  0  0
   47.6450   34.0940   41.1150 C   0  0  0  0  0  0  0  0  0  0  0  0
   48.1620   35.3570   40.9670 C   0  0  0  0  0  0  0  0  0  0  0  0
   49.2770   35.8370   41.6610 C   0  0  0  0  0  0  0  0  0  0  0  0
   49.8870   34.9760   42.5470 C   0  0  0  0  0  0  0  0  0  0  0  0
   49.3930   33.7100   42.7150 C   0  0  0  0  0  0  0  0  0  0  0  0
   48.2860   33.2680   42.0110 C   0  0  0  0  0  0  0  0  0  0  0  0
   47.7250   36.0810   40.2840 H   0  0  0  0  0  0  0  0  0  0  0  0
   49.6540   36.8400   41.5160 H   0  0  0  0  0  0  0  0  0  0  0  0
   50.7550   35.2560   43.1290 H   0  0  0  0  0  0  0  0  0  0  0  0
   49.7950   32.9490   43.3870 H   0  0  0  0  0  0  0  0  0  0  0  0
   47.7130   31.9080   42.1550 C   0  0  0  0  0  0  0  0  0  0  0  0
   48.1110   30.8690   41.4240 C   0  0  0  0  0  0  0  0  0  0  0  0
   48.8420   30.7130   40.6430 H   0  0  0  0  0  0  0  0  0  0  0  0
   47.0550   29.5240   42.0590 S   0  0  0  0  0  0  0  0  0  0  0  0
   46.2070   30.7110   43.2860 C   0  0  0  0  0  0  0  0  0  0  0  0
   45.4250   30.3870   43.9690 H   0  0  0  0  0  0  0  0  0  0  0  0
   46.7640   31.6500   43.0260 N   0  0  0  0  0  0  0  0  0  0  0  0
   44.7990   34.9280   43.1370 N   0  0  0  0  0  0  0  0  0  0  0  0
   44.9650   34.5060   42.0630 C   0  0  0  0  0  0  0  0  0  0  0  0
  1 39  1  0  0  0  0
  2 12  1  0  0  0  0
  2  1  2  0  0  0  0
  3  2  1  0  0  0  0
  4  3  2  0  0  0  0
  4  5  1  0  0  0  0
  5  6  2  0  0  0  0
  6  1  1  0  0  0  0
  6 21  1  0  0  0  0
  7  3  1  0  0  0  0
  8  4  1  0  0  0  0
  9  5  1  0  0  0  0
 10 16  1  0  0  0  0
 10 15  1  0  0  0  0
 11 10  2  0  0  0  0
 12 11  1  0  0  0  0
 12 13  2  0  0  0  0
 13 14  1  0  0  0  0
 14 15  2  0  0  0  0
 14 18  1  0  0  0  0
 16 20  1  0  0  0  0
 17 11  1  0  0  0  0
 19 16  1  0  0  0  0
 21 26  1  0  0  0  0
 22 21  2  0  0  0  0
 22 23  1  0  0  0  0
 23 24  2  0  0  0  0
 24 25  1  0  0  0  0
 24 29  1  0  0  0  0
 25 30  1  0  0  0  0
 26 31  1  0  0  0  0
 26 25  2  0  0  0  0
 27 22  1  0  0  0  0
 28 23  1  0  0  0  0
 31 37  1  0  0  0  0
 32 34  1  0  0  0  0
 32 31  2  0  0  0  0
 33 32  1  0  0  0  0
 34 35  1  0  0  0  0
 35 36  1  0  0  0  0
 37 35  2  0  0  0  0
 39 38  3  0  0  0  0
M  END
>  <minimizedAffinity>
-5.90901709

>  <minimizedRMSD>
0.551103771

$$$$
