
 OpenBabel03252509113D

 29 32  0  0  0  0  0  0  0  0999 V2000
   45.3090   29.6930   45.3040 C   0  0  0  0  0  0  0  0  0  0  0  0
   45.5410   30.7870   44.4850 C   0  0  0  0  0  0  0  0  0  0  0  0
   46.1490   31.9330   44.9440 C   0  0  0  0  0  0  0  0  0  0  0  0
   46.5610   32.0330   46.2730 C   0  0  0  0  0  0  0  0  0  0  0  0
   47.1690   32.9760   47.0360 N   0  0  0  0  0  0  0  0  0  0  0  0
   47.3150   32.4930   48.2930 C   0  0  0  0  0  0  0  0  0  0  0  0
   46.7850   31.2350   48.2850 N   0  0  0  0  0  0  0  0  0  0  0  0
   46.3190   30.9370   47.0610 C   0  0  0  0  0  0  0  0  0  0  0  0
   45.7160   29.7770   46.6420 C   0  0  0  0  0  0  0  0  0  0  0  0
   44.8240   28.8140   44.8830 H   0  0  0  0  0  0  0  0  0  0  0  0
   47.4480   33.9030   46.6420 H   0  0  0  0  0  0  0  0  0  0  0  0
   47.7800   33.0950   49.0590 H   0  0  0  0  0  0  0  0  0  0  0  0
   45.5370   28.9220   47.2830 H   0  0  0  0  0  0  0  0  0  0  0  0
   43.5310   31.1960   41.4380 C   0  0  0  0  0  0  0  0  0  0  0  0
   44.3530   30.5880   40.4610 C   0  0  0  0  0  0  0  0  0  0  0  0
   45.5970   30.0390   40.8580 C   0  0  0  0  0  0  0  0  0  0  0  0
   45.9160   30.1410   42.1860 N   0  0  0  0  0  0  0  0  0  0  0  0
   45.1270   30.7200   43.0950 C   0  0  0  0  0  0  0  0  0  0  0  0
   43.9400   31.2440   42.7200 N   0  0  0  0  0  0  0  0  0  0  0  0
   42.5750   31.6270   41.1800 H   0  0  0  0  0  0  0  0  0  0  0  0
   44.0300   30.5470   39.4350 H   0  0  0  0  0  0  0  0  0  0  0  0
   46.2400   29.5730   40.1440 H   0  0  0  0  0  0  0  0  0  0  0  0
   46.4010   33.1030   44.0890 C   0  0  0  0  0  0  0  0  0  0  0  0
   47.4840   33.2230   43.2140 C   0  0  0  0  0  0  0  0  0  0  0  0
   48.2250   32.4340   43.1110 H   0  0  0  0  0  0  0  0  0  0  0  0
   47.2370   34.8520   42.4710 S   0  0  0  0  0  0  0  0  0  0  0  0
   45.6430   35.1180   43.5070 C   0  0  0  0  0  0  0  0  0  0  0  0
   44.9100   36.0170   43.5410 H   0  0  0  0  0  0  0  0  0  0  0  0
   45.5110   34.0610   44.2080 N   0  0  0  0  0  0  0  0  0  0  0  0
  1  9  1  0  0  0  0
  2  3  1  0  0  0  0
  2  1  2  0  0  0  0
  3  4  2  0  0  0  0
  4  5  1  0  0  0  0
  4  8  1  0  0  0  0
  5  6  1  0  0  0  0
  6 12  1  0  0  0  0
  7  6  2  0  0  0  0
  8  7  1  0  0  0  0
  9  8  2  0  0  0  0
  9 13  1  0  0  0  0
 10  1  1  0  0  0  0
 11  5  1  0  0  0  0
 14 19  1  0  0  0  0
 15 16  1  0  0  0  0
 15 14  2  0  0  0  0
 16 17  2  0  0  0  0
 17 18  1  0  0  0  0
 18  2  1  0  0  0  0
 19 18  2  0  0  0  0
 20 14  1  0  0  0  0
 21 15  1  0  0  0  0
 22 16  1  0  0  0  0
 23 29  1  0  0  0  0
 23  3  1  0  0  0  0
 24 23  2  0  0  0  0
 25 24  1  0  0  0  0
 26 24  1  0  0  0  0
 26 27  1  0  0  0  0
 27 28  1  0  0  0  0
 27 29  2  0  0  0  0
M  END
>  <minimizedAffinity>
-3.95098734

>  <minimizedRMSD>
3.4130671

$$$$
