
 OpenBabel03252500163D

 36 39  0  0  0  0  0  0  0  0999 V2000
   39.6280   31.0830   42.2370 Cl  0  0  0  0  0  0  0  0  0  0  0  0
   38.5770   31.1810   40.8520 C   0  0  0  0  0  0  0  0  0  0  0  0
   37.6110   30.2290   40.6360 C   0  0  0  0  0  0  0  0  0  0  0  0
   36.7530   30.2800   39.5380 C   0  0  0  0  0  0  0  0  0  0  0  0
   36.9300   31.3420   38.6800 C   0  0  0  0  0  0  0  0  0  0  0  0
   37.9020   32.3010   38.8940 C   0  0  0  0  0  0  0  0  0  0  0  0
   38.7140   32.2360   39.9520 C   0  0  0  0  0  0  0  0  0  0  0  0
   36.0020   29.5270   39.3840 H   0  0  0  0  0  0  0  0  0  0  0  0
   36.3080   31.4590   37.8010 H   0  0  0  0  0  0  0  0  0  0  0  0
   38.0280   33.1330   38.2090 H   0  0  0  0  0  0  0  0  0  0  0  0
   37.2910   28.3460   43.7770 C   0  0  0  0  0  0  0  0  0  0  0  0
   37.2030   27.0060   43.3250 C   0  0  0  0  0  0  0  0  0  0  0  0
   37.2560   26.7750   41.9620 C   0  0  0  0  0  0  0  0  0  0  0  0
   37.3880   27.8500   41.1310 N   0  0  0  0  0  0  0  0  0  0  0  0
   37.4690   29.1190   41.5880 C   0  0  0  0  0  0  0  0  0  0  0  0
   37.4200   29.3500   42.9000 N   0  0  0  0  0  0  0  0  0  0  0  0
   37.2460   28.4860   44.8570 H   0  0  0  0  0  0  0  0  0  0  0  0
   37.0980   26.1490   43.9840 H   0  0  0  0  0  0  0  0  0  0  0  0
   37.1740   25.4010   41.3510 C   0  0  0  0  0  0  0  0  0  0  0  0
   38.4190   24.8800   41.1660 F   0  0  0  0  0  0  0  0  0  0  0  0
   36.4500   24.5830   42.2010 F   0  0  0  0  0  0  0  0  0  0  0  0
   36.4920   25.5520   40.1640 F   0  0  0  0  0  0  0  0  0  0  0  0
   39.7440   33.2230   40.2060 C   0  0  0  0  0  0  0  0  0  0  0  0
   39.5460   34.5860   40.3160 C   0  0  0  0  0  0  0  0  0  0  0  0
   40.7330   35.2280   40.5570 C   0  0  0  0  0  0  0  0  0  0  0  0
   41.6370   34.1890   40.5830 C   0  0  0  0  0  0  0  0  0  0  0  0
   41.0390   33.0360   40.3770 O   0  0  0  0  0  0  0  0  0  0  0  0
   38.5610   35.0600   40.2200 H   0  0  0  0  0  0  0  0  0  0  0  0
   40.9140   36.2960   40.6920 H   0  0  0  0  0  0  0  0  0  0  0  0
   43.0550   34.4200   40.8140 C   0  0  0  0  0  0  0  0  0  0  0  0
   43.3790   35.1740   42.0300 C   0  0  0  0  0  0  0  0  0  0  0  0
   42.7690   35.6510   42.8830 H   0  0  0  0  0  0  0  0  0  0  0  0
   45.2660   35.2860   42.0170 S   0  0  0  0  0  0  0  0  0  0  0  0
   45.2550   34.3070   40.3950 C   0  0  0  0  0  0  0  0  0  0  0  0
   46.0010   33.8330   39.5320 H   0  0  0  0  0  0  0  0  0  0  0  0
   44.1580   34.1100   40.1860 N   0  0  0  0  0  0  0  0  0  0  0  0
  2  1  1  0  0  0  0
  3  2  1  0  0  0  0
  3 15  1  0  0  0  0
  4  3  2  0  0  0  0
  5  6  2  0  0  0  0
  5  4  1  0  0  0  0
  6  7  1  0  0  0  0
  7 23  1  0  0  0  0
  7  2  2  0  0  0  0
  8  4  1  0  0  0  0
  9  5  1  0  0  0  0
 10  6  1  0  0  0  0
 11 17  1  0  0  0  0
 12 11  1  0  0  0  0
 12 18  1  0  0  0  0
 13 12  2  0  0  0  0
 14 15  2  0  0  0  0
 14 13  1  0  0  0  0
 15 16  1  0  0  0  0
 16 11  2  0  0  0  0
 19 13  1  0  0  0  0
 19 21  1  0  0  0  0
 20 19  1  0  0  0  0
 22 19  1  0  0  0  0
 23 24  2  0  0  0  0
 23 27  1  0  0  0  0
 24 25  1  0  0  0  0
 25 26  2  0  0  0  0
 25 29  1  0  0  0  0
 26 30  1  0  0  0  0
 27 26  1  0  0  0  0
 28 24  1  0  0  0  0
 30 31  2  0  0  0  0
 31 32  1  0  0  0  0
 33 31  1  0  0  0  0
 34 33  1  0  0  0  0
 35 34  1  0  0  0  0
 36 34  2  0  0  0  0
 36 30  1  0  0  0  0
M  END
>  <minimizedAffinity>
-6.77394152

$$$$

 OpenBabel03252500163D

 36 39  0  0  0  0  0  0  0  0999 V2000
   38.0470   28.1260   39.4190 Cl  0  0  0  0  0  0  0  0  0  0  0  0
   37.7400   28.0070   41.1290 C   0  0  0  0  0  0  0  0  0  0  0  0
   37.5760   26.7820   41.7280 C   0  0  0  0  0  0  0  0  0  0  0  0
   37.3300   26.6520   43.0940 C   0  0  0  0  0  0  0  0  0  0  0  0
   37.2590   27.8250   43.8110 C   0  0  0  0  0  0  0  0  0  0  0  0
   37.4220   29.0600   43.2110 C   0  0  0  0  0  0  0  0  0  0  0  0
   37.6570   29.1640   41.9010 C   0  0  0  0  0  0  0  0  0  0  0  0
   37.2050   25.6850   43.5470 H   0  0  0  0  0  0  0  0  0  0  0  0
   37.0710   27.8170   44.8770 H   0  0  0  0  0  0  0  0  0  0  0  0
   37.3640   29.9760   43.7900 H   0  0  0  0  0  0  0  0  0  0  0  0
   38.9330   23.8720   39.9370 C   0  0  0  0  0  0  0  0  0  0  0  0
   37.7720   23.2870   39.3750 C   0  0  0  0  0  0  0  0  0  0  0  0
   36.5540   23.8970   39.6190 C   0  0  0  0  0  0  0  0  0  0  0  0
   36.5410   25.0260   40.3860 N   0  0  0  0  0  0  0  0  0  0  0  0
   37.6640   25.5640   40.9110 C   0  0  0  0  0  0  0  0  0  0  0  0
   38.8410   24.9820   40.6800 N   0  0  0  0  0  0  0  0  0  0  0  0
   39.8720   23.3620   39.7230 H   0  0  0  0  0  0  0  0  0  0  0  0
   37.7790   22.3890   38.7640 H   0  0  0  0  0  0  0  0  0  0  0  0
   35.2460   23.3800   39.0810 C   0  0  0  0  0  0  0  0  0  0  0  0
   35.4350   22.2280   38.3770 F   0  0  0  0  0  0  0  0  0  0  0  0
   34.3970   23.1380   40.1470 F   0  0  0  0  0  0  0  0  0  0  0  0
   34.7290   24.3880   38.3000 F   0  0  0  0  0  0  0  0  0  0  0  0
   37.8310   30.4420   41.2390 C   0  0  0  0  0  0  0  0  0  0  0  0
   36.8190   31.2240   40.7160 C   0  0  0  0  0  0  0  0  0  0  0  0
   37.3320   32.3670   40.1610 C   0  0  0  0  0  0  0  0  0  0  0  0
   38.6850   32.2270   40.3780 C   0  0  0  0  0  0  0  0  0  0  0  0
   38.9490   31.1020   41.0070 O   0  0  0  0  0  0  0  0  0  0  0  0
   35.7600   30.9410   40.7540 H   0  0  0  0  0  0  0  0  0  0  0  0
   36.7990   33.1840   39.6690 H   0  0  0  0  0  0  0  0  0  0  0  0
   39.6350   33.2380   39.9390 C   0  0  0  0  0  0  0  0  0  0  0  0
   40.7130   32.7520   39.0710 C   0  0  0  0  0  0  0  0  0  0  0  0
   41.0110   31.7290   38.6320 H   0  0  0  0  0  0  0  0  0  0  0  0
   41.7390   34.2950   38.6990 S   0  0  0  0  0  0  0  0  0  0  0  0
   40.5320   35.2860   39.7710 C   0  0  0  0  0  0  0  0  0  0  0  0
   40.3030   36.4250   40.1900 H   0  0  0  0  0  0  0  0  0  0  0  0
   39.7750   34.5230   40.1310 N   0  0  0  0  0  0  0  0  0  0  0  0
  1  2  1  0  0  0  0
  2  3  2  0  0  0  0
  2  7  1  0  0  0  0
  3  4  1  0  0  0  0
  4  8  1  0  0  0  0
  4  5  2  0  0  0  0
  5  9  1  0  0  0  0
  6 10  1  0  0  0  0
  6  5  1  0  0  0  0
  7  6  2  0  0  0  0
 11 16  1  0  0  0  0
 12 13  1  0  0  0  0
 12 11  2  0  0  0  0
 13 14  2  0  0  0  0
 14 15  1  0  0  0  0
 15  3  1  0  0  0  0
 16 15  2  0  0  0  0
 17 11  1  0  0  0  0
 18 12  1  0  0  0  0
 19 13  1  0  0  0  0
 19 21  1  0  0  0  0
 20 19  1  0  0  0  0
 22 19  1  0  0  0  0
 23  7  1  0  0  0  0
 24 28  1  0  0  0  0
 24 23  2  0  0  0  0
 25 26  2  0  0  0  0
 25 24  1  0  0  0  0
 26 27  1  0  0  0  0
 27 23  1  0  0  0  0
 29 25  1  0  0  0  0
 30 36  1  0  0  0  0
 30 26  1  0  0  0  0
 31 30  2  0  0  0  0
 32 31  1  0  0  0  0
 33 31  1  0  0  0  0
 33 34  1  0  0  0  0
 34 36  2  0  0  0  0
 34 35  1  0  0  0  0
M  END
>  <minimizedAffinity>
-6.20183182

$$$$

 OpenBabel03252500163D

 36 39  0  0  0  0  0  0  0  0999 V2000
   40.5790   30.4080   40.4720 Cl  0  0  0  0  0  0  0  0  0  0  0  0
   39.2950   31.5480   40.1840 C   0  0  0  0  0  0  0  0  0  0  0  0
   37.9910   31.1260   40.0880 C   0  0  0  0  0  0  0  0  0  0  0  0
   36.9400   32.0130   39.8590 C   0  0  0  0  0  0  0  0  0  0  0  0
   37.2850   33.3400   39.7330 C   0  0  0  0  0  0  0  0  0  0  0  0
   38.5960   33.7680   39.8290 C   0  0  0  0  0  0  0  0  0  0  0  0
   39.5890   32.9030   40.0490 C   0  0  0  0  0  0  0  0  0  0  0  0
   35.9260   31.6670   39.7870 H   0  0  0  0  0  0  0  0  0  0  0  0
   36.5320   34.0980   39.5540 H   0  0  0  0  0  0  0  0  0  0  0  0
   38.8510   34.8180   39.7280 H   0  0  0  0  0  0  0  0  0  0  0  0
   37.2620   27.6150   39.2760 C   0  0  0  0  0  0  0  0  0  0  0  0
   37.1130   27.0280   40.5560 C   0  0  0  0  0  0  0  0  0  0  0  0
   37.2630   27.8410   41.6660 C   0  0  0  0  0  0  0  0  0  0  0  0
   37.5470   29.1600   41.4640 N   0  0  0  0  0  0  0  0  0  0  0  0
   37.6850   29.6960   40.2320 C   0  0  0  0  0  0  0  0  0  0  0  0
   37.5410   28.9200   39.1580 N   0  0  0  0  0  0  0  0  0  0  0  0
   37.1370   26.9430   38.4280 H   0  0  0  0  0  0  0  0  0  0  0  0
   36.8870   25.9780   40.7200 H   0  0  0  0  0  0  0  0  0  0  0  0
   37.1290   27.3440   43.0810 C   0  0  0  0  0  0  0  0  0  0  0  0
   35.8360   27.4270   43.5020 F   0  0  0  0  0  0  0  0  0  0  0  0
   37.5480   26.0250   43.1260 F   0  0  0  0  0  0  0  0  0  0  0  0
   37.9740   28.1220   43.8400 F   0  0  0  0  0  0  0  0  0  0  0  0
   40.9740   33.3170   40.1520 C   0  0  0  0  0  0  0  0  0  0  0  0
   41.8070   33.6210   39.0930 C   0  0  0  0  0  0  0  0  0  0  0  0
   43.0520   33.9740   39.5440 C   0  0  0  0  0  0  0  0  0  0  0  0
   42.9190   33.8660   40.9100 C   0  0  0  0  0  0  0  0  0  0  0  0
   41.7040   33.4840   41.2390 O   0  0  0  0  0  0  0  0  0  0  0  0
   41.4870   33.5760   38.0440 H   0  0  0  0  0  0  0  0  0  0  0  0
   43.9290   34.2670   38.9630 H   0  0  0  0  0  0  0  0  0  0  0  0
   44.0270   34.1550   41.8080 C   0  0  0  0  0  0  0  0  0  0  0  0
   44.2140   33.1970   42.9040 C   0  0  0  0  0  0  0  0  0  0  0  0
   43.6810   32.2350   43.2490 H   0  0  0  0  0  0  0  0  0  0  0  0
   45.7060   33.8630   43.8530 S   0  0  0  0  0  0  0  0  0  0  0  0
   45.7910   35.2860   42.6040 C   0  0  0  0  0  0  0  0  0  0  0  0
   46.4320   36.3040   42.3230 H   0  0  0  0  0  0  0  0  0  0  0  0
   44.9360   35.0890   41.8870 N   0  0  0  0  0  0  0  0  0  0  0  0
  2  1  1  0  0  0  0
  3  2  1  0  0  0  0
  3 15  1  0  0  0  0
  4  3  2  0  0  0  0
  5  6  2  0  0  0  0
  5  4  1  0  0  0  0
  6  7  1  0  0  0  0
  7 23  1  0  0  0  0
  7  2  2  0  0  0  0
  8  4  1  0  0  0  0
  9  5  1  0  0  0  0
 10  6  1  0  0  0  0
 11 12  1  0  0  0  0
 12 18  1  0  0  0  0
 12 13  2  0  0  0  0
 13 19  1  0  0  0  0
 14 13  1  0  0  0  0
 15 14  2  0  0  0  0
 16 11  2  0  0  0  0
 16 15  1  0  0  0  0
 17 11  1  0  0  0  0
 19 21  1  0  0  0  0
 19 20  1  0  0  0  0
 19 22  1  0  0  0  0
 23 27  1  0  0  0  0
 24 25  1  0  0  0  0
 24 23  2  0  0  0  0
 25 26  2  0  0  0  0
 26 27  1  0  0  0  0
 26 30  1  0  0  0  0
 28 24  1  0  0  0  0
 29 25  1  0  0  0  0
 30 36  1  0  0  0  0
 30 31  2  0  0  0  0
 31 32  1  0  0  0  0
 31 33  1  0  0  0  0
 34 33  1  0  0  0  0
 35 34  1  0  0  0  0
 36 34  2  0  0  0  0
M  END
>  <minimizedAffinity>
-6.1511445

$$$$

 OpenBabel03252500163D

 36 39  0  0  0  0  0  0  0  0999 V2000
   39.2440   27.6070   40.5350 Cl  0  0  0  0  0  0  0  0  0  0  0  0
   38.2250   27.6740   41.9460 C   0  0  0  0  0  0  0  0  0  0  0  0
   37.4020   26.6230   42.2670 C   0  0  0  0  0  0  0  0  0  0  0  0
   36.5740   26.6460   43.3890 C   0  0  0  0  0  0  0  0  0  0  0  0
   36.6300   27.7860   44.1580 C   0  0  0  0  0  0  0  0  0  0  0  0
   37.4570   28.8460   43.8380 C   0  0  0  0  0  0  0  0  0  0  0  0
   38.2420   28.8050   42.7590 C   0  0  0  0  0  0  0  0  0  0  0  0
   35.9360   25.8150   43.6260 H   0  0  0  0  0  0  0  0  0  0  0  0
   36.0200   27.8890   45.0480 H   0  0  0  0  0  0  0  0  0  0  0  0
   37.4890   29.7380   44.4550 H   0  0  0  0  0  0  0  0  0  0  0  0
   38.1630   23.2950   40.9020 C   0  0  0  0  0  0  0  0  0  0  0  0
   37.3200   23.2290   39.7650 C   0  0  0  0  0  0  0  0  0  0  0  0
   36.5130   24.3190   39.4900 C   0  0  0  0  0  0  0  0  0  0  0  0
   36.5740   25.3940   40.3280 N   0  0  0  0  0  0  0  0  0  0  0  0
   37.3870   25.4320   41.4070 C   0  0  0  0  0  0  0  0  0  0  0  0
   38.1680   24.3870   41.6790 N   0  0  0  0  0  0  0  0  0  0  0  0
   38.7820   22.4180   41.0850 H   0  0  0  0  0  0  0  0  0  0  0  0
   37.2690   22.3740   39.0960 H   0  0  0  0  0  0  0  0  0  0  0  0
   35.5740   24.3770   38.3140 C   0  0  0  0  0  0  0  0  0  0  0  0
   36.1560   23.8450   37.2030 F   0  0  0  0  0  0  0  0  0  0  0  0
   34.4310   23.6610   38.6270 F   0  0  0  0  0  0  0  0  0  0  0  0
   35.2540   25.7060   38.1480 F   0  0  0  0  0  0  0  0  0  0  0  0
   39.1200   29.8990   42.3920 C   0  0  0  0  0  0  0  0  0  0  0  0
   40.4520   30.0160   42.7390 C   0  0  0  0  0  0  0  0  0  0  0  0
   40.9830   31.1730   42.2290 C   0  0  0  0  0  0  0  0  0  0  0  0
   39.9110   31.7310   41.5700 C   0  0  0  0  0  0  0  0  0  0  0  0
   38.8410   30.9730   41.6780 O   0  0  0  0  0  0  0  0  0  0  0  0
   40.9850   29.2690   43.3410 H   0  0  0  0  0  0  0  0  0  0  0  0
   42.0020   31.5540   42.3240 H   0  0  0  0  0  0  0  0  0  0  0  0
   40.0270   33.0000   40.8660 C   0  0  0  0  0  0  0  0  0  0  0  0
   41.3100   33.2300   40.1920 C   0  0  0  0  0  0  0  0  0  0  0  0
   42.2900   32.6360   40.0760 H   0  0  0  0  0  0  0  0  0  0  0  0
   41.1160   34.9340   39.3980 S   0  0  0  0  0  0  0  0  0  0  0  0
   39.3650   35.0070   40.1170 C   0  0  0  0  0  0  0  0  0  0  0  0
   38.3620   35.7250   40.1810 H   0  0  0  0  0  0  0  0  0  0  0  0
   39.2430   34.0270   40.6750 N   0  0  0  0  0  0  0  0  0  0  0  0
  1  2  1  0  0  0  0
  2  3  2  0  0  0  0
  2  7  1  0  0  0  0
  3  4  1  0  0  0  0
  4  8  1  0  0  0  0
  4  5  2  0  0  0  0
  5  9  1  0  0  0  0
  6  5  1  0  0  0  0
  6 10  1  0  0  0  0
  7  6  2  0  0  0  0
 11 17  1  0  0  0  0
 11 16  1  0  0  0  0
 12 11  2  0  0  0  0
 13 12  1  0  0  0  0
 13 14  2  0  0  0  0
 14 15  1  0  0  0  0
 15 16  2  0  0  0  0
 15  3  1  0  0  0  0
 18 12  1  0  0  0  0
 19 21  1  0  0  0  0
 19 13  1  0  0  0  0
 20 19  1  0  0  0  0
 22 19  1  0  0  0  0
 23 24  2  0  0  0  0
 23  7  1  0  0  0  0
 24 28  1  0  0  0  0
 25 29  1  0  0  0  0
 25 24  1  0  0  0  0
 26 27  1  0  0  0  0
 26 25  2  0  0  0  0
 27 23  1  0  0  0  0
 30 26  1  0  0  0  0
 31 30  2  0  0  0  0
 32 31  1  0  0  0  0
 33 34  1  0  0  0  0
 33 31  1  0  0  0  0
 34 35  1  0  0  0  0
 34 36  2  0  0  0  0
 36 30  1  0  0  0  0
M  END
>  <minimizedAffinity>
-6.03979301

$$$$

 OpenBabel03252500163D

 36 39  0  0  0  0  0  0  0  0999 V2000
   39.0900   27.3790   40.4320 Cl  0  0  0  0  0  0  0  0  0  0  0  0
   38.1590   27.5390   41.8940 C   0  0  0  0  0  0  0  0  0  0  0  0
   38.2310   28.6840   42.6500 C   0  0  0  0  0  0  0  0  0  0  0  0
   37.4980   28.8440   43.8250 C   0  0  0  0  0  0  0  0  0  0  0  0
   36.6960   27.7850   44.1860 C   0  0  0  0  0  0  0  0  0  0  0  0
   36.6210   26.6310   43.4290 C   0  0  0  0  0  0  0  0  0  0  0  0
   37.3310   26.4970   42.3060 C   0  0  0  0  0  0  0  0  0  0  0  0
   37.5660   29.7470   44.4040 H   0  0  0  0  0  0  0  0  0  0  0  0
   36.0920   27.8240   45.0850 H   0  0  0  0  0  0  0  0  0  0  0  0
   35.9830   25.8060   43.7270 H   0  0  0  0  0  0  0  0  0  0  0  0
   41.2240   30.7320   42.0470 C   0  0  0  0  0  0  0  0  0  0  0  0
   40.6950   31.8600   41.3720 C   0  0  0  0  0  0  0  0  0  0  0  0
   39.3320   31.8960   41.1380 C   0  0  0  0  0  0  0  0  0  0  0  0
   38.5760   30.8460   41.5700 N   0  0  0  0  0  0  0  0  0  0  0  0
   39.1050   29.7810   42.2120 C   0  0  0  0  0  0  0  0  0  0  0  0
   40.4180   29.7380   42.4410 N   0  0  0  0  0  0  0  0  0  0  0  0
   42.3010   30.7400   42.2110 H   0  0  0  0  0  0  0  0  0  0  0  0
   41.2950   32.6970   41.0270 H   0  0  0  0  0  0  0  0  0  0  0  0
   38.6430   33.0350   40.4330 C   0  0  0  0  0  0  0  0  0  0  0  0
   39.1130   33.1710   39.1620 F   0  0  0  0  0  0  0  0  0  0  0  0
   37.2840   32.7740   40.4000 F   0  0  0  0  0  0  0  0  0  0  0  0
   38.8780   34.1550   41.1980 F   0  0  0  0  0  0  0  0  0  0  0  0
   37.2780   25.3010   41.4900 C   0  0  0  0  0  0  0  0  0  0  0  0
   37.9800   24.1340   41.7220 C   0  0  0  0  0  0  0  0  0  0  0  0
   37.6990   23.2020   40.7570 C   0  0  0  0  0  0  0  0  0  0  0  0
   36.8050   23.8660   39.9480 C   0  0  0  0  0  0  0  0  0  0  0  0
   36.5750   25.0830   40.3950 O   0  0  0  0  0  0  0  0  0  0  0  0
   38.6630   24.0010   42.5710 H   0  0  0  0  0  0  0  0  0  0  0  0
   38.0890   22.1870   40.6560 H   0  0  0  0  0  0  0  0  0  0  0  0
   36.2300   23.2360   38.7680 C   0  0  0  0  0  0  0  0  0  0  0  0
   35.1810   24.0070   38.0920 C   0  0  0  0  0  0  0  0  0  0  0  0
   34.6740   25.0270   38.2670 H   0  0  0  0  0  0  0  0  0  0  0  0
   34.6710   22.9160   36.6350 S   0  0  0  0  0  0  0  0  0  0  0  0
   35.9550   21.6480   37.2110 C   0  0  0  0  0  0  0  0  0  0  0  0
   36.4310   20.5420   36.9340 H   0  0  0  0  0  0  0  0  0  0  0  0
   36.4230   22.1110   38.1330 N   0  0  0  0  0  0  0  0  0  0  0  0
  1  2  1  0  0  0  0
  2  7  2  0  0  0  0
  2  3  1  0  0  0  0
  3  4  2  0  0  0  0
  4  5  1  0  0  0  0
  4  8  1  0  0  0  0
  5  9  1  0  0  0  0
  6 10  1  0  0  0  0
  6  5  2  0  0  0  0
  7  6  1  0  0  0  0
 11 17  1  0  0  0  0
 11 16  1  0  0  0  0
 12 11  2  0  0  0  0
 13 12  1  0  0  0  0
 13 14  2  0  0  0  0
 14 15  1  0  0  0  0
 15 16  2  0  0  0  0
 15  3  1  0  0  0  0
 18 12  1  0  0  0  0
 19 13  1  0  0  0  0
 19 22  1  0  0  0  0
 20 19  1  0  0  0  0
 21 19  1  0  0  0  0
 23 24  2  0  0  0  0
 23  7  1  0  0  0  0
 24 28  1  0  0  0  0
 25 24  1  0  0  0  0
 26 27  1  0  0  0  0
 26 25  2  0  0  0  0
 27 23  1  0  0  0  0
 29 25  1  0  0  0  0
 30 26  1  0  0  0  0
 31 32  1  0  0  0  0
 31 30  2  0  0  0  0
 33 34  1  0  0  0  0
 33 31  1  0  0  0  0
 34 36  2  0  0  0  0
 35 34  1  0  0  0  0
 36 30  1  0  0  0  0
M  END
>  <minimizedAffinity>
-5.90037107

$$$$

 OpenBabel03252500163D

 36 39  0  0  0  0  0  0  0  0999 V2000
   37.9860   28.0890   39.4190 Cl  0  0  0  0  0  0  0  0  0  0  0  0
   37.7210   27.9570   41.1350 C   0  0  0  0  0  0  0  0  0  0  0  0
   37.5670   26.7280   41.7290 C   0  0  0  0  0  0  0  0  0  0  0  0
   37.3540   26.5880   43.0990 C   0  0  0  0  0  0  0  0  0  0  0  0
   37.3060   27.7560   43.8260 C   0  0  0  0  0  0  0  0  0  0  0  0
   37.4600   28.9950   43.2320 C   0  0  0  0  0  0  0  0  0  0  0  0
   37.6630   29.1080   41.9180 C   0  0  0  0  0  0  0  0  0  0  0  0
   37.2350   25.6190   43.5480 H   0  0  0  0  0  0  0  0  0  0  0  0
   37.1440   27.7410   44.8980 H   0  0  0  0  0  0  0  0  0  0  0  0
   37.4200   29.9070   43.8200 H   0  0  0  0  0  0  0  0  0  0  0  0
   36.6200   23.5980   40.0480 C   0  0  0  0  0  0  0  0  0  0  0  0
   37.7970   23.2620   39.3360 C   0  0  0  0  0  0  0  0  0  0  0  0
   38.8860   24.1090   39.4460 C   0  0  0  0  0  0  0  0  0  0  0  0
   38.7640   25.2180   40.2310 N   0  0  0  0  0  0  0  0  0  0  0  0
   37.6280   25.5160   40.9000 C   0  0  0  0  0  0  0  0  0  0  0  0
   36.5750   24.7050   40.8010 N   0  0  0  0  0  0  0  0  0  0  0  0
   35.7840   22.9070   39.9370 H   0  0  0  0  0  0  0  0  0  0  0  0
   37.8970   22.3800   38.7110 H   0  0  0  0  0  0  0  0  0  0  0  0
   40.1960   23.8680   38.7430 C   0  0  0  0  0  0  0  0  0  0  0  0
   40.3950   22.5370   38.5340 F   0  0  0  0  0  0  0  0  0  0  0  0
   40.1710   24.5300   37.5270 F   0  0  0  0  0  0  0  0  0  0  0  0
   41.1680   24.4190   39.5470 F   0  0  0  0  0  0  0  0  0  0  0  0
   37.8270   30.3910   41.2620 C   0  0  0  0  0  0  0  0  0  0  0  0
   36.8140   31.1470   40.7040 C   0  0  0  0  0  0  0  0  0  0  0  0
   37.3160   32.3030   40.1670 C   0  0  0  0  0  0  0  0  0  0  0  0
   38.6640   32.1980   40.4310 C   0  0  0  0  0  0  0  0  0  0  0  0
   38.9350   31.0800   41.0680 O   0  0  0  0  0  0  0  0  0  0  0  0
   35.7610   30.8370   40.7060 H   0  0  0  0  0  0  0  0  0  0  0  0
   36.7800   33.1060   39.6570 H   0  0  0  0  0  0  0  0  0  0  0  0
   39.6020   33.2330   40.0240 C   0  0  0  0  0  0  0  0  0  0  0  0
   40.6490   32.8010   39.0900 C   0  0  0  0  0  0  0  0  0  0  0  0
   40.9270   31.8080   38.5780 H   0  0  0  0  0  0  0  0  0  0  0  0
   41.6670   34.3630   38.7820 S   0  0  0  0  0  0  0  0  0  0  0  0
   40.5010   35.2860   39.9550 C   0  0  0  0  0  0  0  0  0  0  0  0
   40.2900   36.3970   40.4520 H   0  0  0  0  0  0  0  0  0  0  0  0
   39.7530   34.5030   40.2910 N   0  0  0  0  0  0  0  0  0  0  0  0
  1  2  1  0  0  0  0
  2  3  2  0  0  0  0
  2  7  1  0  0  0  0
  3  4  1  0  0  0  0
  4  8  1  0  0  0  0
  4  5  2  0  0  0  0
  5  9  1  0  0  0  0
  6 10  1  0  0  0  0
  6  5  1  0  0  0  0
  7  6  2  0  0  0  0
 11 16  1  0  0  0  0
 12 13  1  0  0  0  0
 12 11  2  0  0  0  0
 13 14  2  0  0  0  0
 14 15  1  0  0  0  0
 15  3  1  0  0  0  0
 16 15  2  0  0  0  0
 17 11  1  0  0  0  0
 18 12  1  0  0  0  0
 19 13  1  0  0  0  0
 19 22  1  0  0  0  0
 20 19  1  0  0  0  0
 21 19  1  0  0  0  0
 23  7  1  0  0  0  0
 24 28  1  0  0  0  0
 24 23  2  0  0  0  0
 25 26  2  0  0  0  0
 25 24  1  0  0  0  0
 26 27  1  0  0  0  0
 27 23  1  0  0  0  0
 29 25  1  0  0  0  0
 30 36  1  0  0  0  0
 30 26  1  0  0  0  0
 31 30  2  0  0  0  0
 32 31  1  0  0  0  0
 33 31  1  0  0  0  0
 33 34  1  0  0  0  0
 34 36  2  0  0  0  0
 34 35  1  0  0  0  0
M  END
>  <minimizedAffinity>
-5.89825678

$$$$

 OpenBabel03252500163D

 36 39  0  0  0  0  0  0  0  0999 V2000
   40.8390   31.3350   40.4850 Cl  0  0  0  0  0  0  0  0  0  0  0  0
   40.0340   32.8710   40.3240 C   0  0  0  0  0  0  0  0  0  0  0  0
   40.7550   34.0390   40.2730 C   0  0  0  0  0  0  0  0  0  0  0  0
   40.1410   35.2840   40.1430 C   0  0  0  0  0  0  0  0  0  0  0  0
   38.7660   35.2760   40.0690 C   0  0  0  0  0  0  0  0  0  0  0  0
   38.0380   34.1020   40.1210 C   0  0  0  0  0  0  0  0  0  0  0  0
   38.6440   32.9190   40.2450 C   0  0  0  0  0  0  0  0  0  0  0  0
   40.7200   36.1880   40.1050 H   0  0  0  0  0  0  0  0  0  0  0  0
   38.2080   36.1980   39.9680 H   0  0  0  0  0  0  0  0  0  0  0  0
   36.9540   34.1130   40.0610 H   0  0  0  0  0  0  0  0  0  0  0  0
   44.3080   34.0940   39.3280 C   0  0  0  0  0  0  0  0  0  0  0  0
   44.9590   33.8710   40.5670 C   0  0  0  0  0  0  0  0  0  0  0  0
   44.1730   33.7060   41.6930 C   0  0  0  0  0  0  0  0  0  0  0  0
   42.8180   33.7690   41.5490 N   0  0  0  0  0  0  0  0  0  0  0  0
   42.2210   33.9830   40.3560 C   0  0  0  0  0  0  0  0  0  0  0  0
   42.9710   34.1420   39.2650 N   0  0  0  0  0  0  0  0  0  0  0  0
   44.9610   34.2190   38.4650 H   0  0  0  0  0  0  0  0  0  0  0  0
   46.0380   33.8200   40.6850 H   0  0  0  0  0  0  0  0  0  0  0  0
   44.7380   33.4620   43.0680 C   0  0  0  0  0  0  0  0  0  0  0  0
   44.8680   34.6340   43.7520 F   0  0  0  0  0  0  0  0  0  0  0  0
   43.8810   32.6180   43.7530 F   0  0  0  0  0  0  0  0  0  0  0  0
   45.9490   32.8350   42.8780 F   0  0  0  0  0  0  0  0  0  0  0  0
   37.9110   31.6700   40.3040 C   0  0  0  0  0  0  0  0  0  0  0  0
   36.8660   31.3080   39.4770 C   0  0  0  0  0  0  0  0  0  0  0  0
   36.3990   30.0620   39.8060 C   0  0  0  0  0  0  0  0  0  0  0  0
   37.2110   29.7060   40.8600 C   0  0  0  0  0  0  0  0  0  0  0  0
   38.0810   30.6550   41.1300 O   0  0  0  0  0  0  0  0  0  0  0  0
   36.4830   31.9510   38.6740 H   0  0  0  0  0  0  0  0  0  0  0  0
   35.5860   29.4960   39.3470 H   0  0  0  0  0  0  0  0  0  0  0  0
   37.0630   28.4250   41.5360 C   0  0  0  0  0  0  0  0  0  0  0  0
   37.4710   27.2520   40.7560 C   0  0  0  0  0  0  0  0  0  0  0  0
   37.8950   27.0800   39.6980 H   0  0  0  0  0  0  0  0  0  0  0  0
   37.1530   25.7920   41.9140 S   0  0  0  0  0  0  0  0  0  0  0  0
   36.5400   27.0300   43.2110 C   0  0  0  0  0  0  0  0  0  0  0  0
   36.0890   27.1020   44.3590 H   0  0  0  0  0  0  0  0  0  0  0  0
   36.6430   28.0430   42.7120 N   0  0  0  0  0  0  0  0  0  0  0  0
  2  1  1  0  0  0  0
  3  2  1  0  0  0  0
  3 15  1  0  0  0  0
  4  3  2  0  0  0  0
  5  6  2  0  0  0  0
  5  4  1  0  0  0  0
  6  7  1  0  0  0  0
  7 23  1  0  0  0  0
  7  2  2  0  0  0  0
  8  4  1  0  0  0  0
  9  5  1  0  0  0  0
 10  6  1  0  0  0  0
 11 12  1  0  0  0  0
 12 18  1  0  0  0  0
 12 13  2  0  0  0  0
 13 19  1  0  0  0  0
 14 13  1  0  0  0  0
 15 14  2  0  0  0  0
 16 11  2  0  0  0  0
 16 15  1  0  0  0  0
 17 11  1  0  0  0  0
 19 20  1  0  0  0  0
 19 21  1  0  0  0  0
 22 19  1  0  0  0  0
 23 27  1  0  0  0  0
 24 25  1  0  0  0  0
 24 23  2  0  0  0  0
 25 26  2  0  0  0  0
 26 27  1  0  0  0  0
 26 30  1  0  0  0  0
 28 24  1  0  0  0  0
 29 25  1  0  0  0  0
 30 36  1  0  0  0  0
 31 30  2  0  0  0  0
 31 33  1  0  0  0  0
 32 31  1  0  0  0  0
 33 34  1  0  0  0  0
 34 35  1  0  0  0  0
 36 34  2  0  0  0  0
M  END
>  <minimizedAffinity>
-5.89315224

$$$$

 OpenBabel03252500163D

 36 39  0  0  0  0  0  0  0  0999 V2000
   39.6630   28.6870   40.8480 Cl  0  0  0  0  0  0  0  0  0  0  0  0
   37.9990   29.1240   40.5800 C   0  0  0  0  0  0  0  0  0  0  0  0
   37.0090   28.1740   40.6260 C   0  0  0  0  0  0  0  0  0  0  0  0
   35.6670   28.4910   40.4170 C   0  0  0  0  0  0  0  0  0  0  0  0
   35.3920   29.8150   40.1590 C   0  0  0  0  0  0  0  0  0  0  0  0
   36.3870   30.7740   40.1100 C   0  0  0  0  0  0  0  0  0  0  0  0
   37.6660   30.4500   40.3140 C   0  0  0  0  0  0  0  0  0  0  0  0
   34.9040   27.7360   40.4570 H   0  0  0  0  0  0  0  0  0  0  0  0
   34.3760   30.1500   39.9840 H   0  0  0  0  0  0  0  0  0  0  0  0
   36.1530   31.8140   39.9060 H   0  0  0  0  0  0  0  0  0  0  0  0
   37.0860   24.5000   40.5010 C   0  0  0  0  0  0  0  0  0  0  0  0
   38.0680   24.1800   41.4710 C   0  0  0  0  0  0  0  0  0  0  0  0
   38.6800   25.2220   42.1450 C   0  0  0  0  0  0  0  0  0  0  0  0
   38.3040   26.4970   41.8370 N   0  0  0  0  0  0  0  0  0  0  0  0
   37.3650   26.7760   40.9070 C   0  0  0  0  0  0  0  0  0  0  0  0
   36.7700   25.7780   40.2540 N   0  0  0  0  0  0  0  0  0  0  0  0
   36.6280   23.6530   39.9920 H   0  0  0  0  0  0  0  0  0  0  0  0
   38.3690   23.1660   41.7180 H   0  0  0  0  0  0  0  0  0  0  0  0
   39.7370   25.0200   43.1980 C   0  0  0  0  0  0  0  0  0  0  0  0
   39.6720   25.9990   44.1430 F   0  0  0  0  0  0  0  0  0  0  0  0
   39.5350   23.7870   43.7940 F   0  0  0  0  0  0  0  0  0  0  0  0
   40.9420   25.0180   42.5330 F   0  0  0  0  0  0  0  0  0  0  0  0
   38.7340   31.4290   40.2690 C   0  0  0  0  0  0  0  0  0  0  0  0
   38.9740   32.4060   41.2150 C   0  0  0  0  0  0  0  0  0  0  0  0
   40.0610   33.1630   40.8620 C   0  0  0  0  0  0  0  0  0  0  0  0
   40.4510   32.5920   39.6710 C   0  0  0  0  0  0  0  0  0  0  0  0
   39.6660   31.5880   39.3480 O   0  0  0  0  0  0  0  0  0  0  0  0
   38.3600   32.5350   42.1160 H   0  0  0  0  0  0  0  0  0  0  0  0
   40.5050   34.0070   41.3940 H   0  0  0  0  0  0  0  0  0  0  0  0
   41.5960   33.0940   38.9260 C   0  0  0  0  0  0  0  0  0  0  0  0
   42.8920   32.9600   39.5990 C   0  0  0  0  0  0  0  0  0  0  0  0
   43.2480   32.5420   40.6130 H   0  0  0  0  0  0  0  0  0  0  0  0
   44.1290   33.6950   38.3740 S   0  0  0  0  0  0  0  0  0  0  0  0
   42.6790   34.0360   37.2030 C   0  0  0  0  0  0  0  0  0  0  0  0
   42.4060   34.5090   36.0960 H   0  0  0  0  0  0  0  0  0  0  0  0
   41.7670   33.6540   37.7580 N   0  0  0  0  0  0  0  0  0  0  0  0
  2  3  1  0  0  0  0
  2  1  1  0  0  0  0
  3 15  1  0  0  0  0
  4  8  1  0  0  0  0
  4  3  2  0  0  0  0
  5  4  1  0  0  0  0
  6  5  2  0  0  0  0
  6  7  1  0  0  0  0
  7  2  2  0  0  0  0
  9  5  1  0  0  0  0
 10  6  1  0  0  0  0
 11 12  1  0  0  0  0
 12 18  1  0  0  0  0
 12 13  2  0  0  0  0
 13 19  1  0  0  0  0
 14 13  1  0  0  0  0
 15 14  2  0  0  0  0
 16 11  2  0  0  0  0
 16 15  1  0  0  0  0
 17 11  1  0  0  0  0
 19 21  1  0  0  0  0
 19 20  1  0  0  0  0
 22 19  1  0  0  0  0
 23  7  1  0  0  0  0
 23 24  2  0  0  0  0
 24 28  1  0  0  0  0
 25 24  1  0  0  0  0
 25 29  1  0  0  0  0
 26 25  2  0  0  0  0
 27 26  1  0  0  0  0
 27 23  1  0  0  0  0
 30 31  2  0  0  0  0
 30 26  1  0  0  0  0
 31 32  1  0  0  0  0
 33 31  1  0  0  0  0
 34 36  2  0  0  0  0
 34 33  1  0  0  0  0
 35 34  1  0  0  0  0
 36 30  1  0  0  0  0
M  END
>  <minimizedAffinity>
-5.8724823

$$$$

 OpenBabel03252500163D

 36 39  0  0  0  0  0  0  0  0999 V2000
   37.3920   28.2150   38.8790 Cl  0  0  0  0  0  0  0  0  0  0  0  0
   37.1940   27.7840   40.5550 C   0  0  0  0  0  0  0  0  0  0  0  0
   36.9870   26.4770   40.9220 C   0  0  0  0  0  0  0  0  0  0  0  0
   36.8260   26.0980   42.2540 C   0  0  0  0  0  0  0  0  0  0  0  0
   36.8850   27.1130   43.1830 C   0  0  0  0  0  0  0  0  0  0  0  0
   37.0920   28.4290   42.8160 C   0  0  0  0  0  0  0  0  0  0  0  0
   37.2450   28.7720   41.5350 C   0  0  0  0  0  0  0  0  0  0  0  0
   36.6650   25.0710   42.5250 H   0  0  0  0  0  0  0  0  0  0  0  0
   36.7690   26.9090   44.2410 H   0  0  0  0  0  0  0  0  0  0  0  0
   37.1370   29.2170   43.5610 H   0  0  0  0  0  0  0  0  0  0  0  0
   35.9310   24.5190   37.9950 C   0  0  0  0  0  0  0  0  0  0  0  0
   36.8810   23.4680   37.9680 C   0  0  0  0  0  0  0  0  0  0  0  0
   37.8580   23.4510   38.9480 C   0  0  0  0  0  0  0  0  0  0  0  0
   37.8520   24.4450   39.8820 N   0  0  0  0  0  0  0  0  0  0  0  0
   36.9340   25.4370   39.8850 C   0  0  0  0  0  0  0  0  0  0  0  0
   35.9890   25.4610   38.9450 N   0  0  0  0  0  0  0  0  0  0  0  0
   35.1780   24.4980   37.2070 H   0  0  0  0  0  0  0  0  0  0  0  0
   36.8880   22.6760   37.2260 H   0  0  0  0  0  0  0  0  0  0  0  0
   38.9250   22.3920   39.0340 C   0  0  0  0  0  0  0  0  0  0  0  0
   40.1650   22.9430   38.9030 F   0  0  0  0  0  0  0  0  0  0  0  0
   38.8240   21.7630   40.2630 F   0  0  0  0  0  0  0  0  0  0  0  0
   38.6490   21.4900   38.0310 F   0  0  0  0  0  0  0  0  0  0  0  0
   37.4620   30.1420   41.1160 C   0  0  0  0  0  0  0  0  0  0  0  0
   36.5130   30.9740   40.5540 C   0  0  0  0  0  0  0  0  0  0  0  0
   37.0530   32.2030   40.2750 C   0  0  0  0  0  0  0  0  0  0  0  0
   38.3570   32.0610   40.6950 C   0  0  0  0  0  0  0  0  0  0  0  0
   38.5700   30.8570   41.1800 O   0  0  0  0  0  0  0  0  0  0  0  0
   35.4770   30.6650   40.3670 H   0  0  0  0  0  0  0  0  0  0  0  0
   36.5690   33.0750   39.8300 H   0  0  0  0  0  0  0  0  0  0  0  0
   39.3160   33.1500   40.5840 C   0  0  0  0  0  0  0  0  0  0  0  0
   40.7250   32.7440   40.5270 C   0  0  0  0  0  0  0  0  0  0  0  0
   41.2870   31.7380   40.5510 H   0  0  0  0  0  0  0  0  0  0  0  0
   41.6710   34.3730   40.3870 S   0  0  0  0  0  0  0  0  0  0  0  0
   40.0070   35.2770   40.4300 C   0  0  0  0  0  0  0  0  0  0  0  0
   39.5050   36.4050   40.3970 H   0  0  0  0  0  0  0  0  0  0  0  0
   39.2350   34.4520   40.5170 N   0  0  0  0  0  0  0  0  0  0  0  0
  1  2  1  0  0  0  0
  2  3  2  0  0  0  0
  2  7  1  0  0  0  0
  3  4  1  0  0  0  0
  4  8  1  0  0  0  0
  4  5  2  0  0  0  0
  5  9  1  0  0  0  0
  6  5  1  0  0  0  0
  6 10  1  0  0  0  0
  7  6  2  0  0  0  0
 11 16  1  0  0  0  0
 12 11  2  0  0  0  0
 12 13  1  0  0  0  0
 13 19  1  0  0  0  0
 13 14  2  0  0  0  0
 14 15  1  0  0  0  0
 15  3  1  0  0  0  0
 16 15  2  0  0  0  0
 17 11  1  0  0  0  0
 18 12  1  0  0  0  0
 19 21  1  0  0  0  0
 20 19  1  0  0  0  0
 22 19  1  0  0  0  0
 23 27  1  0  0  0  0
 23  7  1  0  0  0  0
 24 23  2  0  0  0  0
 25 24  1  0  0  0  0
 25 26  2  0  0  0  0
 26 27  1  0  0  0  0
 28 24  1  0  0  0  0
 29 25  1  0  0  0  0
 30 26  1  0  0  0  0
 31 32  1  0  0  0  0
 31 30  2  0  0  0  0
 33 34  1  0  0  0  0
 33 31  1  0  0  0  0
 34 36  2  0  0  0  0
 35 34  1  0  0  0  0
 36 30  1  0  0  0  0
M  END
>  <minimizedAffinity>
-5.8425045

$$$$
