
 OpenBabel03242512423D

 21 22  0  0  0  0  0  0  0  0999 V2000
   37.9150   29.1650   41.8460 C   0  0  0  0  0  0  0  0  0  0  0  0
   38.2100   28.9410   43.2000 C   0  0  0  0  0  0  0  0  0  0  0  0
   38.0450   27.6350   43.6800 C   0  0  0  0  0  0  0  0  0  0  0  0
   37.6140   26.6720   42.8160 N   0  0  0  0  0  0  0  0  0  0  0  0
   37.3500   26.9490   41.5350 C   0  0  0  0  0  0  0  0  0  0  0  0
   37.4930   28.1850   41.0280 N   0  0  0  0  0  0  0  0  0  0  0  0
   38.5470   29.7450   43.8330 H   0  0  0  0  0  0  0  0  0  0  0  0
   38.2680   27.4600   44.7140 H   0  0  0  0  0  0  0  0  0  0  0  0
   36.9030   25.7870   40.7750 C   0  0  0  0  0  0  0  0  0  0  0  0
   36.5320   26.2280   39.4620 C   0  0  0  0  0  0  0  0  0  0  0  0
   36.4300   27.0930   38.7420 H   0  0  0  0  0  0  0  0  0  0  0  0
   35.9770   24.6390   38.5870 S   0  0  0  0  0  0  0  0  0  0  0  0
   36.3670   23.6870   40.2050 C   0  0  0  0  0  0  0  0  0  0  0  0
   36.3820   22.6100   40.7720 H   0  0  0  0  0  0  0  0  0  0  0  0
   36.7360   24.4920   40.9080 N   0  0  0  0  0  0  0  0  0  0  0  0
   38.0750   30.4390   41.3740 O   0  0  0  0  0  0  0  0  0  0  0  0
   37.0060   31.2250   40.9410 C   0  0  0  0  0  0  0  0  0  0  0  0
   37.0760   32.2960   40.2330 O   0  0  0  0  0  0  0  0  0  0  0  0
   35.6480   30.9400   41.2330 N   0  0  0  0  0  0  0  0  0  0  0  0
   34.7480   30.5270   40.8850 H   0  0  0  0  0  0  0  0  0  0  0  0
   35.3880   31.2610   42.2020 H   0  0  0  0  0  0  0  0  0  0  0  0
  1  2  1  0  0  0  0
  2  3  2  0  0  0  0
  2  7  1  0  0  0  0
  3  8  1  0  0  0  0
  4  3  1  0  0  0  0
  5  4  2  0  0  0  0
  6  5  1  0  0  0  0
  6  1  2  0  0  0  0
  9 15  1  0  0  0  0
  9  5  1  0  0  0  0
 10  9  2  0  0  0  0
 11 10  1  0  0  0  0
 12 10  1  0  0  0  0
 12 13  1  0  0  0  0
 13 14  1  0  0  0  0
 13 15  2  0  0  0  0
 16  1  1  0  0  0  0
 17 19  1  0  0  0  0
 17 16  1  0  0  0  0
 18 17  2  0  0  0  0
 19 21  1  0  0  0  0
 20 19  1  0  0  0  0
M  END
>  <minimizedAffinity>
-4.37679291

$$$$

 OpenBabel03242512423D

 21 22  0  0  0  0  0  0  0  0999 V2000
   40.8320   33.0070   39.7250 C   0  0  0  0  0  0  0  0  0  0  0  0
   40.0340   34.1590   39.7950 C   0  0  0  0  0  0  0  0  0  0  0  0
   38.8340   34.0610   40.5100 C   0  0  0  0  0  0  0  0  0  0  0  0
   38.5150   32.8690   41.0900 N   0  0  0  0  0  0  0  0  0  0  0  0
   39.3190   31.8050   40.9880 C   0  0  0  0  0  0  0  0  0  0  0  0
   40.4800   31.8500   40.3120 N   0  0  0  0  0  0  0  0  0  0  0  0
   40.3410   35.0740   39.3140 H   0  0  0  0  0  0  0  0  0  0  0  0
   38.2210   34.9400   40.5650 H   0  0  0  0  0  0  0  0  0  0  0  0
   38.8040   30.6270   41.6760 C   0  0  0  0  0  0  0  0  0  0  0  0
   37.6040   30.2100   41.0100 C   0  0  0  0  0  0  0  0  0  0  0  0
   36.8670   30.3940   40.1730 H   0  0  0  0  0  0  0  0  0  0  0  0
   37.0430   28.6870   41.9920 S   0  0  0  0  0  0  0  0  0  0  0  0
   38.5730   28.9300   43.1210 C   0  0  0  0  0  0  0  0  0  0  0  0
   39.2020   28.5230   44.0800 H   0  0  0  0  0  0  0  0  0  0  0  0
   39.0840   29.8420   42.6890 N   0  0  0  0  0  0  0  0  0  0  0  0
   42.0040   33.0990   39.0270 O   0  0  0  0  0  0  0  0  0  0  0  0
   42.0610   33.0550   37.6330 C   0  0  0  0  0  0  0  0  0  0  0  0
   41.7530   32.0580   36.8810 O   0  0  0  0  0  0  0  0  0  0  0  0
   42.4790   34.1440   36.8270 N   0  0  0  0  0  0  0  0  0  0  0  0
   42.1810   34.9490   36.2240 H   0  0  0  0  0  0  0  0  0  0  0  0
   43.5300   34.2110   36.7880 H   0  0  0  0  0  0  0  0  0  0  0  0
  1  2  2  0  0  0  0
  1  6  1  0  0  0  0
  2  3  1  0  0  0  0
  3  8  1  0  0  0  0
  3  4  2  0  0  0  0
  5  4  1  0  0  0  0
  5  9  1  0  0  0  0
  6  5  2  0  0  0  0
  7  2  1  0  0  0  0
  9 15  1  0  0  0  0
 10  9  2  0  0  0  0
 10 12  1  0  0  0  0
 11 10  1  0  0  0  0
 12 13  1  0  0  0  0
 13 14  1  0  0  0  0
 15 13  2  0  0  0  0
 16  1  1  0  0  0  0
 17 16  1  0  0  0  0
 18 17  2  0  0  0  0
 19 17  1  0  0  0  0
 20 19  1  0  0  0  0
 21 19  1  0  0  0  0
M  END
>  <minimizedAffinity>
-4.25029564

$$$$

 OpenBabel03242512423D

 21 22  0  0  0  0  0  0  0  0999 V2000
   39.7680   32.3570   39.8100 C   0  0  0  0  0  0  0  0  0  0  0  0
   38.6120   33.0920   39.5060 C   0  0  0  0  0  0  0  0  0  0  0  0
   37.4110   32.6560   40.0800 C   0  0  0  0  0  0  0  0  0  0  0  0
   37.4350   31.5600   40.8900 N   0  0  0  0  0  0  0  0  0  0  0  0
   38.5710   30.9020   41.1430 C   0  0  0  0  0  0  0  0  0  0  0  0
   39.7480   31.2810   40.6150 N   0  0  0  0  0  0  0  0  0  0  0  0
   38.6580   33.9520   38.8570 H   0  0  0  0  0  0  0  0  0  0  0  0
   36.5250   33.2150   39.8490 H   0  0  0  0  0  0  0  0  0  0  0  0
   38.3890   29.7600   42.0310 C   0  0  0  0  0  0  0  0  0  0  0  0
   39.5880   28.9740   41.9990 C   0  0  0  0  0  0  0  0  0  0  0  0
   40.6310   28.8450   41.5830 H   0  0  0  0  0  0  0  0  0  0  0  0
   39.2240   27.5370   43.1830 S   0  0  0  0  0  0  0  0  0  0  0  0
   37.4940   28.3070   43.4840 C   0  0  0  0  0  0  0  0  0  0  0  0
   36.4290   28.2160   44.0650 H   0  0  0  0  0  0  0  0  0  0  0  0
   37.4950   29.2330   42.8350 N   0  0  0  0  0  0  0  0  0  0  0  0
   40.9430   32.7790   39.2510 O   0  0  0  0  0  0  0  0  0  0  0  0
   41.1060   32.9560   37.8760 C   0  0  0  0  0  0  0  0  0  0  0  0
   41.9790   33.7010   37.2940 O   0  0  0  0  0  0  0  0  0  0  0  0
   40.3040   32.3160   36.8980 N   0  0  0  0  0  0  0  0  0  0  0  0
   40.2280   31.5240   36.2140 H   0  0  0  0  0  0  0  0  0  0  0  0
   39.3830   32.8120   36.7720 H   0  0  0  0  0  0  0  0  0  0  0  0
  1  6  1  0  0  0  0
  2  1  2  0  0  0  0
  2  3  1  0  0  0  0
  3  4  2  0  0  0  0
  4  5  1  0  0  0  0
  5  9  1  0  0  0  0
  6  5  2  0  0  0  0
  7  2  1  0  0  0  0
  8  3  1  0  0  0  0
  9 15  1  0  0  0  0
 10  9  2  0  0  0  0
 10 12  1  0  0  0  0
 11 10  1  0  0  0  0
 12 13  1  0  0  0  0
 13 14  1  0  0  0  0
 15 13  2  0  0  0  0
 16  1  1  0  0  0  0
 17 16  1  0  0  0  0
 18 17  2  0  0  0  0
 19 17  1  0  0  0  0
 20 19  1  0  0  0  0
 21 19  1  0  0  0  0
M  END
>  <minimizedAffinity>
-4.23154879

$$$$

 OpenBabel03242512423D

 21 22  0  0  0  0  0  0  0  0999 V2000
   37.8670   30.5370   39.3050 C   0  0  0  0  0  0  0  0  0  0  0  0
   36.7470   31.2250   39.7970 C   0  0  0  0  0  0  0  0  0  0  0  0
   36.2330   30.8070   41.0300 C   0  0  0  0  0  0  0  0  0  0  0  0
   36.8420   29.7710   41.6740 N   0  0  0  0  0  0  0  0  0  0  0  0
   37.9080   29.1540   41.1530 C   0  0  0  0  0  0  0  0  0  0  0  0
   38.4370   29.5190   39.9730 N   0  0  0  0  0  0  0  0  0  0  0  0
   36.3090   32.0390   39.2400 H   0  0  0  0  0  0  0  0  0  0  0  0
   35.3760   31.3310   41.4090 H   0  0  0  0  0  0  0  0  0  0  0  0
   38.4140   28.0730   41.9910 C   0  0  0  0  0  0  0  0  0  0  0  0
   38.1460   26.8310   41.3270 C   0  0  0  0  0  0  0  0  0  0  0  0
   37.7080   26.3090   40.4260 H   0  0  0  0  0  0  0  0  0  0  0  0
   38.8460   25.5220   42.5080 S   0  0  0  0  0  0  0  0  0  0  0  0
   39.3670   26.9480   43.6780 C   0  0  0  0  0  0  0  0  0  0  0  0
   39.8960   27.2580   44.7300 H   0  0  0  0  0  0  0  0  0  0  0  0
   39.0250   27.8800   43.1360 N   0  0  0  0  0  0  0  0  0  0  0  0
   38.3710   30.9420   38.1000 O   0  0  0  0  0  0  0  0  0  0  0  0
   39.4190   31.8590   37.9880 C   0  0  0  0  0  0  0  0  0  0  0  0
   40.0920   32.3800   38.9510 O   0  0  0  0  0  0  0  0  0  0  0  0
   39.9000   32.3570   36.7510 N   0  0  0  0  0  0  0  0  0  0  0  0
   40.6370   32.2840   36.0080 H   0  0  0  0  0  0  0  0  0  0  0  0
   39.2880   33.1330   36.3850 H   0  0  0  0  0  0  0  0  0  0  0  0
  1  2  2  0  0  0  0
  1  6  1  0  0  0  0
  2  3  1  0  0  0  0
  3  8  1  0  0  0  0
  3  4  2  0  0  0  0
  5  4  1  0  0  0  0
  5  9  1  0  0  0  0
  6  5  2  0  0  0  0
  7  2  1  0  0  0  0
  9 15  1  0  0  0  0
 10  9  2  0  0  0  0
 10 12  1  0  0  0  0
 11 10  1  0  0  0  0
 12 13  1  0  0  0  0
 13 14  1  0  0  0  0
 15 13  2  0  0  0  0
 16  1  1  0  0  0  0
 17 16  1  0  0  0  0
 17 18  2  0  0  0  0
 19 17  1  0  0  0  0
 20 19  1  0  0  0  0
 21 19  1  0  0  0  0
M  END
>  <minimizedAffinity>
-4.20710135

$$$$

 OpenBabel03242512423D

 21 22  0  0  0  0  0  0  0  0999 V2000
   37.4070   31.9780   39.3950 C   0  0  0  0  0  0  0  0  0  0  0  0
   36.9700   31.4280   38.1790 C   0  0  0  0  0  0  0  0  0  0  0  0
   36.6500   30.0650   38.1750 C   0  0  0  0  0  0  0  0  0  0  0  0
   36.7780   29.3610   39.3360 N   0  0  0  0  0  0  0  0  0  0  0  0
   37.2000   29.9430   40.4640 C   0  0  0  0  0  0  0  0  0  0  0  0
   37.5190   31.2470   40.5180 N   0  0  0  0  0  0  0  0  0  0  0  0
   36.8890   32.0380   37.2940 H   0  0  0  0  0  0  0  0  0  0  0  0
   36.3160   29.6410   37.2480 H   0  0  0  0  0  0  0  0  0  0  0  0
   37.2690   29.0240   41.5940 C   0  0  0  0  0  0  0  0  0  0  0  0
   37.1780   27.6860   41.0870 C   0  0  0  0  0  0  0  0  0  0  0  0
   37.0740   27.0150   40.1840 H   0  0  0  0  0  0  0  0  0  0  0  0
   37.2800   26.6020   42.6410 S   0  0  0  0  0  0  0  0  0  0  0  0
   37.4280   28.2090   43.6750 C   0  0  0  0  0  0  0  0  0  0  0  0
   37.5430   28.6960   44.7850 H   0  0  0  0  0  0  0  0  0  0  0  0
   37.3870   29.0320   42.9010 N   0  0  0  0  0  0  0  0  0  0  0  0
   37.7210   33.3090   39.4030 O   0  0  0  0  0  0  0  0  0  0  0  0
   38.8350   33.8200   40.0700 C   0  0  0  0  0  0  0  0  0  0  0  0
   39.9940   34.0560   39.5640 O   0  0  0  0  0  0  0  0  0  0  0  0
   38.8420   34.1610   41.4460 N   0  0  0  0  0  0  0  0  0  0  0  0
   38.7720   34.9320   42.1550 H   0  0  0  0  0  0  0  0  0  0  0  0
   38.9690   33.3090   42.0520 H   0  0  0  0  0  0  0  0  0  0  0  0
  1 16  1  0  0  0  0
  1  6  1  0  0  0  0
  2  1  2  0  0  0  0
  3  2  1  0  0  0  0
  3  4  2  0  0  0  0
  4  5  1  0  0  0  0
  5  6  2  0  0  0  0
  5  9  1  0  0  0  0
  7  2  1  0  0  0  0
  8  3  1  0  0  0  0
  9 15  1  0  0  0  0
 10  9  2  0  0  0  0
 10 12  1  0  0  0  0
 11 10  1  0  0  0  0
 12 13  1  0  0  0  0
 13 14  1  0  0  0  0
 15 13  2  0  0  0  0
 16 17  1  0  0  0  0
 17 19  1  0  0  0  0
 18 17  2  0  0  0  0
 19 21  1  0  0  0  0
 19 20  1  0  0  0  0
M  END
>  <minimizedAffinity>
-4.18434048

$$$$

 OpenBabel03242512423D

 21 22  0  0  0  0  0  0  0  0999 V2000
   37.9330   27.0020   41.6310 C   0  0  0  0  0  0  0  0  0  0  0  0
   37.6200   26.9150   42.9970 C   0  0  0  0  0  0  0  0  0  0  0  0
   37.4000   28.1190   43.6780 C   0  0  0  0  0  0  0  0  0  0  0  0
   37.4990   29.2880   42.9850 N   0  0  0  0  0  0  0  0  0  0  0  0
   37.8000   29.3060   41.6810 C   0  0  0  0  0  0  0  0  0  0  0  0
   38.0210   28.1780   40.9850 N   0  0  0  0  0  0  0  0  0  0  0  0
   37.5560   25.9580   43.4900 H   0  0  0  0  0  0  0  0  0  0  0  0
   37.1610   28.0560   44.7220 H   0  0  0  0  0  0  0  0  0  0  0  0
   37.8580   30.6510   41.1220 C   0  0  0  0  0  0  0  0  0  0  0  0
   39.1270   31.2230   41.4680 C   0  0  0  0  0  0  0  0  0  0  0  0
   40.1190   31.0920   41.9920 H   0  0  0  0  0  0  0  0  0  0  0  0
   39.0750   32.9530   40.6890 S   0  0  0  0  0  0  0  0  0  0  0  0
   37.3170   32.5400   40.0440 C   0  0  0  0  0  0  0  0  0  0  0  0
   36.3470   32.9280   39.4200 H   0  0  0  0  0  0  0  0  0  0  0  0
   37.1340   31.4880   40.4170 N   0  0  0  0  0  0  0  0  0  0  0  0
   38.1490   25.8280   40.9630 O   0  0  0  0  0  0  0  0  0  0  0  0
   37.6490   24.6020   41.4040 C   0  0  0  0  0  0  0  0  0  0  0  0
   36.4480   24.1650   41.2610 O   0  0  0  0  0  0  0  0  0  0  0  0
   38.4240   23.6370   42.0950 N   0  0  0  0  0  0  0  0  0  0  0  0
   38.9720   22.7450   42.0250 H   0  0  0  0  0  0  0  0  0  0  0  0
   38.5150   23.8770   43.1170 H   0  0  0  0  0  0  0  0  0  0  0  0
  1  2  1  0  0  0  0
  2  7  1  0  0  0  0
  2  3  2  0  0  0  0
  3  8  1  0  0  0  0
  4  3  1  0  0  0  0
  5  4  2  0  0  0  0
  6  1  2  0  0  0  0
  6  5  1  0  0  0  0
  9 10  2  0  0  0  0
  9  5  1  0  0  0  0
 10 11  1  0  0  0  0
 12 10  1  0  0  0  0
 13 15  2  0  0  0  0
 13 12  1  0  0  0  0
 14 13  1  0  0  0  0
 15  9  1  0  0  0  0
 16 17  1  0  0  0  0
 16  1  1  0  0  0  0
 17 19  1  0  0  0  0
 18 17  2  0  0  0  0
 19 21  1  0  0  0  0
 20 19  1  0  0  0  0
M  END
>  <minimizedAffinity>
-4.08036423

$$$$

 OpenBabel03242512423D

 21 22  0  0  0  0  0  0  0  0999 V2000
   38.8510   30.3830   41.6330 C   0  0  0  0  0  0  0  0  0  0  0  0
   40.1190   30.7180   42.1330 C   0  0  0  0  0  0  0  0  0  0  0  0
   40.8970   29.6740   42.6470 C   0  0  0  0  0  0  0  0  0  0  0  0
   40.3860   28.4100   42.6330 N   0  0  0  0  0  0  0  0  0  0  0  0
   39.1680   28.1540   42.1420 C   0  0  0  0  0  0  0  0  0  0  0  0
   38.3840   29.1220   41.6380 N   0  0  0  0  0  0  0  0  0  0  0  0
   40.4680   31.7380   42.1160 H   0  0  0  0  0  0  0  0  0  0  0  0
   41.8670   29.9260   43.0310 H   0  0  0  0  0  0  0  0  0  0  0  0
   38.8040   26.7440   42.2160 C   0  0  0  0  0  0  0  0  0  0  0  0
   37.4240   26.6200   41.8430 C   0  0  0  0  0  0  0  0  0  0  0  0
   36.4770   27.1400   41.5120 H   0  0  0  0  0  0  0  0  0  0  0  0
   37.0810   24.7590   41.9790 S   0  0  0  0  0  0  0  0  0  0  0  0
   38.9050   24.5260   42.5210 C   0  0  0  0  0  0  0  0  0  0  0  0
   39.7710   23.7420   42.8630 H   0  0  0  0  0  0  0  0  0  0  0  0
   39.3250   25.5760   42.5080 N   0  0  0  0  0  0  0  0  0  0  0  0
   38.0870   31.4000   41.1300 O   0  0  0  0  0  0  0  0  0  0  0  0
   36.8210   31.1950   40.5790 C   0  0  0  0  0  0  0  0  0  0  0  0
   36.5080   31.2400   39.3330 O   0  0  0  0  0  0  0  0  0  0  0  0
   35.6670   30.8970   41.3460 N   0  0  0  0  0  0  0  0  0  0  0  0
   35.0160   30.1490   41.6900 H   0  0  0  0  0  0  0  0  0  0  0  0
   35.2530   31.7680   41.7710 H   0  0  0  0  0  0  0  0  0  0  0  0
  1  6  2  0  0  0  0
  1  2  1  0  0  0  0
  2  3  2  0  0  0  0
  3  8  1  0  0  0  0
  4  3  1  0  0  0  0
  5  9  1  0  0  0  0
  5  4  2  0  0  0  0
  6  5  1  0  0  0  0
  7  2  1  0  0  0  0
  9 15  1  0  0  0  0
 10 12  1  0  0  0  0
 10  9  2  0  0  0  0
 11 10  1  0  0  0  0
 12 13  1  0  0  0  0
 13 14  1  0  0  0  0
 15 13  2  0  0  0  0
 16  1  1  0  0  0  0
 17 16  1  0  0  0  0
 17 19  1  0  0  0  0
 18 17  2  0  0  0  0
 19 20  1  0  0  0  0
 19 21  1  0  0  0  0
M  END
>  <minimizedAffinity>
-4.07898474

$$$$

 OpenBabel03242512423D

 21 22  0  0  0  0  0  0  0  0999 V2000
   37.0650   28.0920   41.9060 C   0  0  0  0  0  0  0  0  0  0  0  0
   37.2020   26.7500   42.2970 C   0  0  0  0  0  0  0  0  0  0  0  0
   38.4450   26.3590   42.8080 C   0  0  0  0  0  0  0  0  0  0  0  0
   39.4370   27.2900   42.8950 N   0  0  0  0  0  0  0  0  0  0  0  0
   39.2450   28.5550   42.5060 C   0  0  0  0  0  0  0  0  0  0  0  0
   38.0710   28.9780   42.0090 N   0  0  0  0  0  0  0  0  0  0  0  0
   36.3780   26.0610   42.2030 H   0  0  0  0  0  0  0  0  0  0  0  0
   38.5530   25.3350   43.1070 H   0  0  0  0  0  0  0  0  0  0  0  0
   40.4240   29.3960   42.6790 C   0  0  0  0  0  0  0  0  0  0  0  0
   41.5400   28.5450   42.9740 C   0  0  0  0  0  0  0  0  0  0  0  0
   41.9170   27.4920   43.1350 H   0  0  0  0  0  0  0  0  0  0  0  0
   42.9920   29.7490   43.1740 S   0  0  0  0  0  0  0  0  0  0  0  0
   41.7720   31.1820   42.8110 C   0  0  0  0  0  0  0  0  0  0  0  0
   41.6240   32.3830   42.6860 H   0  0  0  0  0  0  0  0  0  0  0  0
   40.7820   30.6580   42.6510 N   0  0  0  0  0  0  0  0  0  0  0  0
   35.8520   28.4780   41.4060 O   0  0  0  0  0  0  0  0  0  0  0  0
   35.6740   29.6540   40.6750 C   0  0  0  0  0  0  0  0  0  0  0  0
   35.4640   29.7490   39.4100 O   0  0  0  0  0  0  0  0  0  0  0  0
   35.7010   30.9500   41.2490 N   0  0  0  0  0  0  0  0  0  0  0  0
   35.1350   31.7570   41.6080 H   0  0  0  0  0  0  0  0  0  0  0  0
   36.6890   31.2850   41.3950 H   0  0  0  0  0  0  0  0  0  0  0  0
  1  6  2  0  0  0  0
  1  2  1  0  0  0  0
  2  3  2  0  0  0  0
  3  4  1  0  0  0  0
  3  8  1  0  0  0  0
  5  9  1  0  0  0  0
  5  4  2  0  0  0  0
  6  5  1  0  0  0  0
  7  2  1  0  0  0  0
  9 10  2  0  0  0  0
 10 11  1  0  0  0  0
 10 12  1  0  0  0  0
 13 12  1  0  0  0  0
 14 13  1  0  0  0  0
 15  9  1  0  0  0  0
 15 13  2  0  0  0  0
 16  1  1  0  0  0  0
 17 19  1  0  0  0  0
 17 16  1  0  0  0  0
 18 17  2  0  0  0  0
 19 21  1  0  0  0  0
 19 20  1  0  0  0  0
M  END
>  <minimizedAffinity>
-4.06193447

$$$$

 OpenBabel03242512423D

 21 22  0  0  0  0  0  0  0  0999 V2000
   36.3400   28.8930   40.6060 C   0  0  0  0  0  0  0  0  0  0  0  0
   35.5200   28.7280   39.4780 C   0  0  0  0  0  0  0  0  0  0  0  0
   35.7190   29.6120   38.4110 C   0  0  0  0  0  0  0  0  0  0  0  0
   36.6840   30.5680   38.5260 N   0  0  0  0  0  0  0  0  0  0  0  0
   37.4350   30.6750   39.6290 C   0  0  0  0  0  0  0  0  0  0  0  0
   37.2810   29.8510   40.6790 N   0  0  0  0  0  0  0  0  0  0  0  0
   34.7730   27.9510   39.4470 H   0  0  0  0  0  0  0  0  0  0  0  0
   35.0940   29.4900   37.5480 H   0  0  0  0  0  0  0  0  0  0  0  0
   38.4090   31.7570   39.5590 C   0  0  0  0  0  0  0  0  0  0  0  0
   37.9450   32.8300   40.3890 C   0  0  0  0  0  0  0  0  0  0  0  0
   37.1440   33.2160   41.0870 H   0  0  0  0  0  0  0  0  0  0  0  0
   39.2880   34.1580   40.2120 S   0  0  0  0  0  0  0  0  0  0  0  0
   40.2180   32.9700   39.0300 C   0  0  0  0  0  0  0  0  0  0  0  0
   41.1960   32.7960   38.3260 H   0  0  0  0  0  0  0  0  0  0  0  0
   39.5530   32.0560   38.9890 N   0  0  0  0  0  0  0  0  0  0  0  0
   36.1490   28.0310   41.6500 O   0  0  0  0  0  0  0  0  0  0  0  0
   36.9740   28.0110   42.7760 C   0  0  0  0  0  0  0  0  0  0  0  0
   37.7230   27.0410   43.1640 O   0  0  0  0  0  0  0  0  0  0  0  0
   37.1020   29.0970   43.6780 N   0  0  0  0  0  0  0  0  0  0  0  0
   37.6760   29.9250   43.9720 H   0  0  0  0  0  0  0  0  0  0  0  0
   36.3020   29.1240   44.3630 H   0  0  0  0  0  0  0  0  0  0  0  0
  1  6  1  0  0  0  0
  1 16  1  0  0  0  0
  2  1  2  0  0  0  0
  3  4  2  0  0  0  0
  3  2  1  0  0  0  0
  4  5  1  0  0  0  0
  5  6  2  0  0  0  0
  7  2  1  0  0  0  0
  8  3  1  0  0  0  0
  9  5  1  0  0  0  0
  9 10  2  0  0  0  0
 10 11  1  0  0  0  0
 12 10  1  0  0  0  0
 13 12  1  0  0  0  0
 14 13  1  0  0  0  0
 15 13  2  0  0  0  0
 15  9  1  0  0  0  0
 16 17  1  0  0  0  0
 17 18  2  0  0  0  0
 17 19  1  0  0  0  0
 19 20  1  0  0  0  0
 19 21  1  0  0  0  0
M  END
>  <minimizedAffinity>
-4.03276348

$$$$
