
 OpenBabel03242521343D

 29 32  0  0  0  0  0  0  0  0999 V2000
   44.4310   35.9770   44.8880 C   0  0  0  0  0  0  0  0  0  0  0  0
   45.0330   35.9240   43.6020 C   0  0  0  0  0  0  0  0  0  0  0  0
   45.9030   34.8870   43.3280 C   0  0  0  0  0  0  0  0  0  0  0  0
   46.1580   33.9500   44.2880 N   0  0  0  0  0  0  0  0  0  0  0  0
   45.5490   34.0470   45.5140 C   0  0  0  0  0  0  0  0  0  0  0  0
   44.7090   35.0440   45.7900 N   0  0  0  0  0  0  0  0  0  0  0  0
   43.7510   36.7860   45.1070 H   0  0  0  0  0  0  0  0  0  0  0  0
   44.8410   36.6500   42.8500 H   0  0  0  0  0  0  0  0  0  0  0  0
   47.8640   35.1960   41.9470 C   0  0  0  0  0  0  0  0  0  0  0  0
   46.5870   34.7150   42.0510 C   0  0  0  0  0  0  0  0  0  0  0  0
   46.0190   34.0980   40.9590 C   0  0  0  0  0  0  0  0  0  0  0  0
   46.6900   33.9440   39.7560 C   0  0  0  0  0  0  0  0  0  0  0  0
   46.3450   33.3820   38.5720 N   0  0  0  0  0  0  0  0  0  0  0  0
   47.4290   33.5230   37.7350 C   0  0  0  0  0  0  0  0  0  0  0  0
   48.4140   34.1640   38.4080 N   0  0  0  0  0  0  0  0  0  0  0  0
   47.9860   34.4340   39.6530 C   0  0  0  0  0  0  0  0  0  0  0  0
   48.5610   35.0530   40.7440 C   0  0  0  0  0  0  0  0  0  0  0  0
   48.3280   35.6840   42.7930 H   0  0  0  0  0  0  0  0  0  0  0  0
   45.0080   33.7360   41.0970 H   0  0  0  0  0  0  0  0  0  0  0  0
   45.4210   32.9510   38.4150 H   0  0  0  0  0  0  0  0  0  0  0  0
   47.4430   33.1650   36.7140 H   0  0  0  0  0  0  0  0  0  0  0  0
   49.5560   35.4460   40.7140 H   0  0  0  0  0  0  0  0  0  0  0  0
   45.9280   32.9570   46.4420 C   0  0  0  0  0  0  0  0  0  0  0  0
   46.9310   32.0250   46.1480 C   0  0  0  0  0  0  0  0  0  0  0  0
   47.4950   32.0150   45.2580 H   0  0  0  0  0  0  0  0  0  0  0  0
   46.9150   31.0050   47.6130 S   0  0  0  0  0  0  0  0  0  0  0  0
   45.5200   32.0200   48.4190 C   0  0  0  0  0  0  0  0  0  0  0  0
   45.0590   31.8390   49.4140 H   0  0  0  0  0  0  0  0  0  0  0  0
   45.2980   32.8540   47.5980 N   0  0  0  0  0  0  0  0  0  0  0  0
  1  7  1  0  0  0  0
  1  6  1  0  0  0  0
  2  1  2  0  0  0  0
  3  2  1  0  0  0  0
  3  4  2  0  0  0  0
  4  5  1  0  0  0  0
  5  6  2  0  0  0  0
  5 23  1  0  0  0  0
  8  2  1  0  0  0  0
  9 10  1  0  0  0  0
  9 18  1  0  0  0  0
 10  3  1  0  0  0  0
 11 19  1  0  0  0  0
 11 10  2  0  0  0  0
 12 11  1  0  0  0  0
 13 12  1  0  0  0  0
 14 15  2  0  0  0  0
 14 13  1  0  0  0  0
 15 16  1  0  0  0  0
 16 12  2  0  0  0  0
 16 17  1  0  0  0  0
 17  9  2  0  0  0  0
 20 13  1  0  0  0  0
 21 14  1  0  0  0  0
 22 17  1  0  0  0  0
 23 29  1  0  0  0  0
 24 23  2  0  0  0  0
 24 26  1  0  0  0  0
 25 24  1  0  0  0  0
 26 27  1  0  0  0  0
 27 28  1  0  0  0  0
 29 27  2  0  0  0  0
M  END
>  <minimizedAffinity>
-6.6183157

>  <minimizedRMSD>
0.448937267

$$$$
