
 OpenBabel03252509153D

 43 47  0  0  1  0  0  0  0  0999 V2000
   35.0890   28.7760   39.3610 C   0  0  0  0  0  0  0  0  0  0  0  0
   36.4480   28.5560   39.6060 C   0  0  0  0  0  0  0  0  0  0  0  0
   37.4080   28.6050   38.6080 C   0  0  0  0  0  0  0  0  0  0  0  0
   37.0040   28.8850   37.2930 C   0  0  0  0  0  0  0  0  0  0  0  0
   37.6250   29.0100   36.1020 N   0  0  0  0  0  0  0  0  0  0  0  0
   36.7240   29.2940   35.1390 C   0  0  0  0  0  0  0  0  0  0  0  0
   35.5380   29.3400   35.7640 N   0  0  0  0  0  0  0  0  0  0  0  0
   35.6670   29.0960   37.0780 C   0  0  0  0  0  0  0  0  0  0  0  0
   34.6850   29.0540   38.0560 C   0  0  0  0  0  0  0  0  0  0  0  0
   34.3720   28.7270   40.1840 H   0  0  0  0  0  0  0  0  0  0  0  0
   38.6680   28.8770   36.0850 H   0  0  0  0  0  0  0  0  0  0  0  0
   37.0200   29.4330   34.1160 H   0  0  0  0  0  0  0  0  0  0  0  0
   33.6400   29.2250   37.8550 H   0  0  0  0  0  0  0  0  0  0  0  0
   37.6290   29.0430   43.0370 C   0  0  0  0  0  0  0  0  0  0  0  0
   37.6990   27.7270   43.5320 C   0  0  0  0  0  0  0  0  0  0  0  0
   37.3330   26.6910   42.6630 C   0  0  0  0  0  0  0  0  0  0  0  0
   36.9280   26.9850   41.3850 N   0  0  0  0  0  0  0  0  0  0  0  0
   36.8810   28.2650   40.9670 C   0  0  0  0  0  0  0  0  0  0  0  0
   37.2220   29.3140   41.7600 N   0  0  0  0  0  0  0  0  0  0  0  0
   37.8950   29.8930   43.6480 H   0  0  0  0  0  0  0  0  0  0  0  0
   38.0250   27.5520   44.5490 H   0  0  0  0  0  0  0  0  0  0  0  0
   37.3800   25.6700   43.0230 H   0  0  0  0  0  0  0  0  0  0  0  0
   39.1200   28.3260   38.9300 S   0  0  0  0  0  0  0  0  0  0  0  0
   40.6110   29.9190   37.4640 N   0  0  0  0  0  0  0  0  0  0  0  0
   40.1390   29.8160   38.8220 C   0  0  1  0  0  0  0  0  0  0  0  0
   39.2260   30.9810   39.1930 C   0  0  0  0  0  0  0  0  0  0  0  0
   39.6750   32.1990   38.7260 O   0  0  0  0  0  0  0  0  0  0  0  0
   40.9490   32.2140   38.2400 C   0  0  0  0  0  0  0  0  0  0  0  0
   41.0790   31.2410   37.1130 C   0  0  1  0  0  0  0  0  0  0  0  0
   39.8280   29.6370   36.8320 H   0  0  0  0  0  0  0  0  0  0  0  0
   40.9790   29.7630   39.5530 H   0  0  0  0  0  0  0  0  0  0  0  0
   38.1920   30.7900   38.8010 H   0  0  0  0  0  0  0  0  0  0  0  0
   39.2430   31.0950   40.2850 H   0  0  0  0  0  0  0  0  0  0  0  0
   41.1300   33.2220   37.8180 H   0  0  0  0  0  0  0  0  0  0  0  0
   41.7310   32.0740   39.0210 H   0  0  0  0  0  0  0  0  0  0  0  0
   40.5230   31.6060   36.2340 H   0  0  0  0  0  0  0  0  0  0  0  0
   42.5100   31.1640   36.7280 C   0  0  0  0  0  0  0  0  0  0  0  0
   43.4550   32.1180   37.3710 C   0  0  0  0  0  0  0  0  0  0  0  0
   43.0110   32.9400   38.2030 H   0  0  0  0  0  0  0  0  0  0  0  0
   45.1090   31.6690   36.6060 S   0  0  0  0  0  0  0  0  0  0  0  0
   44.2440   30.3200   35.5930 C   0  0  0  0  0  0  0  0  0  0  0  0
   44.9590   29.7680   34.9420 H   0  0  0  0  0  0  0  0  0  0  0  0
   43.1530   30.3740   35.8810 N   0  0  0  0  0  0  0  0  0  0  0  0
  1  2  1  0  0  0  0
  1 10  1  0  0  0  0
  2 18  1  0  0  0  0
  3 23  1  0  0  0  0
  3  2  2  0  0  0  0
  4  3  1  0  0  0  0
  5  4  1  0  0  0  0
  6  7  2  0  0  0  0
  6  5  1  0  0  0  0
  7  8  1  0  0  0  0
  8  4  2  0  0  0  0
  8  9  1  0  0  0  0
  9  1  2  0  0  0  0
 11  5  1  0  0  0  0
 12  6  1  0  0  0  0
 13  9  1  0  0  0  0
 14 15  1  0  0  0  0
 14 20  1  0  0  0  0
 15 21  1  0  0  0  0
 16 22  1  0  0  0  0
 16 15  2  0  0  0  0
 17 16  1  0  0  0  0
 18 17  2  0  0  0  0
 18 19  1  0  0  0  0
 19 14  2  0  0  0  0
 24 25  1  0  0  0  0
 25 23  1  0  0  0  0
 25 26  1  0  0  0  0
 25 31  1  1  0  0  0
 26 33  1  0  0  0  0
 27 26  1  0  0  0  0
 28 27  1  0  0  0  0
 28 35  1  0  0  0  0
 29 36  1  6  0  0  0
 29 24  1  0  0  0  0
 29 28  1  0  0  0  0
 30 24  1  0  0  0  0
 32 26  1  0  0  0  0
 34 28  1  0  0  0  0
 37 29  1  0  0  0  0
 37 38  2  0  0  0  0
 38 39  1  0  0  0  0
 40 38  1  0  0  0  0
 41 43  2  0  0  0  0
 41 40  1  0  0  0  0
 42 41  1  0  0  0  0
 43 37  1  0  0  0  0
M  END
>  <minimizedAffinity>
-5.70798492

$$$$

 OpenBabel03252509153D

 43 47  0  0  1  0  0  0  0  0999 V2000
   37.3430   30.6240   37.0810 C   0  0  0  0  0  0  0  0  0  0  0  0
   36.5560   30.0490   38.0830 C   0  0  0  0  0  0  0  0  0  0  0  0
   36.5730   30.4880   39.3960 C   0  0  0  0  0  0  0  0  0  0  0  0
   37.4170   31.5560   39.7420 C   0  0  0  0  0  0  0  0  0  0  0  0
   37.6960   32.2330   40.8750 N   0  0  0  0  0  0  0  0  0  0  0  0
   38.6110   33.1920   40.6250 C   0  0  0  0  0  0  0  0  0  0  0  0
   38.8870   33.0890   39.3170 N   0  0  0  0  0  0  0  0  0  0  0  0
   38.1790   32.1030   38.7430 C   0  0  0  0  0  0  0  0  0  0  0  0
   38.1830   31.6840   37.4210 C   0  0  0  0  0  0  0  0  0  0  0  0
   37.2930   30.2400   36.0590 H   0  0  0  0  0  0  0  0  0  0  0  0
   37.1920   31.9400   41.7490 H   0  0  0  0  0  0  0  0  0  0  0  0
   38.9670   33.8450   41.4000 H   0  0  0  0  0  0  0  0  0  0  0  0
   38.7940   32.1360   36.6580 H   0  0  0  0  0  0  0  0  0  0  0  0
   35.3460   26.6380   37.5250 C   0  0  0  0  0  0  0  0  0  0  0  0
   34.0250   26.8440   37.0860 C   0  0  0  0  0  0  0  0  0  0  0  0
   33.5750   28.1680   36.9920 C   0  0  0  0  0  0  0  0  0  0  0  0
   34.4190   29.1990   37.3220 N   0  0  0  0  0  0  0  0  0  0  0  0
   35.6750   28.9400   37.7370 C   0  0  0  0  0  0  0  0  0  0  0  0
   36.1700   27.6800   37.8490 N   0  0  0  0  0  0  0  0  0  0  0  0
   35.7620   25.6460   37.6230 H   0  0  0  0  0  0  0  0  0  0  0  0
   33.4020   25.9940   36.8390 H   0  0  0  0  0  0  0  0  0  0  0  0
   32.5610   28.3500   36.6560 H   0  0  0  0  0  0  0  0  0  0  0  0
   35.5740   29.7540   40.6510 S   0  0  0  0  0  0  0  0  0  0  0  0
   37.1380   27.6420   40.5900 N   0  0  0  0  0  0  0  0  0  0  0  0
   36.3930   28.4150   41.5510 C   0  0  1  0  0  0  0  0  0  0  0  0
   37.3080   29.0880   42.5690 C   0  0  0  0  0  0  0  0  0  0  0  0
   38.3310   28.2730   43.0080 O   0  0  0  0  0  0  0  0  0  0  0  0
   38.2240   26.9560   42.6720 C   0  0  0  0  0  0  0  0  0  0  0  0
   38.1590   26.8100   41.1860 C   0  0  1  0  0  0  0  0  0  0  0  0
   37.5700   28.3080   39.9110 H   0  0  0  0  0  0  0  0  0  0  0  0
   35.6380   27.7970   42.0900 H   0  0  0  0  0  0  0  0  0  0  0  0
   37.7420   30.0240   42.1260 H   0  0  0  0  0  0  0  0  0  0  0  0
   36.7230   29.2890   43.4760 H   0  0  0  0  0  0  0  0  0  0  0  0
   39.1540   26.4540   43.0050 H   0  0  0  0  0  0  0  0  0  0  0  0
   37.3960   26.4230   43.1930 H   0  0  0  0  0  0  0  0  0  0  0  0
   39.1380   27.0550   40.7410 H   0  0  0  0  0  0  0  0  0  0  0  0
   37.8750   25.3890   40.8710 C   0  0  0  0  0  0  0  0  0  0  0  0
   39.0250   24.4470   40.8040 C   0  0  0  0  0  0  0  0  0  0  0  0
   40.1780   24.8860   41.0150 H   0  0  0  0  0  0  0  0  0  0  0  0
   38.2170   22.8050   40.3900 S   0  0  0  0  0  0  0  0  0  0  0  0
   36.5290   23.6670   40.3840 C   0  0  0  0  0  0  0  0  0  0  0  0
   35.7020   22.9590   40.1540 H   0  0  0  0  0  0  0  0  0  0  0  0
   36.7390   24.7520   40.6230 N   0  0  0  0  0  0  0  0  0  0  0  0
  1  9  2  0  0  0  0
  1  2  1  0  0  0  0
  2  3  2  0  0  0  0
  3  4  1  0  0  0  0
  3 23  1  0  0  0  0
  4  5  1  0  0  0  0
  5 11  1  0  0  0  0
  6  5  1  0  0  0  0
  6 12  1  0  0  0  0
  7  6  2  0  0  0  0
  8  7  1  0  0  0  0
  8  4  2  0  0  0  0
  9  8  1  0  0  0  0
 10  1  1  0  0  0  0
 13  9  1  0  0  0  0
 14 20  1  0  0  0  0
 14 19  1  0  0  0  0
 15 14  2  0  0  0  0
 16 15  1  0  0  0  0
 16 17  2  0  0  0  0
 17 18  1  0  0  0  0
 18 19  2  0  0  0  0
 18  2  1  0  0  0  0
 21 15  1  0  0  0  0
 22 16  1  0  0  0  0
 23 25  1  0  0  0  0
 24 29  1  0  0  0  0
 24 25  1  0  0  0  0
 25 31  1  1  0  0  0
 25 26  1  0  0  0  0
 26 27  1  0  0  0  0
 26 33  1  0  0  0  0
 28 34  1  0  0  0  0
 28 27  1  0  0  0  0
 28 35  1  0  0  0  0
 29 36  1  6  0  0  0
 29 28  1  0  0  0  0
 30 24  1  0  0  0  0
 32 26  1  0  0  0  0
 37 29  1  0  0  0  0
 38 37  2  0  0  0  0
 38 39  1  0  0  0  0
 40 38  1  0  0  0  0
 41 40  1  0  0  0  0
 41 43  2  0  0  0  0
 42 41  1  0  0  0  0
 43 37  1  0  0  0  0
M  END
>  <minimizedAffinity>
-5.69899893

$$$$

 OpenBabel03252509153D

 43 47  0  0  1  0  0  0  0  0999 V2000
   37.7890   30.4690   37.2150 C   0  0  0  0  0  0  0  0  0  0  0  0
   37.6050   30.5320   38.6000 C   0  0  0  0  0  0  0  0  0  0  0  0
   36.4730   30.0420   39.2290 C   0  0  0  0  0  0  0  0  0  0  0  0
   35.4630   29.4580   38.4480 C   0  0  0  0  0  0  0  0  0  0  0  0
   34.2620   28.8940   38.6940 N   0  0  0  0  0  0  0  0  0  0  0  0
   33.6990   28.4880   37.5370 C   0  0  0  0  0  0  0  0  0  0  0  0
   34.5770   28.8160   36.5780 N   0  0  0  0  0  0  0  0  0  0  0  0
   35.6660   29.4080   37.0940 C   0  0  0  0  0  0  0  0  0  0  0  0
   36.7880   29.8900   36.4360 C   0  0  0  0  0  0  0  0  0  0  0  0
   38.7020   30.8700   36.7670 H   0  0  0  0  0  0  0  0  0  0  0  0
   33.9460   28.8480   39.6950 H   0  0  0  0  0  0  0  0  0  0  0  0
   32.7360   28.0110   37.5180 H   0  0  0  0  0  0  0  0  0  0  0  0
   36.9180   29.8360   35.3680 H   0  0  0  0  0  0  0  0  0  0  0  0
   40.5680   30.8770   40.7220 C   0  0  0  0  0  0  0  0  0  0  0  0
   40.6110   32.2610   40.9740 C   0  0  0  0  0  0  0  0  0  0  0  0
   39.6080   33.0530   40.4000 C   0  0  0  0  0  0  0  0  0  0  0  0
   38.6360   32.4670   39.6290 N   0  0  0  0  0  0  0  0  0  0  0  0
   38.6460   31.1350   39.4220 C   0  0  0  0  0  0  0  0  0  0  0  0
   39.5910   30.3130   39.9500 N   0  0  0  0  0  0  0  0  0  0  0  0
   41.3080   30.2040   41.1310 H   0  0  0  0  0  0  0  0  0  0  0  0
   41.4010   32.6710   41.5910 H   0  0  0  0  0  0  0  0  0  0  0  0
   39.6220   34.1210   40.5810 H   0  0  0  0  0  0  0  0  0  0  0  0
   36.2530   30.1260   40.9770 S   0  0  0  0  0  0  0  0  0  0  0  0
   37.5820   27.8600   40.9100 N   0  0  0  0  0  0  0  0  0  0  0  0
   36.8980   28.6910   41.8690 C   0  0  1  0  0  0  0  0  0  0  0  0
   37.8520   29.2420   42.9240 C   0  0  0  0  0  0  0  0  0  0  0  0
   38.7690   28.3130   43.3700 O   0  0  0  0  0  0  0  0  0  0  0  0
   38.5310   27.0210   43.0030 C   0  0  0  0  0  0  0  0  0  0  0  0
   38.4910   26.9110   41.5140 C   0  0  1  0  0  0  0  0  0  0  0  0
   38.1010   28.4870   40.2570 H   0  0  0  0  0  0  0  0  0  0  0  0
   36.0670   28.1470   42.3760 H   0  0  0  0  0  0  0  0  0  0  0  0
   38.3960   30.1330   42.5120 H   0  0  0  0  0  0  0  0  0  0  0  0
   37.2680   29.4870   43.8200 H   0  0  0  0  0  0  0  0  0  0  0  0
   39.3920   26.4160   43.3490 H   0  0  0  0  0  0  0  0  0  0  0  0
   37.6360   26.5720   43.4920 H   0  0  0  0  0  0  0  0  0  0  0  0
   39.5030   27.0570   41.0980 H   0  0  0  0  0  0  0  0  0  0  0  0
   38.0640   25.5350   41.1610 C   0  0  0  0  0  0  0  0  0  0  0  0
   39.1220   24.5060   40.9700 C   0  0  0  0  0  0  0  0  0  0  0  0
   40.3200   24.8380   41.1140 H   0  0  0  0  0  0  0  0  0  0  0  0
   38.1490   22.9570   40.5480 S   0  0  0  0  0  0  0  0  0  0  0  0
   36.5450   23.9560   40.7030 C   0  0  0  0  0  0  0  0  0  0  0  0
   35.6460   23.3300   40.5050 H   0  0  0  0  0  0  0  0  0  0  0  0
   36.8640   25.0060   40.9710 N   0  0  0  0  0  0  0  0  0  0  0  0
  1  2  1  0  0  0  0
  2  3  2  0  0  0  0
  2 18  1  0  0  0  0
  3 23  1  0  0  0  0
  4  5  1  0  0  0  0
  4  3  1  0  0  0  0
  5 11  1  0  0  0  0
  6  5  1  0  0  0  0
  7  8  1  0  0  0  0
  7  6  2  0  0  0  0
  8  4  2  0  0  0  0
  9  8  1  0  0  0  0
  9  1  2  0  0  0  0
 10  1  1  0  0  0  0
 12  6  1  0  0  0  0
 13  9  1  0  0  0  0
 14 15  1  0  0  0  0
 14 20  1  0  0  0  0
 15 21  1  0  0  0  0
 16 22  1  0  0  0  0
 16 15  2  0  0  0  0
 17 16  1  0  0  0  0
 18 17  2  0  0  0  0
 18 19  1  0  0  0  0
 19 14  2  0  0  0  0
 23 25  1  0  0  0  0
 24 29  1  0  0  0  0
 24 25  1  0  0  0  0
 25 31  1  1  0  0  0
 25 26  1  0  0  0  0
 26 27  1  0  0  0  0
 26 33  1  0  0  0  0
 28 34  1  0  0  0  0
 28 27  1  0  0  0  0
 28 35  1  0  0  0  0
 29 36  1  6  0  0  0
 29 28  1  0  0  0  0
 30 24  1  0  0  0  0
 32 26  1  0  0  0  0
 37 29  1  0  0  0  0
 38 39  1  0  0  0  0
 38 37  2  0  0  0  0
 40 41  1  0  0  0  0
 40 38  1  0  0  0  0
 41 43  2  0  0  0  0
 42 41  1  0  0  0  0
 43 37  1  0  0  0  0
M  END
>  <minimizedAffinity>
-5.58681726

$$$$

 OpenBabel03252509153D

 43 47  0  0  1  0  0  0  0  0999 V2000
   36.5960   24.0400   40.9860 C   0  0  0  0  0  0  0  0  0  0  0  0
   37.4160   25.1470   40.7490 C   0  0  0  0  0  0  0  0  0  0  0  0
   37.3490   25.8960   39.5850 C   0  0  0  0  0  0  0  0  0  0  0  0
   36.4200   25.5310   38.5980 C   0  0  0  0  0  0  0  0  0  0  0  0
   36.0760   26.0000   37.3800 N   0  0  0  0  0  0  0  0  0  0  0  0
   35.0910   25.2430   36.8560 C   0  0  0  0  0  0  0  0  0  0  0  0
   34.8380   24.3000   37.7760 N   0  0  0  0  0  0  0  0  0  0  0  0
   35.6280   24.4430   38.8530 C   0  0  0  0  0  0  0  0  0  0  0  0
   35.6730   23.6750   40.0070 C   0  0  0  0  0  0  0  0  0  0  0  0
   36.6890   23.4820   41.9210 H   0  0  0  0  0  0  0  0  0  0  0  0
   36.5920   26.8440   37.0250 H   0  0  0  0  0  0  0  0  0  0  0  0
   34.6750   25.4530   35.8880 H   0  0  0  0  0  0  0  0  0  0  0  0
   35.0350   22.8230   40.1780 H   0  0  0  0  0  0  0  0  0  0  0  0
   40.5000   25.2750   42.7180 C   0  0  0  0  0  0  0  0  0  0  0  0
   40.2150   26.2630   43.6790 C   0  0  0  0  0  0  0  0  0  0  0  0
   38.9540   26.8700   43.6260 C   0  0  0  0  0  0  0  0  0  0  0  0
   38.0550   26.4900   42.6610 N   0  0  0  0  0  0  0  0  0  0  0  0
   38.3850   25.5370   41.7660 C   0  0  0  0  0  0  0  0  0  0  0  0
   39.5900   24.9110   41.7650 N   0  0  0  0  0  0  0  0  0  0  0  0
   41.4510   24.7630   42.6970 H   0  0  0  0  0  0  0  0  0  0  0  0
   40.9610   26.5240   44.4190 H   0  0  0  0  0  0  0  0  0  0  0  0
   38.7130   27.6330   44.3560 H   0  0  0  0  0  0  0  0  0  0  0  0
   38.3890   27.2910   39.2990 S   0  0  0  0  0  0  0  0  0  0  0  0
   38.0590   29.8930   39.1230 N   0  0  0  0  0  0  0  0  0  0  0  0
   37.7870   28.8230   40.0490 C   0  0  1  0  0  0  0  0  0  0  0  0
   36.2890   28.6270   40.2640 C   0  0  0  0  0  0  0  0  0  0  0  0
   35.5940   29.8130   40.3810 O   0  0  0  0  0  0  0  0  0  0  0  0
   36.3560   30.9330   40.5370 C   0  0  0  0  0  0  0  0  0  0  0  0
   37.2840   31.0870   39.3770 C   0  0  1  0  0  0  0  0  0  0  0  0
   37.8660   29.5380   38.1600 H   0  0  0  0  0  0  0  0  0  0  0  0
   38.2790   28.9880   41.0350 H   0  0  0  0  0  0  0  0  0  0  0  0
   35.8610   28.0270   39.4170 H   0  0  0  0  0  0  0  0  0  0  0  0
   36.1430   28.1390   41.2360 H   0  0  0  0  0  0  0  0  0  0  0  0
   35.6700   31.8040   40.5200 H   0  0  0  0  0  0  0  0  0  0  0  0
   36.8810   30.9880   41.5190 H   0  0  0  0  0  0  0  0  0  0  0  0
   36.7140   31.3540   38.4710 H   0  0  0  0  0  0  0  0  0  0  0  0
   38.2060   32.2130   39.6650 C   0  0  0  0  0  0  0  0  0  0  0  0
   39.5340   32.2150   38.9940 C   0  0  0  0  0  0  0  0  0  0  0  0
   39.8200   31.2740   38.2200 H   0  0  0  0  0  0  0  0  0  0  0  0
   40.3410   33.7830   39.6340 S   0  0  0  0  0  0  0  0  0  0  0  0
   38.7840   34.1350   40.6570 C   0  0  0  0  0  0  0  0  0  0  0  0
   38.8760   35.0780   41.2420 H   0  0  0  0  0  0  0  0  0  0  0  0
   38.0780   33.2790   40.4420 N   0  0  0  0  0  0  0  0  0  0  0  0
  1 10  1  0  0  0  0
  2  1  1  0  0  0  0
  2 18  1  0  0  0  0
  3  2  2  0  0  0  0
  4  8  2  0  0  0  0
  4  3  1  0  0  0  0
  5  4  1  0  0  0  0
  6  5  1  0  0  0  0
  6  7  2  0  0  0  0
  7  8  1  0  0  0  0
  8  9  1  0  0  0  0
  9 13  1  0  0  0  0
  9  1  2  0  0  0  0
 11  5  1  0  0  0  0
 12  6  1  0  0  0  0
 14 15  1  0  0  0  0
 15 21  1  0  0  0  0
 16 15  2  0  0  0  0
 16 22  1  0  0  0  0
 17 16  1  0  0  0  0
 18 17  2  0  0  0  0
 19 18  1  0  0  0  0
 19 14  2  0  0  0  0
 20 14  1  0  0  0  0
 23  3  1  0  0  0  0
 23 25  1  0  0  0  0
 24 29  1  0  0  0  0
 24 25  1  0  0  0  0
 25 26  1  0  0  0  0
 25 31  1  1  0  0  0
 26 27  1  0  0  0  0
 26 33  1  0  0  0  0
 27 28  1  0  0  0  0
 28 35  1  0  0  0  0
 29 36  1  6  0  0  0
 29 37  1  0  0  0  0
 29 28  1  0  0  0  0
 30 24  1  0  0  0  0
 32 26  1  0  0  0  0
 34 28  1  0  0  0  0
 37 43  1  0  0  0  0
 38 40  1  0  0  0  0
 38 37  2  0  0  0  0
 39 38  1  0  0  0  0
 40 41  1  0  0  0  0
 41 42  1  0  0  0  0
 43 41  2  0  0  0  0
M  END
>  <minimizedAffinity>
-5.53785992

$$$$

 OpenBabel03252509153D

 43 47  0  0  1  0  0  0  0  0999 V2000
   37.3250   30.8950   36.7890 C   0  0  0  0  0  0  0  0  0  0  0  0
   37.1560   30.8360   38.1750 C   0  0  0  0  0  0  0  0  0  0  0  0
   36.3510   29.8930   38.7930 C   0  0  0  0  0  0  0  0  0  0  0  0
   35.6730   28.9550   37.9980 C   0  0  0  0  0  0  0  0  0  0  0  0
   34.8320   27.9260   38.2300 N   0  0  0  0  0  0  0  0  0  0  0  0
   34.4760   27.3500   37.0640 C   0  0  0  0  0  0  0  0  0  0  0  0
   35.1150   28.0470   36.1130 N   0  0  0  0  0  0  0  0  0  0  0  0
   35.8550   29.0330   36.6420 C   0  0  0  0  0  0  0  0  0  0  0  0
   36.6530   29.9650   35.9960 C   0  0  0  0  0  0  0  0  0  0  0  0
   37.9720   31.6590   36.3500 H   0  0  0  0  0  0  0  0  0  0  0  0
   34.5830   27.7230   39.2310 H   0  0  0  0  0  0  0  0  0  0  0  0
   33.8090   26.5080   37.0340 H   0  0  0  0  0  0  0  0  0  0  0  0
   36.7760   30.0000   34.9260 H   0  0  0  0  0  0  0  0  0  0  0  0
   39.7180   32.3510   40.3060 C   0  0  0  0  0  0  0  0  0  0  0  0
   39.1760   33.6190   40.5920 C   0  0  0  0  0  0  0  0  0  0  0  0
   37.9270   33.9270   40.0370 C   0  0  0  0  0  0  0  0  0  0  0  0
   37.2850   33.0020   39.2510 N   0  0  0  0  0  0  0  0  0  0  0  0
   37.8540   31.8040   39.0120 C   0  0  0  0  0  0  0  0  0  0  0  0
   39.0610   31.4450   39.5200 N   0  0  0  0  0  0  0  0  0  0  0  0
   40.6760   32.0440   40.6980 H   0  0  0  0  0  0  0  0  0  0  0  0
   39.7260   34.3100   41.2180 H   0  0  0  0  0  0  0  0  0  0  0  0
   37.4910   34.8960   40.2430 H   0  0  0  0  0  0  0  0  0  0  0  0
   36.1450   29.8290   40.5440 S   0  0  0  0  0  0  0  0  0  0  0  0
   38.3300   29.4900   41.9650 N   0  0  0  0  0  0  0  0  0  0  0  0
   37.2830   28.6950   41.3750 C   0  0  1  0  0  0  0  0  0  0  0  0
   36.4580   27.9700   42.4350 C   0  0  0  0  0  0  0  0  0  0  0  0
   37.2220   27.4330   43.4500 O   0  0  0  0  0  0  0  0  0  0  0  0
   38.5680   27.4100   43.2300 C   0  0  0  0  0  0  0  0  0  0  0  0
   39.0720   28.7960   42.9940 C   0  0  1  0  0  0  0  0  0  0  0  0
   37.8930   30.3530   42.3580 H   0  0  0  0  0  0  0  0  0  0  0  0
   37.6820   27.9490   40.6500 H   0  0  0  0  0  0  0  0  0  0  0  0
   35.7020   28.6750   42.8720 H   0  0  0  0  0  0  0  0  0  0  0  0
   35.9900   27.0950   41.9660 H   0  0  0  0  0  0  0  0  0  0  0  0
   39.0480   27.0450   44.1590 H   0  0  0  0  0  0  0  0  0  0  0  0
   38.8820   26.6960   42.4330 H   0  0  0  0  0  0  0  0  0  0  0  0
   39.0300   29.3770   43.9310 H   0  0  0  0  0  0  0  0  0  0  0  0
   40.4980   28.7100   42.5930 C   0  0  0  0  0  0  0  0  0  0  0  0
   41.3980   27.8480   43.4060 C   0  0  0  0  0  0  0  0  0  0  0  0
   40.9220   27.2350   44.3870 H   0  0  0  0  0  0  0  0  0  0  0  0
   43.0610   28.0360   42.5570 S   0  0  0  0  0  0  0  0  0  0  0  0
   42.2570   29.2070   41.3010 C   0  0  0  0  0  0  0  0  0  0  0  0
   42.9900   29.5770   40.5490 H   0  0  0  0  0  0  0  0  0  0  0  0
   41.1700   29.2770   41.6020 N   0  0  0  0  0  0  0  0  0  0  0  0
  1  2  1  0  0  0  0
  2  3  2  0  0  0  0
  2 18  1  0  0  0  0
  3 23  1  0  0  0  0
  4  5  1  0  0  0  0
  4  3  1  0  0  0  0
  5 11  1  0  0  0  0
  6  5  1  0  0  0  0
  7  8  1  0  0  0  0
  7  6  2  0  0  0  0
  8  4  2  0  0  0  0
  9  8  1  0  0  0  0
  9  1  2  0  0  0  0
 10  1  1  0  0  0  0
 12  6  1  0  0  0  0
 13  9  1  0  0  0  0
 14 15  1  0  0  0  0
 14 20  1  0  0  0  0
 15 21  1  0  0  0  0
 16 22  1  0  0  0  0
 16 15  2  0  0  0  0
 17 16  1  0  0  0  0
 18 17  2  0  0  0  0
 18 19  1  0  0  0  0
 19 14  2  0  0  0  0
 23 25  1  0  0  0  0
 24 30  1  0  0  0  0
 24 29  1  0  0  0  0
 25 31  1  6  0  0  0
 25 24  1  0  0  0  0
 25 26  1  0  0  0  0
 26 32  1  0  0  0  0
 26 27  1  0  0  0  0
 28 27  1  0  0  0  0
 28 34  1  0  0  0  0
 29 28  1  0  0  0  0
 29 36  1  1  0  0  0
 33 26  1  0  0  0  0
 35 28  1  0  0  0  0
 37 29  1  0  0  0  0
 37 38  2  0  0  0  0
 38 39  1  0  0  0  0
 40 38  1  0  0  0  0
 41 43  2  0  0  0  0
 41 40  1  0  0  0  0
 42 41  1  0  0  0  0
 43 37  1  0  0  0  0
M  END
>  <minimizedAffinity>
-5.39434099

$$$$

 OpenBabel03252509153D

 43 47  0  0  1  0  0  0  0  0999 V2000
   34.8910   28.4140   38.9000 C   0  0  0  0  0  0  0  0  0  0  0  0
   36.2440   28.5990   39.1990 C   0  0  0  0  0  0  0  0  0  0  0  0
   37.1650   29.0470   38.2650 C   0  0  0  0  0  0  0  0  0  0  0  0
   36.7260   29.3280   36.9620 C   0  0  0  0  0  0  0  0  0  0  0  0
   37.3060   29.7640   35.8240 N   0  0  0  0  0  0  0  0  0  0  0  0
   36.3840   29.8580   34.8440 C   0  0  0  0  0  0  0  0  0  0  0  0
   35.2280   29.4690   35.4020 N   0  0  0  0  0  0  0  0  0  0  0  0
   35.3950   29.1390   36.6930 C   0  0  0  0  0  0  0  0  0  0  0  0
   34.4520   28.6920   37.6060 C   0  0  0  0  0  0  0  0  0  0  0  0
   34.2050   28.0590   39.6730 H   0  0  0  0  0  0  0  0  0  0  0  0
   38.3380   29.9620   35.8540 H   0  0  0  0  0  0  0  0  0  0  0  0
   36.6460   30.1900   33.8560 H   0  0  0  0  0  0  0  0  0  0  0  0
   33.4110   28.5540   37.3630 H   0  0  0  0  0  0  0  0  0  0  0  0
   37.5020   26.7600   42.1040 C   0  0  0  0  0  0  0  0  0  0  0  0
   37.5960   27.7610   43.0890 C   0  0  0  0  0  0  0  0  0  0  0  0
   37.2200   29.0610   42.7270 C   0  0  0  0  0  0  0  0  0  0  0  0
   36.7810   29.3120   41.4510 N   0  0  0  0  0  0  0  0  0  0  0  0
   36.7130   28.3120   40.5480 C   0  0  0  0  0  0  0  0  0  0  0  0
   37.0620   27.0320   40.8380 N   0  0  0  0  0  0  0  0  0  0  0  0
   37.7740   25.7350   42.3100 H   0  0  0  0  0  0  0  0  0  0  0  0
   37.9490   27.5070   44.0810 H   0  0  0  0  0  0  0  0  0  0  0  0
   37.2840   29.8470   43.4690 H   0  0  0  0  0  0  0  0  0  0  0  0
   38.8700   29.2770   38.6550 S   0  0  0  0  0  0  0  0  0  0  0  0
   40.3500   31.4480   38.6610 N   0  0  0  0  0  0  0  0  0  0  0  0
   39.2440   30.8850   39.3930 C   0  0  1  0  0  0  0  0  0  0  0  0
   37.9790   31.7250   39.2410 C   0  0  0  0  0  0  0  0  0  0  0  0
   38.2120   33.0820   39.3110 O   0  0  0  0  0  0  0  0  0  0  0  0
   39.4520   33.4490   39.7440 C   0  0  0  0  0  0  0  0  0  0  0  0
   40.4990   32.8750   38.8460 C   0  0  1  0  0  0  0  0  0  0  0  0
   40.2080   31.2310   37.6500 H   0  0  0  0  0  0  0  0  0  0  0  0
   39.4760   30.7670   40.4770 H   0  0  0  0  0  0  0  0  0  0  0  0
   37.4800   31.4820   38.2650 H   0  0  0  0  0  0  0  0  0  0  0  0
   37.3290   31.5240   40.1020 H   0  0  0  0  0  0  0  0  0  0  0  0
   39.5200   34.5510   39.6550 H   0  0  0  0  0  0  0  0  0  0  0  0
   39.6380   33.2260   40.8200 H   0  0  0  0  0  0  0  0  0  0  0  0
   40.4700   33.3770   37.8640 H   0  0  0  0  0  0  0  0  0  0  0  0
   41.8270   33.1530   39.4440 C   0  0  0  0  0  0  0  0  0  0  0  0
   41.9410   33.1310   40.9270 C   0  0  0  0  0  0  0  0  0  0  0  0
   40.9210   32.8810   41.6070 H   0  0  0  0  0  0  0  0  0  0  0  0
   43.7510   33.5250   41.2290 S   0  0  0  0  0  0  0  0  0  0  0  0
   44.0100   33.6420   39.3550 C   0  0  0  0  0  0  0  0  0  0  0  0
   45.0650   33.8860   39.0960 H   0  0  0  0  0  0  0  0  0  0  0  0
   43.0000   33.4310   38.8930 N   0  0  0  0  0  0  0  0  0  0  0  0
  1  2  1  0  0  0  0
  1 10  1  0  0  0  0
  2 18  1  0  0  0  0
  3 23  1  0  0  0  0
  3  2  2  0  0  0  0
  4  3  1  0  0  0  0
  5 11  1  0  0  0  0
  5  4  1  0  0  0  0
  6  7  2  0  0  0  0
  6  5  1  0  0  0  0
  7  8  1  0  0  0  0
  8  4  2  0  0  0  0
  8  9  1  0  0  0  0
  9  1  2  0  0  0  0
 12  6  1  0  0  0  0
 13  9  1  0  0  0  0
 14 20  1  0  0  0  0
 14 15  1  0  0  0  0
 15 21  1  0  0  0  0
 16 15  2  0  0  0  0
 16 22  1  0  0  0  0
 17 16  1  0  0  0  0
 18 19  1  0  0  0  0
 18 17  2  0  0  0  0
 19 14  2  0  0  0  0
 23 25  1  0  0  0  0
 24 29  1  0  0  0  0
 24 25  1  0  0  0  0
 25 31  1  1  0  0  0
 26 27  1  0  0  0  0
 26 25  1  0  0  0  0
 26 33  1  0  0  0  0
 27 28  1  0  0  0  0
 28 35  1  0  0  0  0
 29 36  1  6  0  0  0
 29 37  1  0  0  0  0
 29 28  1  0  0  0  0
 30 24  1  0  0  0  0
 32 26  1  0  0  0  0
 34 28  1  0  0  0  0
 37 38  2  0  0  0  0
 38 40  1  0  0  0  0
 38 39  1  0  0  0  0
 41 40  1  0  0  0  0
 42 41  1  0  0  0  0
 43 41  2  0  0  0  0
 43 37  1  0  0  0  0
M  END
>  <minimizedAffinity>
-5.36108971

$$$$

 OpenBabel03252509153D

 43 47  0  0  1  0  0  0  0  0999 V2000
   36.5110   26.1170   39.3980 C   0  0  0  0  0  0  0  0  0  0  0  0
   36.5150   27.3500   40.0570 C   0  0  0  0  0  0  0  0  0  0  0  0
   35.8550   28.4650   39.5680 C   0  0  0  0  0  0  0  0  0  0  0  0
   35.1520   28.3590   38.3570 C   0  0  0  0  0  0  0  0  0  0  0  0
   34.4170   29.1950   37.5950 N   0  0  0  0  0  0  0  0  0  0  0  0
   33.9620   28.5450   36.5040 C   0  0  0  0  0  0  0  0  0  0  0  0
   34.4330   27.2940   36.6130 N   0  0  0  0  0  0  0  0  0  0  0  0
   35.1630   27.1410   37.7300 C   0  0  0  0  0  0  0  0  0  0  0  0
   35.8140   26.0080   38.1950 C   0  0  0  0  0  0  0  0  0  0  0  0
   37.0480   25.2670   39.8270 H   0  0  0  0  0  0  0  0  0  0  0  0
   34.3040   30.1840   37.9340 H   0  0  0  0  0  0  0  0  0  0  0  0
   33.3540   29.0380   35.7690 H   0  0  0  0  0  0  0  0  0  0  0  0
   35.8030   25.0630   37.6780 H   0  0  0  0  0  0  0  0  0  0  0  0
   39.2790   27.6590   42.4380 C   0  0  0  0  0  0  0  0  0  0  0  0
   38.6180   27.7050   43.6790 C   0  0  0  0  0  0  0  0  0  0  0  0
   37.2180   27.6290   43.6680 C   0  0  0  0  0  0  0  0  0  0  0  0
   36.5530   27.5120   42.4740 N   0  0  0  0  0  0  0  0  0  0  0  0
   37.2410   27.4740   41.3150 C   0  0  0  0  0  0  0  0  0  0  0  0
   38.5960   27.5430   41.2590 N   0  0  0  0  0  0  0  0  0  0  0  0
   40.3560   27.7130   42.3680 H   0  0  0  0  0  0  0  0  0  0  0  0
   39.1930   27.7980   44.5920 H   0  0  0  0  0  0  0  0  0  0  0  0
   36.6890   27.6620   44.6120 H   0  0  0  0  0  0  0  0  0  0  0  0
   35.8670   30.0150   40.4100 S   0  0  0  0  0  0  0  0  0  0  0  0
   38.4670   30.3510   40.2250 N   0  0  0  0  0  0  0  0  0  0  0  0
   37.2550   31.0840   39.9600 C   0  0  1  0  0  0  0  0  0  0  0  0
   37.0910   31.3870   38.4730 C   0  0  0  0  0  0  0  0  0  0  0  0
   38.2630   31.7800   37.8620 O   0  0  0  0  0  0  0  0  0  0  0  0
   39.2980   32.0740   38.7000 C   0  0  0  0  0  0  0  0  0  0  0  0
   39.6260   30.8870   39.5460 C   0  0  1  0  0  0  0  0  0  0  0  0
   38.3100   29.3600   39.9380 H   0  0  0  0  0  0  0  0  0  0  0  0
   37.2090   32.0380   40.5350 H   0  0  0  0  0  0  0  0  0  0  0  0
   36.6820   30.4840   37.9470 H   0  0  0  0  0  0  0  0  0  0  0  0
   36.4350   32.2610   38.3730 H   0  0  0  0  0  0  0  0  0  0  0  0
   40.1860   32.2770   38.0700 H   0  0  0  0  0  0  0  0  0  0  0  0
   39.1430   33.0000   39.3010 H   0  0  0  0  0  0  0  0  0  0  0  0
   40.0850   30.0980   38.9260 H   0  0  0  0  0  0  0  0  0  0  0  0
   40.6350   31.2970   40.5530 C   0  0  0  0  0  0  0  0  0  0  0  0
   41.6410   32.3180   40.1530 C   0  0  0  0  0  0  0  0  0  0  0  0
   41.5990   32.7860   38.9940 H   0  0  0  0  0  0  0  0  0  0  0  0
   42.6850   32.5250   41.6990 S   0  0  0  0  0  0  0  0  0  0  0  0
   41.6030   31.2360   42.5700 C   0  0  0  0  0  0  0  0  0  0  0  0
   41.9320   31.0570   43.6190 H   0  0  0  0  0  0  0  0  0  0  0  0
   40.8320   30.9180   41.8070 N   0  0  0  0  0  0  0  0  0  0  0  0
  1 10  1  0  0  0  0
  1  2  1  0  0  0  0
  2 18  1  0  0  0  0
  3  2  2  0  0  0  0
  3 23  1  0  0  0  0
  4  3  1  0  0  0  0
  5 11  1  0  0  0  0
  5  4  1  0  0  0  0
  6  7  2  0  0  0  0
  6  5  1  0  0  0  0
  7  8  1  0  0  0  0
  8  9  1  0  0  0  0
  8  4  2  0  0  0  0
  9  1  2  0  0  0  0
 12  6  1  0  0  0  0
 13  9  1  0  0  0  0
 14 15  1  0  0  0  0
 15 21  1  0  0  0  0
 16 15  2  0  0  0  0
 16 22  1  0  0  0  0
 17 16  1  0  0  0  0
 18 17  2  0  0  0  0
 19 18  1  0  0  0  0
 19 14  2  0  0  0  0
 20 14  1  0  0  0  0
 25 24  1  0  0  0  0
 25 23  1  0  0  0  0
 25 31  1  1  0  0  0
 26 25  1  0  0  0  0
 27 26  1  0  0  0  0
 27 28  1  0  0  0  0
 28 35  1  0  0  0  0
 28 29  1  0  0  0  0
 29 36  1  6  0  0  0
 29 24  1  0  0  0  0
 29 37  1  0  0  0  0
 30 24  1  0  0  0  0
 32 26  1  0  0  0  0
 33 26  1  0  0  0  0
 34 28  1  0  0  0  0
 37 43  1  0  0  0  0
 38 37  2  0  0  0  0
 38 40  1  0  0  0  0
 39 38  1  0  0  0  0
 40 41  1  0  0  0  0
 41 42  1  0  0  0  0
 43 41  2  0  0  0  0
M  END
>  <minimizedAffinity>
-5.31198454

$$$$

 OpenBabel03252509153D

 43 47  0  0  1  0  0  0  0  0999 V2000
   37.0090   25.8100   41.5420 C   0  0  0  0  0  0  0  0  0  0  0  0
   37.3760   26.7930   40.6190 C   0  0  0  0  0  0  0  0  0  0  0  0
   38.6950   27.1340   40.3700 C   0  0  0  0  0  0  0  0  0  0  0  0
   39.7110   26.4680   41.0730 C   0  0  0  0  0  0  0  0  0  0  0  0
   41.0590   26.5250   41.1000 N   0  0  0  0  0  0  0  0  0  0  0  0
   41.5400   25.6310   41.9880 C   0  0  0  0  0  0  0  0  0  0  0  0
   40.4610   25.0260   42.5050 N   0  0  0  0  0  0  0  0  0  0  0  0
   39.3270   25.5080   41.9720 C   0  0  0  0  0  0  0  0  0  0  0  0
   38.0160   25.1460   42.2420 C   0  0  0  0  0  0  0  0  0  0  0  0
   35.9530   25.5780   41.7020 H   0  0  0  0  0  0  0  0  0  0  0  0
   41.5260   27.2170   40.4610 H   0  0  0  0  0  0  0  0  0  0  0  0
   42.5950   25.5200   42.1580 H   0  0  0  0  0  0  0  0  0  0  0  0
   37.7460   24.3860   42.9570 H   0  0  0  0  0  0  0  0  0  0  0  0
   34.7450   29.2040   39.8000 C   0  0  0  0  0  0  0  0  0  0  0  0
   34.3590   28.8150   38.5030 C   0  0  0  0  0  0  0  0  0  0  0  0
   35.0220   27.7200   37.9340 C   0  0  0  0  0  0  0  0  0  0  0  0
   36.0030   27.0740   38.6430 N   0  0  0  0  0  0  0  0  0  0  0  0
   36.3310   27.4920   39.8820 C   0  0  0  0  0  0  0  0  0  0  0  0
   35.7260   28.5470   40.4890 N   0  0  0  0  0  0  0  0  0  0  0  0
   34.2800   30.0390   40.3030 H   0  0  0  0  0  0  0  0  0  0  0  0
   33.5780   29.3600   37.9880 H   0  0  0  0  0  0  0  0  0  0  0  0
   34.7400   27.4030   36.9370 H   0  0  0  0  0  0  0  0  0  0  0  0
   39.1450   28.3770   39.2020 S   0  0  0  0  0  0  0  0  0  0  0  0
   39.8130   30.9050   38.9370 N   0  0  0  0  0  0  0  0  0  0  0  0
   39.8130   29.8820   39.9510 C   0  0  1  0  0  0  0  0  0  0  0  0
   38.8780   30.2290   41.1060 C   0  0  0  0  0  0  0  0  0  0  0  0
   38.9470   31.5540   41.4860 O   0  0  0  0  0  0  0  0  0  0  0  0
   39.9840   32.2670   40.9620 C   0  0  0  0  0  0  0  0  0  0  0  0
   39.9190   32.2460   39.4690 C   0  0  1  0  0  0  0  0  0  0  0  0
   38.9320   30.8080   38.3850 H   0  0  0  0  0  0  0  0  0  0  0  0
   40.8350   29.6910   40.3530 H   0  0  0  0  0  0  0  0  0  0  0  0
   37.8210   29.9760   40.8260 H   0  0  0  0  0  0  0  0  0  0  0  0
   39.2160   29.6820   41.9960 H   0  0  0  0  0  0  0  0  0  0  0  0
   39.8520   33.3210   41.2760 H   0  0  0  0  0  0  0  0  0  0  0  0
   40.9830   31.9640   41.3530 H   0  0  0  0  0  0  0  0  0  0  0  0
   39.0620   32.8470   39.1210 H   0  0  0  0  0  0  0  0  0  0  0  0
   41.1490   32.8840   38.9410 C   0  0  0  0  0  0  0  0  0  0  0  0
   42.2780   33.1050   39.8840 C   0  0  0  0  0  0  0  0  0  0  0  0
   42.1480   32.7480   41.0760 H   0  0  0  0  0  0  0  0  0  0  0  0
   43.5880   33.9140   38.8100 S   0  0  0  0  0  0  0  0  0  0  0  0
   42.4050   33.8060   37.3330 C   0  0  0  0  0  0  0  0  0  0  0  0
   42.8570   34.2270   36.4070 H   0  0  0  0  0  0  0  0  0  0  0  0
   41.4640   33.3210   37.7300 N   0  0  0  0  0  0  0  0  0  0  0  0
  1 10  1  0  0  0  0
  1  9  1  0  0  0  0
  2  1  2  0  0  0  0
  3  2  1  0  0  0  0
  3  4  2  0  0  0  0
  4  5  1  0  0  0  0
  4  8  1  0  0  0  0
  5  6  1  0  0  0  0
  6 12  1  0  0  0  0
  6  7  2  0  0  0  0
  8  9  2  0  0  0  0
  8  7  1  0  0  0  0
  9 13  1  0  0  0  0
 11  5  1  0  0  0  0
 14 20  1  0  0  0  0
 14 19  1  0  0  0  0
 15 14  2  0  0  0  0
 16 15  1  0  0  0  0
 16 17  2  0  0  0  0
 17 18  1  0  0  0  0
 18 19  2  0  0  0  0
 18  2  1  0  0  0  0
 21 15  1  0  0  0  0
 22 16  1  0  0  0  0
 23 25  1  0  0  0  0
 23  3  1  0  0  0  0
 24 29  1  0  0  0  0
 24 25  1  0  0  0  0
 25 31  1  1  0  0  0
 25 26  1  0  0  0  0
 26 27  1  0  0  0  0
 26 33  1  0  0  0  0
 28 34  1  0  0  0  0
 28 35  1  0  0  0  0
 28 27  1  0  0  0  0
 29 36  1  6  0  0  0
 29 28  1  0  0  0  0
 30 24  1  0  0  0  0
 32 26  1  0  0  0  0
 37 29  1  0  0  0  0
 37 38  2  0  0  0  0
 38 39  1  0  0  0  0
 40 38  1  0  0  0  0
 41 43  2  0  0  0  0
 41 40  1  0  0  0  0
 42 41  1  0  0  0  0
 43 37  1  0  0  0  0
M  END
>  <minimizedAffinity>
-5.22394991

$$$$

 OpenBabel03252509153D

 43 47  0  0  1  0  0  0  0  0999 V2000
   37.0800   30.4520   36.8340 C   0  0  0  0  0  0  0  0  0  0  0  0
   36.5320   29.7020   37.8790 C   0  0  0  0  0  0  0  0  0  0  0  0
   36.4790   30.1610   39.1850 C   0  0  0  0  0  0  0  0  0  0  0  0
   36.9980   31.4320   39.4780 C   0  0  0  0  0  0  0  0  0  0  0  0
   37.1200   32.1890   40.5880 N   0  0  0  0  0  0  0  0  0  0  0  0
   37.7120   33.3620   40.2830 C   0  0  0  0  0  0  0  0  0  0  0  0
   37.9510   33.3090   38.9640 N   0  0  0  0  0  0  0  0  0  0  0  0
   37.5290   32.1480   38.4370 C   0  0  0  0  0  0  0  0  0  0  0  0
   37.5960   31.7150   37.1210 C   0  0  0  0  0  0  0  0  0  0  0  0
   37.0970   30.0440   35.8210 H   0  0  0  0  0  0  0  0  0  0  0  0
   36.7580   31.7870   41.4890 H   0  0  0  0  0  0  0  0  0  0  0  0
   37.9010   34.1080   41.0330 H   0  0  0  0  0  0  0  0  0  0  0  0
   38.0210   32.3030   36.3240 H   0  0  0  0  0  0  0  0  0  0  0  0
   36.3250   26.0770   37.4080 C   0  0  0  0  0  0  0  0  0  0  0  0
   34.9790   25.8870   37.0430 C   0  0  0  0  0  0  0  0  0  0  0  0
   34.1640   27.0240   36.9670 C   0  0  0  0  0  0  0  0  0  0  0  0
   34.6920   28.2600   37.2440 N   0  0  0  0  0  0  0  0  0  0  0  0
   35.9900   28.3800   37.5890 C   0  0  0  0  0  0  0  0  0  0  0  0
   36.8310   27.3180   37.6800 N   0  0  0  0  0  0  0  0  0  0  0  0
   37.0130   25.2480   37.4870 H   0  0  0  0  0  0  0  0  0  0  0  0
   34.6140   24.8890   36.8350 H   0  0  0  0  0  0  0  0  0  0  0  0
   33.1240   26.9010   36.6880 H   0  0  0  0  0  0  0  0  0  0  0  0
   35.7850   29.2050   40.4950 S   0  0  0  0  0  0  0  0  0  0  0  0
   38.0360   29.1720   41.8510 N   0  0  0  0  0  0  0  0  0  0  0  0
   37.0030   28.2560   41.4370 C   0  0  1  0  0  0  0  0  0  0  0  0
   36.2530   27.6720   42.6300 C   0  0  0  0  0  0  0  0  0  0  0  0
   37.0790   27.3260   43.6800 O   0  0  0  0  0  0  0  0  0  0  0  0
   38.4150   27.3210   43.4050 C   0  0  0  0  0  0  0  0  0  0  0  0
   38.8470   28.6740   42.9400 C   0  0  1  0  0  0  0  0  0  0  0  0
   37.5760   30.0680   42.1280 H   0  0  0  0  0  0  0  0  0  0  0  0
   37.4070   27.4240   40.8160 H   0  0  0  0  0  0  0  0  0  0  0  0
   35.4840   28.4060   42.9890 H   0  0  0  0  0  0  0  0  0  0  0  0
   35.8070   26.7180   42.3210 H   0  0  0  0  0  0  0  0  0  0  0  0
   38.9470   27.1220   44.3570 H   0  0  0  0  0  0  0  0  0  0  0  0
   38.7300   26.5070   42.7130 H   0  0  0  0  0  0  0  0  0  0  0  0
   38.8150   29.3890   43.7790 H   0  0  0  0  0  0  0  0  0  0  0  0
   40.2590   28.5820   42.4930 C   0  0  0  0  0  0  0  0  0  0  0  0
   40.6070   27.5320   41.4990 C   0  0  0  0  0  0  0  0  0  0  0  0
   39.7040   26.7730   41.0810 H   0  0  0  0  0  0  0  0  0  0  0  0
   42.4480   27.7810   41.2320 S   0  0  0  0  0  0  0  0  0  0  0  0
   42.4070   29.2130   42.4740 C   0  0  0  0  0  0  0  0  0  0  0  0
   43.4110   29.6740   42.6090 H   0  0  0  0  0  0  0  0  0  0  0  0
   41.3330   29.2870   42.8190 N   0  0  0  0  0  0  0  0  0  0  0  0
  1  9  2  0  0  0  0
  1  2  1  0  0  0  0
  2  3  2  0  0  0  0
  3  4  1  0  0  0  0
  3 23  1  0  0  0  0
  4  5  1  0  0  0  0
  5 11  1  0  0  0  0
  6  5  1  0  0  0  0
  6 12  1  0  0  0  0
  7  6  2  0  0  0  0
  8  7  1  0  0  0  0
  8  4  2  0  0  0  0
  9  8  1  0  0  0  0
 10  1  1  0  0  0  0
 13  9  1  0  0  0  0
 14 20  1  0  0  0  0
 14 19  1  0  0  0  0
 15 14  2  0  0  0  0
 16 15  1  0  0  0  0
 16 17  2  0  0  0  0
 17 18  1  0  0  0  0
 18 19  2  0  0  0  0
 18  2  1  0  0  0  0
 21 15  1  0  0  0  0
 22 16  1  0  0  0  0
 23 25  1  0  0  0  0
 24 30  1  0  0  0  0
 24 29  1  0  0  0  0
 25 31  1  6  0  0  0
 25 24  1  0  0  0  0
 25 26  1  0  0  0  0
 26 32  1  0  0  0  0
 26 27  1  0  0  0  0
 28 27  1  0  0  0  0
 28 34  1  0  0  0  0
 29 28  1  0  0  0  0
 29 36  1  1  0  0  0
 33 26  1  0  0  0  0
 35 28  1  0  0  0  0
 37 43  1  0  0  0  0
 37 29  1  0  0  0  0
 38 37  2  0  0  0  0
 39 38  1  0  0  0  0
 40 38  1  0  0  0  0
 40 41  1  0  0  0  0
 41 42  1  0  0  0  0
 41 43  2  0  0  0  0
M  END
>  <minimizedAffinity>
-5.22051573

$$$$
