
 OpenBabel03252507443D

 29 31  0  0  0  0  0  0  0  0999 V2000
   36.5410   27.8250   42.6370 C   0  0  0  0  0  0  0  0  0  0  0  0
   35.4870   27.7510   43.0180 H   0  0  0  0  0  0  0  0  0  0  0  0
   37.1290   28.2190   43.5030 H   0  0  0  0  0  0  0  0  0  0  0  0
   36.6190   28.7780   41.5050 C   0  0  0  0  0  0  0  0  0  0  0  0
   35.8280   28.5920   40.3300 C   0  0  0  0  0  0  0  0  0  0  0  0
   36.3310   30.0500   39.2900 S   0  0  0  0  0  0  0  0  0  0  0  0
   37.5150   30.6400   40.6340 C   0  0  0  0  0  0  0  0  0  0  0  0
   37.3760   29.8440   41.4460 N   0  0  0  0  0  0  0  0  0  0  0  0
   35.1330   27.8020   40.1340 H   0  0  0  0  0  0  0  0  0  0  0  0
   38.3430   31.8670   40.4870 C   0  0  0  0  0  0  0  0  0  0  0  0
   39.7190   31.7820   40.5700 C   0  0  0  0  0  0  0  0  0  0  0  0
   40.3040   30.8090   40.7490 H   0  0  0  0  0  0  0  0  0  0  0  0
   40.2390   33.5210   40.3300 S   0  0  0  0  0  0  0  0  0  0  0  0
   38.4350   34.0780   40.1530 C   0  0  0  0  0  0  0  0  0  0  0  0
   38.0530   35.1080   39.9760 H   0  0  0  0  0  0  0  0  0  0  0  0
   37.8670   33.0790   40.2770 N   0  0  0  0  0  0  0  0  0  0  0  0
   37.0290   26.4470   42.3390 C   0  0  0  0  0  0  0  0  0  0  0  0
   36.9740   26.3430   41.2150 H   0  0  0  0  0  0  0  0  0  0  0  0
   36.3800   25.6730   42.7290 H   0  0  0  0  0  0  0  0  0  0  0  0
   38.4500   26.2190   42.6860 C   0  0  0  0  0  0  0  0  0  0  0  0
   39.0330   25.0360   42.2310 C   0  0  0  0  0  0  0  0  0  0  0  0
   40.3550   24.7570   42.5170 C   0  0  0  0  0  0  0  0  0  0  0  0
   41.0510   25.6810   43.2560 N   0  0  0  0  0  0  0  0  0  0  0  0
   40.4570   26.8140   43.6800 C   0  0  0  0  0  0  0  0  0  0  0  0
   39.1800   27.0710   43.3960 N   0  0  0  0  0  0  0  0  0  0  0  0
   40.7800   23.8290   42.1490 H   0  0  0  0  0  0  0  0  0  0  0  0
   41.1130   27.4680   44.2560 H   0  0  0  0  0  0  0  0  0  0  0  0
   38.0720   23.8590   41.2640 S   0  0  0  0  0  0  0  0  0  0  0  0
   37.2660   23.1240   42.1420 H   0  0  0  0  0  0  0  0  0  0  0  0
  1  2  1  0  0  0  0
  1  3  1  0  0  0  0
  4  1  1  0  0  0  0
  5  4  2  0  0  0  0
  6  5  1  0  0  0  0
  6  7  1  0  0  0  0
  7  8  2  0  0  0  0
  8  4  1  0  0  0  0
  9  5  1  0  0  0  0
 10 11  2  0  0  0  0
 10  7  1  0  0  0  0
 11 12  1  0  0  0  0
 13 11  1  0  0  0  0
 14 16  2  0  0  0  0
 14 13  1  0  0  0  0
 15 14  1  0  0  0  0
 16 10  1  0  0  0  0
 17  1  1  0  0  0  0
 17 20  1  0  0  0  0
 17 19  1  0  0  0  0
 18 17  1  0  0  0  0
 20 25  1  0  0  0  0
 21 22  1  0  0  0  0
 21 20  2  0  0  0  0
 22 23  2  0  0  0  0
 23 24  1  0  0  0  0
 24 27  1  0  0  0  0
 25 24  2  0  0  0  0
 26 22  1  0  0  0  0
 28 29  1  0  0  0  0
 28 21  1  0  0  0  0
M  END
>  <minimizedAffinity>
-4.63316536

$$$$

 OpenBabel03252507443D

 29 31  0  0  0  0  0  0  0  0999 V2000
   37.6160   28.5640   43.6790 C   0  0  0  0  0  0  0  0  0  0  0  0
   36.8520   29.3620   43.8830 H   0  0  0  0  0  0  0  0  0  0  0  0
   37.9540   28.2280   44.6900 H   0  0  0  0  0  0  0  0  0  0  0  0
   38.7650   29.1240   42.9290 C   0  0  0  0  0  0  0  0  0  0  0  0
   39.9710   28.3760   42.7620 C   0  0  0  0  0  0  0  0  0  0  0  0
   41.0200   29.5500   41.7690 S   0  0  0  0  0  0  0  0  0  0  0  0
   39.6360   30.8310   41.7640 C   0  0  0  0  0  0  0  0  0  0  0  0
   38.8130   30.3020   42.3610 N   0  0  0  0  0  0  0  0  0  0  0  0
   40.1810   27.3930   43.1280 H   0  0  0  0  0  0  0  0  0  0  0  0
   39.7720   32.1520   41.0930 C   0  0  0  0  0  0  0  0  0  0  0  0
   40.9500   32.4790   40.4510 C   0  0  0  0  0  0  0  0  0  0  0  0
   41.8710   31.7940   40.3870 H   0  0  0  0  0  0  0  0  0  0  0  0
   40.6020   34.1590   39.8140 S   0  0  0  0  0  0  0  0  0  0  0  0
   38.8570   34.1220   40.5570 C   0  0  0  0  0  0  0  0  0  0  0  0
   38.0790   34.9170   40.5100 H   0  0  0  0  0  0  0  0  0  0  0  0
   38.8340   33.0780   41.0520 N   0  0  0  0  0  0  0  0  0  0  0  0
   36.9290   27.4160   43.0190 C   0  0  0  0  0  0  0  0  0  0  0  0
   35.9780   27.2530   43.6070 H   0  0  0  0  0  0  0  0  0  0  0  0
   37.4790   26.4870   43.1020 H   0  0  0  0  0  0  0  0  0  0  0  0
   36.4910   27.6890   41.6310 C   0  0  0  0  0  0  0  0  0  0  0  0
   36.9250   26.8050   40.6430 C   0  0  0  0  0  0  0  0  0  0  0  0
   36.5560   26.9980   39.3260 C   0  0  0  0  0  0  0  0  0  0  0  0
   35.7580   28.0790   39.0450 N   0  0  0  0  0  0  0  0  0  0  0  0
   35.3560   28.9140   40.0240 C   0  0  0  0  0  0  0  0  0  0  0  0
   35.7200   28.7150   41.2910 N   0  0  0  0  0  0  0  0  0  0  0  0
   36.9090   26.2940   38.5810 H   0  0  0  0  0  0  0  0  0  0  0  0
   34.7270   29.7330   39.6760 H   0  0  0  0  0  0  0  0  0  0  0  0
   37.9710   25.4030   41.0700 S   0  0  0  0  0  0  0  0  0  0  0  0
   39.2820   25.8650   41.2310 H   0  0  0  0  0  0  0  0  0  0  0  0
  1  2  1  0  0  0  0
  1  3  1  0  0  0  0
  4  1  1  0  0  0  0
  5  4  2  0  0  0  0
  5  9  1  0  0  0  0
  6  5  1  0  0  0  0
  7  6  1  0  0  0  0
  7  8  2  0  0  0  0
  8  4  1  0  0  0  0
 10  7  1  0  0  0  0
 11 10  2  0  0  0  0
 12 11  1  0  0  0  0
 13 11  1  0  0  0  0
 13 14  1  0  0  0  0
 14 16  2  0  0  0  0
 15 14  1  0  0  0  0
 16 10  1  0  0  0  0
 17 19  1  0  0  0  0
 17 18  1  0  0  0  0
 17  1  1  0  0  0  0
 20 17  1  0  0  0  0
 21 28  1  0  0  0  0
 21 20  2  0  0  0  0
 22 21  1  0  0  0  0
 23 22  2  0  0  0  0
 23 24  1  0  0  0  0
 24 25  2  0  0  0  0
 25 20  1  0  0  0  0
 26 22  1  0  0  0  0
 27 24  1  0  0  0  0
 28 29  1  0  0  0  0
M  END
>  <minimizedAffinity>
-4.62167931

$$$$

 OpenBabel03252507443D

 29 31  0  0  0  0  0  0  0  0999 V2000
   37.8380   27.7130   43.6800 C   0  0  0  0  0  0  0  0  0  0  0  0
   37.3870   28.2060   44.5830 H   0  0  0  0  0  0  0  0  0  0  0  0
   38.4540   26.8760   44.0900 H   0  0  0  0  0  0  0  0  0  0  0  0
   38.7100   28.6650   42.9500 C   0  0  0  0  0  0  0  0  0  0  0  0
   40.1220   28.4590   42.8740 C   0  0  0  0  0  0  0  0  0  0  0  0
   40.6710   29.9240   41.8670 S   0  0  0  0  0  0  0  0  0  0  0  0
   38.8940   30.5410   41.7370 C   0  0  0  0  0  0  0  0  0  0  0  0
   38.3170   29.7450   42.3250 N   0  0  0  0  0  0  0  0  0  0  0  0
   40.6840   27.6550   43.2990 H   0  0  0  0  0  0  0  0  0  0  0  0
   38.5310   31.7830   41.0040 C   0  0  0  0  0  0  0  0  0  0  0  0
   37.3660   31.8300   40.2630 C   0  0  0  0  0  0  0  0  0  0  0  0
   36.6230   30.9600   40.1590 H   0  0  0  0  0  0  0  0  0  0  0  0
   37.3950   33.5300   39.5850 S   0  0  0  0  0  0  0  0  0  0  0  0
   39.0400   33.8920   40.4560 C   0  0  0  0  0  0  0  0  0  0  0  0
   39.6300   34.8370   40.4350 H   0  0  0  0  0  0  0  0  0  0  0  0
   39.2470   32.8910   40.9940 N   0  0  0  0  0  0  0  0  0  0  0  0
   36.7340   27.1190   42.8710 C   0  0  0  0  0  0  0  0  0  0  0  0
   36.3590   27.9550   42.2100 H   0  0  0  0  0  0  0  0  0  0  0  0
   35.8820   26.8230   43.4700 H   0  0  0  0  0  0  0  0  0  0  0  0
   37.1710   26.0500   41.9440 C   0  0  0  0  0  0  0  0  0  0  0  0
   37.0140   26.2920   40.5790 C   0  0  0  0  0  0  0  0  0  0  0  0
   37.4000   25.3390   39.6550 C   0  0  0  0  0  0  0  0  0  0  0  0
   37.9320   24.1700   40.1380 N   0  0  0  0  0  0  0  0  0  0  0  0
   38.0700   23.9690   41.4640 C   0  0  0  0  0  0  0  0  0  0  0  0
   37.6930   24.8970   42.3440 N   0  0  0  0  0  0  0  0  0  0  0  0
   37.2660   25.5560   38.6010 H   0  0  0  0  0  0  0  0  0  0  0  0
   38.5050   23.0030   41.7220 H   0  0  0  0  0  0  0  0  0  0  0  0
   36.3090   27.8450   40.0020 S   0  0  0  0  0  0  0  0  0  0  0  0
   34.9190   27.7780   40.1490 H   0  0  0  0  0  0  0  0  0  0  0  0
  1  3  1  0  0  0  0
  1  2  1  0  0  0  0
  4  1  1  0  0  0  0
  5  4  2  0  0  0  0
  5  9  1  0  0  0  0
  6  5  1  0  0  0  0
  7  6  1  0  0  0  0
  7  8  2  0  0  0  0
  8  4  1  0  0  0  0
 10  7  1  0  0  0  0
 11 10  2  0  0  0  0
 12 11  1  0  0  0  0
 13 11  1  0  0  0  0
 13 14  1  0  0  0  0
 14 16  2  0  0  0  0
 15 14  1  0  0  0  0
 16 10  1  0  0  0  0
 17 19  1  0  0  0  0
 17  1  1  0  0  0  0
 18 17  1  0  0  0  0
 20 25  1  0  0  0  0
 20 17  1  0  0  0  0
 21 20  2  0  0  0  0
 22 23  2  0  0  0  0
 22 21  1  0  0  0  0
 23 24  1  0  0  0  0
 24 27  1  0  0  0  0
 24 25  2  0  0  0  0
 26 22  1  0  0  0  0
 28 29  1  0  0  0  0
 28 21  1  0  0  0  0
M  END
>  <minimizedAffinity>
-4.57200718

$$$$

 OpenBabel03252507443D

 29 31  0  0  0  0  0  0  0  0999 V2000
   37.6280   28.0210   43.6800 C   0  0  0  0  0  0  0  0  0  0  0  0
   37.6460   28.0660   44.8020 H   0  0  0  0  0  0  0  0  0  0  0  0
   36.5430   28.0320   43.4120 H   0  0  0  0  0  0  0  0  0  0  0  0
   38.2490   26.7640   43.2000 C   0  0  0  0  0  0  0  0  0  0  0  0
   39.5280   26.3440   43.6790 C   0  0  0  0  0  0  0  0  0  0  0  0
   39.7840   24.7510   42.7540 S   0  0  0  0  0  0  0  0  0  0  0  0
   38.1180   24.9470   41.8920 C   0  0  0  0  0  0  0  0  0  0  0  0
   37.7330   25.9330   42.3300 N   0  0  0  0  0  0  0  0  0  0  0  0
   40.1500   26.8450   44.3910 H   0  0  0  0  0  0  0  0  0  0  0  0
   37.6030   23.9530   40.9120 C   0  0  0  0  0  0  0  0  0  0  0  0
   36.5350   24.2780   40.0990 C   0  0  0  0  0  0  0  0  0  0  0  0
   35.9880   25.2890   40.1130 H   0  0  0  0  0  0  0  0  0  0  0  0
   36.3080   22.7530   39.1130 S   0  0  0  0  0  0  0  0  0  0  0  0
   37.7530   21.9120   40.0090 C   0  0  0  0  0  0  0  0  0  0  0  0
   38.1490   20.8840   39.8480 H   0  0  0  0  0  0  0  0  0  0  0  0
   38.0900   22.7400   40.7400 N   0  0  0  0  0  0  0  0  0  0  0  0
   38.2450   29.2730   43.1520 C   0  0  0  0  0  0  0  0  0  0  0  0
   39.2900   28.9850   42.8330 H   0  0  0  0  0  0  0  0  0  0  0  0
   38.3770   30.0340   43.9120 H   0  0  0  0  0  0  0  0  0  0  0  0
   37.5920   29.8020   41.9330 C   0  0  0  0  0  0  0  0  0  0  0  0
   38.3080   30.7380   41.1860 C   0  0  0  0  0  0  0  0  0  0  0  0
   37.7620   31.2750   40.0360 C   0  0  0  0  0  0  0  0  0  0  0  0
   36.5080   30.8490   39.6730 N   0  0  0  0  0  0  0  0  0  0  0  0
   35.8450   29.9420   40.4180 C   0  0  0  0  0  0  0  0  0  0  0  0
   36.3840   29.4330   41.5250 N   0  0  0  0  0  0  0  0  0  0  0  0
   38.3420   32.0010   39.4770 H   0  0  0  0  0  0  0  0  0  0  0  0
   34.8600   29.6850   40.0260 H   0  0  0  0  0  0  0  0  0  0  0  0
   39.9500   31.2610   41.7100 S   0  0  0  0  0  0  0  0  0  0  0  0
   39.8060   32.1940   42.7430 H   0  0  0  0  0  0  0  0  0  0  0  0
  1  2  1  0  0  0  0
  3  1  1  0  0  0  0
  4  5  2  0  0  0  0
  4  1  1  0  0  0  0
  5  9  1  0  0  0  0
  6  5  1  0  0  0  0
  7  8  2  0  0  0  0
  7  6  1  0  0  0  0
  8  4  1  0  0  0  0
 10  7  1  0  0  0  0
 11 12  1  0  0  0  0
 11 10  2  0  0  0  0
 13 14  1  0  0  0  0
 13 11  1  0  0  0  0
 14 16  2  0  0  0  0
 15 14  1  0  0  0  0
 16 10  1  0  0  0  0
 17  1  1  0  0  0  0
 17 19  1  0  0  0  0
 18 17  1  0  0  0  0
 20 17  1  0  0  0  0
 21 28  1  0  0  0  0
 21 20  2  0  0  0  0
 22 21  1  0  0  0  0
 23 22  2  0  0  0  0
 23 24  1  0  0  0  0
 24 25  2  0  0  0  0
 25 20  1  0  0  0  0
 26 22  1  0  0  0  0
 27 24  1  0  0  0  0
 28 29  1  0  0  0  0
M  END
>  <minimizedAffinity>
-4.54853296

$$$$

 OpenBabel03252507443D

 29 31  0  0  0  0  0  0  0  0999 V2000
   37.6540   27.7660   43.6790 C   0  0  0  0  0  0  0  0  0  0  0  0
   36.8680   26.9810   43.8500 H   0  0  0  0  0  0  0  0  0  0  0  0
   37.6580   28.3730   44.6170 H   0  0  0  0  0  0  0  0  0  0  0  0
   37.2880   28.6260   42.5290 C   0  0  0  0  0  0  0  0  0  0  0  0
   36.2020   28.2800   41.6670 C   0  0  0  0  0  0  0  0  0  0  0  0
   36.2160   29.6840   40.4460 S   0  0  0  0  0  0  0  0  0  0  0  0
   37.6850   30.4750   41.3250 C   0  0  0  0  0  0  0  0  0  0  0  0
   37.8800   29.7400   42.1810 N   0  0  0  0  0  0  0  0  0  0  0  0
   35.5640   27.4240   41.7390 H   0  0  0  0  0  0  0  0  0  0  0  0
   38.3000   31.7480   40.8630 C   0  0  0  0  0  0  0  0  0  0  0  0
   39.6580   31.9500   41.0140 C   0  0  0  0  0  0  0  0  0  0  0  0
   40.3830   31.1910   41.4810 H   0  0  0  0  0  0  0  0  0  0  0  0
   39.8920   33.6220   40.3070 S   0  0  0  0  0  0  0  0  0  0  0  0
   38.0410   33.7600   39.9180 C   0  0  0  0  0  0  0  0  0  0  0  0
   37.5060   34.6120   39.4430 H   0  0  0  0  0  0  0  0  0  0  0  0
   37.6440   32.7450   40.3020 N   0  0  0  0  0  0  0  0  0  0  0  0
   38.9770   27.0850   43.5650 C   0  0  0  0  0  0  0  0  0  0  0  0
   39.1200   26.5370   44.5430 H   0  0  0  0  0  0  0  0  0  0  0  0
   39.8060   27.7780   43.5020 H   0  0  0  0  0  0  0  0  0  0  0  0
   39.0320   26.0410   42.5170 C   0  0  0  0  0  0  0  0  0  0  0  0
   39.9320   26.2410   41.4690 C   0  0  0  0  0  0  0  0  0  0  0  0
   40.0370   25.3090   40.4550 C   0  0  0  0  0  0  0  0  0  0  0  0
   39.2300   24.2010   40.5280 N   0  0  0  0  0  0  0  0  0  0  0  0
   38.3710   24.0390   41.5550 C   0  0  0  0  0  0  0  0  0  0  0  0
   38.2800   24.9470   42.5270 N   0  0  0  0  0  0  0  0  0  0  0  0
   40.7450   25.4920   39.6550 H   0  0  0  0  0  0  0  0  0  0  0  0
   37.7860   23.1210   41.5010 H   0  0  0  0  0  0  0  0  0  0  0  0
   40.9670   27.7140   41.4250 S   0  0  0  0  0  0  0  0  0  0  0  0
   40.1910   28.7830   40.9610 H   0  0  0  0  0  0  0  0  0  0  0  0
  1  2  1  0  0  0  0
  1  3  1  0  0  0  0
  4  1  1  0  0  0  0
  5  9  1  0  0  0  0
  5  4  2  0  0  0  0
  6  7  1  0  0  0  0
  6  5  1  0  0  0  0
  7  8  2  0  0  0  0
  8  4  1  0  0  0  0
 10 11  2  0  0  0  0
 10  7  1  0  0  0  0
 11 12  1  0  0  0  0
 13 11  1  0  0  0  0
 14 16  2  0  0  0  0
 14 13  1  0  0  0  0
 15 14  1  0  0  0  0
 16 10  1  0  0  0  0
 17  1  1  0  0  0  0
 17 18  1  0  0  0  0
 19 17  1  0  0  0  0
 20 25  1  0  0  0  0
 20 17  1  0  0  0  0
 21 20  2  0  0  0  0
 22 23  2  0  0  0  0
 22 21  1  0  0  0  0
 23 24  1  0  0  0  0
 24 25  2  0  0  0  0
 26 22  1  0  0  0  0
 27 24  1  0  0  0  0
 28 21  1  0  0  0  0
 29 28  1  0  0  0  0
M  END
>  <minimizedAffinity>
-4.52608538

$$$$

 OpenBabel03252507443D

 29 31  0  0  0  0  0  0  0  0999 V2000
   36.5010   28.4180   41.9080 C   0  0  0  0  0  0  0  0  0  0  0  0
   36.4050   27.7000   41.0480 H   0  0  0  0  0  0  0  0  0  0  0  0
   35.4550   28.5590   42.2780 H   0  0  0  0  0  0  0  0  0  0  0  0
   37.0470   29.7150   41.4440 C   0  0  0  0  0  0  0  0  0  0  0  0
   36.2240   30.6560   40.7530 C   0  0  0  0  0  0  0  0  0  0  0  0
   37.4150   32.0480   40.4310 S   0  0  0  0  0  0  0  0  0  0  0  0
   38.8020   31.1020   41.2900 C   0  0  0  0  0  0  0  0  0  0  0  0
   38.2770   30.1330   41.6020 N   0  0  0  0  0  0  0  0  0  0  0  0
   35.1890   30.5510   40.5020 H   0  0  0  0  0  0  0  0  0  0  0  0
   40.1780   31.6500   41.4270 C   0  0  0  0  0  0  0  0  0  0  0  0
   41.0600   31.0800   42.3250 C   0  0  0  0  0  0  0  0  0  0  0  0
   40.8150   30.1840   43.0000 H   0  0  0  0  0  0  0  0  0  0  0  0
   42.5630   32.1000   42.1060 S   0  0  0  0  0  0  0  0  0  0  0  0
   41.7020   33.1600   40.7900 C   0  0  0  0  0  0  0  0  0  0  0  0
   42.1240   34.0210   40.2240 H   0  0  0  0  0  0  0  0  0  0  0  0
   40.6550   32.6730   40.7450 N   0  0  0  0  0  0  0  0  0  0  0  0
   37.2840   27.7500   42.9880 C   0  0  0  0  0  0  0  0  0  0  0  0
   36.5520   27.5790   43.8320 H   0  0  0  0  0  0  0  0  0  0  0  0
   38.0580   28.3830   43.4050 H   0  0  0  0  0  0  0  0  0  0  0  0
   37.7890   26.4060   42.6270 C   0  0  0  0  0  0  0  0  0  0  0  0
   39.1640   26.1960   42.7310 C   0  0  0  0  0  0  0  0  0  0  0  0
   39.7060   24.9660   42.4100 C   0  0  0  0  0  0  0  0  0  0  0  0
   38.8430   23.9830   41.9940 N   0  0  0  0  0  0  0  0  0  0  0  0
   37.5190   24.2200   41.9060 C   0  0  0  0  0  0  0  0  0  0  0  0
   37.0090   25.4120   42.2190 N   0  0  0  0  0  0  0  0  0  0  0  0
   40.7790   24.8340   42.5000 H   0  0  0  0  0  0  0  0  0  0  0  0
   36.9380   23.3630   41.5650 H   0  0  0  0  0  0  0  0  0  0  0  0
   40.2510   27.5220   43.2820 S   0  0  0  0  0  0  0  0  0  0  0  0
   40.4650   28.3910   42.2060 H   0  0  0  0  0  0  0  0  0  0  0  0
  1  3  1  0  0  0  0
  1 17  1  0  0  0  0
  2  1  1  0  0  0  0
  4  8  1  0  0  0  0
  4  1  1  0  0  0  0
  5  4  2  0  0  0  0
  6  5  1  0  0  0  0
  6  7  1  0  0  0  0
  7 10  1  0  0  0  0
  7  8  2  0  0  0  0
  9  5  1  0  0  0  0
 10 11  2  0  0  0  0
 11 12  1  0  0  0  0
 13 11  1  0  0  0  0
 14 13  1  0  0  0  0
 15 14  1  0  0  0  0
 16 14  2  0  0  0  0
 16 10  1  0  0  0  0
 17 19  1  0  0  0  0
 17 18  1  0  0  0  0
 20 21  1  0  0  0  0
 20 17  1  0  0  0  0
 21 28  1  0  0  0  0
 22 26  1  0  0  0  0
 22 21  2  0  0  0  0
 23 22  1  0  0  0  0
 24 23  2  0  0  0  0
 24 25  1  0  0  0  0
 25 20  2  0  0  0  0
 27 24  1  0  0  0  0
 29 28  1  0  0  0  0
M  END
>  <minimizedAffinity>
-4.51702118

$$$$

 OpenBabel03252507443D

 29 31  0  0  0  0  0  0  0  0999 V2000
   36.2830   30.7720   41.0140 C   0  0  0  0  0  0  0  0  0  0  0  0
   36.4350   31.6190   41.7370 H   0  0  0  0  0  0  0  0  0  0  0  0
   35.1780   30.6030   41.0030 H   0  0  0  0  0  0  0  0  0  0  0  0
   36.9700   29.5500   41.4930 C   0  0  0  0  0  0  0  0  0  0  0  0
   37.9380   29.6130   42.5420 C   0  0  0  0  0  0  0  0  0  0  0  0
   38.4440   27.8300   42.7090 S   0  0  0  0  0  0  0  0  0  0  0  0
   37.2560   27.3320   41.3320 C   0  0  0  0  0  0  0  0  0  0  0  0
   36.7870   28.3350   41.0410 N   0  0  0  0  0  0  0  0  0  0  0  0
   38.2630   30.4830   43.0730 H   0  0  0  0  0  0  0  0  0  0  0  0
   37.1070   25.9240   40.8760 C   0  0  0  0  0  0  0  0  0  0  0  0
   36.5230   25.6540   39.6530 C   0  0  0  0  0  0  0  0  0  0  0  0
   36.1280   26.4530   38.9280 H   0  0  0  0  0  0  0  0  0  0  0  0
   36.5820   23.8270   39.5790 S   0  0  0  0  0  0  0  0  0  0  0  0
   37.4160   23.7450   41.2810 C   0  0  0  0  0  0  0  0  0  0  0  0
   37.7370   22.8370   41.8400 H   0  0  0  0  0  0  0  0  0  0  0  0
   37.4940   24.8640   41.5580 N   0  0  0  0  0  0  0  0  0  0  0  0
   36.6910   31.2380   39.6560 C   0  0  0  0  0  0  0  0  0  0  0  0
   35.8160   31.8380   39.2660 H   0  0  0  0  0  0  0  0  0  0  0  0
   36.8180   30.4270   38.9500 H   0  0  0  0  0  0  0  0  0  0  0  0
   37.8400   32.1710   39.6570 C   0  0  0  0  0  0  0  0  0  0  0  0
   38.9960   31.7550   38.9950 C   0  0  0  0  0  0  0  0  0  0  0  0
   40.1080   32.5730   38.9550 C   0  0  0  0  0  0  0  0  0  0  0  0
   40.0200   33.7900   39.5850 N   0  0  0  0  0  0  0  0  0  0  0  0
   38.8870   34.1610   40.2150 C   0  0  0  0  0  0  0  0  0  0  0  0
   37.8220   33.3610   40.2450 N   0  0  0  0  0  0  0  0  0  0  0  0
   40.9910   32.2220   38.4330 H   0  0  0  0  0  0  0  0  0  0  0  0
   38.9420   35.1480   40.6750 H   0  0  0  0  0  0  0  0  0  0  0  0
   39.0540   30.1470   38.1850 S   0  0  0  0  0  0  0  0  0  0  0  0
   39.2630   29.1690   39.1640 H   0  0  0  0  0  0  0  0  0  0  0  0
  1  4  1  0  0  0  0
  1  2  1  0  0  0  0
  3  1  1  0  0  0  0
  4  5  2  0  0  0  0
  5  6  1  0  0  0  0
  5  9  1  0  0  0  0
  7  6  1  0  0  0  0
  8  7  2  0  0  0  0
  8  4  1  0  0  0  0
 10  7  1  0  0  0  0
 10 16  1  0  0  0  0
 11 10  2  0  0  0  0
 12 11  1  0  0  0  0
 13 11  1  0  0  0  0
 13 14  1  0  0  0  0
 14 16  2  0  0  0  0
 14 15  1  0  0  0  0
 17 20  1  0  0  0  0
 17  1  1  0  0  0  0
 18 17  1  0  0  0  0
 19 17  1  0  0  0  0
 20 25  1  0  0  0  0
 21 20  2  0  0  0  0
 22 21  1  0  0  0  0
 22 23  2  0  0  0  0
 23 24  1  0  0  0  0
 24 25  2  0  0  0  0
 24 27  1  0  0  0  0
 26 22  1  0  0  0  0
 28 21  1  0  0  0  0
 28 29  1  0  0  0  0
M  END
>  <minimizedAffinity>
-4.44621372

$$$$

 OpenBabel03252507443D

 29 31  0  0  0  0  0  0  0  0999 V2000
   37.2620   27.7930   40.3000 C   0  0  0  0  0  0  0  0  0  0  0  0
   38.1990   27.2980   39.9280 H   0  0  0  0  0  0  0  0  0  0  0  0
   36.4640   27.4590   39.5920 H   0  0  0  0  0  0  0  0  0  0  0  0
   37.3950   29.2680   40.2420 C   0  0  0  0  0  0  0  0  0  0  0  0
   36.4030   30.1200   40.8170 C   0  0  0  0  0  0  0  0  0  0  0  0
   37.0860   31.8110   40.4500 S   0  0  0  0  0  0  0  0  0  0  0  0
   38.5830   31.0540   39.5880 C   0  0  0  0  0  0  0  0  0  0  0  0
   38.3790   29.9310   39.6900 N   0  0  0  0  0  0  0  0  0  0  0  0
   35.5080   29.8240   41.3240 H   0  0  0  0  0  0  0  0  0  0  0  0
   39.6610   31.8820   38.9840 C   0  0  0  0  0  0  0  0  0  0  0  0
   40.1780   32.9540   39.6840 C   0  0  0  0  0  0  0  0  0  0  0  0
   39.8360   33.2760   40.7330 H   0  0  0  0  0  0  0  0  0  0  0  0
   41.4360   33.6130   38.5290 S   0  0  0  0  0  0  0  0  0  0  0  0
   41.0240   32.2710   37.2530 C   0  0  0  0  0  0  0  0  0  0  0  0
   41.4850   32.1180   36.2510 H   0  0  0  0  0  0  0  0  0  0  0  0
   40.1910   31.6810   37.7940 N   0  0  0  0  0  0  0  0  0  0  0  0
   36.9430   27.2390   41.6480 C   0  0  0  0  0  0  0  0  0  0  0  0
   36.2800   26.3430   41.4580 H   0  0  0  0  0  0  0  0  0  0  0  0
   36.3490   27.9110   42.2540 H   0  0  0  0  0  0  0  0  0  0  0  0
   38.1180   26.7110   42.3780 C   0  0  0  0  0  0  0  0  0  0  0  0
   38.3080   25.3290   42.3600 C   0  0  0  0  0  0  0  0  0  0  0  0
   39.3830   24.7660   43.0200 C   0  0  0  0  0  0  0  0  0  0  0  0
   40.2350   25.6150   43.6800 N   0  0  0  0  0  0  0  0  0  0  0  0
   40.0220   26.9460   43.6770 C   0  0  0  0  0  0  0  0  0  0  0  0
   38.9800   27.4760   43.0360 N   0  0  0  0  0  0  0  0  0  0  0  0
   39.5040   23.6890   42.9870 H   0  0  0  0  0  0  0  0  0  0  0  0
   40.7670   27.5140   44.2350 H   0  0  0  0  0  0  0  0  0  0  0  0
   37.1570   24.2620   41.4760 S   0  0  0  0  0  0  0  0  0  0  0  0
   36.0160   24.0940   42.2700 H   0  0  0  0  0  0  0  0  0  0  0  0
  1 17  1  0  0  0  0
  2  1  1  0  0  0  0
  3  1  1  0  0  0  0
  4  1  1  0  0  0  0
  4  5  2  0  0  0  0
  5  9  1  0  0  0  0
  6  5  1  0  0  0  0
  7  8  2  0  0  0  0
  7  6  1  0  0  0  0
  8  4  1  0  0  0  0
 10  7  1  0  0  0  0
 10 11  2  0  0  0  0
 11 12  1  0  0  0  0
 13 11  1  0  0  0  0
 14 16  2  0  0  0  0
 14 13  1  0  0  0  0
 15 14  1  0  0  0  0
 16 10  1  0  0  0  0
 17 19  1  0  0  0  0
 17 20  1  0  0  0  0
 18 17  1  0  0  0  0
 20 25  1  0  0  0  0
 21 20  2  0  0  0  0
 21 22  1  0  0  0  0
 22 23  2  0  0  0  0
 24 23  1  0  0  0  0
 24 27  1  0  0  0  0
 25 24  2  0  0  0  0
 26 22  1  0  0  0  0
 28 29  1  0  0  0  0
 28 21  1  0  0  0  0
M  END
>  <minimizedAffinity>
-4.34709263

$$$$

 OpenBabel03252507443D

 29 31  0  0  0  0  0  0  0  0999 V2000
   36.1990   30.7780   40.9740 C   0  0  0  0  0  0  0  0  0  0  0  0
   35.3110   31.3890   40.6550 H   0  0  0  0  0  0  0  0  0  0  0  0
   36.3500   31.0370   42.0510 H   0  0  0  0  0  0  0  0  0  0  0  0
   37.4000   31.1620   40.1940 C   0  0  0  0  0  0  0  0  0  0  0  0
   37.4260   31.0340   38.7720 C   0  0  0  0  0  0  0  0  0  0  0  0
   39.1330   31.6470   38.3600 S   0  0  0  0  0  0  0  0  0  0  0  0
   39.4940   31.9620   40.1840 C   0  0  0  0  0  0  0  0  0  0  0  0
   38.5170   31.6360   40.6840 N   0  0  0  0  0  0  0  0  0  0  0  0
   36.6420   30.6740   38.1380 H   0  0  0  0  0  0  0  0  0  0  0  0
   40.7950   32.5050   40.6590 C   0  0  0  0  0  0  0  0  0  0  0  0
   41.5630   31.7750   41.5440 C   0  0  0  0  0  0  0  0  0  0  0  0
   41.2760   30.7440   41.9620 H   0  0  0  0  0  0  0  0  0  0  0  0
   43.0150   32.8600   41.7990 S   0  0  0  0  0  0  0  0  0  0  0  0
   42.2990   34.1610   40.6190 C   0  0  0  0  0  0  0  0  0  0  0  0
   42.7470   35.1380   40.3280 H   0  0  0  0  0  0  0  0  0  0  0  0
   41.3040   33.6670   40.3000 N   0  0  0  0  0  0  0  0  0  0  0  0
   35.8260   29.3360   40.8940 C   0  0  0  0  0  0  0  0  0  0  0  0
   35.9570   29.0480   39.8090 H   0  0  0  0  0  0  0  0  0  0  0  0
   34.7820   29.1540   41.1140 H   0  0  0  0  0  0  0  0  0  0  0  0
   36.7260   28.4360   41.6510 C   0  0  0  0  0  0  0  0  0  0  0  0
   37.1530   27.2750   41.0040 C   0  0  0  0  0  0  0  0  0  0  0  0
   37.9930   26.3890   41.6490 C   0  0  0  0  0  0  0  0  0  0  0  0
   38.3800   26.7000   42.9290 N   0  0  0  0  0  0  0  0  0  0  0  0
   37.9490   27.8310   43.5240 C   0  0  0  0  0  0  0  0  0  0  0  0
   37.1380   28.6770   42.8890 N   0  0  0  0  0  0  0  0  0  0  0  0
   38.3080   25.4960   41.1200 H   0  0  0  0  0  0  0  0  0  0  0  0
   38.3240   27.9660   44.5380 H   0  0  0  0  0  0  0  0  0  0  0  0
   36.6140   26.9170   39.3230 S   0  0  0  0  0  0  0  0  0  0  0  0
   35.3120   26.4070   39.3780 H   0  0  0  0  0  0  0  0  0  0  0  0
  1  3  1  0  0  0  0
  2  1  1  0  0  0  0
  4  8  1  0  0  0  0
  4  1  1  0  0  0  0
  5  4  2  0  0  0  0
  6  5  1  0  0  0  0
  6  7  1  0  0  0  0
  7 10  1  0  0  0  0
  7  8  2  0  0  0  0
  9  5  1  0  0  0  0
 10 11  2  0  0  0  0
 11 13  1  0  0  0  0
 11 12  1  0  0  0  0
 14 13  1  0  0  0  0
 15 14  1  0  0  0  0
 16 14  2  0  0  0  0
 16 10  1  0  0  0  0
 17  1  1  0  0  0  0
 17 19  1  0  0  0  0
 17 20  1  0  0  0  0
 18 17  1  0  0  0  0
 20 25  1  0  0  0  0
 21 22  1  0  0  0  0
 21 20  2  0  0  0  0
 22 23  2  0  0  0  0
 23 24  1  0  0  0  0
 24 27  1  0  0  0  0
 25 24  2  0  0  0  0
 26 22  1  0  0  0  0
 28 29  1  0  0  0  0
 28 21  1  0  0  0  0
M  END
>  <minimizedAffinity>
-4.31941128

$$$$
