
 OpenBabel03252507433D

 29 31  0  0  0  0  0  0  0  0999 V2000
   45.6370   34.6300   42.0630 C   0  0  0  0  0  0  0  0  0  0  0  0
   45.8300   33.9770   42.9570 H   0  0  0  0  0  0  0  0  0  0  0  0
   45.8740   35.6660   42.4110 H   0  0  0  0  0  0  0  0  0  0  0  0
   44.2130   34.5520   41.6600 C   0  0  0  0  0  0  0  0  0  0  0  0
   43.4970   35.7210   41.2560 C   0  0  0  0  0  0  0  0  0  0  0  0
   41.8120   35.0290   40.8780 S   0  0  0  0  0  0  0  0  0  0  0  0
   42.3870   33.2920   41.3340 C   0  0  0  0  0  0  0  0  0  0  0  0
   43.4810   33.4680   41.6250 N   0  0  0  0  0  0  0  0  0  0  0  0
   43.8690   36.7220   41.1990 H   0  0  0  0  0  0  0  0  0  0  0  0
   41.4890   32.1090   41.2670 C   0  0  0  0  0  0  0  0  0  0  0  0
   41.5800   31.1200   42.2270 C   0  0  0  0  0  0  0  0  0  0  0  0
   42.3180   31.1310   43.1080 H   0  0  0  0  0  0  0  0  0  0  0  0
   40.2930   29.9320   41.6970 S   0  0  0  0  0  0  0  0  0  0  0  0
   39.8410   31.0220   40.2120 C   0  0  0  0  0  0  0  0  0  0  0  0
   39.0640   30.8330   39.4380 H   0  0  0  0  0  0  0  0  0  0  0  0
   40.5750   31.9060   40.3380 N   0  0  0  0  0  0  0  0  0  0  0  0
   46.6180   34.2670   40.9980 C   0  0  0  0  0  0  0  0  0  0  0  0
   46.6270   35.1420   40.2830 H   0  0  0  0  0  0  0  0  0  0  0  0
   46.3050   33.4160   40.4060 H   0  0  0  0  0  0  0  0  0  0  0  0
   48.0120   34.1360   41.4790 C   0  0  0  0  0  0  0  0  0  0  0  0
   48.6810   32.9510   41.1720 C   0  0  0  0  0  0  0  0  0  0  0  0
   49.9840   32.7590   41.5890 C   0  0  0  0  0  0  0  0  0  0  0  0
   50.5750   33.7720   42.3030 N   0  0  0  0  0  0  0  0  0  0  0  0
   49.9000   34.9050   42.5820 C   0  0  0  0  0  0  0  0  0  0  0  0
   48.6420   35.0760   42.1740 N   0  0  0  0  0  0  0  0  0  0  0  0
   50.4770   31.8270   41.3350 H   0  0  0  0  0  0  0  0  0  0  0  0
   50.4760   35.6320   43.1540 H   0  0  0  0  0  0  0  0  0  0  0  0
   47.8560   31.6560   40.2310 S   0  0  0  0  0  0  0  0  0  0  0  0
   47.0090   30.9540   41.0980 H   0  0  0  0  0  0  0  0  0  0  0  0
  1  3  1  0  0  0  0
  1  2  1  0  0  0  0
  4  1  1  0  0  0  0
  5  4  2  0  0  0  0
  6  5  1  0  0  0  0
  6  7  1  0  0  0  0
  7  8  2  0  0  0  0
  8  4  1  0  0  0  0
  9  5  1  0  0  0  0
 10  7  1  0  0  0  0
 10 11  2  0  0  0  0
 11 12  1  0  0  0  0
 13 11  1  0  0  0  0
 14 16  2  0  0  0  0
 14 13  1  0  0  0  0
 15 14  1  0  0  0  0
 16 10  1  0  0  0  0
 17 20  1  0  0  0  0
 17  1  1  0  0  0  0
 18 17  1  0  0  0  0
 19 17  1  0  0  0  0
 20 25  1  0  0  0  0
 21 20  2  0  0  0  0
 21 22  1  0  0  0  0
 22 23  2  0  0  0  0
 23 24  1  0  0  0  0
 24 27  1  0  0  0  0
 25 24  2  0  0  0  0
 26 22  1  0  0  0  0
 28 29  1  0  0  0  0
 28 21  1  0  0  0  0
M  END
>  <minimizedAffinity>
-4.14459133

>  <minimizedRMSD>
2.47540736

$$$$
