
 OpenBabel03252508263D

 39 43  0  0  1  0  0  0  0  0999 V2000
   46.4160   32.2950   46.3170 C   0  0  1  0  0  0  0  0  0  0  0  0
   46.6530   32.5430   47.7460 C   0  0  0  0  0  0  0  0  0  0  0  0
   45.3710   31.8030   47.1960 C   0  0  2  0  0  0  0  0  0  0  0  0
   47.3310   31.6950   45.9690 H   0  0  0  0  0  0  0  0  0  0  0  0
   46.5220   33.5450   48.1870 H   0  0  0  0  0  0  0  0  0  0  0  0
   47.1900   31.8570   48.4150 H   0  0  0  0  0  0  0  0  0  0  0  0
   44.5510   32.4590   47.6200 H   0  0  0  0  0  0  0  0  0  0  0  0
   45.1420   30.3960   47.5330 C   0  0  0  0  0  0  0  0  0  0  0  0
   45.0400   29.8520   48.7750 C   0  0  0  0  0  0  0  0  0  0  0  0
   44.9510   28.4980   49.0670 C   0  0  0  0  0  0  0  0  0  0  0  0
   44.9700   27.6230   47.9630 C   0  0  0  0  0  0  0  0  0  0  0  0
   45.0700   28.1510   46.6810 C   0  0  0  0  0  0  0  0  0  0  0  0
   45.0250   27.2620   45.6250 C   0  0  0  0  0  0  0  0  0  0  0  0
   45.0510   27.7490   44.3260 C   0  0  0  0  0  0  0  0  0  0  0  0
   45.1190   29.1070   44.0830 C   0  0  0  0  0  0  0  0  0  0  0  0
   45.1660   29.9520   45.1700 C   0  0  0  0  0  0  0  0  0  0  0  0
   45.1510   29.5160   46.4800 C   0  0  0  0  0  0  0  0  0  0  0  0
   45.0290   30.5670   49.5950 H   0  0  0  0  0  0  0  0  0  0  0  0
   44.8720   28.1340   50.0840 H   0  0  0  0  0  0  0  0  0  0  0  0
   44.9070   26.5620   48.1470 H   0  0  0  0  0  0  0  0  0  0  0  0
   44.9680   26.1990   45.8450 H   0  0  0  0  0  0  0  0  0  0  0  0
   45.0110   26.9480   43.5690 H   0  0  0  0  0  0  0  0  0  0  0  0
   45.1260   29.2830   43.0340 H   0  0  0  0  0  0  0  0  0  0  0  0
   45.1270   30.9100   44.7390 H   0  0  0  0  0  0  0  0  0  0  0  0
   44.8470   35.2940   44.8540 C   0  0  0  0  0  0  0  0  0  0  0  0
   45.5470   35.4390   43.6110 C   0  0  0  0  0  0  0  0  0  0  0  0
   46.5660   34.4680   43.3210 C   0  0  0  0  0  0  0  0  0  0  0  0
   46.8080   33.5060   44.2010 N   0  0  0  0  0  0  0  0  0  0  0  0
   46.1120   33.4100   45.3790 C   0  0  0  0  0  0  0  0  0  0  0  0
   45.1600   34.2810   45.6890 N   0  0  0  0  0  0  0  0  0  0  0  0
   44.1140   36.0590   44.9700 H   0  0  0  0  0  0  0  0  0  0  0  0
   45.3490   36.2160   42.9060 H   0  0  0  0  0  0  0  0  0  0  0  0
   47.2720   34.6160   42.0580 C   0  0  0  0  0  0  0  0  0  0  0  0
   46.8610   33.7520   40.9360 C   0  0  0  0  0  0  0  0  0  0  0  0
   46.0650   32.9980   40.9590 H   0  0  0  0  0  0  0  0  0  0  0  0
   48.0380   34.3090   39.5740 S   0  0  0  0  0  0  0  0  0  0  0  0
   48.8270   35.5620   40.7580 C   0  0  0  0  0  0  0  0  0  0  0  0
   49.6710   36.2890   40.5620 H   0  0  0  0  0  0  0  0  0  0  0  0
   48.2690   35.4520   41.7730 N   0  0  0  0  0  0  0  0  0  0  0  0
  1  4  1  6  0  0  0
  1  3  1  0  0  0  0
  1  2  1  0  0  0  0
  2  5  1  0  0  0  0
  2  6  1  0  0  0  0
  3  8  1  0  0  0  0
  3  7  1  1  0  0  0
  3  2  1  0  0  0  0
  8  9  1  0  0  0  0
  9 10  2  0  0  0  0
  9 18  1  0  0  0  0
 10 19  1  0  0  0  0
 11 20  1  0  0  0  0
 11 10  1  0  0  0  0
 12 11  2  0  0  0  0
 13 21  1  0  0  0  0
 13 12  1  0  0  0  0
 14 13  2  0  0  0  0
 15 14  1  0  0  0  0
 15 16  2  0  0  0  0
 16 17  1  0  0  0  0
 17 12  1  0  0  0  0
 17  8  2  0  0  0  0
 22 14  1  0  0  0  0
 23 15  1  0  0  0  0
 24 16  1  0  0  0  0
 25 31  1  0  0  0  0
 25 30  1  0  0  0  0
 26 25  2  0  0  0  0
 27 26  1  0  0  0  0
 27 28  2  0  0  0  0
 28 29  1  0  0  0  0
 29 30  2  0  0  0  0
 29  1  1  0  0  0  0
 32 26  1  0  0  0  0
 33 27  1  0  0  0  0
 34 35  1  0  0  0  0
 34 33  2  0  0  0  0
 36 37  1  0  0  0  0
 36 34  1  0  0  0  0
 37 39  2  0  0  0  0
 38 37  1  0  0  0  0
 39 33  1  0  0  0  0
M  END
>  <minimizedAffinity>
-5.23035526

>  <minimizedRMSD>
0.741164446

$$$$
