
 OpenBabel03252507433D

 29 31  0  0  0  0  0  0  0  0999 V2000
   45.6300   34.6290   41.7020 C   0  0  0  0  0  0  0  0  0  0  0  0
   45.6980   33.9450   42.5910 H   0  0  0  0  0  0  0  0  0  0  0  0
   45.8760   35.6430   42.1050 H   0  0  0  0  0  0  0  0  0  0  0  0
   44.2540   34.6310   41.1520 C   0  0  0  0  0  0  0  0  0  0  0  0
   43.3240   35.6600   41.4970 C   0  0  0  0  0  0  0  0  0  0  0  0
   41.8130   35.1520   40.5370 S   0  0  0  0  0  0  0  0  0  0  0  0
   42.7170   33.6470   39.8480 C   0  0  0  0  0  0  0  0  0  0  0  0
   43.7510   33.7440   40.3310 N   0  0  0  0  0  0  0  0  0  0  0  0
   43.4910   36.4940   42.1450 H   0  0  0  0  0  0  0  0  0  0  0  0
   42.0710   32.6840   38.9170 C   0  0  0  0  0  0  0  0  0  0  0  0
   42.8430   31.7580   38.2420 C   0  0  0  0  0  0  0  0  0  0  0  0
   43.9830   31.6610   38.3400 H   0  0  0  0  0  0  0  0  0  0  0  0
   41.5960   30.8450   37.2600 S   0  0  0  0  0  0  0  0  0  0  0  0
   40.1990   31.9180   37.9610 C   0  0  0  0  0  0  0  0  0  0  0  0
   39.1100   31.8560   37.7350 H   0  0  0  0  0  0  0  0  0  0  0  0
   40.7790   32.6290   38.6650 N   0  0  0  0  0  0  0  0  0  0  0  0
   46.6990   34.2470   40.7340 C   0  0  0  0  0  0  0  0  0  0  0  0
   46.7400   35.0880   39.9800 H   0  0  0  0  0  0  0  0  0  0  0  0
   46.4540   33.3610   40.1600 H   0  0  0  0  0  0  0  0  0  0  0  0
   48.0550   34.1800   41.3250 C   0  0  0  0  0  0  0  0  0  0  0  0
   48.7520   32.9810   41.1770 C   0  0  0  0  0  0  0  0  0  0  0  0
   50.0220   32.8450   41.7030 C   0  0  0  0  0  0  0  0  0  0  0  0
   50.5520   33.9270   42.3630 N   0  0  0  0  0  0  0  0  0  0  0  0
   49.8500   35.0710   42.4870 C   0  0  0  0  0  0  0  0  0  0  0  0
   48.6250   35.1870   41.9750 N   0  0  0  0  0  0  0  0  0  0  0  0
   50.5390   31.9010   41.5720 H   0  0  0  0  0  0  0  0  0  0  0  0
   50.3770   35.8550   43.0310 H   0  0  0  0  0  0  0  0  0  0  0  0
   48.0080   31.5940   40.3000 S   0  0  0  0  0  0  0  0  0  0  0  0
   47.1050   30.9620   41.1630 H   0  0  0  0  0  0  0  0  0  0  0  0
  1  3  1  0  0  0  0
  1  2  1  0  0  0  0
  4  5  2  0  0  0  0
  4  1  1  0  0  0  0
  5  9  1  0  0  0  0
  6  5  1  0  0  0  0
  7  8  2  0  0  0  0
  7  6  1  0  0  0  0
  8  4  1  0  0  0  0
 10  7  1  0  0  0  0
 11 12  1  0  0  0  0
 11 10  2  0  0  0  0
 13 14  1  0  0  0  0
 13 11  1  0  0  0  0
 14 16  2  0  0  0  0
 15 14  1  0  0  0  0
 16 10  1  0  0  0  0
 17 20  1  0  0  0  0
 17  1  1  0  0  0  0
 18 17  1  0  0  0  0
 19 17  1  0  0  0  0
 20 25  1  0  0  0  0
 21 20  2  0  0  0  0
 21 22  1  0  0  0  0
 22 23  2  0  0  0  0
 23 24  1  0  0  0  0
 24 27  1  0  0  0  0
 25 24  2  0  0  0  0
 26 22  1  0  0  0  0
 28 29  1  0  0  0  0
 28 21  1  0  0  0  0
M  END
>  <minimizedAffinity>
-4.08661795

>  <minimizedRMSD>
0.79804188

$$$$
