
 OpenBabel03252509143D

 43 47  0  0  1  0  0  0  0  0999 V2000
   47.1520   32.9170   43.0770 C   0  0  0  0  0  0  0  0  0  0  0  0
   46.3500   33.6100   42.1650 C   0  0  0  0  0  0  0  0  0  0  0  0
   45.3230   34.4520   42.5570 C   0  0  0  0  0  0  0  0  0  0  0  0
   45.0700   34.6190   43.9280 C   0  0  0  0  0  0  0  0  0  0  0  0
   44.1890   35.3280   44.6650 N   0  0  0  0  0  0  0  0  0  0  0  0
   44.4050   35.1090   45.9780 C   0  0  0  0  0  0  0  0  0  0  0  0
   45.4350   34.2510   46.0320 N   0  0  0  0  0  0  0  0  0  0  0  0
   45.8690   33.9300   44.8030 C   0  0  0  0  0  0  0  0  0  0  0  0
   46.9040   33.0810   44.4390 C   0  0  0  0  0  0  0  0  0  0  0  0
   47.9510   32.2640   42.7160 H   0  0  0  0  0  0  0  0  0  0  0  0
   43.4940   35.9210   44.1460 H   0  0  0  0  0  0  0  0  0  0  0  0
   43.8060   35.5840   46.7330 H   0  0  0  0  0  0  0  0  0  0  0  0
   47.5150   32.5520   45.1520 H   0  0  0  0  0  0  0  0  0  0  0  0
   46.1310   32.3350   38.7400 C   0  0  0  0  0  0  0  0  0  0  0  0
   47.0700   33.1260   38.0520 C   0  0  0  0  0  0  0  0  0  0  0  0
   47.7660   34.0920   38.7920 C   0  0  0  0  0  0  0  0  0  0  0  0
   47.5150   34.2320   40.1340 N   0  0  0  0  0  0  0  0  0  0  0  0
   46.6020   33.4450   40.7390 C   0  0  0  0  0  0  0  0  0  0  0  0
   45.8960   32.4920   40.0780 N   0  0  0  0  0  0  0  0  0  0  0  0
   45.5570   31.5710   38.2360 H   0  0  0  0  0  0  0  0  0  0  0  0
   47.2290   32.9730   36.9930 H   0  0  0  0  0  0  0  0  0  0  0  0
   48.4940   34.7120   38.2830 H   0  0  0  0  0  0  0  0  0  0  0  0
   44.3190   35.3210   41.3970 S   0  0  0  0  0  0  0  0  0  0  0  0
   42.2070   33.7940   41.7370 N   0  0  0  0  0  0  0  0  0  0  0  0
   43.0100   34.3140   40.6590 C   0  0  1  0  0  0  0  0  0  0  0  0
   42.2100   35.2520   39.7590 C   0  0  0  0  0  0  0  0  0  0  0  0
   40.9350   34.7990   39.4920 O   0  0  0  0  0  0  0  0  0  0  0  0
   40.6780   33.5080   39.8490 C   0  0  0  0  0  0  0  0  0  0  0  0
   40.9050   33.3260   41.3140 C   0  0  1  0  0  0  0  0  0  0  0  0
   42.1010   34.5500   42.4500 H   0  0  0  0  0  0  0  0  0  0  0  0
   43.4520   33.5010   40.0380 H   0  0  0  0  0  0  0  0  0  0  0  0
   42.1530   36.2690   40.2310 H   0  0  0  0  0  0  0  0  0  0  0  0
   42.6940   35.2760   38.7740 H   0  0  0  0  0  0  0  0  0  0  0  0
   39.6020   33.3220   39.6630 H   0  0  0  0  0  0  0  0  0  0  0  0
   41.2200   32.7530   39.2330 H   0  0  0  0  0  0  0  0  0  0  0  0
   40.1220   33.8540   41.8850 H   0  0  0  0  0  0  0  0  0  0  0  0
   40.7810   31.8820   41.6290 C   0  0  0  0  0  0  0  0  0  0  0  0
   40.9090   30.9140   40.5070 C   0  0  0  0  0  0  0  0  0  0  0  0
   41.1160   31.3500   39.3530 H   0  0  0  0  0  0  0  0  0  0  0  0
   40.6910   29.2490   41.3460 S   0  0  0  0  0  0  0  0  0  0  0  0
   40.4730   30.1430   43.0030 C   0  0  0  0  0  0  0  0  0  0  0  0
   40.3040   29.4280   43.8400 H   0  0  0  0  0  0  0  0  0  0  0  0
   40.5660   31.2450   42.7710 N   0  0  0  0  0  0  0  0  0  0  0  0
  1  9  1  0  0  0  0
  2  3  1  0  0  0  0
  2  1  2  0  0  0  0
  3  4  2  0  0  0  0
  4  5  1  0  0  0  0
  4  8  1  0  0  0  0
  5  6  1  0  0  0  0
  6  7  2  0  0  0  0
  6 12  1  0  0  0  0
  8  7  1  0  0  0  0
  9  8  2  0  0  0  0
  9 13  1  0  0  0  0
 10  1  1  0  0  0  0
 11  5  1  0  0  0  0
 14 19  1  0  0  0  0
 15 14  2  0  0  0  0
 15 16  1  0  0  0  0
 16 17  2  0  0  0  0
 17 18  1  0  0  0  0
 18  2  1  0  0  0  0
 19 18  2  0  0  0  0
 20 14  1  0  0  0  0
 21 15  1  0  0  0  0
 22 16  1  0  0  0  0
 23  3  1  0  0  0  0
 24 30  1  0  0  0  0
 25 31  1  6  0  0  0
 25 23  1  0  0  0  0
 25 24  1  0  0  0  0
 26 32  1  0  0  0  0
 26 25  1  0  0  0  0
 27 26  1  0  0  0  0
 27 28  1  0  0  0  0
 28 29  1  0  0  0  0
 29 37  1  0  0  0  0
 29 24  1  0  0  0  0
 29 36  1  1  0  0  0
 33 26  1  0  0  0  0
 34 28  1  0  0  0  0
 35 28  1  0  0  0  0
 37 43  1  0  0  0  0
 38 40  1  0  0  0  0
 38 37  2  0  0  0  0
 39 38  1  0  0  0  0
 40 41  1  0  0  0  0
 41 42  1  0  0  0  0
 43 41  2  0  0  0  0
M  END
>  <minimizedAffinity>
-5.81484938

>  <minimizedRMSD>
2.38977742

$$$$
