
 OpenBabel03242515003D

 35 37  0  0  0  0  0  0  0  0999 V2000
   43.8800   34.7150   40.7660 S   0  0  0  0  0  0  0  0  0  0  0  0
   45.1430   34.4710   42.0130 C   0  0  0  0  0  0  0  0  0  0  0  0
   46.4720   34.4970   41.5690 C   0  0  0  0  0  0  0  0  0  0  0  0
   47.4910   34.3110   42.5070 C   0  0  0  0  0  0  0  0  0  0  0  0
   47.1380   34.1170   43.7970 N   0  0  0  0  0  0  0  0  0  0  0  0
   45.8710   34.0940   44.2140 C   0  0  0  0  0  0  0  0  0  0  0  0
   44.8850   34.2710   43.3180 N   0  0  0  0  0  0  0  0  0  0  0  0
   46.7810   34.6510   40.5420 H   0  0  0  0  0  0  0  0  0  0  0  0
   48.5310   34.3270   42.1900 H   0  0  0  0  0  0  0  0  0  0  0  0
   45.5850   33.8800   45.6170 C   0  0  0  0  0  0  0  0  0  0  0  0
   44.7740   34.6490   46.1790 O   0  0  0  0  0  0  0  0  0  0  0  0
   46.2790   32.7720   46.2600 C   0  0  0  0  0  0  0  0  0  0  0  0
   45.8330   31.5630   45.4530 C   0  0  0  0  0  0  0  0  0  0  0  0
   45.2670   31.0950   44.6500 H   0  0  0  0  0  0  0  0  0  0  0  0
   46.7980   30.2310   46.3890 S   0  0  0  0  0  0  0  0  0  0  0  0
   47.5580   31.4860   47.5960 C   0  0  0  0  0  0  0  0  0  0  0  0
   48.2620   31.8060   48.5440 H   0  0  0  0  0  0  0  0  0  0  0  0
   47.0940   32.6950   47.2630 N   0  0  0  0  0  0  0  0  0  0  0  0
   42.2370   34.8150   41.4650 C   0  0  0  0  0  0  0  0  0  0  0  0
   42.2950   34.9630   42.5710 H   0  0  0  0  0  0  0  0  0  0  0  0
   41.7560   33.8130   41.3410 H   0  0  0  0  0  0  0  0  0  0  0  0
   41.3550   35.8120   40.7940 C   0  0  0  0  0  0  0  0  0  0  0  0
   41.8990   36.6420   40.2920 H   0  0  0  0  0  0  0  0  0  0  0  0
   40.7230   36.2900   41.5910 H   0  0  0  0  0  0  0  0  0  0  0  0
   42.0560   36.0760   37.8530 Cl  0  0  0  0  0  0  0  0  0  0  0  0
   40.6650   35.2300   38.4600 C   0  0  0  0  0  0  0  0  0  0  0  0
   40.4340   35.1680   39.8400 C   0  0  0  0  0  0  0  0  0  0  0  0
   39.3140   34.4810   40.2280 C   0  0  0  0  0  0  0  0  0  0  0  0
   38.3960   33.8470   39.4100 C   0  0  0  0  0  0  0  0  0  0  0  0
   38.6450   33.9220   38.0460 C   0  0  0  0  0  0  0  0  0  0  0  0
   37.5410   33.1510   36.9190 Cl  0  0  0  0  0  0  0  0  0  0  0  0
   39.7630   34.6040   37.5960 C   0  0  0  0  0  0  0  0  0  0  0  0
   39.1000   34.4100   41.3000 H   0  0  0  0  0  0  0  0  0  0  0  0
   37.5400   33.3290   39.8210 H   0  0  0  0  0  0  0  0  0  0  0  0
   39.9290   34.6440   36.5220 H   0  0  0  0  0  0  0  0  0  0  0  0
  1 19  1  0  0  0  0
  1  2  1  0  0  0  0
  2  7  1  0  0  0  0
  3  2  2  0  0  0  0
  3  4  1  0  0  0  0
  4  5  2  0  0  0  0
  5  6  1  0  0  0  0
  6 10  1  0  0  0  0
  7  6  2  0  0  0  0
  8  3  1  0  0  0  0
  9  4  1  0  0  0  0
 10 11  2  0  0  0  0
 10 12  1  0  0  0  0
 12 18  1  0  0  0  0
 13 12  2  0  0  0  0
 13 15  1  0  0  0  0
 14 13  1  0  0  0  0
 15 16  1  0  0  0  0
 16 17  1  0  0  0  0
 18 16  2  0  0  0  0
 19 20  1  0  0  0  0
 21 19  1  0  0  0  0
 22 19  1  0  0  0  0
 22 24  1  0  0  0  0
 23 22  1  0  0  0  0
 25 26  1  0  0  0  0
 26 27  1  0  0  0  0
 27 28  2  0  0  0  0
 27 22  1  0  0  0  0
 28 33  1  0  0  0  0
 29 34  1  0  0  0  0
 29 28  1  0  0  0  0
 30 29  2  0  0  0  0
 31 30  1  0  0  0  0
 32 30  1  0  0  0  0
 32 26  2  0  0  0  0
 35 32  1  0  0  0  0
M  END
>  <minimizedAffinity>
-6.37109756

>  <minimizedRMSD>
0.574382961

$$$$
