
 OpenBabel03242514593D

 35 37  0  0  0  0  0  0  0  0999 V2000
   43.8830   34.7160   40.7650 S   0  0  0  0  0  0  0  0  0  0  0  0
   45.1450   34.4710   42.0130 C   0  0  0  0  0  0  0  0  0  0  0  0
   46.4750   34.4960   41.5690 C   0  0  0  0  0  0  0  0  0  0  0  0
   47.4930   34.3100   42.5080 C   0  0  0  0  0  0  0  0  0  0  0  0
   47.1400   34.1150   43.7970 N   0  0  0  0  0  0  0  0  0  0  0  0
   45.8730   34.0930   44.2140 C   0  0  0  0  0  0  0  0  0  0  0  0
   44.8870   34.2710   43.3170 N   0  0  0  0  0  0  0  0  0  0  0  0
   46.7840   34.6510   40.5430 H   0  0  0  0  0  0  0  0  0  0  0  0
   48.5330   34.3250   42.1910 H   0  0  0  0  0  0  0  0  0  0  0  0
   45.5860   33.8780   45.6170 C   0  0  0  0  0  0  0  0  0  0  0  0
   44.7750   34.6470   46.1780 O   0  0  0  0  0  0  0  0  0  0  0  0
   46.2800   32.7710   46.2590 C   0  0  0  0  0  0  0  0  0  0  0  0
   45.8340   31.5610   45.4560 C   0  0  0  0  0  0  0  0  0  0  0  0
   45.2680   31.0930   44.6500 H   0  0  0  0  0  0  0  0  0  0  0  0
   46.7980   30.2300   46.3920 S   0  0  0  0  0  0  0  0  0  0  0  0
   47.5580   31.4870   47.5980 C   0  0  0  0  0  0  0  0  0  0  0  0
   48.2620   31.8080   48.5450 H   0  0  0  0  0  0  0  0  0  0  0  0
   47.0940   32.6940   47.2640 N   0  0  0  0  0  0  0  0  0  0  0  0
   42.2390   34.8100   41.4630 C   0  0  0  0  0  0  0  0  0  0  0  0
   42.2960   34.9540   42.5690 H   0  0  0  0  0  0  0  0  0  0  0  0
   41.7600   33.8080   41.3350 H   0  0  0  0  0  0  0  0  0  0  0  0
   41.3560   35.8080   40.7950 C   0  0  0  0  0  0  0  0  0  0  0  0
   41.8990   36.6390   40.2940 H   0  0  0  0  0  0  0  0  0  0  0  0
   40.7250   36.2840   41.5940 H   0  0  0  0  0  0  0  0  0  0  0  0
   42.0550   36.0750   37.8540 Cl  0  0  0  0  0  0  0  0  0  0  0  0
   40.6650   35.2280   38.4600 C   0  0  0  0  0  0  0  0  0  0  0  0
   40.4340   35.1660   39.8410 C   0  0  0  0  0  0  0  0  0  0  0  0
   39.3140   34.4780   40.2280 C   0  0  0  0  0  0  0  0  0  0  0  0
   38.3950   33.8460   39.4100 C   0  0  0  0  0  0  0  0  0  0  0  0
   38.6440   33.9220   38.0470 C   0  0  0  0  0  0  0  0  0  0  0  0
   37.5390   33.1530   36.9190 Cl  0  0  0  0  0  0  0  0  0  0  0  0
   39.7620   34.6040   37.5970 C   0  0  0  0  0  0  0  0  0  0  0  0
   39.1010   34.4070   41.3000 H   0  0  0  0  0  0  0  0  0  0  0  0
   37.5400   33.3270   39.8210 H   0  0  0  0  0  0  0  0  0  0  0  0
   39.9280   34.6450   36.5220 H   0  0  0  0  0  0  0  0  0  0  0  0
  1 19  1  0  0  0  0
  1  2  1  0  0  0  0
  2  7  1  0  0  0  0
  3  2  2  0  0  0  0
  3  4  1  0  0  0  0
  4  5  2  0  0  0  0
  5  6  1  0  0  0  0
  6 10  1  0  0  0  0
  7  6  2  0  0  0  0
  8  3  1  0  0  0  0
  9  4  1  0  0  0  0
 10 11  2  0  0  0  0
 10 12  1  0  0  0  0
 12 18  1  0  0  0  0
 13 12  2  0  0  0  0
 13 15  1  0  0  0  0
 14 13  1  0  0  0  0
 15 16  1  0  0  0  0
 16 17  1  0  0  0  0
 18 16  2  0  0  0  0
 19 20  1  0  0  0  0
 21 19  1  0  0  0  0
 22 19  1  0  0  0  0
 22 24  1  0  0  0  0
 23 22  1  0  0  0  0
 25 26  1  0  0  0  0
 26 27  1  0  0  0  0
 27 28  2  0  0  0  0
 27 22  1  0  0  0  0
 28 33  1  0  0  0  0
 29 34  1  0  0  0  0
 29 28  1  0  0  0  0
 30 29  2  0  0  0  0
 31 30  1  0  0  0  0
 32 30  1  0  0  0  0
 32 26  2  0  0  0  0
 35 32  1  0  0  0  0
M  END
>  <minimizedAffinity>
-6.37120008

>  <minimizedRMSD>
0.585500717

$$$$
