
 OpenBabel03242515003D

 35 37  0  0  0  0  0  0  0  0999 V2000
   43.7920   34.7210   40.7770 S   0  0  0  0  0  0  0  0  0  0  0  0
   45.0810   34.4720   41.9970 C   0  0  0  0  0  0  0  0  0  0  0  0
   46.4010   34.6340   41.5520 C   0  0  0  0  0  0  0  0  0  0  0  0
   47.4390   34.4500   42.4690 C   0  0  0  0  0  0  0  0  0  0  0  0
   47.1140   34.1250   43.7390 N   0  0  0  0  0  0  0  0  0  0  0  0
   45.8560   33.9730   44.1570 C   0  0  0  0  0  0  0  0  0  0  0  0
   44.8510   34.1480   43.2810 N   0  0  0  0  0  0  0  0  0  0  0  0
   46.6870   34.8940   40.5400 H   0  0  0  0  0  0  0  0  0  0  0  0
   48.4720   34.5700   42.1510 H   0  0  0  0  0  0  0  0  0  0  0  0
   45.6000   33.6240   45.5390 C   0  0  0  0  0  0  0  0  0  0  0  0
   44.9650   34.4380   46.2450 O   0  0  0  0  0  0  0  0  0  0  0  0
   46.1130   32.3380   45.9900 C   0  0  0  0  0  0  0  0  0  0  0  0
   46.9140   32.6930   47.2310 C   0  0  0  0  0  0  0  0  0  0  0  0
   47.3040   33.4070   47.9560 H   0  0  0  0  0  0  0  0  0  0  0  0
   47.5050   30.9560   47.6910 S   0  0  0  0  0  0  0  0  0  0  0  0
   46.6140   30.1540   46.2170 C   0  0  0  0  0  0  0  0  0  0  0  0
   46.2830   29.2020   45.5220 H   0  0  0  0  0  0  0  0  0  0  0  0
   45.9950   31.1290   45.5430 N   0  0  0  0  0  0  0  0  0  0  0  0
   42.1780   34.9230   41.5180 C   0  0  0  0  0  0  0  0  0  0  0  0
   42.2780   35.1500   42.6080 H   0  0  0  0  0  0  0  0  0  0  0  0
   41.6650   33.9300   41.4850 H   0  0  0  0  0  0  0  0  0  0  0  0
   41.3020   35.8940   40.8030 C   0  0  0  0  0  0  0  0  0  0  0  0
   41.8500   36.7150   40.2890 H   0  0  0  0  0  0  0  0  0  0  0  0
   40.6510   36.3890   41.5740 H   0  0  0  0  0  0  0  0  0  0  0  0
   42.0470   36.1040   37.8680 Cl  0  0  0  0  0  0  0  0  0  0  0  0
   40.6580   35.2520   38.4710 C   0  0  0  0  0  0  0  0  0  0  0  0
   40.4050   35.2180   39.8490 C   0  0  0  0  0  0  0  0  0  0  0  0
   39.2880   34.5240   40.2340 C   0  0  0  0  0  0  0  0  0  0  0  0
   38.3920   33.8600   39.4150 C   0  0  0  0  0  0  0  0  0  0  0  0
   38.6620   33.9090   38.0550 C   0  0  0  0  0  0  0  0  0  0  0  0
   37.5870   33.0990   36.9270 Cl  0  0  0  0  0  0  0  0  0  0  0  0
   39.7780   34.5960   37.6080 C   0  0  0  0  0  0  0  0  0  0  0  0
   39.0580   34.4730   41.3030 H   0  0  0  0  0  0  0  0  0  0  0  0
   37.5370   33.3400   39.8240 H   0  0  0  0  0  0  0  0  0  0  0  0
   39.9610   34.6150   36.5350 H   0  0  0  0  0  0  0  0  0  0  0  0
  1 19  1  0  0  0  0
  1  2  1  0  0  0  0
  2  7  1  0  0  0  0
  3  2  2  0  0  0  0
  3  4  1  0  0  0  0
  4  5  2  0  0  0  0
  5  6  1  0  0  0  0
  6 10  1  0  0  0  0
  7  6  2  0  0  0  0
  8  3  1  0  0  0  0
  9  4  1  0  0  0  0
 10 12  1  0  0  0  0
 10 11  2  0  0  0  0
 12 13  2  0  0  0  0
 13 15  1  0  0  0  0
 13 14  1  0  0  0  0
 16 15  1  0  0  0  0
 17 16  1  0  0  0  0
 18 12  1  0  0  0  0
 18 16  2  0  0  0  0
 19 20  1  0  0  0  0
 21 19  1  0  0  0  0
 22 19  1  0  0  0  0
 22 24  1  0  0  0  0
 23 22  1  0  0  0  0
 25 26  1  0  0  0  0
 26 27  1  0  0  0  0
 27 28  2  0  0  0  0
 27 22  1  0  0  0  0
 28 33  1  0  0  0  0
 29 34  1  0  0  0  0
 29 28  1  0  0  0  0
 30 29  2  0  0  0  0
 31 30  1  0  0  0  0
 32 30  1  0  0  0  0
 32 26  2  0  0  0  0
 35 32  1  0  0  0  0
M  END
>  <minimizedAffinity>
-6.29583693

>  <minimizedRMSD>
0.73004365

$$$$
