
 OpenBabel03252509193D

 41 44  0  0  1  0  0  0  0  0999 V2000
   48.9770   29.2440   47.9840 C   0  0  1  0  0  0  0  0  0  0  0  0
   49.2640   28.4830   46.7240 C   0  0  0  0  0  0  0  0  0  0  0  0
   50.6900   28.0100   46.5930 C   0  0  0  0  0  0  0  0  0  0  0  0
   51.2430   27.4240   47.8560 C   0  0  0  0  0  0  0  0  0  0  0  0
   50.8700   28.2170   49.0830 C   0  0  0  0  0  0  0  0  0  0  0  0
   50.3110   29.5820   48.6570 C   0  0  2  0  0  0  0  0  0  0  0  0
   48.4480   28.5950   48.7150 H   0  0  0  0  0  0  0  0  0  0  0  0
   48.6170   27.5820   46.7140 H   0  0  0  0  0  0  0  0  0  0  0  0
   49.0130   29.0360   45.7960 H   0  0  0  0  0  0  0  0  0  0  0  0
   50.6880   27.2210   45.8310 H   0  0  0  0  0  0  0  0  0  0  0  0
   51.2900   28.8750   46.2300 H   0  0  0  0  0  0  0  0  0  0  0  0
   52.3580   27.3850   47.7110 H   0  0  0  0  0  0  0  0  0  0  0  0
   50.8650   26.3860   47.9300 H   0  0  0  0  0  0  0  0  0  0  0  0
   50.1080   27.7390   49.7070 H   0  0  0  0  0  0  0  0  0  0  0  0
   51.8060   28.4510   49.6440 H   0  0  0  0  0  0  0  0  0  0  0  0
   50.9990   30.0380   47.8930 H   0  0  0  0  0  0  0  0  0  0  0  0
   46.7790   32.4200   46.6450 C   0  0  0  0  0  0  0  0  0  0  0  0
   46.7820   32.3310   48.0330 C   0  0  0  0  0  0  0  0  0  0  0  0
   47.4840   31.3130   48.5780 C   0  0  0  0  0  0  0  0  0  0  0  0
   48.1710   30.3960   47.7640 C   0  0  0  0  0  0  0  0  0  0  0  0
   47.8130   30.9970   46.0860 S   0  0  0  0  0  0  0  0  0  0  0  0
   46.2500   33.0410   48.6490 H   0  0  0  0  0  0  0  0  0  0  0  0
   47.5910   31.0980   49.6290 H   0  0  0  0  0  0  0  0  0  0  0  0
   44.5850   35.2050   45.4850 C   0  0  0  0  0  0  0  0  0  0  0  0
   45.0430   35.3460   44.1770 C   0  0  0  0  0  0  0  0  0  0  0  0
   46.0640   34.5010   43.7300 C   0  0  0  0  0  0  0  0  0  0  0  0
   46.5560   33.5790   44.6170 N   0  0  0  0  0  0  0  0  0  0  0  0
   46.0920   33.4710   45.8690 C   0  0  0  0  0  0  0  0  0  0  0  0
   45.0970   34.2950   46.3020 N   0  0  0  0  0  0  0  0  0  0  0  0
   43.7970   35.8470   45.8500 H   0  0  0  0  0  0  0  0  0  0  0  0
   44.6490   36.0730   43.4910 H   0  0  0  0  0  0  0  0  0  0  0  0
   46.4900   34.5290   42.7330 H   0  0  0  0  0  0  0  0  0  0  0  0
   50.1290   30.4410   49.8220 C   0  0  0  0  0  0  0  0  0  0  0  0
   49.3960   30.0860   50.7710 O   0  0  0  0  0  0  0  0  0  0  0  0
   50.6560   31.7380   50.1840 C   0  0  0  0  0  0  0  0  0  0  0  0
   51.1600   31.6730   51.6630 C   0  0  0  0  0  0  0  0  0  0  0  0
   51.2770   31.0170   52.6110 H   0  0  0  0  0  0  0  0  0  0  0  0
   51.7980   33.2950   51.9570 S   0  0  0  0  0  0  0  0  0  0  0  0
   51.3870   33.9130   50.2280 C   0  0  0  0  0  0  0  0  0  0  0  0
   51.4940   34.8620   49.6470 H   0  0  0  0  0  0  0  0  0  0  0  0
   50.9680   32.9500   49.9390 N   0  0  0  0  0  0  0  0  0  0  0  0
  1  6  1  0  0  0  0
  1  7  1  1  0  0  0
  2  1  1  0  0  0  0
  3  2  1  0  0  0  0
  3  4  1  0  0  0  0
  4 13  1  0  0  0  0
  4  5  1  0  0  0  0
  5 15  1  0  0  0  0
  5 14  1  0  0  0  0
  6 16  1  6  0  0  0
  6  5  1  0  0  0  0
  6 33  1  0  0  0  0
  8  2  1  0  0  0  0
  9  2  1  0  0  0  0
 10  3  1  0  0  0  0
 11  3  1  0  0  0  0
 12  4  1  0  0  0  0
 17 18  2  0  0  0  0
 18 19  1  0  0  0  0
 18 22  1  0  0  0  0
 19 23  1  0  0  0  0
 20  1  1  0  0  0  0
 20 19  2  0  0  0  0
 21 17  1  0  0  0  0
 21 20  1  0  0  0  0
 24 30  1  0  0  0  0
 24 29  1  0  0  0  0
 25 24  2  0  0  0  0
 26 25  1  0  0  0  0
 26 27  2  0  0  0  0
 27 28  1  0  0  0  0
 28 29  2  0  0  0  0
 28 17  1  0  0  0  0
 31 25  1  0  0  0  0
 32 26  1  0  0  0  0
 33 35  1  0  0  0  0
 33 34  2  0  0  0  0
 35 36  2  0  0  0  0
 36 38  1  0  0  0  0
 36 37  1  0  0  0  0
 39 38  1  0  0  0  0
 40 39  1  0  0  0  0
 41 35  1  0  0  0  0
 41 39  2  0  0  0  0
M  END
>  <minimizedAffinity>
-5.09466696

>  <minimizedRMSD>
2.0868113

$$$$
