
 OpenBabel03252509193D

 41 44  0  0  1  0  0  0  0  0999 V2000
   36.5780   30.5380   38.1420 C   0  0  1  0  0  0  0  0  0  0  0  0
   37.0290   30.3890   36.7200 C   0  0  0  0  0  0  0  0  0  0  0  0
   36.8880   28.9950   36.1630 C   0  0  0  0  0  0  0  0  0  0  0  0
   35.5850   28.3420   36.5120 C   0  0  0  0  0  0  0  0  0  0  0  0
   35.1750   28.5780   37.9440 C   0  0  0  0  0  0  0  0  0  0  0  0
   36.3690   29.1390   38.7300 C   0  0  2  0  0  0  0  0  0  0  0  0
   35.5740   31.0140   38.1810 H   0  0  0  0  0  0  0  0  0  0  0  0
   36.4050   31.0580   36.0920 H   0  0  0  0  0  0  0  0  0  0  0  0
   38.0760   30.7110   36.5440 H   0  0  0  0  0  0  0  0  0  0  0  0
   36.9340   29.0890   35.0720 H   0  0  0  0  0  0  0  0  0  0  0  0
   37.7640   28.4080   36.5230 H   0  0  0  0  0  0  0  0  0  0  0  0
   35.7260   27.2470   36.2970 H   0  0  0  0  0  0  0  0  0  0  0  0
   34.8220   28.7390   35.8150 H   0  0  0  0  0  0  0  0  0  0  0  0
   34.3520   29.2910   38.0590 H   0  0  0  0  0  0  0  0  0  0  0  0
   34.9600   27.5880   38.4120 H   0  0  0  0  0  0  0  0  0  0  0  0
   37.2780   28.5130   38.5120 H   0  0  0  0  0  0  0  0  0  0  0  0
   39.6410   32.3610   40.1440 C   0  0  0  0  0  0  0  0  0  0  0  0
   38.4190   32.9870   40.3710 C   0  0  0  0  0  0  0  0  0  0  0  0
   37.3390   32.4580   39.7550 C   0  0  0  0  0  0  0  0  0  0  0  0
   37.4640   31.3300   38.9250 C   0  0  0  0  0  0  0  0  0  0  0  0
   39.2430   30.9650   39.0040 S   0  0  0  0  0  0  0  0  0  0  0  0
   38.3340   33.8530   41.0100 H   0  0  0  0  0  0  0  0  0  0  0  0
   36.3240   32.8150   39.8210 H   0  0  0  0  0  0  0  0  0  0  0  0
   42.7560   34.1610   41.1280 C   0  0  0  0  0  0  0  0  0  0  0  0
   43.2760   33.2590   42.0540 C   0  0  0  0  0  0  0  0  0  0  0  0
   42.5670   32.0810   42.3120 C   0  0  0  0  0  0  0  0  0  0  0  0
   41.3940   31.8860   41.6290 N   0  0  0  0  0  0  0  0  0  0  0  0
   40.9240   32.7760   40.7440 C   0  0  0  0  0  0  0  0  0  0  0  0
   41.6160   33.9220   40.4950 N   0  0  0  0  0  0  0  0  0  0  0  0
   43.2880   35.0760   40.9140 H   0  0  0  0  0  0  0  0  0  0  0  0
   44.1960   33.4240   42.5830 H   0  0  0  0  0  0  0  0  0  0  0  0
   42.8830   31.3170   43.0120 H   0  0  0  0  0  0  0  0  0  0  0  0
   36.0600   29.1890   40.1540 C   0  0  0  0  0  0  0  0  0  0  0  0
   34.8770   29.2860   40.5500 O   0  0  0  0  0  0  0  0  0  0  0  0
   36.8790   29.1380   41.3450 C   0  0  0  0  0  0  0  0  0  0  0  0
   36.5280   27.8350   42.1330 C   0  0  0  0  0  0  0  0  0  0  0  0
   35.8660   26.8830   42.1750 H   0  0  0  0  0  0  0  0  0  0  0  0
   37.6120   27.8860   43.5270 S   0  0  0  0  0  0  0  0  0  0  0  0
   38.4060   29.5130   43.0170 C   0  0  0  0  0  0  0  0  0  0  0  0
   39.1960   30.2000   43.4070 H   0  0  0  0  0  0  0  0  0  0  0  0
   37.7860   29.5820   42.1230 N   0  0  0  0  0  0  0  0  0  0  0  0
  1  7  1  6  0  0  0
  1  6  1  0  0  0  0
  1 20  1  0  0  0  0
  2  1  1  0  0  0  0
  3  4  1  0  0  0  0
  3 11  1  0  0  0  0
  3  2  1  0  0  0  0
  4  5  1  0  0  0  0
  5 14  1  0  0  0  0
  5 15  1  0  0  0  0
  5  6  1  0  0  0  0
  6 16  1  6  0  0  0
  6 33  1  0  0  0  0
  8  2  1  0  0  0  0
  9  2  1  0  0  0  0
 10  3  1  0  0  0  0
 12  4  1  0  0  0  0
 13  4  1  0  0  0  0
 17 18  2  0  0  0  0
 17 28  1  0  0  0  0
 18 22  1  0  0  0  0
 19 23  1  0  0  0  0
 19 18  1  0  0  0  0
 20 21  1  0  0  0  0
 20 19  2  0  0  0  0
 21 17  1  0  0  0  0
 24 25  1  0  0  0  0
 25 26  2  0  0  0  0
 25 31  1  0  0  0  0
 26 32  1  0  0  0  0
 27 26  1  0  0  0  0
 28 27  2  0  0  0  0
 29 28  1  0  0  0  0
 29 24  2  0  0  0  0
 30 24  1  0  0  0  0
 33 34  2  0  0  0  0
 33 35  1  0  0  0  0
 35 41  1  0  0  0  0
 35 36  2  0  0  0  0
 36 37  1  0  0  0  0
 36 38  1  0  0  0  0
 39 40  1  0  0  0  0
 39 38  1  0  0  0  0
 41 39  2  0  0  0  0
M  END
>  <minimizedAffinity>
-5.52980518

$$$$

 OpenBabel03252509193D

 41 44  0  0  1  0  0  0  0  0999 V2000
   37.3760   27.3020   42.1700 C   0  0  1  0  0  0  0  0  0  0  0  0
   37.3390   25.8040   42.1370 C   0  0  0  0  0  0  0  0  0  0  0  0
   38.6800   25.1410   42.3200 C   0  0  0  0  0  0  0  0  0  0  0  0
   39.5040   25.7540   43.4110 C   0  0  0  0  0  0  0  0  0  0  0  0
   39.4530   27.2610   43.4090 C   0  0  0  0  0  0  0  0  0  0  0  0
   38.8400   27.7490   42.0890 C   0  0  2  0  0  0  0  0  0  0  0  0
   37.0210   27.6760   43.1550 H   0  0  0  0  0  0  0  0  0  0  0  0
   36.6860   25.4600   42.9660 H   0  0  0  0  0  0  0  0  0  0  0  0
   36.8870   25.3850   41.2140 H   0  0  0  0  0  0  0  0  0  0  0  0
   38.4790   24.1000   42.5980 H   0  0  0  0  0  0  0  0  0  0  0  0
   39.1980   25.1690   41.3330 H   0  0  0  0  0  0  0  0  0  0  0  0
   40.5520   25.3760   43.2510 H   0  0  0  0  0  0  0  0  0  0  0  0
   39.1310   25.3510   44.3720 H   0  0  0  0  0  0  0  0  0  0  0  0
   38.8500   27.6870   44.2180 H   0  0  0  0  0  0  0  0  0  0  0  0
   40.5000   27.6460   43.4010 H   0  0  0  0  0  0  0  0  0  0  0  0
   39.3370   27.2130   41.2340 H   0  0  0  0  0  0  0  0  0  0  0  0
   35.3950   28.5580   38.8220 C   0  0  0  0  0  0  0  0  0  0  0  0
   34.9840   29.2400   39.9630 C   0  0  0  0  0  0  0  0  0  0  0  0
   35.5810   28.9000   41.1260 C   0  0  0  0  0  0  0  0  0  0  0  0
   36.5690   27.9000   41.1620 C   0  0  0  0  0  0  0  0  0  0  0  0
   36.6820   27.3800   39.4240 S   0  0  0  0  0  0  0  0  0  0  0  0
   34.2240   30.0060   39.9230 H   0  0  0  0  0  0  0  0  0  0  0  0
   35.3850   29.3260   42.0970 H   0  0  0  0  0  0  0  0  0  0  0  0
   34.9890   29.1190   35.1570 C   0  0  0  0  0  0  0  0  0  0  0  0
   33.6030   29.2380   35.0810 C   0  0  0  0  0  0  0  0  0  0  0  0
   32.8560   29.1310   36.2590 C   0  0  0  0  0  0  0  0  0  0  0  0
   33.5430   28.9130   37.4260 N   0  0  0  0  0  0  0  0  0  0  0  0
   34.8780   28.8040   37.4610 C   0  0  0  0  0  0  0  0  0  0  0  0
   35.6030   28.9090   36.3130 N   0  0  0  0  0  0  0  0  0  0  0  0
   35.5840   29.2000   34.2590 H   0  0  0  0  0  0  0  0  0  0  0  0
   33.0770   29.4090   34.1600 H   0  0  0  0  0  0  0  0  0  0  0  0
   31.7760   29.2070   36.3090 H   0  0  0  0  0  0  0  0  0  0  0  0
   38.9600   29.1980   41.9780 C   0  0  0  0  0  0  0  0  0  0  0  0
   38.7400   29.9360   42.9630 O   0  0  0  0  0  0  0  0  0  0  0  0
   39.3200   30.0790   40.8890 C   0  0  0  0  0  0  0  0  0  0  0  0
   38.4310   31.3610   40.9730 C   0  0  0  0  0  0  0  0  0  0  0  0
   37.5790   31.9070   41.5410 H   0  0  0  0  0  0  0  0  0  0  0  0
   38.9940   32.3480   39.6200 S   0  0  0  0  0  0  0  0  0  0  0  0
   40.2810   31.0930   39.0670 C   0  0  0  0  0  0  0  0  0  0  0  0
   41.0490   31.0030   38.2600 H   0  0  0  0  0  0  0  0  0  0  0  0
   40.0130   30.4040   39.8690 N   0  0  0  0  0  0  0  0  0  0  0  0
  1  7  1  1  0  0  0
  2  1  1  0  0  0  0
  2  3  1  0  0  0  0
  2  8  1  0  0  0  0
  3 10  1  0  0  0  0
  3  4  1  0  0  0  0
  4 13  1  0  0  0  0
  5  4  1  0  0  0  0
  5 14  1  0  0  0  0
  6 16  1  6  0  0  0
  6  1  1  0  0  0  0
  6  5  1  0  0  0  0
  9  2  1  0  0  0  0
 11  3  1  0  0  0  0
 12  4  1  0  0  0  0
 15  5  1  0  0  0  0
 17 21  1  0  0  0  0
 17 18  2  0  0  0  0
 18 19  1  0  0  0  0
 19 20  2  0  0  0  0
 19 23  1  0  0  0  0
 20  1  1  0  0  0  0
 21 20  1  0  0  0  0
 22 18  1  0  0  0  0
 24 29  1  0  0  0  0
 25 24  2  0  0  0  0
 25 26  1  0  0  0  0
 26 32  1  0  0  0  0
 26 27  2  0  0  0  0
 27 28  1  0  0  0  0
 28 17  1  0  0  0  0
 29 28  2  0  0  0  0
 30 24  1  0  0  0  0
 31 25  1  0  0  0  0
 33  6  1  0  0  0  0
 33 34  2  0  0  0  0
 35 36  2  0  0  0  0
 35 33  1  0  0  0  0
 36 37  1  0  0  0  0
 38 36  1  0  0  0  0
 39 38  1  0  0  0  0
 39 41  2  0  0  0  0
 40 39  1  0  0  0  0
 41 35  1  0  0  0  0
M  END
>  <minimizedAffinity>
-5.40765572

$$$$

 OpenBabel03252509193D

 41 44  0  0  1  0  0  0  0  0999 V2000
   36.2180   29.9890   37.9540 C   0  0  1  0  0  0  0  0  0  0  0  0
   35.8800   29.3030   36.6650 C   0  0  0  0  0  0  0  0  0  0  0  0
   34.9540   28.1230   36.8100 C   0  0  0  0  0  0  0  0  0  0  0  0
   33.8070   28.3750   37.7400 C   0  0  0  0  0  0  0  0  0  0  0  0
   34.2160   29.1120   38.9900 C   0  0  0  0  0  0  0  0  0  0  0  0
   35.7470   29.1000   39.1100 C   0  0  2  0  0  0  0  0  0  0  0  0
   35.6280   30.9250   38.0590 H   0  0  0  0  0  0  0  0  0  0  0  0
   35.3730   30.0400   36.0080 H   0  0  0  0  0  0  0  0  0  0  0  0
   36.7660   28.9590   36.0920 H   0  0  0  0  0  0  0  0  0  0  0  0
   34.5400   27.9270   35.8140 H   0  0  0  0  0  0  0  0  0  0  0  0
   35.5760   27.2550   37.1310 H   0  0  0  0  0  0  0  0  0  0  0  0
   33.3790   27.3620   37.9780 H   0  0  0  0  0  0  0  0  0  0  0  0
   33.0470   28.9510   37.1770 H   0  0  0  0  0  0  0  0  0  0  0  0
   33.9010   30.1600   39.0130 H   0  0  0  0  0  0  0  0  0  0  0  0
   33.8540   28.5310   39.8720 H   0  0  0  0  0  0  0  0  0  0  0  0
   36.1210   28.0530   38.9390 H   0  0  0  0  0  0  0  0  0  0  0  0
   39.9310   31.6460   38.3760 C   0  0  0  0  0  0  0  0  0  0  0  0
   39.9910   30.2790   38.1250 C   0  0  0  0  0  0  0  0  0  0  0  0
   38.8140   29.6350   37.9670 C   0  0  0  0  0  0  0  0  0  0  0  0
   37.5960   30.3310   38.0570 C   0  0  0  0  0  0  0  0  0  0  0  0
   38.1270   32.0360   38.3930 S   0  0  0  0  0  0  0  0  0  0  0  0
   40.9330   29.7550   38.0580 H   0  0  0  0  0  0  0  0  0  0  0  0
   38.6790   28.5840   37.7680 H   0  0  0  0  0  0  0  0  0  0  0  0
   42.7560   33.6750   39.7250 C   0  0  0  0  0  0  0  0  0  0  0  0
   43.3020   34.1510   38.5350 C   0  0  0  0  0  0  0  0  0  0  0  0
   42.7040   33.7800   37.3270 C   0  0  0  0  0  0  0  0  0  0  0  0
   41.6050   32.9620   37.3900 N   0  0  0  0  0  0  0  0  0  0  0  0
   41.1050   32.5230   38.5530 C   0  0  0  0  0  0  0  0  0  0  0  0
   41.6900   32.8860   39.7280 N   0  0  0  0  0  0  0  0  0  0  0  0
   43.2020   33.9510   40.6690 H   0  0  0  0  0  0  0  0  0  0  0  0
   44.1640   34.7920   38.4980 H   0  0  0  0  0  0  0  0  0  0  0  0
   43.0500   34.0940   36.3490 H   0  0  0  0  0  0  0  0  0  0  0  0
   36.1590   29.6300   40.4050 C   0  0  0  0  0  0  0  0  0  0  0  0
   35.7790   30.7600   40.7840 O   0  0  0  0  0  0  0  0  0  0  0  0
   36.9800   29.1030   41.4720 C   0  0  0  0  0  0  0  0  0  0  0  0
   37.1250   27.5600   41.2700 C   0  0  0  0  0  0  0  0  0  0  0  0
   36.8340   26.6420   40.6240 H   0  0  0  0  0  0  0  0  0  0  0  0
   38.1650   27.0610   42.6090 S   0  0  0  0  0  0  0  0  0  0  0  0
   38.3320   28.8010   43.3020 C   0  0  0  0  0  0  0  0  0  0  0  0
   38.8470   29.2980   44.1610 H   0  0  0  0  0  0  0  0  0  0  0  0
   37.7000   29.2180   42.5180 N   0  0  0  0  0  0  0  0  0  0  0  0
  1 20  1  0  0  0  0
  1  7  1  1  0  0  0
  1  6  1  0  0  0  0
  2  3  1  0  0  0  0
  2  1  1  0  0  0  0
  3 11  1  0  0  0  0
  3  4  1  0  0  0  0
  4 12  1  0  0  0  0
  4  5  1  0  0  0  0
  5 14  1  0  0  0  0
  5  6  1  0  0  0  0
  5 15  1  0  0  0  0
  6 16  1  6  0  0  0
  6 33  1  0  0  0  0
  8  2  1  0  0  0  0
  9  2  1  0  0  0  0
 10  3  1  0  0  0  0
 13  4  1  0  0  0  0
 17 21  1  0  0  0  0
 17 28  1  0  0  0  0
 18 17  2  0  0  0  0
 19 20  2  0  0  0  0
 19 18  1  0  0  0  0
 20 21  1  0  0  0  0
 22 18  1  0  0  0  0
 23 19  1  0  0  0  0
 24 29  1  0  0  0  0
 24 30  1  0  0  0  0
 25 24  2  0  0  0  0
 26 27  2  0  0  0  0
 26 25  1  0  0  0  0
 27 28  1  0  0  0  0
 28 29  2  0  0  0  0
 31 25  1  0  0  0  0
 32 26  1  0  0  0  0
 33 34  2  0  0  0  0
 33 35  1  0  0  0  0
 35 41  1  0  0  0  0
 36 35  2  0  0  0  0
 36 38  1  0  0  0  0
 37 36  1  0  0  0  0
 38 39  1  0  0  0  0
 39 40  1  0  0  0  0
 41 39  2  0  0  0  0
M  END
>  <minimizedAffinity>
-5.26403332

$$$$

 OpenBabel03252509193D

 41 44  0  0  1  0  0  0  0  0999 V2000
   39.3080   26.6880   41.5970 C   0  0  1  0  0  0  0  0  0  0  0  0
   40.1470   25.4520   41.7260 C   0  0  0  0  0  0  0  0  0  0  0  0
   39.5120   24.3480   42.5320 C   0  0  0  0  0  0  0  0  0  0  0  0
   38.0650   24.1290   42.2090 C   0  0  0  0  0  0  0  0  0  0  0  0
   37.2990   25.4170   42.0450 C   0  0  0  0  0  0  0  0  0  0  0  0
   38.1410   26.5830   42.5840 C   0  0  2  0  0  0  0  0  0  0  0  0
   38.8270   26.7240   40.5950 H   0  0  0  0  0  0  0  0  0  0  0  0
   40.3270   25.0530   40.7070 H   0  0  0  0  0  0  0  0  0  0  0  0
   41.1550   25.6350   42.1530 H   0  0  0  0  0  0  0  0  0  0  0  0
   40.0530   23.4280   42.2830 H   0  0  0  0  0  0  0  0  0  0  0  0
   39.6720   24.5930   43.6080 H   0  0  0  0  0  0  0  0  0  0  0  0
   37.6550   23.5070   43.0520 H   0  0  0  0  0  0  0  0  0  0  0  0
   38.0230   23.5280   41.2800 H   0  0  0  0  0  0  0  0  0  0  0  0
   37.0480   25.6570   41.0070 H   0  0  0  0  0  0  0  0  0  0  0  0
   36.4030   25.3770   42.7100 H   0  0  0  0  0  0  0  0  0  0  0  0
   38.5450   26.3060   43.5970 H   0  0  0  0  0  0  0  0  0  0  0  0
   41.2930   30.2540   41.3760 C   0  0  0  0  0  0  0  0  0  0  0  0
   41.3700   29.6880   42.6440 C   0  0  0  0  0  0  0  0  0  0  0  0
   40.7450   28.5030   42.8220 C   0  0  0  0  0  0  0  0  0  0  0  0
   40.0550   27.8870   41.7640 C   0  0  0  0  0  0  0  0  0  0  0  0
   40.2910   29.0570   40.3930 S   0  0  0  0  0  0  0  0  0  0  0  0
   41.9020   30.1700   43.4500 H   0  0  0  0  0  0  0  0  0  0  0  0
   40.7050   27.9290   43.7340 H   0  0  0  0  0  0  0  0  0  0  0  0
   43.6790   32.9970   40.5400 C   0  0  0  0  0  0  0  0  0  0  0  0
   42.7810   33.9990   40.1800 C   0  0  0  0  0  0  0  0  0  0  0  0
   41.4110   33.7210   40.2340 C   0  0  0  0  0  0  0  0  0  0  0  0
   41.0350   32.4680   40.6420 N   0  0  0  0  0  0  0  0  0  0  0  0
   41.9270   31.5270   40.9820 C   0  0  0  0  0  0  0  0  0  0  0  0
   43.2610   31.8000   40.9290 N   0  0  0  0  0  0  0  0  0  0  0  0
   44.7410   33.1900   40.5060 H   0  0  0  0  0  0  0  0  0  0  0  0
   43.0890   34.9770   39.8600 H   0  0  0  0  0  0  0  0  0  0  0  0
   40.6320   34.4290   39.9740 H   0  0  0  0  0  0  0  0  0  0  0  0
   37.3480   27.8070   42.6210 C   0  0  0  0  0  0  0  0  0  0  0  0
   37.2380   28.4660   43.6780 O   0  0  0  0  0  0  0  0  0  0  0  0
   36.5880   28.5210   41.6190 C   0  0  0  0  0  0  0  0  0  0  0  0
   37.0380   30.0170   41.6290 C   0  0  0  0  0  0  0  0  0  0  0  0
   37.7240   30.8140   42.1200 H   0  0  0  0  0  0  0  0  0  0  0  0
   36.0630   30.7540   40.3520 S   0  0  0  0  0  0  0  0  0  0  0  0
   35.1850   29.1490   39.9150 C   0  0  0  0  0  0  0  0  0  0  0  0
   34.4070   28.8090   39.1880 H   0  0  0  0  0  0  0  0  0  0  0  0
   35.7330   28.5940   40.6770 N   0  0  0  0  0  0  0  0  0  0  0  0
  1  7  1  6  0  0  0
  1  2  1  0  0  0  0
  1 20  1  0  0  0  0
  1  6  1  0  0  0  0
  2  9  1  0  0  0  0
  2  3  1  0  0  0  0
  3 11  1  0  0  0  0
  4  3  1  0  0  0  0
  4 12  1  0  0  0  0
  5  4  1  0  0  0  0
  5  6  1  0  0  0  0
  5 15  1  0  0  0  0
  6 33  1  0  0  0  0
  6 16  1  1  0  0  0
  8  2  1  0  0  0  0
 10  3  1  0  0  0  0
 13  4  1  0  0  0  0
 14  5  1  0  0  0  0
 17 18  2  0  0  0  0
 18 19  1  0  0  0  0
 18 22  1  0  0  0  0
 19 23  1  0  0  0  0
 20 19  2  0  0  0  0
 21 17  1  0  0  0  0
 21 20  1  0  0  0  0
 24 29  1  0  0  0  0
 25 26  1  0  0  0  0
 25 24  2  0  0  0  0
 26 27  2  0  0  0  0
 27 28  1  0  0  0  0
 28 17  1  0  0  0  0
 29 28  2  0  0  0  0
 30 24  1  0  0  0  0
 31 25  1  0  0  0  0
 32 26  1  0  0  0  0
 33 34  2  0  0  0  0
 35 36  2  0  0  0  0
 35 33  1  0  0  0  0
 36 37  1  0  0  0  0
 38 36  1  0  0  0  0
 39 38  1  0  0  0  0
 39 41  2  0  0  0  0
 40 39  1  0  0  0  0
 41 35  1  0  0  0  0
M  END
>  <minimizedAffinity>
-5.19199705

$$$$

 OpenBabel03252509193D

 41 44  0  0  1  0  0  0  0  0999 V2000
   37.3550   25.5490   41.3750 C   0  0  1  0  0  0  0  0  0  0  0  0
   36.5620   25.1770   40.1580 C   0  0  0  0  0  0  0  0  0  0  0  0
   37.1750   24.0810   39.3250 C   0  0  0  0  0  0  0  0  0  0  0  0
   37.7060   22.9400   40.1360 C   0  0  0  0  0  0  0  0  0  0  0  0
   38.4490   23.3920   41.3690 C   0  0  0  0  0  0  0  0  0  0  0  0
   38.7370   24.8960   41.2670 C   0  0  2  0  0  0  0  0  0  0  0  0
   36.9010   25.0990   42.2840 H   0  0  0  0  0  0  0  0  0  0  0  0
   35.5680   24.8170   40.4950 H   0  0  0  0  0  0  0  0  0  0  0  0
   36.3520   26.0300   39.4800 H   0  0  0  0  0  0  0  0  0  0  0  0
   36.3760   23.6920   38.6840 H   0  0  0  0  0  0  0  0  0  0  0  0
   37.9620   24.5520   38.6920 H   0  0  0  0  0  0  0  0  0  0  0  0
   38.3720   22.3560   39.4430 H   0  0  0  0  0  0  0  0  0  0  0  0
   36.8440   22.3020   40.4110 H   0  0  0  0  0  0  0  0  0  0  0  0
   37.8990   23.2340   42.3020 H   0  0  0  0  0  0  0  0  0  0  0  0
   39.4530   22.9050   41.3690 H   0  0  0  0  0  0  0  0  0  0  0  0
   39.1660   25.1200   40.2510 H   0  0  0  0  0  0  0  0  0  0  0  0
   37.7890   29.6120   41.2640 C   0  0  0  0  0  0  0  0  0  0  0  0
   37.3560   29.1640   42.5080 C   0  0  0  0  0  0  0  0  0  0  0  0
   37.1830   27.8310   42.6500 C   0  0  0  0  0  0  0  0  0  0  0  0
   37.4320   26.9550   41.5800 C   0  0  0  0  0  0  0  0  0  0  0  0
   37.9540   28.0790   40.2500 S   0  0  0  0  0  0  0  0  0  0  0  0
   37.1670   29.8460   43.3230 H   0  0  0  0  0  0  0  0  0  0  0  0
   36.8560   27.3180   43.5400 H   0  0  0  0  0  0  0  0  0  0  0  0
   39.2480   33.0230   40.8760 C   0  0  0  0  0  0  0  0  0  0  0  0
   38.2580   33.6240   40.1020 C   0  0  0  0  0  0  0  0  0  0  0  0
   37.1380   32.8680   39.7420 C   0  0  0  0  0  0  0  0  0  0  0  0
   37.0830   31.5700   40.1790 N   0  0  0  0  0  0  0  0  0  0  0  0
   38.0550   31.0230   40.9230 C   0  0  0  0  0  0  0  0  0  0  0  0
   39.1450   31.7620   41.2720 N   0  0  0  0  0  0  0  0  0  0  0  0
   40.1210   33.5890   41.1650 H   0  0  0  0  0  0  0  0  0  0  0  0
   38.3120   34.6430   39.7660 H   0  0  0  0  0  0  0  0  0  0  0  0
   36.3140   33.2400   39.1440 H   0  0  0  0  0  0  0  0  0  0  0  0
   39.6230   25.3180   42.3460 C   0  0  0  0  0  0  0  0  0  0  0  0
   39.6300   24.7130   43.4410 O   0  0  0  0  0  0  0  0  0  0  0  0
   40.6050   26.3720   42.4630 C   0  0  0  0  0  0  0  0  0  0  0  0
   41.9650   25.7370   42.8980 C   0  0  0  0  0  0  0  0  0  0  0  0
   42.5240   24.7630   43.1870 H   0  0  0  0  0  0  0  0  0  0  0  0
   43.0660   27.1180   42.9690 S   0  0  0  0  0  0  0  0  0  0  0  0
   41.7520   28.3600   42.4540 C   0  0  0  0  0  0  0  0  0  0  0  0
   41.6870   29.4620   42.2740 H   0  0  0  0  0  0  0  0  0  0  0  0
   40.9900   27.5850   42.3780 N   0  0  0  0  0  0  0  0  0  0  0  0
  1 20  1  0  0  0  0
  1  7  1  1  0  0  0
  2  8  1  0  0  0  0
  2  1  1  0  0  0  0
  3  4  1  0  0  0  0
  3  2  1  0  0  0  0
  4 13  1  0  0  0  0
  4  5  1  0  0  0  0
  5 14  1  0  0  0  0
  6 16  1  6  0  0  0
  6  5  1  0  0  0  0
  6  1  1  0  0  0  0
  6 33  1  0  0  0  0
  9  2  1  0  0  0  0
 10  3  1  0  0  0  0
 11  3  1  0  0  0  0
 12  4  1  0  0  0  0
 15  5  1  0  0  0  0
 17 18  2  0  0  0  0
 18 19  1  0  0  0  0
 18 22  1  0  0  0  0
 19 23  1  0  0  0  0
 20 19  2  0  0  0  0
 21 17  1  0  0  0  0
 21 20  1  0  0  0  0
 24 30  1  0  0  0  0
 24 29  1  0  0  0  0
 25 24  2  0  0  0  0
 26 25  1  0  0  0  0
 26 27  2  0  0  0  0
 27 28  1  0  0  0  0
 28 17  1  0  0  0  0
 28 29  2  0  0  0  0
 31 25  1  0  0  0  0
 32 26  1  0  0  0  0
 33 35  1  0  0  0  0
 33 34  2  0  0  0  0
 35 36  2  0  0  0  0
 36 38  1  0  0  0  0
 36 37  1  0  0  0  0
 39 38  1  0  0  0  0
 40 39  1  0  0  0  0
 41 39  2  0  0  0  0
 41 35  1  0  0  0  0
M  END
>  <minimizedAffinity>
-5.16000366

$$$$

 OpenBabel03252509193D

 41 44  0  0  1  0  0  0  0  0999 V2000
   36.8620   28.4870   41.5140 C   0  0  1  0  0  0  0  0  0  0  0  0
   36.7150   27.2690   42.3750 C   0  0  0  0  0  0  0  0  0  0  0  0
   38.0160   26.7080   42.8910 C   0  0  0  0  0  0  0  0  0  0  0  0
   38.9610   27.7570   43.3920 C   0  0  0  0  0  0  0  0  0  0  0  0
   39.0170   28.9710   42.4990 C   0  0  0  0  0  0  0  0  0  0  0  0
   38.3440   28.6480   41.1570 C   0  0  2  0  0  0  0  0  0  0  0  0
   36.6090   29.4010   42.0920 H   0  0  0  0  0  0  0  0  0  0  0  0
   36.1040   27.5470   43.2590 H   0  0  0  0  0  0  0  0  0  0  0  0
   36.1660   26.4360   41.8880 H   0  0  0  0  0  0  0  0  0  0  0  0
   37.7630   26.0560   43.7350 H   0  0  0  0  0  0  0  0  0  0  0  0
   38.4580   26.0980   42.0700 H   0  0  0  0  0  0  0  0  0  0  0  0
   39.9640   27.2530   43.4680 H   0  0  0  0  0  0  0  0  0  0  0  0
   38.6330   28.0360   44.4110 H   0  0  0  0  0  0  0  0  0  0  0  0
   38.5090   29.8490   42.9090 H   0  0  0  0  0  0  0  0  0  0  0  0
   40.0860   29.1680   42.2450 H   0  0  0  0  0  0  0  0  0  0  0  0
   38.7350   27.6650   40.7770 H   0  0  0  0  0  0  0  0  0  0  0  0
   34.8560   27.8180   38.0150 C   0  0  0  0  0  0  0  0  0  0  0  0
   34.3470   28.9090   38.7120 C   0  0  0  0  0  0  0  0  0  0  0  0
   34.9430   29.2160   39.8850 C   0  0  0  0  0  0  0  0  0  0  0  0
   36.0260   28.4570   40.3630 C   0  0  0  0  0  0  0  0  0  0  0  0
   36.2390   27.1980   39.0680 S   0  0  0  0  0  0  0  0  0  0  0  0
   33.5140   29.4840   38.3370 H   0  0  0  0  0  0  0  0  0  0  0  0
   34.6780   30.0240   40.5480 H   0  0  0  0  0  0  0  0  0  0  0  0
   32.8050   26.4830   35.2000 C   0  0  0  0  0  0  0  0  0  0  0  0
   33.7320   26.5650   34.1640 C   0  0  0  0  0  0  0  0  0  0  0  0
   35.0100   27.0590   34.4450 C   0  0  0  0  0  0  0  0  0  0  0  0
   35.2720   27.4360   35.7380 N   0  0  0  0  0  0  0  0  0  0  0  0
   34.3550   27.3430   36.7110 C   0  0  0  0  0  0  0  0  0  0  0  0
   33.1120   26.8610   36.4330 N   0  0  0  0  0  0  0  0  0  0  0  0
   31.8130   26.1040   35.0040 H   0  0  0  0  0  0  0  0  0  0  0  0
   33.5140   26.2670   33.1550 H   0  0  0  0  0  0  0  0  0  0  0  0
   35.8020   27.1640   33.7130 H   0  0  0  0  0  0  0  0  0  0  0  0
   38.5580   29.7340   40.2070 C   0  0  0  0  0  0  0  0  0  0  0  0
   38.8320   29.4930   39.0110 O   0  0  0  0  0  0  0  0  0  0  0  0
   38.5160   31.1740   40.3280 C   0  0  0  0  0  0  0  0  0  0  0  0
   37.4670   31.7270   39.3110 C   0  0  0  0  0  0  0  0  0  0  0  0
   36.7060   31.4660   38.4750 H   0  0  0  0  0  0  0  0  0  0  0  0
   37.4970   33.4720   39.5870 S   0  0  0  0  0  0  0  0  0  0  0  0
   38.8030   33.3690   40.9370 C   0  0  0  0  0  0  0  0  0  0  0  0
   39.3500   34.0760   41.6080 H   0  0  0  0  0  0  0  0  0  0  0  0
   38.8650   32.2840   40.8500 N   0  0  0  0  0  0  0  0  0  0  0  0
  1  7  1  1  0  0  0
  1  2  1  0  0  0  0
  2  3  1  0  0  0  0
  2  8  1  0  0  0  0
  3  4  1  0  0  0  0
  3 10  1  0  0  0  0
  4 12  1  0  0  0  0
  4 13  1  0  0  0  0
  5 14  1  0  0  0  0
  5  4  1  0  0  0  0
  6 16  1  6  0  0  0
  6  1  1  0  0  0  0
  6  5  1  0  0  0  0
  9  2  1  0  0  0  0
 11  3  1  0  0  0  0
 15  5  1  0  0  0  0
 17 18  2  0  0  0  0
 17 21  1  0  0  0  0
 18 19  1  0  0  0  0
 19 20  2  0  0  0  0
 19 23  1  0  0  0  0
 20  1  1  0  0  0  0
 21 20  1  0  0  0  0
 22 18  1  0  0  0  0
 24 29  1  0  0  0  0
 25 26  1  0  0  0  0
 25 24  2  0  0  0  0
 26 27  2  0  0  0  0
 27 28  1  0  0  0  0
 28 17  1  0  0  0  0
 29 28  2  0  0  0  0
 30 24  1  0  0  0  0
 31 25  1  0  0  0  0
 32 26  1  0  0  0  0
 33 35  1  0  0  0  0
 33  6  1  0  0  0  0
 34 33  2  0  0  0  0
 35 41  1  0  0  0  0
 36 38  1  0  0  0  0
 36 35  2  0  0  0  0
 37 36  1  0  0  0  0
 38 39  1  0  0  0  0
 39 40  1  0  0  0  0
 41 39  2  0  0  0  0
M  END
>  <minimizedAffinity>
-5.10730791

$$$$

 OpenBabel03252509193D

 41 44  0  0  1  0  0  0  0  0999 V2000
   37.0420   26.8900   40.7210 C   0  0  1  0  0  0  0  0  0  0  0  0
   36.5690   26.0710   39.5580 C   0  0  0  0  0  0  0  0  0  0  0  0
   36.8430   24.5940   39.6820 C   0  0  0  0  0  0  0  0  0  0  0  0
   36.5380   24.0420   41.0410 C   0  0  0  0  0  0  0  0  0  0  0  0
   36.9990   24.9450   42.1570 C   0  0  0  0  0  0  0  0  0  0  0  0
   37.9470   26.0120   41.5920 C   0  0  2  0  0  0  0  0  0  0  0  0
   36.1870   27.1540   41.3800 H   0  0  0  0  0  0  0  0  0  0  0  0
   35.4700   26.1960   39.4760 H   0  0  0  0  0  0  0  0  0  0  0  0
   36.9760   26.4020   38.5800 H   0  0  0  0  0  0  0  0  0  0  0  0
   36.1850   24.0930   38.9620 H   0  0  0  0  0  0  0  0  0  0  0  0
   37.9060   24.4320   39.3890 H   0  0  0  0  0  0  0  0  0  0  0  0
   37.0440   23.0390   41.0830 H   0  0  0  0  0  0  0  0  0  0  0  0
   35.4430   23.8830   41.0930 H   0  0  0  0  0  0  0  0  0  0  0  0
   36.1870   25.4750   42.6660 H   0  0  0  0  0  0  0  0  0  0  0  0
   37.6270   24.3420   42.8560 H   0  0  0  0  0  0  0  0  0  0  0  0
   38.7110   25.5120   40.9340 H   0  0  0  0  0  0  0  0  0  0  0  0
   39.2690   29.9400   39.1560 C   0  0  0  0  0  0  0  0  0  0  0  0
   38.3210   30.3960   40.0670 C   0  0  0  0  0  0  0  0  0  0  0  0
   37.5320   29.4630   40.6450 C   0  0  0  0  0  0  0  0  0  0  0  0
   37.6770   28.1010   40.3270 C   0  0  0  0  0  0  0  0  0  0  0  0
   39.0300   28.1110   39.1130 S   0  0  0  0  0  0  0  0  0  0  0  0
   38.2180   31.4440   40.3040 H   0  0  0  0  0  0  0  0  0  0  0  0
   36.7530   29.6400   41.3680 H   0  0  0  0  0  0  0  0  0  0  0  0
   41.2230   32.7960   37.7640 C   0  0  0  0  0  0  0  0  0  0  0  0
   42.1750   32.1000   37.0220 C   0  0  0  0  0  0  0  0  0  0  0  0
   42.1250   30.7030   37.0110 C   0  0  0  0  0  0  0  0  0  0  0  0
   41.1320   30.0990   37.7390 N   0  0  0  0  0  0  0  0  0  0  0  0
   40.2320   30.8010   38.4420 C   0  0  0  0  0  0  0  0  0  0  0  0
   40.2830   32.1620   38.4510 N   0  0  0  0  0  0  0  0  0  0  0  0
   41.2440   33.8760   37.7860 H   0  0  0  0  0  0  0  0  0  0  0  0
   42.9490   32.5850   36.4560 H   0  0  0  0  0  0  0  0  0  0  0  0
   42.8170   30.0690   36.4690 H   0  0  0  0  0  0  0  0  0  0  0  0
   38.5610   26.7710   42.6750 C   0  0  0  0  0  0  0  0  0  0  0  0
   37.8580   27.3000   43.5640 O   0  0  0  0  0  0  0  0  0  0  0  0
   39.9330   27.0820   43.0090 C   0  0  0  0  0  0  0  0  0  0  0  0
   40.6820   25.7480   43.3250 C   0  0  0  0  0  0  0  0  0  0  0  0
   40.5970   24.5950   43.4220 H   0  0  0  0  0  0  0  0  0  0  0  0
   42.3330   26.2710   43.6790 S   0  0  0  0  0  0  0  0  0  0  0  0
   41.9560   28.0930   43.4050 C   0  0  0  0  0  0  0  0  0  0  0  0
   42.5110   29.0620   43.4450 H   0  0  0  0  0  0  0  0  0  0  0  0
   40.9120   27.8830   43.1690 N   0  0  0  0  0  0  0  0  0  0  0  0
  1  7  1  1  0  0  0
  1  6  1  0  0  0  0
  2  3  1  0  0  0  0
  2  1  1  0  0  0  0
  3  4  1  0  0  0  0
  4 12  1  0  0  0  0
  4 13  1  0  0  0  0
  4  5  1  0  0  0  0
  5 14  1  0  0  0  0
  5 15  1  0  0  0  0
  6 16  1  6  0  0  0
  6  5  1  0  0  0  0
  6 33  1  0  0  0  0
  8  2  1  0  0  0  0
  9  2  1  0  0  0  0
 10  3  1  0  0  0  0
 11  3  1  0  0  0  0
 17 18  2  0  0  0  0
 18 22  1  0  0  0  0
 18 19  1  0  0  0  0
 19 23  1  0  0  0  0
 20 19  2  0  0  0  0
 20  1  1  0  0  0  0
 21 17  1  0  0  0  0
 21 20  1  0  0  0  0
 24 30  1  0  0  0  0
 24 29  1  0  0  0  0
 25 24  2  0  0  0  0
 26 25  1  0  0  0  0
 26 27  2  0  0  0  0
 27 28  1  0  0  0  0
 28 29  2  0  0  0  0
 28 17  1  0  0  0  0
 31 25  1  0  0  0  0
 32 26  1  0  0  0  0
 33 35  1  0  0  0  0
 33 34  2  0  0  0  0
 35 41  1  0  0  0  0
 35 36  2  0  0  0  0
 36 37  1  0  0  0  0
 36 38  1  0  0  0  0
 39 40  1  0  0  0  0
 39 38  1  0  0  0  0
 41 39  2  0  0  0  0
M  END
>  <minimizedAffinity>
-5.07828426

$$$$

 OpenBabel03252509193D

 41 44  0  0  1  0  0  0  0  0999 V2000
   36.9510   26.5260   40.3550 C   0  0  1  0  0  0  0  0  0  0  0  0
   36.4180   25.8930   39.1040 C   0  0  0  0  0  0  0  0  0  0  0  0
   36.5150   24.3890   39.0760 C   0  0  0  0  0  0  0  0  0  0  0  0
   36.1110   23.7400   40.3640 C   0  0  0  0  0  0  0  0  0  0  0  0
   36.6430   24.4610   41.5770 C   0  0  0  0  0  0  0  0  0  0  0  0
   37.7240   25.4610   41.1410 C   0  0  2  0  0  0  0  0  0  0  0  0
   36.1140   26.8200   41.0250 H   0  0  0  0  0  0  0  0  0  0  0  0
   35.3430   26.1540   39.0200 H   0  0  0  0  0  0  0  0  0  0  0  0
   36.8860   26.2720   38.1730 H   0  0  0  0  0  0  0  0  0  0  0  0
   35.8230   24.0460   38.2980 H   0  0  0  0  0  0  0  0  0  0  0  0
   37.5590   24.1330   38.7830 H   0  0  0  0  0  0  0  0  0  0  0  0
   36.4960   22.6840   40.3080 H   0  0  0  0  0  0  0  0  0  0  0  0
   35.0040   23.7070   40.3830 H   0  0  0  0  0  0  0  0  0  0  0  0
   35.8850   25.0280   42.1260 H   0  0  0  0  0  0  0  0  0  0  0  0
   37.1780   23.7190   42.2170 H   0  0  0  0  0  0  0  0  0  0  0  0
   38.4420   24.9460   40.4460 H   0  0  0  0  0  0  0  0  0  0  0  0
   38.7140   30.2010   40.0560 C   0  0  0  0  0  0  0  0  0  0  0  0
   39.3970   29.2300   39.3300 C   0  0  0  0  0  0  0  0  0  0  0  0
   38.8920   27.9770   39.3620 C   0  0  0  0  0  0  0  0  0  0  0  0
   37.7320   27.6870   40.1000 C   0  0  0  0  0  0  0  0  0  0  0  0
   37.2970   29.2990   40.8190 S   0  0  0  0  0  0  0  0  0  0  0  0
   40.2880   29.4640   38.7670 H   0  0  0  0  0  0  0  0  0  0  0  0
   39.2930   27.1110   38.8590 H   0  0  0  0  0  0  0  0  0  0  0  0
   38.8210   33.8940   40.5740 C   0  0  0  0  0  0  0  0  0  0  0  0
   40.1210   34.1610   40.1510 C   0  0  0  0  0  0  0  0  0  0  0  0
   40.9120   33.0970   39.7030 C   0  0  0  0  0  0  0  0  0  0  0  0
   40.3520   31.8460   39.7100 N   0  0  0  0  0  0  0  0  0  0  0  0
   39.0960   31.6250   40.1250 C   0  0  0  0  0  0  0  0  0  0  0  0
   38.3290   32.6630   40.5590 N   0  0  0  0  0  0  0  0  0  0  0  0
   38.1940   34.7010   40.9230 H   0  0  0  0  0  0  0  0  0  0  0  0
   40.5490   35.1460   40.1510 H   0  0  0  0  0  0  0  0  0  0  0  0
   41.9330   33.1980   39.3550 H   0  0  0  0  0  0  0  0  0  0  0  0
   38.3920   26.0260   42.3080 C   0  0  0  0  0  0  0  0  0  0  0  0
   37.7380   26.6140   43.1980 O   0  0  0  0  0  0  0  0  0  0  0  0
   39.7740   26.0660   42.7310 C   0  0  0  0  0  0  0  0  0  0  0  0
   40.1380   27.5410   43.0980 C   0  0  0  0  0  0  0  0  0  0  0  0
   39.7660   28.6380   43.1600 H   0  0  0  0  0  0  0  0  0  0  0  0
   41.8220   27.4360   43.6230 S   0  0  0  0  0  0  0  0  0  0  0  0
   41.9310   25.5800   43.3450 C   0  0  0  0  0  0  0  0  0  0  0  0
   42.7000   24.7750   43.4560 H   0  0  0  0  0  0  0  0  0  0  0  0
   40.8970   25.5290   43.0030 N   0  0  0  0  0  0  0  0  0  0  0  0
  1  7  1  1  0  0  0
  1  6  1  0  0  0  0
  2  1  1  0  0  0  0
  3  2  1  0  0  0  0
  3  4  1  0  0  0  0
  4 13  1  0  0  0  0
  4  5  1  0  0  0  0
  5 14  1  0  0  0  0
  5 15  1  0  0  0  0
  6 16  1  6  0  0  0
  6  5  1  0  0  0  0
  6 33  1  0  0  0  0
  8  2  1  0  0  0  0
  9  2  1  0  0  0  0
 10  3  1  0  0  0  0
 11  3  1  0  0  0  0
 12  4  1  0  0  0  0
 17 28  1  0  0  0  0
 17 21  1  0  0  0  0
 18 19  1  0  0  0  0
 18 17  2  0  0  0  0
 19 20  2  0  0  0  0
 20  1  1  0  0  0  0
 20 21  1  0  0  0  0
 22 18  1  0  0  0  0
 23 19  1  0  0  0  0
 24 30  1  0  0  0  0
 25 24  2  0  0  0  0
 26 27  2  0  0  0  0
 26 25  1  0  0  0  0
 27 28  1  0  0  0  0
 28 29  2  0  0  0  0
 29 24  1  0  0  0  0
 31 25  1  0  0  0  0
 32 26  1  0  0  0  0
 33 35  1  0  0  0  0
 33 34  2  0  0  0  0
 35 41  1  0  0  0  0
 35 36  2  0  0  0  0
 36 37  1  0  0  0  0
 36 38  1  0  0  0  0
 39 40  1  0  0  0  0
 39 38  1  0  0  0  0
 41 39  2  0  0  0  0
M  END
>  <minimizedAffinity>
-5.06993723

$$$$

 OpenBabel03252509193D

 41 44  0  0  1  0  0  0  0  0999 V2000
   38.6750   31.1700   39.4230 C   0  0  1  0  0  0  0  0  0  0  0  0
   37.8510   32.0050   38.4890 C   0  0  0  0  0  0  0  0  0  0  0  0
   37.2030   33.2050   39.1310 C   0  0  0  0  0  0  0  0  0  0  0  0
   38.1170   33.9560   40.0520 C   0  0  0  0  0  0  0  0  0  0  0  0
   38.9470   33.0480   40.9230 C   0  0  0  0  0  0  0  0  0  0  0  0
   38.3820   31.6210   40.8580 C   0  0  2  0  0  0  0  0  0  0  0  0
   39.7570   31.3810   39.2760 H   0  0  0  0  0  0  0  0  0  0  0  0
   38.5200   32.3830   37.6880 H   0  0  0  0  0  0  0  0  0  0  0  0
   37.0540   31.4400   37.9650 H   0  0  0  0  0  0  0  0  0  0  0  0
   36.9210   33.8810   38.3170 H   0  0  0  0  0  0  0  0  0  0  0  0
   36.2850   32.8440   39.6500 H   0  0  0  0  0  0  0  0  0  0  0  0
   37.4510   34.6230   40.6650 H   0  0  0  0  0  0  0  0  0  0  0  0
   38.7650   34.5950   39.4220 H   0  0  0  0  0  0  0  0  0  0  0  0
   40.0000   32.9890   40.6290 H   0  0  0  0  0  0  0  0  0  0  0  0
   38.8110   33.3630   41.9850 H   0  0  0  0  0  0  0  0  0  0  0  0
   37.2680   31.6610   41.0060 H   0  0  0  0  0  0  0  0  0  0  0  0
   37.4040   27.3020   39.0550 C   0  0  0  0  0  0  0  0  0  0  0  0
   38.7670   27.4340   38.8030 C   0  0  0  0  0  0  0  0  0  0  0  0
   39.2880   28.6770   38.9010 C   0  0  0  0  0  0  0  0  0  0  0  0
   38.4760   29.7730   39.2410 C   0  0  0  0  0  0  0  0  0  0  0  0
   36.8370   29.0150   39.4440 S   0  0  0  0  0  0  0  0  0  0  0  0
   39.3800   26.5850   38.5420 H   0  0  0  0  0  0  0  0  0  0  0  0
   40.3170   28.9550   38.7400 H   0  0  0  0  0  0  0  0  0  0  0  0
   35.8920   23.9790   39.8170 C   0  0  0  0  0  0  0  0  0  0  0  0
   35.1530   23.7760   38.6530 C   0  0  0  0  0  0  0  0  0  0  0  0
   35.1920   24.7560   37.6560 C   0  0  0  0  0  0  0  0  0  0  0  0
   35.9620   25.8660   37.8880 N   0  0  0  0  0  0  0  0  0  0  0  0
   36.6610   26.0280   39.0210 C   0  0  0  0  0  0  0  0  0  0  0  0
   36.6220   25.0720   39.9900 N   0  0  0  0  0  0  0  0  0  0  0  0
   35.8760   23.2340   40.5990 H   0  0  0  0  0  0  0  0  0  0  0  0
   34.5520   22.9020   38.4830 H   0  0  0  0  0  0  0  0  0  0  0  0
   34.6540   24.6950   36.7160 H   0  0  0  0  0  0  0  0  0  0  0  0
   39.0420   30.7690   41.8400 C   0  0  0  0  0  0  0  0  0  0  0  0
   40.1900   31.0400   42.2550 O   0  0  0  0  0  0  0  0  0  0  0  0
   38.6390   29.5630   42.5290 C   0  0  0  0  0  0  0  0  0  0  0  0
   39.8780   28.6170   42.6390 C   0  0  0  0  0  0  0  0  0  0  0  0
   40.9990   28.4650   42.3820 H   0  0  0  0  0  0  0  0  0  0  0  0
   39.2570   27.2160   43.5190 S   0  0  0  0  0  0  0  0  0  0  0  0
   37.5200   27.9200   43.6770 C   0  0  0  0  0  0  0  0  0  0  0  0
   36.5430   27.6060   44.1200 H   0  0  0  0  0  0  0  0  0  0  0  0
   37.7960   28.8290   43.1430 N   0  0  0  0  0  0  0  0  0  0  0  0
  1  7  1  6  0  0  0
  1  6  1  0  0  0  0
  2  3  1  0  0  0  0
  2  1  1  0  0  0  0
  3 11  1  0  0  0  0
  3  4  1  0  0  0  0
  4 12  1  0  0  0  0
  4  5  1  0  0  0  0
  5 15  1  0  0  0  0
  6  5  1  0  0  0  0
  6 16  1  1  0  0  0
  6 33  1  0  0  0  0
  8  2  1  0  0  0  0
  9  2  1  0  0  0  0
 10  3  1  0  0  0  0
 13  4  1  0  0  0  0
 14  5  1  0  0  0  0
 17 21  1  0  0  0  0
 18 19  1  0  0  0  0
 18 17  2  0  0  0  0
 19 20  2  0  0  0  0
 20  1  1  0  0  0  0
 20 21  1  0  0  0  0
 22 18  1  0  0  0  0
 23 19  1  0  0  0  0
 24 29  1  0  0  0  0
 24 30  1  0  0  0  0
 25 24  2  0  0  0  0
 26 27  2  0  0  0  0
 26 25  1  0  0  0  0
 27 28  1  0  0  0  0
 28 17  1  0  0  0  0
 28 29  2  0  0  0  0
 31 25  1  0  0  0  0
 32 26  1  0  0  0  0
 33 34  2  0  0  0  0
 33 35  1  0  0  0  0
 35 36  2  0  0  0  0
 35 41  1  0  0  0  0
 36 38  1  0  0  0  0
 37 36  1  0  0  0  0
 38 39  1  0  0  0  0
 39 40  1  0  0  0  0
 41 39  2  0  0  0  0
M  END
>  <minimizedAffinity>
-5.0443759

$$$$
