
 OpenBabel03242520193D

 33 35  0  0  0  0  0  0  0  0999 V2000
   40.8960   35.8130   39.3840 C   0  0  0  0  0  0  0  0  0  0  0  0
   40.6610   35.5840   38.3420 H   0  0  0  0  0  0  0  0  0  0  0  0
   41.1060   36.9020   39.4330 H   0  0  0  0  0  0  0  0  0  0  0  0
   43.9010   34.6380   41.3590 C   0  0  0  0  0  0  0  0  0  0  0  0
   42.7260   35.3350   41.0100 C   0  0  0  0  0  0  0  0  0  0  0  0
   42.1420   35.1020   39.7760 C   0  0  0  0  0  0  0  0  0  0  0  0
   42.7630   34.1870   38.9580 N   0  0  0  0  0  0  0  0  0  0  0  0
   43.8930   33.5430   39.3390 C   0  0  0  0  0  0  0  0  0  0  0  0
   44.4550   33.7630   40.5220 N   0  0  0  0  0  0  0  0  0  0  0  0
   42.3070   36.0420   41.7270 H   0  0  0  0  0  0  0  0  0  0  0  0
   44.2990   32.8400   38.6090 H   0  0  0  0  0  0  0  0  0  0  0  0
   44.5240   34.9040   42.6810 C   0  0  0  0  0  0  0  0  0  0  0  0
   46.0450   35.2680   42.5490 C   0  0  0  0  0  0  0  0  0  0  0  0
   45.0210   36.1630   43.0990 C   0  0  0  0  0  0  0  0  0  0  0  0
   44.3650   34.0390   43.3790 H   0  0  0  0  0  0  0  0  0  0  0  0
   46.7250   34.6950   43.2050 H   0  0  0  0  0  0  0  0  0  0  0  0
   46.4460   35.3700   41.5270 H   0  0  0  0  0  0  0  0  0  0  0  0
   44.7830   37.0750   42.4910 H   0  0  0  0  0  0  0  0  0  0  0  0
   45.0420   36.4310   44.1830 H   0  0  0  0  0  0  0  0  0  0  0  0
   39.7760   35.4880   40.3510 C   0  0  0  0  0  0  0  0  0  0  0  0
   39.0890   36.3810   40.4010 H   0  0  0  0  0  0  0  0  0  0  0  0
   40.2130   35.3920   41.3470 H   0  0  0  0  0  0  0  0  0  0  0  0
   39.1690   33.1420   40.7690 C   0  0  0  0  0  0  0  0  0  0  0  0
   39.7420   33.1320   41.8980 O   0  0  0  0  0  0  0  0  0  0  0  0
   39.0370   34.2960   39.9590 N   0  0  0  0  0  0  0  0  0  0  0  0
   38.4570   34.3450   39.1160 H   0  0  0  0  0  0  0  0  0  0  0  0
   38.6100   31.8570   40.2870 C   0  0  0  0  0  0  0  0  0  0  0  0
   37.9360   31.1640   41.2240 C   0  0  0  0  0  0  0  0  0  0  0  0
   37.6010   31.1430   42.2690 H   0  0  0  0  0  0  0  0  0  0  0  0
   37.3730   29.6150   40.2800 S   0  0  0  0  0  0  0  0  0  0  0  0
   38.2280   30.2930   38.7240 C   0  0  0  0  0  0  0  0  0  0  0  0
   38.4600   30.0600   37.5560 H   0  0  0  0  0  0  0  0  0  0  0  0
   38.6340   31.2500   39.1210 N   0  0  0  0  0  0  0  0  0  0  0  0
  1  3  1  0  0  0  0
  1  6  1  0  0  0  0
  1 20  1  0  0  0  0
  2  1  1  0  0  0  0
  4 12  1  0  0  0  0
  5  4  1  0  0  0  0
  5 10  1  0  0  0  0
  6  5  2  0  0  0  0
  7  8  2  0  0  0  0
  7  6  1  0  0  0  0
  8  9  1  0  0  0  0
  9  4  2  0  0  0  0
 11  8  1  0  0  0  0
 12 14  1  0  0  0  0
 12 15  1  0  0  0  0
 13 12  1  0  0  0  0
 13 14  1  0  0  0  0
 13 16  1  0  0  0  0
 14 19  1  0  0  0  0
 17 13  1  0  0  0  0
 18 14  1  0  0  0  0
 20 21  1  0  0  0  0
 20 22  1  0  0  0  0
 23 24  2  0  0  0  0
 25 20  1  0  0  0  0
 25 23  1  0  0  0  0
 26 25  1  0  0  0  0
 27 23  1  0  0  0  0
 27 28  2  0  0  0  0
 28 29  1  0  0  0  0
 30 28  1  0  0  0  0
 31 33  2  0  0  0  0
 31 30  1  0  0  0  0
 32 31  1  0  0  0  0
 33 27  1  0  0  0  0
M  END
>  <minimizedAffinity>
-4.69632196

>  <minimizedRMSD>
0.417575568

$$$$
