
 OpenBabel03242520193D

 33 35  0  0  0  0  0  0  0  0999 V2000
   40.9550   35.8220   39.3120 C   0  0  0  0  0  0  0  0  0  0  0  0
   40.7260   35.5780   38.2710 H   0  0  0  0  0  0  0  0  0  0  0  0
   41.1700   36.9100   39.3460 H   0  0  0  0  0  0  0  0  0  0  0  0
   43.9250   34.6430   41.3360 C   0  0  0  0  0  0  0  0  0  0  0  0
   42.7560   35.3410   40.9680 C   0  0  0  0  0  0  0  0  0  0  0  0
   42.1930   35.1110   39.7240 C   0  0  0  0  0  0  0  0  0  0  0  0
   42.8290   34.1970   38.9160 N   0  0  0  0  0  0  0  0  0  0  0  0
   43.9520   33.5530   39.3150 C   0  0  0  0  0  0  0  0  0  0  0  0
   44.4940   33.7710   40.5070 N   0  0  0  0  0  0  0  0  0  0  0  0
   42.3250   36.0470   41.6790 H   0  0  0  0  0  0  0  0  0  0  0  0
   44.3710   32.8500   38.5910 H   0  0  0  0  0  0  0  0  0  0  0  0
   44.5250   34.9080   42.6690 C   0  0  0  0  0  0  0  0  0  0  0  0
   46.0480   35.2750   42.5640 C   0  0  0  0  0  0  0  0  0  0  0  0
   45.0130   36.1670   43.0990 C   0  0  0  0  0  0  0  0  0  0  0  0
   44.3560   34.0400   43.3630 H   0  0  0  0  0  0  0  0  0  0  0  0
   46.7180   34.7010   43.2300 H   0  0  0  0  0  0  0  0  0  0  0  0
   46.4660   35.3800   41.5490 H   0  0  0  0  0  0  0  0  0  0  0  0
   44.7830   37.0800   42.4890 H   0  0  0  0  0  0  0  0  0  0  0  0
   45.0150   36.4320   44.1840 H   0  0  0  0  0  0  0  0  0  0  0  0
   39.8260   35.5180   40.2760 C   0  0  0  0  0  0  0  0  0  0  0  0
   39.0640   36.3450   40.1910 H   0  0  0  0  0  0  0  0  0  0  0  0
   40.2260   35.5850   41.2890 H   0  0  0  0  0  0  0  0  0  0  0  0
   39.3740   33.2070   40.9840 C   0  0  0  0  0  0  0  0  0  0  0  0
   39.8680   33.3990   42.1330 O   0  0  0  0  0  0  0  0  0  0  0  0
   39.2090   34.2250   40.0130 N   0  0  0  0  0  0  0  0  0  0  0  0
   38.6860   34.1100   39.1400 H   0  0  0  0  0  0  0  0  0  0  0  0
   38.9490   31.8260   40.6550 C   0  0  0  0  0  0  0  0  0  0  0  0
   39.2870   30.9120   41.5830 C   0  0  0  0  0  0  0  0  0  0  0  0
   39.7800   30.7390   42.5480 H   0  0  0  0  0  0  0  0  0  0  0  0
   38.6020   29.2970   40.8520 S   0  0  0  0  0  0  0  0  0  0  0  0
   37.9680   30.2820   39.3560 C   0  0  0  0  0  0  0  0  0  0  0  0
   37.3770   30.1830   38.3000 H   0  0  0  0  0  0  0  0  0  0  0  0
   38.3020   31.3060   39.6350 N   0  0  0  0  0  0  0  0  0  0  0  0
  1  3  1  0  0  0  0
  1  6  1  0  0  0  0
  1 20  1  0  0  0  0
  2  1  1  0  0  0  0
  4 12  1  0  0  0  0
  5  4  1  0  0  0  0
  5 10  1  0  0  0  0
  6  5  2  0  0  0  0
  7  8  2  0  0  0  0
  7  6  1  0  0  0  0
  8  9  1  0  0  0  0
  9  4  2  0  0  0  0
 11  8  1  0  0  0  0
 12 14  1  0  0  0  0
 12 15  1  0  0  0  0
 13 12  1  0  0  0  0
 13 14  1  0  0  0  0
 13 16  1  0  0  0  0
 14 19  1  0  0  0  0
 17 13  1  0  0  0  0
 18 14  1  0  0  0  0
 20 22  1  0  0  0  0
 21 20  1  0  0  0  0
 23 24  2  0  0  0  0
 25 20  1  0  0  0  0
 25 23  1  0  0  0  0
 26 25  1  0  0  0  0
 27 23  1  0  0  0  0
 27 28  2  0  0  0  0
 28 29  1  0  0  0  0
 30 28  1  0  0  0  0
 31 33  2  0  0  0  0
 31 30  1  0  0  0  0
 32 31  1  0  0  0  0
 33 27  1  0  0  0  0
M  END
>  <minimizedAffinity>
-4.58343363

>  <minimizedRMSD>
0.655293405

$$$$
