
 OpenBabel03242520193D

 33 35  0  0  0  0  0  0  0  0999 V2000
   40.8960   35.8020   39.4170 C   0  0  0  0  0  0  0  0  0  0  0  0
   40.6830   35.5410   38.3770 H   0  0  0  0  0  0  0  0  0  0  0  0
   41.0880   36.8950   39.4390 H   0  0  0  0  0  0  0  0  0  0  0  0
   43.8840   34.7330   41.4750 C   0  0  0  0  0  0  0  0  0  0  0  0
   42.7050   35.4020   41.0860 C   0  0  0  0  0  0  0  0  0  0  0  0
   42.1450   35.1220   39.8510 C   0  0  0  0  0  0  0  0  0  0  0  0
   42.7930   34.1910   39.0720 N   0  0  0  0  0  0  0  0  0  0  0  0
   43.9250   33.5760   39.4910 C   0  0  0  0  0  0  0  0  0  0  0  0
   44.4650   33.8410   40.6750 N   0  0  0  0  0  0  0  0  0  0  0  0
   42.2640   36.1240   41.7740 H   0  0  0  0  0  0  0  0  0  0  0  0
   44.3540   32.8560   38.7900 H   0  0  0  0  0  0  0  0  0  0  0  0
   44.4810   35.0490   42.7980 C   0  0  0  0  0  0  0  0  0  0  0  0
   46.0240   35.3210   42.6950 C   0  0  0  0  0  0  0  0  0  0  0  0
   45.0370   36.3030   43.1540 C   0  0  0  0  0  0  0  0  0  0  0  0
   44.2530   34.2410   43.5440 H   0  0  0  0  0  0  0  0  0  0  0  0
   46.6500   34.7540   43.4080 H   0  0  0  0  0  0  0  0  0  0  0  0
   46.4610   35.3340   41.6830 H   0  0  0  0  0  0  0  0  0  0  0  0
   44.8690   37.1860   42.4810 H   0  0  0  0  0  0  0  0  0  0  0  0
   45.0400   36.6390   44.2190 H   0  0  0  0  0  0  0  0  0  0  0  0
   39.7630   35.4860   40.3720 C   0  0  0  0  0  0  0  0  0  0  0  0
   39.0790   36.3810   40.4080 H   0  0  0  0  0  0  0  0  0  0  0  0
   40.1880   35.3950   41.3730 H   0  0  0  0  0  0  0  0  0  0  0  0
   39.1680   33.1360   40.7810 C   0  0  0  0  0  0  0  0  0  0  0  0
   39.7500   33.1200   41.9050 O   0  0  0  0  0  0  0  0  0  0  0  0
   39.0260   34.2940   39.9790 N   0  0  0  0  0  0  0  0  0  0  0  0
   38.4400   34.3460   39.1400 H   0  0  0  0  0  0  0  0  0  0  0  0
   38.6100   31.8520   40.2950 C   0  0  0  0  0  0  0  0  0  0  0  0
   37.9340   31.1570   41.2290 C   0  0  0  0  0  0  0  0  0  0  0  0
   37.5960   31.1340   42.2720 H   0  0  0  0  0  0  0  0  0  0  0  0
   37.3730   29.6090   40.2800 S   0  0  0  0  0  0  0  0  0  0  0  0
   38.2320   30.2900   38.7280 C   0  0  0  0  0  0  0  0  0  0  0  0
   38.4680   30.0580   37.5600 H   0  0  0  0  0  0  0  0  0  0  0  0
   38.6380   31.2470   39.1270 N   0  0  0  0  0  0  0  0  0  0  0  0
  1  3  1  0  0  0  0
  1  6  1  0  0  0  0
  1 20  1  0  0  0  0
  2  1  1  0  0  0  0
  4 12  1  0  0  0  0
  5  4  1  0  0  0  0
  5 10  1  0  0  0  0
  6  5  2  0  0  0  0
  7  8  2  0  0  0  0
  7  6  1  0  0  0  0
  8  9  1  0  0  0  0
  9  4  2  0  0  0  0
 11  8  1  0  0  0  0
 12 14  1  0  0  0  0
 12 15  1  0  0  0  0
 13 12  1  0  0  0  0
 13 14  1  0  0  0  0
 13 16  1  0  0  0  0
 14 19  1  0  0  0  0
 17 13  1  0  0  0  0
 18 14  1  0  0  0  0
 20 21  1  0  0  0  0
 20 22  1  0  0  0  0
 23 24  2  0  0  0  0
 25 20  1  0  0  0  0
 25 23  1  0  0  0  0
 26 25  1  0  0  0  0
 27 23  1  0  0  0  0
 27 28  2  0  0  0  0
 28 29  1  0  0  0  0
 30 28  1  0  0  0  0
 31 33  2  0  0  0  0
 31 30  1  0  0  0  0
 32 31  1  0  0  0  0
 33 27  1  0  0  0  0
M  END
>  <minimizedAffinity>
-4.73721027

>  <minimizedRMSD>
0.493473798

$$$$
