
 OpenBabel03252501323D

 22 23  0  0  0  0  0  0  0  0999 V2000
   46.7770   32.0760   44.5580 C   0  0  0  0  0  0  0  0  0  0  0  0
   46.4640   31.8630   45.8890 C   0  0  0  0  0  0  0  0  0  0  0  0
   47.1430   30.8150   46.5080 C   0  0  0  0  0  0  0  0  0  0  0  0
   48.0260   30.1030   45.7970 N   0  0  0  0  0  0  0  0  0  0  0  0
   48.3020   30.3460   44.4950 C   0  0  0  0  0  0  0  0  0  0  0  0
   47.6690   31.3510   43.8540 N   0  0  0  0  0  0  0  0  0  0  0  0
   46.8940   30.6550   47.5430 H   0  0  0  0  0  0  0  0  0  0  0  0
   49.0140   29.7730   43.9180 H   0  0  0  0  0  0  0  0  0  0  0  0
   44.9840   32.5970   43.1260 C   0  0  0  0  0  0  0  0  0  0  0  0
   44.7770   31.3870   43.4760 O   0  0  0  0  0  0  0  0  0  0  0  0
   46.1890   33.1100   43.7330 N   0  0  0  0  0  0  0  0  0  0  0  0
   46.5470   34.0710   43.5800 H   0  0  0  0  0  0  0  0  0  0  0  0
   44.2150   33.4970   42.2420 C   0  0  0  0  0  0  0  0  0  0  0  0
   44.5650   34.8430   41.9780 C   0  0  0  0  0  0  0  0  0  0  0  0
   45.4030   35.2840   42.4020 H   0  0  0  0  0  0  0  0  0  0  0  0
   43.2470   35.3510   40.8550 S   0  0  0  0  0  0  0  0  0  0  0  0
   42.4170   33.6410   40.9180 C   0  0  0  0  0  0  0  0  0  0  0  0
   41.5350   33.0670   40.5140 H   0  0  0  0  0  0  0  0  0  0  0  0
   43.1580   32.9050   41.7200 N   0  0  0  0  0  0  0  0  0  0  0  0
   45.5030   32.7180   46.4740 N   0  0  0  0  0  0  0  0  0  0  0  0
   45.6670   33.7240   46.3270 H   0  0  0  0  0  0  0  0  0  0  0  0
   44.7130   32.2920   47.0030 H   0  0  0  0  0  0  0  0  0  0  0  0
  1  2  1  0  0  0  0
  2 20  1  0  0  0  0
  2  3  2  0  0  0  0
  3  7  1  0  0  0  0
  4  3  1  0  0  0  0
  5  4  2  0  0  0  0
  6  5  1  0  0  0  0
  6  1  2  0  0  0  0
  8  5  1  0  0  0  0
  9 10  2  0  0  0  0
  9 11  1  0  0  0  0
 11  1  1  0  0  0  0
 12 11  1  0  0  0  0
 13  9  1  0  0  0  0
 14 13  2  0  0  0  0
 14 15  1  0  0  0  0
 16 17  1  0  0  0  0
 16 14  1  0  0  0  0
 17 19  2  0  0  0  0
 18 17  1  0  0  0  0
 19 13  1  0  0  0  0
 20 22  1  0  0  0  0
 21 20  1  0  0  0  0
M  END
>  <minimizedAffinity>
-3.09836793

>  <minimizedRMSD>
3.01431441

$$$$
