
 OpenBabel03252501323D

 22 23  0  0  0  0  0  0  0  0999 V2000
   48.0210   31.2560   40.2600 C   0  0  0  0  0  0  0  0  0  0  0  0
   48.4920   32.5540   40.1810 C   0  0  0  0  0  0  0  0  0  0  0  0
   49.3680   32.9410   41.1930 C   0  0  0  0  0  0  0  0  0  0  0  0
   49.6860   32.0590   42.1490 N   0  0  0  0  0  0  0  0  0  0  0  0
   49.2010   30.7970   42.1880 C   0  0  0  0  0  0  0  0  0  0  0  0
   48.3500   30.3770   41.2270 N   0  0  0  0  0  0  0  0  0  0  0  0
   49.7310   33.9520   41.1250 H   0  0  0  0  0  0  0  0  0  0  0  0
   49.4560   30.0820   42.9580 H   0  0  0  0  0  0  0  0  0  0  0  0
   45.7550   31.0180   39.6700 C   0  0  0  0  0  0  0  0  0  0  0  0
   45.7420   31.7520   40.7140 O   0  0  0  0  0  0  0  0  0  0  0  0
   47.1050   30.6560   39.3110 N   0  0  0  0  0  0  0  0  0  0  0  0
   47.3460   30.0600   38.4970 H   0  0  0  0  0  0  0  0  0  0  0  0
   44.6540   30.5140   38.8230 C   0  0  0  0  0  0  0  0  0  0  0  0
   44.1540   29.1910   38.8730 C   0  0  0  0  0  0  0  0  0  0  0  0
   44.5410   28.4830   39.5250 H   0  0  0  0  0  0  0  0  0  0  0  0
   42.8550   29.2440   37.6190 S   0  0  0  0  0  0  0  0  0  0  0  0
   43.1990   31.0700   37.2190 C   0  0  0  0  0  0  0  0  0  0  0  0
   42.8530   31.9130   36.5550 H   0  0  0  0  0  0  0  0  0  0  0  0
   44.1840   31.4390   38.0090 N   0  0  0  0  0  0  0  0  0  0  0  0
   48.0430   33.3420   39.0960 N   0  0  0  0  0  0  0  0  0  0  0  0
   48.1290   32.8990   38.1710 H   0  0  0  0  0  0  0  0  0  0  0  0
   47.6660   34.2940   39.2940 H   0  0  0  0  0  0  0  0  0  0  0  0
  1  6  1  0  0  0  0
  2  1  2  0  0  0  0
  2  3  1  0  0  0  0
  3  4  2  0  0  0  0
  4  5  1  0  0  0  0
  5  8  1  0  0  0  0
  6  5  2  0  0  0  0
  7  3  1  0  0  0  0
  9 10  2  0  0  0  0
 11  9  1  0  0  0  0
 11  1  1  0  0  0  0
 12 11  1  0  0  0  0
 13 14  2  0  0  0  0
 13  9  1  0  0  0  0
 14 15  1  0  0  0  0
 16 14  1  0  0  0  0
 17 16  1  0  0  0  0
 17 19  2  0  0  0  0
 18 17  1  0  0  0  0
 19 13  1  0  0  0  0
 20 22  1  0  0  0  0
 20  2  1  0  0  0  0
 21 20  1  0  0  0  0
M  END
>  <minimizedAffinity>
-1.54877818

>  <minimizedRMSD>
6.92884159

$$$$
