
 OpenBabel03252501323D

 22 23  0  0  0  0  0  0  0  0999 V2000
   44.9100   33.3250   42.5710 C   0  0  0  0  0  0  0  0  0  0  0  0
   45.9650   33.0670   41.7140 C   0  0  0  0  0  0  0  0  0  0  0  0
   46.9020   34.0900   41.5860 C   0  0  0  0  0  0  0  0  0  0  0  0
   46.7270   35.2230   42.2790 N   0  0  0  0  0  0  0  0  0  0  0  0
   45.6790   35.4330   43.1070 C   0  0  0  0  0  0  0  0  0  0  0  0
   44.7460   34.4700   43.2630 N   0  0  0  0  0  0  0  0  0  0  0  0
   47.7210   33.8820   40.9180 H   0  0  0  0  0  0  0  0  0  0  0  0
   45.5340   36.3460   43.6670 H   0  0  0  0  0  0  0  0  0  0  0  0
   42.8200   32.5400   41.8260 C   0  0  0  0  0  0  0  0  0  0  0  0
   43.1510   33.4350   40.9780 O   0  0  0  0  0  0  0  0  0  0  0  0
   43.8310   32.3990   42.8460 N   0  0  0  0  0  0  0  0  0  0  0  0
   43.7640   31.7310   43.6360 H   0  0  0  0  0  0  0  0  0  0  0  0
   41.6240   31.6770   41.9110 C   0  0  0  0  0  0  0  0  0  0  0  0
   41.6070   30.4000   42.5180 C   0  0  0  0  0  0  0  0  0  0  0  0
   42.4540   29.9850   42.9490 H   0  0  0  0  0  0  0  0  0  0  0  0
   39.8860   29.9050   42.2820 S   0  0  0  0  0  0  0  0  0  0  0  0
   39.4540   31.5250   41.3870 C   0  0  0  0  0  0  0  0  0  0  0  0
   38.5970   32.0660   40.8920 H   0  0  0  0  0  0  0  0  0  0  0  0
   40.5650   32.2330   41.3540 N   0  0  0  0  0  0  0  0  0  0  0  0
   45.9830   31.8100   41.0670 N   0  0  0  0  0  0  0  0  0  0  0  0
   45.8490   30.9990   41.6860 H   0  0  0  0  0  0  0  0  0  0  0  0
   46.1250   31.7840   40.0340 H   0  0  0  0  0  0  0  0  0  0  0  0
  1 11  1  0  0  0  0
  1  6  1  0  0  0  0
  2  1  2  0  0  0  0
  3  2  1  0  0  0  0
  3  4  2  0  0  0  0
  4  5  1  0  0  0  0
  5  6  2  0  0  0  0
  5  8  1  0  0  0  0
  7  3  1  0  0  0  0
  9 13  1  0  0  0  0
  9 11  1  0  0  0  0
 10  9  2  0  0  0  0
 11 12  1  0  0  0  0
 13 14  2  0  0  0  0
 14 15  1  0  0  0  0
 16 14  1  0  0  0  0
 17 16  1  0  0  0  0
 18 17  1  0  0  0  0
 19 17  2  0  0  0  0
 19 13  1  0  0  0  0
 20 21  1  0  0  0  0
 20  2  1  0  0  0  0
 22 20  1  0  0  0  0
M  END
>  <minimizedAffinity>
-3.39569616

>  <minimizedRMSD>
4.98550224

$$$$
