
 OpenBabel03242520193D

 33 35  0  0  0  0  0  0  0  0999 V2000
   41.0290   35.7620   39.1640 C   0  0  0  0  0  0  0  0  0  0  0  0
   40.7540   35.4170   38.1630 H   0  0  0  0  0  0  0  0  0  0  0  0
   41.2900   36.8360   39.0710 H   0  0  0  0  0  0  0  0  0  0  0  0
   43.9380   34.5810   41.2740 C   0  0  0  0  0  0  0  0  0  0  0  0
   42.7850   35.2860   40.8690 C   0  0  0  0  0  0  0  0  0  0  0  0
   42.2490   35.0440   39.6150 C   0  0  0  0  0  0  0  0  0  0  0  0
   42.8940   34.1130   38.8340 N   0  0  0  0  0  0  0  0  0  0  0  0
   44.0010   33.4630   39.2690 C   0  0  0  0  0  0  0  0  0  0  0  0
   44.5160   33.6920   40.4710 N   0  0  0  0  0  0  0  0  0  0  0  0
   42.3440   36.0060   41.5600 H   0  0  0  0  0  0  0  0  0  0  0  0
   44.4290   32.7460   38.5640 H   0  0  0  0  0  0  0  0  0  0  0  0
   44.5090   34.8580   42.6170 C   0  0  0  0  0  0  0  0  0  0  0  0
   46.0240   35.2580   42.5380 C   0  0  0  0  0  0  0  0  0  0  0  0
   44.9620   36.1270   43.0550 C   0  0  0  0  0  0  0  0  0  0  0  0
   44.3460   33.9870   43.3070 H   0  0  0  0  0  0  0  0  0  0  0  0
   46.6950   34.6980   43.2150 H   0  0  0  0  0  0  0  0  0  0  0  0
   46.4580   35.3730   41.5310 H   0  0  0  0  0  0  0  0  0  0  0  0
   44.7230   37.0350   42.4410 H   0  0  0  0  0  0  0  0  0  0  0  0
   44.9390   36.3920   44.1400 H   0  0  0  0  0  0  0  0  0  0  0  0
   39.9210   35.6160   40.1880 C   0  0  0  0  0  0  0  0  0  0  0  0
   39.2750   36.5390   40.1360 H   0  0  0  0  0  0  0  0  0  0  0  0
   40.3800   35.6290   41.1780 H   0  0  0  0  0  0  0  0  0  0  0  0
   39.2310   33.3710   40.9140 C   0  0  0  0  0  0  0  0  0  0  0  0
   39.8400   33.4750   42.0190 O   0  0  0  0  0  0  0  0  0  0  0  0
   39.1210   34.4190   39.9690 N   0  0  0  0  0  0  0  0  0  0  0  0
   38.5170   34.3890   39.1420 H   0  0  0  0  0  0  0  0  0  0  0  0
   38.6040   32.0620   40.6120 C   0  0  0  0  0  0  0  0  0  0  0  0
   38.8460   31.6100   39.3680 C   0  0  0  0  0  0  0  0  0  0  0  0
   39.3460   31.8110   38.4120 H   0  0  0  0  0  0  0  0  0  0  0  0
   37.9120   29.9560   39.3310 S   0  0  0  0  0  0  0  0  0  0  0  0
   37.3650   30.2630   41.1240 C   0  0  0  0  0  0  0  0  0  0  0  0
   36.7260   29.7970   42.0460 H   0  0  0  0  0  0  0  0  0  0  0  0
   37.8510   31.2460   41.3160 N   0  0  0  0  0  0  0  0  0  0  0  0
  1  6  1  0  0  0  0
  1 20  1  0  0  0  0
  2  1  1  0  0  0  0
  3  1  1  0  0  0  0
  4 12  1  0  0  0  0
  5  4  1  0  0  0  0
  5 10  1  0  0  0  0
  6  5  2  0  0  0  0
  7  8  2  0  0  0  0
  7  6  1  0  0  0  0
  8  9  1  0  0  0  0
  9  4  2  0  0  0  0
 11  8  1  0  0  0  0
 12 14  1  0  0  0  0
 12 15  1  0  0  0  0
 13 12  1  0  0  0  0
 13 14  1  0  0  0  0
 13 16  1  0  0  0  0
 14 19  1  0  0  0  0
 17 13  1  0  0  0  0
 18 14  1  0  0  0  0
 20 22  1  0  0  0  0
 21 20  1  0  0  0  0
 23 24  2  0  0  0  0
 25 20  1  0  0  0  0
 25 23  1  0  0  0  0
 26 25  1  0  0  0  0
 27 23  1  0  0  0  0
 27 33  1  0  0  0  0
 28 27  2  0  0  0  0
 29 28  1  0  0  0  0
 30 28  1  0  0  0  0
 30 31  1  0  0  0  0
 31 33  2  0  0  0  0
 31 32  1  0  0  0  0
M  END
>  <minimizedAffinity>
-4.84699154

>  <minimizedRMSD>
0.402632087

$$$$
