
 OpenBabel03252508503D

 26 28  0  0  0  0  0  0  0  0999 V2000
   45.9580   34.1910   41.0470 C   0  0  0  0  0  0  0  0  0  0  0  0
   46.5420   34.8140   42.1450 C   0  0  0  0  0  0  0  0  0  0  0  0
   47.8830   35.1780   42.0090 C   0  0  0  0  0  0  0  0  0  0  0  0
   48.5230   34.9060   40.8360 N   0  0  0  0  0  0  0  0  0  0  0  0
   47.9170   34.3070   39.8170 C   0  0  0  0  0  0  0  0  0  0  0  0
   46.6290   33.9430   39.9100 N   0  0  0  0  0  0  0  0  0  0  0  0
   48.3730   35.6650   42.8450 H   0  0  0  0  0  0  0  0  0  0  0  0
   48.3870   34.0740   38.8690 H   0  0  0  0  0  0  0  0  0  0  0  0
   45.7640   35.0520   43.3420 C   0  0  0  0  0  0  0  0  0  0  0  0
   45.0750   36.2380   43.5700 C   0  0  0  0  0  0  0  0  0  0  0  0
   44.4900   36.0260   44.8040 C   0  0  0  0  0  0  0  0  0  0  0  0
   44.7990   34.7970   45.2980 N   0  0  0  0  0  0  0  0  0  0  0  0
   45.5710   34.2330   44.3900 N   0  0  0  0  0  0  0  0  0  0  0  0
   45.0040   37.1120   42.9490 H   0  0  0  0  0  0  0  0  0  0  0  0
   43.8580   36.7110   45.3550 H   0  0  0  0  0  0  0  0  0  0  0  0
   44.5420   34.3190   46.1700 H   0  0  0  0  0  0  0  0  0  0  0  0
   44.6280   33.8120   41.1380 O   0  0  0  0  0  0  0  0  0  0  0  0
   43.5460   34.4420   40.5940 C   0  0  0  0  0  0  0  0  0  0  0  0
   43.2110   35.6730   40.7300 O   0  0  0  0  0  0  0  0  0  0  0  0
   42.5770   33.6980   39.7250 C   0  0  0  0  0  0  0  0  0  0  0  0
   41.4930   34.4130   39.2280 C   0  0  0  0  0  0  0  0  0  0  0  0
   41.0530   35.4190   39.2430 H   0  0  0  0  0  0  0  0  0  0  0  0
   40.5440   33.1780   38.2280 S   0  0  0  0  0  0  0  0  0  0  0  0
   41.8330   31.8600   38.6790 C   0  0  0  0  0  0  0  0  0  0  0  0
   42.2170   30.6520   38.5670 H   0  0  0  0  0  0  0  0  0  0  0  0
   42.5340   32.4470   39.3190 N   0  0  0  0  0  0  0  0  0  0  0  0
  1 17  1  0  0  0  0
  1  2  1  0  0  0  0
  2  9  1  0  0  0  0
  3  2  2  0  0  0  0
  3  7  1  0  0  0  0
  4  3  1  0  0  0  0
  5  6  1  0  0  0  0
  5  4  2  0  0  0  0
  6  1  2  0  0  0  0
  8  5  1  0  0  0  0
  9 10  1  0  0  0  0
  9 13  2  0  0  0  0
 10 11  2  0  0  0  0
 11 12  1  0  0  0  0
 11 15  1  0  0  0  0
 12 16  1  0  0  0  0
 13 12  1  0  0  0  0
 14 10  1  0  0  0  0
 18 19  2  0  0  0  0
 18 17  1  0  0  0  0
 20 18  1  0  0  0  0
 21 22  1  0  0  0  0
 21 20  2  0  0  0  0
 23 24  1  0  0  0  0
 23 21  1  0  0  0  0
 24 26  2  0  0  0  0
 25 24  1  0  0  0  0
 26 20  1  0  0  0  0
M  END
>  <minimizedAffinity>
-4.97126818

>  <minimizedRMSD>
0.381965697

$$$$
