
 OpenBabel03252508503D

 26 28  0  0  0  0  0  0  0  0999 V2000
   45.9880   34.1550   41.0530 C   0  0  0  0  0  0  0  0  0  0  0  0
   46.5550   34.8140   42.1400 C   0  0  0  0  0  0  0  0  0  0  0  0
   47.8840   35.2160   41.9930 C   0  0  0  0  0  0  0  0  0  0  0  0
   48.5290   34.9460   40.8240 N   0  0  0  0  0  0  0  0  0  0  0  0
   47.9390   34.3120   39.8150 C   0  0  0  0  0  0  0  0  0  0  0  0
   46.6630   33.9100   39.9180 N   0  0  0  0  0  0  0  0  0  0  0  0
   48.3600   35.7320   42.8200 H   0  0  0  0  0  0  0  0  0  0  0  0
   48.4140   34.0780   38.8700 H   0  0  0  0  0  0  0  0  0  0  0  0
   45.7720   35.0470   43.3340 C   0  0  0  0  0  0  0  0  0  0  0  0
   45.0570   36.2190   43.5500 C   0  0  0  0  0  0  0  0  0  0  0  0
   44.4780   36.0070   44.7880 C   0  0  0  0  0  0  0  0  0  0  0  0
   44.8150   34.7900   45.2940 N   0  0  0  0  0  0  0  0  0  0  0  0
   45.5990   34.2350   44.3910 N   0  0  0  0  0  0  0  0  0  0  0  0
   44.9650   37.0850   42.9200 H   0  0  0  0  0  0  0  0  0  0  0  0
   43.8320   36.6830   45.3320 H   0  0  0  0  0  0  0  0  0  0  0  0
   44.5700   34.3160   46.1720 H   0  0  0  0  0  0  0  0  0  0  0  0
   44.6700   33.7380   41.1540 O   0  0  0  0  0  0  0  0  0  0  0  0
   43.5690   34.3180   40.5930 C   0  0  0  0  0  0  0  0  0  0  0  0
   43.2700   35.5660   40.5770 O   0  0  0  0  0  0  0  0  0  0  0  0
   42.5310   33.4910   39.8960 C   0  0  0  0  0  0  0  0  0  0  0  0
   42.8060   33.0970   38.5910 C   0  0  0  0  0  0  0  0  0  0  0  0
   43.5810   33.1800   37.8170 H   0  0  0  0  0  0  0  0  0  0  0  0
   41.3190   32.1180   38.0820 S   0  0  0  0  0  0  0  0  0  0  0  0
   40.5590   32.4280   39.7930 C   0  0  0  0  0  0  0  0  0  0  0  0
   39.5780   32.2440   40.5820 H   0  0  0  0  0  0  0  0  0  0  0  0
   41.3560   33.0420   40.2800 N   0  0  0  0  0  0  0  0  0  0  0  0
  1 17  1  0  0  0  0
  1  2  1  0  0  0  0
  2  9  1  0  0  0  0
  3  2  2  0  0  0  0
  3  7  1  0  0  0  0
  4  3  1  0  0  0  0
  5  6  1  0  0  0  0
  5  4  2  0  0  0  0
  6  1  2  0  0  0  0
  8  5  1  0  0  0  0
  9 10  1  0  0  0  0
  9 13  2  0  0  0  0
 10 11  2  0  0  0  0
 11 12  1  0  0  0  0
 11 15  1  0  0  0  0
 12 16  1  0  0  0  0
 13 12  1  0  0  0  0
 14 10  1  0  0  0  0
 18 17  1  0  0  0  0
 19 18  2  0  0  0  0
 20 26  1  0  0  0  0
 20 18  1  0  0  0  0
 21 20  2  0  0  0  0
 22 21  1  0  0  0  0
 23 21  1  0  0  0  0
 23 24  1  0  0  0  0
 24 26  2  0  0  0  0
 24 25  1  0  0  0  0
M  END
>  <minimizedAffinity>
-4.93984032

>  <minimizedRMSD>
0.382380962

$$$$
