
 OpenBabel03252508503D

 26 28  0  0  0  0  0  0  0  0999 V2000
   45.9550   34.1920   41.0320 C   0  0  0  0  0  0  0  0  0  0  0  0
   46.5410   34.8110   42.1320 C   0  0  0  0  0  0  0  0  0  0  0  0
   47.8840   35.1690   41.9970 C   0  0  0  0  0  0  0  0  0  0  0  0
   48.5230   34.8980   40.8250 N   0  0  0  0  0  0  0  0  0  0  0  0
   47.9150   34.3030   39.8030 C   0  0  0  0  0  0  0  0  0  0  0  0
   46.6260   33.9440   39.8950 N   0  0  0  0  0  0  0  0  0  0  0  0
   48.3740   35.6540   42.8340 H   0  0  0  0  0  0  0  0  0  0  0  0
   48.3850   34.0690   38.8560 H   0  0  0  0  0  0  0  0  0  0  0  0
   45.7630   35.0500   43.3280 C   0  0  0  0  0  0  0  0  0  0  0  0
   45.0720   36.2360   43.5540 C   0  0  0  0  0  0  0  0  0  0  0  0
   44.4880   36.0250   44.7900 C   0  0  0  0  0  0  0  0  0  0  0  0
   44.7990   34.7980   45.2860 N   0  0  0  0  0  0  0  0  0  0  0  0
   45.5720   34.2340   44.3780 N   0  0  0  0  0  0  0  0  0  0  0  0
   45.0000   37.1090   42.9320 H   0  0  0  0  0  0  0  0  0  0  0  0
   43.8560   36.7110   45.3400 H   0  0  0  0  0  0  0  0  0  0  0  0
   44.5430   34.3210   46.1590 H   0  0  0  0  0  0  0  0  0  0  0  0
   44.6230   33.8190   41.1220 O   0  0  0  0  0  0  0  0  0  0  0  0
   43.5470   34.4370   40.5520 C   0  0  0  0  0  0  0  0  0  0  0  0
   43.1580   35.6460   40.7330 O   0  0  0  0  0  0  0  0  0  0  0  0
   42.6550   33.7050   39.5950 C   0  0  0  0  0  0  0  0  0  0  0  0
   41.3400   34.1450   39.4940 C   0  0  0  0  0  0  0  0  0  0  0  0
   40.6570   34.9050   39.8980 H   0  0  0  0  0  0  0  0  0  0  0  0
   40.5700   33.0150   38.2450 S   0  0  0  0  0  0  0  0  0  0  0  0
   42.2320   32.1130   38.0770 C   0  0  0  0  0  0  0  0  0  0  0  0
   42.8950   31.1800   37.5190 H   0  0  0  0  0  0  0  0  0  0  0  0
   42.8660   32.6830   38.7970 N   0  0  0  0  0  0  0  0  0  0  0  0
  1 17  1  0  0  0  0
  1  2  1  0  0  0  0
  2  9  1  0  0  0  0
  3  2  2  0  0  0  0
  3  7  1  0  0  0  0
  4  3  1  0  0  0  0
  5  6  1  0  0  0  0
  5  4  2  0  0  0  0
  6  1  2  0  0  0  0
  8  5  1  0  0  0  0
  9 10  1  0  0  0  0
  9 13  2  0  0  0  0
 10 11  2  0  0  0  0
 11 12  1  0  0  0  0
 11 15  1  0  0  0  0
 12 16  1  0  0  0  0
 13 12  1  0  0  0  0
 14 10  1  0  0  0  0
 18 19  2  0  0  0  0
 18 17  1  0  0  0  0
 20 18  1  0  0  0  0
 21 20  2  0  0  0  0
 21 22  1  0  0  0  0
 23 21  1  0  0  0  0
 24 23  1  0  0  0  0
 24 26  2  0  0  0  0
 25 24  1  0  0  0  0
 26 20  1  0  0  0  0
M  END
>  <minimizedAffinity>
-4.9910059

>  <minimizedRMSD>
0.376229525

$$$$
