
 OpenBabel03252508503D

 26 28  0  0  0  0  0  0  0  0999 V2000
   45.9640   34.1790   41.0460 C   0  0  0  0  0  0  0  0  0  0  0  0
   46.5440   34.8100   42.1420 C   0  0  0  0  0  0  0  0  0  0  0  0
   47.8830   35.1820   42.0030 C   0  0  0  0  0  0  0  0  0  0  0  0
   48.5250   34.9110   40.8320 N   0  0  0  0  0  0  0  0  0  0  0  0
   47.9220   34.3040   39.8150 C   0  0  0  0  0  0  0  0  0  0  0  0
   46.6370   33.9320   39.9090 N   0  0  0  0  0  0  0  0  0  0  0  0
   48.3690   35.6770   42.8380 H   0  0  0  0  0  0  0  0  0  0  0  0
   48.3930   34.0710   38.8680 H   0  0  0  0  0  0  0  0  0  0  0  0
   45.7650   35.0470   43.3380 C   0  0  0  0  0  0  0  0  0  0  0  0
   45.0680   36.2290   43.5620 C   0  0  0  0  0  0  0  0  0  0  0  0
   44.4850   36.0180   44.7970 C   0  0  0  0  0  0  0  0  0  0  0  0
   44.8020   34.7930   45.2950 N   0  0  0  0  0  0  0  0  0  0  0  0
   45.5770   34.2310   44.3890 N   0  0  0  0  0  0  0  0  0  0  0  0
   44.9910   37.1010   42.9370 H   0  0  0  0  0  0  0  0  0  0  0  0
   43.8490   36.7010   45.3460 H   0  0  0  0  0  0  0  0  0  0  0  0
   44.5480   34.3160   46.1690 H   0  0  0  0  0  0  0  0  0  0  0  0
   44.6360   33.7920   41.1390 O   0  0  0  0  0  0  0  0  0  0  0  0
   43.5470   34.4330   40.6250 C   0  0  0  0  0  0  0  0  0  0  0  0
   43.3290   35.6970   40.5970 O   0  0  0  0  0  0  0  0  0  0  0  0
   42.4200   33.6640   40.0050 C   0  0  0  0  0  0  0  0  0  0  0  0
   41.6280   32.9030   40.8580 C   0  0  0  0  0  0  0  0  0  0  0  0
   41.5200   32.6410   41.9190 H   0  0  0  0  0  0  0  0  0  0  0  0
   40.3750   32.1140   39.7460 S   0  0  0  0  0  0  0  0  0  0  0  0
   41.1790   32.9890   38.2650 C   0  0  0  0  0  0  0  0  0  0  0  0
   41.1730   33.1950   37.0090 H   0  0  0  0  0  0  0  0  0  0  0  0
   42.0060   33.5500   38.7630 N   0  0  0  0  0  0  0  0  0  0  0  0
  1 17  1  0  0  0  0
  1  2  1  0  0  0  0
  2  9  1  0  0  0  0
  3  2  2  0  0  0  0
  3  7  1  0  0  0  0
  4  3  1  0  0  0  0
  5  6  1  0  0  0  0
  5  4  2  0  0  0  0
  6  1  2  0  0  0  0
  8  5  1  0  0  0  0
  9 10  1  0  0  0  0
  9 13  2  0  0  0  0
 10 11  2  0  0  0  0
 11 12  1  0  0  0  0
 11 15  1  0  0  0  0
 12 16  1  0  0  0  0
 13 12  1  0  0  0  0
 14 10  1  0  0  0  0
 18 17  1  0  0  0  0
 19 18  2  0  0  0  0
 20 18  1  0  0  0  0
 20 21  2  0  0  0  0
 21 22  1  0  0  0  0
 23 21  1  0  0  0  0
 24 26  2  0  0  0  0
 24 23  1  0  0  0  0
 25 24  1  0  0  0  0
 26 20  1  0  0  0  0
M  END
>  <minimizedAffinity>
-5.00992775

>  <minimizedRMSD>
0.545663118

$$$$
