
 OpenBabel03252508503D

 26 28  0  0  0  0  0  0  0  0999 V2000
   45.9830   34.1870   41.0510 C   0  0  0  0  0  0  0  0  0  0  0  0
   46.5580   34.8180   42.1510 C   0  0  0  0  0  0  0  0  0  0  0  0
   47.8970   35.1920   42.0180 C   0  0  0  0  0  0  0  0  0  0  0  0
   48.5430   34.9230   40.8480 N   0  0  0  0  0  0  0  0  0  0  0  0
   47.9450   34.3170   39.8280 C   0  0  0  0  0  0  0  0  0  0  0  0
   46.6600   33.9430   39.9170 N   0  0  0  0  0  0  0  0  0  0  0  0
   48.3790   35.6850   42.8550 H   0  0  0  0  0  0  0  0  0  0  0  0
   48.4200   34.0850   38.8820 H   0  0  0  0  0  0  0  0  0  0  0  0
   45.7740   35.0520   43.3440 C   0  0  0  0  0  0  0  0  0  0  0  0
   45.0710   36.2310   43.5640 C   0  0  0  0  0  0  0  0  0  0  0  0
   44.4850   36.0180   44.7980 C   0  0  0  0  0  0  0  0  0  0  0  0
   44.8060   34.7950   45.2980 N   0  0  0  0  0  0  0  0  0  0  0  0
   45.5870   34.2360   44.3950 N   0  0  0  0  0  0  0  0  0  0  0  0
   44.9920   37.1020   42.9390 H   0  0  0  0  0  0  0  0  0  0  0  0
   43.8440   36.6990   45.3440 H   0  0  0  0  0  0  0  0  0  0  0  0
   44.5520   34.3180   46.1720 H   0  0  0  0  0  0  0  0  0  0  0  0
   44.6550   33.7980   41.1390 O   0  0  0  0  0  0  0  0  0  0  0  0
   43.5690   34.4240   40.5980 C   0  0  0  0  0  0  0  0  0  0  0  0
   43.3090   35.6800   40.6090 O   0  0  0  0  0  0  0  0  0  0  0  0
   42.5010   33.6440   39.8930 C   0  0  0  0  0  0  0  0  0  0  0  0
   41.3270   33.3980   40.5970 C   0  0  0  0  0  0  0  0  0  0  0  0
   40.8590   33.5880   41.5720 H   0  0  0  0  0  0  0  0  0  0  0  0
   40.2790   32.4260   39.4220 S   0  0  0  0  0  0  0  0  0  0  0  0
   41.6710   32.5290   38.1340 C   0  0  0  0  0  0  0  0  0  0  0  0
   42.0760   32.2290   36.9660 H   0  0  0  0  0  0  0  0  0  0  0  0
   42.4420   33.1150   38.6910 N   0  0  0  0  0  0  0  0  0  0  0  0
  1 17  1  0  0  0  0
  1  2  1  0  0  0  0
  2  9  1  0  0  0  0
  3  2  2  0  0  0  0
  3  7  1  0  0  0  0
  4  3  1  0  0  0  0
  5  6  1  0  0  0  0
  5  4  2  0  0  0  0
  6  1  2  0  0  0  0
  8  5  1  0  0  0  0
  9 10  1  0  0  0  0
  9 13  2  0  0  0  0
 10 11  2  0  0  0  0
 11 12  1  0  0  0  0
 11 15  1  0  0  0  0
 12 16  1  0  0  0  0
 13 12  1  0  0  0  0
 14 10  1  0  0  0  0
 18 19  2  0  0  0  0
 18 17  1  0  0  0  0
 20 21  2  0  0  0  0
 20 18  1  0  0  0  0
 21 22  1  0  0  0  0
 23 21  1  0  0  0  0
 24 26  2  0  0  0  0
 24 23  1  0  0  0  0
 25 24  1  0  0  0  0
 26 20  1  0  0  0  0
M  END
>  <minimizedAffinity>
-4.97821665

>  <minimizedRMSD>
0.444143474

$$$$
