
 OpenBabel03252508503D

 26 28  0  0  0  0  0  0  0  0999 V2000
   45.9800   34.1970   41.0460 C   0  0  0  0  0  0  0  0  0  0  0  0
   46.5580   34.8180   42.1500 C   0  0  0  0  0  0  0  0  0  0  0  0
   47.9000   35.1810   42.0210 C   0  0  0  0  0  0  0  0  0  0  0  0
   48.5470   34.9130   40.8520 N   0  0  0  0  0  0  0  0  0  0  0  0
   47.9460   34.3160   39.8270 C   0  0  0  0  0  0  0  0  0  0  0  0
   46.6580   33.9520   39.9120 N   0  0  0  0  0  0  0  0  0  0  0  0
   48.3840   35.6670   42.8620 H   0  0  0  0  0  0  0  0  0  0  0  0
   48.4210   34.0850   38.8820 H   0  0  0  0  0  0  0  0  0  0  0  0
   45.7730   35.0530   43.3420 C   0  0  0  0  0  0  0  0  0  0  0  0
   45.0800   36.2370   43.5680 C   0  0  0  0  0  0  0  0  0  0  0  0
   44.4890   36.0220   44.7990 C   0  0  0  0  0  0  0  0  0  0  0  0
   44.7980   34.7930   45.2930 N   0  0  0  0  0  0  0  0  0  0  0  0
   45.5760   34.2330   44.3880 N   0  0  0  0  0  0  0  0  0  0  0  0
   45.0110   37.1120   42.9470 H   0  0  0  0  0  0  0  0  0  0  0  0
   43.8540   36.7060   45.3470 H   0  0  0  0  0  0  0  0  0  0  0  0
   44.5370   34.3140   46.1630 H   0  0  0  0  0  0  0  0  0  0  0  0
   44.6490   33.8190   41.1290 O   0  0  0  0  0  0  0  0  0  0  0  0
   43.5680   34.4640   40.6030 C   0  0  0  0  0  0  0  0  0  0  0  0
   43.3180   35.7220   40.6410 O   0  0  0  0  0  0  0  0  0  0  0  0
   42.4930   33.7080   39.8820 C   0  0  0  0  0  0  0  0  0  0  0  0
   41.8230   34.3750   38.8630 C   0  0  0  0  0  0  0  0  0  0  0  0
   41.7970   35.3440   38.3470 H   0  0  0  0  0  0  0  0  0  0  0  0
   40.5950   33.1420   38.2320 S   0  0  0  0  0  0  0  0  0  0  0  0
   41.2320   31.8920   39.5120 C   0  0  0  0  0  0  0  0  0  0  0  0
   41.1410   30.7230   40.0090 H   0  0  0  0  0  0  0  0  0  0  0  0
   42.0270   32.4860   40.0240 N   0  0  0  0  0  0  0  0  0  0  0  0
  1 17  1  0  0  0  0
  1  2  1  0  0  0  0
  2  9  1  0  0  0  0
  3  2  2  0  0  0  0
  3  7  1  0  0  0  0
  4  3  1  0  0  0  0
  5  6  1  0  0  0  0
  5  4  2  0  0  0  0
  6  1  2  0  0  0  0
  8  5  1  0  0  0  0
  9 10  1  0  0  0  0
  9 13  2  0  0  0  0
 10 11  2  0  0  0  0
 11 12  1  0  0  0  0
 11 15  1  0  0  0  0
 12 16  1  0  0  0  0
 13 12  1  0  0  0  0
 14 10  1  0  0  0  0
 18 19  2  0  0  0  0
 18 17  1  0  0  0  0
 20 26  1  0  0  0  0
 20 18  1  0  0  0  0
 21 20  2  0  0  0  0
 22 21  1  0  0  0  0
 23 21  1  0  0  0  0
 23 24  1  0  0  0  0
 24 25  1  0  0  0  0
 24 26  2  0  0  0  0
M  END
>  <minimizedAffinity>
-4.98728991

>  <minimizedRMSD>
0.466355115

$$$$
