
 OpenBabel03252508503D

 26 28  0  0  0  0  0  0  0  0999 V2000
   45.9720   34.2000   41.0450 C   0  0  0  0  0  0  0  0  0  0  0  0
   46.5540   34.8150   42.1490 C   0  0  0  0  0  0  0  0  0  0  0  0
   47.8970   35.1720   42.0200 C   0  0  0  0  0  0  0  0  0  0  0  0
   48.5420   34.9020   40.8500 N   0  0  0  0  0  0  0  0  0  0  0  0
   47.9370   34.3110   39.8240 C   0  0  0  0  0  0  0  0  0  0  0  0
   46.6470   33.9540   39.9100 N   0  0  0  0  0  0  0  0  0  0  0  0
   48.3850   35.6530   42.8610 H   0  0  0  0  0  0  0  0  0  0  0  0
   48.4110   34.0790   38.8780 H   0  0  0  0  0  0  0  0  0  0  0  0
   45.7710   35.0520   43.3420 C   0  0  0  0  0  0  0  0  0  0  0  0
   45.0820   36.2380   43.5690 C   0  0  0  0  0  0  0  0  0  0  0  0
   44.4920   36.0250   44.8010 C   0  0  0  0  0  0  0  0  0  0  0  0
   44.7970   34.7950   45.2940 N   0  0  0  0  0  0  0  0  0  0  0  0
   45.5730   34.2320   44.3880 N   0  0  0  0  0  0  0  0  0  0  0  0
   45.0140   37.1130   42.9490 H   0  0  0  0  0  0  0  0  0  0  0  0
   43.8590   36.7100   45.3500 H   0  0  0  0  0  0  0  0  0  0  0  0
   44.5360   34.3160   46.1640 H   0  0  0  0  0  0  0  0  0  0  0  0
   44.6390   33.8280   41.1280 O   0  0  0  0  0  0  0  0  0  0  0  0
   43.5610   34.4790   40.6010 C   0  0  0  0  0  0  0  0  0  0  0  0
   43.3040   35.7350   40.6610 O   0  0  0  0  0  0  0  0  0  0  0  0
   42.4990   33.7330   39.8510 C   0  0  0  0  0  0  0  0  0  0  0  0
   42.9070   32.9880   38.7490 C   0  0  0  0  0  0  0  0  0  0  0  0
   43.8070   32.7260   38.1800 H   0  0  0  0  0  0  0  0  0  0  0  0
   41.3450   32.2310   38.1010 S   0  0  0  0  0  0  0  0  0  0  0  0
   40.3810   33.0910   39.4920 C   0  0  0  0  0  0  0  0  0  0  0  0
   39.2550   33.3020   40.0470 H   0  0  0  0  0  0  0  0  0  0  0  0
   41.2000   33.6310   40.0270 N   0  0  0  0  0  0  0  0  0  0  0  0
  1 17  1  0  0  0  0
  1  2  1  0  0  0  0
  2  9  1  0  0  0  0
  3  2  2  0  0  0  0
  3  7  1  0  0  0  0
  4  3  1  0  0  0  0
  5  6  1  0  0  0  0
  5  4  2  0  0  0  0
  6  1  2  0  0  0  0
  8  5  1  0  0  0  0
  9 10  1  0  0  0  0
  9 13  2  0  0  0  0
 10 11  2  0  0  0  0
 11 12  1  0  0  0  0
 11 15  1  0  0  0  0
 12 16  1  0  0  0  0
 13 12  1  0  0  0  0
 14 10  1  0  0  0  0
 18 19  2  0  0  0  0
 18 17  1  0  0  0  0
 20 26  1  0  0  0  0
 20 18  1  0  0  0  0
 21 20  2  0  0  0  0
 22 21  1  0  0  0  0
 23 21  1  0  0  0  0
 23 24  1  0  0  0  0
 24 26  2  0  0  0  0
 24 25  1  0  0  0  0
M  END
>  <minimizedAffinity>
-4.9853034

>  <minimizedRMSD>
0.487786353

$$$$
