
 OpenBabel03252503343D

 20 21  0  0  0  0  0  0  0  0999 V2000
   46.2940   34.0170   40.8130 C   0  0  0  0  0  0  0  0  0  0  0  0
   45.1960   33.4450   41.0370 O   0  0  0  0  0  0  0  0  0  0  0  0
   46.8000   34.7900   41.8860 N   0  0  0  0  0  0  0  0  0  0  0  0
   47.7330   35.2450   41.6580 H   0  0  0  0  0  0  0  0  0  0  0  0
   44.5270   36.0290   44.5470 C   0  0  0  0  0  0  0  0  0  0  0  0
   45.1950   35.9680   43.3180 C   0  0  0  0  0  0  0  0  0  0  0  0
   46.0970   34.9080   43.1020 C   0  0  0  0  0  0  0  0  0  0  0  0
   46.2840   33.9850   44.0900 N   0  0  0  0  0  0  0  0  0  0  0  0
   45.6100   34.0930   45.2610 C   0  0  0  0  0  0  0  0  0  0  0  0
   44.7440   35.0890   45.5000 N   0  0  0  0  0  0  0  0  0  0  0  0
   43.8400   36.8450   44.6980 H   0  0  0  0  0  0  0  0  0  0  0  0
   45.0250   36.7090   42.5620 H   0  0  0  0  0  0  0  0  0  0  0  0
   45.7790   33.3470   46.0260 H   0  0  0  0  0  0  0  0  0  0  0  0
   46.8430   33.7770   39.4880 C   0  0  0  0  0  0  0  0  0  0  0  0
   46.2380   32.9480   38.5900 C   0  0  0  0  0  0  0  0  0  0  0  0
   45.3360   32.3340   38.5930 H   0  0  0  0  0  0  0  0  0  0  0  0
   47.3580   33.0610   37.1830 S   0  0  0  0  0  0  0  0  0  0  0  0
   48.4920   34.2670   38.1170 C   0  0  0  0  0  0  0  0  0  0  0  0
   49.3450   34.4350   37.2230 H   0  0  0  0  0  0  0  0  0  0  0  0
   47.9470   34.3470   39.0910 N   0  0  0  0  0  0  0  0  0  0  0  0
  1  2  2  0  0  0  0
  1  3  1  0  0  0  0
  3  7  1  0  0  0  0
  4  3  1  0  0  0  0
  5 11  1  0  0  0  0
  5 10  1  0  0  0  0
  6  5  2  0  0  0  0
  7  6  1  0  0  0  0
  7  8  2  0  0  0  0
  8  9  1  0  0  0  0
  9 10  2  0  0  0  0
  9 13  1  0  0  0  0
 12  6  1  0  0  0  0
 14  1  1  0  0  0  0
 15 16  1  0  0  0  0
 15 14  2  0  0  0  0
 17 18  1  0  0  0  0
 17 15  1  0  0  0  0
 18 20  2  0  0  0  0
 19 18  1  0  0  0  0
 20 14  1  0  0  0  0
M  END
>  <minimizedAffinity>
-4.04331064

>  <minimizedRMSD>
0.23258926

$$$$
