
 OpenBabel03252503363D

 20 21  0  0  0  0  0  0  0  0999 V2000
   38.3880   30.3320   40.9730 C   0  0  0  0  0  0  0  0  0  0  0  0
   38.7520   29.5730   40.0390 O   0  0  0  0  0  0  0  0  0  0  0  0
   38.0640   29.6800   42.1880 N   0  0  0  0  0  0  0  0  0  0  0  0
   37.7740   30.3600   42.9520 H   0  0  0  0  0  0  0  0  0  0  0  0
   37.1420   26.0840   42.2130 C   0  0  0  0  0  0  0  0  0  0  0  0
   37.0050   27.4710   42.0750 C   0  0  0  0  0  0  0  0  0  0  0  0
   38.1360   28.2790   42.3100 C   0  0  0  0  0  0  0  0  0  0  0  0
   39.3130   27.6830   42.6590 N   0  0  0  0  0  0  0  0  0  0  0  0
   39.3890   26.3350   42.7770 C   0  0  0  0  0  0  0  0  0  0  0  0
   38.3330   25.5370   42.5610 N   0  0  0  0  0  0  0  0  0  0  0  0
   36.2690   25.4800   42.0300 H   0  0  0  0  0  0  0  0  0  0  0  0
   36.0650   27.9070   41.8000 H   0  0  0  0  0  0  0  0  0  0  0  0
   40.3350   25.8920   43.0560 H   0  0  0  0  0  0  0  0  0  0  0  0
   38.3680   31.7460   40.6320 C   0  0  0  0  0  0  0  0  0  0  0  0
   39.3400   32.6070   41.0450 C   0  0  0  0  0  0  0  0  0  0  0  0
   40.2510   32.5140   41.6400 H   0  0  0  0  0  0  0  0  0  0  0  0
   38.7770   34.1610   40.3300 S   0  0  0  0  0  0  0  0  0  0  0  0
   37.2540   33.3160   39.5670 C   0  0  0  0  0  0  0  0  0  0  0  0
   36.7520   34.3170   39.0180 H   0  0  0  0  0  0  0  0  0  0  0  0
   37.4110   32.2630   39.9100 N   0  0  0  0  0  0  0  0  0  0  0  0
  1  3  1  0  0  0  0
  2  1  2  0  0  0  0
  3  7  1  0  0  0  0
  3  4  1  0  0  0  0
  5 10  1  0  0  0  0
  6  5  2  0  0  0  0
  6  7  1  0  0  0  0
  7  8  2  0  0  0  0
  8  9  1  0  0  0  0
  9 13  1  0  0  0  0
 10  9  2  0  0  0  0
 11  5  1  0  0  0  0
 12  6  1  0  0  0  0
 14  1  1  0  0  0  0
 14 15  2  0  0  0  0
 15 16  1  0  0  0  0
 17 15  1  0  0  0  0
 18 20  2  0  0  0  0
 18 17  1  0  0  0  0
 19 18  1  0  0  0  0
 20 14  1  0  0  0  0
M  END
>  <minimizedAffinity>
-3.72985697

$$$$

 OpenBabel03252503363D

 20 21  0  0  0  0  0  0  0  0999 V2000
   38.5790   29.2130   41.9090 C   0  0  0  0  0  0  0  0  0  0  0  0
   37.5660   29.7360   42.4410 O   0  0  0  0  0  0  0  0  0  0  0  0
   39.1870   29.9820   40.8870 N   0  0  0  0  0  0  0  0  0  0  0  0
   40.0440   29.5090   40.4750 H   0  0  0  0  0  0  0  0  0  0  0  0
   37.1630   32.5960   39.1970 C   0  0  0  0  0  0  0  0  0  0  0  0
   37.6400   31.3230   39.5370 C   0  0  0  0  0  0  0  0  0  0  0  0
   38.6650   31.2320   40.5000 C   0  0  0  0  0  0  0  0  0  0  0  0
   39.1500   32.3780   41.0610 N   0  0  0  0  0  0  0  0  0  0  0  0
   38.6510   33.5830   40.6930 C   0  0  0  0  0  0  0  0  0  0  0  0
   37.6760   33.7060   39.7810 N   0  0  0  0  0  0  0  0  0  0  0  0
   36.3790   32.6490   38.4590 H   0  0  0  0  0  0  0  0  0  0  0  0
   37.2360   30.4430   39.0780 H   0  0  0  0  0  0  0  0  0  0  0  0
   39.0560   34.4730   41.1540 H   0  0  0  0  0  0  0  0  0  0  0  0
   38.9410   27.9110   42.4450 C   0  0  0  0  0  0  0  0  0  0  0  0
   40.0190   27.7350   43.2610 C   0  0  0  0  0  0  0  0  0  0  0  0
   40.7860   28.3900   43.6780 H   0  0  0  0  0  0  0  0  0  0  0  0
   39.9460   25.9640   43.5820 S   0  0  0  0  0  0  0  0  0  0  0  0
   38.3940   25.7800   42.4980 C   0  0  0  0  0  0  0  0  0  0  0  0
   38.2260   24.5520   42.6350 H   0  0  0  0  0  0  0  0  0  0  0  0
   38.2480   26.8400   42.1690 N   0  0  0  0  0  0  0  0  0  0  0  0
  1  2  2  0  0  0  0
  1 14  1  0  0  0  0
  3  1  1  0  0  0  0
  4  3  1  0  0  0  0
  5  6  2  0  0  0  0
  5 10  1  0  0  0  0
  6  7  1  0  0  0  0
  7  3  1  0  0  0  0
  7  8  2  0  0  0  0
  9  8  1  0  0  0  0
  9 13  1  0  0  0  0
 10  9  2  0  0  0  0
 11  5  1  0  0  0  0
 12  6  1  0  0  0  0
 14 15  2  0  0  0  0
 15 17  1  0  0  0  0
 15 16  1  0  0  0  0
 18 19  1  0  0  0  0
 18 17  1  0  0  0  0
 20 14  1  0  0  0  0
 20 18  2  0  0  0  0
M  END
>  <minimizedAffinity>
-3.72215486

$$$$

 OpenBabel03252503363D

 20 21  0  0  0  0  0  0  0  0999 V2000
   38.4830   30.3440   41.0310 C   0  0  0  0  0  0  0  0  0  0  0  0
   39.3040   29.6480   40.3800 O   0  0  0  0  0  0  0  0  0  0  0  0
   37.7370   29.6390   42.0070 N   0  0  0  0  0  0  0  0  0  0  0  0
   37.0660   30.2670   42.5400 H   0  0  0  0  0  0  0  0  0  0  0  0
   38.9700   26.3810   43.2900 C   0  0  0  0  0  0  0  0  0  0  0  0
   38.8460   27.7680   43.1390 C   0  0  0  0  0  0  0  0  0  0  0  0
   37.9100   28.2550   42.2050 C   0  0  0  0  0  0  0  0  0  0  0  0
   37.1650   27.3640   41.4880 N   0  0  0  0  0  0  0  0  0  0  0  0
   37.3270   26.0320   41.6750 C   0  0  0  0  0  0  0  0  0  0  0  0
   38.2080   25.5340   42.5550 N   0  0  0  0  0  0  0  0  0  0  0  0
   39.6900   26.0230   44.0080 H   0  0  0  0  0  0  0  0  0  0  0  0
   39.4470   28.4410   43.7190 H   0  0  0  0  0  0  0  0  0  0  0  0
   36.7230   25.3500   41.0910 H   0  0  0  0  0  0  0  0  0  0  0  0
   38.4500   31.7500   40.6590 C   0  0  0  0  0  0  0  0  0  0  0  0
   39.4140   32.6280   41.0550 C   0  0  0  0  0  0  0  0  0  0  0  0
   40.3240   32.5560   41.6530 H   0  0  0  0  0  0  0  0  0  0  0  0
   38.8380   34.1610   40.3040 S   0  0  0  0  0  0  0  0  0  0  0  0
   37.3240   33.2860   39.5580 C   0  0  0  0  0  0  0  0  0  0  0  0
   36.8140   34.2700   38.9870 H   0  0  0  0  0  0  0  0  0  0  0  0
   37.4900   32.2420   39.9250 N   0  0  0  0  0  0  0  0  0  0  0  0
  1  3  1  0  0  0  0
  2  1  2  0  0  0  0
  3  7  1  0  0  0  0
  3  4  1  0  0  0  0
  5 11  1  0  0  0  0
  6  5  1  0  0  0  0
  6 12  1  0  0  0  0
  7  6  2  0  0  0  0
  8  9  2  0  0  0  0
  8  7  1  0  0  0  0
  9 10  1  0  0  0  0
 10  5  2  0  0  0  0
 13  9  1  0  0  0  0
 14  1  1  0  0  0  0
 14 15  2  0  0  0  0
 15 16  1  0  0  0  0
 17 15  1  0  0  0  0
 18 20  2  0  0  0  0
 18 17  1  0  0  0  0
 19 18  1  0  0  0  0
 20 14  1  0  0  0  0
M  END
>  <minimizedAffinity>
-3.70977879

$$$$

 OpenBabel03252503363D

 20 21  0  0  0  0  0  0  0  0999 V2000
   37.9040   29.2110   41.3290 C   0  0  0  0  0  0  0  0  0  0  0  0
   37.4310   29.9130   42.2600 O   0  0  0  0  0  0  0  0  0  0  0  0
   38.3780   29.9370   40.2090 N   0  0  0  0  0  0  0  0  0  0  0  0
   38.7790   29.3070   39.4530 H   0  0  0  0  0  0  0  0  0  0  0  0
   37.2200   33.3860   39.4690 C   0  0  0  0  0  0  0  0  0  0  0  0
   37.2430   31.9850   39.4810 C   0  0  0  0  0  0  0  0  0  0  0  0
   38.2980   31.3430   40.1590 C   0  0  0  0  0  0  0  0  0  0  0  0
   39.2510   32.1030   40.7720 N   0  0  0  0  0  0  0  0  0  0  0  0
   39.1790   33.4560   40.7280 C   0  0  0  0  0  0  0  0  0  0  0  0
   38.1890   34.1000   40.0930 N   0  0  0  0  0  0  0  0  0  0  0  0
   36.4070   33.8630   38.9470 H   0  0  0  0  0  0  0  0  0  0  0  0
   36.4780   31.4180   38.9890 H   0  0  0  0  0  0  0  0  0  0  0  0
   39.9490   34.0310   41.2240 H   0  0  0  0  0  0  0  0  0  0  0  0
   37.8770   27.7780   41.5750 C   0  0  0  0  0  0  0  0  0  0  0  0
   37.0230   26.9440   40.9190 C   0  0  0  0  0  0  0  0  0  0  0  0
   36.2510   27.0740   40.1580 H   0  0  0  0  0  0  0  0  0  0  0  0
   37.4540   25.3470   41.6330 S   0  0  0  0  0  0  0  0  0  0  0  0
   38.7770   26.1440   42.7430 C   0  0  0  0  0  0  0  0  0  0  0  0
   39.1720   25.1100   43.3170 H   0  0  0  0  0  0  0  0  0  0  0  0
   38.6750   27.2180   42.4430 N   0  0  0  0  0  0  0  0  0  0  0  0
  1 14  1  0  0  0  0
  1  2  2  0  0  0  0
  3  1  1  0  0  0  0
  4  3  1  0  0  0  0
  5  6  2  0  0  0  0
  5 10  1  0  0  0  0
  6  7  1  0  0  0  0
  7  3  1  0  0  0  0
  7  8  2  0  0  0  0
  9  8  1  0  0  0  0
  9 13  1  0  0  0  0
 10  9  2  0  0  0  0
 11  5  1  0  0  0  0
 12  6  1  0  0  0  0
 14 20  1  0  0  0  0
 15 14  2  0  0  0  0
 15 17  1  0  0  0  0
 16 15  1  0  0  0  0
 17 18  1  0  0  0  0
 18 19  1  0  0  0  0
 20 18  2  0  0  0  0
M  END
>  <minimizedAffinity>
-3.65848708

$$$$

 OpenBabel03252503363D

 20 21  0  0  0  0  0  0  0  0999 V2000
   39.5480   30.9450   40.5190 C   0  0  0  0  0  0  0  0  0  0  0  0
   39.9300   29.7890   40.2000 O   0  0  0  0  0  0  0  0  0  0  0  0
   38.4890   30.9920   41.4580 N   0  0  0  0  0  0  0  0  0  0  0  0
   38.2080   31.9860   41.7070 H   0  0  0  0  0  0  0  0  0  0  0  0
   36.2900   28.0320   41.8870 C   0  0  0  0  0  0  0  0  0  0  0  0
   36.8200   29.2010   41.3260 C   0  0  0  0  0  0  0  0  0  0  0  0
   37.9110   29.8150   41.9720 C   0  0  0  0  0  0  0  0  0  0  0  0
   38.4090   29.2510   43.1110 N   0  0  0  0  0  0  0  0  0  0  0  0
   37.8570   28.1170   43.6090 C   0  0  0  0  0  0  0  0  0  0  0  0
   36.8180   27.5070   43.0210 N   0  0  0  0  0  0  0  0  0  0  0  0
   35.4560   27.5740   41.3820 H   0  0  0  0  0  0  0  0  0  0  0  0
   36.4050   29.6180   40.4300 H   0  0  0  0  0  0  0  0  0  0  0  0
   38.2730   27.6940   44.5140 H   0  0  0  0  0  0  0  0  0  0  0  0
   40.2680   32.0240   39.8600 C   0  0  0  0  0  0  0  0  0  0  0  0
   40.7430   31.9090   38.5880 C   0  0  0  0  0  0  0  0  0  0  0  0
   40.7310   31.1260   37.8280 H   0  0  0  0  0  0  0  0  0  0  0  0
   41.5130   33.5190   38.3420 S   0  0  0  0  0  0  0  0  0  0  0  0
   41.0250   34.0760   40.0940 C   0  0  0  0  0  0  0  0  0  0  0  0
   41.5160   35.2220   40.0590 H   0  0  0  0  0  0  0  0  0  0  0  0
   40.4950   33.1610   40.4590 N   0  0  0  0  0  0  0  0  0  0  0  0
  1  3  1  0  0  0  0
  2  1  2  0  0  0  0
  3  4  1  0  0  0  0
  3  7  1  0  0  0  0
  5 10  1  0  0  0  0
  6  5  2  0  0  0  0
  6  7  1  0  0  0  0
  7  8  2  0  0  0  0
  8  9  1  0  0  0  0
  9 13  1  0  0  0  0
 10  9  2  0  0  0  0
 11  5  1  0  0  0  0
 12  6  1  0  0  0  0
 14 20  1  0  0  0  0
 14  1  1  0  0  0  0
 15 14  2  0  0  0  0
 16 15  1  0  0  0  0
 17 15  1  0  0  0  0
 17 18  1  0  0  0  0
 18 20  2  0  0  0  0
 19 18  1  0  0  0  0
M  END
>  <minimizedAffinity>
-3.5115633

$$$$

 OpenBabel03252503363D

 20 21  0  0  0  0  0  0  0  0999 V2000
   41.4760   31.1390   37.5080 C   0  0  0  0  0  0  0  0  0  0  0  0
   41.3300   30.3820   38.5030 O   0  0  0  0  0  0  0  0  0  0  0  0
   40.3710   31.9780   37.2230 N   0  0  0  0  0  0  0  0  0  0  0  0
   40.5420   32.6070   36.3840 H   0  0  0  0  0  0  0  0  0  0  0  0
   36.9570   31.1610   38.4300 C   0  0  0  0  0  0  0  0  0  0  0  0
   38.0930   31.1590   37.6100 C   0  0  0  0  0  0  0  0  0  0  0  0
   39.1990   31.9390   38.0030 C   0  0  0  0  0  0  0  0  0  0  0  0
   39.1230   32.6610   39.1590 N   0  0  0  0  0  0  0  0  0  0  0  0
   37.9980   32.6250   39.9140 C   0  0  0  0  0  0  0  0  0  0  0  0
   36.9270   31.8940   39.5700 N   0  0  0  0  0  0  0  0  0  0  0  0
   36.1190   30.5600   38.1160 H   0  0  0  0  0  0  0  0  0  0  0  0
   38.1200   30.5800   36.7080 H   0  0  0  0  0  0  0  0  0  0  0  0
   37.9670   33.2080   40.8240 H   0  0  0  0  0  0  0  0  0  0  0  0
   42.7570   31.0110   36.8320 C   0  0  0  0  0  0  0  0  0  0  0  0
   42.9730   30.0860   35.8550 C   0  0  0  0  0  0  0  0  0  0  0  0
   42.3680   29.3130   35.3770 H   0  0  0  0  0  0  0  0  0  0  0  0
   44.6910   30.4110   35.4210 S   0  0  0  0  0  0  0  0  0  0  0  0
   44.8040   31.8070   36.7070 C   0  0  0  0  0  0  0  0  0  0  0  0
   45.9910   32.1350   36.5080 H   0  0  0  0  0  0  0  0  0  0  0  0
   43.7680   31.7800   37.1300 N   0  0  0  0  0  0  0  0  0  0  0  0
  1  2  2  0  0  0  0
  3  1  1  0  0  0  0
  3  7  1  0  0  0  0
  4  3  1  0  0  0  0
  5 10  1  0  0  0  0
  6  7  1  0  0  0  0
  6  5  2  0  0  0  0
  7  8  2  0  0  0  0
  8  9  1  0  0  0  0
  9 13  1  0  0  0  0
 10  9  2  0  0  0  0
 11  5  1  0  0  0  0
 12  6  1  0  0  0  0
 14 20  1  0  0  0  0
 14  1  1  0  0  0  0
 15 14  2  0  0  0  0
 16 15  1  0  0  0  0
 17 15  1  0  0  0  0
 17 18  1  0  0  0  0
 18 20  2  0  0  0  0
 19 18  1  0  0  0  0
M  END
>  <minimizedAffinity>
-3.48950934

$$$$

 OpenBabel03252503363D

 20 21  0  0  0  0  0  0  0  0999 V2000
   39.0820   29.2450   42.0030 C   0  0  0  0  0  0  0  0  0  0  0  0
   38.3670   29.9110   42.7960 O   0  0  0  0  0  0  0  0  0  0  0  0
   39.3170   29.8560   40.7470 N   0  0  0  0  0  0  0  0  0  0  0  0
   39.9340   29.2650   40.1150 H   0  0  0  0  0  0  0  0  0  0  0  0
   37.1290   32.4950   39.3230 C   0  0  0  0  0  0  0  0  0  0  0  0
   37.6290   31.2160   39.6030 C   0  0  0  0  0  0  0  0  0  0  0  0
   38.7670   31.1130   40.4270 C   0  0  0  0  0  0  0  0  0  0  0  0
   39.3350   32.2520   40.9180 N   0  0  0  0  0  0  0  0  0  0  0  0
   38.8090   33.4630   40.6140 C   0  0  0  0  0  0  0  0  0  0  0  0
   37.7270   33.5990   39.8340 N   0  0  0  0  0  0  0  0  0  0  0  0
   36.2580   32.5590   38.6910 H   0  0  0  0  0  0  0  0  0  0  0  0
   37.1580   30.3410   39.2010 H   0  0  0  0  0  0  0  0  0  0  0  0
   39.2820   34.3490   41.0180 H   0  0  0  0  0  0  0  0  0  0  0  0
   39.5350   27.9660   42.5250 C   0  0  0  0  0  0  0  0  0  0  0  0
   38.8380   26.8120   42.3260 C   0  0  0  0  0  0  0  0  0  0  0  0
   37.9090   26.5500   41.8150 H   0  0  0  0  0  0  0  0  0  0  0  0
   39.8710   25.6110   43.1830 S   0  0  0  0  0  0  0  0  0  0  0  0
   41.1170   26.9600   43.6760 C   0  0  0  0  0  0  0  0  0  0  0  0
   41.9200   26.2390   44.3010 H   0  0  0  0  0  0  0  0  0  0  0  0
   40.6390   27.8590   43.2130 N   0  0  0  0  0  0  0  0  0  0  0  0
  1 14  1  0  0  0  0
  1  2  2  0  0  0  0
  3  1  1  0  0  0  0
  4  3  1  0  0  0  0
  5  6  2  0  0  0  0
  5 10  1  0  0  0  0
  6  7  1  0  0  0  0
  7  3  1  0  0  0  0
  7  8  2  0  0  0  0
  9  8  1  0  0  0  0
  9 13  1  0  0  0  0
 10  9  2  0  0  0  0
 11  5  1  0  0  0  0
 12  6  1  0  0  0  0
 14 20  1  0  0  0  0
 15 14  2  0  0  0  0
 15 17  1  0  0  0  0
 16 15  1  0  0  0  0
 17 18  1  0  0  0  0
 18 19  1  0  0  0  0
 20 18  2  0  0  0  0
M  END
>  <minimizedAffinity>
-3.48325348

$$$$

 OpenBabel03252503363D

 20 21  0  0  0  0  0  0  0  0999 V2000
   35.7570   28.7250   39.1060 C   0  0  0  0  0  0  0  0  0  0  0  0
   36.9220   28.3080   38.8790 O   0  0  0  0  0  0  0  0  0  0  0  0
   35.4790   29.0280   40.4610 N   0  0  0  0  0  0  0  0  0  0  0  0
   34.4900   29.3880   40.6040 H   0  0  0  0  0  0  0  0  0  0  0  0
   37.4850   27.5530   43.2150 C   0  0  0  0  0  0  0  0  0  0  0  0
   36.4950   27.6680   42.2300 C   0  0  0  0  0  0  0  0  0  0  0  0
   36.4500   28.8510   41.4670 C   0  0  0  0  0  0  0  0  0  0  0  0
   37.3660   29.8330   41.7120 N   0  0  0  0  0  0  0  0  0  0  0  0
   38.3030   29.6670   42.6770 C   0  0  0  0  0  0  0  0  0  0  0  0
   38.3740   28.5550   43.4230 N   0  0  0  0  0  0  0  0  0  0  0  0
   37.5070   26.6420   43.7910 H   0  0  0  0  0  0  0  0  0  0  0  0
   35.7900   26.8770   42.0630 H   0  0  0  0  0  0  0  0  0  0  0  0
   39.0150   30.4630   42.8490 H   0  0  0  0  0  0  0  0  0  0  0  0
   34.9070   28.8190   37.9290 C   0  0  0  0  0  0  0  0  0  0  0  0
   35.4130   28.7950   36.6640 C   0  0  0  0  0  0  0  0  0  0  0  0
   36.4130   28.7130   36.2350 H   0  0  0  0  0  0  0  0  0  0  0  0
   33.9170   28.9430   35.6720 S   0  0  0  0  0  0  0  0  0  0  0  0
   32.8300   29.0150   37.2310 C   0  0  0  0  0  0  0  0  0  0  0  0
   31.7220   29.1230   36.6700 H   0  0  0  0  0  0  0  0  0  0  0  0
   33.6110   28.9330   38.0290 N   0  0  0  0  0  0  0  0  0  0  0  0
  1  3  1  0  0  0  0
  2  1  2  0  0  0  0
  3  4  1  0  0  0  0
  3  7  1  0  0  0  0
  5 10  1  0  0  0  0
  5 11  1  0  0  0  0
  6  5  2  0  0  0  0
  7  8  2  0  0  0  0
  7  6  1  0  0  0  0
  8  9  1  0  0  0  0
  9 13  1  0  0  0  0
  9 10  2  0  0  0  0
 12  6  1  0  0  0  0
 14 20  1  0  0  0  0
 14  1  1  0  0  0  0
 15 14  2  0  0  0  0
 16 15  1  0  0  0  0
 17 15  1  0  0  0  0
 17 18  1  0  0  0  0
 18 20  2  0  0  0  0
 19 18  1  0  0  0  0
M  END
>  <minimizedAffinity>
-3.46822071

$$$$

 OpenBabel03252503363D

 20 21  0  0  0  0  0  0  0  0999 V2000
   38.6290   29.8340   41.5820 C   0  0  0  0  0  0  0  0  0  0  0  0
   39.1410   30.5350   42.4920 O   0  0  0  0  0  0  0  0  0  0  0  0
   38.6870   30.3980   40.2840 N   0  0  0  0  0  0  0  0  0  0  0  0
   38.2540   29.7680   39.5450 H   0  0  0  0  0  0  0  0  0  0  0  0
   41.1230   33.0630   39.4220 C   0  0  0  0  0  0  0  0  0  0  0  0
   40.6050   31.7780   39.6300 C   0  0  0  0  0  0  0  0  0  0  0  0
   39.2670   31.6610   40.0570 C   0  0  0  0  0  0  0  0  0  0  0  0
   38.5320   32.7950   40.2500 N   0  0  0  0  0  0  0  0  0  0  0  0
   39.0850   34.0130   40.0330 C   0  0  0  0  0  0  0  0  0  0  0  0
   40.3540   34.1610   39.6260 N   0  0  0  0  0  0  0  0  0  0  0  0
   42.1470   33.1370   39.0960 H   0  0  0  0  0  0  0  0  0  0  0  0
   41.2090   30.9080   39.4690 H   0  0  0  0  0  0  0  0  0  0  0  0
   38.4780   34.8930   40.1950 H   0  0  0  0  0  0  0  0  0  0  0  0
   38.0700   28.5690   42.0320 C   0  0  0  0  0  0  0  0  0  0  0  0
   38.1500   27.4330   41.2840 C   0  0  0  0  0  0  0  0  0  0  0  0
   38.5750   27.1780   40.3110 H   0  0  0  0  0  0  0  0  0  0  0  0
   37.3040   26.2430   42.3400 S   0  0  0  0  0  0  0  0  0  0  0  0
   36.9830   27.5710   43.6630 C   0  0  0  0  0  0  0  0  0  0  0  0
   36.3780   26.8560   44.4880 H   0  0  0  0  0  0  0  0  0  0  0  0
   37.4600   28.4600   43.1800 N   0  0  0  0  0  0  0  0  0  0  0  0
  1 14  1  0  0  0  0
  1  2  2  0  0  0  0
  3  1  1  0  0  0  0
  4  3  1  0  0  0  0
  5 10  2  0  0  0  0
  5  6  1  0  0  0  0
  6  7  2  0  0  0  0
  7  8  1  0  0  0  0
  7  3  1  0  0  0  0
  9 13  1  0  0  0  0
  9  8  2  0  0  0  0
 10  9  1  0  0  0  0
 11  5  1  0  0  0  0
 12  6  1  0  0  0  0
 14 20  1  0  0  0  0
 15 14  2  0  0  0  0
 15 17  1  0  0  0  0
 16 15  1  0  0  0  0
 17 18  1  0  0  0  0
 18 19  1  0  0  0  0
 20 18  2  0  0  0  0
M  END
>  <minimizedAffinity>
-3.41831446

$$$$
