
 OpenBabel03252503343D

 20 21  0  0  0  0  0  0  0  0999 V2000
   46.3540   34.0570   40.8270 C   0  0  0  0  0  0  0  0  0  0  0  0
   45.2470   33.4920   41.0200 O   0  0  0  0  0  0  0  0  0  0  0  0
   46.8470   34.8080   41.9220 N   0  0  0  0  0  0  0  0  0  0  0  0
   47.7880   35.2570   41.7200 H   0  0  0  0  0  0  0  0  0  0  0  0
   44.5170   36.0130   44.5500 C   0  0  0  0  0  0  0  0  0  0  0  0
   45.2080   35.9650   43.3320 C   0  0  0  0  0  0  0  0  0  0  0  0
   46.1210   34.9120   43.1260 C   0  0  0  0  0  0  0  0  0  0  0  0
   46.2970   33.9850   44.1110 N   0  0  0  0  0  0  0  0  0  0  0  0
   45.6010   34.0800   45.2700 C   0  0  0  0  0  0  0  0  0  0  0  0
   44.7240   35.0680   45.5000 N   0  0  0  0  0  0  0  0  0  0  0  0
   43.8220   36.8240   44.6930 H   0  0  0  0  0  0  0  0  0  0  0  0
   45.0470   36.7100   42.5780 H   0  0  0  0  0  0  0  0  0  0  0  0
   45.7610   33.3310   46.0330 H   0  0  0  0  0  0  0  0  0  0  0  0
   46.9270   33.8330   39.5090 C   0  0  0  0  0  0  0  0  0  0  0  0
   48.1600   34.3000   39.1640 C   0  0  0  0  0  0  0  0  0  0  0  0
   48.9390   34.8710   39.6740 H   0  0  0  0  0  0  0  0  0  0  0  0
   48.3040   33.7240   37.4640 S   0  0  0  0  0  0  0  0  0  0  0  0
   46.5830   32.9180   37.5380 C   0  0  0  0  0  0  0  0  0  0  0  0
   46.5510   32.4620   36.3780 H   0  0  0  0  0  0  0  0  0  0  0  0
   46.2840   33.1720   38.5860 N   0  0  0  0  0  0  0  0  0  0  0  0
  1  2  2  0  0  0  0
  1  3  1  0  0  0  0
  3  7  1  0  0  0  0
  4  3  1  0  0  0  0
  5 11  1  0  0  0  0
  5 10  1  0  0  0  0
  6  5  2  0  0  0  0
  7  6  1  0  0  0  0
  7  8  2  0  0  0  0
  8  9  1  0  0  0  0
  9 10  2  0  0  0  0
  9 13  1  0  0  0  0
 12  6  1  0  0  0  0
 14  1  1  0  0  0  0
 15 14  2  0  0  0  0
 15 16  1  0  0  0  0
 17 18  1  0  0  0  0
 17 15  1  0  0  0  0
 18 20  2  0  0  0  0
 19 18  1  0  0  0  0
 20 14  1  0  0  0  0
M  END
>  <minimizedAffinity>
-4.13057327

>  <minimizedRMSD>
0.440131545

$$$$
