
 OpenBabel03252503343D

 20 21  0  0  0  0  0  0  0  0999 V2000
   46.3510   34.0560   40.8280 C   0  0  0  0  0  0  0  0  0  0  0  0
   45.2450   33.4900   41.0220 O   0  0  0  0  0  0  0  0  0  0  0  0
   46.8440   34.8080   41.9220 N   0  0  0  0  0  0  0  0  0  0  0  0
   47.7850   35.2570   41.7180 H   0  0  0  0  0  0  0  0  0  0  0  0
   44.5170   36.0140   44.5510 C   0  0  0  0  0  0  0  0  0  0  0  0
   45.2070   35.9660   43.3320 C   0  0  0  0  0  0  0  0  0  0  0  0
   46.1190   34.9130   43.1260 C   0  0  0  0  0  0  0  0  0  0  0  0
   46.2950   33.9860   44.1110 N   0  0  0  0  0  0  0  0  0  0  0  0
   45.6000   34.0810   45.2710 C   0  0  0  0  0  0  0  0  0  0  0  0
   44.7240   35.0700   45.5010 N   0  0  0  0  0  0  0  0  0  0  0  0
   43.8220   36.8260   44.6940 H   0  0  0  0  0  0  0  0  0  0  0  0
   45.0450   36.7110   42.5780 H   0  0  0  0  0  0  0  0  0  0  0  0
   45.7600   33.3320   46.0340 H   0  0  0  0  0  0  0  0  0  0  0  0
   46.9240   33.8310   39.5090 C   0  0  0  0  0  0  0  0  0  0  0  0
   48.1580   34.2940   39.1650 C   0  0  0  0  0  0  0  0  0  0  0  0
   48.9390   34.8620   39.6750 H   0  0  0  0  0  0  0  0  0  0  0  0
   48.3000   33.7180   37.4650 S   0  0  0  0  0  0  0  0  0  0  0  0
   46.5760   32.9180   37.5380 C   0  0  0  0  0  0  0  0  0  0  0  0
   46.5430   32.4640   36.3770 H   0  0  0  0  0  0  0  0  0  0  0  0
   46.2780   33.1720   38.5860 N   0  0  0  0  0  0  0  0  0  0  0  0
  1  2  2  0  0  0  0
  1  3  1  0  0  0  0
  3  7  1  0  0  0  0
  4  3  1  0  0  0  0
  5 11  1  0  0  0  0
  5 10  1  0  0  0  0
  6  5  2  0  0  0  0
  7  6  1  0  0  0  0
  7  8  2  0  0  0  0
  8  9  1  0  0  0  0
  9 10  2  0  0  0  0
  9 13  1  0  0  0  0
 12  6  1  0  0  0  0
 14  1  1  0  0  0  0
 15 14  2  0  0  0  0
 15 16  1  0  0  0  0
 17 18  1  0  0  0  0
 17 15  1  0  0  0  0
 18 20  2  0  0  0  0
 19 18  1  0  0  0  0
 20 14  1  0  0  0  0
M  END
>  <minimizedAffinity>
-4.12778044

>  <minimizedRMSD>
0.233162135

$$$$
