
 OpenBabel03242519093D

 45 48  0  0  1  0  0  0  0  0999 V2000
   48.5490   33.4950   39.2540 N   0  0  0  0  0  0  0  0  0  0  0  0
   49.4890   33.9150   39.0330 H   0  0  0  0  0  0  0  0  0  0  0  0
   47.4630   34.5570   42.4710 N   0  0  0  0  0  0  0  0  0  0  0  0
   47.4170   34.7540   41.0330 C   0  0  0  0  0  0  0  0  0  0  0  0
   48.0890   33.4790   40.6060 C   0  0  2  0  0  0  0  0  0  0  0  0
   49.3080   33.4600   41.4990 C   0  0  0  0  0  0  0  0  0  0  0  0
   48.7790   34.0890   42.7680 C   0  0  0  0  0  0  0  0  0  0  0  0
   46.3780   34.7480   40.6660 H   0  0  0  0  0  0  0  0  0  0  0  0
   47.9260   35.6720   40.7430 H   0  0  0  0  0  0  0  0  0  0  0  0
   47.3990   32.6450   40.8310 H   0  0  0  0  0  0  0  0  0  0  0  0
   49.5560   32.4010   41.6790 H   0  0  0  0  0  0  0  0  0  0  0  0
   50.1210   34.0340   41.0440 H   0  0  0  0  0  0  0  0  0  0  0  0
   48.7460   33.3260   43.5750 H   0  0  0  0  0  0  0  0  0  0  0  0
   49.4430   34.9480   43.0560 H   0  0  0  0  0  0  0  0  0  0  0  0
   44.5620   35.8450   44.4310 C   0  0  0  0  0  0  0  0  0  0  0  0
   45.4900   35.7460   43.3980 C   0  0  0  0  0  0  0  0  0  0  0  0
   46.4730   34.7580   43.4500 C   0  0  0  0  0  0  0  0  0  0  0  0
   46.4450   33.9500   44.5320 N   0  0  0  0  0  0  0  0  0  0  0  0
   45.5590   34.0310   45.5340 C   0  0  0  0  0  0  0  0  0  0  0  0
   44.6090   35.0000   45.4670 N   0  0  0  0  0  0  0  0  0  0  0  0
   43.8070   36.6210   44.3690 H   0  0  0  0  0  0  0  0  0  0  0  0
   45.5060   36.4040   42.5250 H   0  0  0  0  0  0  0  0  0  0  0  0
   45.5930   33.3490   46.3760 H   0  0  0  0  0  0  0  0  0  0  0  0
   48.6760   32.2810   37.0870 C   0  0  0  0  0  0  0  0  0  0  0  0
   47.9890   33.0400   38.0490 C   0  0  0  0  0  0  0  0  0  0  0  0
   46.6910   33.3020   37.6950 C   0  0  0  0  0  0  0  0  0  0  0  0
   46.0670   32.9050   36.5560 C   0  0  0  0  0  0  0  0  0  0  0  0
   46.7820   32.1630   35.6430 C   0  0  0  0  0  0  0  0  0  0  0  0
   48.0970   31.8590   35.9310 C   0  0  0  0  0  0  0  0  0  0  0  0
   46.0850   33.8840   38.3820 H   0  0  0  0  0  0  0  0  0  0  0  0
   45.0320   33.1430   36.3270 H   0  0  0  0  0  0  0  0  0  0  0  0
   46.3240   31.8270   34.7230 H   0  0  0  0  0  0  0  0  0  0  0  0
   49.3270   31.7500   33.8250 C   0  0  0  0  0  0  0  0  0  0  0  0
   49.1420   32.9860   33.6410 O   0  0  0  0  0  0  0  0  0  0  0  0
   48.8190   31.0830   34.9610 N   0  0  0  0  0  0  0  0  0  0  0  0
   48.9680   30.0430   35.0890 H   0  0  0  0  0  0  0  0  0  0  0  0
   50.0760   30.9600   32.8650 C   0  0  0  0  0  0  0  0  0  0  0  0
   51.4550   30.7390   33.2510 C   0  0  0  0  0  0  0  0  0  0  0  0
   52.1690   31.0080   34.1190 H   0  0  0  0  0  0  0  0  0  0  0  0
   52.1380   29.7000   31.8210 S   0  0  0  0  0  0  0  0  0  0  0  0
   50.4280   29.7760   30.9980 C   0  0  0  0  0  0  0  0  0  0  0  0
   50.0510   29.3280   30.0040 H   0  0  0  0  0  0  0  0  0  0  0  0
   49.8080   30.3800   31.7050 N   0  0  0  0  0  0  0  0  0  0  0  0
   51.1680   31.7060   37.6140 N   0  0  0  0  0  0  0  0  0  0  0  0
   50.0630   31.9570   37.3840 C   0  0  0  0  0  0  0  0  0  0  0  0
  1  5  1  0  0  0  0
  2  1  1  0  0  0  0
  3  7  1  0  0  0  0
  3 17  1  0  0  0  0
  4  3  1  0  0  0  0
  5 10  1  1  0  0  0
  5  4  1  0  0  0  0
  5  6  1  0  0  0  0
  6 11  1  0  0  0  0
  6  7  1  0  0  0  0
  7 14  1  0  0  0  0
  7 13  1  0  0  0  0
  8  4  1  0  0  0  0
  9  4  1  0  0  0  0
 12  6  1  0  0  0  0
 15 20  1  0  0  0  0
 16 17  1  0  0  0  0
 16 15  2  0  0  0  0
 17 18  2  0  0  0  0
 18 19  1  0  0  0  0
 19 23  1  0  0  0  0
 20 19  2  0  0  0  0
 21 15  1  0  0  0  0
 22 16  1  0  0  0  0
 24 45  1  0  0  0  0
 24 25  1  0  0  0  0
 25  1  1  0  0  0  0
 26 25  2  0  0  0  0
 26 30  1  0  0  0  0
 27 26  1  0  0  0  0
 28 29  1  0  0  0  0
 28 27  2  0  0  0  0
 29 24  2  0  0  0  0
 31 27  1  0  0  0  0
 32 28  1  0  0  0  0
 33 35  1  0  0  0  0
 34 33  2  0  0  0  0
 35 36  1  0  0  0  0
 35 29  1  0  0  0  0
 37 38  2  0  0  0  0
 37 33  1  0  0  0  0
 38 39  1  0  0  0  0
 40 38  1  0  0  0  0
 41 43  2  0  0  0  0
 41 40  1  0  0  0  0
 42 41  1  0  0  0  0
 43 37  1  0  0  0  0
 45 44  3  0  0  0  0
M  END
>  <minimizedAffinity>
-5.47659683

>  <minimizedRMSD>
0.154752627

$$$$
