
 OpenBabel03242519123D

 45 48  0  0  1  0  0  0  0  0999 V2000
   40.1580   33.4680   38.8700 N   0  0  0  0  0  0  0  0  0  0  0  0
   40.1930   33.3300   37.8270 H   0  0  0  0  0  0  0  0  0  0  0  0
   41.9920   35.2900   41.3140 N   0  0  0  0  0  0  0  0  0  0  0  0
   41.4900   34.0040   40.8620 C   0  0  0  0  0  0  0  0  0  0  0  0
   41.0450   34.4040   39.4840 C   0  0  2  0  0  0  0  0  0  0  0  0
   40.2540   35.6600   39.7680 C   0  0  0  0  0  0  0  0  0  0  0  0
   41.0170   36.2580   40.9270 C   0  0  0  0  0  0  0  0  0  0  0  0
   42.3060   33.2700   40.7740 H   0  0  0  0  0  0  0  0  0  0  0  0
   40.7030   33.6350   41.5200 H   0  0  0  0  0  0  0  0  0  0  0  0
   41.9520   34.6140   38.8870 H   0  0  0  0  0  0  0  0  0  0  0  0
   40.3500   36.3070   38.8800 H   0  0  0  0  0  0  0  0  0  0  0  0
   39.2190   35.4070   40.0220 H   0  0  0  0  0  0  0  0  0  0  0  0
   41.5120   37.1980   40.6020 H   0  0  0  0  0  0  0  0  0  0  0  0
   40.3050   36.4540   41.7740 H   0  0  0  0  0  0  0  0  0  0  0  0
   45.5530   35.5730   42.3910 C   0  0  0  0  0  0  0  0  0  0  0  0
   44.4530   35.1830   41.6310 C   0  0  0  0  0  0  0  0  0  0  0  0
   43.1790   35.6140   41.9980 C   0  0  0  0  0  0  0  0  0  0  0  0
   43.1100   36.4000   43.0940 N   0  0  0  0  0  0  0  0  0  0  0  0
   44.1580   36.7850   43.8360 C   0  0  0  0  0  0  0  0  0  0  0  0
   45.3930   36.3550   43.4640 N   0  0  0  0  0  0  0  0  0  0  0  0
   46.5340   35.2260   42.0870 H   0  0  0  0  0  0  0  0  0  0  0  0
   44.5160   34.5460   40.7450 H   0  0  0  0  0  0  0  0  0  0  0  0
   44.0340   37.4190   44.7060 H   0  0  0  0  0  0  0  0  0  0  0  0
   39.3830   31.2900   39.7870 C   0  0  0  0  0  0  0  0  0  0  0  0
   39.1650   32.6170   39.3820 C   0  0  0  0  0  0  0  0  0  0  0  0
   37.8620   33.0150   39.5350 C   0  0  0  0  0  0  0  0  0  0  0  0
   36.8380   32.2650   40.0190 C   0  0  0  0  0  0  0  0  0  0  0  0
   37.1020   30.9690   40.4030 C   0  0  0  0  0  0  0  0  0  0  0  0
   38.3930   30.4970   40.2770 C   0  0  0  0  0  0  0  0  0  0  0  0
   37.6030   34.0290   39.2470 H   0  0  0  0  0  0  0  0  0  0  0  0
   35.8220   32.6330   40.1190 H   0  0  0  0  0  0  0  0  0  0  0  0
   36.3160   30.3370   40.7930 H   0  0  0  0  0  0  0  0  0  0  0  0
   38.9480   28.9050   42.0420 C   0  0  0  0  0  0  0  0  0  0  0  0
   39.0320   29.8470   42.8800 O   0  0  0  0  0  0  0  0  0  0  0  0
   38.6390   29.1420   40.6850 N   0  0  0  0  0  0  0  0  0  0  0  0
   38.5920   28.3420   39.9950 H   0  0  0  0  0  0  0  0  0  0  0  0
   39.1690   27.5290   42.4480 C   0  0  0  0  0  0  0  0  0  0  0  0
   38.6740   26.5600   41.4920 C   0  0  0  0  0  0  0  0  0  0  0  0
   38.1380   26.5430   40.4680 H   0  0  0  0  0  0  0  0  0  0  0  0
   39.1090   24.9020   42.3000 S   0  0  0  0  0  0  0  0  0  0  0  0
   39.8670   25.8530   43.7580 C   0  0  0  0  0  0  0  0  0  0  0  0
   40.3740   25.4740   44.7220 H   0  0  0  0  0  0  0  0  0  0  0  0
   39.7210   26.9290   43.4920 N   0  0  0  0  0  0  0  0  0  0  0  0
   41.8240   30.3940   39.5490 N   0  0  0  0  0  0  0  0  0  0  0  0
   40.7410   30.7860   39.6570 C   0  0  0  0  0  0  0  0  0  0  0  0
  1 25  1  0  0  0  0
  1  5  1  0  0  0  0
  2  1  1  0  0  0  0
  3 17  1  0  0  0  0
  4  3  1  0  0  0  0
  4  9  1  0  0  0  0
  5 10  1  6  0  0  0
  5  6  1  0  0  0  0
  5  4  1  0  0  0  0
  6 12  1  0  0  0  0
  6  7  1  0  0  0  0
  7  3  1  0  0  0  0
  7 14  1  0  0  0  0
  8  4  1  0  0  0  0
 11  6  1  0  0  0  0
 13  7  1  0  0  0  0
 15 20  1  0  0  0  0
 16 17  1  0  0  0  0
 16 15  2  0  0  0  0
 17 18  2  0  0  0  0
 18 19  1  0  0  0  0
 19 23  1  0  0  0  0
 20 19  2  0  0  0  0
 21 15  1  0  0  0  0
 22 16  1  0  0  0  0
 24 29  1  0  0  0  0
 25 26  1  0  0  0  0
 25 24  2  0  0  0  0
 26 27  2  0  0  0  0
 27 31  1  0  0  0  0
 27 28  1  0  0  0  0
 28 32  1  0  0  0  0
 29 28  2  0  0  0  0
 29 35  1  0  0  0  0
 30 26  1  0  0  0  0
 33 37  1  0  0  0  0
 33 34  2  0  0  0  0
 35 33  1  0  0  0  0
 36 35  1  0  0  0  0
 37 43  1  0  0  0  0
 38 40  1  0  0  0  0
 38 37  2  0  0  0  0
 39 38  1  0  0  0  0
 40 41  1  0  0  0  0
 41 42  1  0  0  0  0
 43 41  2  0  0  0  0
 44 45  3  0  0  0  0
 45 24  1  0  0  0  0
M  END
>  <minimizedAffinity>
-6.26468658

$$$$

 OpenBabel03242519123D

 45 48  0  0  1  0  0  0  0  0999 V2000
   40.8830   33.7870   38.3480 N   0  0  0  0  0  0  0  0  0  0  0  0
   40.3220   34.1580   37.5380 H   0  0  0  0  0  0  0  0  0  0  0  0
   42.2100   35.2860   41.2890 N   0  0  0  0  0  0  0  0  0  0  0  0
   42.0170   34.0770   40.5070 C   0  0  0  0  0  0  0  0  0  0  0  0
   41.5260   34.7050   39.2330 C   0  0  2  0  0  0  0  0  0  0  0  0
   40.4700   35.6560   39.7460 C   0  0  0  0  0  0  0  0  0  0  0  0
   41.0540   36.0940   41.0700 C   0  0  0  0  0  0  0  0  0  0  0  0
   42.9770   33.5760   40.3100 H   0  0  0  0  0  0  0  0  0  0  0  0
   41.3170   33.3990   40.9950 H   0  0  0  0  0  0  0  0  0  0  0  0
   42.3780   35.2420   38.7760 H   0  0  0  0  0  0  0  0  0  0  0  0
   40.4400   36.5090   39.0480 H   0  0  0  0  0  0  0  0  0  0  0  0
   39.5110   35.1370   39.8520 H   0  0  0  0  0  0  0  0  0  0  0  0
   41.3350   37.1670   41.0160 H   0  0  0  0  0  0  0  0  0  0  0  0
   40.2970   35.9180   41.8810 H   0  0  0  0  0  0  0  0  0  0  0  0
   44.2930   36.7860   43.9970 C   0  0  0  0  0  0  0  0  0  0  0  0
   43.1570   36.4730   43.2540 C   0  0  0  0  0  0  0  0  0  0  0  0
   43.2790   35.6710   42.1200 C   0  0  0  0  0  0  0  0  0  0  0  0
   44.5270   35.2490   41.8230 N   0  0  0  0  0  0  0  0  0  0  0  0
   45.6300   35.5390   42.5270 C   0  0  0  0  0  0  0  0  0  0  0  0
   45.4920   36.3220   43.6290 N   0  0  0  0  0  0  0  0  0  0  0  0
   44.1740   37.4110   44.8750 H   0  0  0  0  0  0  0  0  0  0  0  0
   42.1500   36.8190   43.5010 H   0  0  0  0  0  0  0  0  0  0  0  0
   46.6030   35.1670   42.2330 H   0  0  0  0  0  0  0  0  0  0  0  0
   39.9390   31.6010   39.0660 C   0  0  0  0  0  0  0  0  0  0  0  0
   40.8230   32.3850   38.3060 C   0  0  0  0  0  0  0  0  0  0  0  0
   41.6420   31.6370   37.5000 C   0  0  0  0  0  0  0  0  0  0  0  0
   41.6560   30.2830   37.3930 C   0  0  0  0  0  0  0  0  0  0  0  0
   40.7700   29.5570   38.1590 C   0  0  0  0  0  0  0  0  0  0  0  0
   39.9130   30.2440   38.9960 C   0  0  0  0  0  0  0  0  0  0  0  0
   42.3580   32.1620   36.8760 H   0  0  0  0  0  0  0  0  0  0  0  0
   42.3290   29.7420   36.7360 H   0  0  0  0  0  0  0  0  0  0  0  0
   40.7480   28.4790   38.1050 H   0  0  0  0  0  0  0  0  0  0  0  0
   39.4190   29.0440   41.0640 C   0  0  0  0  0  0  0  0  0  0  0  0
   40.5680   29.3220   41.5120 O   0  0  0  0  0  0  0  0  0  0  0  0
   39.0000   29.4620   39.7820 N   0  0  0  0  0  0  0  0  0  0  0  0
   38.0410   29.2030   39.4170 H   0  0  0  0  0  0  0  0  0  0  0  0
   38.4780   28.2770   41.8600 C   0  0  0  0  0  0  0  0  0  0  0  0
   38.0620   28.9520   43.0710 C   0  0  0  0  0  0  0  0  0  0  0  0
   38.2550   29.9510   43.6210 H   0  0  0  0  0  0  0  0  0  0  0  0
   36.8640   27.7150   43.8610 S   0  0  0  0  0  0  0  0  0  0  0  0
   37.1680   26.5430   42.3980 C   0  0  0  0  0  0  0  0  0  0  0  0
   36.7400   25.4970   42.1700 H   0  0  0  0  0  0  0  0  0  0  0  0
   37.8940   27.0930   41.7500 N   0  0  0  0  0  0  0  0  0  0  0  0
   38.3080   32.8780   40.6550 N   0  0  0  0  0  0  0  0  0  0  0  0
   39.0330   32.3170   39.9500 C   0  0  0  0  0  0  0  0  0  0  0  0
  1  5  1  0  0  0  0
  2  1  1  0  0  0  0
  3 17  1  0  0  0  0
  4  9  1  0  0  0  0
  4  3  1  0  0  0  0
  5 10  1  6  0  0  0
  5  6  1  0  0  0  0
  5  4  1  0  0  0  0
  6 12  1  0  0  0  0
  6  7  1  0  0  0  0
  7  3  1  0  0  0  0
  7 14  1  0  0  0  0
  8  4  1  0  0  0  0
 11  6  1  0  0  0  0
 13  7  1  0  0  0  0
 15 21  1  0  0  0  0
 16 22  1  0  0  0  0
 16 15  2  0  0  0  0
 17 16  1  0  0  0  0
 18 17  2  0  0  0  0
 18 19  1  0  0  0  0
 19 20  2  0  0  0  0
 20 15  1  0  0  0  0
 23 19  1  0  0  0  0
 24 45  1  0  0  0  0
 25  1  1  0  0  0  0
 25 24  2  0  0  0  0
 26 25  1  0  0  0  0
 27 26  2  0  0  0  0
 27 28  1  0  0  0  0
 28 29  2  0  0  0  0
 29 24  1  0  0  0  0
 29 35  1  0  0  0  0
 30 26  1  0  0  0  0
 31 27  1  0  0  0  0
 32 28  1  0  0  0  0
 33 34  2  0  0  0  0
 33 37  1  0  0  0  0
 35 33  1  0  0  0  0
 36 35  1  0  0  0  0
 37 38  2  0  0  0  0
 38 39  1  0  0  0  0
 38 40  1  0  0  0  0
 41 40  1  0  0  0  0
 42 41  1  0  0  0  0
 43 37  1  0  0  0  0
 43 41  2  0  0  0  0
 45 44  3  0  0  0  0
M  END
>  <minimizedAffinity>
-6.05122805

$$$$

 OpenBabel03242519123D

 45 48  0  0  1  0  0  0  0  0999 V2000
   39.5510   29.4860   41.8510 N   0  0  0  0  0  0  0  0  0  0  0  0
   40.4610   29.2280   42.3120 H   0  0  0  0  0  0  0  0  0  0  0  0
   39.1600   32.8660   40.8130 N   0  0  0  0  0  0  0  0  0  0  0  0
   39.6820   31.9370   41.8000 C   0  0  0  0  0  0  0  0  0  0  0  0
   39.4850   30.6580   41.0370 C   0  0  2  0  0  0  0  0  0  0  0  0
   38.0570   30.8000   40.5620 C   0  0  0  0  0  0  0  0  0  0  0  0
   37.9510   32.2880   40.3200 C   0  0  0  0  0  0  0  0  0  0  0  0
   40.7600   32.0940   41.9600 H   0  0  0  0  0  0  0  0  0  0  0  0
   39.1350   32.0120   42.7400 H   0  0  0  0  0  0  0  0  0  0  0  0
   40.2010   30.6560   40.1950 H   0  0  0  0  0  0  0  0  0  0  0  0
   37.9820   30.2570   39.6060 H   0  0  0  0  0  0  0  0  0  0  0  0
   37.3640   30.4420   41.3310 H   0  0  0  0  0  0  0  0  0  0  0  0
   37.8450   32.4810   39.2310 H   0  0  0  0  0  0  0  0  0  0  0  0
   37.0690   32.6910   40.8860 H   0  0  0  0  0  0  0  0  0  0  0  0
   39.6530   36.4910   40.0780 C   0  0  0  0  0  0  0  0  0  0  0  0
   39.0500   35.3350   40.5690 C   0  0  0  0  0  0  0  0  0  0  0  0
   39.6670   34.1010   40.3680 C   0  0  0  0  0  0  0  0  0  0  0  0
   40.8370   34.1260   39.6930 N   0  0  0  0  0  0  0  0  0  0  0  0
   41.4310   35.2280   39.2150 C   0  0  0  0  0  0  0  0  0  0  0  0
   40.8140   36.4220   39.4200 N   0  0  0  0  0  0  0  0  0  0  0  0
   39.1540   37.4390   40.2470 H   0  0  0  0  0  0  0  0  0  0  0  0
   38.1030   35.3230   41.1140 H   0  0  0  0  0  0  0  0  0  0  0  0
   42.3720   35.1780   38.6810 H   0  0  0  0  0  0  0  0  0  0  0  0
   38.2990   27.3750   41.4450 C   0  0  0  0  0  0  0  0  0  0  0  0
   38.5990   28.5160   42.2070 C   0  0  0  0  0  0  0  0  0  0  0  0
   37.8600   28.5990   43.3590 C   0  0  0  0  0  0  0  0  0  0  0  0
   36.9220   27.7130   43.7840 C   0  0  0  0  0  0  0  0  0  0  0  0
   36.6620   26.6100   43.0020 C   0  0  0  0  0  0  0  0  0  0  0  0
   37.3690   26.4590   41.8260 C   0  0  0  0  0  0  0  0  0  0  0  0
   38.0280   29.4510   44.0100 H   0  0  0  0  0  0  0  0  0  0  0  0
   36.3650   27.8310   44.7080 H   0  0  0  0  0  0  0  0  0  0  0  0
   35.9240   25.8810   43.3030 H   0  0  0  0  0  0  0  0  0  0  0  0
   37.8160   24.1220   41.2820 C   0  0  0  0  0  0  0  0  0  0  0  0
   38.7240   24.0800   42.1600 O   0  0  0  0  0  0  0  0  0  0  0  0
   37.0780   25.2990   41.0310 N   0  0  0  0  0  0  0  0  0  0  0  0
   36.3350   25.3200   40.2780 H   0  0  0  0  0  0  0  0  0  0  0  0
   37.4940   22.9480   40.4890 C   0  0  0  0  0  0  0  0  0  0  0  0
   36.3170   23.1160   39.6630 C   0  0  0  0  0  0  0  0  0  0  0  0
   35.5250   23.9250   39.4310 H   0  0  0  0  0  0  0  0  0  0  0  0
   36.1760   21.4470   38.7760 S   0  0  0  0  0  0  0  0  0  0  0  0
   37.7310   20.8670   39.7000 C   0  0  0  0  0  0  0  0  0  0  0  0
   38.2950   19.8610   39.6660 H   0  0  0  0  0  0  0  0  0  0  0  0
   38.0200   21.7430   40.3300 N   0  0  0  0  0  0  0  0  0  0  0  0
   39.6220   27.0720   39.2150 N   0  0  0  0  0  0  0  0  0  0  0  0
   39.0390   27.2100   40.2040 C   0  0  0  0  0  0  0  0  0  0  0  0
  1 25  1  0  0  0  0
  1  2  1  0  0  0  0
  3  4  1  0  0  0  0
  4  8  1  0  0  0  0
  4  9  1  0  0  0  0
  5 10  1  6  0  0  0
  5  4  1  0  0  0  0
  5  1  1  0  0  0  0
  6  5  1  0  0  0  0
  6 12  1  0  0  0  0
  7  6  1  0  0  0  0
  7  3  1  0  0  0  0
  7 14  1  0  0  0  0
 11  6  1  0  0  0  0
 13  7  1  0  0  0  0
 15 21  1  0  0  0  0
 15 16  1  0  0  0  0
 16 22  1  0  0  0  0
 17 16  2  0  0  0  0
 17  3  1  0  0  0  0
 18 17  1  0  0  0  0
 19 20  1  0  0  0  0
 19 18  2  0  0  0  0
 20 15  2  0  0  0  0
 23 19  1  0  0  0  0
 24 29  2  0  0  0  0
 24 25  1  0  0  0  0
 25 26  2  0  0  0  0
 26 27  1  0  0  0  0
 26 30  1  0  0  0  0
 27 31  1  0  0  0  0
 28 32  1  0  0  0  0
 28 27  2  0  0  0  0
 29 28  1  0  0  0  0
 33 34  2  0  0  0  0
 35 33  1  0  0  0  0
 35 29  1  0  0  0  0
 36 35  1  0  0  0  0
 37 33  1  0  0  0  0
 38 37  2  0  0  0  0
 39 38  1  0  0  0  0
 40 38  1  0  0  0  0
 40 41  1  0  0  0  0
 41 43  2  0  0  0  0
 42 41  1  0  0  0  0
 43 37  1  0  0  0  0
 44 45  3  0  0  0  0
 45 24  1  0  0  0  0
M  END
>  <minimizedAffinity>
-5.99041224

$$$$

 OpenBabel03242519123D

 45 48  0  0  1  0  0  0  0  0999 V2000
   39.9840   29.2670   42.0870 N   0  0  0  0  0  0  0  0  0  0  0  0
   40.8330   28.9960   42.6460 H   0  0  0  0  0  0  0  0  0  0  0  0
   39.3800   32.4130   40.5390 N   0  0  0  0  0  0  0  0  0  0  0  0
   39.5380   31.6610   41.7720 C   0  0  0  0  0  0  0  0  0  0  0  0
   40.0590   30.3770   41.1910 C   0  0  2  0  0  0  0  0  0  0  0  0
   39.0760   30.1240   40.0720 C   0  0  0  0  0  0  0  0  0  0  0  0
   38.7580   31.5270   39.6080 C   0  0  0  0  0  0  0  0  0  0  0  0
   40.3180   32.1060   42.4090 H   0  0  0  0  0  0  0  0  0  0  0  0
   38.5940   31.5830   42.3110 H   0  0  0  0  0  0  0  0  0  0  0  0
   41.0790   30.5720   40.8090 H   0  0  0  0  0  0  0  0  0  0  0  0
   39.6220   29.5810   39.2830 H   0  0  0  0  0  0  0  0  0  0  0  0
   38.1990   29.5890   40.4510 H   0  0  0  0  0  0  0  0  0  0  0  0
   39.1700   31.6840   38.5890 H   0  0  0  0  0  0  0  0  0  0  0  0
   37.6440   31.6720   39.6160 H   0  0  0  0  0  0  0  0  0  0  0  0
   39.3820   36.1170   40.0920 C   0  0  0  0  0  0  0  0  0  0  0  0
   38.9180   34.8510   40.4400 C   0  0  0  0  0  0  0  0  0  0  0  0
   39.7330   33.7390   40.2300 C   0  0  0  0  0  0  0  0  0  0  0  0
   40.9450   33.9870   39.6880 N   0  0  0  0  0  0  0  0  0  0  0  0
   41.4080   35.1980   39.3480 C   0  0  0  0  0  0  0  0  0  0  0  0
   40.5990   36.2690   39.5600 N   0  0  0  0  0  0  0  0  0  0  0  0
   38.7300   36.9660   40.2650 H   0  0  0  0  0  0  0  0  0  0  0  0
   37.9350   34.6580   40.8780 H   0  0  0  0  0  0  0  0  0  0  0  0
   42.3930   35.3270   38.9170 H   0  0  0  0  0  0  0  0  0  0  0  0
   38.8320   27.0670   41.9320 C   0  0  0  0  0  0  0  0  0  0  0  0
   38.9480   28.3790   42.4220 C   0  0  0  0  0  0  0  0  0  0  0  0
   37.9330   28.7210   43.2770 C   0  0  0  0  0  0  0  0  0  0  0  0
   36.8940   27.9320   43.6570 C   0  0  0  0  0  0  0  0  0  0  0  0
   36.8240   26.6540   43.1490 C   0  0  0  0  0  0  0  0  0  0  0  0
   37.8130   26.2380   42.2800 C   0  0  0  0  0  0  0  0  0  0  0  0
   37.9430   29.7190   43.7040 H   0  0  0  0  0  0  0  0  0  0  0  0
   36.1150   28.2570   44.3400 H   0  0  0  0  0  0  0  0  0  0  0  0
   36.0140   25.9940   43.4250 H   0  0  0  0  0  0  0  0  0  0  0  0
   37.0130   24.7060   40.5580 C   0  0  0  0  0  0  0  0  0  0  0  0
   36.4630   25.6640   39.9440 O   0  0  0  0  0  0  0  0  0  0  0  0
   37.7140   24.9010   41.7670 N   0  0  0  0  0  0  0  0  0  0  0  0
   38.1520   24.0820   42.2750 H   0  0  0  0  0  0  0  0  0  0  0  0
   36.9420   23.3520   40.0350 C   0  0  0  0  0  0  0  0  0  0  0  0
   38.0700   22.5280   40.4170 C   0  0  0  0  0  0  0  0  0  0  0  0
   39.0450   22.6170   41.0310 H   0  0  0  0  0  0  0  0  0  0  0  0
   37.6800   20.8650   39.5960 S   0  0  0  0  0  0  0  0  0  0  0  0
   36.0800   21.6210   38.9080 C   0  0  0  0  0  0  0  0  0  0  0  0
   35.2520   21.1600   38.2500 H   0  0  0  0  0  0  0  0  0  0  0  0
   36.0880   22.6730   39.2850 N   0  0  0  0  0  0  0  0  0  0  0  0
   40.7010   26.2660   40.2940 N   0  0  0  0  0  0  0  0  0  0  0  0
   39.8710   26.6230   41.0150 C   0  0  0  0  0  0  0  0  0  0  0  0
  1 25  1  0  0  0  0
  1  2  1  0  0  0  0
  3  4  1  0  0  0  0
  4  9  1  0  0  0  0
  4  8  1  0  0  0  0
  5 10  1  6  0  0  0
  5  4  1  0  0  0  0
  5  1  1  0  0  0  0
  6 12  1  0  0  0  0
  6  5  1  0  0  0  0
  7 14  1  0  0  0  0
  7  6  1  0  0  0  0
  7  3  1  0  0  0  0
 11  6  1  0  0  0  0
 13  7  1  0  0  0  0
 15 21  1  0  0  0  0
 15 16  1  0  0  0  0
 16 22  1  0  0  0  0
 17 16  2  0  0  0  0
 17  3  1  0  0  0  0
 18 17  1  0  0  0  0
 19 20  1  0  0  0  0
 19 18  2  0  0  0  0
 20 15  2  0  0  0  0
 23 19  1  0  0  0  0
 24 29  2  0  0  0  0
 24 25  1  0  0  0  0
 25 26  2  0  0  0  0
 26 27  1  0  0  0  0
 26 30  1  0  0  0  0
 27 31  1  0  0  0  0
 28 32  1  0  0  0  0
 28 27  2  0  0  0  0
 29 28  1  0  0  0  0
 33 35  1  0  0  0  0
 34 33  2  0  0  0  0
 35 36  1  0  0  0  0
 35 29  1  0  0  0  0
 37 38  2  0  0  0  0
 37 33  1  0  0  0  0
 38 39  1  0  0  0  0
 40 38  1  0  0  0  0
 41 43  2  0  0  0  0
 41 40  1  0  0  0  0
 42 41  1  0  0  0  0
 43 37  1  0  0  0  0
 44 45  3  0  0  0  0
 45 24  1  0  0  0  0
M  END
>  <minimizedAffinity>
-5.78931999

$$$$

 OpenBabel03242519123D

 45 48  0  0  1  0  0  0  0  0999 V2000
   37.2520   30.2300   40.7760 N   0  0  0  0  0  0  0  0  0  0  0  0
   36.2940   30.4280   40.3850 H   0  0  0  0  0  0  0  0  0  0  0  0
   39.0130   33.1780   39.8490 N   0  0  0  0  0  0  0  0  0  0  0  0
   37.8050   32.5930   40.4040 C   0  0  0  0  0  0  0  0  0  0  0  0
   38.2970   31.1850   40.5870 C   0  0  2  0  0  0  0  0  0  0  0  0
   38.9300   30.9040   39.2430 C   0  0  0  0  0  0  0  0  0  0  0  0
   39.4900   32.2570   38.8690 C   0  0  0  0  0  0  0  0  0  0  0  0
   37.5770   33.0210   41.3930 H   0  0  0  0  0  0  0  0  0  0  0  0
   36.9620   32.7120   39.7250 H   0  0  0  0  0  0  0  0  0  0  0  0
   39.0440   31.1940   41.4010 H   0  0  0  0  0  0  0  0  0  0  0  0
   39.7520   30.1910   39.4200 H   0  0  0  0  0  0  0  0  0  0  0  0
   38.1760   30.5430   38.5360 H   0  0  0  0  0  0  0  0  0  0  0  0
   40.6000   32.2160   38.8830 H   0  0  0  0  0  0  0  0  0  0  0  0
   39.1130   32.5410   37.8500 H   0  0  0  0  0  0  0  0  0  0  0  0
   39.8150   36.7860   40.3610 C   0  0  0  0  0  0  0  0  0  0  0  0
   39.0730   35.6550   40.0330 C   0  0  0  0  0  0  0  0  0  0  0  0
   39.6570   34.3940   40.1490 C   0  0  0  0  0  0  0  0  0  0  0  0
   40.9350   34.3690   40.5850 N   0  0  0  0  0  0  0  0  0  0  0  0
   41.6630   35.4480   40.9050 C   0  0  0  0  0  0  0  0  0  0  0  0
   41.0780   36.6680   40.7850 N   0  0  0  0  0  0  0  0  0  0  0  0
   39.3410   37.7560   40.2630 H   0  0  0  0  0  0  0  0  0  0  0  0
   38.0380   35.6820   39.6810 H   0  0  0  0  0  0  0  0  0  0  0  0
   42.6860   35.3590   41.2490 H   0  0  0  0  0  0  0  0  0  0  0  0
   37.1370   27.7450   40.7510 C   0  0  0  0  0  0  0  0  0  0  0  0
   37.2040   28.9810   41.4160 C   0  0  0  0  0  0  0  0  0  0  0  0
   37.2190   28.8520   42.7810 C   0  0  0  0  0  0  0  0  0  0  0  0
   37.1760   27.6910   43.4850 C   0  0  0  0  0  0  0  0  0  0  0  0
   37.1110   26.5060   42.7880 C   0  0  0  0  0  0  0  0  0  0  0  0
   37.0920   26.5560   41.4080 C   0  0  0  0  0  0  0  0  0  0  0  0
   37.2700   29.7590   43.3760 H   0  0  0  0  0  0  0  0  0  0  0  0
   37.1900   27.6500   44.5700 H   0  0  0  0  0  0  0  0  0  0  0  0
   37.0740   25.5600   43.3090 H   0  0  0  0  0  0  0  0  0  0  0  0
   38.2290   24.6080   40.4760 C   0  0  0  0  0  0  0  0  0  0  0  0
   39.3460   25.0690   40.8470 O   0  0  0  0  0  0  0  0  0  0  0  0
   37.0230   25.3040   40.7080 N   0  0  0  0  0  0  0  0  0  0  0  0
   36.1000   24.9110   40.3730 H   0  0  0  0  0  0  0  0  0  0  0  0
   38.1440   23.3310   39.7900 C   0  0  0  0  0  0  0  0  0  0  0  0
   36.8020   22.7890   39.7460 C   0  0  0  0  0  0  0  0  0  0  0  0
   35.7390   23.0680   40.1020 H   0  0  0  0  0  0  0  0  0  0  0  0
   37.0300   21.1600   38.8050 S   0  0  0  0  0  0  0  0  0  0  0  0
   38.8840   21.5440   38.6630 C   0  0  0  0  0  0  0  0  0  0  0  0
   39.7410   20.9480   38.1720 H   0  0  0  0  0  0  0  0  0  0  0  0
   39.0030   22.5270   39.1820 N   0  0  0  0  0  0  0  0  0  0  0  0
   37.0980   27.8360   38.1420 N   0  0  0  0  0  0  0  0  0  0  0  0
   37.1170   27.7910   39.2970 C   0  0  0  0  0  0  0  0  0  0  0  0
  1 25  1  0  0  0  0
  2  1  1  0  0  0  0
  3 17  1  0  0  0  0
  3  4  1  0  0  0  0
  4  5  1  0  0  0  0
  4  8  1  0  0  0  0
  5  1  1  0  0  0  0
  5 10  1  1  0  0  0
  6 11  1  0  0  0  0
  6  5  1  0  0  0  0
  7 13  1  0  0  0  0
  7  6  1  0  0  0  0
  7  3  1  0  0  0  0
  9  4  1  0  0  0  0
 12  6  1  0  0  0  0
 14  7  1  0  0  0  0
 15 20  1  0  0  0  0
 16 17  1  0  0  0  0
 16 15  2  0  0  0  0
 17 18  2  0  0  0  0
 18 19  1  0  0  0  0
 19 23  1  0  0  0  0
 20 19  2  0  0  0  0
 21 15  1  0  0  0  0
 22 16  1  0  0  0  0
 24 29  2  0  0  0  0
 24 25  1  0  0  0  0
 25 26  2  0  0  0  0
 26 30  1  0  0  0  0
 26 27  1  0  0  0  0
 27 31  1  0  0  0  0
 28 32  1  0  0  0  0
 28 27  2  0  0  0  0
 29 28  1  0  0  0  0
 33 35  1  0  0  0  0
 33 34  2  0  0  0  0
 35 29  1  0  0  0  0
 36 35  1  0  0  0  0
 37 33  1  0  0  0  0
 38 37  2  0  0  0  0
 38 39  1  0  0  0  0
 40 38  1  0  0  0  0
 41 40  1  0  0  0  0
 41 43  2  0  0  0  0
 42 41  1  0  0  0  0
 43 37  1  0  0  0  0
 44 45  3  0  0  0  0
 45 24  1  0  0  0  0
M  END
>  <minimizedAffinity>
-5.71413994

$$$$

 OpenBabel03242519123D

 45 48  0  0  1  0  0  0  0  0999 V2000
   38.6640   29.1580   42.2250 N   0  0  0  0  0  0  0  0  0  0  0  0
   37.6930   29.3450   42.5860 H   0  0  0  0  0  0  0  0  0  0  0  0
   39.3680   32.0000   40.2040 N   0  0  0  0  0  0  0  0  0  0  0  0
   38.5150   31.3880   41.2080 C   0  0  0  0  0  0  0  0  0  0  0  0
   39.3640   30.1910   41.5300 C   0  0  2  0  0  0  0  0  0  0  0  0
   39.6940   29.6680   40.1510 C   0  0  0  0  0  0  0  0  0  0  0  0
   39.7970   30.9420   39.3460 C   0  0  0  0  0  0  0  0  0  0  0  0
   38.4420   32.0240   42.1050 H   0  0  0  0  0  0  0  0  0  0  0  0
   37.5270   31.1680   40.8060 H   0  0  0  0  0  0  0  0  0  0  0  0
   40.2650   30.5520   42.0600 H   0  0  0  0  0  0  0  0  0  0  0  0
   40.6820   29.1840   40.2190 H   0  0  0  0  0  0  0  0  0  0  0  0
   38.8990   29.0010   39.7980 H   0  0  0  0  0  0  0  0  0  0  0  0
   40.8500   31.1000   39.0330 H   0  0  0  0  0  0  0  0  0  0  0  0
   39.1200   30.8680   38.4520 H   0  0  0  0  0  0  0  0  0  0  0  0
   41.2600   35.1260   39.4520 C   0  0  0  0  0  0  0  0  0  0  0  0
   41.0020   33.7640   39.5840 C   0  0  0  0  0  0  0  0  0  0  0  0
   39.7500   33.3430   40.0290 C   0  0  0  0  0  0  0  0  0  0  0  0
   38.8590   34.3200   40.3050 N   0  0  0  0  0  0  0  0  0  0  0  0
   39.0900   35.6340   40.1830 C   0  0  0  0  0  0  0  0  0  0  0  0
   40.3170   36.0260   39.7480 N   0  0  0  0  0  0  0  0  0  0  0  0
   42.2410   35.4300   39.1040 H   0  0  0  0  0  0  0  0  0  0  0  0
   41.7290   32.9790   39.3590 H   0  0  0  0  0  0  0  0  0  0  0  0
   38.3300   36.3680   40.4210 H   0  0  0  0  0  0  0  0  0  0  0  0
   38.3810   26.6940   42.0340 C   0  0  0  0  0  0  0  0  0  0  0  0
   39.0020   27.8370   42.5640 C   0  0  0  0  0  0  0  0  0  0  0  0
   39.9900   27.5390   43.4650 C   0  0  0  0  0  0  0  0  0  0  0  0
   40.3830   26.2970   43.8540 C   0  0  0  0  0  0  0  0  0  0  0  0
   39.7450   25.2080   43.3060 C   0  0  0  0  0  0  0  0  0  0  0  0
   38.7370   25.4310   42.3890 C   0  0  0  0  0  0  0  0  0  0  0  0
   40.5240   28.3640   43.9260 H   0  0  0  0  0  0  0  0  0  0  0  0
   41.1750   26.1200   44.5750 H   0  0  0  0  0  0  0  0  0  0  0  0
   40.0260   24.2030   43.5870 H   0  0  0  0  0  0  0  0  0  0  0  0
   38.6690   23.6740   40.6960 C   0  0  0  0  0  0  0  0  0  0  0  0
   39.7140   24.1370   40.1570 O   0  0  0  0  0  0  0  0  0  0  0  0
   38.0890   24.2760   41.8330 N   0  0  0  0  0  0  0  0  0  0  0  0
   37.2030   23.8840   42.2590 H   0  0  0  0  0  0  0  0  0  0  0  0
   38.0190   22.4910   40.1590 C   0  0  0  0  0  0  0  0  0  0  0  0
   36.8190   22.7860   39.4040 C   0  0  0  0  0  0  0  0  0  0  0  0
   36.1950   23.7050   39.0850 H   0  0  0  0  0  0  0  0  0  0  0  0
   36.2280   21.0710   38.8540 S   0  0  0  0  0  0  0  0  0  0  0  0
   37.7180   20.3110   39.7530 C   0  0  0  0  0  0  0  0  0  0  0  0
   38.0490   19.2110   39.8640 H   0  0  0  0  0  0  0  0  0  0  0  0
   38.2560   21.1880   40.1880 N   0  0  0  0  0  0  0  0  0  0  0  0
   36.4680   27.1050   40.3050 N   0  0  0  0  0  0  0  0  0  0  0  0
   37.3180   26.9210   41.0670 C   0  0  0  0  0  0  0  0  0  0  0  0
  1 25  1  0  0  0  0
  1  2  1  0  0  0  0
  3  4  1  0  0  0  0
  4  5  1  0  0  0  0
  4  8  1  0  0  0  0
  5 10  1  1  0  0  0
  5  1  1  0  0  0  0
  6 11  1  0  0  0  0
  6  5  1  0  0  0  0
  7  6  1  0  0  0  0
  7  3  1  0  0  0  0
  9  4  1  0  0  0  0
 12  6  1  0  0  0  0
 13  7  1  0  0  0  0
 14  7  1  0  0  0  0
 15 16  2  0  0  0  0
 15 20  1  0  0  0  0
 16 17  1  0  0  0  0
 17  3  1  0  0  0  0
 17 18  2  0  0  0  0
 19 18  1  0  0  0  0
 19 23  1  0  0  0  0
 20 19  2  0  0  0  0
 21 15  1  0  0  0  0
 22 16  1  0  0  0  0
 24 29  2  0  0  0  0
 24 25  1  0  0  0  0
 25 26  2  0  0  0  0
 26 27  1  0  0  0  0
 26 30  1  0  0  0  0
 27 31  1  0  0  0  0
 28 32  1  0  0  0  0
 28 27  2  0  0  0  0
 29 28  1  0  0  0  0
 33 35  1  0  0  0  0
 34 33  2  0  0  0  0
 35 36  1  0  0  0  0
 35 29  1  0  0  0  0
 37 43  1  0  0  0  0
 37 33  1  0  0  0  0
 38 37  2  0  0  0  0
 39 38  1  0  0  0  0
 40 38  1  0  0  0  0
 40 41  1  0  0  0  0
 41 42  1  0  0  0  0
 41 43  2  0  0  0  0
 44 45  3  0  0  0  0
 45 24  1  0  0  0  0
M  END
>  <minimizedAffinity>
-5.69072008

$$$$

 OpenBabel03242519123D

 45 48  0  0  1  0  0  0  0  0999 V2000
   38.7190   30.4140   37.7300 N   0  0  0  0  0  0  0  0  0  0  0  0
   39.0660   30.7360   36.7890 H   0  0  0  0  0  0  0  0  0  0  0  0
   38.4970   27.1950   39.2290 N   0  0  0  0  0  0  0  0  0  0  0  0
   38.3730   28.6340   39.3860 C   0  0  0  0  0  0  0  0  0  0  0  0
   38.4410   29.0280   37.9370 C   0  0  2  0  0  0  0  0  0  0  0  0
   39.6460   28.2490   37.4630 C   0  0  0  0  0  0  0  0  0  0  0  0
   39.5490   26.9850   38.2870 C   0  0  0  0  0  0  0  0  0  0  0  0
   37.3810   28.9040   39.7810 H   0  0  0  0  0  0  0  0  0  0  0  0
   39.1650   29.0320   40.0180 H   0  0  0  0  0  0  0  0  0  0  0  0
   37.5100   28.6840   37.4520 H   0  0  0  0  0  0  0  0  0  0  0  0
   39.4800   28.0180   36.3980 H   0  0  0  0  0  0  0  0  0  0  0  0
   40.5640   28.8150   37.6550 H   0  0  0  0  0  0  0  0  0  0  0  0
   39.3100   26.1270   37.6240 H   0  0  0  0  0  0  0  0  0  0  0  0
   40.5230   26.8200   38.8210 H   0  0  0  0  0  0  0  0  0  0  0  0
   36.2560   24.2840   39.8790 C   0  0  0  0  0  0  0  0  0  0  0  0
   36.9110   25.2850   39.1660 C   0  0  0  0  0  0  0  0  0  0  0  0
   37.7780   26.1480   39.8350 C   0  0  0  0  0  0  0  0  0  0  0  0
   37.9180   25.9380   41.1620 N   0  0  0  0  0  0  0  0  0  0  0  0
   37.2960   24.9800   41.8630 C   0  0  0  0  0  0  0  0  0  0  0  0
   36.4540   24.1490   41.1940 N   0  0  0  0  0  0  0  0  0  0  0  0
   35.5860   23.6250   39.3370 H   0  0  0  0  0  0  0  0  0  0  0  0
   36.7930   25.4490   38.0920 H   0  0  0  0  0  0  0  0  0  0  0  0
   37.4530   24.8650   42.9280 H   0  0  0  0  0  0  0  0  0  0  0  0
   39.6650   32.0180   39.3790 C   0  0  0  0  0  0  0  0  0  0  0  0
   38.6260   31.5410   38.5620 C   0  0  0  0  0  0  0  0  0  0  0  0
   37.4860   32.2970   38.6540 C   0  0  0  0  0  0  0  0  0  0  0  0
   37.3050   33.3980   39.4280 C   0  0  0  0  0  0  0  0  0  0  0  0
   38.3530   33.8260   40.2120 C   0  0  0  0  0  0  0  0  0  0  0  0
   39.5360   33.1140   40.1710 C   0  0  0  0  0  0  0  0  0  0  0  0
   36.6310   32.0000   38.0550 H   0  0  0  0  0  0  0  0  0  0  0  0
   36.3760   33.9590   39.4620 H   0  0  0  0  0  0  0  0  0  0  0  0
   38.2520   34.6970   40.8430 H   0  0  0  0  0  0  0  0  0  0  0  0
   41.4470   34.6000   40.4860 C   0  0  0  0  0  0  0  0  0  0  0  0
   41.2800   35.0770   39.3290 O   0  0  0  0  0  0  0  0  0  0  0  0
   40.6120   33.5830   40.9990 N   0  0  0  0  0  0  0  0  0  0  0  0
   40.7790   33.1830   41.9640 H   0  0  0  0  0  0  0  0  0  0  0  0
   42.5150   35.0840   41.3430 C   0  0  0  0  0  0  0  0  0  0  0  0
   43.7790   34.4120   41.1230 C   0  0  0  0  0  0  0  0  0  0  0  0
   44.2160   33.5790   40.4520 H   0  0  0  0  0  0  0  0  0  0  0  0
   44.9340   35.2570   42.3650 S   0  0  0  0  0  0  0  0  0  0  0  0
   43.4780   36.3410   42.9250 C   0  0  0  0  0  0  0  0  0  0  0  0
   43.4210   37.1700   43.7250 H   0  0  0  0  0  0  0  0  0  0  0  0
   42.6230   36.0040   42.2900 N   0  0  0  0  0  0  0  0  0  0  0  0
   41.9100   30.6850   39.3040 N   0  0  0  0  0  0  0  0  0  0  0  0
   40.9140   31.2720   39.3410 C   0  0  0  0  0  0  0  0  0  0  0  0
  1  5  1  0  0  0  0
  1 25  1  0  0  0  0
  2  1  1  0  0  0  0
  3  4  1  0  0  0  0
  3 17  1  0  0  0  0
  4  8  1  0  0  0  0
  4  9  1  0  0  0  0
  5 10  1  6  0  0  0
  5  4  1  0  0  0  0
  6 12  1  0  0  0  0
  6  5  1  0  0  0  0
  6  7  1  0  0  0  0
  7 14  1  0  0  0  0
  7  3  1  0  0  0  0
 11  6  1  0  0  0  0
 13  7  1  0  0  0  0
 15 20  1  0  0  0  0
 16 17  1  0  0  0  0
 16 15  2  0  0  0  0
 17 18  2  0  0  0  0
 18 19  1  0  0  0  0
 19 23  1  0  0  0  0
 20 19  2  0  0  0  0
 21 15  1  0  0  0  0
 22 16  1  0  0  0  0
 24 29  1  0  0  0  0
 25 26  1  0  0  0  0
 25 24  2  0  0  0  0
 26 27  2  0  0  0  0
 27 31  1  0  0  0  0
 27 28  1  0  0  0  0
 28 32  1  0  0  0  0
 29 28  2  0  0  0  0
 29 35  1  0  0  0  0
 30 26  1  0  0  0  0
 33 35  1  0  0  0  0
 33 37  1  0  0  0  0
 34 33  2  0  0  0  0
 35 36  1  0  0  0  0
 37 43  1  0  0  0  0
 38 37  2  0  0  0  0
 38 40  1  0  0  0  0
 39 38  1  0  0  0  0
 40 41  1  0  0  0  0
 41 42  1  0  0  0  0
 43 41  2  0  0  0  0
 44 45  3  0  0  0  0
 45 24  1  0  0  0  0
M  END
>  <minimizedAffinity>
-5.62049103

$$$$

 OpenBabel03242519123D

 45 48  0  0  1  0  0  0  0  0999 V2000
   37.6160   27.4300   42.2260 N   0  0  0  0  0  0  0  0  0  0  0  0
   36.9610   27.6100   43.0300 H   0  0  0  0  0  0  0  0  0  0  0  0
   37.7410   24.5040   40.2050 N   0  0  0  0  0  0  0  0  0  0  0  0
   37.9440   25.1030   41.5130 C   0  0  0  0  0  0  0  0  0  0  0  0
   37.2840   26.4290   41.2620 C   0  0  2  0  0  0  0  0  0  0  0  0
   37.9070   26.8400   39.9480 C   0  0  0  0  0  0  0  0  0  0  0  0
   38.0740   25.5110   39.2490 C   0  0  0  0  0  0  0  0  0  0  0  0
   37.3770   24.5630   42.2870 H   0  0  0  0  0  0  0  0  0  0  0  0
   39.0030   25.1460   41.7660 H   0  0  0  0  0  0  0  0  0  0  0  0
   36.1970   26.2490   41.1650 H   0  0  0  0  0  0  0  0  0  0  0  0
   37.1610   27.4540   39.4180 H   0  0  0  0  0  0  0  0  0  0  0  0
   38.8590   27.3540   40.1240 H   0  0  0  0  0  0  0  0  0  0  0  0
   37.3880   25.4600   38.3770 H   0  0  0  0  0  0  0  0  0  0  0  0
   39.1430   25.3990   38.9230 H   0  0  0  0  0  0  0  0  0  0  0  0
   35.7790   21.5960   38.9360 C   0  0  0  0  0  0  0  0  0  0  0  0
   36.0930   22.9190   39.2360 C   0  0  0  0  0  0  0  0  0  0  0  0
   37.3090   23.2120   39.8520 C   0  0  0  0  0  0  0  0  0  0  0  0
   38.1100   22.1570   40.1180 N   0  0  0  0  0  0  0  0  0  0  0  0
   37.8230   20.8790   39.8350 C   0  0  0  0  0  0  0  0  0  0  0  0
   36.6330   20.6120   39.2350 N   0  0  0  0  0  0  0  0  0  0  0  0
   34.8280   21.3920   38.4560 H   0  0  0  0  0  0  0  0  0  0  0  0
   35.4400   23.7680   39.0180 H   0  0  0  0  0  0  0  0  0  0  0  0
   38.5110   20.0780   40.0750 H   0  0  0  0  0  0  0  0  0  0  0  0
   38.6670   29.6800   42.0940 C   0  0  0  0  0  0  0  0  0  0  0  0
   38.7100   28.3010   42.3590 C   0  0  0  0  0  0  0  0  0  0  0  0
   39.9460   27.8740   42.7680 C   0  0  0  0  0  0  0  0  0  0  0  0
   41.0570   28.6410   42.9250 C   0  0  0  0  0  0  0  0  0  0  0  0
   40.9650   29.9870   42.6530 C   0  0  0  0  0  0  0  0  0  0  0  0
   39.7490   30.4910   42.2350 C   0  0  0  0  0  0  0  0  0  0  0  0
   40.0700   26.8200   42.9950 H   0  0  0  0  0  0  0  0  0  0  0  0
   42.0140   28.2460   43.2530 H   0  0  0  0  0  0  0  0  0  0  0  0
   41.8240   30.6330   42.7640 H   0  0  0  0  0  0  0  0  0  0  0  0
   40.0650   32.3400   40.6740 C   0  0  0  0  0  0  0  0  0  0  0  0
   40.4750   31.5370   39.7890 O   0  0  0  0  0  0  0  0  0  0  0  0
   39.6830   31.8990   41.9590 N   0  0  0  0  0  0  0  0  0  0  0  0
   39.3590   32.5890   42.6930 H   0  0  0  0  0  0  0  0  0  0  0  0
   39.9680   33.7630   40.3980 C   0  0  0  0  0  0  0  0  0  0  0  0
   41.2410   34.3750   40.0780 C   0  0  0  0  0  0  0  0  0  0  0  0
   42.3500   34.0700   39.9700 H   0  0  0  0  0  0  0  0  0  0  0  0
   40.7790   36.1880   39.7770 S   0  0  0  0  0  0  0  0  0  0  0  0
   38.9680   35.7490   40.1450 C   0  0  0  0  0  0  0  0  0  0  0  0
   38.0210   36.4080   40.1560 H   0  0  0  0  0  0  0  0  0  0  0  0
   38.9890   34.6540   40.3660 N   0  0  0  0  0  0  0  0  0  0  0  0
   36.3700   30.6360   41.3030 N   0  0  0  0  0  0  0  0  0  0  0  0
   37.3890   30.2180   41.6530 C   0  0  0  0  0  0  0  0  0  0  0  0
  1 25  1  0  0  0  0
  1  2  1  0  0  0  0
  3  4  1  0  0  0  0
  4  9  1  0  0  0  0
  4  8  1  0  0  0  0
  5 10  1  6  0  0  0
  5  4  1  0  0  0  0
  5  1  1  0  0  0  0
  6 12  1  0  0  0  0
  6  5  1  0  0  0  0
  7  6  1  0  0  0  0
  7  3  1  0  0  0  0
 11  6  1  0  0  0  0
 13  7  1  0  0  0  0
 14  7  1  0  0  0  0
 15 20  2  0  0  0  0
 15 16  1  0  0  0  0
 16 17  2  0  0  0  0
 17 18  1  0  0  0  0
 17  3  1  0  0  0  0
 19 23  1  0  0  0  0
 19 18  2  0  0  0  0
 20 19  1  0  0  0  0
 21 15  1  0  0  0  0
 22 16  1  0  0  0  0
 24 29  2  0  0  0  0
 24 25  1  0  0  0  0
 25 26  2  0  0  0  0
 26 27  1  0  0  0  0
 26 30  1  0  0  0  0
 27 31  1  0  0  0  0
 28 32  1  0  0  0  0
 28 27  2  0  0  0  0
 29 28  1  0  0  0  0
 33 35  1  0  0  0  0
 34 33  2  0  0  0  0
 35 29  1  0  0  0  0
 35 36  1  0  0  0  0
 37 33  1  0  0  0  0
 38 37  2  0  0  0  0
 39 38  1  0  0  0  0
 40 38  1  0  0  0  0
 40 41  1  0  0  0  0
 41 42  1  0  0  0  0
 41 43  2  0  0  0  0
 43 37  1  0  0  0  0
 44 45  3  0  0  0  0
 45 24  1  0  0  0  0
M  END
>  <minimizedAffinity>
-5.61240816

$$$$

 OpenBabel03242519123D

 45 48  0  0  1  0  0  0  0  0999 V2000
   37.4190   30.1380   41.7300 N   0  0  0  0  0  0  0  0  0  0  0  0
   36.7460   30.4220   42.4880 H   0  0  0  0  0  0  0  0  0  0  0  0
   36.9540   26.6360   41.3110 N   0  0  0  0  0  0  0  0  0  0  0  0
   36.4720   27.9790   41.0420 C   0  0  0  0  0  0  0  0  0  0  0  0
   37.6750   28.7510   41.5050 C   0  0  2  0  0  0  0  0  0  0  0  0
   37.9500   28.1160   42.8490 C   0  0  0  0  0  0  0  0  0  0  0  0
   37.5550   26.6780   42.6060 C   0  0  0  0  0  0  0  0  0  0  0  0
   36.3380   28.1420   39.9620 H   0  0  0  0  0  0  0  0  0  0  0  0
   35.5480   28.1820   41.5840 H   0  0  0  0  0  0  0  0  0  0  0  0
   38.4920   28.5600   40.7840 H   0  0  0  0  0  0  0  0  0  0  0  0
   39.0370   28.1850   43.0190 H   0  0  0  0  0  0  0  0  0  0  0  0
   37.3490   28.6000   43.6260 H   0  0  0  0  0  0  0  0  0  0  0  0
   38.4590   26.0340   42.6350 H   0  0  0  0  0  0  0  0  0  0  0  0
   36.8140   26.3630   43.3890 H   0  0  0  0  0  0  0  0  0  0  0  0
   37.1270   23.1160   40.0860 C   0  0  0  0  0  0  0  0  0  0  0  0
   37.2340   24.1930   40.9620 C   0  0  0  0  0  0  0  0  0  0  0  0
   36.8890   25.4710   40.5240 C   0  0  0  0  0  0  0  0  0  0  0  0
   36.4660   25.5660   39.2450 N   0  0  0  0  0  0  0  0  0  0  0  0
   36.3560   24.5400   38.3890 C   0  0  0  0  0  0  0  0  0  0  0  0
   36.6970   23.3020   38.8340 N   0  0  0  0  0  0  0  0  0  0  0  0
   37.4010   22.1310   40.4490 H   0  0  0  0  0  0  0  0  0  0  0  0
   37.5780   24.1080   41.9970 H   0  0  0  0  0  0  0  0  0  0  0  0
   36.0090   24.6850   37.3730 H   0  0  0  0  0  0  0  0  0  0  0  0
   39.1880   31.8360   41.3140 C   0  0  0  0  0  0  0  0  0  0  0  0
   37.9000   31.3090   41.1220 C   0  0  0  0  0  0  0  0  0  0  0  0
   37.1380   32.0600   40.2660 C   0  0  0  0  0  0  0  0  0  0  0  0
   37.5170   33.2020   39.6350 C   0  0  0  0  0  0  0  0  0  0  0  0
   38.7890   33.6790   39.8540 C   0  0  0  0  0  0  0  0  0  0  0  0
   39.6160   32.9740   40.7060 C   0  0  0  0  0  0  0  0  0  0  0  0
   36.1260   31.7260   40.0600 H   0  0  0  0  0  0  0  0  0  0  0  0
   36.8680   33.7580   38.9650 H   0  0  0  0  0  0  0  0  0  0  0  0
   39.1310   34.5840   39.3730 H   0  0  0  0  0  0  0  0  0  0  0  0
   41.9460   33.1370   39.9950 C   0  0  0  0  0  0  0  0  0  0  0  0
   41.7140   32.3650   39.0210 O   0  0  0  0  0  0  0  0  0  0  0  0
   40.9380   33.4950   40.9160 N   0  0  0  0  0  0  0  0  0  0  0  0
   41.1560   34.1280   41.7360 H   0  0  0  0  0  0  0  0  0  0  0  0
   43.2710   33.6910   40.2040 C   0  0  0  0  0  0  0  0  0  0  0  0
   44.1520   33.5240   39.0660 C   0  0  0  0  0  0  0  0  0  0  0  0
   44.1240   33.0680   38.0040 H   0  0  0  0  0  0  0  0  0  0  0  0
   45.7620   34.3360   39.6480 S   0  0  0  0  0  0  0  0  0  0  0  0
   44.9190   34.7350   41.3030 C   0  0  0  0  0  0  0  0  0  0  0  0
   45.3210   35.2700   42.2420 H   0  0  0  0  0  0  0  0  0  0  0  0
   43.8860   34.3240   41.1920 N   0  0  0  0  0  0  0  0  0  0  0  0
   40.7550   30.5050   42.9230 N   0  0  0  0  0  0  0  0  0  0  0  0
   40.0650   31.0980   42.2090 C   0  0  0  0  0  0  0  0  0  0  0  0
  1  2  1  0  0  0  0
  3  7  1  0  0  0  0
  4  3  1  0  0  0  0
  4  5  1  0  0  0  0
  4  9  1  0  0  0  0
  5 10  1  6  0  0  0
  5  1  1  0  0  0  0
  5  6  1  0  0  0  0
  6 11  1  0  0  0  0
  6 12  1  0  0  0  0
  7 13  1  0  0  0  0
  7  6  1  0  0  0  0
  7 14  1  0  0  0  0
  8  4  1  0  0  0  0
 15 21  1  0  0  0  0
 15 16  1  0  0  0  0
 16 22  1  0  0  0  0
 17 16  2  0  0  0  0
 17  3  1  0  0  0  0
 18 17  1  0  0  0  0
 19 20  1  0  0  0  0
 19 18  2  0  0  0  0
 20 15  2  0  0  0  0
 23 19  1  0  0  0  0
 24 45  1  0  0  0  0
 25 24  1  0  0  0  0
 25  1  1  0  0  0  0
 26 25  2  0  0  0  0
 27 28  2  0  0  0  0
 27 26  1  0  0  0  0
 28 29  1  0  0  0  0
 29 35  1  0  0  0  0
 29 24  2  0  0  0  0
 30 26  1  0  0  0  0
 31 27  1  0  0  0  0
 32 28  1  0  0  0  0
 33 37  1  0  0  0  0
 33 35  1  0  0  0  0
 34 33  2  0  0  0  0
 35 36  1  0  0  0  0
 37 43  1  0  0  0  0
 38 40  1  0  0  0  0
 38 37  2  0  0  0  0
 39 38  1  0  0  0  0
 40 41  1  0  0  0  0
 41 42  1  0  0  0  0
 43 41  2  0  0  0  0
 45 44  3  0  0  0  0
M  END
>  <minimizedAffinity>
-5.59227085

$$$$
