
 OpenBabel03252503343D

 20 21  0  0  0  0  0  0  0  0999 V2000
   46.8490   33.2560   43.4570 C   0  0  0  0  0  0  0  0  0  0  0  0
   45.7130   32.7320   43.3350 O   0  0  0  0  0  0  0  0  0  0  0  0
   47.4030   33.1980   44.7600 N   0  0  0  0  0  0  0  0  0  0  0  0
   48.3670   33.6420   44.8140 H   0  0  0  0  0  0  0  0  0  0  0  0
   45.1690   32.7120   47.6850 C   0  0  0  0  0  0  0  0  0  0  0  0
   45.8360   33.3630   46.6380 C   0  0  0  0  0  0  0  0  0  0  0  0
   46.7030   32.6030   45.8280 C   0  0  0  0  0  0  0  0  0  0  0  0
   46.8590   31.2730   46.0900 N   0  0  0  0  0  0  0  0  0  0  0  0
   46.1880   30.6950   47.1160 C   0  0  0  0  0  0  0  0  0  0  0  0
   45.3550   31.3870   47.9070 N   0  0  0  0  0  0  0  0  0  0  0  0
   44.5090   33.3060   48.2960 H   0  0  0  0  0  0  0  0  0  0  0  0
   45.6910   34.4090   46.4600 H   0  0  0  0  0  0  0  0  0  0  0  0
   46.3320   29.6390   47.2990 H   0  0  0  0  0  0  0  0  0  0  0  0
   47.3880   33.8290   42.2330 C   0  0  0  0  0  0  0  0  0  0  0  0
   47.1280   33.2960   41.0070 C   0  0  0  0  0  0  0  0  0  0  0  0
   46.5480   32.4460   40.6420 H   0  0  0  0  0  0  0  0  0  0  0  0
   48.0420   34.4100   39.9260 S   0  0  0  0  0  0  0  0  0  0  0  0
   48.6380   35.4410   41.4090 C   0  0  0  0  0  0  0  0  0  0  0  0
   49.3100   36.2820   40.7800 H   0  0  0  0  0  0  0  0  0  0  0  0
   48.1520   34.8880   42.2510 N   0  0  0  0  0  0  0  0  0  0  0  0
  1  3  1  0  0  0  0
  2  1  2  0  0  0  0
  3  4  1  0  0  0  0
  3  7  1  0  0  0  0
  5 10  1  0  0  0  0
  5 11  1  0  0  0  0
  6  5  2  0  0  0  0
  7  8  2  0  0  0  0
  7  6  1  0  0  0  0
  8  9  1  0  0  0  0
  9 13  1  0  0  0  0
  9 10  2  0  0  0  0
 12  6  1  0  0  0  0
 14 20  1  0  0  0  0
 14  1  1  0  0  0  0
 15 14  2  0  0  0  0
 16 15  1  0  0  0  0
 17 15  1  0  0  0  0
 17 18  1  0  0  0  0
 18 20  2  0  0  0  0
 19 18  1  0  0  0  0
M  END
>  <minimizedAffinity>
-3.65317059

>  <minimizedRMSD>
3.64285088

$$$$
