
 OpenBabel03252503343D

 25 27  0  0  0  0  0  0  0  0999 V2000
   46.4920   33.6990   40.9690 C   0  0  0  0  0  0  0  0  0  0  0  0
   45.3050   33.3000   41.1160 O   0  0  0  0  0  0  0  0  0  0  0  0
   46.9490   34.5250   42.0280 N   0  0  0  0  0  0  0  0  0  0  0  0
   47.8870   34.9790   41.9980 H   0  0  0  0  0  0  0  0  0  0  0  0
   47.8270   34.2660   38.9090 C   0  0  0  0  0  3  0  0  0  0  0  0
   47.3440   33.3630   39.8330 C   0  0  0  0  0  0  0  0  0  0  0  0
   47.6970   32.0330   39.6610 C   0  0  0  0  0  0  0  0  0  0  0  0
   47.3950   31.2130   40.3010 H   0  0  0  0  0  0  0  0  0  0  0  0
   48.5080   31.6250   38.6020 C   0  0  0  0  0  0  0  0  0  0  0  0
   49.0250   30.4730   38.1510 N   0  0  0  0  0  0  0  0  0  0  0  0
   49.7560   30.6950   37.0450 C   0  0  0  0  0  0  0  0  0  0  0  0
   50.3080   29.9840   36.4330 H   0  0  0  0  0  0  0  0  0  0  0  0
   49.7390   32.0140   36.7370 N   0  0  0  0  0  0  0  0  0  0  0  0
   48.9720   32.5620   37.6990 C   0  0  0  0  0  0  0  0  0  0  0  0
   48.6280   33.8840   37.8590 C   0  0  0  0  0  3  0  0  0  0  0  0
   48.8690   29.5430   38.6100 H   0  0  0  0  0  0  0  0  0  0  0  0
   44.5850   36.1460   44.3910 C   0  0  0  0  0  0  0  0  0  0  0  0
   45.3500   35.9190   43.2270 C   0  0  0  0  0  0  0  0  0  0  0  0
   46.1670   34.7850   43.1840 C   0  0  0  0  0  0  0  0  0  0  0  0
   46.2010   33.9510   44.2420 N   0  0  0  0  0  0  0  0  0  0  0  0
   45.4460   34.1990   45.3590 C   0  0  0  0  0  0  0  0  0  0  0  0
   44.6580   35.2860   45.4100 N   0  0  0  0  0  0  0  0  0  0  0  0
   43.9430   37.0130   44.4570 H   0  0  0  0  0  0  0  0  0  0  0  0
   45.2820   36.6260   42.4040 H   0  0  0  0  0  0  0  0  0  0  0  0
   45.5510   33.4650   46.1450 H   0  0  0  0  0  0  0  0  0  0  0  0
  1  2  2  0  0  0  0
  1  3  1  0  0  0  0
  3 19  1  0  0  0  0
  4  3  1  0  0  0  0
  5  6  1  0  0  0  0
  6  1  1  0  0  0  0
  7  6  2  0  0  0  0
  7  8  1  0  0  0  0
  9  7  1  0  0  0  0
 10  9  1  0  0  0  0
 10 16  1  0  0  0  0
 11 10  1  0  0  0  0
 12 11  1  0  0  0  0
 13 11  2  0  0  0  0
 13 14  1  0  0  0  0
 14 15  1  0  0  0  0
 14  9  2  0  0  0  0
 15  5  2  0  0  0  0
 17 23  1  0  0  0  0
 17 22  1  0  0  0  0
 18 17  2  0  0  0  0
 19 18  1  0  0  0  0
 19 20  2  0  0  0  0
 20 21  1  0  0  0  0
 21 22  2  0  0  0  0
 21 25  1  0  0  0  0
 24 18  1  0  0  0  0
M  END
>  <minimizedAffinity>
-4.32430267

>  <minimizedRMSD>
0.780799866

$$$$
