
 OpenBabel03242513593D

 44 49  0  0  0  0  0  0  0  0999 V2000
   44.9680   34.8280   44.8010 C   0  0  0  0  0  0  0  0  0  0  0  0
   45.6390   34.6980   43.5910 C   0  0  0  0  0  0  0  0  0  0  0  0
   46.7050   33.7700   43.5220 C   0  0  0  0  0  0  0  0  0  0  0  0
   47.0020   33.0710   44.6330 N   0  0  0  0  0  0  0  0  0  0  0  0
   46.3430   33.2090   45.7930 C   0  0  0  0  0  0  0  0  0  0  0  0
   45.3070   34.1100   45.8640 N   0  0  0  0  0  0  0  0  0  0  0  0
   44.1470   35.5490   44.8410 H   0  0  0  0  0  0  0  0  0  0  0  0
   47.2490   33.6350   42.6200 H   0  0  0  0  0  0  0  0  0  0  0  0
   46.6210   32.4800   47.0270 C   0  0  0  0  0  0  0  0  0  0  0  0
   45.7130   32.4590   48.0790 C   0  0  0  0  0  0  0  0  0  0  0  0
   46.2910   31.6810   49.0840 C   0  0  0  0  0  0  0  0  0  0  0  0
   47.4900   31.2690   48.6250 N   0  0  0  0  0  0  0  0  0  0  0  0
   47.6610   31.7590   47.3980 N   0  0  0  0  0  0  0  0  0  0  0  0
   44.7190   32.9130   48.2180 H   0  0  0  0  0  0  0  0  0  0  0  0
   45.9520   31.4010   50.0500 H   0  0  0  0  0  0  0  0  0  0  0  0
   48.9200   29.3990   48.3450 C   0  0  0  0  0  0  0  0  0  0  0  0
   48.5370   30.4680   49.1580 C   0  0  0  0  0  0  0  0  0  0  0  0
   49.1600   30.6860   50.3750 C   0  0  0  0  0  0  0  0  0  0  0  0
   48.8220   31.5280   50.9610 H   0  0  0  0  0  0  0  0  0  0  0  0
   50.1730   29.8250   50.7780 C   0  0  0  0  0  0  0  0  0  0  0  0
   50.9060   29.8470   51.9060 N   0  0  0  0  0  0  0  0  0  0  0  0
   51.7580   28.7860   51.8040 C   0  0  0  0  0  0  0  0  0  0  0  0
   52.5180   28.4310   52.4860 H   0  0  0  0  0  0  0  0  0  0  0  0
   51.5320   28.1500   50.6400 N   0  0  0  0  0  0  0  0  0  0  0  0
   50.5350   28.7750   49.9580 C   0  0  0  0  0  0  0  0  0  0  0  0
   49.9370   28.5290   48.7400 C   0  0  0  0  0  0  0  0  0  0  0  0
   50.8790   30.5030   52.7180 H   0  0  0  0  0  0  0  0  0  0  0  0
   45.3420   35.4110   42.4450 O   0  0  0  0  0  0  0  0  0  0  0  0
   44.3810   35.0520   41.5120 C   0  0  0  0  0  0  0  0  0  0  0  0
   44.5510   34.2060   40.4420 C   0  0  0  0  0  0  0  0  0  0  0  0
   43.4890   33.9460   39.5960 C   0  0  0  0  0  0  0  0  0  0  0  0
   42.2380   34.5140   39.7880 C   0  0  0  0  0  0  0  0  0  0  0  0
   41.2590   34.2180   38.9320 N   0  0  0  0  0  0  0  0  0  0  0  0
   40.0220   34.7480   39.0770 C   0  0  0  0  0  0  0  0  0  0  0  0
   39.8210   35.6010   40.1410 C   0  0  0  0  0  0  0  0  0  0  0  0
   40.8450   35.9190   41.0480 C   0  0  0  0  0  0  0  0  0  0  0  0
   42.0860   35.3610   40.8670 C   0  0  0  0  0  0  0  0  0  0  0  0
   43.1410   35.6410   41.7360 C   0  0  0  0  0  0  0  0  0  0  0  0
   45.5390   33.7810   40.3240 H   0  0  0  0  0  0  0  0  0  0  0  0
   43.7080   33.2810   38.7980 H   0  0  0  0  0  0  0  0  0  0  0  0
   39.2130   34.5180   38.3890 H   0  0  0  0  0  0  0  0  0  0  0  0
   38.8430   36.0570   40.3050 H   0  0  0  0  0  0  0  0  0  0  0  0
   40.6850   36.5860   41.8770 H   0  0  0  0  0  0  0  0  0  0  0  0
   42.9010   36.3090   42.5300 H   0  0  0  0  0  0  0  0  0  0  0  0
  1  7  1  0  0  0  0
  1  6  1  0  0  0  0
  2  1  2  0  0  0  0
  3  2  1  0  0  0  0
  3  4  2  0  0  0  0
  4  5  1  0  0  0  0
  5  6  2  0  0  0  0
  5  9  1  0  0  0  0
  8  3  1  0  0  0  0
  9 13  2  0  0  0  0
  9 10  1  0  0  0  0
 10 14  1  0  0  0  0
 10 11  2  0  0  0  0
 11 15  1  0  0  0  0
 12 11  1  0  0  0  0
 12 17  1  0  0  0  0
 13 12  1  0  0  0  0
 16 26  2  0  0  0  0
 16 17  1  0  0  0  0
 17 18  2  0  0  0  0
 18 20  1  0  0  0  0
 18 19  1  0  0  0  0
 20 21  1  0  0  0  0
 21 27  1  0  0  0  0
 22 21  1  0  0  0  0
 22 23  1  0  0  0  0
 24 22  2  0  0  0  0
 25 24  1  0  0  0  0
 25 20  2  0  0  0  0
 26 25  1  0  0  0  0
 28  2  1  0  0  0  0
 29 38  1  0  0  0  0
 29 28  1  0  0  0  0
 30 29  2  0  0  0  0
 31 32  2  0  0  0  0
 31 30  1  0  0  0  0
 32 37  1  0  0  0  0
 33 34  2  0  0  0  0
 33 32  1  0  0  0  0
 34 35  1  0  0  0  0
 35 42  1  0  0  0  0
 35 36  2  0  0  0  0
 36 43  1  0  0  0  0
 37 36  1  0  0  0  0
 37 38  2  0  0  0  0
 38 44  1  0  0  0  0
 39 30  1  0  0  0  0
 40 31  1  0  0  0  0
 41 34  1  0  0  0  0
M  END
>  <minimizedAffinity>
-7.70981646

>  <minimizedRMSD>
1.36627316

$$$$
