
 OpenBabel03252509293D

 24 26  0  0  0  0  0  0  0  0999 V2000
   46.5930   34.9630   42.0350 C   0  0  0  0  0  0  0  0  0  0  0  0
   46.8990   35.9770   41.7390 H   0  0  0  0  0  0  0  0  0  0  0  0
   47.5350   34.3760   42.1010 H   0  0  0  0  0  0  0  0  0  0  0  0
   46.4450   33.6040   39.9940 C   0  0  0  0  0  3  0  0  0  0  0  0
   45.7830   34.3370   40.9560 C   0  0  0  0  0  0  0  0  0  0  0  0
   44.4100   34.4760   40.9040 C   0  0  0  0  0  0  0  0  0  0  0  0
   43.8750   35.0550   41.6620 H   0  0  0  0  0  0  0  0  0  0  0  0
   43.6770   33.8850   39.8930 C   0  0  0  0  0  0  0  0  0  0  0  0
   42.3500   33.8480   39.5910 N   0  0  0  0  0  0  0  0  0  0  0  0
   42.2460   33.0960   38.4570 C   0  0  0  0  0  0  0  0  0  0  0  0
   41.3030   32.8850   37.9690 H   0  0  0  0  0  0  0  0  0  0  0  0
   43.4710   32.6750   38.0630 N   0  0  0  0  0  0  0  0  0  0  0  0
   44.3530   33.1640   38.9520 C   0  0  0  0  0  0  0  0  0  0  0  0
   45.7320   32.9970   38.9620 C   0  0  0  0  0  3  0  0  0  0  0  0
   41.5820   34.3090   40.1300 H   0  0  0  0  0  0  0  0  0  0  0  0
   44.4910   35.9820   44.9290 C   0  0  0  0  0  0  0  0  0  0  0  0
   45.1160   35.9910   43.6630 C   0  0  0  0  0  0  0  0  0  0  0  0
   45.9550   34.9370   43.3490 C   0  0  0  0  0  0  0  0  0  0  0  0
   46.1410   33.9430   44.2660 N   0  0  0  0  0  0  0  0  0  0  0  0
   45.5230   33.9720   45.4670 C   0  0  0  0  0  0  0  0  0  0  0  0
   44.7090   34.9760   45.7980 N   0  0  0  0  0  0  0  0  0  0  0  0
   43.8270   36.7840   45.2220 H   0  0  0  0  0  0  0  0  0  0  0  0
   44.9030   36.8200   43.0170 H   0  0  0  0  0  0  0  0  0  0  0  0
   45.7100   33.1430   46.1660 H   0  0  0  0  0  0  0  0  0  0  0  0
  1  3  1  0  0  0  0
  1 18  1  0  0  0  0
  2  1  1  0  0  0  0
  4  5  1  0  0  0  0
  5  1  1  0  0  0  0
  6  5  2  0  0  0  0
  6  7  1  0  0  0  0
  8  6  1  0  0  0  0
  9  8  1  0  0  0  0
  9 15  1  0  0  0  0
 10  9  1  0  0  0  0
 11 10  1  0  0  0  0
 12 10  2  0  0  0  0
 12 13  1  0  0  0  0
 13 14  1  0  0  0  0
 13  8  2  0  0  0  0
 14  4  2  0  0  0  0
 16 22  1  0  0  0  0
 16 21  1  0  0  0  0
 17 16  2  0  0  0  0
 18 17  1  0  0  0  0
 18 19  2  0  0  0  0
 19 20  1  0  0  0  0
 20 21  2  0  0  0  0
 20 24  1  0  0  0  0
 23 17  1  0  0  0  0
M  END
>  <minimizedAffinity>
-4.63207436

>  <minimizedRMSD>
0.828207612

$$$$
