
 OpenBabel03252509293D

 24 26  0  0  0  0  0  0  0  0999 V2000
   46.9850   34.9280   41.9400 C   0  0  0  0  0  0  0  0  0  0  0  0
   47.3010   35.9350   41.6310 H   0  0  0  0  0  0  0  0  0  0  0  0
   47.9250   34.3690   42.1370 H   0  0  0  0  0  0  0  0  0  0  0  0
   47.1010   33.7510   39.7860 C   0  0  0  0  0  3  0  0  0  0  0  0
   46.3120   34.2330   40.8100 C   0  0  0  0  0  0  0  0  0  0  0  0
   44.9430   34.0660   40.7710 C   0  0  0  0  0  0  0  0  0  0  0  0
   44.3080   34.4440   41.5770 H   0  0  0  0  0  0  0  0  0  0  0  0
   44.3390   33.4170   39.7120 C   0  0  0  0  0  0  0  0  0  0  0  0
   43.0470   33.1110   39.4070 N   0  0  0  0  0  0  0  0  0  0  0  0
   43.0900   32.4560   38.2120 C   0  0  0  0  0  0  0  0  0  0  0  0
   42.2080   32.0830   37.7070 H   0  0  0  0  0  0  0  0  0  0  0  0
   44.3690   32.3540   37.7810 N   0  0  0  0  0  0  0  0  0  0  0  0
   45.1380   32.9490   38.7100 C   0  0  0  0  0  0  0  0  0  0  0  0
   46.5210   33.0920   38.7050 C   0  0  0  0  0  3  0  0  0  0  0  0
   42.2080   33.3410   39.9860 H   0  0  0  0  0  0  0  0  0  0  0  0
   44.5890   36.0470   44.5550 C   0  0  0  0  0  0  0  0  0  0  0  0
   45.3510   36.0150   43.3660 C   0  0  0  0  0  0  0  0  0  0  0  0
   46.2060   34.9440   43.1750 C   0  0  0  0  0  0  0  0  0  0  0  0
   46.2770   33.9750   44.1340 N   0  0  0  0  0  0  0  0  0  0  0  0
   45.5320   34.0440   45.2580 C   0  0  0  0  0  0  0  0  0  0  0  0
   44.6980   35.0640   45.4700 N   0  0  0  0  0  0  0  0  0  0  0  0
   43.9070   36.8630   44.7520 H   0  0  0  0  0  0  0  0  0  0  0  0
   45.2200   36.8270   42.6790 H   0  0  0  0  0  0  0  0  0  0  0  0
   45.6300   33.2330   45.9960 H   0  0  0  0  0  0  0  0  0  0  0  0
  1  3  1  0  0  0  0
  1 18  1  0  0  0  0
  2  1  1  0  0  0  0
  4  5  1  0  0  0  0
  5  1  1  0  0  0  0
  6  5  2  0  0  0  0
  6  7  1  0  0  0  0
  8  6  1  0  0  0  0
  9  8  1  0  0  0  0
  9 15  1  0  0  0  0
 10  9  1  0  0  0  0
 11 10  1  0  0  0  0
 12 10  2  0  0  0  0
 12 13  1  0  0  0  0
 13  8  2  0  0  0  0
 14 13  1  0  0  0  0
 14  4  2  0  0  0  0
 16 22  1  0  0  0  0
 16 21  1  0  0  0  0
 17 16  2  0  0  0  0
 18 17  1  0  0  0  0
 18 19  2  0  0  0  0
 19 20  1  0  0  0  0
 20 21  2  0  0  0  0
 20 24  1  0  0  0  0
 23 17  1  0  0  0  0
M  END
>  <minimizedAffinity>
-4.52289009

>  <minimizedRMSD>
0.548459947

$$$$
