
 OpenBabel03242518093D

 27 29  0  0  0  0  0  0  0  0999 V2000
   48.7440   34.2770   42.8220 C   0  0  0  0  0  0  0  0  0  0  0  0
   49.3830   34.7130   43.6040 H   0  0  0  0  0  0  0  0  0  0  0  0
   48.3040   35.0700   42.1550 H   0  0  0  0  0  0  0  0  0  0  0  0
   50.8130   32.9180   42.2030 C   0  0  0  0  0  0  0  0  0  0  0  0
   49.5320   33.3630   41.9490 C   0  0  0  0  0  0  0  0  0  0  0  0
   48.9010   32.9320   40.7850 C   0  0  0  0  0  0  0  0  0  0  0  0
   47.8830   33.2610   40.5450 H   0  0  0  0  0  0  0  0  0  0  0  0
   49.4720   32.0860   39.8570 C   0  0  0  0  0  0  0  0  0  0  0  0
   49.0460   31.5610   38.6960 N   0  0  0  0  0  0  0  0  0  0  0  0
   50.0410   30.8060   38.2320 C   0  0  0  0  0  0  0  0  0  0  0  0
   49.9500   30.2730   37.3110 H   0  0  0  0  0  0  0  0  0  0  0  0
   51.0930   30.8530   39.1010 N   0  0  0  0  0  0  0  0  0  0  0  0
   50.7600   31.6610   40.1450 C   0  0  0  0  0  0  0  0  0  0  0  0
   51.4240   32.0680   41.2990 C   0  0  0  0  0  0  0  0  0  0  0  0
   48.1160   31.7370   38.2750 H   0  0  0  0  0  0  0  0  0  0  0  0
   47.6350   33.4480   43.4360 C   0  0  0  0  0  0  0  0  0  0  0  0
   48.0630   32.9710   44.3120 H   0  0  0  0  0  0  0  0  0  0  0  0
   47.2900   32.6990   42.6680 H   0  0  0  0  0  0  0  0  0  0  0  0
   46.5080   34.3240   43.7480 C   0  0  0  0  0  0  0  0  0  0  0  0
   46.0570   35.2950   42.8650 C   0  0  0  0  0  0  0  0  0  0  0  0
   44.9580   36.0920   43.2580 C   0  0  0  0  0  0  0  0  0  0  0  0
   44.4050   35.8560   44.4890 N   0  0  0  0  0  0  0  0  0  0  0  0
   44.8770   34.9020   45.3090 C   0  0  0  0  0  0  0  0  0  0  0  0
   45.9130   34.1600   44.9260 N   0  0  0  0  0  0  0  0  0  0  0  0
   46.5340   35.4320   41.9160 H   0  0  0  0  0  0  0  0  0  0  0  0
   44.6040   36.8490   42.5730 H   0  0  0  0  0  0  0  0  0  0  0  0
   44.3870   34.7750   46.2670 H   0  0  0  0  0  0  0  0  0  0  0  0
  1 16  1  0  0  0  0
  1  2  1  0  0  0  0
  3  1  1  0  0  0  0
  5  4  1  0  0  0  0
  5  1  1  0  0  0  0
  6  5  2  0  0  0  0
  7  6  1  0  0  0  0
  8 13  2  0  0  0  0
  8  6  1  0  0  0  0
  9  8  1  0  0  0  0
 10  9  1  0  0  0  0
 10 12  2  0  0  0  0
 11 10  1  0  0  0  0
 12 13  1  0  0  0  0
 13 14  1  0  0  0  0
 14  4  2  0  0  0  0
 15  9  1  0  0  0  0
 16 19  1  0  0  0  0
 16 17  1  0  0  0  0
 18 16  1  0  0  0  0
 19 24  1  0  0  0  0
 20 21  1  0  0  0  0
 20 19  2  0  0  0  0
 21 22  2  0  0  0  0
 22 23  1  0  0  0  0
 23 27  1  0  0  0  0
 24 23  2  0  0  0  0
 25 20  1  0  0  0  0
 26 21  1  0  0  0  0
M  END
>  <minimizedAffinity>
-4.58054781

>  <minimizedRMSD>
2.19577384

$$$$
