
 OpenBabel03252505303D

 30 32  0  0  0  0  0  0  0  0999 V2000
   45.4450   30.6940   46.6240 O   0  0  0  0  0  0  0  0  0  0  0  0
   44.9540   29.9240   47.6500 C   0  0  0  0  0  0  0  0  0  0  0  0
   43.8350   29.8790   47.5060 H   0  0  0  0  0  0  0  0  0  0  0  0
   45.0830   30.4150   48.6520 H   0  0  0  0  0  0  0  0  0  0  0  0
   46.7760   28.3070   47.3050 C   0  0  0  0  0  0  0  0  0  0  0  0
   45.4630   28.5510   47.7080 C   0  0  0  0  0  0  0  0  0  0  0  0
   44.7350   27.4620   48.1370 C   0  0  0  0  0  0  0  0  0  0  0  0
   43.7070   27.6440   48.4530 H   0  0  0  0  0  0  0  0  0  0  0  0
   45.1930   26.1620   48.1990 C   0  0  0  0  0  0  0  0  0  0  0  0
   44.6380   24.9990   48.5820 N   0  0  0  0  0  0  0  0  0  0  0  0
   45.5790   24.0250   48.4270 C   0  0  0  0  0  0  0  0  0  0  0  0
   45.4510   22.9630   48.6480 H   0  0  0  0  0  0  0  0  0  0  0  0
   46.7070   24.6140   47.9470 N   0  0  0  0  0  0  0  0  0  0  0  0
   46.4980   25.9380   47.7960 C   0  0  0  0  0  0  0  0  0  0  0  0
   47.2520   27.0140   47.3610 C   0  0  0  0  0  0  0  0  0  0  0  0
   43.6590   24.8480   48.9380 H   0  0  0  0  0  0  0  0  0  0  0  0
   46.9300   31.8660   48.3930 O   0  0  0  0  0  0  0  0  0  0  0  0
   45.9420   32.1710   47.2680 P   0  0  2  0  0  0  0  0  0  0  0  0
   44.5730   32.9530   47.8710 O   0  0  0  0  0  0  0  0  0  0  0  0
   43.7860   32.7590   47.2880 H   0  0  0  0  0  0  0  0  0  0  0  0
   46.7340   33.1290   46.1240 O   0  0  0  0  0  0  0  0  0  0  0  0
   44.4800   35.5370   44.8350 C   0  0  0  0  0  0  0  0  0  0  0  0
   44.8800   35.7120   43.4780 C   0  0  0  0  0  0  0  0  0  0  0  0
   45.9800   34.9390   43.0510 C   0  0  0  0  0  0  0  0  0  0  0  0
   46.5640   34.0950   43.9630 N   0  0  0  0  0  0  0  0  0  0  0  0
   46.1350   33.9830   45.2200 C   0  0  0  0  0  0  0  0  0  0  0  0
   45.1050   34.6920   45.6560 N   0  0  0  0  0  0  0  0  0  0  0  0
   43.6260   36.1380   45.1620 H   0  0  0  0  0  0  0  0  0  0  0  0
   44.3630   36.4010   42.8220 H   0  0  0  0  0  0  0  0  0  0  0  0
   46.3250   35.0330   42.0310 H   0  0  0  0  0  0  0  0  0  0  0  0
  1 18  1  0  0  0  0
  1  2  1  0  0  0  0
  2  6  1  0  0  0  0
  2  4  1  0  0  0  0
  3  2  1  0  0  0  0
  5 15  2  0  0  0  0
  5  6  1  0  0  0  0
  6  7  2  0  0  0  0
  7  9  1  0  0  0  0
  7  8  1  0  0  0  0
  9 10  1  0  0  0  0
 10 16  1  0  0  0  0
 11 10  1  0  0  0  0
 11 12  1  0  0  0  0
 13 11  2  0  0  0  0
 14 13  1  0  0  0  0
 14  9  2  0  0  0  0
 15 14  1  0  0  0  0
 18 19  1  0  0  0  0
 18 17  2  1  0  0  0
 20 19  1  0  0  0  0
 21 18  1  0  0  0  0
 22 28  1  0  0  0  0
 22 27  1  0  0  0  0
 23 22  2  0  0  0  0
 24 23  1  0  0  0  0
 24 25  2  0  0  0  0
 25 26  1  0  0  0  0
 26 27  2  0  0  0  0
 26 21  1  0  0  0  0
 29 23  1  0  0  0  0
 30 24  1  0  0  0  0
M  END
>  <minimizedAffinity>
-5.14049339

>  <minimizedRMSD>
1.7209276

$$$$
