
 OpenBabel03252509293D

 24 26  0  0  0  0  0  0  0  0999 V2000
   47.0260   34.9270   41.9350 C   0  0  0  0  0  0  0  0  0  0  0  0
   47.3390   35.9360   41.6300 H   0  0  0  0  0  0  0  0  0  0  0  0
   47.9680   34.3740   42.1410 H   0  0  0  0  0  0  0  0  0  0  0  0
   44.9950   34.1050   40.8210 C   0  0  0  0  0  3  0  0  0  0  0  0
   46.3690   34.2280   40.7980 C   0  0  0  0  0  0  0  0  0  0  0  0
   47.0970   33.7130   39.7440 C   0  0  0  0  0  0  0  0  0  0  0  0
   48.1870   33.8050   39.7150 H   0  0  0  0  0  0  0  0  0  0  0  0
   46.4660   33.0680   38.6980 C   0  0  0  0  0  0  0  0  0  0  0  0
   46.9080   32.4740   37.5550 N   0  0  0  0  0  0  0  0  0  0  0  0
   45.7920   32.0100   36.9190 C   0  0  0  0  0  0  0  0  0  0  0  0
   45.8230   31.4860   35.9720 H   0  0  0  0  0  0  0  0  0  0  0  0
   44.6880   32.3050   37.6440 N   0  0  0  0  0  0  0  0  0  0  0  0
   45.1060   32.9580   38.7410 C   0  0  0  0  0  0  0  0  0  0  0  0
   44.3330   33.4600   39.7800 C   0  0  0  0  0  3  0  0  0  0  0  0
   47.9030   32.4000   37.2440 H   0  0  0  0  0  0  0  0  0  0  0  0
   44.5980   36.0300   44.5270 C   0  0  0  0  0  0  0  0  0  0  0  0
   45.3710   36.0040   43.3450 C   0  0  0  0  0  0  0  0  0  0  0  0
   46.2350   34.9380   43.1630 C   0  0  0  0  0  0  0  0  0  0  0  0
   46.3030   33.9690   44.1220 N   0  0  0  0  0  0  0  0  0  0  0  0
   45.5460   34.0320   45.2380 C   0  0  0  0  0  0  0  0  0  0  0  0
   44.7040   35.0480   45.4430 N   0  0  0  0  0  0  0  0  0  0  0  0
   43.9080   36.8420   44.7170 H   0  0  0  0  0  0  0  0  0  0  0  0
   45.2410   36.8150   42.6570 H   0  0  0  0  0  0  0  0  0  0  0  0
   45.6430   33.2220   45.9770 H   0  0  0  0  0  0  0  0  0  0  0  0
  1  3  1  0  0  0  0
  1 18  1  0  0  0  0
  2  1  1  0  0  0  0
  5  4  1  0  0  0  0
  5  1  1  0  0  0  0
  6  5  2  0  0  0  0
  7  6  1  0  0  0  0
  8 13  2  0  0  0  0
  8  6  1  0  0  0  0
  9  8  1  0  0  0  0
 10  9  1  0  0  0  0
 10 12  2  0  0  0  0
 11 10  1  0  0  0  0
 12 13  1  0  0  0  0
 13 14  1  0  0  0  0
 14  4  2  0  0  0  0
 15  9  1  0  0  0  0
 16 22  1  0  0  0  0
 16 21  1  0  0  0  0
 17 16  2  0  0  0  0
 18 17  1  0  0  0  0
 18 19  2  0  0  0  0
 19 20  1  0  0  0  0
 20 21  2  0  0  0  0
 20 24  1  0  0  0  0
 23 17  1  0  0  0  0
M  END
>  <minimizedAffinity>
-4.50838327

>  <minimizedRMSD>
0.75799042

$$$$
