
 OpenBabel03252504323D

 43 46  0  0  0  0  0  0  0  0999 V2000
   41.6270   35.6390   41.1760 C   0  0  0  0  0  0  0  0  0  0  0  0
   41.1470   36.4920   40.5700 H   0  0  0  0  0  0  0  0  0  0  0  0
   41.4880   35.8990   42.2160 H   0  0  0  0  0  0  0  0  0  0  0  0
   41.0810   33.2610   41.2910 C   0  0  0  0  0  0  0  0  0  0  0  0
   40.6690   34.5170   40.8670 C   0  0  0  0  0  0  0  0  0  0  0  0
   39.4640   34.6320   40.2420 C   0  0  0  0  0  0  0  0  0  0  0  0
   38.7670   33.5070   40.0860 N   0  0  0  0  0  0  0  0  0  0  0  0
   39.1420   32.3090   40.4820 C   0  0  0  0  0  0  0  0  0  0  0  0
   40.3690   32.1500   41.1250 N   0  0  0  0  0  0  0  0  0  0  0  0
   42.0200   33.0680   41.7950 H   0  0  0  0  0  0  0  0  0  0  0  0
   39.1900   35.6240   39.9330 H   0  0  0  0  0  0  0  0  0  0  0  0
   37.4440   30.6870   41.2480 C   0  0  0  0  0  0  0  0  0  0  0  0
   38.3150   31.1240   40.2710 C   0  0  0  0  0  0  0  0  0  0  0  0
   38.4620   30.4850   39.0570 C   0  0  0  0  0  0  0  0  0  0  0  0
   39.1480   30.8370   38.3000 H   0  0  0  0  0  0  0  0  0  0  0  0
   37.7030   29.3610   38.8090 C   0  0  0  0  0  0  0  0  0  0  0  0
   37.6310   28.5410   37.7330 N   0  0  0  0  0  0  0  0  0  0  0  0
   36.7170   27.5810   38.0150 C   0  0  0  0  0  0  0  0  0  0  0  0
   36.3770   26.7450   37.4150 H   0  0  0  0  0  0  0  0  0  0  0  0
   36.2230   27.7930   39.2480 N   0  0  0  0  0  0  0  0  0  0  0  0
   36.8160   28.9020   39.7800 C   0  0  0  0  0  0  0  0  0  0  0  0
   36.6890   29.5610   40.9910 C   0  0  0  0  0  0  0  0  0  0  0  0
   38.1630   28.6000   36.8310 H   0  0  0  0  0  0  0  0  0  0  0  0
   42.8680   35.4650   40.6570 O   0  0  0  0  0  0  0  0  0  0  0  0
   44.0770   35.2830   41.3080 C   0  0  0  0  0  0  0  0  0  0  0  0
   44.0710   35.6250   42.6090 C   0  0  0  0  0  0  0  0  0  0  0  0
   45.2630   35.5260   43.5300 C   0  0  0  0  0  0  0  0  0  0  0  0
   45.5460   36.5190   43.9190 H   0  0  0  0  0  0  0  0  0  0  0  0
   46.1060   35.1850   42.9050 H   0  0  0  0  0  0  0  0  0  0  0  0
   44.9850   34.5900   44.4950 O   0  0  0  0  0  0  0  0  0  0  0  0
   45.6080   32.4290   43.0700 O   0  0  0  0  0  0  0  0  0  0  0  0
   45.9690   33.2340   44.2970 P   0  0  1  0  0  0  0  0  0  0  0  0
   47.5930   33.7230   44.1150 O   0  0  0  0  0  0  0  0  0  0  0  0
   47.7280   34.5310   44.6790 H   0  0  0  0  0  0  0  0  0  0  0  0
   45.8990   32.2620   45.6710 O   0  0  0  0  0  0  0  0  0  0  0  0
   46.1970   32.9530   46.8260 C   0  0  0  0  0  0  0  0  0  0  0  0
   47.0690   32.3080   47.8590 C   0  0  0  0  0  0  0  0  0  0  0  0
   45.5720   32.4110   48.0870 C   0  0  0  0  0  0  0  0  0  0  0  0
   46.2290   34.0510   46.7220 H   0  0  0  0  0  0  0  0  0  0  0  0
   47.7250   33.0090   48.4120 H   0  0  0  0  0  0  0  0  0  0  0  0
   47.4550   31.3160   47.6280 H   0  0  0  0  0  0  0  0  0  0  0  0
   45.0090   31.4630   48.0510 H   0  0  0  0  0  0  0  0  0  0  0  0
   45.2580   33.1050   48.8890 H   0  0  0  0  0  0  0  0  0  0  0  0
  1  3  1  0  0  0  0
  2  1  1  0  0  0  0
  4 10  1  0  0  0  0
  5  1  1  0  0  0  0
  5  4  2  0  0  0  0
  6  5  1  0  0  0  0
  7  6  2  0  0  0  0
  7  8  1  0  0  0  0
  8  9  2  0  0  0  0
  9  4  1  0  0  0  0
 11  6  1  0  0  0  0
 13  8  1  0  0  0  0
 13 12  2  0  0  0  0
 14 13  1  0  0  0  0
 15 14  1  0  0  0  0
 16 14  2  0  0  0  0
 16 21  1  0  0  0  0
 17 18  1  0  0  0  0
 17 16  1  0  0  0  0
 18 20  2  0  0  0  0
 19 18  1  0  0  0  0
 20 21  1  0  0  0  0
 21 22  2  0  0  0  0
 22 12  1  0  0  0  0
 23 17  1  0  0  0  0
 24  1  1  0  0  0  0
 24 25  1  0  0  0  0
 25 26  1  0  0  0  0
 26 27  1  0  0  0  0
 27 28  1  0  0  0  0
 27 30  1  0  0  0  0
 29 27  1  0  0  0  0
 32 31  2  6  0  0  0
 32 30  1  0  0  0  0
 32 35  1  0  0  0  0
 33 32  1  0  0  0  0
 33 34  1  0  0  0  0
 35 36  1  0  0  0  0
 36 37  1  0  0  0  0
 36 38  1  0  0  0  0
 37 38  1  0  0  0  0
 37 40  1  0  0  0  0
 38 43  1  0  0  0  0
 39 36  1  0  0  0  0
 41 37  1  0  0  0  0
 42 38  1  0  0  0  0
M  END
>  <minimizedAffinity>
-5.4331975

>  <minimizedRMSD>
1.03687871

$$$$
