
 OpenBabel03252506483D

 45 49  0  0  1  0  0  0  0  0999 V2000
   37.3030   27.0180   41.4300 N   0  0  1  0  0  0  0  0  0  0  0  0
   37.0210   27.1850   42.8330 C   0  0  0  0  0  0  0  0  0  0  0  0
   37.3330   28.5730   43.3360 C   0  0  0  0  0  0  0  0  0  0  0  0
   38.8250   28.7960   43.2660 C   0  0  0  0  0  0  0  0  0  0  0  0
   39.4130   28.1400   42.0280 C   0  0  0  0  0  0  0  0  0  0  0  0
   38.3150   27.9390   41.0050 C   0  0  2  0  0  0  0  0  0  0  0  0
   37.5840   26.4760   43.4750 H   0  0  0  0  0  0  0  0  0  0  0  0
   35.9100   27.0520   42.9740 H   0  0  0  0  0  0  0  0  0  0  0  0
   36.7950   29.3750   42.8370 H   0  0  0  0  0  0  0  0  0  0  0  0
   36.9750   28.5800   44.4020 H   0  0  0  0  0  0  0  0  0  0  0  0
   39.2570   28.3150   44.1800 H   0  0  0  0  0  0  0  0  0  0  0  0
   39.0910   29.8780   43.2040 H   0  0  0  0  0  0  0  0  0  0  0  0
   39.7630   27.1360   42.3150 H   0  0  0  0  0  0  0  0  0  0  0  0
   40.1870   28.7580   41.5430 H   0  0  0  0  0  0  0  0  0  0  0  0
   38.8140   27.4850   40.1210 H   0  0  0  0  0  0  0  0  0  0  0  0
   36.6870   24.6420   40.6150 C   0  0  1  0  0  0  0  0  0  0  0  0
   36.9750   24.6460   42.0680 C   0  0  0  0  0  0  0  0  0  0  0  0
   37.6100   25.6540   41.1960 C   0  0  2  0  0  0  0  0  0  0  0  0
   35.6810   24.9710   40.2750 H   0  0  0  0  0  0  0  0  0  0  0  0
   37.5650   23.8110   42.4830 H   0  0  0  0  0  0  0  0  0  0  0  0
   36.1490   24.9520   42.7450 H   0  0  0  0  0  0  0  0  0  0  0  0
   38.6940   25.4490   40.9880 H   0  0  0  0  0  0  0  0  0  0  0  0
   37.8340   22.4270   40.3380 C   0  0  0  0  0  0  0  0  0  0  0  0
   37.2210   23.5570   39.7680 C   0  0  0  0  0  0  0  0  0  0  0  0
   37.1190   23.6170   38.3790 C   0  0  0  0  0  0  0  0  0  0  0  0
   37.6190   22.5800   37.6570 N   0  0  0  0  0  0  0  0  0  0  0  0
   38.2000   21.5090   38.2170 C   0  0  0  0  0  0  0  0  0  0  0  0
   38.3130   21.4250   39.5820 N   0  0  0  0  0  0  0  0  0  0  0  0
   37.9050   22.3950   41.4210 H   0  0  0  0  0  0  0  0  0  0  0  0
   36.6570   24.4640   37.8930 H   0  0  0  0  0  0  0  0  0  0  0  0
   38.5610   20.7420   37.5370 H   0  0  0  0  0  0  0  0  0  0  0  0
   37.8270   29.2150   40.5840 N   0  0  0  0  0  0  0  0  0  0  0  0
   36.7730   29.3690   40.5320 H   0  0  0  0  0  0  0  0  0  0  0  0
   39.3980   30.5610   39.1420 C   0  0  0  0  0  3  0  0  0  0  0  0
   38.4850   30.4150   40.1940 C   0  0  0  0  0  0  0  0  0  0  0  0
   38.2140   31.5580   40.9150 C   0  0  0  0  0  0  0  0  0  0  0  0
   37.5260   31.5460   41.7470 H   0  0  0  0  0  0  0  0  0  0  0  0
   38.7660   32.8010   40.6770 C   0  0  0  0  0  0  0  0  0  0  0  0
   38.6440   34.0160   41.2420 N   0  0  0  0  0  0  0  0  0  0  0  0
   39.4320   34.8930   40.5940 C   0  0  0  0  0  0  0  0  0  0  0  0
   39.5520   35.9470   40.8110 H   0  0  0  0  0  0  0  0  0  0  0  0
   40.0640   34.2090   39.5950 N   0  0  0  0  0  0  0  0  0  0  0  0
   39.6600   32.9260   39.6400 C   0  0  0  0  0  0  0  0  0  0  0  0
   39.9490   31.7980   38.9030 C   0  0  0  0  0  3  0  0  0  0  0  0
   38.0410   34.2640   42.0550 H   0  0  0  0  0  0  0  0  0  0  0  0
  1  2  1  1  0  0  0
  2  8  1  0  0  0  0
  2  3  1  0  0  0  0
  2  7  1  0  0  0  0
  3 10  1  0  0  0  0
  4  3  1  0  0  0  0
  4 11  1  0  0  0  0
  5 13  1  0  0  0  0
  5  4  1  0  0  0  0
  6 15  1  6  0  0  0
  6  1  1  0  0  0  0
  6  5  1  0  0  0  0
  9  3  1  0  0  0  0
 12  4  1  0  0  0  0
 14  5  1  0  0  0  0
 16 19  1  6  0  0  0
 16 18  1  0  0  0  0
 16 17  1  0  0  0  0
 17 20  1  0  0  0  0
 17 21  1  0  0  0  0
 18 22  1  6  0  0  0
 18  1  1  0  0  0  0
 18 17  1  0  0  0  0
 23 29  1  0  0  0  0
 24 23  1  0  0  0  0
 24 16  1  0  0  0  0
 25 24  2  0  0  0  0
 26 27  2  0  0  0  0
 26 25  1  0  0  0  0
 27 28  1  0  0  0  0
 28 23  2  0  0  0  0
 30 25  1  0  0  0  0
 31 27  1  0  0  0  0
 32  6  1  0  0  0  0
 33 32  1  0  0  0  0
 34 35  1  0  0  0  0
 35 32  1  0  0  0  0
 35 36  2  0  0  0  0
 36 37  1  0  0  0  0
 38 36  1  0  0  0  0
 38 39  1  0  0  0  0
 39 45  1  0  0  0  0
 40 41  1  0  0  0  0
 40 39  1  0  0  0  0
 42 43  1  0  0  0  0
 42 40  2  0  0  0  0
 43 38  2  0  0  0  0
 44 34  2  0  0  0  0
 44 43  1  0  0  0  0
M  END
>  <minimizedAffinity>
-5.91018629

$$$$

 OpenBabel03252506483D

 45 49  0  0  1  0  0  0  0  0999 V2000
   39.3720   32.8660   40.5790 N   0  0  1  0  0  0  0  0  0  0  0  0
   38.1700   33.3550   39.9530 C   0  0  0  0  0  0  0  0  0  0  0  0
   37.0170   32.3870   40.0550 C   0  0  0  0  0  0  0  0  0  0  0  0
   37.3380   31.1550   39.2430 C   0  0  0  0  0  0  0  0  0  0  0  0
   38.8130   30.8040   39.3510 C   0  0  0  0  0  0  0  0  0  0  0  0
   39.3800   31.4340   40.6070 C   0  0  2  0  0  0  0  0  0  0  0  0
   38.3050   33.5840   38.8770 H   0  0  0  0  0  0  0  0  0  0  0  0
   37.8450   34.2760   40.5180 H   0  0  0  0  0  0  0  0  0  0  0  0
   36.7270   32.1210   41.0690 H   0  0  0  0  0  0  0  0  0  0  0  0
   36.1390   32.9380   39.6180 H   0  0  0  0  0  0  0  0  0  0  0  0
   37.0960   31.4090   38.1800 H   0  0  0  0  0  0  0  0  0  0  0  0
   36.7760   30.2570   39.5920 H   0  0  0  0  0  0  0  0  0  0  0  0
   39.3320   31.2750   38.5020 H   0  0  0  0  0  0  0  0  0  0  0  0
   38.9890   29.7190   39.4340 H   0  0  0  0  0  0  0  0  0  0  0  0
   40.4460   31.1160   40.6410 H   0  0  0  0  0  0  0  0  0  0  0  0
   41.5210   34.3040   40.5640 C   0  0  1  0  0  0  0  0  0  0  0  0
   40.4710   34.9110   39.7140 C   0  0  0  0  0  0  0  0  0  0  0  0
   40.4850   33.4500   39.9240 C   0  0  2  0  0  0  0  0  0  0  0  0
   41.4720   34.4710   41.6630 H   0  0  0  0  0  0  0  0  0  0  0  0
   40.7730   35.3420   38.7430 H   0  0  0  0  0  0  0  0  0  0  0  0
   39.7030   35.5290   40.2240 H   0  0  0  0  0  0  0  0  0  0  0  0
   40.8600   32.8720   39.0380 H   0  0  0  0  0  0  0  0  0  0  0  0
   43.9960   34.2970   40.9830 C   0  0  0  0  0  0  0  0  0  0  0  0
   42.9150   34.2600   40.0820 C   0  0  0  0  0  0  0  0  0  0  0  0
   43.2010   34.1660   38.7220 C   0  0  0  0  0  0  0  0  0  0  0  0
   44.5050   34.1160   38.3440 N   0  0  0  0  0  0  0  0  0  0  0  0
   45.5230   34.1520   39.2160 C   0  0  0  0  0  0  0  0  0  0  0  0
   45.2710   34.2450   40.5620 N   0  0  0  0  0  0  0  0  0  0  0  0
   43.7570   34.3710   42.0400 H   0  0  0  0  0  0  0  0  0  0  0  0
   42.4070   34.1340   37.9900 H   0  0  0  0  0  0  0  0  0  0  0  0
   46.5240   34.1050   38.7960 H   0  0  0  0  0  0  0  0  0  0  0  0
   38.7490   30.8510   41.7500 N   0  0  0  0  0  0  0  0  0  0  0  0
   38.0220   31.4230   42.2810 H   0  0  0  0  0  0  0  0  0  0  0  0
   37.8700   28.8630   43.0280 C   0  0  0  0  0  3  0  0  0  0  0  0
   38.8820   29.5820   42.3800 C   0  0  0  0  0  0  0  0  0  0  0  0
   40.1260   28.9870   42.3660 C   0  0  0  0  0  0  0  0  0  0  0  0
   40.9710   29.4650   41.8940 H   0  0  0  0  0  0  0  0  0  0  0  0
   40.4310   27.7640   42.9310 C   0  0  0  0  0  0  0  0  0  0  0  0
   41.5470   27.0190   43.0300 N   0  0  0  0  0  0  0  0  0  0  0  0
   41.2710   25.8860   43.7020 C   0  0  0  0  0  0  0  0  0  0  0  0
   41.9600   25.0860   43.9420 H   0  0  0  0  0  0  0  0  0  0  0  0
   39.9470   25.9240   44.0320 N   0  0  0  0  0  0  0  0  0  0  0  0
   39.4260   27.0720   43.5630 C   0  0  0  0  0  0  0  0  0  0  0  0
   38.1720   27.6450   43.5910 C   0  0  0  0  0  3  0  0  0  0  0  0
   42.4880   27.2590   42.6530 H   0  0  0  0  0  0  0  0  0  0  0  0
  1  2  1  6  0  0  0
  1  6  1  0  0  0  0
  2  3  1  0  0  0  0
  2  8  1  0  0  0  0
  3  9  1  0  0  0  0
  4  5  1  0  0  0  0
  4 12  1  0  0  0  0
  4  3  1  0  0  0  0
  5 14  1  0  0  0  0
  5  6  1  0  0  0  0
  6 15  1  1  0  0  0
  6 32  1  0  0  0  0
  7  2  1  0  0  0  0
 10  3  1  0  0  0  0
 11  4  1  0  0  0  0
 13  5  1  0  0  0  0
 16 19  1  1  0  0  0
 17 18  1  0  0  0  0
 17 21  1  0  0  0  0
 17 16  1  0  0  0  0
 18 22  1  6  0  0  0
 18 16  1  0  0  0  0
 18  1  1  0  0  0  0
 20 17  1  0  0  0  0
 23 29  1  0  0  0  0
 24 16  1  0  0  0  0
 24 23  2  0  0  0  0
 25 24  1  0  0  0  0
 26 25  2  0  0  0  0
 26 27  1  0  0  0  0
 27 28  2  0  0  0  0
 28 23  1  0  0  0  0
 30 25  1  0  0  0  0
 31 27  1  0  0  0  0
 32 33  1  0  0  0  0
 32 35  1  0  0  0  0
 34 44  1  0  0  0  0
 35 34  2  0  0  0  0
 36 35  1  0  0  0  0
 36 38  2  0  0  0  0
 37 36  1  0  0  0  0
 38 39  1  0  0  0  0
 38 43  1  0  0  0  0
 39 40  1  0  0  0  0
 40 41  1  0  0  0  0
 40 42  2  0  0  0  0
 43 44  2  0  0  0  0
 43 42  1  0  0  0  0
 45 39  1  0  0  0  0
M  END
>  <minimizedAffinity>
-5.86460829

$$$$

 OpenBabel03252506483D

 45 49  0  0  1  0  0  0  0  0999 V2000
   37.9230   31.6410   39.6330 N   0  0  1  0  0  0  0  0  0  0  0  0
   36.9590   32.7030   39.7720 C   0  0  0  0  0  0  0  0  0  0  0  0
   37.5230   34.0600   39.4240 C   0  0  0  0  0  0  0  0  0  0  0  0
   38.5750   34.4290   40.4420 C   0  0  0  0  0  0  0  0  0  0  0  0
   39.3770   33.2090   40.8590 C   0  0  0  0  0  0  0  0  0  0  0  0
   39.2560   32.1460   39.7870 C   0  0  2  0  0  0  0  0  0  0  0  0
   36.5450   32.7810   40.7980 H   0  0  0  0  0  0  0  0  0  0  0  0
   36.1370   32.5140   39.0240 H   0  0  0  0  0  0  0  0  0  0  0  0
   37.9100   34.1520   38.4120 H   0  0  0  0  0  0  0  0  0  0  0  0
   36.6440   34.7590   39.4810 H   0  0  0  0  0  0  0  0  0  0  0  0
   38.0240   34.8320   41.3290 H   0  0  0  0  0  0  0  0  0  0  0  0
   39.3110   35.1670   40.0430 H   0  0  0  0  0  0  0  0  0  0  0  0
   38.9090   32.7950   41.7660 H   0  0  0  0  0  0  0  0  0  0  0  0
   40.4530   33.4220   40.9730 H   0  0  0  0  0  0  0  0  0  0  0  0
   39.8840   31.2980   40.1390 H   0  0  0  0  0  0  0  0  0  0  0  0
   36.5920   29.5200   40.2780 C   0  0  1  0  0  0  0  0  0  0  0  0
   36.2410   30.6550   41.1620 C   0  0  0  0  0  0  0  0  0  0  0  0
   37.5770   30.6050   40.5360 C   0  0  2  0  0  0  0  0  0  0  0  0
   36.1120   29.4630   39.2760 H   0  0  0  0  0  0  0  0  0  0  0  0
   36.1190   30.4550   42.2410 H   0  0  0  0  0  0  0  0  0  0  0  0
   35.4870   31.3760   40.7830 H   0  0  0  0  0  0  0  0  0  0  0  0
   38.3960   30.3120   41.2460 H   0  0  0  0  0  0  0  0  0  0  0  0
   37.1610   27.0860   40.0480 C   0  0  0  0  0  0  0  0  0  0  0  0
   36.8010   28.1800   40.8580 C   0  0  0  0  0  0  0  0  0  0  0  0
   36.6610   27.9620   42.2270 C   0  0  0  0  0  0  0  0  0  0  0  0
   36.8800   26.7070   42.7010 N   0  0  0  0  0  0  0  0  0  0  0  0
   37.2230   25.6760   41.9150 C   0  0  0  0  0  0  0  0  0  0  0  0
   37.3670   25.8620   40.5620 N   0  0  0  0  0  0  0  0  0  0  0  0
   37.2660   27.2720   38.9840 H   0  0  0  0  0  0  0  0  0  0  0  0
   36.3860   28.7680   42.8920 H   0  0  0  0  0  0  0  0  0  0  0  0
   37.3720   24.7190   42.4080 H   0  0  0  0  0  0  0  0  0  0  0  0
   39.8600   32.6240   38.5830 N   0  0  0  0  0  0  0  0  0  0  0  0
   39.2410   32.7920   37.7310 H   0  0  0  0  0  0  0  0  0  0  0  0
   41.8010   34.2160   38.3460 C   0  0  0  0  0  3  0  0  0  0  0  0
   41.2020   32.9540   38.2450 C   0  0  0  0  0  0  0  0  0  0  0  0
   42.0090   31.9440   37.7640 C   0  0  0  0  0  0  0  0  0  0  0  0
   41.6370   30.9370   37.6470 H   0  0  0  0  0  0  0  0  0  0  0  0
   43.3290   32.0900   37.3870 C   0  0  0  0  0  0  0  0  0  0  0  0
   44.2740   31.2620   36.9050 N   0  0  0  0  0  0  0  0  0  0  0  0
   45.4140   31.9490   36.7060 C   0  0  0  0  0  0  0  0  0  0  0  0
   46.3510   31.5610   36.3270 H   0  0  0  0  0  0  0  0  0  0  0  0
   45.1760   33.2420   37.0740 N   0  0  0  0  0  0  0  0  0  0  0  0
   43.9010   33.3360   37.4920 C   0  0  0  0  0  0  0  0  0  0  0  0
   43.1160   34.3630   37.9700 C   0  0  0  0  0  3  0  0  0  0  0  0
   44.1640   30.2440   36.7080 H   0  0  0  0  0  0  0  0  0  0  0  0
  1  2  1  1  0  0  0
  1  6  1  0  0  0  0
  1 18  1  0  0  0  0
  2  7  1  0  0  0  0
  3 10  1  0  0  0  0
  3  2  1  0  0  0  0
  3  4  1  0  0  0  0
  4  5  1  0  0  0  0
  4 11  1  0  0  0  0
  5 14  1  0  0  0  0
  5 13  1  0  0  0  0
  6 15  1  1  0  0  0
  6  5  1  0  0  0  0
  8  2  1  0  0  0  0
  9  3  1  0  0  0  0
 12  4  1  0  0  0  0
 16 19  1  6  0  0  0
 16 18  1  0  0  0  0
 16 24  1  0  0  0  0
 16 17  1  0  0  0  0
 17 20  1  0  0  0  0
 18 17  1  0  0  0  0
 18 22  1  1  0  0  0
 21 17  1  0  0  0  0
 23 28  2  0  0  0  0
 23 24  1  0  0  0  0
 24 25  2  0  0  0  0
 25 26  1  0  0  0  0
 25 30  1  0  0  0  0
 27 31  1  0  0  0  0
 27 26  2  0  0  0  0
 28 27  1  0  0  0  0
 29 23  1  0  0  0  0
 32  6  1  0  0  0  0
 33 32  1  0  0  0  0
 35 34  1  0  0  0  0
 35 32  1  0  0  0  0
 36 35  2  0  0  0  0
 37 36  1  0  0  0  0
 38 43  2  0  0  0  0
 38 36  1  0  0  0  0
 39 38  1  0  0  0  0
 40 39  1  0  0  0  0
 40 42  2  0  0  0  0
 41 40  1  0  0  0  0
 42 43  1  0  0  0  0
 43 44  1  0  0  0  0
 44 34  2  0  0  0  0
 45 39  1  0  0  0  0
M  END
>  <minimizedAffinity>
-5.68041325

$$$$

 OpenBabel03252506483D

 45 49  0  0  1  0  0  0  0  0999 V2000
   40.1110   32.5190   40.0010 N   0  0  1  0  0  0  0  0  0  0  0  0
   39.6420   33.8810   40.0050 C   0  0  0  0  0  0  0  0  0  0  0  0
   38.2050   34.0090   40.4490 C   0  0  0  0  0  0  0  0  0  0  0  0
   37.3150   33.3530   39.4210 C   0  0  0  0  0  0  0  0  0  0  0  0
   37.9680   32.1030   38.8560 C   0  0  0  0  0  0  0  0  0  0  0  0
   39.0170   31.6090   39.8310 C   0  0  2  0  0  0  0  0  0  0  0  0
   39.7160   34.3680   39.0110 H   0  0  0  0  0  0  0  0  0  0  0  0
   40.2490   34.4450   40.7700 H   0  0  0  0  0  0  0  0  0  0  0  0
   37.9960   33.6290   41.4460 H   0  0  0  0  0  0  0  0  0  0  0  0
   38.0160   35.1170   40.4970 H   0  0  0  0  0  0  0  0  0  0  0  0
   37.1790   34.1030   38.6010 H   0  0  0  0  0  0  0  0  0  0  0  0
   36.3370   33.0290   39.8500 H   0  0  0  0  0  0  0  0  0  0  0  0
   38.5040   32.3910   37.9380 H   0  0  0  0  0  0  0  0  0  0  0  0
   37.2550   31.2750   38.7130 H   0  0  0  0  0  0  0  0  0  0  0  0
   39.4320   30.6840   39.3750 H   0  0  0  0  0  0  0  0  0  0  0  0
   42.1910   31.3580   38.9950 C   0  0  1  0  0  0  0  0  0  0  0  0
   42.5110   32.7370   39.4280 C   0  0  0  0  0  0  0  0  0  0  0  0
   41.1320   32.4020   39.0250 C   0  0  2  0  0  0  0  0  0  0  0  0
   42.1700   30.5550   39.7640 H   0  0  0  0  0  0  0  0  0  0  0  0
   43.1540   33.3510   38.7740 H   0  0  0  0  0  0  0  0  0  0  0  0
   42.7450   32.8880   40.5030 H   0  0  0  0  0  0  0  0  0  0  0  0
   40.8530   32.7920   38.0090 H   0  0  0  0  0  0  0  0  0  0  0  0
   43.8470   31.4250   37.1090 C   0  0  0  0  0  0  0  0  0  0  0  0
   42.7020   30.8610   37.7020 C   0  0  0  0  0  0  0  0  0  0  0  0
   42.0720   29.8100   37.0390 C   0  0  0  0  0  0  0  0  0  0  0  0
   42.5990   29.3910   35.8590 N   0  0  0  0  0  0  0  0  0  0  0  0
   43.6920   29.9400   35.3080 C   0  0  0  0  0  0  0  0  0  0  0  0
   44.3320   30.9770   35.9390 N   0  0  0  0  0  0  0  0  0  0  0  0
   44.3260   32.2430   37.6380 H   0  0  0  0  0  0  0  0  0  0  0  0
   41.1890   29.3430   37.4520 H   0  0  0  0  0  0  0  0  0  0  0  0
   44.0200   29.5190   34.3610 H   0  0  0  0  0  0  0  0  0  0  0  0
   38.3760   31.2080   41.0450 N   0  0  0  0  0  0  0  0  0  0  0  0
   37.6630   31.8640   41.4890 H   0  0  0  0  0  0  0  0  0  0  0  0
   37.4280   29.3390   42.4480 C   0  0  0  0  0  3  0  0  0  0  0  0
   38.4840   30.0370   41.8480 C   0  0  0  0  0  0  0  0  0  0  0  0
   39.7450   29.5280   42.0720 C   0  0  0  0  0  0  0  0  0  0  0  0
   40.6220   29.9980   41.6550 H   0  0  0  0  0  0  0  0  0  0  0  0
   40.0290   28.4070   42.8280 C   0  0  0  0  0  0  0  0  0  0  0  0
   41.1560   27.7540   43.1670 N   0  0  0  0  0  0  0  0  0  0  0  0
   40.8460   26.6970   43.9400 C   0  0  0  0  0  0  0  0  0  0  0  0
   41.5340   25.9800   44.3700 H   0  0  0  0  0  0  0  0  0  0  0  0
   39.4890   26.6890   44.0880 N   0  0  0  0  0  0  0  0  0  0  0  0
   38.9820   27.7340   43.4100 C   0  0  0  0  0  0  0  0  0  0  0  0
   37.7100   28.2230   43.2010 C   0  0  0  0  0  3  0  0  0  0  0  0
   42.1270   28.0070   42.8860 H   0  0  0  0  0  0  0  0  0  0  0  0
  1  2  1  6  0  0  0
  2  3  1  0  0  0  0
  2  8  1  0  0  0  0
  3 10  1  0  0  0  0
  3  9  1  0  0  0  0
  4 12  1  0  0  0  0
  4  3  1  0  0  0  0
  5  4  1  0  0  0  0
  5  6  1  0  0  0  0
  6 15  1  6  0  0  0
  6  1  1  0  0  0  0
  6 32  1  0  0  0  0
  7  2  1  0  0  0  0
 11  4  1  0  0  0  0
 13  5  1  0  0  0  0
 14  5  1  0  0  0  0
 16 18  1  0  0  0  0
 16 17  1  0  0  0  0
 16 19  1  1  0  0  0
 17 21  1  0  0  0  0
 18 22  1  6  0  0  0
 18 17  1  0  0  0  0
 18  1  1  0  0  0  0
 20 17  1  0  0  0  0
 23 29  1  0  0  0  0
 23 24  1  0  0  0  0
 24 16  1  0  0  0  0
 25 30  1  0  0  0  0
 25 24  2  0  0  0  0
 26 25  1  0  0  0  0
 27 26  2  0  0  0  0
 27 28  1  0  0  0  0
 28 23  2  0  0  0  0
 31 27  1  0  0  0  0
 32 33  1  0  0  0  0
 32 35  1  0  0  0  0
 34 44  1  0  0  0  0
 35 36  1  0  0  0  0
 35 34  2  0  0  0  0
 36 38  2  0  0  0  0
 37 36  1  0  0  0  0
 38 39  1  0  0  0  0
 38 43  1  0  0  0  0
 39 40  1  0  0  0  0
 40 42  2  0  0  0  0
 40 41  1  0  0  0  0
 43 42  1  0  0  0  0
 44 43  2  0  0  0  0
 45 39  1  0  0  0  0
M  END
>  <minimizedAffinity>
-5.64586449

$$$$

 OpenBabel03252506483D

 45 49  0  0  1  0  0  0  0  0999 V2000
   37.4040   30.1880   39.1710 N   0  0  1  0  0  0  0  0  0  0  0  0
   38.6740   30.7430   38.7760 C   0  0  0  0  0  0  0  0  0  0  0  0
   39.3730   31.4730   39.8970 C   0  0  0  0  0  0  0  0  0  0  0  0
   38.5700   32.7010   40.2570 C   0  0  0  0  0  0  0  0  0  0  0  0
   37.0800   32.4200   40.1650 C   0  0  0  0  0  0  0  0  0  0  0  0
   36.8500   30.9260   40.2670 C   0  0  2  0  0  0  0  0  0  0  0  0
   38.5910   31.4560   37.9300 H   0  0  0  0  0  0  0  0  0  0  0  0
   39.3500   29.8820   38.5060 H   0  0  0  0  0  0  0  0  0  0  0  0
   39.5820   30.8720   40.7780 H   0  0  0  0  0  0  0  0  0  0  0  0
   40.3750   31.7580   39.4740 H   0  0  0  0  0  0  0  0  0  0  0  0
   38.8460   33.4860   39.5080 H   0  0  0  0  0  0  0  0  0  0  0  0
   38.7610   33.0420   41.3020 H   0  0  0  0  0  0  0  0  0  0  0  0
   36.7440   32.7210   39.1610 H   0  0  0  0  0  0  0  0  0  0  0  0
   36.5050   32.8850   40.9830 H   0  0  0  0  0  0  0  0  0  0  0  0
   35.7470   30.7930   40.2220 H   0  0  0  0  0  0  0  0  0  0  0  0
   35.9180   28.8920   37.4990 C   0  0  1  0  0  0  0  0  0  0  0  0
   37.1100   29.4540   36.8230 C   0  0  0  0  0  0  0  0  0  0  0  0
   36.5720   30.1200   38.0260 C   0  0  2  0  0  0  0  0  0  0  0  0
   36.0310   27.9420   38.0650 H   0  0  0  0  0  0  0  0  0  0  0  0
   36.9780   29.9050   35.8240 H   0  0  0  0  0  0  0  0  0  0  0  0
   38.0530   28.8720   36.8960 H   0  0  0  0  0  0  0  0  0  0  0  0
   36.0080   31.0650   37.8020 H   0  0  0  0  0  0  0  0  0  0  0  0
   33.4110   28.9760   37.6010 C   0  0  0  0  0  0  0  0  0  0  0  0
   34.5980   28.9820   36.8440 C   0  0  0  0  0  0  0  0  0  0  0  0
   34.4900   29.0900   35.4590 C   0  0  0  0  0  0  0  0  0  0  0  0
   33.2460   29.1820   34.9190 N   0  0  0  0  0  0  0  0  0  0  0  0
   32.1260   29.1740   35.6560 C   0  0  0  0  0  0  0  0  0  0  0  0
   32.2020   29.0690   37.0220 N   0  0  0  0  0  0  0  0  0  0  0  0
   33.5120   28.8910   38.6780 H   0  0  0  0  0  0  0  0  0  0  0  0
   35.3720   29.0990   34.8340 H   0  0  0  0  0  0  0  0  0  0  0  0
   31.1880   29.2540   35.1120 H   0  0  0  0  0  0  0  0  0  0  0  0
   37.2590   30.4770   41.5610 N   0  0  0  0  0  0  0  0  0  0  0  0
   37.2890   31.1800   42.3620 H   0  0  0  0  0  0  0  0  0  0  0  0
   36.8710   28.0470   42.1160 C   0  0  0  0  0  3  0  0  0  0  0  0
   37.6600   29.2030   42.0550 C   0  0  0  0  0  0  0  0  0  0  0  0
   38.9480   29.0760   42.5290 C   0  0  0  0  0  0  0  0  0  0  0  0
   39.6310   29.9120   42.5270 H   0  0  0  0  0  0  0  0  0  0  0  0
   39.4970   27.9190   43.0460 C   0  0  0  0  0  0  0  0  0  0  0  0
   40.6990   27.5830   43.5500 N   0  0  0  0  0  0  0  0  0  0  0  0
   40.6860   26.2880   43.9150 C   0  0  0  0  0  0  0  0  0  0  0  0
   41.5020   25.7260   44.3510 H   0  0  0  0  0  0  0  0  0  0  0  0
   39.4430   25.8000   43.6310 N   0  0  0  0  0  0  0  0  0  0  0  0
   38.7090   26.7940   43.0980 C   0  0  0  0  0  0  0  0  0  0  0  0
   37.4160   26.8940   42.6300 C   0  0  0  0  0  3  0  0  0  0  0  0
   41.5250   28.2100   43.6520 H   0  0  0  0  0  0  0  0  0  0  0  0
  1  2  1  6  0  0  0
  1  6  1  0  0  0  0
  2  3  1  0  0  0  0
  3  4  1  0  0  0  0
  3  9  1  0  0  0  0
  4 12  1  0  0  0  0
  5  4  1  0  0  0  0
  5  6  1  0  0  0  0
  5 14  1  0  0  0  0
  6 15  1  6  0  0  0
  6 32  1  0  0  0  0
  7  2  1  0  0  0  0
  8  2  1  0  0  0  0
 10  3  1  0  0  0  0
 11  4  1  0  0  0  0
 13  5  1  0  0  0  0
 16 18  1  0  0  0  0
 16 19  1  1  0  0  0
 17 21  1  0  0  0  0
 17 16  1  0  0  0  0
 17 18  1  0  0  0  0
 18 22  1  6  0  0  0
 18  1  1  0  0  0  0
 20 17  1  0  0  0  0
 23 29  1  0  0  0  0
 24 16  1  0  0  0  0
 24 23  2  0  0  0  0
 25 24  1  0  0  0  0
 26 25  2  0  0  0  0
 26 27  1  0  0  0  0
 27 28  2  0  0  0  0
 28 23  1  0  0  0  0
 30 25  1  0  0  0  0
 31 27  1  0  0  0  0
 32 35  1  0  0  0  0
 32 33  1  0  0  0  0
 34 44  1  0  0  0  0
 35 34  2  0  0  0  0
 35 36  1  0  0  0  0
 36 38  2  0  0  0  0
 37 36  1  0  0  0  0
 38 43  1  0  0  0  0
 38 39  1  0  0  0  0
 39 45  1  0  0  0  0
 39 40  1  0  0  0  0
 40 41  1  0  0  0  0
 42 40  2  0  0  0  0
 43 42  1  0  0  0  0
 44 43  2  0  0  0  0
M  END
>  <minimizedAffinity>
-5.60608435

$$$$

 OpenBabel03252506483D

 45 49  0  0  1  0  0  0  0  0999 V2000
   39.0390   28.0350   41.4470 N   0  0  1  0  0  0  0  0  0  0  0  0
   39.7230   27.7430   42.6810 C   0  0  0  0  0  0  0  0  0  0  0  0
   38.8580   27.0090   43.6760 C   0  0  0  0  0  0  0  0  0  0  0  0
   37.7410   27.9220   44.1220 C   0  0  0  0  0  0  0  0  0  0  0  0
   37.2480   28.7780   42.9670 C   0  0  0  0  0  0  0  0  0  0  0  0
   37.6240   28.1110   41.6600 C   0  0  2  0  0  0  0  0  0  0  0  0
   40.1010   28.6520   43.1920 H   0  0  0  0  0  0  0  0  0  0  0  0
   40.5720   27.0410   42.4390 H   0  0  0  0  0  0  0  0  0  0  0  0
   38.4670   26.0550   43.3310 H   0  0  0  0  0  0  0  0  0  0  0  0
   39.5460   26.7670   44.5330 H   0  0  0  0  0  0  0  0  0  0  0  0
   38.1760   28.5840   44.9130 H   0  0  0  0  0  0  0  0  0  0  0  0
   36.8540   27.3580   44.4960 H   0  0  0  0  0  0  0  0  0  0  0  0
   37.7940   29.7330   43.0010 H   0  0  0  0  0  0  0  0  0  0  0  0
   36.1510   28.8930   42.9590 H   0  0  0  0  0  0  0  0  0  0  0  0
   37.2110   28.7680   40.8640 H   0  0  0  0  0  0  0  0  0  0  0  0
   38.9540   30.1130   39.9110 C   0  0  1  0  0  0  0  0  0  0  0  0
   39.9930   29.1600   39.4570 C   0  0  0  0  0  0  0  0  0  0  0  0
   39.6140   29.2000   40.8830 C   0  0  2  0  0  0  0  0  0  0  0  0
   37.8970   29.9160   39.6280 H   0  0  0  0  0  0  0  0  0  0  0  0
   40.9620   29.5680   39.1210 H   0  0  0  0  0  0  0  0  0  0  0  0
   39.6570   28.3100   38.8260 H   0  0  0  0  0  0  0  0  0  0  0  0
   40.3740   29.7080   41.5350 H   0  0  0  0  0  0  0  0  0  0  0  0
   40.2570   32.1080   39.1210 C   0  0  0  0  0  0  0  0  0  0  0  0
   39.2510   31.5590   39.9370 C   0  0  0  0  0  0  0  0  0  0  0  0
   38.5330   32.4220   40.7630 C   0  0  0  0  0  0  0  0  0  0  0  0
   38.8460   33.7440   40.7310 N   0  0  0  0  0  0  0  0  0  0  0  0
   39.8080   34.2510   39.9460 C   0  0  0  0  0  0  0  0  0  0  0  0
   40.5310   33.4230   39.1240 N   0  0  0  0  0  0  0  0  0  0  0  0
   40.8070   31.4220   38.4840 H   0  0  0  0  0  0  0  0  0  0  0  0
   37.7510   32.0500   41.4090 H   0  0  0  0  0  0  0  0  0  0  0  0
   39.9680   35.3250   40.0060 H   0  0  0  0  0  0  0  0  0  0  0  0
   36.9320   26.8640   41.5540 N   0  0  0  0  0  0  0  0  0  0  0  0
   36.1260   26.6670   42.2230 H   0  0  0  0  0  0  0  0  0  0  0  0
   36.8430   25.7230   39.3070 C   0  0  0  0  0  3  0  0  0  0  0  0
   37.0900   25.7480   40.6850 C   0  0  0  0  0  0  0  0  0  0  0  0
   37.5240   24.5610   41.2380 C   0  0  0  0  0  0  0  0  0  0  0  0
   37.7370   24.4800   42.2930 H   0  0  0  0  0  0  0  0  0  0  0  0
   37.7250   23.3840   40.5440 C   0  0  0  0  0  0  0  0  0  0  0  0
   38.1320   22.1460   40.8770 N   0  0  0  0  0  0  0  0  0  0  0  0
   38.1470   21.3690   39.7780 C   0  0  0  0  0  0  0  0  0  0  0  0
   38.4300   20.3250   39.7220 H   0  0  0  0  0  0  0  0  0  0  0  0
   37.7390   22.1420   38.7300 N   0  0  0  0  0  0  0  0  0  0  0  0
   37.4780   23.3790   39.1920 C   0  0  0  0  0  0  0  0  0  0  0  0
   37.0430   24.5520   38.6140 C   0  0  0  0  0  3  0  0  0  0  0  0
   38.4000   21.8170   41.8280 H   0  0  0  0  0  0  0  0  0  0  0  0
  1  6  1  0  0  0  0
  1  2  1  1  0  0  0
  2  7  1  0  0  0  0
  2  3  1  0  0  0  0
  3  4  1  0  0  0  0
  3 10  1  0  0  0  0
  4 12  1  0  0  0  0
  4 11  1  0  0  0  0
  5 13  1  0  0  0  0
  5  4  1  0  0  0  0
  6 15  1  6  0  0  0
  6  5  1  0  0  0  0
  8  2  1  0  0  0  0
  9  3  1  0  0  0  0
 14  5  1  0  0  0  0
 16 19  1  6  0  0  0
 16 24  1  0  0  0  0
 16 18  1  0  0  0  0
 17 16  1  0  0  0  0
 17 18  1  0  0  0  0
 18  1  1  0  0  0  0
 18 22  1  1  0  0  0
 20 17  1  0  0  0  0
 21 17  1  0  0  0  0
 23 28  2  0  0  0  0
 23 24  1  0  0  0  0
 24 25  2  0  0  0  0
 25 30  1  0  0  0  0
 26 25  1  0  0  0  0
 27 31  1  0  0  0  0
 27 26  2  0  0  0  0
 28 27  1  0  0  0  0
 29 23  1  0  0  0  0
 32  6  1  0  0  0  0
 32 33  1  0  0  0  0
 34 35  1  0  0  0  0
 35 36  2  0  0  0  0
 35 32  1  0  0  0  0
 36 37  1  0  0  0  0
 38 39  1  0  0  0  0
 38 36  1  0  0  0  0
 39 45  1  0  0  0  0
 40 39  1  0  0  0  0
 41 40  1  0  0  0  0
 42 43  1  0  0  0  0
 42 40  2  0  0  0  0
 43 38  2  0  0  0  0
 44 43  1  0  0  0  0
 44 34  2  0  0  0  0
M  END
>  <minimizedAffinity>
-5.58521557

$$$$

 OpenBabel03252506483D

 45 49  0  0  1  0  0  0  0  0999 V2000
   38.7090   31.1180   39.8780 N   0  0  1  0  0  0  0  0  0  0  0  0
   37.3450   31.3470   39.4730 C   0  0  0  0  0  0  0  0  0  0  0  0
   37.1580   32.6590   38.7500 C   0  0  0  0  0  0  0  0  0  0  0  0
   37.4140   33.7910   39.7150 C   0  0  0  0  0  0  0  0  0  0  0  0
   38.5500   33.4480   40.6640 C   0  0  0  0  0  0  0  0  0  0  0  0
   39.4020   32.3610   40.0430 C   0  0  2  0  0  0  0  0  0  0  0  0
   36.6350   31.3440   40.3240 H   0  0  0  0  0  0  0  0  0  0  0  0
   37.0750   30.5460   38.7260 H   0  0  0  0  0  0  0  0  0  0  0  0
   37.7500   32.7750   37.8460 H   0  0  0  0  0  0  0  0  0  0  0  0
   36.0840   32.6510   38.4150 H   0  0  0  0  0  0  0  0  0  0  0  0
   36.4690   33.9220   40.3010 H   0  0  0  0  0  0  0  0  0  0  0  0
   37.7120   34.7330   39.1960 H   0  0  0  0  0  0  0  0  0  0  0  0
   38.1060   33.0170   41.5750 H   0  0  0  0  0  0  0  0  0  0  0  0
   39.2190   34.3030   40.8580 H   0  0  0  0  0  0  0  0  0  0  0  0
   40.2250   32.1790   40.7700 H   0  0  0  0  0  0  0  0  0  0  0  0
   38.5740   28.8080   41.0320 C   0  0  1  0  0  0  0  0  0  0  0  0
   37.4220   29.6580   41.4100 C   0  0  0  0  0  0  0  0  0  0  0  0
   38.6990   30.2900   41.0280 C   0  0  2  0  0  0  0  0  0  0  0  0
   38.5380   28.2730   40.0580 H   0  0  0  0  0  0  0  0  0  0  0  0
   37.0920   29.6480   42.4640 H   0  0  0  0  0  0  0  0  0  0  0  0
   36.5640   29.6890   40.7050 H   0  0  0  0  0  0  0  0  0  0  0  0
   39.2780   30.6970   41.9000 H   0  0  0  0  0  0  0  0  0  0  0  0
   40.6400   27.7310   41.9670 C   0  0  0  0  0  0  0  0  0  0  0  0
   39.2640   28.0120   42.0660 C   0  0  0  0  0  0  0  0  0  0  0  0
   38.5750   27.5250   43.1750 C   0  0  0  0  0  0  0  0  0  0  0  0
   39.2710   26.8100   44.0970 N   0  0  0  0  0  0  0  0  0  0  0  0
   40.5820   26.5520   43.9880 C   0  0  0  0  0  0  0  0  0  0  0  0
   41.2860   27.0180   42.9050 N   0  0  0  0  0  0  0  0  0  0  0  0
   41.1620   28.1170   41.0970 H   0  0  0  0  0  0  0  0  0  0  0  0
   37.5180   27.7130   43.2960 H   0  0  0  0  0  0  0  0  0  0  0  0
   41.0300   25.9690   44.7880 H   0  0  0  0  0  0  0  0  0  0  0  0
   40.0170   32.8680   38.8560 N   0  0  0  0  0  0  0  0  0  0  0  0
   39.5300   33.6520   38.3210 H   0  0  0  0  0  0  0  0  0  0  0  0
   42.4280   33.2570   38.2270 C   0  0  0  0  0  3  0  0  0  0  0  0
   41.2270   32.5380   38.1830 C   0  0  0  0  0  0  0  0  0  0  0  0
   41.2360   31.4020   37.4000 C   0  0  0  0  0  0  0  0  0  0  0  0
   40.3570   30.7840   37.3000 H   0  0  0  0  0  0  0  0  0  0  0  0
   42.3190   30.9410   36.6780 C   0  0  0  0  0  0  0  0  0  0  0  0
   42.5390   29.8860   35.8710 N   0  0  0  0  0  0  0  0  0  0  0  0
   43.8070   29.9230   35.4220 C   0  0  0  0  0  0  0  0  0  0  0  0
   44.2840   29.2140   34.7570 H   0  0  0  0  0  0  0  0  0  0  0  0
   44.3950   31.0300   35.9620 N   0  0  0  0  0  0  0  0  0  0  0  0
   43.4890   31.6590   36.7320 C   0  0  0  0  0  0  0  0  0  0  0  0
   43.5070   32.7980   37.5080 C   0  0  0  0  0  3  0  0  0  0  0  0
   41.8520   29.1440   35.6200 H   0  0  0  0  0  0  0  0  0  0  0  0
  1  2  1  1  0  0  0
  1  6  1  0  0  0  0
  1 18  1  0  0  0  0
  2  7  1  0  0  0  0
  3  2  1  0  0  0  0
  3  4  1  0  0  0  0
  4 11  1  0  0  0  0
  4  5  1  0  0  0  0
  5 14  1  0  0  0  0
  5 13  1  0  0  0  0
  6  5  1  0  0  0  0
  6 15  1  1  0  0  0
  8  2  1  0  0  0  0
  9  3  1  0  0  0  0
 10  3  1  0  0  0  0
 12  4  1  0  0  0  0
 16 19  1  6  0  0  0
 16 17  1  0  0  0  0
 16 24  1  0  0  0  0
 17 20  1  0  0  0  0
 18 16  1  0  0  0  0
 18 17  1  0  0  0  0
 18 22  1  1  0  0  0
 21 17  1  0  0  0  0
 23 24  2  0  0  0  0
 23 28  1  0  0  0  0
 24 25  1  0  0  0  0
 25 30  1  0  0  0  0
 25 26  2  0  0  0  0
 27 26  1  0  0  0  0
 27 31  1  0  0  0  0
 28 27  2  0  0  0  0
 29 23  1  0  0  0  0
 32  6  1  0  0  0  0
 33 32  1  0  0  0  0
 35 34  1  0  0  0  0
 35 32  1  0  0  0  0
 36 35  2  0  0  0  0
 37 36  1  0  0  0  0
 38 43  2  0  0  0  0
 38 36  1  0  0  0  0
 39 38  1  0  0  0  0
 40 39  1  0  0  0  0
 40 42  2  0  0  0  0
 41 40  1  0  0  0  0
 42 43  1  0  0  0  0
 43 44  1  0  0  0  0
 44 34  2  0  0  0  0
 45 39  1  0  0  0  0
M  END
>  <minimizedAffinity>
-5.54433155

$$$$

 OpenBabel03252506483D

 45 49  0  0  1  0  0  0  0  0999 V2000
   37.1340   29.8700   40.6020 N   0  0  1  0  0  0  0  0  0  0  0  0
   37.3720   31.2480   40.9520 C   0  0  0  0  0  0  0  0  0  0  0  0
   37.1110   32.2000   39.8110 C   0  0  0  0  0  0  0  0  0  0  0  0
   38.1280   31.9520   38.7230 C   0  0  0  0  0  0  0  0  0  0  0  0
   38.4370   30.4690   38.5980 C   0  0  0  0  0  0  0  0  0  0  0  0
   37.2930   29.6730   39.1920 C   0  0  2  0  0  0  0  0  0  0  0  0
   38.4100   31.4340   41.2960 H   0  0  0  0  0  0  0  0  0  0  0  0
   36.6320   31.5250   41.7560 H   0  0  0  0  0  0  0  0  0  0  0  0
   36.1000   32.1740   39.4120 H   0  0  0  0  0  0  0  0  0  0  0  0
   37.2400   33.2250   40.2560 H   0  0  0  0  0  0  0  0  0  0  0  0
   39.0560   32.4980   39.0310 H   0  0  0  0  0  0  0  0  0  0  0  0
   37.7680   32.2820   37.7200 H   0  0  0  0  0  0  0  0  0  0  0  0
   39.3220   30.2580   39.2180 H   0  0  0  0  0  0  0  0  0  0  0  0
   38.5410   30.1410   37.5500 H   0  0  0  0  0  0  0  0  0  0  0  0
   37.5680   28.6060   39.0430 H   0  0  0  0  0  0  0  0  0  0  0  0
   37.5010   28.0970   42.4470 C   0  0  1  0  0  0  0  0  0  0  0  0
   38.0880   29.3990   42.8400 C   0  0  0  0  0  0  0  0  0  0  0  0
   37.9660   29.0550   41.4090 C   0  0  2  0  0  0  0  0  0  0  0  0
   36.4080   27.9480   42.5840 H   0  0  0  0  0  0  0  0  0  0  0  0
   39.0730   29.3960   43.3370 H   0  0  0  0  0  0  0  0  0  0  0  0
   37.3990   30.1500   43.2820 H   0  0  0  0  0  0  0  0  0  0  0  0
   38.9410   28.7670   40.9320 H   0  0  0  0  0  0  0  0  0  0  0  0
   39.3830   26.8420   43.5360 C   0  0  0  0  0  0  0  0  0  0  0  0
   38.2560   26.8520   42.6940 C   0  0  0  0  0  0  0  0  0  0  0  0
   37.8640   25.6490   42.1100 C   0  0  0  0  0  0  0  0  0  0  0  0
   38.5930   24.5360   42.3870 N   0  0  0  0  0  0  0  0  0  0  0  0
   39.6650   24.5440   43.1930 C   0  0  0  0  0  0  0  0  0  0  0  0
   40.0730   25.7150   43.7810 N   0  0  0  0  0  0  0  0  0  0  0  0
   39.6750   27.7870   43.9840 H   0  0  0  0  0  0  0  0  0  0  0  0
   37.0060   25.6050   41.4550 H   0  0  0  0  0  0  0  0  0  0  0  0
   40.1680   23.5920   43.3400 H   0  0  0  0  0  0  0  0  0  0  0  0
   36.1130   29.8990   38.4170 N   0  0  0  0  0  0  0  0  0  0  0  0
   35.6080   30.8340   38.5130 H   0  0  0  0  0  0  0  0  0  0  0  0
   34.1360   28.5440   37.6320 C   0  0  0  0  0  3  0  0  0  0  0  0
   35.4140   29.0960   37.4730 C   0  0  0  0  0  0  0  0  0  0  0  0
   36.0440   28.8160   36.2790 C   0  0  0  0  0  0  0  0  0  0  0  0
   37.0320   29.1930   36.0650 H   0  0  0  0  0  0  0  0  0  0  0  0
   35.5140   28.0510   35.2580 C   0  0  0  0  0  0  0  0  0  0  0  0
   35.9440   27.6630   34.0440 N   0  0  0  0  0  0  0  0  0  0  0  0
   35.0000   26.9070   33.4540 C   0  0  0  0  0  0  0  0  0  0  0  0
   35.0500   26.4490   32.4740 H   0  0  0  0  0  0  0  0  0  0  0  0
   33.9510   26.8200   34.3230 N   0  0  0  0  0  0  0  0  0  0  0  0
   34.2590   27.5180   35.4310 C   0  0  0  0  0  0  0  0  0  0  0  0
   33.6070   27.7820   36.6170 C   0  0  0  0  0  3  0  0  0  0  0  0
   36.8600   27.8990   33.6060 H   0  0  0  0  0  0  0  0  0  0  0  0
  1  2  1  6  0  0  0
  1 18  1  0  0  0  0
  2  7  1  0  0  0  0
  2  8  1  0  0  0  0
  3 10  1  0  0  0  0
  3  2  1  0  0  0  0
  4 11  1  0  0  0  0
  4  3  1  0  0  0  0
  5  4  1  0  0  0  0
  5  6  1  0  0  0  0
  5 13  1  0  0  0  0
  6 15  1  6  0  0  0
  6  1  1  0  0  0  0
  9  3  1  0  0  0  0
 12  4  1  0  0  0  0
 14  5  1  0  0  0  0
 16 19  1  1  0  0  0
 16 24  1  0  0  0  0
 16 17  1  0  0  0  0
 17 21  1  0  0  0  0
 17 20  1  0  0  0  0
 18 22  1  6  0  0  0
 18 16  1  0  0  0  0
 18 17  1  0  0  0  0
 23 28  1  0  0  0  0
 23 29  1  0  0  0  0
 24 23  2  0  0  0  0
 25 26  2  0  0  0  0
 25 24  1  0  0  0  0
 26 27  1  0  0  0  0
 27 31  1  0  0  0  0
 27 28  2  0  0  0  0
 30 25  1  0  0  0  0
 32 33  1  0  0  0  0
 32  6  1  0  0  0  0
 35 34  1  0  0  0  0
 35 32  1  0  0  0  0
 36 35  2  0  0  0  0
 37 36  1  0  0  0  0
 38 43  2  0  0  0  0
 38 36  1  0  0  0  0
 39 38  1  0  0  0  0
 40 39  1  0  0  0  0
 40 42  2  0  0  0  0
 41 40  1  0  0  0  0
 42 43  1  0  0  0  0
 43 44  1  0  0  0  0
 44 34  2  0  0  0  0
 45 39  1  0  0  0  0
M  END
>  <minimizedAffinity>
-5.544065

$$$$

 OpenBabel03252506483D

 45 49  0  0  1  0  0  0  0  0999 V2000
   37.0630   28.7850   40.9240 N   0  0  1  0  0  0  0  0  0  0  0  0
   36.5690   28.2750   42.1780 C   0  0  0  0  0  0  0  0  0  0  0  0
   37.6730   27.8810   43.1300 C   0  0  0  0  0  0  0  0  0  0  0  0
   38.4150   26.6980   42.5570 C   0  0  0  0  0  0  0  0  0  0  0  0
   38.5360   26.8130   41.0470 C   0  0  0  0  0  0  0  0  0  0  0  0
   38.3690   28.2640   40.6460 C   0  0  2  0  0  0  0  0  0  0  0  0
   35.9170   27.3860   42.0560 H   0  0  0  0  0  0  0  0  0  0  0  0
   36.0110   29.1120   42.6870 H   0  0  0  0  0  0  0  0  0  0  0  0
   38.3600   28.6810   43.3940 H   0  0  0  0  0  0  0  0  0  0  0  0
   37.1440   27.6020   44.0820 H   0  0  0  0  0  0  0  0  0  0  0  0
   37.8060   25.7930   42.8110 H   0  0  0  0  0  0  0  0  0  0  0  0
   39.4570   26.6180   42.9500 H   0  0  0  0  0  0  0  0  0  0  0  0
   37.6920   26.2650   40.6000 H   0  0  0  0  0  0  0  0  0  0  0  0
   39.5220   26.4930   40.6710 H   0  0  0  0  0  0  0  0  0  0  0  0
   38.4960   28.2820   39.5410 H   0  0  0  0  0  0  0  0  0  0  0  0
   35.5110   29.5200   38.9910 C   0  0  1  0  0  0  0  0  0  0  0  0
   34.7240   29.0180   40.1400 C   0  0  0  0  0  0  0  0  0  0  0  0
   36.0960   28.5190   39.9220 C   0  0  2  0  0  0  0  0  0  0  0  0
   35.8880   30.5650   39.0250 H   0  0  0  0  0  0  0  0  0  0  0  0
   33.8530   28.3740   39.9320 H   0  0  0  0  0  0  0  0  0  0  0  0
   34.5270   29.7320   40.9680 H   0  0  0  0  0  0  0  0  0  0  0  0
   36.1340   27.4780   39.5020 H   0  0  0  0  0  0  0  0  0  0  0  0
   33.8280   28.6990   37.3190 C   0  0  0  0  0  0  0  0  0  0  0  0
   35.1370   29.1210   37.6200 C   0  0  0  0  0  0  0  0  0  0  0  0
   36.0650   29.1650   36.5810 C   0  0  0  0  0  0  0  0  0  0  0  0
   35.6540   28.7980   35.3390 N   0  0  0  0  0  0  0  0  0  0  0  0
   34.4020   28.3980   35.0700 C   0  0  0  0  0  0  0  0  0  0  0  0
   33.4680   28.3440   36.0740 N   0  0  0  0  0  0  0  0  0  0  0  0
   33.1170   28.6700   38.1380 H   0  0  0  0  0  0  0  0  0  0  0  0
   37.0820   29.4820   36.7610 H   0  0  0  0  0  0  0  0  0  0  0  0
   34.1910   28.1290   34.0390 H   0  0  0  0  0  0  0  0  0  0  0  0
   39.4480   29.0280   41.1900 N   0  0  0  0  0  0  0  0  0  0  0  0
   40.0880   28.5700   41.9090 H   0  0  0  0  0  0  0  0  0  0  0  0
   41.1930   30.7590   40.6250 C   0  0  0  0  0  3  0  0  0  0  0  0
   39.8930   30.3610   40.9620 C   0  0  0  0  0  0  0  0  0  0  0  0
   38.9690   31.3760   41.0880 C   0  0  0  0  0  0  0  0  0  0  0  0
   37.9420   31.1690   41.3490 H   0  0  0  0  0  0  0  0  0  0  0  0
   39.2310   32.7200   40.9080 C   0  0  0  0  0  0  0  0  0  0  0  0
   38.4970   33.8450   40.9780 N   0  0  0  0  0  0  0  0  0  0  0  0
   39.2770   34.9070   40.7030 C   0  0  0  0  0  0  0  0  0  0  0  0
   38.9780   35.9470   40.6790 H   0  0  0  0  0  0  0  0  0  0  0  0
   40.5320   34.4320   40.4530 N   0  0  0  0  0  0  0  0  0  0  0  0
   40.5110   33.0920   40.5770 C   0  0  0  0  0  0  0  0  0  0  0  0
   41.4560   32.0970   40.4450 C   0  0  0  0  0  3  0  0  0  0  0  0
   37.4830   33.9110   41.2080 H   0  0  0  0  0  0  0  0  0  0  0  0
  1  2  1  1  0  0  0
  2  8  1  0  0  0  0
  2  3  1  0  0  0  0
  3  9  1  0  0  0  0
  3 10  1  0  0  0  0
  4 11  1  0  0  0  0
  4 12  1  0  0  0  0
  4  3  1  0  0  0  0
  5  4  1  0  0  0  0
  6 15  1  6  0  0  0
  6  1  1  0  0  0  0
  6  5  1  0  0  0  0
  6 32  1  0  0  0  0
  7  2  1  0  0  0  0
 13  5  1  0  0  0  0
 14  5  1  0  0  0  0
 16 19  1  1  0  0  0
 16 18  1  0  0  0  0
 16 17  1  0  0  0  0
 17 21  1  0  0  0  0
 18 22  1  6  0  0  0
 18 17  1  0  0  0  0
 18  1  1  0  0  0  0
 20 17  1  0  0  0  0
 23 24  1  0  0  0  0
 23 29  1  0  0  0  0
 24 16  1  0  0  0  0
 25 30  1  0  0  0  0
 25 24  2  0  0  0  0
 26 25  1  0  0  0  0
 27 26  2  0  0  0  0
 27 28  1  0  0  0  0
 28 23  2  0  0  0  0
 31 27  1  0  0  0  0
 32 33  1  0  0  0  0
 34 35  1  0  0  0  0
 35 36  2  0  0  0  0
 35 32  1  0  0  0  0
 36 37  1  0  0  0  0
 38 39  1  0  0  0  0
 38 36  1  0  0  0  0
 39 45  1  0  0  0  0
 40 39  1  0  0  0  0
 41 40  1  0  0  0  0
 42 43  1  0  0  0  0
 42 40  2  0  0  0  0
 43 38  2  0  0  0  0
 44 43  1  0  0  0  0
 44 34  2  0  0  0  0
M  END
>  <minimizedAffinity>
-5.53202105

$$$$
