
 OpenBabel03252507323D

 52 56  0  0  1  0  0  0  0  0999 V2000
   47.0190   32.5730   45.4220 C   0  0  0  0  0  0  0  0  0  0  0  0
   45.9690   33.2620   46.0100 C   0  0  0  0  0  0  0  0  0  0  0  0
   45.3130   34.2860   45.2860 C   0  0  0  0  0  0  0  0  0  0  0  0
   45.7870   34.5360   44.0000 N   0  0  0  0  0  0  0  0  0  0  0  0
   46.8050   33.8360   43.4950 C   0  0  0  0  0  0  0  0  0  0  0  0
   47.4110   32.8720   44.1900 N   0  0  0  0  0  0  0  0  0  0  0  0
   45.4810   33.2630   46.9610 H   0  0  0  0  0  0  0  0  0  0  0  0
   44.4970   34.9070   45.5810 H   0  0  0  0  0  0  0  0  0  0  0  0
   47.6410   31.5180   46.1960 C   0  0  2  0  0  0  0  0  0  0  0  0
   47.3000   30.1100   45.6180 C   0  0  0  0  0  0  0  0  0  0  0  0
   48.0930   29.0760   46.3440 C   0  0  0  0  0  0  0  0  0  0  0  0
   48.1460   29.2140   47.8280 C   0  0  0  0  0  0  0  0  0  0  0  0
   48.2310   30.5750   48.2990 C   0  0  0  0  0  0  0  0  0  0  0  0
   47.2540   31.5400   47.5920 C   0  0  2  0  0  0  0  0  0  0  0  0
   48.7470   31.5600   46.0360 H   0  0  0  0  0  0  0  0  0  0  0  0
   46.2160   29.9470   45.6010 H   0  0  0  0  0  0  0  0  0  0  0  0
   47.6270   30.1780   44.5600 H   0  0  0  0  0  0  0  0  0  0  0  0
   49.0650   29.0070   45.8170 H   0  0  0  0  0  0  0  0  0  0  0  0
   47.5920   28.0840   46.1420 H   0  0  0  0  0  0  0  0  0  0  0  0
   47.7550   28.3980   48.4370 H   0  0  0  0  0  0  0  0  0  0  0  0
   49.2520   28.8920   47.9980 H   0  0  0  0  0  0  0  0  0  0  0  0
   49.2140   31.1040   48.2410 H   0  0  0  0  0  0  0  0  0  0  0  0
   47.9520   30.6180   49.3840 H   0  0  0  0  0  0  0  0  0  0  0  0
   47.4400   32.4640   48.1400 H   0  0  0  0  0  0  0  0  0  0  0  0
   45.8930   31.0200   47.7410 N   0  0  0  0  0  0  0  0  0  0  0  0
   45.1780   30.5970   48.8740 C   0  0  0  0  0  0  0  0  0  0  0  0
   44.6550   31.4120   49.7170 O   0  0  0  0  0  0  0  0  0  0  0  0
   45.0660   29.1800   49.0140 N   0  0  0  0  0  0  0  0  0  0  0  0
   45.2540   30.8310   46.8800 H   0  0  0  0  0  0  0  0  0  0  0  0
   44.7520   28.4630   48.3560 H   0  0  0  0  0  0  0  0  0  0  0  0
   45.3380   28.7400   49.9200 H   0  0  0  0  0  0  0  0  0  0  0  0
   47.2700   34.1620   42.1410 C   0  0  0  0  0  0  0  0  0  0  0  0
   48.2970   35.0560   41.9390 C   0  0  0  0  0  0  0  0  0  0  0  0
   48.7860   35.4120   40.7010 C   0  0  0  0  0  0  0  0  0  0  0  0
   48.1660   34.7980   39.6360 C   0  0  0  0  0  0  0  0  0  0  0  0
   47.1400   33.9030   39.8200 C   0  0  0  0  0  0  0  0  0  0  0  0
   46.6920   33.5850   41.0750 N   0  0  0  0  0  0  0  0  0  0  0  0
   48.7340   35.4980   42.8300 H   0  0  0  0  0  0  0  0  0  0  0  0
   49.5830   36.1070   40.5790 H   0  0  0  0  0  0  0  0  0  0  0  0
   48.5130   35.0420   38.6430 H   0  0  0  0  0  0  0  0  0  0  0  0
   45.3970   32.4020   38.9730 C   0  0  0  0  0  3  0  0  0  0  0  0
   46.4640   33.2370   38.7140 C   0  0  0  0  0  0  0  0  0  0  0  0
   46.8090   33.3740   37.3970 C   0  0  0  0  0  0  0  0  0  0  0  0
   47.6260   34.0060   37.1300 H   0  0  0  0  0  0  0  0  0  0  0  0
   46.1660   32.7410   36.3530 C   0  0  0  0  0  0  0  0  0  0  0  0
   46.3650   32.7560   35.0100 N   0  0  0  0  0  0  0  0  0  0  0  0
   45.4530   31.9580   34.4500 C   0  0  0  0  0  0  0  0  0  0  0  0
   45.4190   31.8150   33.3720 H   0  0  0  0  0  0  0  0  0  0  0  0
   44.6710   31.4320   35.4350 N   0  0  0  0  0  0  0  0  0  0  0  0
   45.0930   31.9040   36.6300 C   0  0  0  0  0  0  0  0  0  0  0  0
   44.7180   31.7420   37.9450 C   0  0  0  0  0  3  0  0  0  0  0  0
   47.1100   33.3070   34.5290 H   0  0  0  0  0  0  0  0  0  0  0  0
  1  2  1  0  0  0  0
  1  9  1  0  0  0  0
  2  7  1  0  0  0  0
  3  8  1  0  0  0  0
  3  2  2  0  0  0  0
  4  3  1  0  0  0  0
  5  4  2  0  0  0  0
  5  6  1  0  0  0  0
  6  1  2  0  0  0  0
  9 15  1  6  0  0  0
  9 14  1  0  0  0  0
 10  9  1  0  0  0  0
 10 11  1  0  0  0  0
 11 12  1  0  0  0  0
 12 21  1  0  0  0  0
 12 13  1  0  0  0  0
 12 20  1  0  0  0  0
 13 23  1  0  0  0  0
 14 25  1  0  0  0  0
 14 24  1  1  0  0  0
 14 13  1  0  0  0  0
 16 10  1  0  0  0  0
 17 10  1  0  0  0  0
 18 11  1  0  0  0  0
 19 11  1  0  0  0  0
 22 13  1  0  0  0  0
 25 26  1  0  0  0  0
 26 28  1  0  0  0  0
 26 27  2  0  0  0  0
 28 31  1  0  0  0  0
 29 25  1  0  0  0  0
 30 28  1  0  0  0  0
 32  5  1  0  0  0  0
 33 32  1  0  0  0  0
 33 38  1  0  0  0  0
 34 33  2  0  0  0  0
 35 36  2  0  0  0  0
 35 34  1  0  0  0  0
 36 37  1  0  0  0  0
 37 32  2  0  0  0  0
 39 34  1  0  0  0  0
 40 35  1  0  0  0  0
 42 41  1  0  0  0  0
 42 36  1  0  0  0  0
 43 42  2  0  0  0  0
 44 43  1  0  0  0  0
 45 50  2  0  0  0  0
 45 43  1  0  0  0  0
 46 45  1  0  0  0  0
 47 46  1  0  0  0  0
 47 49  2  0  0  0  0
 48 47  1  0  0  0  0
 49 50  1  0  0  0  0
 50 51  1  0  0  0  0
 51 41  2  0  0  0  0
 52 46  1  0  0  0  0
M  END
>  <minimizedAffinity>
-7.06570053

>  <minimizedRMSD>
0.513812244

$$$$
