
 OpenBabel03252504473D

 30 32  0  0  0  0  0  0  0  0999 V2000
   45.6800   30.7420   49.3480 O   0  0  0  0  0  0  0  0  0  0  0  0
   45.8730   30.9280   47.8450 P   0  0  1  0  0  0  0  0  0  0  0  0
   44.5700   30.1730   47.0790 O   0  0  0  0  0  0  0  0  0  0  0  0
   44.8490   29.5070   46.4260 H   0  0  0  0  0  0  0  0  0  0  0  0
   45.9590   32.5850   47.5660 O   0  0  0  0  0  0  0  0  0  0  0  0
   45.2970   34.7230   44.7360 C   0  0  0  0  0  0  0  0  0  0  0  0
   46.2360   34.2460   43.8050 C   0  0  0  0  0  0  0  0  0  0  0  0
   47.0620   33.1930   44.2100 C   0  0  0  0  0  0  0  0  0  0  0  0
   46.9090   32.7070   45.4530 N   0  0  0  0  0  0  0  0  0  0  0  0
   45.9840   33.2010   46.3260 C   0  0  0  0  0  0  0  0  0  0  0  0
   45.1740   34.2220   45.9500 N   0  0  0  0  0  0  0  0  0  0  0  0
   46.3020   34.6810   42.8310 H   0  0  0  0  0  0  0  0  0  0  0  0
   47.8080   32.7830   43.5270 H   0  0  0  0  0  0  0  0  0  0  0  0
   44.4280   35.8510   44.2710 C   0  0  0  0  0  0  0  0  0  0  0  0
   43.6000   36.0220   44.9610 H   0  0  0  0  0  0  0  0  0  0  0  0
   45.0700   36.7560   44.2970 H   0  0  0  0  0  0  0  0  0  0  0  0
   44.0720   35.6650   43.2180 H   0  0  0  0  0  0  0  0  0  0  0  0
   47.2960   30.1650   47.3120 O   0  0  0  0  0  0  0  0  0  0  0  0
   48.9670   28.7080   48.3570 C   0  0  0  0  0  0  0  0  0  0  0  0
   48.3070   29.9290   48.2560 C   0  0  0  0  0  0  0  0  0  0  0  0
   48.6390   30.9700   49.1010 C   0  0  0  0  0  0  0  0  0  0  0  0
   48.1540   31.9240   49.0530 H   0  0  0  0  0  0  0  0  0  0  0  0
   49.6170   30.7700   50.0260 C   0  0  0  0  0  0  0  0  0  0  0  0
   50.2110   31.4900   50.9940 N   0  0  0  0  0  0  0  0  0  0  0  0
   51.1510   30.8030   51.6460 C   0  0  0  0  0  0  0  0  0  0  0  0
   51.7420   31.2000   52.4540 H   0  0  0  0  0  0  0  0  0  0  0  0
   51.1840   29.5860   51.0960 N   0  0  0  0  0  0  0  0  0  0  0  0
   50.2720   29.5420   50.1220 C   0  0  0  0  0  0  0  0  0  0  0  0
   49.9520   28.4930   49.2840 C   0  0  0  0  0  0  0  0  0  0  0  0
   49.9550   32.4960   51.2090 H   0  0  0  0  0  0  0  0  0  0  0  0
  2  1  2  1  0  0  0
  3  2  1  0  0  0  0
  4  3  1  0  0  0  0
  5  2  1  0  0  0  0
  6 11  1  0  0  0  0
  7  8  1  0  0  0  0
  7  6  2  0  0  0  0
  8  9  2  0  0  0  0
  9 10  1  0  0  0  0
 10  5  1  0  0  0  0
 11 10  2  0  0  0  0
 12  7  1  0  0  0  0
 13  8  1  0  0  0  0
 14 16  1  0  0  0  0
 14  6  1  0  0  0  0
 14 15  1  0  0  0  0
 17 14  1  0  0  0  0
 18  2  1  0  0  0  0
 18 20  1  0  0  0  0
 19 29  1  0  0  0  0
 20 19  2  0  0  0  0
 20 21  1  0  0  0  0
 21 23  2  0  0  0  0
 22 21  1  0  0  0  0
 23 28  1  0  0  0  0
 23 24  1  0  0  0  0
 24 30  1  0  0  0  0
 24 25  1  0  0  0  0
 25 26  1  0  0  0  0
 27 25  2  0  0  0  0
 28 27  1  0  0  0  0
 29 28  2  0  0  0  0
M  END
>  <minimizedAffinity>
-5.52722311

>  <minimizedRMSD>
2.42092967

$$$$
