
 OpenBabel03242523283D

 24 26  0  0  0  0  0  0  0  0999 V2000
   48.0040   32.0290   43.2730 C   0  0  0  0  0  0  0  0  0  0  0  0
   49.0110   31.7000   43.6460 H   0  0  0  0  0  0  0  0  0  0  0  0
   47.5350   31.2400   42.6790 H   0  0  0  0  0  0  0  0  0  0  0  0
   46.4780   33.4610   44.7010 C   0  0  0  0  0  0  0  0  0  0  0  0
   47.2080   32.3080   44.4910 C   0  0  0  0  0  0  0  0  0  0  0  0
   47.2080   31.3390   45.4730 C   0  0  0  0  0  0  0  0  0  0  0  0
   47.7520   30.4020   45.3960 H   0  0  0  0  0  0  0  0  0  0  0  0
   46.4750   31.5510   46.6400 C   0  0  0  0  0  0  0  0  0  0  0  0
   46.2850   30.8030   47.7560 N   0  0  0  0  0  0  0  0  0  0  0  0
   45.4750   31.4990   48.5770 C   0  0  0  0  0  0  0  0  0  0  0  0
   45.1180   31.2020   49.5520 H   0  0  0  0  0  0  0  0  0  0  0  0
   45.1440   32.6780   48.0090 N   0  0  0  0  0  0  0  0  0  0  0  0
   45.7510   32.7340   46.8070 C   0  0  0  0  0  0  0  0  0  0  0  0
   45.7430   33.7050   45.8410 C   0  0  0  0  0  0  0  0  0  0  0  0
   46.7120   29.8450   47.9210 H   0  0  0  0  0  0  0  0  0  0  0  0
   47.8780   34.7650   40.7520 C   0  0  0  0  0  0  0  0  0  0  0  0
   48.9270   35.6050   41.1780 C   0  0  0  0  0  0  0  0  0  0  0  0
   49.6270   35.1960   42.3020 C   0  0  0  0  0  0  0  0  0  0  0  0
   49.3010   34.0390   42.9500 N   0  0  0  0  0  0  0  0  0  0  0  0
   48.2760   33.2670   42.4940 C   0  0  0  0  0  0  0  0  0  0  0  0
   47.5900   33.6460   41.4100 N   0  0  0  0  0  0  0  0  0  0  0  0
   47.2860   35.0050   39.8930 H   0  0  0  0  0  0  0  0  0  0  0  0
   49.1400   36.5080   40.6230 H   0  0  0  0  0  0  0  0  0  0  0  0
   50.4410   35.8220   42.6510 H   0  0  0  0  0  0  0  0  0  0  0  0
  1  2  1  0  0  0  0
  1  5  1  0  0  0  0
  3  1  1  0  0  0  0
  4 14  1  0  0  0  0
  5  4  2  0  0  0  0
  5  6  1  0  0  0  0
  6  8  2  0  0  0  0
  7  6  1  0  0  0  0
  8 13  1  0  0  0  0
  8  9  1  0  0  0  0
  9 15  1  0  0  0  0
  9 10  1  0  0  0  0
 10 11  1  0  0  0  0
 12 10  2  0  0  0  0
 13 12  1  0  0  0  0
 14 13  2  0  0  0  0
 16 17  2  0  0  0  0
 16 21  1  0  0  0  0
 17 18  1  0  0  0  0
 18 24  1  0  0  0  0
 18 19  2  0  0  0  0
 20 19  1  0  0  0  0
 20  1  1  0  0  0  0
 21 20  2  0  0  0  0
 22 16  1  0  0  0  0
 23 17  1  0  0  0  0
M  END
>  <minimizedAffinity>
-4.75920534

>  <minimizedRMSD>
3.87829781

$$$$
