
 OpenBabel03242519363D

 27 29  0  0  0  0  0  0  0  0999 V2000
   47.3950   34.1620   39.6220 O   0  0  0  0  0  0  0  0  0  0  0  0
   46.4930   33.8570   40.7980 P   0  0  1  0  0  0  0  0  0  0  0  0
   46.4780   32.2190   41.1560 O   0  0  0  0  0  0  0  0  0  0  0  0
   45.5730   31.8260   41.1810 H   0  0  0  0  0  0  0  0  0  0  0  0
   47.0940   34.6850   42.1890 O   0  0  0  0  0  0  0  0  0  0  0  0
   45.4980   34.0320   45.4170 C   0  0  0  0  0  0  0  0  0  0  0  0
   46.3360   33.8820   44.2880 C   0  0  0  0  0  0  0  0  0  0  0  0
   46.2660   34.8420   43.2920 C   0  0  0  0  0  0  0  0  0  0  0  0
   45.4000   35.8750   43.4460 N   0  0  0  0  0  0  0  0  0  0  0  0
   44.6130   35.9970   44.5270 C   0  0  0  0  0  0  0  0  0  0  0  0
   44.6520   35.0890   45.5110 N   0  0  0  0  0  0  0  0  0  0  0  0
   45.5670   33.2620   46.1960 H   0  0  0  0  0  0  0  0  0  0  0  0
   46.9960   33.0280   44.2490 H   0  0  0  0  0  0  0  0  0  0  0  0
   43.9220   36.8040   44.6690 H   0  0  0  0  0  0  0  0  0  0  0  0
   44.9480   34.4620   40.4960 O   0  0  0  0  0  0  0  0  0  0  0  0
   42.7640   34.2780   39.8810 C   0  0  0  0  0  0  0  0  0  0  0  0
   43.7520   33.8230   40.7610 C   0  0  0  0  0  0  0  0  0  0  0  0
   43.4290   32.8710   41.7060 C   0  0  0  0  0  0  0  0  0  0  0  0
   44.2770   32.6070   42.3200 H   0  0  0  0  0  0  0  0  0  0  0  0
   42.1410   32.3830   41.7680 C   0  0  0  0  0  0  0  0  0  0  0  0
   41.6460   31.4690   42.6070 N   0  0  0  0  0  0  0  0  0  0  0  0
   40.3420   31.3150   42.2890 C   0  0  0  0  0  0  0  0  0  0  0  0
   39.6230   30.6550   42.7570 H   0  0  0  0  0  0  0  0  0  0  0  0
   40.0450   32.1420   41.2510 N   0  0  0  0  0  0  0  0  0  0  0  0
   41.1600   32.8220   40.9080 C   0  0  0  0  0  0  0  0  0  0  0  0
   41.4580   33.7800   39.9480 C   0  0  0  0  0  0  0  0  0  0  0  0
   42.1610   30.9590   43.3710 H   0  0  0  0  0  0  0  0  0  0  0  0
  2  1  2  6  0  0  0
  2  3  1  0  0  0  0
  2  5  1  0  0  0  0
  3  4  1  0  0  0  0
  5  8  1  0  0  0  0
  6 11  1  0  0  0  0
  6 12  1  0  0  0  0
  7  6  2  0  0  0  0
  8  9  2  0  0  0  0
  8  7  1  0  0  0  0
  9 10  1  0  0  0  0
 10 14  1  0  0  0  0
 10 11  2  0  0  0  0
 13  7  1  0  0  0  0
 15 17  1  0  0  0  0
 15  2  1  0  0  0  0
 16 26  2  0  0  0  0
 16 17  1  0  0  0  0
 17 18  2  0  0  0  0
 18 20  1  0  0  0  0
 18 19  1  0  0  0  0
 20 21  1  0  0  0  0
 21 27  1  0  0  0  0
 22 21  1  0  0  0  0
 22 23  1  0  0  0  0
 24 22  2  0  0  0  0
 25 24  1  0  0  0  0
 25 20  2  0  0  0  0
 26 25  1  0  0  0  0
M  END
>  <minimizedAffinity>
-4.96536064

>  <minimizedRMSD>
7.09009361

$$$$
