
 OpenBabel03252500403D

 24 26  0  0  0  0  0  0  0  0999 V2000
   36.2030   27.9590   42.0960 C   0  0  0  0  0  0  0  0  0  0  0  0
   35.5290   27.2660   41.5600 H   0  0  0  0  0  0  0  0  0  0  0  0
   35.6680   28.3140   42.9830 H   0  0  0  0  0  0  0  0  0  0  0  0
   36.7500   28.6670   39.8510 C   0  0  0  0  0  3  0  0  0  0  0  0
   36.4890   29.0760   41.1580 C   0  0  0  0  0  0  0  0  0  0  0  0
   36.5240   30.4190   41.4300 C   0  0  0  0  0  0  0  0  0  0  0  0
   36.3180   30.6810   42.4420 H   0  0  0  0  0  0  0  0  0  0  0  0
   36.8110   31.3120   40.4180 C   0  0  0  0  0  0  0  0  0  0  0  0
   36.9030   32.6550   40.4270 N   0  0  0  0  0  0  0  0  0  0  0  0
   37.2080   33.0790   39.1890 C   0  0  0  0  0  0  0  0  0  0  0  0
   37.3570   34.1050   38.8420 H   0  0  0  0  0  0  0  0  0  0  0  0
   37.3000   31.9810   38.4190 N   0  0  0  0  0  0  0  0  0  0  0  0
   37.0660   30.8850   39.1290 C   0  0  0  0  0  0  0  0  0  0  0  0
   37.0380   29.5340   38.8270 C   0  0  0  0  0  3  0  0  0  0  0  0
   36.7640   33.2880   41.2580 H   0  0  0  0  0  0  0  0  0  0  0  0
   37.4730   27.2540   42.4800 C   0  0  0  0  0  0  0  0  0  0  0  0
   37.5570   25.9100   42.1280 C   0  0  0  0  0  0  0  0  0  0  0  0
   38.7350   25.2120   42.4720 C   0  0  0  0  0  0  0  0  0  0  0  0
   39.7010   25.9040   43.1230 N   0  0  0  0  0  0  0  0  0  0  0  0
   39.5750   27.2150   43.4470 C   0  0  0  0  0  0  0  0  0  0  0  0
   38.4510   27.8920   43.1210 N   0  0  0  0  0  0  0  0  0  0  0  0
   36.7580   25.4080   41.6100 H   0  0  0  0  0  0  0  0  0  0  0  0
   38.8350   24.1670   42.2140 H   0  0  0  0  0  0  0  0  0  0  0  0
   40.4100   27.6730   43.9690 H   0  0  0  0  0  0  0  0  0  0  0  0
  1 16  1  0  0  0  0
  1  3  1  0  0  0  0
  2  1  1  0  0  0  0
  4  5  1  0  0  0  0
  5  6  2  0  0  0  0
  5  1  1  0  0  0  0
  6  7  1  0  0  0  0
  8  9  1  0  0  0  0
  8  6  1  0  0  0  0
  9 15  1  0  0  0  0
 10  9  1  0  0  0  0
 11 10  1  0  0  0  0
 12 13  1  0  0  0  0
 12 10  2  0  0  0  0
 13  8  2  0  0  0  0
 14 13  1  0  0  0  0
 14  4  2  0  0  0  0
 16 21  1  0  0  0  0
 17 18  1  0  0  0  0
 17 16  2  0  0  0  0
 18 19  2  0  0  0  0
 19 20  1  0  0  0  0
 20 24  1  0  0  0  0
 21 20  2  0  0  0  0
 22 17  1  0  0  0  0
 23 18  1  0  0  0  0
M  END
>  <minimizedAffinity>
-4.99419689

$$$$

 OpenBabel03252500403D

 24 26  0  0  0  0  0  0  0  0999 V2000
   37.7000   28.4490   43.6800 C   0  0  0  0  0  0  0  0  0  0  0  0
   36.6190   28.3770   43.8960 H   0  0  0  0  0  0  0  0  0  0  0  0
   38.2040   28.7160   44.6160 H   0  0  0  0  0  0  0  0  0  0  0  0
   39.1340   30.0730   42.6070 C   0  0  0  0  0  3  0  0  0  0  0  0
   37.8550   29.5210   42.6620 C   0  0  0  0  0  0  0  0  0  0  0  0
   36.9070   30.0100   41.8000 C   0  0  0  0  0  0  0  0  0  0  0  0
   35.9460   29.5580   41.8800 H   0  0  0  0  0  0  0  0  0  0  0  0
   37.2420   31.0170   40.9190 C   0  0  0  0  0  0  0  0  0  0  0  0
   36.5080   31.6560   39.9890 N   0  0  0  0  0  0  0  0  0  0  0  0
   37.2810   32.5680   39.3750 C   0  0  0  0  0  0  0  0  0  0  0  0
   37.0050   33.2580   38.5730 H   0  0  0  0  0  0  0  0  0  0  0  0
   38.4980   32.4810   39.9370 N   0  0  0  0  0  0  0  0  0  0  0  0
   38.5160   31.5490   40.8810 C   0  0  0  0  0  0  0  0  0  0  0  0
   39.4930   31.0740   41.7400 C   0  0  0  0  0  3  0  0  0  0  0  0
   35.4920   31.4840   39.7650 H   0  0  0  0  0  0  0  0  0  0  0  0
   38.2120   27.1390   43.1490 C   0  0  0  0  0  0  0  0  0  0  0  0
   39.4180   26.6940   43.6800 C   0  0  0  0  0  0  0  0  0  0  0  0
   39.9330   25.4670   43.2070 C   0  0  0  0  0  0  0  0  0  0  0  0
   39.2110   24.8110   42.2660 N   0  0  0  0  0  0  0  0  0  0  0  0
   38.0380   25.2840   41.7760 C   0  0  0  0  0  0  0  0  0  0  0  0
   37.5370   26.4580   42.2240 N   0  0  0  0  0  0  0  0  0  0  0  0
   39.9520   27.2550   44.4270 H   0  0  0  0  0  0  0  0  0  0  0  0
   40.8670   25.0900   43.5970 H   0  0  0  0  0  0  0  0  0  0  0  0
   37.5410   24.6780   41.0240 H   0  0  0  0  0  0  0  0  0  0  0  0
  1  2  1  0  0  0  0
  1  3  1  0  0  0  0
  4  5  1  0  0  0  0
  5  1  1  0  0  0  0
  6  7  1  0  0  0  0
  6  5  2  0  0  0  0
  8  6  1  0  0  0  0
  9  8  1  0  0  0  0
 10 12  2  0  0  0  0
 10  9  1  0  0  0  0
 11 10  1  0  0  0  0
 12 13  1  0  0  0  0
 13  8  2  0  0  0  0
 13 14  1  0  0  0  0
 14  4  2  0  0  0  0
 15  9  1  0  0  0  0
 16 17  1  0  0  0  0
 16  1  1  0  0  0  0
 17 22  1  0  0  0  0
 18 23  1  0  0  0  0
 18 17  2  0  0  0  0
 19 18  1  0  0  0  0
 20 21  1  0  0  0  0
 20 19  2  0  0  0  0
 21 16  2  0  0  0  0
 24 20  1  0  0  0  0
M  END
>  <minimizedAffinity>
-4.94097805

$$$$

 OpenBabel03252500403D

 24 26  0  0  0  0  0  0  0  0999 V2000
   37.6580   28.4620   43.6770 C   0  0  0  0  0  0  0  0  0  0  0  0
   38.4020   28.5520   44.4890 H   0  0  0  0  0  0  0  0  0  0  0  0
   36.6650   28.5320   44.1350 H   0  0  0  0  0  0  0  0  0  0  0  0
   39.1310   26.5840   43.3000 C   0  0  0  0  0  3  0  0  0  0  0  0
   37.8710   27.1280   43.0570 C   0  0  0  0  0  0  0  0  0  0  0  0
   36.9930   26.3990   42.2970 C   0  0  0  0  0  0  0  0  0  0  0  0
   36.0440   26.8570   42.1390 H   0  0  0  0  0  0  0  0  0  0  0  0
   37.3760   25.1700   41.8040 C   0  0  0  0  0  0  0  0  0  0  0  0
   36.7110   24.2770   41.0480 N   0  0  0  0  0  0  0  0  0  0  0  0
   37.5080   23.2180   40.8210 C   0  0  0  0  0  0  0  0  0  0  0  0
   37.2870   22.3160   40.2460 H   0  0  0  0  0  0  0  0  0  0  0  0
   38.6700   23.4710   41.4480 N   0  0  0  0  0  0  0  0  0  0  0  0
   38.6300   24.6490   42.0580 C   0  0  0  0  0  0  0  0  0  0  0  0
   39.5370   25.3630   42.8220 C   0  0  0  0  0  3  0  0  0  0  0  0
   35.7270   24.3730   40.6820 H   0  0  0  0  0  0  0  0  0  0  0  0
   37.8600   29.5530   42.6640 C   0  0  0  0  0  0  0  0  0  0  0  0
   39.1070   30.1710   42.6720 C   0  0  0  0  0  0  0  0  0  0  0  0
   39.3370   31.2020   41.7360 C   0  0  0  0  0  0  0  0  0  0  0  0
   38.3230   31.5160   40.8940 N   0  0  0  0  0  0  0  0  0  0  0  0
   37.1220   30.8860   40.9220 C   0  0  0  0  0  0  0  0  0  0  0  0
   36.8930   29.8970   41.8150 N   0  0  0  0  0  0  0  0  0  0  0  0
   39.8790   29.8830   43.3650 H   0  0  0  0  0  0  0  0  0  0  0  0
   40.2940   31.7050   41.7140 H   0  0  0  0  0  0  0  0  0  0  0  0
   36.3790   31.2160   40.2020 H   0  0  0  0  0  0  0  0  0  0  0  0
  1  3  1  0  0  0  0
  1  2  1  0  0  0  0
  5  4  1  0  0  0  0
  5  1  1  0  0  0  0
  6  5  2  0  0  0  0
  7  6  1  0  0  0  0
  8 13  2  0  0  0  0
  8  6  1  0  0  0  0
  9  8  1  0  0  0  0
 10  9  1  0  0  0  0
 10 12  2  0  0  0  0
 11 10  1  0  0  0  0
 12 13  1  0  0  0  0
 13 14  1  0  0  0  0
 14  4  2  0  0  0  0
 15  9  1  0  0  0  0
 16 17  1  0  0  0  0
 16  1  1  0  0  0  0
 17 22  1  0  0  0  0
 18 17  2  0  0  0  0
 19 20  2  0  0  0  0
 19 18  1  0  0  0  0
 20 21  1  0  0  0  0
 21 16  2  0  0  0  0
 23 18  1  0  0  0  0
 24 20  1  0  0  0  0
M  END
>  <minimizedAffinity>
-4.86799955

$$$$

 OpenBabel03252500403D

 24 26  0  0  0  0  0  0  0  0999 V2000
   36.9550   31.7190   39.1110 C   0  0  0  0  0  0  0  0  0  0  0  0
   36.1190   32.3970   39.3610 H   0  0  0  0  0  0  0  0  0  0  0  0
   36.8020   31.3800   38.0800 H   0  0  0  0  0  0  0  0  0  0  0  0
   36.4260   29.3930   39.5000 C   0  0  0  0  0  3  0  0  0  0  0  0
   36.8770   30.5840   40.0670 C   0  0  0  0  0  0  0  0  0  0  0  0
   37.1900   30.5810   41.4020 C   0  0  0  0  0  0  0  0  0  0  0  0
   37.5290   31.5140   41.7890 H   0  0  0  0  0  0  0  0  0  0  0  0
   37.0510   29.4190   42.1320 C   0  0  0  0  0  0  0  0  0  0  0  0
   37.2880   29.1610   43.4310 N   0  0  0  0  0  0  0  0  0  0  0  0
   37.0010   27.8710   43.6780 C   0  0  0  0  0  0  0  0  0  0  0  0
   37.0800   27.3300   44.6250 H   0  0  0  0  0  0  0  0  0  0  0  0
   36.5870   27.3400   42.5150 N   0  0  0  0  0  0  0  0  0  0  0  0
   36.6020   28.2500   41.5500 C   0  0  0  0  0  0  0  0  0  0  0  0
   36.2790   28.2240   40.2030 C   0  0  0  0  0  3  0  0  0  0  0  0
   37.6400   29.8440   44.1530 H   0  0  0  0  0  0  0  0  0  0  0  0
   38.2660   32.4390   39.2520 C   0  0  0  0  0  0  0  0  0  0  0  0
   39.3480   31.8760   38.5810 C   0  0  0  0  0  0  0  0  0  0  0  0
   40.5980   32.5220   38.6890 C   0  0  0  0  0  0  0  0  0  0  0  0
   40.6540   33.6480   39.4410 N   0  0  0  0  0  0  0  0  0  0  0  0
   39.5730   34.1610   40.0780 C   0  0  0  0  0  0  0  0  0  0  0  0
   38.3710   33.5490   39.9800 N   0  0  0  0  0  0  0  0  0  0  0  0
   39.2480   30.9780   37.9960 H   0  0  0  0  0  0  0  0  0  0  0  0
   41.4600   32.1130   38.1810 H   0  0  0  0  0  0  0  0  0  0  0  0
   39.7280   35.0690   40.6540 H   0  0  0  0  0  0  0  0  0  0  0  0
  1 16  1  0  0  0  0
  1  2  1  0  0  0  0
  1  5  1  0  0  0  0
  3  1  1  0  0  0  0
  4  5  2  0  0  0  0
  4 14  1  0  0  0  0
  5  6  1  0  0  0  0
  6  7  1  0  0  0  0
  6  8  2  0  0  0  0
  8  9  1  0  0  0  0
  9 10  1  0  0  0  0
  9 15  1  0  0  0  0
 10 11  1  0  0  0  0
 12 10  2  0  0  0  0
 13  8  1  0  0  0  0
 13 12  1  0  0  0  0
 14 13  2  0  0  0  0
 16 21  1  0  0  0  0
 17 18  1  0  0  0  0
 17 16  2  0  0  0  0
 18 19  2  0  0  0  0
 19 20  1  0  0  0  0
 20 24  1  0  0  0  0
 21 20  2  0  0  0  0
 22 17  1  0  0  0  0
 23 18  1  0  0  0  0
M  END
>  <minimizedAffinity>
-4.84783649

$$$$

 OpenBabel03252500403D

 24 26  0  0  0  0  0  0  0  0999 V2000
   36.7690   27.3430   43.0290 C   0  0  0  0  0  0  0  0  0  0  0  0
   35.7070   27.0500   43.1130 H   0  0  0  0  0  0  0  0  0  0  0  0
   37.1160   27.6020   44.0360 H   0  0  0  0  0  0  0  0  0  0  0  0
   35.8130   28.5280   41.1520 C   0  0  0  0  0  3  0  0  0  0  0  0
   36.8100   28.5230   42.1270 C   0  0  0  0  0  0  0  0  0  0  0  0
   37.6930   29.5720   42.1470 C   0  0  0  0  0  0  0  0  0  0  0  0
   38.4350   29.5230   42.9090 H   0  0  0  0  0  0  0  0  0  0  0  0
   37.5700   30.5840   41.2180 C   0  0  0  0  0  0  0  0  0  0  0  0
   38.2950   31.7020   41.0310 N   0  0  0  0  0  0  0  0  0  0  0  0
   37.7870   32.3830   39.9900 C   0  0  0  0  0  0  0  0  0  0  0  0
   38.1310   33.3310   39.5690 H   0  0  0  0  0  0  0  0  0  0  0  0
   36.7390   31.6710   39.5410 N   0  0  0  0  0  0  0  0  0  0  0  0
   36.5740   30.5690   40.2610 C   0  0  0  0  0  0  0  0  0  0  0  0
   35.6690   29.5220   40.2170 C   0  0  0  0  0  3  0  0  0  0  0  0
   39.1300   32.0110   41.5970 H   0  0  0  0  0  0  0  0  0  0  0  0
   37.5750   26.2120   42.4570 C   0  0  0  0  0  0  0  0  0  0  0  0
   36.8640   25.0650   42.1160 C   0  0  0  0  0  0  0  0  0  0  0  0
   37.5850   23.9790   41.5750 C   0  0  0  0  0  0  0  0  0  0  0  0
   38.9240   24.1330   41.4270 N   0  0  0  0  0  0  0  0  0  0  0  0
   39.5760   25.2700   41.7740 C   0  0  0  0  0  0  0  0  0  0  0  0
   38.8930   26.3160   42.2920 N   0  0  0  0  0  0  0  0  0  0  0  0
   35.7990   24.9960   42.2550 H   0  0  0  0  0  0  0  0  0  0  0  0
   37.0660   23.0730   41.2990 H   0  0  0  0  0  0  0  0  0  0  0  0
   40.6500   25.2880   41.6130 H   0  0  0  0  0  0  0  0  0  0  0  0
  1  2  1  0  0  0  0
  1  3  1  0  0  0  0
  4  5  1  0  0  0  0
  5  6  2  0  0  0  0
  5  1  1  0  0  0  0
  6  7  1  0  0  0  0
  8  6  1  0  0  0  0
  9  8  1  0  0  0  0
  9 15  1  0  0  0  0
 10  9  1  0  0  0  0
 11 10  1  0  0  0  0
 12 10  2  0  0  0  0
 12 13  1  0  0  0  0
 13  8  2  0  0  0  0
 14 13  1  0  0  0  0
 14  4  2  0  0  0  0
 16  1  1  0  0  0  0
 17 22  1  0  0  0  0
 17 16  2  0  0  0  0
 18 17  1  0  0  0  0
 19 18  2  0  0  0  0
 19 20  1  0  0  0  0
 20 21  2  0  0  0  0
 21 16  1  0  0  0  0
 23 18  1  0  0  0  0
 24 20  1  0  0  0  0
M  END
>  <minimizedAffinity>
-4.81001759

$$$$

 OpenBabel03252500403D

 24 26  0  0  0  0  0  0  0  0999 V2000
   35.5930   28.8250   40.9820 C   0  0  0  0  0  0  0  0  0  0  0  0
   35.0880   29.3240   41.8280 H   0  0  0  0  0  0  0  0  0  0  0  0
   34.8370   28.2340   40.4540 H   0  0  0  0  0  0  0  0  0  0  0  0
   37.1250   28.3990   42.8020 C   0  0  0  0  0  3  0  0  0  0  0  0
   36.6410   27.9530   41.5740 C   0  0  0  0  0  0  0  0  0  0  0  0
   37.1670   26.7960   41.0580 C   0  0  0  0  0  0  0  0  0  0  0  0
   36.7660   26.4970   40.1170 H   0  0  0  0  0  0  0  0  0  0  0  0
   38.1430   26.1200   41.7600 C   0  0  0  0  0  0  0  0  0  0  0  0
   38.8060   24.9830   41.4760 N   0  0  0  0  0  0  0  0  0  0  0  0
   39.6680   24.7200   42.4730 C   0  0  0  0  0  0  0  0  0  0  0  0
   40.3600   23.8790   42.5640 H   0  0  0  0  0  0  0  0  0  0  0  0
   39.5260   25.7070   43.3740 N   0  0  0  0  0  0  0  0  0  0  0  0
   38.6070   26.5790   42.9770 C   0  0  0  0  0  0  0  0  0  0  0  0
   38.0940   27.7450   43.5210 C   0  0  0  0  0  3  0  0  0  0  0  0
   38.6850   24.3840   40.6160 H   0  0  0  0  0  0  0  0  0  0  0  0
   36.2100   29.8480   40.0700 C   0  0  0  0  0  0  0  0  0  0  0  0
   36.4690   31.0930   40.6350 C   0  0  0  0  0  0  0  0  0  0  0  0
   37.0480   32.0820   39.8110 C   0  0  0  0  0  0  0  0  0  0  0  0
   37.3100   31.7450   38.5240 N   0  0  0  0  0  0  0  0  0  0  0  0
   37.0400   30.5170   38.0160 C   0  0  0  0  0  0  0  0  0  0  0  0
   36.4860   29.5630   38.7980 N   0  0  0  0  0  0  0  0  0  0  0  0
   36.2400   31.3080   41.6640 H   0  0  0  0  0  0  0  0  0  0  0  0
   37.2630   33.0610   40.2150 H   0  0  0  0  0  0  0  0  0  0  0  0
   37.2910   30.3520   36.9720 H   0  0  0  0  0  0  0  0  0  0  0  0
  1  5  1  0  0  0  0
  1  2  1  0  0  0  0
  3  1  1  0  0  0  0
  4 14  1  0  0  0  0
  5  4  2  0  0  0  0
  6  5  1  0  0  0  0
  6  8  2  0  0  0  0
  7  6  1  0  0  0  0
  8 13  1  0  0  0  0
  9  8  1  0  0  0  0
  9 10  1  0  0  0  0
 10 11  1  0  0  0  0
 10 12  2  0  0  0  0
 13 12  1  0  0  0  0
 13 14  2  0  0  0  0
 15  9  1  0  0  0  0
 16 17  1  0  0  0  0
 16  1  1  0  0  0  0
 17 22  1  0  0  0  0
 18 23  1  0  0  0  0
 18 17  2  0  0  0  0
 19 18  1  0  0  0  0
 20 19  2  0  0  0  0
 20 21  1  0  0  0  0
 21 16  2  0  0  0  0
 24 20  1  0  0  0  0
M  END
>  <minimizedAffinity>
-4.70924902

$$$$

 OpenBabel03252500403D

 24 26  0  0  0  0  0  0  0  0999 V2000
   37.1210   28.0970   43.2480 C   0  0  0  0  0  0  0  0  0  0  0  0
   36.0910   27.8820   42.9100 H   0  0  0  0  0  0  0  0  0  0  0  0
   37.0750   28.3080   44.3220 H   0  0  0  0  0  0  0  0  0  0  0  0
   36.6730   29.7170   41.5110 C   0  0  0  0  0  3  0  0  0  0  0  0
   37.5730   29.2900   42.4850 C   0  0  0  0  0  0  0  0  0  0  0  0
   38.7420   29.9920   42.6310 C   0  0  0  0  0  0  0  0  0  0  0  0
   39.3980   29.6270   43.3870 H   0  0  0  0  0  0  0  0  0  0  0  0
   38.9880   31.0820   41.8220 C   0  0  0  0  0  0  0  0  0  0  0  0
   40.0380   31.9210   41.7680 N   0  0  0  0  0  0  0  0  0  0  0  0
   39.8170   32.8350   40.8080 C   0  0  0  0  0  0  0  0  0  0  0  0
   40.4630   33.6610   40.4990 H   0  0  0  0  0  0  0  0  0  0  0  0
   38.6180   32.5490   40.2740 N   0  0  0  0  0  0  0  0  0  0  0  0
   38.0810   31.4880   40.8630 C   0  0  0  0  0  0  0  0  0  0  0  0
   36.8920   30.7980   40.6940 C   0  0  0  0  0  3  0  0  0  0  0  0
   40.9030   31.8840   42.3700 H   0  0  0  0  0  0  0  0  0  0  0  0
   38.0150   26.9220   42.9680 C   0  0  0  0  0  0  0  0  0  0  0  0
   37.6130   26.0810   41.9350 C   0  0  0  0  0  0  0  0  0  0  0  0
   38.4260   24.9640   41.6410 C   0  0  0  0  0  0  0  0  0  0  0  0
   39.5420   24.7920   42.3910 N   0  0  0  0  0  0  0  0  0  0  0  0
   39.8940   25.6390   43.3900 C   0  0  0  0  0  0  0  0  0  0  0  0
   39.1220   26.7110   43.6780 N   0  0  0  0  0  0  0  0  0  0  0  0
   36.7160   26.2640   41.3700 H   0  0  0  0  0  0  0  0  0  0  0  0
   38.1450   24.2890   40.8450 H   0  0  0  0  0  0  0  0  0  0  0  0
   40.8090   25.4080   43.9280 H   0  0  0  0  0  0  0  0  0  0  0  0
  1  3  1  0  0  0  0
  2  1  1  0  0  0  0
  4  5  1  0  0  0  0
  5  6  2  0  0  0  0
  5  1  1  0  0  0  0
  6  7  1  0  0  0  0
  8  6  1  0  0  0  0
  9  8  1  0  0  0  0
  9 15  1  0  0  0  0
 10  9  1  0  0  0  0
 11 10  1  0  0  0  0
 12 10  2  0  0  0  0
 12 13  1  0  0  0  0
 13  8  2  0  0  0  0
 14 13  1  0  0  0  0
 14  4  2  0  0  0  0
 16  1  1  0  0  0  0
 16 21  1  0  0  0  0
 17 16  2  0  0  0  0
 18 17  1  0  0  0  0
 18 19  2  0  0  0  0
 19 20  1  0  0  0  0
 20 21  2  0  0  0  0
 20 24  1  0  0  0  0
 22 17  1  0  0  0  0
 23 18  1  0  0  0  0
M  END
>  <minimizedAffinity>
-4.68668461

$$$$

 OpenBabel03252500403D

 24 26  0  0  0  0  0  0  0  0999 V2000
   36.3900   28.5510   39.3190 C   0  0  0  0  0  0  0  0  0  0  0  0
   36.6890   28.1200   38.3460 H   0  0  0  0  0  0  0  0  0  0  0  0
   35.3040   28.6930   39.2930 H   0  0  0  0  0  0  0  0  0  0  0  0
   38.4550   29.7900   39.1180 C   0  0  0  0  0  3  0  0  0  0  0  0
   37.1010   29.8500   39.4390 C   0  0  0  0  0  0  0  0  0  0  0  0
   36.5840   31.0620   39.8200 C   0  0  0  0  0  0  0  0  0  0  0  0
   35.5460   31.0580   40.0550 H   0  0  0  0  0  0  0  0  0  0  0  0
   37.4080   32.1670   39.8720 C   0  0  0  0  0  0  0  0  0  0  0  0
   37.1500   33.4450   40.2080 N   0  0  0  0  0  0  0  0  0  0  0  0
   38.2830   34.1600   40.1060 C   0  0  0  0  0  0  0  0  0  0  0  0
   38.4310   35.2250   40.3030 H   0  0  0  0  0  0  0  0  0  0  0  0
   39.2410   33.3080   39.7020 N   0  0  0  0  0  0  0  0  0  0  0  0
   38.7490   32.0850   39.5490 C   0  0  0  0  0  0  0  0  0  0  0  0
   39.2960   30.8730   39.1610 C   0  0  0  0  0  3  0  0  0  0  0  0
   36.2190   33.8390   40.5060 H   0  0  0  0  0  0  0  0  0  0  0  0
   36.7850   27.6280   40.4380 C   0  0  0  0  0  0  0  0  0  0  0  0
   36.4370   28.0400   41.7210 C   0  0  0  0  0  0  0  0  0  0  0  0
   36.7900   27.2010   42.8000 C   0  0  0  0  0  0  0  0  0  0  0  0
   37.4460   26.0520   42.5060 N   0  0  0  0  0  0  0  0  0  0  0  0
   37.7650   25.6910   41.2390 C   0  0  0  0  0  0  0  0  0  0  0  0
   37.4300   26.4870   40.1990 N   0  0  0  0  0  0  0  0  0  0  0  0
   35.9150   28.9640   41.8990 H   0  0  0  0  0  0  0  0  0  0  0  0
   36.5360   27.4890   43.8100 H   0  0  0  0  0  0  0  0  0  0  0  0
   38.2910   24.7480   41.1150 H   0  0  0  0  0  0  0  0  0  0  0  0
  1  5  1  0  0  0  0
  1 16  1  0  0  0  0
  2  1  1  0  0  0  0
  3  1  1  0  0  0  0
  4 14  2  0  0  0  0
  4  5  1  0  0  0  0
  5  6  2  0  0  0  0
  6  8  1  0  0  0  0
  6  7  1  0  0  0  0
  8  9  1  0  0  0  0
  9 15  1  0  0  0  0
 10  9  1  0  0  0  0
 10 11  1  0  0  0  0
 12 10  2  0  0  0  0
 13 12  1  0  0  0  0
 13  8  2  0  0  0  0
 14 13  1  0  0  0  0
 16 17  1  0  0  0  0
 17 22  1  0  0  0  0
 17 18  2  0  0  0  0
 18 23  1  0  0  0  0
 19 18  1  0  0  0  0
 20 19  2  0  0  0  0
 21 16  2  0  0  0  0
 21 20  1  0  0  0  0
 24 20  1  0  0  0  0
M  END
>  <minimizedAffinity>
-4.63912058

$$$$

 OpenBabel03252500403D

 24 26  0  0  0  0  0  0  0  0999 V2000
   36.5630   28.0640   42.5480 C   0  0  0  0  0  0  0  0  0  0  0  0
   36.6480   27.8040   43.6190 H   0  0  0  0  0  0  0  0  0  0  0  0
   35.5220   28.3500   42.3630 H   0  0  0  0  0  0  0  0  0  0  0  0
   36.7130   26.9380   40.4150 C   0  0  0  0  0  3  0  0  0  0  0  0
   36.9270   26.8390   41.7890 C   0  0  0  0  0  0  0  0  0  0  0  0
   37.4320   25.6610   42.2770 C   0  0  0  0  0  0  0  0  0  0  0  0
   37.5770   25.6340   43.3320 H   0  0  0  0  0  0  0  0  0  0  0  0
   37.7090   24.6270   41.4080 C   0  0  0  0  0  0  0  0  0  0  0  0
   38.2020   23.3940   41.6330 N   0  0  0  0  0  0  0  0  0  0  0  0
   38.2960   22.7420   40.4610 C   0  0  0  0  0  0  0  0  0  0  0  0
   38.6550   21.7260   40.2800 H   0  0  0  0  0  0  0  0  0  0  0  0
   37.8570   23.5890   39.5140 N   0  0  0  0  0  0  0  0  0  0  0  0
   37.4900   24.7460   40.0500 C   0  0  0  0  0  0  0  0  0  0  0  0
   36.9810   25.9240   39.5290 C   0  0  0  0  0  3  0  0  0  0  0  0
   38.4740   22.9880   42.5670 H   0  0  0  0  0  0  0  0  0  0  0  0
   37.5000   29.1900   42.2120 C   0  0  0  0  0  0  0  0  0  0  0  0
   38.7130   29.2000   42.8920 C   0  0  0  0  0  0  0  0  0  0  0  0
   39.6210   30.2430   42.6050 C   0  0  0  0  0  0  0  0  0  0  0  0
   39.2410   31.1620   41.6840 N   0  0  0  0  0  0  0  0  0  0  0  0
   38.0460   31.1130   41.0450 C   0  0  0  0  0  0  0  0  0  0  0  0
   37.1710   30.1180   41.3140 N   0  0  0  0  0  0  0  0  0  0  0  0
   38.9650   28.4440   43.6160 H   0  0  0  0  0  0  0  0  0  0  0  0
   40.5730   30.2820   43.1150 H   0  0  0  0  0  0  0  0  0  0  0  0
   37.8420   31.9000   40.3250 H   0  0  0  0  0  0  0  0  0  0  0  0
  1  2  1  0  0  0  0
  3  1  1  0  0  0  0
  4  5  1  0  0  0  0
  5  6  2  0  0  0  0
  5  1  1  0  0  0  0
  6  7  1  0  0  0  0
  8  9  1  0  0  0  0
  8  6  1  0  0  0  0
  9 15  1  0  0  0  0
 10  9  1  0  0  0  0
 11 10  1  0  0  0  0
 12 13  1  0  0  0  0
 12 10  2  0  0  0  0
 13  8  2  0  0  0  0
 14 13  1  0  0  0  0
 14  4  2  0  0  0  0
 16  1  1  0  0  0  0
 16 17  1  0  0  0  0
 17 22  1  0  0  0  0
 18 17  2  0  0  0  0
 18 23  1  0  0  0  0
 19 18  1  0  0  0  0
 20 21  1  0  0  0  0
 20 19  2  0  0  0  0
 21 16  2  0  0  0  0
 24 20  1  0  0  0  0
M  END
>  <minimizedAffinity>
-4.53598404

$$$$
