
 OpenBabel03252509003D

 48 51  0  0  1  0  0  0  0  0999 V2000
   46.6480   34.5650   43.5280 N   0  0  0  0  0  0  0  0  0  0  0  0
   46.1380   35.5730   42.6710 C   0  0  0  0  0  0  0  0  0  0  0  0
   44.6400   35.7360   42.6790 C   0  0  0  0  0  0  0  0  0  0  0  0
   43.9870   35.4380   44.0030 C   0  0  0  0  0  0  0  0  0  0  0  0
   45.0080   35.1400   45.0750 C   0  0  0  0  0  0  0  0  0  0  0  0
   45.8310   33.9470   44.4630 C   0  0  2  0  0  0  0  0  0  0  0  0
   46.4570   35.5270   41.6280 H   0  0  0  0  0  0  0  0  0  0  0  0
   46.5470   36.5510   43.0660 H   0  0  0  0  0  0  0  0  0  0  0  0
   44.4110   36.7910   42.3510 H   0  0  0  0  0  0  0  0  0  0  0  0
   44.2070   35.0780   41.8890 H   0  0  0  0  0  0  0  0  0  0  0  0
   43.4080   36.3230   44.3440 H   0  0  0  0  0  0  0  0  0  0  0  0
   43.3100   34.5790   43.9190 H   0  0  0  0  0  0  0  0  0  0  0  0
   44.5070   34.7560   45.9690 H   0  0  0  0  0  0  0  0  0  0  0  0
   45.7020   35.9620   45.2540 H   0  0  0  0  0  0  0  0  0  0  0  0
   45.0850   33.2020   44.0990 H   0  0  0  0  0  0  0  0  0  0  0  0
   47.7490   33.8300   42.9800 C   0  0  0  0  0  0  0  0  0  0  0  0
   48.3040   33.3300   43.8140 H   0  0  0  0  0  0  0  0  0  0  0  0
   48.4400   34.5070   42.4730 H   0  0  0  0  0  0  0  0  0  0  0  0
   47.2120   32.7290   42.1150 C   0  0  0  0  0  0  0  0  0  0  0  0
   46.1090   32.8170   42.0120 H   0  0  0  0  0  0  0  0  0  0  0  0
   47.4170   31.7100   42.4910 H   0  0  0  0  0  0  0  0  0  0  0  0
   49.0590   31.9840   38.9310 C   0  0  0  0  0  0  0  0  0  0  0  0
   48.5320   31.8630   40.2290 C   0  0  0  0  0  0  0  0  0  0  0  0
   47.7600   32.8750   40.7420 C   0  0  0  0  0  0  0  0  0  0  0  0
   47.5440   33.9450   39.9670 N   0  0  0  0  0  0  0  0  0  0  0  0
   48.0460   34.0630   38.7270 C   0  0  0  0  0  0  0  0  0  0  0  0
   48.8040   33.0910   38.1970 N   0  0  0  0  0  0  0  0  0  0  0  0
   49.6710   31.2180   38.4800 H   0  0  0  0  0  0  0  0  0  0  0  0
   48.7450   30.9830   40.7900 H   0  0  0  0  0  0  0  0  0  0  0  0
   47.8030   34.9760   38.1940 H   0  0  0  0  0  0  0  0  0  0  0  0
   46.5520   33.5160   45.5700 O   0  0  0  0  0  0  0  0  0  0  0  0
   45.6180   31.1510   44.8170 O   0  0  0  0  0  0  0  0  0  0  0  0
   46.2150   31.9170   45.9810 P   0  0  2  0  0  0  0  0  0  0  0  0
   44.9720   31.9850   47.1580 O   0  0  0  0  0  0  0  0  0  0  0  0
   45.3730   31.9150   48.0600 H   0  0  0  0  0  0  0  0  0  0  0  0
   47.5400   31.1710   46.6620 O   0  0  0  0  0  0  0  0  0  0  0  0
   48.9720   29.3860   47.2440 C   0  0  0  0  0  3  0  0  0  0  0  0
   47.6750   29.8530   47.0010 C   0  0  0  0  0  0  0  0  0  0  0  0
   46.6270   28.9620   47.1200 C   0  0  0  0  0  0  0  0  0  0  0  0
   45.6120   29.3180   46.9320 H   0  0  0  0  0  0  0  0  0  0  0  0
   46.8860   27.6340   47.4730 C   0  0  0  0  0  0  0  0  0  0  0  0
   46.0310   26.5900   47.6480 N   0  0  0  0  0  0  0  0  0  0  0  0
   46.7260   25.4840   47.9890 C   0  0  0  0  0  0  0  0  0  0  0  0
   46.2800   24.5180   48.1850 H   0  0  0  0  0  0  0  0  0  0  0  0
   48.0280   25.8460   48.0270 N   0  0  0  0  0  0  0  0  0  0  0  0
   48.1600   27.1600   47.7150 C   0  0  0  0  0  0  0  0  0  0  0  0
   49.1980   28.0610   47.5940 C   0  0  0  0  0  3  0  0  0  0  0  0
   45.0000   26.6760   47.5250 H   0  0  0  0  0  0  0  0  0  0  0  0
  1  6  1  0  0  0  0
  2  3  1  0  0  0  0
  2  8  1  0  0  0  0
  2  1  1  0  0  0  0
  3  4  1  0  0  0  0
  4 11  1  0  0  0  0
  4  5  1  0  0  0  0
  5 14  1  0  0  0  0
  5 13  1  0  0  0  0
  6 15  1  6  0  0  0
  6  5  1  0  0  0  0
  6 31  1  0  0  0  0
  7  2  1  0  0  0  0
  9  3  1  0  0  0  0
 10  3  1  0  0  0  0
 12  4  1  0  0  0  0
 16  1  1  0  0  0  0
 16 17  1  0  0  0  0
 18 16  1  0  0  0  0
 19 21  1  0  0  0  0
 19 16  1  0  0  0  0
 20 19  1  0  0  0  0
 22 23  1  0  0  0  0
 23 24  2  0  0  0  0
 23 29  1  0  0  0  0
 24 19  1  0  0  0  0
 25 24  1  0  0  0  0
 26 25  2  0  0  0  0
 27 26  1  0  0  0  0
 27 22  2  0  0  0  0
 28 22  1  0  0  0  0
 30 26  1  0  0  0  0
 31 33  1  0  0  0  0
 33 32  2  6  0  0  0
 33 36  1  0  0  0  0
 33 34  1  0  0  0  0
 34 35  1  0  0  0  0
 36 38  1  0  0  0  0
 37 47  1  0  0  0  0
 38 39  1  0  0  0  0
 38 37  2  0  0  0  0
 39 41  2  0  0  0  0
 40 39  1  0  0  0  0
 41 42  1  0  0  0  0
 41 46  1  0  0  0  0
 42 43  1  0  0  0  0
 43 45  2  0  0  0  0
 43 44  1  0  0  0  0
 46 45  1  0  0  0  0
 47 46  2  0  0  0  0
 48 42  1  0  0  0  0
M  END
>  <minimizedAffinity>
-4.6617794

>  <minimizedRMSD>
1.4889493

$$$$
