
 OpenBabel03242523333D

 40 44  0  0  0  0  0  0  0  0999 V2000
   45.5620   33.1230   46.5220 C   0  0  0  0  0  0  0  0  0  0  0  0
   45.8410   33.6100   47.4570 H   0  0  0  0  0  0  0  0  0  0  0  0
   44.5710   32.6110   46.6780 H   0  0  0  0  0  0  0  0  0  0  0  0
   44.4180   36.2430   44.8430 C   0  0  0  0  0  0  0  0  0  0  0  0
   45.0420   36.1160   43.5830 C   0  0  0  0  0  0  0  0  0  0  0  0
   45.8220   34.9800   43.3550 C   0  0  0  0  0  0  0  0  0  0  0  0
   45.9550   34.0510   44.3300 N   0  0  0  0  0  0  0  0  0  0  0  0
   45.3380   34.2070   45.5330 C   0  0  0  0  0  0  0  0  0  0  0  0
   44.5870   35.2860   45.7740 N   0  0  0  0  0  0  0  0  0  0  0  0
   43.8140   37.1270   45.0140 H   0  0  0  0  0  0  0  0  0  0  0  0
   44.9320   36.8510   42.8210 H   0  0  0  0  0  0  0  0  0  0  0  0
   47.8280   35.1340   41.9860 C   0  0  0  0  0  0  0  0  0  0  0  0
   46.5140   34.7380   42.0950 C   0  0  0  0  0  0  0  0  0  0  0  0
   45.9520   34.1420   40.9990 C   0  0  0  0  0  0  0  0  0  0  0  0
   44.9230   33.8180   41.0460 H   0  0  0  0  0  0  0  0  0  0  0  0
   46.6410   33.9300   39.8230 C   0  0  0  0  0  0  0  0  0  0  0  0
   46.3170   33.3760   38.6270 N   0  0  0  0  0  0  0  0  0  0  0  0
   47.4220   33.4430   37.8290 C   0  0  0  0  0  0  0  0  0  0  0  0
   47.5260   33.0930   36.8020 H   0  0  0  0  0  0  0  0  0  0  0  0
   48.4470   34.0300   38.4860 N   0  0  0  0  0  0  0  0  0  0  0  0
   47.9580   34.3250   39.7100 C   0  0  0  0  0  0  0  0  0  0  0  0
   48.5100   34.9210   40.8120 C   0  0  0  0  0  0  0  0  0  0  0  0
   45.3920   32.9720   38.3680 H   0  0  0  0  0  0  0  0  0  0  0  0
   46.7950   32.0000   45.8430 S   0  0  0  0  0  0  0  0  0  0  0  0
   47.7320   31.2280   47.1500 C   0  0  0  0  0  0  0  0  0  0  0  0
   47.9800   31.9730   48.2820 C   0  0  0  0  0  0  0  0  0  0  0  0
   48.7080   31.3900   49.2930 C   0  0  0  0  0  0  0  0  0  0  0  0
   49.1880   30.0960   49.2010 C   0  0  0  0  0  0  0  0  0  0  0  0
   49.9020   29.5560   50.2100 N   0  0  0  0  0  0  0  0  0  0  0  0
   50.3750   28.2990   50.1260 C   0  0  0  0  0  0  0  0  0  0  0  0
   50.1390   27.5520   49.0170 C   0  0  0  0  0  0  0  0  0  0  0  0
   49.4130   28.0990   47.9930 C   0  0  0  0  0  0  0  0  0  0  0  0
   48.8980   29.4040   48.0310 C   0  0  0  0  0  0  0  0  0  0  0  0
   48.1760   29.9400   46.9920 C   0  0  0  0  0  0  0  0  0  0  0  0
   47.6720   32.9840   48.4880 H   0  0  0  0  0  0  0  0  0  0  0  0
   48.9460   31.9140   50.2200 H   0  0  0  0  0  0  0  0  0  0  0  0
   50.9520   27.8440   50.9250 H   0  0  0  0  0  0  0  0  0  0  0  0
   50.5000   26.5400   48.9120 H   0  0  0  0  0  0  0  0  0  0  0  0
   49.2100   27.5170   47.0890 H   0  0  0  0  0  0  0  0  0  0  0  0
   47.9780   29.3600   46.1030 H   0  0  0  0  0  0  0  0  0  0  0  0
  1  3  1  0  0  0  0
  1  2  1  0  0  0  0
  4 10  1  0  0  0  0
  4  9  1  0  0  0  0
  5  4  2  0  0  0  0
  6  5  1  0  0  0  0
  6  7  2  0  0  0  0
  7  8  1  0  0  0  0
  8  9  2  0  0  0  0
  8  1  1  0  0  0  0
 11  5  1  0  0  0  0
 12 13  1  0  0  0  0
 13  6  1  0  0  0  0
 14 15  1  0  0  0  0
 14 13  2  0  0  0  0
 16 14  1  0  0  0  0
 17 16  1  0  0  0  0
 18 20  2  0  0  0  0
 18 17  1  0  0  0  0
 19 18  1  0  0  0  0
 20 21  1  0  0  0  0
 21 16  2  0  0  0  0
 21 22  1  0  0  0  0
 22 12  2  0  0  0  0
 23 17  1  0  0  0  0
 24  1  1  0  0  0  0
 24 25  1  0  0  0  0
 25 26  1  0  0  0  0
 26 35  1  0  0  0  0
 26 27  2  0  0  0  0
 27 36  1  0  0  0  0
 28 27  1  0  0  0  0
 28 29  1  0  0  0  0
 30 29  2  0  0  0  0
 30 37  1  0  0  0  0
 31 30  1  0  0  0  0
 32 33  1  0  0  0  0
 32 31  2  0  0  0  0
 33 28  2  0  0  0  0
 34 25  2  0  0  0  0
 34 33  1  0  0  0  0
 38 31  1  0  0  0  0
 39 32  1  0  0  0  0
 40 34  1  0  0  0  0
M  END
>  <minimizedAffinity>
-7.00924253

>  <minimizedRMSD>
1.04612231

$$$$
