
 OpenBabel03252503343D

 25 27  0  0  0  0  0  0  0  0999 V2000
   46.1280   33.9820   40.8310 C   0  0  0  0  0  0  0  0  0  0  0  0
   45.0260   33.4330   41.1040 O   0  0  0  0  0  0  0  0  0  0  0  0
   46.6390   34.7860   41.8820 N   0  0  0  0  0  0  0  0  0  0  0  0
   47.5070   35.3510   41.7630 H   0  0  0  0  0  0  0  0  0  0  0  0
   48.0450   34.4190   39.2550 C   0  0  0  0  0  3  0  0  0  0  0  0
   46.8380   33.8270   39.5650 C   0  0  0  0  0  0  0  0  0  0  0  0
   46.2600   33.0240   38.5940 C   0  0  0  0  0  0  0  0  0  0  0  0
   45.3190   32.4950   38.6900 H   0  0  0  0  0  0  0  0  0  0  0  0
   46.8710   32.8220   37.3570 C   0  0  0  0  0  0  0  0  0  0  0  0
   46.6070   32.1400   36.2330 N   0  0  0  0  0  0  0  0  0  0  0  0
   47.5910   32.3230   35.3360 C   0  0  0  0  0  0  0  0  0  0  0  0
   47.6900   31.9170   34.3320 H   0  0  0  0  0  0  0  0  0  0  0  0
   48.5390   33.1420   35.8550 N   0  0  0  0  0  0  0  0  0  0  0  0
   48.0790   33.4320   37.0850 C   0  0  0  0  0  0  0  0  0  0  0  0
   48.6640   34.2320   38.0420 C   0  0  0  0  0  3  0  0  0  0  0  0
   45.7480   31.5520   36.0940 H   0  0  0  0  0  0  0  0  0  0  0  0
   44.5200   35.9830   44.6890 C   0  0  0  0  0  0  0  0  0  0  0  0
   45.1310   35.9280   43.4170 C   0  0  0  0  0  0  0  0  0  0  0  0
   46.0080   34.8720   43.1510 C   0  0  0  0  0  0  0  0  0  0  0  0
   46.2430   33.9480   44.1030 N   0  0  0  0  0  0  0  0  0  0  0  0
   45.6340   34.0290   45.3280 C   0  0  0  0  0  0  0  0  0  0  0  0
   44.7900   35.0390   45.5950 N   0  0  0  0  0  0  0  0  0  0  0  0
   43.8370   36.7850   44.9280 H   0  0  0  0  0  0  0  0  0  0  0  0
   44.9030   36.7010   42.6890 H   0  0  0  0  0  0  0  0  0  0  0  0
   45.8960   33.2350   46.0130 H   0  0  0  0  0  0  0  0  0  0  0  0
  1  2  2  0  0  0  0
  1  3  1  0  0  0  0
  3 19  1  0  0  0  0
  4  3  1  0  0  0  0
  5  6  1  0  0  0  0
  6  1  1  0  0  0  0
  7  8  1  0  0  0  0
  7  6  2  0  0  0  0
  9  7  1  0  0  0  0
 10  9  1  0  0  0  0
 11 13  2  0  0  0  0
 11 10  1  0  0  0  0
 12 11  1  0  0  0  0
 13 14  1  0  0  0  0
 14  9  2  0  0  0  0
 14 15  1  0  0  0  0
 15  5  2  0  0  0  0
 16 10  1  0  0  0  0
 17 23  1  0  0  0  0
 17 22  1  0  0  0  0
 18 17  2  0  0  0  0
 19 18  1  0  0  0  0
 19 20  2  0  0  0  0
 20 21  1  0  0  0  0
 21 22  2  0  0  0  0
 21 25  1  0  0  0  0
 24 18  1  0  0  0  0
M  END
>  <minimizedAffinity>
-5.03847456

>  <minimizedRMSD>
0.622999072

$$$$
