
 OpenBabel03252509293D

 24 26  0  0  0  0  0  0  0  0999 V2000
   47.8300   35.2030   41.7920 C   0  0  0  0  0  0  0  0  0  0  0  0
   47.9100   36.2870   41.6260 H   0  0  0  0  0  0  0  0  0  0  0  0
   48.8460   34.8740   42.0980 H   0  0  0  0  0  0  0  0  0  0  0  0
   46.3630   33.7790   40.4280 C   0  0  0  0  0  3  0  0  0  0  0  0
   47.5310   34.5080   40.5110 C   0  0  0  0  0  0  0  0  0  0  0  0
   48.3850   34.5800   39.4290 C   0  0  0  0  0  0  0  0  0  0  0  0
   49.3140   35.1550   39.4830 H   0  0  0  0  0  0  0  0  0  0  0  0
   48.0890   33.9260   38.2480 C   0  0  0  0  0  0  0  0  0  0  0  0
   48.7210   33.8190   37.0480 N   0  0  0  0  0  0  0  0  0  0  0  0
   47.9210   33.0290   36.2740 C   0  0  0  0  0  0  0  0  0  0  0  0
   48.1620   32.7600   35.2530 H   0  0  0  0  0  0  0  0  0  0  0  0
   46.8220   32.6560   36.9690 N   0  0  0  0  0  0  0  0  0  0  0  0
   46.9280   33.2110   38.1880 C   0  0  0  0  0  0  0  0  0  0  0  0
   46.0370   33.1090   39.2510 C   0  0  0  0  0  3  0  0  0  0  0  0
   49.6340   34.2570   36.7910 H   0  0  0  0  0  0  0  0  0  0  0  0
   44.8560   35.3360   44.0220 C   0  0  0  0  0  0  0  0  0  0  0  0
   45.7600   35.6410   42.9800 C   0  0  0  0  0  0  0  0  0  0  0  0
   46.9070   34.8740   42.8760 C   0  0  0  0  0  0  0  0  0  0  0  0
   47.1140   33.8670   43.7740 N   0  0  0  0  0  0  0  0  0  0  0  0
   46.2250   33.6080   44.7560 C   0  0  0  0  0  0  0  0  0  0  0  0
   45.1090   34.3310   44.8830 N   0  0  0  0  0  0  0  0  0  0  0  0
   43.9450   35.9060   44.1480 H   0  0  0  0  0  0  0  0  0  0  0  0
   45.5010   36.4520   42.3300 H   0  0  0  0  0  0  0  0  0  0  0  0
   46.4450   32.7830   45.4510 H   0  0  0  0  0  0  0  0  0  0  0  0
  1  3  1  0  0  0  0
  1 18  1  0  0  0  0
  2  1  1  0  0  0  0
  4  5  1  0  0  0  0
  5  1  1  0  0  0  0
  6  7  1  0  0  0  0
  6  5  2  0  0  0  0
  8  6  1  0  0  0  0
  9  8  1  0  0  0  0
 10 12  2  0  0  0  0
 10  9  1  0  0  0  0
 11 10  1  0  0  0  0
 12 13  1  0  0  0  0
 13  8  2  0  0  0  0
 13 14  1  0  0  0  0
 14  4  2  0  0  0  0
 15  9  1  0  0  0  0
 16 22  1  0  0  0  0
 16 21  1  0  0  0  0
 17 16  2  0  0  0  0
 18 17  1  0  0  0  0
 18 19  2  0  0  0  0
 19 20  1  0  0  0  0
 20 21  2  0  0  0  0
 20 24  1  0  0  0  0
 23 17  1  0  0  0  0
M  END
>  <minimizedAffinity>
-4.75173998

>  <minimizedRMSD>
1.77514005

$$$$
