
 OpenBabel03252509083D

 44 48  0  0  0  0  0  0  0  0999 V2000
   48.1150   31.9530   38.5800 C   0  0  0  0  0  0  0  0  0  0  0  0
   46.9090   32.5420   38.3320 C   0  0  0  0  0  0  0  0  0  0  0  0
   46.5040   33.6230   39.0980 C   0  0  0  0  0  0  0  0  0  0  0  0
   47.3090   34.1070   40.1040 C   0  0  0  0  0  0  0  0  0  0  0  0
   48.5460   33.5350   40.3870 C   0  0  0  0  0  0  0  0  0  0  0  0
   48.9330   32.4450   39.6010 C   0  0  0  0  0  0  0  0  0  0  0  0
   45.5500   34.1070   38.9200 H   0  0  0  0  0  0  0  0  0  0  0  0
   47.0770   34.9330   40.7390 H   0  0  0  0  0  0  0  0  0  0  0  0
   49.2380   33.8430   41.1490 H   0  0  0  0  0  0  0  0  0  0  0  0
   49.8950   31.9740   39.7960 H   0  0  0  0  0  0  0  0  0  0  0  0
   42.6250   30.0200   36.9400 Cl  0  0  0  0  0  0  0  0  0  0  0  0
   44.0570   30.9650   36.6230 C   0  0  0  0  0  0  0  0  0  0  0  0
   44.8760   31.3570   37.6330 C   0  0  0  0  0  0  0  0  0  0  0  0
   45.9900   32.1140   37.2880 C   0  0  0  0  0  0  0  0  0  0  0  0
   46.2560   32.4580   35.9870 C   0  0  0  0  0  0  0  0  0  0  0  0
   45.4280   32.0580   34.9880 C   0  0  0  0  0  0  0  0  0  0  0  0
   44.3170   31.3030   35.3140 C   0  0  0  0  0  0  0  0  0  0  0  0
   47.1400   33.0520   35.7800 H   0  0  0  0  0  0  0  0  0  0  0  0
   45.6750   32.3470   33.9820 H   0  0  0  0  0  0  0  0  0  0  0  0
   43.6810   31.0020   34.4940 H   0  0  0  0  0  0  0  0  0  0  0  0
   43.4060   31.3570   41.1180 C   0  0  0  0  0  0  0  0  0  0  0  0
   43.7110   31.7270   39.8050 C   0  0  0  0  0  0  0  0  0  0  0  0
   44.5560   30.9850   38.9980 C   0  0  0  0  0  0  0  0  0  0  0  0
   45.0420   29.8920   39.5970 N   0  0  0  0  0  0  0  0  0  0  0  0
   44.7650   29.5200   40.8460 C   0  0  0  0  0  0  0  0  0  0  0  0
   43.9530   30.2430   41.6040 N   0  0  0  0  0  0  0  0  0  0  0  0
   42.7410   31.9680   41.7090 H   0  0  0  0  0  0  0  0  0  0  0  0
   43.2660   32.6400   39.3950 H   0  0  0  0  0  0  0  0  0  0  0  0
   45.2630   28.5970   41.1450 H   0  0  0  0  0  0  0  0  0  0  0  0
   48.6510   30.6180   37.6960 S   0  0  0  0  0  0  0  0  0  0  0  0
   49.6730   29.8250   38.5510 O   0  0  0  0  0  0  0  0  0  0  0  0
   47.4620   29.6640   37.6050 O   0  0  0  0  0  0  0  0  0  0  0  0
   49.0280   31.4470   35.1030 C   0  0  0  0  0  3  0  0  0  0  0  0
   49.5010   30.6940   36.2150 C   0  0  0  0  0  0  0  0  0  0  0  0
   50.7320   30.1540   35.8640 C   0  0  0  0  0  0  0  0  0  0  0  0
   51.2270   29.5770   36.6300 H   0  0  0  0  0  0  0  0  0  0  0  0
   51.4180   30.2760   34.6970 C   0  0  0  0  0  0  0  0  0  0  0  0
   52.5920   29.8060   34.2540 N   0  0  0  0  0  0  0  0  0  0  0  0
   52.7340   30.2810   32.9830 C   0  0  0  0  0  0  0  0  0  0  0  0
   53.5980   30.0630   32.3660 H   0  0  0  0  0  0  0  0  0  0  0  0
   51.6470   31.0360   32.6610 N   0  0  0  0  0  0  0  0  0  0  0  0
   50.8170   31.0410   33.7240 C   0  0  0  0  0  0  0  0  0  0  0  0
   49.6020   31.6630   33.8690 C   0  0  0  0  0  3  0  0  0  0  0  0
   53.2450   29.2060   34.7860 H   0  0  0  0  0  0  0  0  0  0  0  0
  1  6  1  0  0  0  0
  2  1  2  0  0  0  0
  2  3  1  0  0  0  0
  3  4  2  0  0  0  0
  4  5  1  0  0  0  0
  4  8  1  0  0  0  0
  5  9  1  0  0  0  0
  6 10  1  0  0  0  0
  6  5  2  0  0  0  0
  7  3  1  0  0  0  0
 12 11  1  0  0  0  0
 12 13  1  0  0  0  0
 13 23  1  0  0  0  0
 14 13  2  0  0  0  0
 14  2  1  0  0  0  0
 15 14  1  0  0  0  0
 16 17  1  0  0  0  0
 16 15  2  0  0  0  0
 17 12  2  0  0  0  0
 18 15  1  0  0  0  0
 19 16  1  0  0  0  0
 20 17  1  0  0  0  0
 21 26  1  0  0  0  0
 21 27  1  0  0  0  0
 22 21  2  0  0  0  0
 23 24  2  0  0  0  0
 23 22  1  0  0  0  0
 24 25  1  0  0  0  0
 25 29  1  0  0  0  0
 25 26  2  0  0  0  0
 28 22  1  0  0  0  0
 30 31  2  0  0  0  0
 30  1  1  0  0  0  0
 32 30  2  0  0  0  0
 33 34  1  0  0  0  0
 34 30  1  0  0  0  0
 35 34  2  0  0  0  0
 35 36  1  0  0  0  0
 37 35  1  0  0  0  0
 38 37  1  0  0  0  0
 38 44  1  0  0  0  0
 39 38  1  0  0  0  0
 40 39  1  0  0  0  0
 41 39  2  0  0  0  0
 41 42  1  0  0  0  0
 42 43  1  0  0  0  0
 42 37  2  0  0  0  0
 43 33  2  0  0  0  0
M  END
>  <minimizedAffinity>
-3.6821425

>  <minimizedRMSD>
7.24687147

$$$$
