
 OpenBabel03252505403D

 31 34  0  0  1  0  0  0  0  0999 V2000
   45.0210   31.5390   42.9730 C   0  0  1  0  0  0  0  0  0  0  0  0
   46.5140   31.5240   42.5670 C   0  0  0  0  0  0  0  0  0  0  0  0
   45.9930   32.3710   43.6830 C   0  0  2  0  0  0  0  0  0  0  0  0
   44.7130   30.5030   43.2770 H   0  0  0  0  0  0  0  0  0  0  0  0
   47.1300   30.6680   42.8740 H   0  0  0  0  0  0  0  0  0  0  0  0
   46.7700   32.0060   41.6210 H   0  0  0  0  0  0  0  0  0  0  0  0
   45.9910   33.4460   43.5010 H   0  0  0  0  0  0  0  0  0  0  0  0
   47.2410   31.0740   45.3740 C   0  0  0  0  0  3  0  0  0  0  0  0
   46.2520   31.9750   45.0930 C   0  0  0  0  0  0  0  0  0  0  0  0
   45.5380   32.4770   46.1560 C   0  0  0  0  0  0  0  0  0  0  0  0
   44.7490   33.1920   45.9630 H   0  0  0  0  0  0  0  0  0  0  0  0
   45.7760   32.1120   47.4600 C   0  0  0  0  0  0  0  0  0  0  0  0
   45.2400   32.4400   48.6720 N   0  0  0  0  0  0  0  0  0  0  0  0
   45.8680   31.7730   49.6480 C   0  0  0  0  0  0  0  0  0  0  0  0
   45.6750   31.8140   50.7270 H   0  0  0  0  0  0  0  0  0  0  0  0
   46.8100   31.0150   49.0590 N   0  0  0  0  0  0  0  0  0  0  0  0
   46.7890   31.1930   47.7200 C   0  0  0  0  0  0  0  0  0  0  0  0
   47.5330   30.6650   46.6620 C   0  0  0  0  0  3  0  0  0  0  0  0
   44.4490   33.1170   48.8100 H   0  0  0  0  0  0  0  0  0  0  0  0
   44.1230   32.1140   41.9250 C   0  0  0  0  0  0  0  0  0  0  0  0
   43.5510   31.2470   40.9590 C   0  0  0  0  0  0  0  0  0  0  0  0
   42.7080   31.8100   40.0050 C   0  0  0  0  0  0  0  0  0  0  0  0
   42.4820   33.1480   40.0550 N   0  0  0  0  0  0  0  0  0  0  0  0
   43.0500   33.9390   40.9970 C   0  0  0  0  0  0  0  0  0  0  0  0
   43.8750   33.4090   41.9350 N   0  0  0  0  0  0  0  0  0  0  0  0
   43.7560   30.1850   40.9570 H   0  0  0  0  0  0  0  0  0  0  0  0
   42.2340   31.2220   39.2380 H   0  0  0  0  0  0  0  0  0  0  0  0
   42.6600   35.3830   40.8800 C   0  0  0  0  0  0  0  0  0  0  0  0
   43.6380   36.2160   41.3650 F   0  0  0  0  0  0  0  0  0  0  0  0
   41.4860   35.6120   41.6020 F   0  0  0  0  0  0  0  0  0  0  0  0
   42.3400   35.6530   39.5550 F   0  0  0  0  0  0  0  0  0  0  0  0
  1  4  1  1  0  0  0
  1  3  1  0  0  0  0
  2  5  1  0  0  0  0
  2  1  1  0  0  0  0
  2  3  1  0  0  0  0
  3  7  1  6  0  0  0
  3  9  1  0  0  0  0
  6  2  1  0  0  0  0
  8 18  1  0  0  0  0
  9  8  2  0  0  0  0
  9 10  1  0  0  0  0
 10 12  2  0  0  0  0
 11 10  1  0  0  0  0
 12 17  1  0  0  0  0
 12 13  1  0  0  0  0
 13 19  1  0  0  0  0
 13 14  1  0  0  0  0
 14 15  1  0  0  0  0
 16 14  2  0  0  0  0
 17 16  1  0  0  0  0
 18 17  2  0  0  0  0
 20 25  1  0  0  0  0
 20  1  1  0  0  0  0
 21 20  2  0  0  0  0
 22 23  2  0  0  0  0
 22 21  1  0  0  0  0
 23 24  1  0  0  0  0
 24 25  2  0  0  0  0
 26 21  1  0  0  0  0
 27 22  1  0  0  0  0
 28 24  1  0  0  0  0
 28 29  1  0  0  0  0
 28 30  1  0  0  0  0
 31 28  1  0  0  0  0
M  END
>  <minimizedAffinity>
-4.49740982

>  <minimizedRMSD>
8.11538219

$$$$
