
 OpenBabel03242518413D

 42 46  0  0  1  0  0  0  0  0999 V2000
   39.8570   34.3210   40.3430 C   0  0  0  0  0  0  0  0  0  0  0  0
   39.6240   35.4960   40.7520 O   0  0  0  0  0  0  0  0  0  0  0  0
   39.0000   33.1910   40.4490 C   0  0  0  0  0  0  0  0  0  0  0  0
   37.8100   33.2650   39.8030 C   0  0  0  0  0  0  0  0  0  0  0  0
   36.9300   32.1900   39.8730 C   0  0  0  0  0  0  0  0  0  0  0  0
   37.3050   31.1220   40.5810 N   0  0  0  0  0  0  0  0  0  0  0  0
   38.4770   31.0530   41.2150 C   0  0  0  0  0  0  0  0  0  0  0  0
   39.3090   32.1070   41.1310 N   0  0  0  0  0  0  0  0  0  0  0  0
   37.4820   34.1260   39.2190 H   0  0  0  0  0  0  0  0  0  0  0  0
   35.9740   32.2440   39.3570 H   0  0  0  0  0  0  0  0  0  0  0  0
   37.8640   29.0620   42.5000 C   0  0  0  0  0  3  0  0  0  0  0  0
   38.8600   29.8690   41.9840 C   0  0  0  0  0  0  0  0  0  0  0  0
   40.1730   29.5170   42.2190 C   0  0  0  0  0  0  0  0  0  0  0  0
   40.9620   30.1150   41.8360 H   0  0  0  0  0  0  0  0  0  0  0  0
   40.4000   28.3600   42.9690 C   0  0  0  0  0  0  0  0  0  0  0  0
   41.5650   27.7740   43.3560 N   0  0  0  0  0  0  0  0  0  0  0  0
   41.2900   26.6550   44.0790 C   0  0  0  0  0  0  0  0  0  0  0  0
   41.9560   25.9390   44.5460 H   0  0  0  0  0  0  0  0  0  0  0  0
   39.9320   26.5370   44.1470 N   0  0  0  0  0  0  0  0  0  0  0  0
   39.3870   27.5580   43.4830 C   0  0  0  0  0  0  0  0  0  0  0  0
   38.0740   27.9180   43.2420 C   0  0  0  0  0  3  0  0  0  0  0  0
   42.5390   28.0910   43.1560 H   0  0  0  0  0  0  0  0  0  0  0  0
   41.0990   34.1220   39.7170 O   0  0  0  0  0  0  0  0  0  0  0  0
   42.2840   34.2970   40.4790 C   0  0  0  0  0  0  0  0  0  0  0  0
   43.4980   33.5960   40.4920 C   0  0  0  0  0  0  0  0  0  0  0  0
   44.3340   34.1750   41.4270 C   0  0  0  0  0  0  0  0  0  0  0  0
   43.5970   35.1940   41.9390 C   0  0  0  0  0  0  0  0  0  0  0  0
   42.4010   35.2640   41.3830 O   0  0  0  0  0  0  0  0  0  0  0  0
   43.6570   32.7570   39.8380 H   0  0  0  0  0  0  0  0  0  0  0  0
   45.3310   33.8410   41.6480 H   0  0  0  0  0  0  0  0  0  0  0  0
   44.0720   36.1140   42.9900 C   0  0  2  0  0  0  0  0  0  0  0  0
   45.4980   36.3620   43.1820 C   0  0  0  0  0  0  0  0  0  0  0  0
   44.8580   35.4040   44.1250 C   0  0  1  0  0  0  0  0  0  0  0  0
   43.3300   36.8690   43.3280 H   0  0  0  0  0  0  0  0  0  0  0  0
   46.2770   35.9360   42.5280 H   0  0  0  0  0  0  0  0  0  0  0  0
   45.8140   37.3600   43.5870 H   0  0  0  0  0  0  0  0  0  0  0  0
   44.9550   34.3220   44.0540 H   0  0  0  0  0  0  0  0  0  0  0  0
   44.9300   35.2070   46.5990 C   0  0  0  0  0  0  0  0  0  0  0  0
   45.4720   34.0640   46.5550 O   0  0  0  0  0  0  0  0  0  0  0  0
   44.5390   35.9340   45.4460 N   0  0  0  0  0  0  0  0  0  0  0  0
   44.8160   35.5270   47.6190 H   0  0  0  0  0  0  0  0  0  0  0  0
   44.0340   36.8310   45.5780 H   0  0  0  0  0  0  0  0  0  0  0  0
  1  3  1  0  0  0  0
  1  2  2  0  0  0  0
  3  8  1  0  0  0  0
  4  5  1  0  0  0  0
  4  3  2  0  0  0  0
  5  6  2  0  0  0  0
  6  7  1  0  0  0  0
  7 12  1  0  0  0  0
  8  7  2  0  0  0  0
  9  4  1  0  0  0  0
 10  5  1  0  0  0  0
 11 21  1  0  0  0  0
 12 13  1  0  0  0  0
 12 11  2  0  0  0  0
 13 15  2  0  0  0  0
 14 13  1  0  0  0  0
 15 16  1  0  0  0  0
 15 20  1  0  0  0  0
 16 17  1  0  0  0  0
 17 19  2  0  0  0  0
 17 18  1  0  0  0  0
 20 19  1  0  0  0  0
 21 20  2  0  0  0  0
 22 16  1  0  0  0  0
 23  1  1  0  0  0  0
 23 24  1  0  0  0  0
 24 25  2  0  0  0  0
 24 28  1  0  0  0  0
 25 26  1  0  0  0  0
 26 30  1  0  0  0  0
 26 27  2  0  0  0  0
 27 31  1  0  0  0  0
 28 27  1  0  0  0  0
 29 25  1  0  0  0  0
 31 32  1  0  0  0  0
 31 34  1  1  0  0  0
 31 33  1  0  0  0  0
 32 36  1  0  0  0  0
 32 33  1  0  0  0  0
 33 37  1  6  0  0  0
 33 40  1  0  0  0  0
 35 32  1  0  0  0  0
 38 41  1  0  0  0  0
 39 38  2  0  0  0  0
 40 42  1  0  0  0  0
 40 38  1  0  0  0  0
M  END
>  <minimizedAffinity>
-7.32758236

$$$$

 OpenBabel03242518413D

 42 46  0  0  1  0  0  0  0  0999 V2000
   38.1180   32.1420   39.5410 C   0  0  0  0  0  0  0  0  0  0  0  0
   38.1490   31.2840   38.6120 O   0  0  0  0  0  0  0  0  0  0  0  0
   39.0050   33.2380   39.7250 C   0  0  0  0  0  0  0  0  0  0  0  0
   38.4620   34.3910   40.1910 C   0  0  0  0  0  0  0  0  0  0  0  0
   39.2820   35.4960   40.3900 C   0  0  0  0  0  0  0  0  0  0  0  0
   40.5800   35.3690   40.1080 N   0  0  0  0  0  0  0  0  0  0  0  0
   41.1110   34.2340   39.6500 C   0  0  0  0  0  0  0  0  0  0  0  0
   40.2950   33.1790   39.4670 N   0  0  0  0  0  0  0  0  0  0  0  0
   37.4050   34.5180   40.4270 H   0  0  0  0  0  0  0  0  0  0  0  0
   38.8520   36.4230   40.7630 H   0  0  0  0  0  0  0  0  0  0  0  0
   43.4420   34.2010   40.3920 C   0  0  0  0  0  3  0  0  0  0  0  0
   42.5380   34.1240   39.3510 C   0  0  0  0  0  0  0  0  0  0  0  0
   43.0280   33.9470   38.0730 C   0  0  0  0  0  0  0  0  0  0  0  0
   42.3600   33.8840   37.2500 H   0  0  0  0  0  0  0  0  0  0  0  0
   44.4140   33.8580   37.9270 C   0  0  0  0  0  0  0  0  0  0  0  0
   45.1750   33.6870   36.8120 N   0  0  0  0  0  0  0  0  0  0  0  0
   46.4900   33.6600   37.1600 C   0  0  0  0  0  0  0  0  0  0  0  0
   47.3760   33.5420   36.5480 H   0  0  0  0  0  0  0  0  0  0  0  0
   46.5550   33.8180   38.5140 N   0  0  0  0  0  0  0  0  0  0  0  0
   45.3120   33.9380   38.9850 C   0  0  0  0  0  0  0  0  0  0  0  0
   44.8130   34.1150   40.2620 C   0  0  0  0  0  3  0  0  0  0  0  0
   44.8510   33.5860   35.8250 H   0  0  0  0  0  0  0  0  0  0  0  0
   37.0920   31.9870   40.4880 O   0  0  0  0  0  0  0  0  0  0  0  0
   36.6090   30.6810   40.7650 C   0  0  0  0  0  0  0  0  0  0  0  0
   35.5810   29.9230   40.1850 C   0  0  0  0  0  0  0  0  0  0  0  0
   35.5160   28.7020   40.8270 C   0  0  0  0  0  0  0  0  0  0  0  0
   36.4980   28.7700   41.7620 C   0  0  0  0  0  0  0  0  0  0  0  0
   37.1350   29.9260   41.7230 O   0  0  0  0  0  0  0  0  0  0  0  0
   34.9960   30.3180   39.3740 H   0  0  0  0  0  0  0  0  0  0  0  0
   34.8180   27.9200   40.5880 H   0  0  0  0  0  0  0  0  0  0  0  0
   36.8170   27.6860   42.7100 C   0  0  2  0  0  0  0  0  0  0  0  0
   37.3250   27.9830   44.0460 C   0  0  0  0  0  0  0  0  0  0  0  0
   38.3320   27.5690   43.0310 C   0  0  1  0  0  0  0  0  0  0  0  0
   36.2990   26.7220   42.5180 H   0  0  0  0  0  0  0  0  0  0  0  0
   37.4350   29.0090   44.4350 H   0  0  0  0  0  0  0  0  0  0  0  0
   37.0940   27.2620   44.8750 H   0  0  0  0  0  0  0  0  0  0  0  0
   38.9980   28.2610   42.5170 H   0  0  0  0  0  0  0  0  0  0  0  0
   40.0040   25.8930   43.7770 C   0  0  0  0  0  0  0  0  0  0  0  0
   40.7830   26.7800   44.2320 O   0  0  0  0  0  0  0  0  0  0  0  0
   38.7850   26.1860   43.1150 N   0  0  0  0  0  0  0  0  0  0  0  0
   40.4040   24.9120   43.9650 H   0  0  0  0  0  0  0  0  0  0  0  0
   38.2450   25.3980   42.7070 H   0  0  0  0  0  0  0  0  0  0  0  0
  1  3  1  0  0  0  0
  1 23  1  0  0  0  0
  2  1  2  0  0  0  0
  3  4  1  0  0  0  0
  4  5  2  0  0  0  0
  4  9  1  0  0  0  0
  5 10  1  0  0  0  0
  6  5  1  0  0  0  0
  7  6  2  0  0  0  0
  8  7  1  0  0  0  0
  8  3  2  0  0  0  0
 12  7  1  0  0  0  0
 12 11  2  0  0  0  0
 13 12  1  0  0  0  0
 14 13  1  0  0  0  0
 15 13  2  0  0  0  0
 15 20  1  0  0  0  0
 16 17  1  0  0  0  0
 16 15  1  0  0  0  0
 17 19  2  0  0  0  0
 18 17  1  0  0  0  0
 19 20  1  0  0  0  0
 20 21  2  0  0  0  0
 21 11  1  0  0  0  0
 22 16  1  0  0  0  0
 23 24  1  0  0  0  0
 24 28  1  0  0  0  0
 25 24  2  0  0  0  0
 25 26  1  0  0  0  0
 26 27  2  0  0  0  0
 27 31  1  0  0  0  0
 28 27  1  0  0  0  0
 29 25  1  0  0  0  0
 30 26  1  0  0  0  0
 31 34  1  6  0  0  0
 31 33  1  0  0  0  0
 31 32  1  0  0  0  0
 32 35  1  0  0  0  0
 32 36  1  0  0  0  0
 33 37  1  6  0  0  0
 33 40  1  0  0  0  0
 33 32  1  0  0  0  0
 38 41  1  0  0  0  0
 38 39  2  0  0  0  0
 40 38  1  0  0  0  0
 42 40  1  0  0  0  0
M  END
>  <minimizedAffinity>
-7.24450636

$$$$

 OpenBabel03242518413D

 42 46  0  0  1  0  0  0  0  0999 V2000
   39.2800   31.9020   38.8800 C   0  0  0  0  0  0  0  0  0  0  0  0
   38.9800   31.0090   38.0350 O   0  0  0  0  0  0  0  0  0  0  0  0
   40.4120   32.7620   38.8530 C   0  0  0  0  0  0  0  0  0  0  0  0
   41.0840   32.8490   37.6780 C   0  0  0  0  0  0  0  0  0  0  0  0
   42.2000   33.6740   37.5940 C   0  0  0  0  0  0  0  0  0  0  0  0
   42.5610   34.3500   38.6860 N   0  0  0  0  0  0  0  0  0  0  0  0
   41.8970   34.2620   39.8400 C   0  0  0  0  0  0  0  0  0  0  0  0
   40.8210   33.4570   39.8950 N   0  0  0  0  0  0  0  0  0  0  0  0
   40.8090   32.3060   36.7730 H   0  0  0  0  0  0  0  0  0  0  0  0
   42.7440   33.7480   36.6540 H   0  0  0  0  0  0  0  0  0  0  0  0
   41.6450   36.1810   41.3380 C   0  0  0  0  0  3  0  0  0  0  0  0
   42.3170   35.0160   41.0220 C   0  0  0  0  0  0  0  0  0  0  0  0
   43.3560   34.6190   41.8380 C   0  0  0  0  0  0  0  0  0  0  0  0
   43.8920   33.7280   41.6230 H   0  0  0  0  0  0  0  0  0  0  0  0
   43.6520   35.4320   42.9350 C   0  0  0  0  0  0  0  0  0  0  0  0
   44.6030   35.3000   43.8990 N   0  0  0  0  0  0  0  0  0  0  0  0
   44.5150   36.3430   44.7680 C   0  0  0  0  0  0  0  0  0  0  0  0
   45.1000   36.5730   45.6510 H   0  0  0  0  0  0  0  0  0  0  0  0
   43.4930   37.1410   44.3430 N   0  0  0  0  0  0  0  0  0  0  0  0
   42.9680   36.6020   43.2410 C   0  0  0  0  0  0  0  0  0  0  0  0
   41.9280   36.9920   42.4180 C   0  0  0  0  0  3  0  0  0  0  0  0
   45.3120   34.5400   44.0000 H   0  0  0  0  0  0  0  0  0  0  0  0
   38.3920   32.0510   39.9590 O   0  0  0  0  0  0  0  0  0  0  0  0
   38.4210   31.0930   41.0060 C   0  0  0  0  0  0  0  0  0  0  0  0
   39.3230   30.8880   42.0590 C   0  0  0  0  0  0  0  0  0  0  0  0
   38.8930   29.8100   42.8070 C   0  0  0  0  0  0  0  0  0  0  0  0
   37.7570   29.4090   42.1810 C   0  0  0  0  0  0  0  0  0  0  0  0
   37.4840   30.1600   41.1300 O   0  0  0  0  0  0  0  0  0  0  0  0
   40.1820   31.5240   42.1800 H   0  0  0  0  0  0  0  0  0  0  0  0
   39.3960   29.4280   43.6780 H   0  0  0  0  0  0  0  0  0  0  0  0
   36.9270   28.2700   42.6180 C   0  0  2  0  0  0  0  0  0  0  0  0
   37.1700   27.6130   43.9000 C   0  0  0  0  0  0  0  0  0  0  0  0
   37.7050   26.9280   42.6900 C   0  0  1  0  0  0  0  0  0  0  0  0
   35.9220   28.2100   42.1490 H   0  0  0  0  0  0  0  0  0  0  0  0
   37.9270   27.9620   44.6220 H   0  0  0  0  0  0  0  0  0  0  0  0
   36.3000   27.1380   44.4260 H   0  0  0  0  0  0  0  0  0  0  0  0
   38.7520   26.9500   42.3910 H   0  0  0  0  0  0  0  0  0  0  0  0
   37.5250   24.5160   42.1320 C   0  0  0  0  0  0  0  0  0  0  0  0
   38.7460   24.3020   42.3830 O   0  0  0  0  0  0  0  0  0  0  0  0
   36.9220   25.7980   42.2050 N   0  0  0  0  0  0  0  0  0  0  0  0
   37.0320   23.5990   41.8600 H   0  0  0  0  0  0  0  0  0  0  0  0
   35.9320   25.8930   41.9090 H   0  0  0  0  0  0  0  0  0  0  0  0
  1 23  1  0  0  0  0
  2  1  2  0  0  0  0
  3  1  1  0  0  0  0
  3  8  1  0  0  0  0
  4  3  2  0  0  0  0
  5  4  1  0  0  0  0
  5  6  2  0  0  0  0
  6  7  1  0  0  0  0
  7  8  2  0  0  0  0
  7 12  1  0  0  0  0
  9  4  1  0  0  0  0
 10  5  1  0  0  0  0
 11 21  1  0  0  0  0
 12 11  2  0  0  0  0
 12 13  1  0  0  0  0
 13 15  2  0  0  0  0
 14 13  1  0  0  0  0
 15 20  1  0  0  0  0
 15 16  1  0  0  0  0
 16 22  1  0  0  0  0
 16 17  1  0  0  0  0
 17 18  1  0  0  0  0
 19 17  2  0  0  0  0
 20 19  1  0  0  0  0
 21 20  2  0  0  0  0
 23 24  1  0  0  0  0
 24 28  1  0  0  0  0
 24 25  2  0  0  0  0
 25 29  1  0  0  0  0
 25 26  1  0  0  0  0
 26 30  1  0  0  0  0
 27 31  1  0  0  0  0
 27 26  2  0  0  0  0
 28 27  1  0  0  0  0
 31 34  1  6  0  0  0
 31 33  1  0  0  0  0
 31 32  1  0  0  0  0
 32 36  1  0  0  0  0
 32 35  1  0  0  0  0
 33 37  1  6  0  0  0
 33 32  1  0  0  0  0
 38 40  1  0  0  0  0
 38 39  2  0  0  0  0
 40 33  1  0  0  0  0
 41 38  1  0  0  0  0
 42 40  1  0  0  0  0
M  END
>  <minimizedAffinity>
-7.23300314

$$$$

 OpenBabel03242518413D

 42 46  0  0  1  0  0  0  0  0999 V2000
   40.3230   34.5120   40.5300 C   0  0  0  0  0  0  0  0  0  0  0  0
   39.2320   35.0660   40.8530 O   0  0  0  0  0  0  0  0  0  0  0  0
   40.5560   33.1220   40.3470 C   0  0  0  0  0  0  0  0  0  0  0  0
   41.6160   32.7770   39.5730 C   0  0  0  0  0  0  0  0  0  0  0  0
   41.8920   31.4310   39.3580 C   0  0  0  0  0  0  0  0  0  0  0  0
   41.0910   30.5300   39.9320 N   0  0  0  0  0  0  0  0  0  0  0  0
   40.0500   30.8730   40.6930 C   0  0  0  0  0  0  0  0  0  0  0  0
   39.8050   32.1820   40.8850 N   0  0  0  0  0  0  0  0  0  0  0  0
   42.2830   33.4940   39.0940 H   0  0  0  0  0  0  0  0  0  0  0  0
   42.7400   31.1490   38.7380 H   0  0  0  0  0  0  0  0  0  0  0  0
   38.9550   28.6860   40.6260 C   0  0  0  0  0  3  0  0  0  0  0  0
   39.1900   29.8630   41.3090 C   0  0  0  0  0  0  0  0  0  0  0  0
   38.5990   30.0290   42.5450 C   0  0  0  0  0  0  0  0  0  0  0  0
   38.7600   30.9230   43.0970 H   0  0  0  0  0  0  0  0  0  0  0  0
   37.8010   28.9850   43.0180 C   0  0  0  0  0  0  0  0  0  0  0  0
   37.1020   28.8650   44.1790 N   0  0  0  0  0  0  0  0  0  0  0  0
   36.4660   27.6620   44.2020 C   0  0  0  0  0  0  0  0  0  0  0  0
   35.8250   27.2210   44.9560 H   0  0  0  0  0  0  0  0  0  0  0  0
   36.7700   27.0190   43.0380 N   0  0  0  0  0  0  0  0  0  0  0  0
   37.5720   27.8060   42.3180 C   0  0  0  0  0  0  0  0  0  0  0  0
   38.1680   27.6470   41.0810 C   0  0  0  0  0  3  0  0  0  0  0  0
   37.0320   29.5550   44.9590 H   0  0  0  0  0  0  0  0  0  0  0  0
   41.4150   35.3730   40.3310 O   0  0  0  0  0  0  0  0  0  0  0  0
   42.1370   35.8330   41.4640 C   0  0  0  0  0  0  0  0  0  0  0  0
   41.8340   36.7980   42.4350 C   0  0  0  0  0  0  0  0  0  0  0  0
   42.8820   36.8680   43.3310 C   0  0  0  0  0  0  0  0  0  0  0  0
   43.7700   35.9500   42.8700 C   0  0  0  0  0  0  0  0  0  0  0  0
   43.3320   35.3470   41.7800 O   0  0  0  0  0  0  0  0  0  0  0  0
   40.9070   37.3420   42.4010 H   0  0  0  0  0  0  0  0  0  0  0  0
   42.9190   37.5250   44.1810 H   0  0  0  0  0  0  0  0  0  0  0  0
   45.0690   35.6600   43.5060 C   0  0  2  0  0  0  0  0  0  0  0  0
   45.9570   34.6330   42.9660 C   0  0  0  0  0  0  0  0  0  0  0  0
   45.1420   34.2500   44.1520 C   0  0  1  0  0  0  0  0  0  0  0  0
   45.4900   36.4840   44.1210 H   0  0  0  0  0  0  0  0  0  0  0  0
   45.7390   34.0750   42.0400 H   0  0  0  0  0  0  0  0  0  0  0  0
   47.0630   34.7570   43.1110 H   0  0  0  0  0  0  0  0  0  0  0  0
   44.2420   33.6390   44.1010 H   0  0  0  0  0  0  0  0  0  0  0  0
   45.6150   33.1980   46.3500 C   0  0  0  0  0  0  0  0  0  0  0  0
   44.7590   32.2840   46.1680 O   0  0  0  0  0  0  0  0  0  0  0  0
   45.8440   34.2520   45.4300 N   0  0  0  0  0  0  0  0  0  0  0  0
   46.1240   33.0530   47.2870 H   0  0  0  0  0  0  0  0  0  0  0  0
   46.5130   35.0000   45.6960 H   0  0  0  0  0  0  0  0  0  0  0  0
  1  2  2  0  0  0  0
  3  1  1  0  0  0  0
  3  8  1  0  0  0  0
  4  3  2  0  0  0  0
  5  4  1  0  0  0  0
  5  6  2  0  0  0  0
  6  7  1  0  0  0  0
  7  8  2  0  0  0  0
  7 12  1  0  0  0  0
  9  4  1  0  0  0  0
 10  5  1  0  0  0  0
 11 21  2  0  0  0  0
 11 12  1  0  0  0  0
 12 13  2  0  0  0  0
 13 15  1  0  0  0  0
 13 14  1  0  0  0  0
 15 16  1  0  0  0  0
 16 17  1  0  0  0  0
 16 22  1  0  0  0  0
 17 18  1  0  0  0  0
 19 17  2  0  0  0  0
 20 15  2  0  0  0  0
 20 19  1  0  0  0  0
 21 20  1  0  0  0  0
 23  1  1  0  0  0  0
 23 24  1  0  0  0  0
 24 28  1  0  0  0  0
 24 25  2  0  0  0  0
 25 26  1  0  0  0  0
 26 30  1  0  0  0  0
 27 26  2  0  0  0  0
 27 31  1  0  0  0  0
 28 27  1  0  0  0  0
 29 25  1  0  0  0  0
 31 34  1  1  0  0  0
 31 33  1  0  0  0  0
 32 36  1  0  0  0  0
 32 31  1  0  0  0  0
 32 33  1  0  0  0  0
 33 37  1  6  0  0  0
 33 40  1  0  0  0  0
 35 32  1  0  0  0  0
 38 41  1  0  0  0  0
 39 38  2  0  0  0  0
 40 42  1  0  0  0  0
 40 38  1  0  0  0  0
M  END
>  <minimizedAffinity>
-7.08470535

$$$$

 OpenBabel03242518413D

 42 46  0  0  1  0  0  0  0  0999 V2000
   37.7470   32.6950   40.3130 C   0  0  0  0  0  0  0  0  0  0  0  0
   37.2710   33.2460   39.2780 O   0  0  0  0  0  0  0  0  0  0  0  0
   37.5040   31.3710   40.7680 C   0  0  0  0  0  0  0  0  0  0  0  0
   36.2760   30.8530   40.5120 C   0  0  0  0  0  0  0  0  0  0  0  0
   35.9810   29.5620   40.9350 C   0  0  0  0  0  0  0  0  0  0  0  0
   36.9320   28.8840   41.5810 N   0  0  0  0  0  0  0  0  0  0  0  0
   38.1390   29.3960   41.8310 C   0  0  0  0  0  0  0  0  0  0  0  0
   38.3980   30.6470   41.4100 N   0  0  0  0  0  0  0  0  0  0  0  0
   35.4830   31.3880   39.9870 H   0  0  0  0  0  0  0  0  0  0  0  0
   34.9980   29.1420   40.7340 H   0  0  0  0  0  0  0  0  0  0  0  0
   38.7840   27.4820   43.2130 C   0  0  0  0  0  3  0  0  0  0  0  0
   39.1620   28.6280   42.5410 C   0  0  0  0  0  0  0  0  0  0  0  0
   40.4920   28.9950   42.5720 C   0  0  0  0  0  0  0  0  0  0  0  0
   40.8150   29.8710   42.0660 H   0  0  0  0  0  0  0  0  0  0  0  0
   41.3640   28.1720   43.2880 C   0  0  0  0  0  0  0  0  0  0  0  0
   42.7050   28.2760   43.4930 N   0  0  0  0  0  0  0  0  0  0  0  0
   43.1270   27.2350   44.2600 C   0  0  0  0  0  0  0  0  0  0  0  0
   44.1170   26.9870   44.6250 H   0  0  0  0  0  0  0  0  0  0  0  0
   42.0350   26.4660   44.5400 N   0  0  0  0  0  0  0  0  0  0  0  0
   40.9700   27.0220   43.9600 C   0  0  0  0  0  0  0  0  0  0  0  0
   39.6350   26.6610   43.9230 C   0  0  0  0  0  3  0  0  0  0  0  0
   43.3520   29.0160   43.1420 H   0  0  0  0  0  0  0  0  0  0  0  0
   38.6100   33.4870   41.0900 O   0  0  0  0  0  0  0  0  0  0  0  0
   39.5530   34.3180   40.4300 C   0  0  0  0  0  0  0  0  0  0  0  0
   39.7690   35.7030   40.4740 C   0  0  0  0  0  0  0  0  0  0  0  0
   40.8220   36.0140   39.6370 C   0  0  0  0  0  0  0  0  0  0  0  0
   41.1980   34.8140   39.1240 C   0  0  0  0  0  0  0  0  0  0  0  0
   40.4560   33.8260   39.5890 O   0  0  0  0  0  0  0  0  0  0  0  0
   39.1580   36.3370   41.0930 H   0  0  0  0  0  0  0  0  0  0  0  0
   41.2050   37.0050   39.4750 H   0  0  0  0  0  0  0  0  0  0  0  0
   42.3010   34.6330   38.1610 C   0  0  2  0  0  0  0  0  0  0  0  0
   42.8020   33.2990   37.8360 C   0  0  0  0  0  0  0  0  0  0  0  0
   43.6050   34.0920   38.8080 C   0  0  1  0  0  0  0  0  0  0  0  0
   42.4420   35.4650   37.4400 H   0  0  0  0  0  0  0  0  0  0  0  0
   42.3530   32.3740   38.2340 H   0  0  0  0  0  0  0  0  0  0  0  0
   43.2370   33.1300   36.8160 H   0  0  0  0  0  0  0  0  0  0  0  0
   43.5900   33.9310   39.8850 H   0  0  0  0  0  0  0  0  0  0  0  0
   46.0430   34.5410   38.9350 C   0  0  0  0  0  0  0  0  0  0  0  0
   46.1640   33.9230   40.0330 O   0  0  0  0  0  0  0  0  0  0  0  0
   44.8040   34.7250   38.2710 N   0  0  0  0  0  0  0  0  0  0  0  0
   47.0020   34.8950   38.5980 H   0  0  0  0  0  0  0  0  0  0  0  0
   44.7880   35.3080   37.4130 H   0  0  0  0  0  0  0  0  0  0  0  0
  1  3  1  0  0  0  0
  1 23  1  0  0  0  0
  2  1  2  0  0  0  0
  3  8  1  0  0  0  0
  4  3  2  0  0  0  0
  4  5  1  0  0  0  0
  5  6  2  0  0  0  0
  6  7  1  0  0  0  0
  7 12  1  0  0  0  0
  8  7  2  0  0  0  0
  9  4  1  0  0  0  0
 10  5  1  0  0  0  0
 11 21  1  0  0  0  0
 12 13  1  0  0  0  0
 12 11  2  0  0  0  0
 13 15  2  0  0  0  0
 14 13  1  0  0  0  0
 15 16  1  0  0  0  0
 15 20  1  0  0  0  0
 16 17  1  0  0  0  0
 17 19  2  0  0  0  0
 17 18  1  0  0  0  0
 20 19  1  0  0  0  0
 21 20  2  0  0  0  0
 22 16  1  0  0  0  0
 24 25  2  0  0  0  0
 24 23  1  0  0  0  0
 25 29  1  0  0  0  0
 26 25  1  0  0  0  0
 27 28  1  0  0  0  0
 27 26  2  0  0  0  0
 28 24  1  0  0  0  0
 30 26  1  0  0  0  0
 31 34  1  6  0  0  0
 31 33  1  0  0  0  0
 31 27  1  0  0  0  0
 32 31  1  0  0  0  0
 32 35  1  0  0  0  0
 32 33  1  0  0  0  0
 33 37  1  1  0  0  0
 36 32  1  0  0  0  0
 38 39  2  0  0  0  0
 40 33  1  0  0  0  0
 40 38  1  0  0  0  0
 41 38  1  0  0  0  0
 42 40  1  0  0  0  0
M  END
>  <minimizedAffinity>
-7.06938219

$$$$

 OpenBabel03242518413D

 42 46  0  0  1  0  0  0  0  0999 V2000
   37.6320   27.8590   43.7970 C   0  0  0  0  0  0  0  0  0  0  0  0
   36.7280   27.9090   44.6820 O   0  0  0  0  0  0  0  0  0  0  0  0
   38.2730   26.6960   43.2920 C   0  0  0  0  0  0  0  0  0  0  0  0
   39.5360   26.4570   43.7260 C   0  0  0  0  0  0  0  0  0  0  0  0
   40.2130   25.3340   43.2640 C   0  0  0  0  0  0  0  0  0  0  0  0
   39.5800   24.5330   42.4040 N   0  0  0  0  0  0  0  0  0  0  0  0
   38.3370   24.7710   41.9790 C   0  0  0  0  0  0  0  0  0  0  0  0
   37.7050   25.8640   42.4420 N   0  0  0  0  0  0  0  0  0  0  0  0
   40.0740   27.0970   44.4270 H   0  0  0  0  0  0  0  0  0  0  0  0
   41.2270   25.1380   43.6080 H   0  0  0  0  0  0  0  0  0  0  0  0
   36.3930   24.1910   40.6110 C   0  0  0  0  0  3  0  0  0  0  0  0
   37.6680   23.8740   41.0370 C   0  0  0  0  0  0  0  0  0  0  0  0
   38.2520   22.7220   40.5500 C   0  0  0  0  0  0  0  0  0  0  0  0
   39.2320   22.4510   40.8570 H   0  0  0  0  0  0  0  0  0  0  0  0
   37.5030   21.9560   39.6540 C   0  0  0  0  0  0  0  0  0  0  0  0
   37.8080   20.7920   39.0190 N   0  0  0  0  0  0  0  0  0  0  0  0
   36.7590   20.4150   38.2380 C   0  0  0  0  0  0  0  0  0  0  0  0
   36.6390   19.5520   37.5940 H   0  0  0  0  0  0  0  0  0  0  0  0
   35.7820   21.3550   38.3860 N   0  0  0  0  0  0  0  0  0  0  0  0
   36.2190   22.2870   39.2350 C   0  0  0  0  0  0  0  0  0  0  0  0
   35.6420   23.4430   39.7280 C   0  0  0  0  0  3  0  0  0  0  0  0
   38.6890   20.2380   39.0860 H   0  0  0  0  0  0  0  0  0  0  0  0
   38.0390   29.0940   43.2630 O   0  0  0  0  0  0  0  0  0  0  0  0
   37.3700   29.5950   42.1150 C   0  0  0  0  0  0  0  0  0  0  0  0
   36.2820   29.1040   41.3800 C   0  0  0  0  0  0  0  0  0  0  0  0
   36.0190   29.9760   40.3430 C   0  0  0  0  0  0  0  0  0  0  0  0
   36.9520   30.9520   40.4900 C   0  0  0  0  0  0  0  0  0  0  0  0
   37.7390   30.7270   41.5260 O   0  0  0  0  0  0  0  0  0  0  0  0
   35.7970   28.1860   41.6610 H   0  0  0  0  0  0  0  0  0  0  0  0
   35.2360   29.8480   39.6170 H   0  0  0  0  0  0  0  0  0  0  0  0
   37.0750   32.1230   39.6010 C   0  0  2  0  0  0  0  0  0  0  0  0
   38.2470   32.2960   38.7460 C   0  0  0  0  0  0  0  0  0  0  0  0
   38.2210   33.0890   40.0060 C   0  0  1  0  0  0  0  0  0  0  0  0
   36.1160   32.6130   39.3290 H   0  0  0  0  0  0  0  0  0  0  0  0
   39.0540   31.5480   38.6720 H   0  0  0  0  0  0  0  0  0  0  0  0
   38.1200   32.8490   37.7780 H   0  0  0  0  0  0  0  0  0  0  0  0
   38.7890   32.8330   40.8990 H   0  0  0  0  0  0  0  0  0  0  0  0
   38.8360   35.4940   40.0510 C   0  0  0  0  0  0  0  0  0  0  0  0
   40.0180   35.2490   40.4290 O   0  0  0  0  0  0  0  0  0  0  0  0
   37.8500   34.4920   39.8620 N   0  0  0  0  0  0  0  0  0  0  0  0
   38.7010   36.5510   39.9030 H   0  0  0  0  0  0  0  0  0  0  0  0
   36.8850   34.7910   39.6230 H   0  0  0  0  0  0  0  0  0  0  0  0
  1  2  2  0  0  0  0
  3  4  1  0  0  0  0
  3  1  1  0  0  0  0
  4  9  1  0  0  0  0
  5 10  1  0  0  0  0
  5  4  2  0  0  0  0
  6  5  1  0  0  0  0
  7  6  2  0  0  0  0
  7  8  1  0  0  0  0
  8  3  2  0  0  0  0
 11 12  1  0  0  0  0
 12  7  1  0  0  0  0
 13 14  1  0  0  0  0
 13 12  2  0  0  0  0
 15 13  1  0  0  0  0
 16 22  1  0  0  0  0
 16 15  1  0  0  0  0
 17 19  2  0  0  0  0
 17 16  1  0  0  0  0
 18 17  1  0  0  0  0
 19 20  1  0  0  0  0
 20 15  2  0  0  0  0
 20 21  1  0  0  0  0
 21 11  2  0  0  0  0
 23  1  1  0  0  0  0
 24 23  1  0  0  0  0
 25 29  1  0  0  0  0
 25 24  2  0  0  0  0
 26 27  2  0  0  0  0
 26 25  1  0  0  0  0
 27 28  1  0  0  0  0
 28 24  1  0  0  0  0
 30 26  1  0  0  0  0
 31 34  1  6  0  0  0
 31 33  1  0  0  0  0
 31 27  1  0  0  0  0
 32 31  1  0  0  0  0
 32 33  1  0  0  0  0
 33 37  1  1  0  0  0
 35 32  1  0  0  0  0
 36 32  1  0  0  0  0
 38 39  2  0  0  0  0
 40 33  1  0  0  0  0
 40 38  1  0  0  0  0
 41 38  1  0  0  0  0
 42 40  1  0  0  0  0
M  END
>  <minimizedAffinity>
-6.87416124

$$$$

 OpenBabel03242518413D

 42 46  0  0  1  0  0  0  0  0999 V2000
   41.3590   33.4100   40.0040 C   0  0  0  0  0  0  0  0  0  0  0  0
   42.4180   32.7230   39.9110 O   0  0  0  0  0  0  0  0  0  0  0  0
   40.0370   32.9260   40.1980 C   0  0  0  0  0  0  0  0  0  0  0  0
   39.0250   33.7790   39.9030 C   0  0  0  0  0  0  0  0  0  0  0  0
   37.7100   33.3600   40.0760 C   0  0  0  0  0  0  0  0  0  0  0  0
   37.5040   32.1220   40.5290 N   0  0  0  0  0  0  0  0  0  0  0  0
   38.5020   31.2850   40.8180 C   0  0  0  0  0  0  0  0  0  0  0  0
   39.7650   31.7150   40.6420 N   0  0  0  0  0  0  0  0  0  0  0  0
   39.1680   34.7950   39.5330 H   0  0  0  0  0  0  0  0  0  0  0  0
   36.8940   34.0410   39.8410 H   0  0  0  0  0  0  0  0  0  0  0  0
   38.4420   29.6680   42.6540 C   0  0  0  0  0  3  0  0  0  0  0  0
   38.2450   29.9320   41.3120 C   0  0  0  0  0  0  0  0  0  0  0  0
   37.8140   28.9030   40.5000 C   0  0  0  0  0  0  0  0  0  0  0  0
   37.6530   29.0730   39.4650 H   0  0  0  0  0  0  0  0  0  0  0  0
   37.6070   27.6590   41.1020 C   0  0  0  0  0  0  0  0  0  0  0  0
   37.1910   26.4800   40.5670 N   0  0  0  0  0  0  0  0  0  0  0  0
   37.1370   25.5340   41.5440 C   0  0  0  0  0  0  0  0  0  0  0  0
   36.8540   24.4890   41.4950 H   0  0  0  0  0  0  0  0  0  0  0  0
   37.5250   26.1300   42.7090 N   0  0  0  0  0  0  0  0  0  0  0  0
   37.8100   27.4080   42.4540 C   0  0  0  0  0  0  0  0  0  0  0  0
   38.2420   28.4450   43.2600 C   0  0  0  0  0  3  0  0  0  0  0  0
   36.9420   26.2790   39.5740 H   0  0  0  0  0  0  0  0  0  0  0  0
   41.5190   34.8030   39.9030 O   0  0  0  0  0  0  0  0  0  0  0  0
   41.9710   35.5220   41.0410 C   0  0  0  0  0  0  0  0  0  0  0  0
   41.3880   36.5620   41.7790 C   0  0  0  0  0  0  0  0  0  0  0  0
   42.2470   36.9140   42.8020 C   0  0  0  0  0  0  0  0  0  0  0  0
   43.3070   36.0800   42.6420 C   0  0  0  0  0  0  0  0  0  0  0  0
   43.1420   35.2680   41.6130 O   0  0  0  0  0  0  0  0  0  0  0  0
   40.4220   36.9530   41.5130 H   0  0  0  0  0  0  0  0  0  0  0  0
   42.0550   37.6850   43.5260 H   0  0  0  0  0  0  0  0  0  0  0  0
   44.5000   36.0790   43.5090 C   0  0  2  0  0  0  0  0  0  0  0  0
   45.8420   35.9990   42.9390 C   0  0  0  0  0  0  0  0  0  0  0  0
   45.2780   34.7350   43.4900 C   0  0  1  0  0  0  0  0  0  0  0  0
   44.3540   36.5260   44.5150 H   0  0  0  0  0  0  0  0  0  0  0  0
   46.0360   35.9980   41.8530 H   0  0  0  0  0  0  0  0  0  0  0  0
   46.6870   36.4810   43.4990 H   0  0  0  0  0  0  0  0  0  0  0  0
   44.8640   33.9350   42.8780 H   0  0  0  0  0  0  0  0  0  0  0  0
   45.4690   33.0530   45.3050 C   0  0  0  0  0  0  0  0  0  0  0  0
   44.7240   32.2260   44.7030 O   0  0  0  0  0  0  0  0  0  0  0  0
   45.7650   34.3480   44.8090 N   0  0  0  0  0  0  0  0  0  0  0  0
   45.8300   32.6290   46.2260 H   0  0  0  0  0  0  0  0  0  0  0  0
   46.3250   34.9870   45.4050 H   0  0  0  0  0  0  0  0  0  0  0  0
  1  3  1  0  0  0  0
  2  1  2  0  0  0  0
  3  8  1  0  0  0  0
  4  5  1  0  0  0  0
  4  3  2  0  0  0  0
  5  6  2  0  0  0  0
  6  7  1  0  0  0  0
  7 12  1  0  0  0  0
  8  7  2  0  0  0  0
  9  4  1  0  0  0  0
 10  5  1  0  0  0  0
 11 21  1  0  0  0  0
 12 11  2  0  0  0  0
 13 15  2  0  0  0  0
 13 12  1  0  0  0  0
 14 13  1  0  0  0  0
 15 20  1  0  0  0  0
 16 15  1  0  0  0  0
 16 17  1  0  0  0  0
 17 19  2  0  0  0  0
 18 17  1  0  0  0  0
 20 19  1  0  0  0  0
 20 21  2  0  0  0  0
 22 16  1  0  0  0  0
 23  1  1  0  0  0  0
 23 24  1  0  0  0  0
 24 28  1  0  0  0  0
 24 25  2  0  0  0  0
 25 26  1  0  0  0  0
 26 30  1  0  0  0  0
 27 26  2  0  0  0  0
 27 31  1  0  0  0  0
 28 27  1  0  0  0  0
 29 25  1  0  0  0  0
 31 34  1  1  0  0  0
 32 33  1  0  0  0  0
 32 36  1  0  0  0  0
 32 31  1  0  0  0  0
 33 37  1  6  0  0  0
 33 31  1  0  0  0  0
 33 40  1  0  0  0  0
 35 32  1  0  0  0  0
 38 41  1  0  0  0  0
 39 38  2  0  0  0  0
 40 38  1  0  0  0  0
 40 42  1  0  0  0  0
M  END
>  <minimizedAffinity>
-6.86013079

$$$$

 OpenBabel03242518413D

 42 46  0  0  1  0  0  0  0  0999 V2000
   37.5290   32.1130   39.8450 C   0  0  0  0  0  0  0  0  0  0  0  0
   37.5700   32.3330   38.6000 O   0  0  0  0  0  0  0  0  0  0  0  0
   37.3200   30.8620   40.4870 C   0  0  0  0  0  0  0  0  0  0  0  0
   36.0870   30.3100   40.3640 C   0  0  0  0  0  0  0  0  0  0  0  0
   35.8240   29.0880   40.9730 C   0  0  0  0  0  0  0  0  0  0  0  0
   36.8110   28.5080   41.6580 N   0  0  0  0  0  0  0  0  0  0  0  0
   38.0230   29.0520   41.7770 C   0  0  0  0  0  0  0  0  0  0  0  0
   38.2510   30.2350   41.1780 N   0  0  0  0  0  0  0  0  0  0  0  0
   35.2650   30.7670   39.8100 H   0  0  0  0  0  0  0  0  0  0  0  0
   34.8360   28.6420   40.8770 H   0  0  0  0  0  0  0  0  0  0  0  0
   38.7690   27.2780   43.2880 C   0  0  0  0  0  3  0  0  0  0  0  0
   39.0860   28.3910   42.5340 C   0  0  0  0  0  0  0  0  0  0  0  0
   40.3950   28.8270   42.5320 C   0  0  0  0  0  0  0  0  0  0  0  0
   40.6720   29.6800   41.9620 H   0  0  0  0  0  0  0  0  0  0  0  0
   41.3110   28.1040   43.2990 C   0  0  0  0  0  0  0  0  0  0  0  0
   42.6450   28.2910   43.4900 N   0  0  0  0  0  0  0  0  0  0  0  0
   43.1220   27.3300   44.3270 C   0  0  0  0  0  0  0  0  0  0  0  0
   44.1240   27.1610   44.7030 H   0  0  0  0  0  0  0  0  0  0  0  0
   42.0710   26.5290   44.6670 N   0  0  0  0  0  0  0  0  0  0  0  0
   40.9770   26.9850   44.0540 C   0  0  0  0  0  0  0  0  0  0  0  0
   39.6630   26.5540   44.0510 C   0  0  0  0  0  3  0  0  0  0  0  0
   43.2520   29.0360   43.0830 H   0  0  0  0  0  0  0  0  0  0  0  0
   37.7130   33.2320   40.6750 O   0  0  0  0  0  0  0  0  0  0  0  0
   38.8200   34.0870   40.4330 C   0  0  0  0  0  0  0  0  0  0  0  0
   38.8920   35.4290   40.0320 C   0  0  0  0  0  0  0  0  0  0  0  0
   40.2210   35.7920   39.9400 C   0  0  0  0  0  0  0  0  0  0  0  0
   40.8940   34.6650   40.2850 C   0  0  0  0  0  0  0  0  0  0  0  0
   40.0730   33.6710   40.5730 O   0  0  0  0  0  0  0  0  0  0  0  0
   37.9980   35.9990   39.8510 H   0  0  0  0  0  0  0  0  0  0  0  0
   40.5720   36.7670   39.6520 H   0  0  0  0  0  0  0  0  0  0  0  0
   42.3650   34.5580   40.3320 C   0  0  2  0  0  0  0  0  0  0  0  0
   43.0140   33.4200   40.9770 C   0  0  0  0  0  0  0  0  0  0  0  0
   42.9490   34.6810   41.7660 C   0  0  1  0  0  0  0  0  0  0  0  0
   42.9060   35.1320   39.5500 H   0  0  0  0  0  0  0  0  0  0  0  0
   42.4560   32.5660   41.3980 H   0  0  0  0  0  0  0  0  0  0  0  0
   44.0180   33.0950   40.5950 H   0  0  0  0  0  0  0  0  0  0  0  0
   42.2390   34.8590   42.5730 H   0  0  0  0  0  0  0  0  0  0  0  0
   44.4720   36.2330   42.9630 C   0  0  0  0  0  0  0  0  0  0  0  0
   43.6820   36.3520   43.9440 O   0  0  0  0  0  0  0  0  0  0  0  0
   44.1770   35.4660   41.8070 N   0  0  0  0  0  0  0  0  0  0  0  0
   45.3750   36.7910   43.1390 H   0  0  0  0  0  0  0  0  0  0  0  0
   44.8520   35.4850   41.0190 H   0  0  0  0  0  0  0  0  0  0  0  0
  1  3  1  0  0  0  0
  1 23  1  0  0  0  0
  2  1  2  0  0  0  0
  3  8  1  0  0  0  0
  4  3  2  0  0  0  0
  4  5  1  0  0  0  0
  5  6  2  0  0  0  0
  6  7  1  0  0  0  0
  7 12  1  0  0  0  0
  8  7  2  0  0  0  0
  9  4  1  0  0  0  0
 10  5  1  0  0  0  0
 11 21  1  0  0  0  0
 12 11  2  0  0  0  0
 13 12  1  0  0  0  0
 13 15  2  0  0  0  0
 14 13  1  0  0  0  0
 15 16  1  0  0  0  0
 15 20  1  0  0  0  0
 16 17  1  0  0  0  0
 17 19  2  0  0  0  0
 17 18  1  0  0  0  0
 20 19  1  0  0  0  0
 21 20  2  0  0  0  0
 22 16  1  0  0  0  0
 24 28  1  0  0  0  0
 24 23  1  0  0  0  0
 25 24  2  0  0  0  0
 26 25  1  0  0  0  0
 26 27  2  0  0  0  0
 27 31  1  0  0  0  0
 27 28  1  0  0  0  0
 29 25  1  0  0  0  0
 30 26  1  0  0  0  0
 31 34  1  6  0  0  0
 31 32  1  0  0  0  0
 31 33  1  0  0  0  0
 32 35  1  0  0  0  0
 32 33  1  0  0  0  0
 33 40  1  0  0  0  0
 33 37  1  1  0  0  0
 36 32  1  0  0  0  0
 38 41  1  0  0  0  0
 38 39  2  0  0  0  0
 40 38  1  0  0  0  0
 42 40  1  0  0  0  0
M  END
>  <minimizedAffinity>
-6.85730791

$$$$

 OpenBabel03242518413D

 42 46  0  0  1  0  0  0  0  0999 V2000
   37.6380   28.3620   43.3470 C   0  0  0  0  0  0  0  0  0  0  0  0
   36.8380   28.0700   44.2840 O   0  0  0  0  0  0  0  0  0  0  0  0
   37.4010   29.2510   42.2640 C   0  0  0  0  0  0  0  0  0  0  0  0
   36.3460   28.9670   41.4600 C   0  0  0  0  0  0  0  0  0  0  0  0
   36.0670   29.8020   40.3840 C   0  0  0  0  0  0  0  0  0  0  0  0
   36.8610   30.8570   40.1910 N   0  0  0  0  0  0  0  0  0  0  0  0
   37.8980   31.1340   40.9830 C   0  0  0  0  0  0  0  0  0  0  0  0
   38.1450   30.3100   42.0180 N   0  0  0  0  0  0  0  0  0  0  0  0
   35.6840   28.1110   41.5980 H   0  0  0  0  0  0  0  0  0  0  0  0
   35.2220   29.5790   39.7360 H   0  0  0  0  0  0  0  0  0  0  0  0
   40.1200   32.1510   40.8540 C   0  0  0  0  0  3  0  0  0  0  0  0
   38.7510   32.2990   40.7460 C   0  0  0  0  0  0  0  0  0  0  0  0
   38.2510   33.5430   40.4190 C   0  0  0  0  0  0  0  0  0  0  0  0
   37.2040   33.6900   40.3290 H   0  0  0  0  0  0  0  0  0  0  0  0
   39.1770   34.5700   40.2190 C   0  0  0  0  0  0  0  0  0  0  0  0
   38.9870   35.8770   39.8930 N   0  0  0  0  0  0  0  0  0  0  0  0
   40.1930   36.5010   39.8060 C   0  0  0  0  0  0  0  0  0  0  0  0
   40.4360   37.5310   39.5710 H   0  0  0  0  0  0  0  0  0  0  0  0
   41.1530   35.5720   40.0820 N   0  0  0  0  0  0  0  0  0  0  0  0
   40.5530   34.4070   40.3320 C   0  0  0  0  0  0  0  0  0  0  0  0
   41.0450   33.1570   40.6600 C   0  0  0  0  0  3  0  0  0  0  0  0
   38.0830   36.3710   39.7260 H   0  0  0  0  0  0  0  0  0  0  0  0
   38.8930   27.7320   43.3920 O   0  0  0  0  0  0  0  0  0  0  0  0
   38.9800   26.3560   43.0550 C   0  0  0  0  0  0  0  0  0  0  0  0
   39.9040   25.3640   43.4120 C   0  0  0  0  0  0  0  0  0  0  0  0
   39.5350   24.1770   42.8100 C   0  0  0  0  0  0  0  0  0  0  0  0
   38.4120   24.4970   42.1180 C   0  0  0  0  0  0  0  0  0  0  0  0
   38.0900   25.7690   42.2630 O   0  0  0  0  0  0  0  0  0  0  0  0
   40.7340   25.5910   44.0590 H   0  0  0  0  0  0  0  0  0  0  0  0
   40.0650   23.2480   42.9110 H   0  0  0  0  0  0  0  0  0  0  0  0
   37.6420   23.5410   41.2990 C   0  0  2  0  0  0  0  0  0  0  0  0
   38.3150   22.6280   40.3800 C   0  0  0  0  0  0  0  0  0  0  0  0
   37.6990   23.8420   39.7770 C   0  0  1  0  0  0  0  0  0  0  0  0
   36.6350   23.2840   41.6930 H   0  0  0  0  0  0  0  0  0  0  0  0
   39.4130   22.5590   40.2940 H   0  0  0  0  0  0  0  0  0  0  0  0
   37.8320   21.6380   40.1660 H   0  0  0  0  0  0  0  0  0  0  0  0
   38.2620   24.7230   39.4700 H   0  0  0  0  0  0  0  0  0  0  0  0
   35.7640   24.7440   38.5110 C   0  0  0  0  0  0  0  0  0  0  0  0
   36.1880   25.9330   38.5850 O   0  0  0  0  0  0  0  0  0  0  0  0
   36.4160   23.6390   39.1150 N   0  0  0  0  0  0  0  0  0  0  0  0
   34.8560   24.7060   37.9350 H   0  0  0  0  0  0  0  0  0  0  0  0
   35.9570   22.7100   39.0650 H   0  0  0  0  0  0  0  0  0  0  0  0
  1 23  1  0  0  0  0
  1  2  2  0  0  0  0
  3  1  1  0  0  0  0
  4  9  1  0  0  0  0
  4  3  2  0  0  0  0
  5  4  1  0  0  0  0
  6  5  2  0  0  0  0
  6  7  1  0  0  0  0
  7  8  2  0  0  0  0
  8  3  1  0  0  0  0
 10  5  1  0  0  0  0
 12 11  1  0  0  0  0
 12  7  1  0  0  0  0
 13 12  2  0  0  0  0
 14 13  1  0  0  0  0
 15 20  2  0  0  0  0
 15 13  1  0  0  0  0
 16 15  1  0  0  0  0
 17 16  1  0  0  0  0
 17 19  2  0  0  0  0
 18 17  1  0  0  0  0
 19 20  1  0  0  0  0
 20 21  1  0  0  0  0
 21 11  2  0  0  0  0
 22 16  1  0  0  0  0
 24 23  1  0  0  0  0
 24 25  2  0  0  0  0
 25 29  1  0  0  0  0
 26 30  1  0  0  0  0
 26 25  1  0  0  0  0
 27 28  1  0  0  0  0
 27 26  2  0  0  0  0
 28 24  1  0  0  0  0
 31 34  1  1  0  0  0
 31 27  1  0  0  0  0
 32 31  1  0  0  0  0
 33 37  1  6  0  0  0
 33 32  1  0  0  0  0
 33 31  1  0  0  0  0
 35 32  1  0  0  0  0
 36 32  1  0  0  0  0
 38 39  2  0  0  0  0
 38 40  1  0  0  0  0
 40 33  1  0  0  0  0
 41 38  1  0  0  0  0
 42 40  1  0  0  0  0
M  END
>  <minimizedAffinity>
-6.7767148

$$$$
