
 OpenBabel03242519473D

 41 44  0  0  1  0  0  0  0  0999 V2000
   46.6430   32.8910   46.7480 C   0  0  2  0  0  0  0  0  0  0  0  0
   47.0770   32.7730   45.3420 C   0  0  1  0  0  0  0  0  0  0  0  0
   46.6380   31.4300   44.9470 O   0  0  0  0  0  0  0  0  0  0  0  0
   47.2950   30.7550   46.0040 C   0  0  0  0  0  0  0  0  0  0  0  0
   46.6060   31.4430   47.2120 C   0  0  2  0  0  0  0  0  0  0  0  0
   47.3010   33.5030   47.3890 H   0  0  0  0  0  0  0  0  0  0  0  0
   48.1590   32.7190   45.1890 H   0  0  0  0  0  0  0  0  0  0  0  0
   47.2360   29.6960   45.9940 H   0  0  0  0  0  0  0  0  0  0  0  0
   48.3620   31.0920   45.9660 H   0  0  0  0  0  0  0  0  0  0  0  0
   47.2550   31.2140   48.0860 H   0  0  0  0  0  0  0  0  0  0  0  0
   44.7230   35.2260   44.0130 C   0  0  0  0  0  0  0  0  0  0  0  0
   45.3270   35.6680   42.8370 C   0  0  0  0  0  0  0  0  0  0  0  0
   46.5730   35.1180   42.4740 C   0  0  0  0  0  0  0  0  0  0  0  0
   47.1420   34.1680   43.2900 N   0  0  0  0  0  0  0  0  0  0  0  0
   46.5230   33.7670   44.4210 C   0  0  0  0  0  0  0  0  0  0  0  0
   45.3210   34.2820   44.7930 N   0  0  0  0  0  0  0  0  0  0  0  0
   44.8520   36.4080   42.2310 H   0  0  0  0  0  0  0  0  0  0  0  0
   47.0710   35.4380   41.5680 H   0  0  0  0  0  0  0  0  0  0  0  0
   43.4860   35.7330   44.4280 O   0  0  0  0  0  0  0  0  0  0  0  0
   42.8900   36.0630   43.6700 H   0  0  0  0  0  0  0  0  0  0  0  0
   45.3000   33.4020   46.7900 O   0  0  0  0  0  0  0  0  0  0  0  0
   45.0730   33.3850   47.7530 H   0  0  0  0  0  0  0  0  0  0  0  0
   45.3330   30.9670   47.2740 O   0  0  0  0  0  0  0  0  0  0  0  0
   45.0970   29.9010   48.1050 C   0  0  0  0  0  0  0  0  0  0  0  0
   45.3170   30.1470   49.1390 H   0  0  0  0  0  0  0  0  0  0  0  0
   43.9010   29.9170   48.1800 H   0  0  0  0  0  0  0  0  0  0  0  0
   45.4700   28.5670   47.6060 C   0  0  0  0  0  0  0  0  0  0  0  0
   46.2980   28.5560   46.8700 H   0  0  0  0  0  0  0  0  0  0  0  0
   45.6930   27.8990   48.4760 H   0  0  0  0  0  0  0  0  0  0  0  0
   43.7460   26.7170   46.9500 C   0  0  0  0  0  3  0  0  0  0  0  0
   44.3170   27.9640   46.8850 C   0  0  0  0  0  0  0  0  0  0  0  0
   43.6780   28.8000   45.9530 C   0  0  0  0  0  0  0  0  0  0  0  0
   44.0360   29.8140   45.8090 H   0  0  0  0  0  0  0  0  0  0  0  0
   42.6000   28.4520   45.1690 C   0  0  0  0  0  0  0  0  0  0  0  0
   41.8820   29.1160   44.2460 N   0  0  0  0  0  0  0  0  0  0  0  0
   40.9310   28.2870   43.7900 C   0  0  0  0  0  0  0  0  0  0  0  0
   40.1760   28.4920   43.0400 H   0  0  0  0  0  0  0  0  0  0  0  0
   41.0580   27.0940   44.4390 N   0  0  0  0  0  0  0  0  0  0  0  0
   42.0890   27.1870   45.2950 C   0  0  0  0  0  0  0  0  0  0  0  0
   42.6700   26.3180   46.1920 C   0  0  0  0  0  3  0  0  0  0  0  0
   42.0390   30.0900   43.9440 H   0  0  0  0  0  0  0  0  0  0  0  0
  1 21  1  0  0  0  0
  1  5  1  0  0  0  0
  1  6  1  1  0  0  0
  2  7  1  6  0  0  0
  2  1  1  0  0  0  0
  3  2  1  0  0  0  0
  3  4  1  0  0  0  0
  4  5  1  0  0  0  0
  5 23  1  0  0  0  0
  5 10  1  1  0  0  0
  8  4  1  0  0  0  0
  9  4  1  0  0  0  0
 11 19  1  0  0  0  0
 11 16  1  0  0  0  0
 12 11  2  0  0  0  0
 13 12  1  0  0  0  0
 13 14  2  0  0  0  0
 14 15  1  0  0  0  0
 15 16  2  0  0  0  0
 15  2  1  0  0  0  0
 17 12  1  0  0  0  0
 18 13  1  0  0  0  0
 20 19  1  0  0  0  0
 21 22  1  0  0  0  0
 23 24  1  0  0  0  0
 24 26  1  0  0  0  0
 24 25  1  0  0  0  0
 27 24  1  0  0  0  0
 27 29  1  0  0  0  0
 28 27  1  0  0  0  0
 31 30  1  0  0  0  0
 31 27  1  0  0  0  0
 32 31  2  0  0  0  0
 33 32  1  0  0  0  0
 34 39  2  0  0  0  0
 34 32  1  0  0  0  0
 35 34  1  0  0  0  0
 36 35  1  0  0  0  0
 36 38  2  0  0  0  0
 37 36  1  0  0  0  0
 38 39  1  0  0  0  0
 39 40  1  0  0  0  0
 40 30  2  0  0  0  0
 41 35  1  0  0  0  0
M  END
>  <minimizedAffinity>
-6.04506207

>  <minimizedRMSD>
0.912501335

$$$$
