
 OpenBabel03242518393D

 42 46  0  0  1  0  0  0  0  0999 V2000
   47.8930   34.7810   41.5190 C   0  0  0  0  0  0  0  0  0  0  0  0
   48.7620   35.6650   41.2660 O   0  0  0  0  0  0  0  0  0  0  0  0
   46.9010   34.8200   42.5370 C   0  0  0  0  0  0  0  0  0  0  0  0
   46.0070   35.8400   42.4810 C   0  0  0  0  0  0  0  0  0  0  0  0
   45.0160   35.9300   43.4510 C   0  0  0  0  0  0  0  0  0  0  0  0
   44.9900   34.9960   44.4050 N   0  0  0  0  0  0  0  0  0  0  0  0
   45.8700   33.9950   44.4580 C   0  0  0  0  0  0  0  0  0  0  0  0
   46.8190   33.9310   43.5070 N   0  0  0  0  0  0  0  0  0  0  0  0
   46.0100   36.6140   41.7120 H   0  0  0  0  0  0  0  0  0  0  0  0
   44.2970   36.7450   43.4110 H   0  0  0  0  0  0  0  0  0  0  0  0
   46.0580   31.6670   45.1880 C   0  0  0  0  0  0  0  0  0  0  0  0
   45.8160   32.9860   45.5160 C   0  0  0  0  0  0  0  0  0  0  0  0
   45.5330   33.2910   46.8320 C   0  0  0  0  0  0  0  0  0  0  0  0
   45.3420   34.2950   47.1180 H   0  0  0  0  0  0  0  0  0  0  0  0
   45.5130   32.2310   47.7420 C   0  0  0  0  0  0  0  0  0  0  0  0
   45.2690   32.2220   49.0800 N   0  0  0  0  0  0  0  0  0  0  0  0
   45.3590   30.9480   49.5490 C   0  0  0  0  0  0  0  0  0  0  0  0
   45.2290   30.5570   50.5510 H   0  0  0  0  0  0  0  0  0  0  0  0
   45.6640   30.1450   48.4880 N   0  0  0  0  0  0  0  0  0  0  0  0
   45.7580   30.9070   47.3970 C   0  0  0  0  0  0  0  0  0  0  0  0
   46.0420   30.6110   46.0760 C   0  0  0  0  0  0  0  0  0  0  0  0
   45.0440   33.0350   49.6960 H   0  0  0  0  0  0  0  0  0  0  0  0
   47.9170   33.6410   40.6990 O   0  0  0  0  0  0  0  0  0  0  0  0
   47.9120   33.8130   39.2890 C   0  0  0  0  0  0  0  0  0  0  0  0
   48.5810   34.7240   38.4580 C   0  0  0  0  0  0  0  0  0  0  0  0
   48.2290   34.4670   37.1480 C   0  0  0  0  0  0  0  0  0  0  0  0
   47.3690   33.4210   37.2380 C   0  0  0  0  0  0  0  0  0  0  0  0
   47.1860   33.0410   38.4890 O   0  0  0  0  0  0  0  0  0  0  0  0
   49.2420   35.4640   38.8720 H   0  0  0  0  0  0  0  0  0  0  0  0
   48.5930   35.0140   36.2970 H   0  0  0  0  0  0  0  0  0  0  0  0
   46.7130   32.7840   36.0800 C   0  0  2  0  0  0  0  0  0  0  0  0
   46.8360   31.3470   35.8450 C   0  0  0  0  0  0  0  0  0  0  0  0
   47.7140   32.2310   35.0280 C   0  0  1  0  0  0  0  0  0  0  0  0
   45.8460   33.3390   35.6620 H   0  0  0  0  0  0  0  0  0  0  0  0
   47.3600   30.6660   36.5360 H   0  0  0  0  0  0  0  0  0  0  0  0
   45.9950   30.8210   35.3210 H   0  0  0  0  0  0  0  0  0  0  0  0
   48.7730   32.3890   35.2270 H   0  0  0  0  0  0  0  0  0  0  0  0
   48.2210   32.8890   32.6890 C   0  0  0  0  0  0  0  0  0  0  0  0
   49.4260   33.1640   32.9610 O   0  0  0  0  0  0  0  0  0  0  0  0
   47.2750   32.4670   33.6580 N   0  0  0  0  0  0  0  0  0  0  0  0
   48.0350   33.0250   31.6380 H   0  0  0  0  0  0  0  0  0  0  0  0
   46.2910   32.3350   33.3580 H   0  0  0  0  0  0  0  0  0  0  0  0
  1  3  1  0  0  0  0
  2  1  2  0  0  0  0
  3  8  1  0  0  0  0
  4  3  2  0  0  0  0
  4  5  1  0  0  0  0
  5  6  2  0  0  0  0
  6  7  1  0  0  0  0
  7 12  1  0  0  0  0
  8  7  2  0  0  0  0
  9  4  1  0  0  0  0
 10  5  1  0  0  0  0
 11 12  2  0  0  0  0
 11 21  1  0  0  0  0
 12 13  1  0  0  0  0
 13 14  1  0  0  0  0
 13 15  2  0  0  0  0
 15 16  1  0  0  0  0
 16 17  1  0  0  0  0
 16 22  1  0  0  0  0
 17 18  1  0  0  0  0
 19 17  2  0  0  0  0
 20 15  1  0  0  0  0
 20 19  1  0  0  0  0
 21 20  2  0  0  0  0
 23  1  1  0  0  0  0
 24 23  1  0  0  0  0
 25 29  1  0  0  0  0
 25 24  2  0  0  0  0
 26 27  2  0  0  0  0
 26 25  1  0  0  0  0
 27 28  1  0  0  0  0
 28 24  1  0  0  0  0
 30 26  1  0  0  0  0
 31 34  1  6  0  0  0
 31 27  1  0  0  0  0
 32 31  1  0  0  0  0
 32 35  1  0  0  0  0
 33 37  1  1  0  0  0
 33 32  1  0  0  0  0
 33 31  1  0  0  0  0
 36 32  1  0  0  0  0
 38 39  2  0  0  0  0
 38 40  1  0  0  0  0
 40 33  1  0  0  0  0
 41 38  1  0  0  0  0
 42 40  1  0  0  0  0
M  END
>  <minimizedAffinity>
-6.75079584

>  <minimizedRMSD>
0.751962364

$$$$
