
 OpenBabel03252509003D

 48 51  0  0  1  0  0  0  0  0999 V2000
   47.1360   34.2090   43.4610 N   0  0  0  0  0  0  0  0  0  0  0  0
   46.7070   35.3510   42.7380 C   0  0  0  0  0  0  0  0  0  0  0  0
   45.2220   35.6100   42.7530 C   0  0  0  0  0  0  0  0  0  0  0  0
   44.5280   35.1860   44.0210 C   0  0  0  0  0  0  0  0  0  0  0  0
   45.5090   34.6860   45.0540 C   0  0  0  0  0  0  0  0  0  0  0  0
   46.2650   33.5310   44.3010 C   0  0  2  0  0  0  0  0  0  0  0  0
   47.0410   35.4190   41.7000 H   0  0  0  0  0  0  0  0  0  0  0  0
   47.1700   36.2400   43.2600 H   0  0  0  0  0  0  0  0  0  0  0  0
   45.0680   36.7110   42.5630 H   0  0  0  0  0  0  0  0  0  0  0  0
   44.7630   35.0890   41.8810 H   0  0  0  0  0  0  0  0  0  0  0  0
   44.0010   36.0560   44.4690 H   0  0  0  0  0  0  0  0  0  0  0  0
   43.7990   34.3920   43.8200 H   0  0  0  0  0  0  0  0  0  0  0  0
   44.9680   34.2230   45.8860 H   0  0  0  0  0  0  0  0  0  0  0  0
   46.2510   35.4310   45.3460 H   0  0  0  0  0  0  0  0  0  0  0  0
   45.4790   32.8890   43.8350 H   0  0  0  0  0  0  0  0  0  0  0  0
   48.1970   33.4800   42.8320 C   0  0  0  0  0  0  0  0  0  0  0  0
   48.7750   32.9280   43.6170 H   0  0  0  0  0  0  0  0  0  0  0  0
   48.8820   34.1680   42.3310 H   0  0  0  0  0  0  0  0  0  0  0  0
   47.6020   32.4350   41.9380 C   0  0  0  0  0  0  0  0  0  0  0  0
   46.4920   32.5090   41.9360 H   0  0  0  0  0  0  0  0  0  0  0  0
   47.8520   31.3960   42.2170 H   0  0  0  0  0  0  0  0  0  0  0  0
   49.3880   32.1040   38.6500 C   0  0  0  0  0  0  0  0  0  0  0  0
   48.9740   31.8750   39.9750 C   0  0  0  0  0  0  0  0  0  0  0  0
   48.0260   32.6920   40.5370 C   0  0  0  0  0  0  0  0  0  0  0  0
   47.5320   33.6820   39.7820 N   0  0  0  0  0  0  0  0  0  0  0  0
   47.9250   33.9020   38.5170 C   0  0  0  0  0  0  0  0  0  0  0  0
   48.8510   33.1210   37.9390 N   0  0  0  0  0  0  0  0  0  0  0  0
   50.1300   31.4910   38.1610 H   0  0  0  0  0  0  0  0  0  0  0  0
   49.4100   31.0690   40.5170 H   0  0  0  0  0  0  0  0  0  0  0  0
   47.4550   34.7340   38.0050 H   0  0  0  0  0  0  0  0  0  0  0  0
   46.9370   32.9140   45.3490 O   0  0  0  0  0  0  0  0  0  0  0  0
   45.4300   30.8340   44.6890 O   0  0  0  0  0  0  0  0  0  0  0  0
   46.2120   31.4680   45.8220 P   0  0  2  0  0  0  0  0  0  0  0  0
   45.0390   31.8920   46.9970 O   0  0  0  0  0  0  0  0  0  0  0  0
   45.4190   31.7570   47.9000 H   0  0  0  0  0  0  0  0  0  0  0  0
   47.3130   30.4380   46.5310 O   0  0  0  0  0  0  0  0  0  0  0  0
   48.2220   28.2970   46.9390 C   0  0  0  0  0  3  0  0  0  0  0  0
   47.1110   29.1490   46.9370 C   0  0  0  0  0  0  0  0  0  0  0  0
   45.8950   28.6340   47.3420 C   0  0  0  0  0  0  0  0  0  0  0  0
   45.0230   29.2920   47.3430 H   0  0  0  0  0  0  0  0  0  0  0  0
   45.8070   27.2960   47.7370 C   0  0  0  0  0  0  0  0  0  0  0  0
   44.7360   26.5770   48.1680 N   0  0  0  0  0  0  0  0  0  0  0  0
   45.1160   25.3120   48.4420 C   0  0  0  0  0  0  0  0  0  0  0  0
   44.4520   24.5370   48.8020 H   0  0  0  0  0  0  0  0  0  0  0  0
   46.4400   25.2450   48.1780 N   0  0  0  0  0  0  0  0  0  0  0  0
   46.8940   26.4470   47.7420 C   0  0  0  0  0  0  0  0  0  0  0  0
   48.1040   26.9720   47.3370 C   0  0  0  0  0  3  0  0  0  0  0  0
   43.7800   26.9840   48.2590 H   0  0  0  0  0  0  0  0  0  0  0  0
  1  6  1  0  0  0  0
  2  3  1  0  0  0  0
  2  8  1  0  0  0  0
  2  1  1  0  0  0  0
  3  4  1  0  0  0  0
  4 11  1  0  0  0  0
  4  5  1  0  0  0  0
  5 14  1  0  0  0  0
  5 13  1  0  0  0  0
  6 15  1  6  0  0  0
  6  5  1  0  0  0  0
  6 31  1  0  0  0  0
  7  2  1  0  0  0  0
  9  3  1  0  0  0  0
 10  3  1  0  0  0  0
 12  4  1  0  0  0  0
 16  1  1  0  0  0  0
 16 17  1  0  0  0  0
 18 16  1  0  0  0  0
 19 21  1  0  0  0  0
 19 16  1  0  0  0  0
 20 19  1  0  0  0  0
 22 23  1  0  0  0  0
 23 29  1  0  0  0  0
 23 24  2  0  0  0  0
 24 19  1  0  0  0  0
 25 24  1  0  0  0  0
 26 25  2  0  0  0  0
 27 26  1  0  0  0  0
 27 22  2  0  0  0  0
 28 22  1  0  0  0  0
 30 26  1  0  0  0  0
 31 33  1  0  0  0  0
 33 32  2  6  0  0  0
 33 36  1  0  0  0  0
 33 34  1  0  0  0  0
 34 35  1  0  0  0  0
 36 38  1  0  0  0  0
 37 47  1  0  0  0  0
 38 37  2  0  0  0  0
 38 39  1  0  0  0  0
 39 40  1  0  0  0  0
 39 41  2  0  0  0  0
 41 46  1  0  0  0  0
 41 42  1  0  0  0  0
 42 48  1  0  0  0  0
 42 43  1  0  0  0  0
 43 44  1  0  0  0  0
 45 43  2  0  0  0  0
 46 45  1  0  0  0  0
 47 46  2  0  0  0  0
M  END
>  <minimizedAffinity>
-4.57839155

>  <minimizedRMSD>
1.43936741

$$$$
