
 OpenBabel03252503343D

 25 27  0  0  0  0  0  0  0  0999 V2000
   44.0610   32.0130   40.3440 C   0  0  0  0  0  0  0  0  0  0  0  0
   43.5690   31.0440   39.7030 O   0  0  0  0  0  0  0  0  0  0  0  0
   43.3300   32.3500   41.5120 N   0  0  0  0  0  0  0  0  0  0  0  0
   43.5860   33.1750   42.0960 H   0  0  0  0  0  0  0  0  0  0  0  0
   46.0780   33.4500   40.8100 C   0  0  0  0  0  3  0  0  0  0  0  0
   45.2620   32.7410   39.9510 C   0  0  0  0  0  0  0  0  0  0  0  0
   45.6190   32.7240   38.6120 C   0  0  0  0  0  0  0  0  0  0  0  0
   45.0800   32.2130   37.8220 H   0  0  0  0  0  0  0  0  0  0  0  0
   46.7530   33.3920   38.1490 C   0  0  0  0  0  0  0  0  0  0  0  0
   47.3700   33.5800   36.9730 N   0  0  0  0  0  0  0  0  0  0  0  0
   48.4630   34.3420   37.1400 C   0  0  0  0  0  0  0  0  0  0  0  0
   49.1830   34.6810   36.3980 H   0  0  0  0  0  0  0  0  0  0  0  0
   48.5960   34.6800   38.4450 N   0  0  0  0  0  0  0  0  0  0  0  0
   47.5420   34.0900   39.0400 C   0  0  0  0  0  0  0  0  0  0  0  0
   47.1990   34.1150   40.3740 C   0  0  0  0  0  3  0  0  0  0  0  0
   47.0290   33.1800   36.0650 H   0  0  0  0  0  0  0  0  0  0  0  0
   39.8360   31.2090   42.0490 C   0  0  0  0  0  0  0  0  0  0  0  0
   40.9230   31.9840   41.5890 C   0  0  0  0  0  0  0  0  0  0  0  0
   42.2140   31.5940   41.9570 C   0  0  0  0  0  0  0  0  0  0  0  0
   42.3840   30.5040   42.7320 N   0  0  0  0  0  0  0  0  0  0  0  0
   41.3070   29.7720   43.1620 C   0  0  0  0  0  0  0  0  0  0  0  0
   40.0620   30.1380   42.8140 N   0  0  0  0  0  0  0  0  0  0  0  0
   38.8250   31.4810   41.7830 H   0  0  0  0  0  0  0  0  0  0  0  0
   40.7260   32.8530   40.9670 H   0  0  0  0  0  0  0  0  0  0  0  0
   41.5600   28.9200   43.7760 H   0  0  0  0  0  0  0  0  0  0  0  0
  1  3  1  0  0  0  0
  2  1  2  0  0  0  0
  3 19  1  0  0  0  0
  3  4  1  0  0  0  0
  6  1  1  0  0  0  0
  6  5  2  0  0  0  0
  7  6  1  0  0  0  0
  8  7  1  0  0  0  0
  9  7  2  0  0  0  0
  9 14  1  0  0  0  0
 10 11  1  0  0  0  0
 10  9  1  0  0  0  0
 11 13  2  0  0  0  0
 12 11  1  0  0  0  0
 13 14  1  0  0  0  0
 14 15  2  0  0  0  0
 15  5  1  0  0  0  0
 16 10  1  0  0  0  0
 17 22  1  0  0  0  0
 18 19  1  0  0  0  0
 18 17  2  0  0  0  0
 19 20  2  0  0  0  0
 20 21  1  0  0  0  0
 21 25  1  0  0  0  0
 22 21  2  0  0  0  0
 23 17  1  0  0  0  0
 24 18  1  0  0  0  0
M  END
>  <minimizedAffinity>
-3.41949797

>  <minimizedRMSD>
4.45041704

$$$$
