
 OpenBabel03242517593D

 27 29  0  0  0  0  0  0  0  0999 V2000
   47.5030   34.8670   41.6390 C   0  0  0  0  0  0  0  0  0  0  0  0
   47.6510   35.9050   41.3260 H   0  0  0  0  0  0  0  0  0  0  0  0
   47.0190   34.8000   42.6470 H   0  0  0  0  0  0  0  0  0  0  0  0
   49.8070   34.2790   42.5160 C   0  0  0  0  0  0  0  0  0  0  0  0
   48.7590   34.0710   41.6750 C   0  0  0  0  0  0  0  0  0  0  0  0
   48.7830   33.0450   40.7370 C   0  0  0  0  0  0  0  0  0  0  0  0
   47.9650   32.8360   40.0370 H   0  0  0  0  0  0  0  0  0  0  0  0
   49.8620   32.1860   40.6060 C   0  0  0  0  0  0  0  0  0  0  0  0
   50.1510   31.1450   39.8160 N   0  0  0  0  0  0  0  0  0  0  0  0
   51.3690   30.7010   40.1580 C   0  0  0  0  0  0  0  0  0  0  0  0
   51.8010   29.8490   39.6340 H   0  0  0  0  0  0  0  0  0  0  0  0
   51.8490   31.4640   41.1630 N   0  0  0  0  0  0  0  0  0  0  0  0
   50.9220   32.3980   41.4580 C   0  0  0  0  0  0  0  0  0  0  0  0
   50.8960   33.4220   42.3940 C   0  0  0  0  0  0  0  0  0  0  0  0
   49.5080   30.7810   39.0800 H   0  0  0  0  0  0  0  0  0  0  0  0
   46.5500   34.1390   40.6800 C   0  0  0  0  0  0  0  0  0  0  0  0
   46.6770   33.0340   40.8080 H   0  0  0  0  0  0  0  0  0  0  0  0
   46.7810   34.4090   39.6550 H   0  0  0  0  0  0  0  0  0  0  0  0
   44.1570   34.0920   40.2150 C   0  0  0  0  0  0  0  0  0  0  0  0
   45.2010   34.4860   41.0510 C   0  0  0  0  0  0  0  0  0  0  0  0
   44.8600   35.1960   42.2030 C   0  0  0  0  0  0  0  0  0  0  0  0
   43.5390   35.4580   42.4400 N   0  0  0  0  0  0  0  0  0  0  0  0
   42.5580   35.0630   41.6120 C   0  0  0  0  0  0  0  0  0  0  0  0
   42.8660   34.3710   40.4840 N   0  0  0  0  0  0  0  0  0  0  0  0
   44.3850   33.5360   39.3050 H   0  0  0  0  0  0  0  0  0  0  0  0
   45.6240   35.5160   42.8690 H   0  0  0  0  0  0  0  0  0  0  0  0
   41.5150   35.2730   41.8030 H   0  0  0  0  0  0  0  0  0  0  0  0
  1  5  1  0  0  0  0
  1  3  1  0  0  0  0
  2  1  1  0  0  0  0
  5  4  2  0  0  0  0
  6  5  1  0  0  0  0
  7  6  1  0  0  0  0
  8  6  2  0  0  0  0
  8 13  1  0  0  0  0
  9 10  1  0  0  0  0
  9  8  1  0  0  0  0
 10 12  2  0  0  0  0
 11 10  1  0  0  0  0
 12 13  1  0  0  0  0
 13 14  2  0  0  0  0
 14  4  1  0  0  0  0
 15  9  1  0  0  0  0
 16 17  1  0  0  0  0
 16 20  1  0  0  0  0
 16  1  1  0  0  0  0
 18 16  1  0  0  0  0
 19 24  2  0  0  0  0
 19 20  1  0  0  0  0
 20 21  2  0  0  0  0
 21 22  1  0  0  0  0
 21 26  1  0  0  0  0
 23 27  1  0  0  0  0
 23 22  2  0  0  0  0
 24 23  1  0  0  0  0
 25 19  1  0  0  0  0
M  END
>  <minimizedAffinity>
-4.37016869

>  <minimizedRMSD>
4.50622511

$$$$
