
 OpenBabel03252507323D

 52 56  0  0  1  0  0  0  0  0999 V2000
   46.9980   32.1710   45.2980 C   0  0  0  0  0  0  0  0  0  0  0  0
   45.9580   32.8170   45.9480 C   0  0  0  0  0  0  0  0  0  0  0  0
   45.4420   34.0220   45.4140 C   0  0  0  0  0  0  0  0  0  0  0  0
   46.0370   34.4840   44.2420 N   0  0  0  0  0  0  0  0  0  0  0  0
   47.0390   33.8130   43.6680 C   0  0  0  0  0  0  0  0  0  0  0  0
   47.5120   32.6780   44.1850 N   0  0  0  0  0  0  0  0  0  0  0  0
   45.3950   32.6690   46.8450 H   0  0  0  0  0  0  0  0  0  0  0  0
   44.6520   34.6410   45.7780 H   0  0  0  0  0  0  0  0  0  0  0  0
   47.4750   30.9290   45.8740 C   0  0  2  0  0  0  0  0  0  0  0  0
   46.7530   29.6970   45.2470 C   0  0  0  0  0  0  0  0  0  0  0  0
   47.3920   28.4460   45.7490 C   0  0  0  0  0  0  0  0  0  0  0  0
   47.6830   28.4000   47.2120 C   0  0  0  0  0  0  0  0  0  0  0  0
   48.1320   29.6520   47.7700 C   0  0  0  0  0  0  0  0  0  0  0  0
   47.3040   30.8720   47.3110 C   0  0  2  0  0  0  0  0  0  0  0  0
   48.5290   30.7610   45.5400 H   0  0  0  0  0  0  0  0  0  0  0  0
   45.6680   29.7640   45.3940 H   0  0  0  0  0  0  0  0  0  0  0  0
   46.9340   29.8160   44.1600 H   0  0  0  0  0  0  0  0  0  0  0  0
   48.2390   28.2390   45.0680 H   0  0  0  0  0  0  0  0  0  0  0  0
   46.6600   27.6080   45.5530 H   0  0  0  0  0  0  0  0  0  0  0  0
   47.2120   27.6190   47.8090 H   0  0  0  0  0  0  0  0  0  0  0  0
   48.7030   27.8400   47.1730 H   0  0  0  0  0  0  0  0  0  0  0  0
   49.1900   29.9700   47.5960 H   0  0  0  0  0  0  0  0  0  0  0  0
   48.0270   29.6280   48.8860 H   0  0  0  0  0  0  0  0  0  0  0  0
   47.7650   31.6700   47.8940 H   0  0  0  0  0  0  0  0  0  0  0  0
   45.8970   30.6310   47.6380 N   0  0  0  0  0  0  0  0  0  0  0  0
   45.2420   30.4640   48.8700 C   0  0  0  0  0  0  0  0  0  0  0  0
   44.9620   31.4440   49.6510 O   0  0  0  0  0  0  0  0  0  0  0  0
   44.9020   29.1140   49.1870 N   0  0  0  0  0  0  0  0  0  0  0  0
   45.1460   30.4760   46.8630 H   0  0  0  0  0  0  0  0  0  0  0  0
   44.4000   28.4040   48.6490 H   0  0  0  0  0  0  0  0  0  0  0  0
   45.1870   28.7260   50.1130 H   0  0  0  0  0  0  0  0  0  0  0  0
   47.6350   34.3640   42.4470 C   0  0  0  0  0  0  0  0  0  0  0  0
   48.5390   35.4010   42.5030 C   0  0  0  0  0  0  0  0  0  0  0  0
   49.1400   35.9700   41.4010 C   0  0  0  0  0  0  0  0  0  0  0  0
   48.7720   35.4210   40.1930 C   0  0  0  0  0  0  0  0  0  0  0  0
   47.8720   34.3860   40.1190 C   0  0  0  0  0  0  0  0  0  0  0  0
   47.3030   33.8570   41.2480 N   0  0  0  0  0  0  0  0  0  0  0  0
   48.7780   35.7800   43.4920 H   0  0  0  0  0  0  0  0  0  0  0  0
   49.8360   36.7720   41.4800 H   0  0  0  0  0  0  0  0  0  0  0  0
   49.2150   35.8310   39.2980 H   0  0  0  0  0  0  0  0  0  0  0  0
   48.2850   33.8790   37.7560 C   0  0  0  0  0  3  0  0  0  0  0  0
   47.4620   33.7830   38.8570 C   0  0  0  0  0  0  0  0  0  0  0  0
   46.2880   33.1060   38.6660 C   0  0  0  0  0  0  0  0  0  0  0  0
   45.6050   32.9960   39.4800 H   0  0  0  0  0  0  0  0  0  0  0  0
   45.9020   32.5360   37.4710 C   0  0  0  0  0  0  0  0  0  0  0  0
   44.7950   31.8400   37.1010 N   0  0  0  0  0  0  0  0  0  0  0  0
   44.9260   31.5140   35.8140 C   0  0  0  0  0  0  0  0  0  0  0  0
   44.1530   30.9480   35.2970 H   0  0  0  0  0  0  0  0  0  0  0  0
   46.1150   32.0000   35.3600 N   0  0  0  0  0  0  0  0  0  0  0  0
   46.7440   32.6410   36.3700 C   0  0  0  0  0  0  0  0  0  0  0  0
   47.9330   33.3160   36.5260 C   0  0  0  0  0  3  0  0  0  0  0  0
   43.9990   31.6150   37.7380 H   0  0  0  0  0  0  0  0  0  0  0  0
  1  9  1  0  0  0  0
  1  2  1  0  0  0  0
  2  7  1  0  0  0  0
  3  8  1  0  0  0  0
  3  2  2  0  0  0  0
  4  3  1  0  0  0  0
  5  6  1  0  0  0  0
  5  4  2  0  0  0  0
  6  1  2  0  0  0  0
  9 15  1  6  0  0  0
  9 14  1  0  0  0  0
 10 16  1  0  0  0  0
 10 11  1  0  0  0  0
 10  9  1  0  0  0  0
 11 12  1  0  0  0  0
 12 13  1  0  0  0  0
 12 20  1  0  0  0  0
 13 23  1  0  0  0  0
 14 25  1  0  0  0  0
 14 13  1  0  0  0  0
 14 24  1  1  0  0  0
 17 10  1  0  0  0  0
 18 11  1  0  0  0  0
 19 11  1  0  0  0  0
 21 12  1  0  0  0  0
 22 13  1  0  0  0  0
 25 26  1  0  0  0  0
 26 28  1  0  0  0  0
 26 27  2  0  0  0  0
 28 31  1  0  0  0  0
 29 25  1  0  0  0  0
 30 28  1  0  0  0  0
 32 33  1  0  0  0  0
 32  5  1  0  0  0  0
 33 38  1  0  0  0  0
 34 39  1  0  0  0  0
 34 33  2  0  0  0  0
 35 34  1  0  0  0  0
 36 35  2  0  0  0  0
 36 37  1  0  0  0  0
 37 32  2  0  0  0  0
 40 35  1  0  0  0  0
 41 42  1  0  0  0  0
 42 36  1  0  0  0  0
 43 42  2  0  0  0  0
 43 44  1  0  0  0  0
 45 43  1  0  0  0  0
 46 45  1  0  0  0  0
 46 52  1  0  0  0  0
 47 46  1  0  0  0  0
 48 47  1  0  0  0  0
 49 47  2  0  0  0  0
 49 50  1  0  0  0  0
 50 51  1  0  0  0  0
 50 45  2  0  0  0  0
 51 41  2  0  0  0  0
M  END
>  <minimizedAffinity>
-6.88201427

>  <minimizedRMSD>
1.2117312

$$$$
