
 OpenBabel03252509083D

 44 48  0  0  0  0  0  0  0  0999 V2000
   48.0330   31.9960   37.8220 C   0  0  0  0  0  0  0  0  0  0  0  0
   47.2920   32.3080   36.7200 C   0  0  0  0  0  0  0  0  0  0  0  0
   46.0670   32.9360   36.8720 C   0  0  0  0  0  0  0  0  0  0  0  0
   45.5940   33.2480   38.1260 C   0  0  0  0  0  0  0  0  0  0  0  0
   46.3180   32.9480   39.2750 C   0  0  0  0  0  0  0  0  0  0  0  0
   47.5520   32.3130   39.0960 C   0  0  0  0  0  0  0  0  0  0  0  0
   45.4610   33.1940   36.0100 H   0  0  0  0  0  0  0  0  0  0  0  0
   44.6640   33.7320   38.3340 H   0  0  0  0  0  0  0  0  0  0  0  0
   46.0300   33.1520   40.2900 H   0  0  0  0  0  0  0  0  0  0  0  0
   48.1450   32.0640   39.9750 H   0  0  0  0  0  0  0  0  0  0  0  0
   46.9790   29.3660   32.4890 Cl  0  0  0  0  0  0  0  0  0  0  0  0
   47.5960   30.7060   33.4210 C   0  0  0  0  0  0  0  0  0  0  0  0
   47.1650   30.9360   34.6880 C   0  0  0  0  0  0  0  0  0  0  0  0
   47.7070   32.0310   35.3520 C   0  0  0  0  0  0  0  0  0  0  0  0
   48.6320   32.8510   34.7590 C   0  0  0  0  0  0  0  0  0  0  0  0
   49.0530   32.6080   33.4920 C   0  0  0  0  0  0  0  0  0  0  0  0
   48.5270   31.5220   32.8180 C   0  0  0  0  0  0  0  0  0  0  0  0
   49.0170   33.6920   35.3270 H   0  0  0  0  0  0  0  0  0  0  0  0
   49.7820   33.2740   33.0650 H   0  0  0  0  0  0  0  0  0  0  0  0
   48.8850   31.3590   31.8120 H   0  0  0  0  0  0  0  0  0  0  0  0
   43.8690   29.3970   35.7220 C   0  0  0  0  0  0  0  0  0  0  0  0
   44.8130   30.2560   35.1520 C   0  0  0  0  0  0  0  0  0  0  0  0
   46.1770   30.0540   35.2780 C   0  0  0  0  0  0  0  0  0  0  0  0
   46.4910   28.9660   35.9910 N   0  0  0  0  0  0  0  0  0  0  0  0
   45.6080   28.1340   36.5410 C   0  0  0  0  0  0  0  0  0  0  0  0
   44.3060   28.3440   36.4100 N   0  0  0  0  0  0  0  0  0  0  0  0
   42.8160   29.5960   35.5960 H   0  0  0  0  0  0  0  0  0  0  0  0
   44.4650   31.1250   34.5830 H   0  0  0  0  0  0  0  0  0  0  0  0
   46.0700   27.3070   37.0820 H   0  0  0  0  0  0  0  0  0  0  0  0
   49.5210   31.2090   37.7010 S   0  0  0  0  0  0  0  0  0  0  0  0
   49.3110   29.8370   37.0080 O   0  0  0  0  0  0  0  0  0  0  0  0
   50.3350   31.9940   36.6740 O   0  0  0  0  0  0  0  0  0  0  0  0
   51.7490   31.3310   39.3050 C   0  0  0  0  0  3  0  0  0  0  0  0
   50.4910   30.7260   39.0230 C   0  0  0  0  0  0  0  0  0  0  0  0
   50.2360   29.7980   40.0260 C   0  0  0  0  0  0  0  0  0  0  0  0
   49.2920   29.2810   39.9560 H   0  0  0  0  0  0  0  0  0  0  0  0
   50.9980   29.4730   41.1030 C   0  0  0  0  0  0  0  0  0  0  0  0
   50.8570   28.6080   42.1170 N   0  0  0  0  0  0  0  0  0  0  0  0
   51.9720   28.7440   42.8900 C   0  0  0  0  0  0  0  0  0  0  0  0
   52.1380   28.1660   43.7900 H   0  0  0  0  0  0  0  0  0  0  0  0
   52.7850   29.6900   42.3430 N   0  0  0  0  0  0  0  0  0  0  0  0
   52.1890   30.1540   41.2260 C   0  0  0  0  0  0  0  0  0  0  0  0
   52.6270   31.1110   40.3430 C   0  0  0  0  0  3  0  0  0  0  0  0
   50.0530   27.9730   42.2640 H   0  0  0  0  0  0  0  0  0  0  0  0
  1  6  1  0  0  0  0
  2  3  1  0  0  0  0
  2  1  2  0  0  0  0
  3  4  2  0  0  0  0
  4  8  1  0  0  0  0
  4  5  1  0  0  0  0
  5  9  1  0  0  0  0
  6  5  2  0  0  0  0
  6 10  1  0  0  0  0
  7  3  1  0  0  0  0
 11 12  1  0  0  0  0
 12 13  1  0  0  0  0
 13 23  1  0  0  0  0
 13 14  2  0  0  0  0
 14  2  1  0  0  0  0
 15 18  1  0  0  0  0
 15 14  1  0  0  0  0
 16 15  2  0  0  0  0
 17 12  2  0  0  0  0
 17 16  1  0  0  0  0
 19 16  1  0  0  0  0
 20 17  1  0  0  0  0
 21 26  1  0  0  0  0
 22 23  1  0  0  0  0
 22 21  2  0  0  0  0
 23 24  2  0  0  0  0
 24 25  1  0  0  0  0
 25 29  1  0  0  0  0
 26 25  2  0  0  0  0
 27 21  1  0  0  0  0
 28 22  1  0  0  0  0
 30  1  1  0  0  0  0
 30 34  1  0  0  0  0
 31 30  2  0  0  0  0
 32 30  2  0  0  0  0
 33 43  1  0  0  0  0
 34 33  2  0  0  0  0
 34 35  1  0  0  0  0
 35 37  2  0  0  0  0
 36 35  1  0  0  0  0
 37 42  1  0  0  0  0
 37 38  1  0  0  0  0
 38 44  1  0  0  0  0
 38 39  1  0  0  0  0
 39 40  1  0  0  0  0
 41 39  2  0  0  0  0
 42 41  1  0  0  0  0
 43 42  2  0  0  0  0
M  END
>  <minimizedAffinity>
-3.66332865

>  <minimizedRMSD>
7.49281073

$$$$
