
 OpenBabel03252500543D

 33 35  0  0  0  0  0  0  0  0999 V2000
   43.4150   36.4030   40.6220 O   0  0  0  0  0  0  0  0  0  0  0  0
   43.3970   35.1250   41.4330 P   0  0  1  0  0  0  0  0  0  0  0  0
   42.5100   35.3860   42.8660 O   0  0  0  0  0  0  0  0  0  0  0  0
   41.7670   36.0260   42.6800 H   0  0  0  0  0  0  0  0  0  0  0  0
   42.6080   33.9130   40.5630 O   0  0  0  0  0  0  0  0  0  0  0  0
   40.2890   33.9750   40.1850 C   0  0  0  0  0  0  0  0  0  0  0  0
   41.3620   33.3780   40.8280 C   0  0  0  0  0  0  0  0  0  0  0  0
   41.0930   32.2930   41.6830 C   0  0  0  0  0  0  0  0  0  0  0  0
   39.8090   31.9100   41.8180 N   0  0  0  0  0  0  0  0  0  0  0  0
   38.7840   32.5070   41.1830 C   0  0  0  0  0  0  0  0  0  0  0  0
   39.0380   33.5310   40.3750 N   0  0  0  0  0  0  0  0  0  0  0  0
   41.9440   31.8580   42.1610 H   0  0  0  0  0  0  0  0  0  0  0  0
   37.7770   32.1490   41.3350 H   0  0  0  0  0  0  0  0  0  0  0  0
   40.4900   35.1120   39.2770 C   0  0  0  0  0  0  0  0  0  0  0  0
   41.5800   35.3870   39.2760 H   0  0  0  0  0  0  0  0  0  0  0  0
   39.9540   36.0270   39.5470 H   0  0  0  0  0  0  0  0  0  0  0  0
   40.1460   34.6870   37.8690 C   0  0  0  0  0  0  0  0  0  0  0  0
   40.1720   35.5840   37.2230 H   0  0  0  0  0  0  0  0  0  0  0  0
   40.8050   33.9020   37.4920 H   0  0  0  0  0  0  0  0  0  0  0  0
   39.0880   34.2930   37.8470 H   0  0  0  0  0  0  0  0  0  0  0  0
   44.9700   34.7030   41.9050 O   0  0  0  0  0  0  0  0  0  0  0  0
   45.0570   32.5110   42.7330 C   0  0  0  0  0  0  0  0  0  0  0  0
   45.2950   33.8600   42.9560 C   0  0  0  0  0  0  0  0  0  0  0  0
   45.8150   34.3230   44.1430 C   0  0  0  0  0  0  0  0  0  0  0  0
   45.9860   35.3650   44.2840 H   0  0  0  0  0  0  0  0  0  0  0  0
   46.1120   33.4210   45.1410 C   0  0  0  0  0  0  0  0  0  0  0  0
   46.6200   33.5370   46.3920 N   0  0  0  0  0  0  0  0  0  0  0  0
   46.7250   32.3260   46.9910 C   0  0  0  0  0  0  0  0  0  0  0  0
   47.0950   32.1470   47.9750 H   0  0  0  0  0  0  0  0  0  0  0  0
   46.2720   31.4240   46.1000 N   0  0  0  0  0  0  0  0  0  0  0  0
   45.8960   32.0520   44.9760 C   0  0  0  0  0  0  0  0  0  0  0  0
   45.3680   31.6440   43.7570 C   0  0  0  0  0  0  0  0  0  0  0  0
   46.8960   34.4530   46.8340 H   0  0  0  0  0  0  0  0  0  0  0  0
  2  1  2  6  0  0  0
  2 21  1  0  0  0  0
  2  3  1  0  0  0  0
  4  3  1  0  0  0  0
  5  7  1  0  0  0  0
  5  2  1  0  0  0  0
  6 11  2  0  0  0  0
  6  7  1  0  0  0  0
  7  8  2  0  0  0  0
  8  9  1  0  0  0  0
  8 12  1  0  0  0  0
 10 13  1  0  0  0  0
 10  9  2  0  0  0  0
 11 10  1  0  0  0  0
 14 16  1  0  0  0  0
 14  6  1  0  0  0  0
 15 14  1  0  0  0  0
 17 14  1  0  0  0  0
 18 17  1  0  0  0  0
 19 17  1  0  0  0  0
 20 17  1  0  0  0  0
 21 23  1  0  0  0  0
 22 23  2  0  0  0  0
 22 32  1  0  0  0  0
 23 24  1  0  0  0  0
 24 25  1  0  0  0  0
 24 26  2  0  0  0  0
 26 27  1  0  0  0  0
 27 33  1  0  0  0  0
 27 28  1  0  0  0  0
 28 29  1  0  0  0  0
 30 28  2  0  0  0  0
 31 26  1  0  0  0  0
 31 30  1  0  0  0  0
 32 31  2  0  0  0  0
M  END
>  <minimizedAffinity>
-5.02778101

>  <minimizedRMSD>
7.68055773

$$$$
