
 OpenBabel03252503273D

 28 30  0  0  0  0  0  0  0  0999 V2000
   47.9400   33.4180   39.9100 C   0  0  0  0  0  0  0  0  0  0  0  0
   48.1570   33.1080   38.5650 C   0  0  0  0  0  0  0  0  0  0  0  0
   49.2670   32.2710   38.2910 C   0  0  0  0  0  0  0  0  0  0  0  0
   50.0170   31.8460   39.3440 N   0  0  0  0  0  0  0  0  0  0  0  0
   49.7510   32.1840   40.6180 C   0  0  0  0  0  0  0  0  0  0  0  0
   48.7100   32.9730   40.9100 N   0  0  0  0  0  0  0  0  0  0  0  0
   45.5980   33.5620   40.2140 C   0  0  0  0  0  0  0  0  0  0  0  0
   45.6360   32.3410   39.8390 O   0  0  0  0  0  0  0  0  0  0  0  0
   46.8370   34.2590   40.2720 N   0  0  0  0  0  0  0  0  0  0  0  0
   47.4690   33.5250   37.8500 H   0  0  0  0  0  0  0  0  0  0  0  0
   50.4230   31.7820   41.3690 H   0  0  0  0  0  0  0  0  0  0  0  0
   46.9030   35.2390   40.5430 H   0  0  0  0  0  0  0  0  0  0  0  0
   44.1320   34.9650   41.7140 C   0  0  0  0  0  3  0  0  0  0  0  0
   44.3410   34.2200   40.5670 C   0  0  0  0  0  0  0  0  0  0  0  0
   43.2880   34.0940   39.7030 C   0  0  0  0  0  0  0  0  0  0  0  0
   43.4020   33.5280   38.8050 H   0  0  0  0  0  0  0  0  0  0  0  0
   42.0490   34.6890   39.9570 C   0  0  0  0  0  0  0  0  0  0  0  0
   40.8710   34.7190   39.2840 N   0  0  0  0  0  0  0  0  0  0  0  0
   39.9810   35.4580   40.0030 C   0  0  0  0  0  0  0  0  0  0  0  0
   38.9410   35.6880   39.7570 H   0  0  0  0  0  0  0  0  0  0  0  0
   40.5890   35.8920   41.1190 N   0  0  0  0  0  0  0  0  0  0  0  0
   41.8520   35.4320   41.1090 C   0  0  0  0  0  0  0  0  0  0  0  0
   42.9150   35.5600   41.9820 C   0  0  0  0  0  3  0  0  0  0  0  0
   40.6680   34.2540   38.3640 H   0  0  0  0  0  0  0  0  0  0  0  0
   49.4700   31.9630   36.8810 C   0  0  0  0  0  0  0  0  0  0  0  0
   48.7200   30.8200   36.5660 F   0  0  0  0  0  0  0  0  0  0  0  0
   50.7940   31.5830   36.7300 F   0  0  0  0  0  0  0  0  0  0  0  0
   49.0660   32.9510   36.0400 F   0  0  0  0  0  0  0  0  0  0  0  0
  1  9  1  0  0  0  0
  1  6  1  0  0  0  0
  2  1  2  0  0  0  0
  3  2  1  0  0  0  0
  3  4  2  0  0  0  0
  4  5  1  0  0  0  0
  5  6  2  0  0  0  0
  5 11  1  0  0  0  0
  7  9  1  0  0  0  0
  7 14  1  0  0  0  0
  8  7  2  0  0  0  0
  9 12  1  0  0  0  0
 10  2  1  0  0  0  0
 13 23  1  0  0  0  0
 14 13  2  0  0  0  0
 15 17  2  0  0  0  0
 15 14  1  0  0  0  0
 16 15  1  0  0  0  0
 17 22  1  0  0  0  0
 18 17  1  0  0  0  0
 18 19  1  0  0  0  0
 19 21  2  0  0  0  0
 20 19  1  0  0  0  0
 22 21  1  0  0  0  0
 22 23  2  0  0  0  0
 24 18  1  0  0  0  0
 25  3  1  0  0  0  0
 26 25  1  0  0  0  0
 27 25  1  0  0  0  0
 28 25  1  0  0  0  0
M  END
>  <minimizedAffinity>
-4.96676779

>  <minimizedRMSD>
4.39417171

$$$$
