
 OpenBabel03252509083D

 44 48  0  0  0  0  0  0  0  0999 V2000
   46.9680   32.1320   39.4250 C   0  0  0  0  0  0  0  0  0  0  0  0
   46.1140   33.0960   39.8760 C   0  0  0  0  0  0  0  0  0  0  0  0
   46.6230   34.2380   40.4720 C   0  0  0  0  0  0  0  0  0  0  0  0
   47.9820   34.4060   40.6110 C   0  0  0  0  0  0  0  0  0  0  0  0
   48.8860   33.4470   40.1630 C   0  0  0  0  0  0  0  0  0  0  0  0
   48.3480   32.3030   39.5650 C   0  0  0  0  0  0  0  0  0  0  0  0
   45.9640   35.0180   40.8390 H   0  0  0  0  0  0  0  0  0  0  0  0
   48.4590   35.2530   41.0560 H   0  0  0  0  0  0  0  0  0  0  0  0
   49.9570   33.4930   40.2290 H   0  0  0  0  0  0  0  0  0  0  0  0
   49.0270   31.5330   39.2030 H   0  0  0  0  0  0  0  0  0  0  0  0
   41.5510   31.9700   42.0130 Cl  0  0  0  0  0  0  0  0  0  0  0  0
   42.5780   32.5040   40.7070 C   0  0  0  0  0  0  0  0  0  0  0  0
   43.9260   32.5770   40.8610 C   0  0  0  0  0  0  0  0  0  0  0  0
   44.6640   33.0190   39.7690 C   0  0  0  0  0  0  0  0  0  0  0  0
   44.0660   33.3730   38.5870 C   0  0  0  0  0  0  0  0  0  0  0  0
   42.7180   33.2940   38.4480 C   0  0  0  0  0  0  0  0  0  0  0  0
   41.9690   32.8540   39.5240 C   0  0  0  0  0  0  0  0  0  0  0  0
   44.6950   33.7130   37.7700 H   0  0  0  0  0  0  0  0  0  0  0  0
   42.2900   33.5790   37.5040 H   0  0  0  0  0  0  0  0  0  0  0  0
   40.8990   32.8040   39.3780 H   0  0  0  0  0  0  0  0  0  0  0  0
   45.4310   32.7590   44.3260 C   0  0  0  0  0  0  0  0  0  0  0  0
   44.8600   33.1290   43.1040 C   0  0  0  0  0  0  0  0  0  0  0  0
   44.5220   32.2050   42.1300 C   0  0  0  0  0  0  0  0  0  0  0  0
   44.7940   30.9420   42.4750 N   0  0  0  0  0  0  0  0  0  0  0  0
   45.3370   30.5680   43.6320 C   0  0  0  0  0  0  0  0  0  0  0  0
   45.6540   31.4660   44.5540 N   0  0  0  0  0  0  0  0  0  0  0  0
   45.6770   33.5160   45.0540 H   0  0  0  0  0  0  0  0  0  0  0  0
   44.6720   34.1890   42.9050 H   0  0  0  0  0  0  0  0  0  0  0  0
   45.4780   29.4900   43.7170 H   0  0  0  0  0  0  0  0  0  0  0  0
   46.4050   30.7090   38.7120 S   0  0  0  0  0  0  0  0  0  0  0  0
   47.6120   29.9230   38.1360 O   0  0  0  0  0  0  0  0  0  0  0  0
   45.9280   29.8190   39.8580 O   0  0  0  0  0  0  0  0  0  0  0  0
   45.6330   31.2430   36.1290 C   0  0  0  0  0  3  0  0  0  0  0  0
   45.3370   30.6290   37.3790 C   0  0  0  0  0  0  0  0  0  0  0  0
   44.1310   29.9540   37.2420 C   0  0  0  0  0  0  0  0  0  0  0  0
   43.7960   29.4110   38.1110 H   0  0  0  0  0  0  0  0  0  0  0  0
   43.3260   29.8560   36.1510 C   0  0  0  0  0  0  0  0  0  0  0  0
   42.1590   29.2430   35.9060 N   0  0  0  0  0  0  0  0  0  0  0  0
   41.8520   29.5170   34.6070 C   0  0  0  0  0  0  0  0  0  0  0  0
   40.9540   29.1500   34.1240 H   0  0  0  0  0  0  0  0  0  0  0  0
   42.8330   30.2930   34.0670 N   0  0  0  0  0  0  0  0  0  0  0  0
   43.7610   30.5110   35.0210 C   0  0  0  0  0  0  0  0  0  0  0  0
   44.9250   31.2350   34.9470 C   0  0  0  0  0  3  0  0  0  0  0  0
   41.6160   28.6810   36.5840 H   0  0  0  0  0  0  0  0  0  0  0  0
  1  6  2  0  0  0  0
  1  2  1  0  0  0  0
  2  3  2  0  0  0  0
  3  4  1  0  0  0  0
  3  7  1  0  0  0  0
  4  8  1  0  0  0  0
  5  9  1  0  0  0  0
  5  4  2  0  0  0  0
  6  5  1  0  0  0  0
 10  6  1  0  0  0  0
 12 13  1  0  0  0  0
 12 11  1  0  0  0  0
 13 23  1  0  0  0  0
 14  2  1  0  0  0  0
 14 13  2  0  0  0  0
 15 14  1  0  0  0  0
 16 15  2  0  0  0  0
 16 17  1  0  0  0  0
 17 12  2  0  0  0  0
 18 15  1  0  0  0  0
 19 16  1  0  0  0  0
 20 17  1  0  0  0  0
 21 26  1  0  0  0  0
 21 27  1  0  0  0  0
 22 21  2  0  0  0  0
 23 24  2  0  0  0  0
 23 22  1  0  0  0  0
 24 25  1  0  0  0  0
 25 29  1  0  0  0  0
 25 26  2  0  0  0  0
 28 22  1  0  0  0  0
 30  1  1  0  0  0  0
 30 32  2  0  0  0  0
 31 30  2  0  0  0  0
 33 34  1  0  0  0  0
 34 30  1  0  0  0  0
 35 34  2  0  0  0  0
 35 36  1  0  0  0  0
 37 35  1  0  0  0  0
 38 37  1  0  0  0  0
 38 44  1  0  0  0  0
 39 38  1  0  0  0  0
 40 39  1  0  0  0  0
 41 39  2  0  0  0  0
 41 42  1  0  0  0  0
 42 37  2  0  0  0  0
 43 42  1  0  0  0  0
 43 33  2  0  0  0  0
M  END
>  <minimizedAffinity>
-4.0363493

>  <minimizedRMSD>
4.7413516

$$$$
