
 OpenBabel03252507323D

 52 56  0  0  1  0  0  0  0  0999 V2000
   47.0430   32.4390   45.3870 C   0  0  0  0  0  0  0  0  0  0  0  0
   45.9670   33.0830   45.9770 C   0  0  0  0  0  0  0  0  0  0  0  0
   45.3500   34.1680   45.3100 C   0  0  0  0  0  0  0  0  0  0  0  0
   45.8870   34.5200   44.0740 N   0  0  0  0  0  0  0  0  0  0  0  0
   46.9280   33.8580   43.5630 C   0  0  0  0  0  0  0  0  0  0  0  0
   47.4970   32.8360   44.2050 N   0  0  0  0  0  0  0  0  0  0  0  0
   45.4320   33.0080   46.9010 H   0  0  0  0  0  0  0  0  0  0  0  0
   44.5210   34.7670   45.6140 H   0  0  0  0  0  0  0  0  0  0  0  0
   47.6250   31.3200   46.1010 C   0  0  2  0  0  0  0  0  0  0  0  0
   47.1670   29.9570   45.4950 C   0  0  0  0  0  0  0  0  0  0  0  0
   47.9170   28.8500   46.1540 C   0  0  0  0  0  0  0  0  0  0  0  0
   48.0400   28.9340   47.6390 C   0  0  0  0  0  0  0  0  0  0  0  0
   48.2340   30.2700   48.1460 C   0  0  0  0  0  0  0  0  0  0  0  0
   47.2970   31.3200   47.5120 C   0  0  2  0  0  0  0  0  0  0  0  0
   48.7240   31.2950   45.8950 H   0  0  0  0  0  0  0  0  0  0  0  0
   46.0740   29.8670   45.5200 H   0  0  0  0  0  0  0  0  0  0  0  0
   47.4540   30.0390   44.4270 H   0  0  0  0  0  0  0  0  0  0  0  0
   48.8590   28.7350   45.5840 H   0  0  0  0  0  0  0  0  0  0  0  0
   47.3430   27.9000   45.9440 H   0  0  0  0  0  0  0  0  0  0  0  0
   47.6200   28.1260   48.2390 H   0  0  0  0  0  0  0  0  0  0  0  0
   49.1270   28.5350   47.7510 H   0  0  0  0  0  0  0  0  0  0  0  0
   49.2480   30.7350   48.0630 H   0  0  0  0  0  0  0  0  0  0  0  0
   48.0040   30.2950   49.2440 H   0  0  0  0  0  0  0  0  0  0  0  0
   47.5660   32.2120   48.0800 H   0  0  0  0  0  0  0  0  0  0  0  0
   45.9120   30.8870   47.7040 N   0  0  0  0  0  0  0  0  0  0  0  0
   45.1940   30.5470   48.8640 C   0  0  0  0  0  0  0  0  0  0  0  0
   44.7360   31.4210   49.6850 O   0  0  0  0  0  0  0  0  0  0  0  0
   45.0050   29.1450   49.0580 N   0  0  0  0  0  0  0  0  0  0  0  0
   45.2460   30.7050   46.8620 H   0  0  0  0  0  0  0  0  0  0  0  0
   44.6370   28.4240   48.4320 H   0  0  0  0  0  0  0  0  0  0  0  0
   45.2670   28.7230   49.9750 H   0  0  0  0  0  0  0  0  0  0  0  0
   47.4600   34.2920   42.2660 C   0  0  0  0  0  0  0  0  0  0  0  0
   48.4380   35.2580   42.1860 C   0  0  0  0  0  0  0  0  0  0  0  0
   48.9850   35.7150   41.0070 C   0  0  0  0  0  0  0  0  0  0  0  0
   48.4790   35.1300   39.8680 C   0  0  0  0  0  0  0  0  0  0  0  0
   47.5030   34.1650   39.9300 C   0  0  0  0  0  0  0  0  0  0  0  0
   46.9930   33.7460   41.1310 N   0  0  0  0  0  0  0  0  0  0  0  0
   48.7850   35.6710   43.1280 H   0  0  0  0  0  0  0  0  0  0  0  0
   49.7410   36.4640   40.9810 H   0  0  0  0  0  0  0  0  0  0  0  0
   48.8750   35.4540   38.9180 H   0  0  0  0  0  0  0  0  0  0  0  0
   45.6940   32.9540   38.8030 C   0  0  0  0  0  3  0  0  0  0  0  0
   46.9470   33.5260   38.7450 C   0  0  0  0  0  0  0  0  0  0  0  0
   47.5850   33.4410   37.5370 C   0  0  0  0  0  0  0  0  0  0  0  0
   48.5590   33.8640   37.4250 H   0  0  0  0  0  0  0  0  0  0  0  0
   47.0560   32.8340   36.4160 C   0  0  0  0  0  0  0  0  0  0  0  0
   47.5330   32.6580   35.1560 N   0  0  0  0  0  0  0  0  0  0  0  0
   46.6080   31.9990   34.4550 C   0  0  0  0  0  0  0  0  0  0  0  0
   46.7740   31.7440   33.4100 H   0  0  0  0  0  0  0  0  0  0  0  0
   45.5400   31.7540   35.2640 N   0  0  0  0  0  0  0  0  0  0  0  0
   45.7910   32.2630   36.4920 C   0  0  0  0  0  0  0  0  0  0  0  0
   45.1200   32.3310   37.6920 C   0  0  0  0  0  3  0  0  0  0  0  0
   48.4660   32.9920   34.8260 H   0  0  0  0  0  0  0  0  0  0  0  0
  1  2  1  0  0  0  0
  1  9  1  0  0  0  0
  2  7  1  0  0  0  0
  3  8  1  0  0  0  0
  3  2  2  0  0  0  0
  4  3  1  0  0  0  0
  5  4  2  0  0  0  0
  5  6  1  0  0  0  0
  6  1  2  0  0  0  0
  9 15  1  6  0  0  0
  9 14  1  0  0  0  0
 10 16  1  0  0  0  0
 10  9  1  0  0  0  0
 10 11  1  0  0  0  0
 11 12  1  0  0  0  0
 12 21  1  0  0  0  0
 12 13  1  0  0  0  0
 12 20  1  0  0  0  0
 13 23  1  0  0  0  0
 14 25  1  0  0  0  0
 14 24  1  1  0  0  0
 14 13  1  0  0  0  0
 17 10  1  0  0  0  0
 18 11  1  0  0  0  0
 19 11  1  0  0  0  0
 22 13  1  0  0  0  0
 25 26  1  0  0  0  0
 26 28  1  0  0  0  0
 26 27  2  0  0  0  0
 28 31  1  0  0  0  0
 29 25  1  0  0  0  0
 30 28  1  0  0  0  0
 32  5  1  0  0  0  0
 33 32  1  0  0  0  0
 33 38  1  0  0  0  0
 34 33  2  0  0  0  0
 35 36  2  0  0  0  0
 35 34  1  0  0  0  0
 36 37  1  0  0  0  0
 37 32  2  0  0  0  0
 39 34  1  0  0  0  0
 40 35  1  0  0  0  0
 42 41  1  0  0  0  0
 42 36  1  0  0  0  0
 43 42  2  0  0  0  0
 44 43  1  0  0  0  0
 45 50  2  0  0  0  0
 45 43  1  0  0  0  0
 46 45  1  0  0  0  0
 47 46  1  0  0  0  0
 47 49  2  0  0  0  0
 48 47  1  0  0  0  0
 49 50  1  0  0  0  0
 50 51  1  0  0  0  0
 51 41  2  0  0  0  0
 52 46  1  0  0  0  0
M  END
>  <minimizedAffinity>
-7.07471848

>  <minimizedRMSD>
1.14830923

$$$$
