
 OpenBabel03242514003D

 44 49  0  0  0  0  0  0  0  0999 V2000
   40.4740   32.3080   39.6710 C   0  0  0  0  0  0  0  0  0  0  0  0
   40.1190   33.6110   39.9940 C   0  0  0  0  0  0  0  0  0  0  0  0
   38.8250   33.8330   40.5230 C   0  0  0  0  0  0  0  0  0  0  0  0
   38.0210   32.7660   40.6800 N   0  0  0  0  0  0  0  0  0  0  0  0
   38.3800   31.5140   40.3620 C   0  0  0  0  0  0  0  0  0  0  0  0
   39.6360   31.2940   39.8480 N   0  0  0  0  0  0  0  0  0  0  0  0
   41.4760   32.1500   39.2620 H   0  0  0  0  0  0  0  0  0  0  0  0
   38.5060   34.8110   40.7850 H   0  0  0  0  0  0  0  0  0  0  0  0
   37.5510   30.3220   40.5100 C   0  0  0  0  0  0  0  0  0  0  0  0
   36.1800   30.4120   40.7240 C   0  0  0  0  0  0  0  0  0  0  0  0
   35.7080   29.1010   40.8180 C   0  0  0  0  0  0  0  0  0  0  0  0
   36.7700   28.2860   40.6630 N   0  0  0  0  0  0  0  0  0  0  0  0
   37.8540   29.0390   40.4810 N   0  0  0  0  0  0  0  0  0  0  0  0
   35.4930   31.2670   40.8190 H   0  0  0  0  0  0  0  0  0  0  0  0
   34.7360   28.7050   40.9760 H   0  0  0  0  0  0  0  0  0  0  0  0
   37.0690   26.2980   41.9210 C   0  0  0  0  0  3  0  0  0  0  0  0
   36.9490   26.8750   40.6550 C   0  0  0  0  0  0  0  0  0  0  0  0
   37.0070   26.0910   39.5140 C   0  0  0  0  0  0  0  0  0  0  0  0
   36.9090   26.5920   38.5630 H   0  0  0  0  0  0  0  0  0  0  0  0
   37.1860   24.7190   39.6480 C   0  0  0  0  0  0  0  0  0  0  0  0
   37.2700   23.7780   38.6900 N   0  0  0  0  0  0  0  0  0  0  0  0
   37.4430   22.6000   39.3560 C   0  0  0  0  0  0  0  0  0  0  0  0
   37.5580   21.5940   38.9780 H   0  0  0  0  0  0  0  0  0  0  0  0
   37.4610   22.8400   40.6800 N   0  0  0  0  0  0  0  0  0  0  0  0
   37.3010   24.1720   40.9090 C   0  0  0  0  0  0  0  0  0  0  0  0
   37.2480   24.9220   42.0650 C   0  0  0  0  0  3  0  0  0  0  0  0
   37.2220   23.8640   37.6510 H   0  0  0  0  0  0  0  0  0  0  0  0
   40.9380   34.7140   39.8370 O   0  0  0  0  0  0  0  0  0  0  0  0
   41.5390   35.4120   40.8730 C   0  0  0  0  0  0  0  0  0  0  0  0
   41.1110   36.5980   41.4200 C   0  0  0  0  0  0  0  0  0  0  0  0
   41.8240   37.1740   42.4560 C   0  0  0  0  0  0  0  0  0  0  0  0
   42.9720   36.5920   42.9730 C   0  0  0  0  0  0  0  0  0  0  0  0
   43.6080   37.2030   43.9730 N   0  0  0  0  0  0  0  0  0  0  0  0
   44.7320   36.6740   44.5100 C   0  0  0  0  0  0  0  0  0  0  0  0
   45.1870   35.4840   43.9820 C   0  0  0  0  0  0  0  0  0  0  0  0
   44.5230   34.8330   42.9300 C   0  0  0  0  0  0  0  0  0  0  0  0
   43.3860   35.4010   42.4120 C   0  0  0  0  0  0  0  0  0  0  0  0
   42.6870   34.7980   41.3660 C   0  0  0  0  0  0  0  0  0  0  0  0
   40.2130   37.0230   40.9930 H   0  0  0  0  0  0  0  0  0  0  0  0
   41.4220   38.0870   42.8180 H   0  0  0  0  0  0  0  0  0  0  0  0
   45.2630   37.1590   45.3250 H   0  0  0  0  0  0  0  0  0  0  0  0
   46.0880   35.0150   44.3780 H   0  0  0  0  0  0  0  0  0  0  0  0
   44.8810   33.9040   42.5190 H   0  0  0  0  0  0  0  0  0  0  0  0
   43.1050   33.8830   41.0160 H   0  0  0  0  0  0  0  0  0  0  0  0
  1  6  2  0  0  0  0
  1  2  1  0  0  0  0
  2  3  2  0  0  0  0
  3  4  1  0  0  0  0
  3  8  1  0  0  0  0
  5  9  1  0  0  0  0
  5  4  2  0  0  0  0
  6  5  1  0  0  0  0
  7  1  1  0  0  0  0
  9 10  1  0  0  0  0
 10 11  2  0  0  0  0
 10 14  1  0  0  0  0
 11 15  1  0  0  0  0
 12 11  1  0  0  0  0
 13  9  2  0  0  0  0
 13 12  1  0  0  0  0
 16 26  1  0  0  0  0
 17 12  1  0  0  0  0
 17 16  2  0  0  0  0
 18 20  2  0  0  0  0
 18 17  1  0  0  0  0
 19 18  1  0  0  0  0
 20 25  1  0  0  0  0
 21 22  1  0  0  0  0
 21 20  1  0  0  0  0
 22 24  2  0  0  0  0
 23 22  1  0  0  0  0
 24 25  1  0  0  0  0
 25 26  2  0  0  0  0
 27 21  1  0  0  0  0
 28  2  1  0  0  0  0
 28 29  1  0  0  0  0
 29 38  2  0  0  0  0
 29 30  1  0  0  0  0
 30 31  2  0  0  0  0
 31 40  1  0  0  0  0
 31 32  1  0  0  0  0
 32 33  1  0  0  0  0
 33 34  2  0  0  0  0
 34 41  1  0  0  0  0
 35 42  1  0  0  0  0
 35 34  1  0  0  0  0
 36 35  2  0  0  0  0
 37 36  1  0  0  0  0
 37 32  2  0  0  0  0
 38 37  1  0  0  0  0
 39 30  1  0  0  0  0
 43 36  1  0  0  0  0
 44 38  1  0  0  0  0
M  END
>  <minimizedAffinity>
-7.8510251

$$$$

 OpenBabel03242514003D

 44 49  0  0  0  0  0  0  0  0999 V2000
   40.0470   32.6680   39.1400 C   0  0  0  0  0  0  0  0  0  0  0  0
   39.8770   33.9570   39.6310 C   0  0  0  0  0  0  0  0  0  0  0  0
   38.6350   34.2800   40.2280 C   0  0  0  0  0  0  0  0  0  0  0  0
   37.6970   33.3170   40.2830 N   0  0  0  0  0  0  0  0  0  0  0  0
   37.8780   32.0780   39.8040 C   0  0  0  0  0  0  0  0  0  0  0  0
   39.0820   31.7600   39.2230 N   0  0  0  0  0  0  0  0  0  0  0  0
   41.0110   32.4320   38.6800 H   0  0  0  0  0  0  0  0  0  0  0  0
   38.4570   35.2510   40.6180 H   0  0  0  0  0  0  0  0  0  0  0  0
   36.8970   30.9960   39.8360 C   0  0  0  0  0  0  0  0  0  0  0  0
   36.3440   30.5520   41.0310 C   0  0  0  0  0  0  0  0  0  0  0  0
   35.4590   29.5250   40.6980 C   0  0  0  0  0  0  0  0  0  0  0  0
   35.5020   29.3840   39.3580 N   0  0  0  0  0  0  0  0  0  0  0  0
   36.3670   30.2720   38.8700 N   0  0  0  0  0  0  0  0  0  0  0  0
   36.4850   30.8580   42.0800 H   0  0  0  0  0  0  0  0  0  0  0  0
   34.8280   28.9100   41.2900 H   0  0  0  0  0  0  0  0  0  0  0  0
   35.5430   27.3540   38.1330 C   0  0  0  0  0  3  0  0  0  0  0  0
   34.8500   28.5300   38.4260 C   0  0  0  0  0  0  0  0  0  0  0  0
   33.6290   28.7970   37.8290 C   0  0  0  0  0  0  0  0  0  0  0  0
   33.1390   29.7210   38.0930 H   0  0  0  0  0  0  0  0  0  0  0  0
   33.1020   27.8750   36.9330 C   0  0  0  0  0  0  0  0  0  0  0  0
   31.9470   27.9260   36.2440 N   0  0  0  0  0  0  0  0  0  0  0  0
   31.9100   26.7750   35.5130 C   0  0  0  0  0  0  0  0  0  0  0  0
   31.1640   26.4090   34.8220 H   0  0  0  0  0  0  0  0  0  0  0  0
   33.0210   26.0580   35.7640 N   0  0  0  0  0  0  0  0  0  0  0  0
   33.8050   26.7190   36.6580 C   0  0  0  0  0  0  0  0  0  0  0  0
   35.0220   26.4220   37.2350 C   0  0  0  0  0  3  0  0  0  0  0  0
   31.2010   28.6560   36.2280 H   0  0  0  0  0  0  0  0  0  0  0  0
   40.8350   34.9520   39.5790 O   0  0  0  0  0  0  0  0  0  0  0  0
   41.4940   35.4790   40.6800 C   0  0  0  0  0  0  0  0  0  0  0  0
   41.1810   36.6400   41.3450 C   0  0  0  0  0  0  0  0  0  0  0  0
   41.9400   37.0350   42.4330 C   0  0  0  0  0  0  0  0  0  0  0  0
   43.0210   36.2920   42.8850 C   0  0  0  0  0  0  0  0  0  0  0  0
   43.7070   36.7330   43.9400 N   0  0  0  0  0  0  0  0  0  0  0  0
   44.7700   36.0440   44.4170 C   0  0  0  0  0  0  0  0  0  0  0  0
   45.1080   34.8750   43.7700 C   0  0  0  0  0  0  0  0  0  0  0  0
   44.3920   34.4020   42.6580 C   0  0  0  0  0  0  0  0  0  0  0  0
   43.3200   35.1290   42.2040 C   0  0  0  0  0  0  0  0  0  0  0  0
   42.5720   34.7080   41.1040 C   0  0  0  0  0  0  0  0  0  0  0  0
   40.3330   37.1930   40.9660 H   0  0  0  0  0  0  0  0  0  0  0  0
   41.6280   37.9420   42.8870 H   0  0  0  0  0  0  0  0  0  0  0  0
   45.3400   36.3890   45.2750 H   0  0  0  0  0  0  0  0  0  0  0  0
   45.9560   34.2810   44.1130 H   0  0  0  0  0  0  0  0  0  0  0  0
   44.6590   33.4890   42.1550 H   0  0  0  0  0  0  0  0  0  0  0  0
   42.9000   33.7970   40.6620 H   0  0  0  0  0  0  0  0  0  0  0  0
  1  6  2  0  0  0  0
  1  2  1  0  0  0  0
  2  3  2  0  0  0  0
  3  4  1  0  0  0  0
  3  8  1  0  0  0  0
  5  9  1  0  0  0  0
  5  4  2  0  0  0  0
  6  5  1  0  0  0  0
  7  1  1  0  0  0  0
  9 10  1  0  0  0  0
 10 14  1  0  0  0  0
 11 10  2  0  0  0  0
 11 15  1  0  0  0  0
 12 11  1  0  0  0  0
 13 12  1  0  0  0  0
 13  9  2  0  0  0  0
 16 17  1  0  0  0  0
 17 12  1  0  0  0  0
 18 19  1  0  0  0  0
 18 17  2  0  0  0  0
 20 18  1  0  0  0  0
 21 20  1  0  0  0  0
 22 24  2  0  0  0  0
 22 21  1  0  0  0  0
 23 22  1  0  0  0  0
 24 25  1  0  0  0  0
 25 20  2  0  0  0  0
 25 26  1  0  0  0  0
 26 16  2  0  0  0  0
 27 21  1  0  0  0  0
 28  2  1  0  0  0  0
 28 29  1  0  0  0  0
 29 38  2  0  0  0  0
 29 30  1  0  0  0  0
 30 31  2  0  0  0  0
 31 32  1  0  0  0  0
 31 40  1  0  0  0  0
 32 33  1  0  0  0  0
 33 34  2  0  0  0  0
 34 41  1  0  0  0  0
 35 42  1  0  0  0  0
 35 34  1  0  0  0  0
 36 35  2  0  0  0  0
 37 36  1  0  0  0  0
 37 32  2  0  0  0  0
 38 37  1  0  0  0  0
 39 30  1  0  0  0  0
 43 36  1  0  0  0  0
 44 38  1  0  0  0  0
M  END
>  <minimizedAffinity>
-7.47162151

$$$$

 OpenBabel03242514003D

 44 49  0  0  0  0  0  0  0  0999 V2000
   36.6320   31.4670   39.9640 C   0  0  0  0  0  0  0  0  0  0  0  0
   36.9640   30.6550   38.8880 C   0  0  0  0  0  0  0  0  0  0  0  0
   38.1310   30.9730   38.1540 C   0  0  0  0  0  0  0  0  0  0  0  0
   38.8460   32.0440   38.5450 N   0  0  0  0  0  0  0  0  0  0  0  0
   38.5100   32.8170   39.5880 C   0  0  0  0  0  0  0  0  0  0  0  0
   37.3770   32.5120   40.3030 N   0  0  0  0  0  0  0  0  0  0  0  0
   35.7270   31.2110   40.5230 H   0  0  0  0  0  0  0  0  0  0  0  0
   38.4270   30.3830   37.3220 H   0  0  0  0  0  0  0  0  0  0  0  0
   39.2460   33.9880   40.0560 C   0  0  0  0  0  0  0  0  0  0  0  0
   38.7520   35.2750   39.8800 C   0  0  0  0  0  0  0  0  0  0  0  0
   39.6950   36.1400   40.4380 C   0  0  0  0  0  0  0  0  0  0  0  0
   40.6970   35.3770   40.9180 N   0  0  0  0  0  0  0  0  0  0  0  0
   40.4040   34.1000   40.6770 N   0  0  0  0  0  0  0  0  0  0  0  0
   37.8310   35.6660   39.4180 H   0  0  0  0  0  0  0  0  0  0  0  0
   39.7260   37.1980   40.5250 H   0  0  0  0  0  0  0  0  0  0  0  0
   42.9750   34.8010   41.2350 C   0  0  0  0  0  3  0  0  0  0  0  0
   41.9220   35.6480   41.5860 C   0  0  0  0  0  0  0  0  0  0  0  0
   42.1100   36.6570   42.5170 C   0  0  0  0  0  0  0  0  0  0  0  0
   41.2600   37.2820   42.7490 H   0  0  0  0  0  0  0  0  0  0  0  0
   43.3630   36.8140   43.0970 C   0  0  0  0  0  0  0  0  0  0  0  0
   43.7670   37.7150   44.0110 N   0  0  0  0  0  0  0  0  0  0  0  0
   45.0830   37.4340   44.2380 C   0  0  0  0  0  0  0  0  0  0  0  0
   45.7950   37.9080   44.8980 H   0  0  0  0  0  0  0  0  0  0  0  0
   45.4480   36.3890   43.4730 N   0  0  0  0  0  0  0  0  0  0  0  0
   44.3880   35.9650   42.7340 C   0  0  0  0  0  0  0  0  0  0  0  0
   44.2370   34.9510   41.8120 C   0  0  0  0  0  3  0  0  0  0  0  0
   43.2400   38.4830   44.4830 H   0  0  0  0  0  0  0  0  0  0  0  0
   36.2370   29.5530   38.4780 O   0  0  0  0  0  0  0  0  0  0  0  0
   36.5630   28.2350   38.7600 C   0  0  0  0  0  0  0  0  0  0  0  0
   36.8250   27.2410   37.8470 C   0  0  0  0  0  0  0  0  0  0  0  0
   37.1370   25.9680   38.2880 C   0  0  0  0  0  0  0  0  0  0  0  0
   37.1980   25.6500   39.6360 C   0  0  0  0  0  0  0  0  0  0  0  0
   37.5060   24.4010   39.9890 N   0  0  0  0  0  0  0  0  0  0  0  0
   37.5760   24.0430   41.2920 C   0  0  0  0  0  0  0  0  0  0  0  0
   37.3180   25.0180   42.2320 C   0  0  0  0  0  0  0  0  0  0  0  0
   36.9940   26.3360   41.8700 C   0  0  0  0  0  0  0  0  0  0  0  0
   36.9320   26.6610   40.5380 C   0  0  0  0  0  0  0  0  0  0  0  0
   36.6140   27.9530   40.1210 C   0  0  0  0  0  0  0  0  0  0  0  0
   36.7690   27.5250   36.8040 H   0  0  0  0  0  0  0  0  0  0  0  0
   37.3250   25.2640   37.5160 H   0  0  0  0  0  0  0  0  0  0  0  0
   37.8250   23.0300   41.5980 H   0  0  0  0  0  0  0  0  0  0  0  0
   37.3610   24.7830   43.2960 H   0  0  0  0  0  0  0  0  0  0  0  0
   36.7920   27.0950   42.6060 H   0  0  0  0  0  0  0  0  0  0  0  0
   36.4290   28.6450   40.9100 H   0  0  0  0  0  0  0  0  0  0  0  0
  1  6  1  0  0  0  0
  1  7  1  0  0  0  0
  2  1  2  0  0  0  0
  3  4  2  0  0  0  0
  3  2  1  0  0  0  0
  4  5  1  0  0  0  0
  5  9  1  0  0  0  0
  5  6  2  0  0  0  0
  8  3  1  0  0  0  0
  9 13  2  0  0  0  0
 10  9  1  0  0  0  0
 10 11  2  0  0  0  0
 11 15  1  0  0  0  0
 11 12  1  0  0  0  0
 12 17  1  0  0  0  0
 13 12  1  0  0  0  0
 14 10  1  0  0  0  0
 16 17  2  0  0  0  0
 16 26  1  0  0  0  0
 17 18  1  0  0  0  0
 18 19  1  0  0  0  0
 18 20  2  0  0  0  0
 20 21  1  0  0  0  0
 21 22  1  0  0  0  0
 21 27  1  0  0  0  0
 22 23  1  0  0  0  0
 24 22  2  0  0  0  0
 25 20  1  0  0  0  0
 25 24  1  0  0  0  0
 26 25  2  0  0  0  0
 28 29  1  0  0  0  0
 28  2  1  0  0  0  0
 29 38  1  0  0  0  0
 30 31  1  0  0  0  0
 30 29  2  0  0  0  0
 31 32  2  0  0  0  0
 32 33  1  0  0  0  0
 32 37  1  0  0  0  0
 33 34  2  0  0  0  0
 34 41  1  0  0  0  0
 34 35  1  0  0  0  0
 35 42  1  0  0  0  0
 36 35  2  0  0  0  0
 36 43  1  0  0  0  0
 37 36  1  0  0  0  0
 38 37  2  0  0  0  0
 38 44  1  0  0  0  0
 39 30  1  0  0  0  0
 40 31  1  0  0  0  0
M  END
>  <minimizedAffinity>
-7.41130257

$$$$

 OpenBabel03242514003D

 44 49  0  0  0  0  0  0  0  0999 V2000
   41.7470   31.7010   41.1590 C   0  0  0  0  0  0  0  0  0  0  0  0
   41.1970   32.8090   40.5270 C   0  0  0  0  0  0  0  0  0  0  0  0
   39.8040   32.8060   40.2780 C   0  0  0  0  0  0  0  0  0  0  0  0
   39.0990   31.7280   40.6700 N   0  0  0  0  0  0  0  0  0  0  0  0
   39.6470   30.6670   41.2790 C   0  0  0  0  0  0  0  0  0  0  0  0
   41.0000   30.6660   41.5220 N   0  0  0  0  0  0  0  0  0  0  0  0
   42.8250   31.7160   41.3440 H   0  0  0  0  0  0  0  0  0  0  0  0
   39.3360   33.6290   39.7970 H   0  0  0  0  0  0  0  0  0  0  0  0
   38.9340   29.4730   41.7240 C   0  0  0  0  0  0  0  0  0  0  0  0
   38.2230   29.4540   42.9180 C   0  0  0  0  0  0  0  0  0  0  0  0
   37.6740   28.1750   43.0310 C   0  0  0  0  0  0  0  0  0  0  0  0
   38.0550   27.4840   41.9390 N   0  0  0  0  0  0  0  0  0  0  0  0
   38.8040   28.2800   41.1780 N   0  0  0  0  0  0  0  0  0  0  0  0
   38.0510   30.2130   43.6980 H   0  0  0  0  0  0  0  0  0  0  0  0
   37.0650   27.7260   43.7750 H   0  0  0  0  0  0  0  0  0  0  0  0
   38.6510   25.1910   42.0520 C   0  0  0  0  0  3  0  0  0  0  0  0
   37.8300   26.1600   41.4710 C   0  0  0  0  0  0  0  0  0  0  0  0
   36.8870   25.8070   40.5190 C   0  0  0  0  0  0  0  0  0  0  0  0
   36.2800   26.5970   40.1050 H   0  0  0  0  0  0  0  0  0  0  0  0
   36.7690   24.4720   40.1510 C   0  0  0  0  0  0  0  0  0  0  0  0
   35.9340   23.9090   39.2590 N   0  0  0  0  0  0  0  0  0  0  0  0
   36.2290   22.5770   39.2780 C   0  0  0  0  0  0  0  0  0  0  0  0
   35.8010   21.7580   38.7170 H   0  0  0  0  0  0  0  0  0  0  0  0
   37.2190   22.3580   40.1620 N   0  0  0  0  0  0  0  0  0  0  0  0
   37.5920   23.5320   40.7380 C   0  0  0  0  0  0  0  0  0  0  0  0
   38.5400   23.8490   41.6880 C   0  0  0  0  0  3  0  0  0  0  0  0
   35.2000   24.3400   38.6540 H   0  0  0  0  0  0  0  0  0  0  0  0
   41.9120   33.9210   40.1210 O   0  0  0  0  0  0  0  0  0  0  0  0
   42.9310   34.5190   40.8450 C   0  0  0  0  0  0  0  0  0  0  0  0
   44.2800   34.3060   40.6920 C   0  0  0  0  0  0  0  0  0  0  0  0
   45.1790   34.9840   41.4970 C   0  0  0  0  0  0  0  0  0  0  0  0
   44.7640   35.8840   42.4680 C   0  0  0  0  0  0  0  0  0  0  0  0
   45.6860   36.5020   43.2070 N   0  0  0  0  0  0  0  0  0  0  0  0
   45.3300   37.3880   44.1660 C   0  0  0  0  0  0  0  0  0  0  0  0
   43.9830   37.6220   44.3440 C   0  0  0  0  0  0  0  0  0  0  0  0
   43.0050   36.9770   43.5700 C   0  0  0  0  0  0  0  0  0  0  0  0
   43.4050   36.0850   42.6060 C   0  0  0  0  0  0  0  0  0  0  0  0
   42.4780   35.4150   41.8080 C   0  0  0  0  0  0  0  0  0  0  0  0
   44.5670   33.5990   39.9260 H   0  0  0  0  0  0  0  0  0  0  0  0
   46.1990   34.7600   41.3110 H   0  0  0  0  0  0  0  0  0  0  0  0
   46.0680   37.9000   44.7780 H   0  0  0  0  0  0  0  0  0  0  0  0
   43.6420   38.3270   45.1030 H   0  0  0  0  0  0  0  0  0  0  0  0
   41.9540   37.1620   43.7110 H   0  0  0  0  0  0  0  0  0  0  0  0
   41.4590   35.6530   42.0100 H   0  0  0  0  0  0  0  0  0  0  0  0
  1  7  1  0  0  0  0
  1  6  1  0  0  0  0
  2  1  2  0  0  0  0
  3  2  1  0  0  0  0
  3  4  2  0  0  0  0
  4  5  1  0  0  0  0
  5  6  2  0  0  0  0
  5  9  1  0  0  0  0
  8  3  1  0  0  0  0
  9 10  1  0  0  0  0
 10 11  2  0  0  0  0
 10 14  1  0  0  0  0
 11 15  1  0  0  0  0
 12 11  1  0  0  0  0
 13  9  2  0  0  0  0
 13 12  1  0  0  0  0
 17 12  1  0  0  0  0
 17 16  2  0  0  0  0
 18 17  1  0  0  0  0
 19 18  1  0  0  0  0
 20 18  2  0  0  0  0
 20 25  1  0  0  0  0
 21 22  1  0  0  0  0
 21 20  1  0  0  0  0
 22 24  2  0  0  0  0
 23 22  1  0  0  0  0
 24 25  1  0  0  0  0
 25 26  2  0  0  0  0
 26 16  1  0  0  0  0
 27 21  1  0  0  0  0
 28  2  1  0  0  0  0
 28 29  1  0  0  0  0
 29 38  1  0  0  0  0
 30 29  2  0  0  0  0
 30 31  1  0  0  0  0
 31 32  2  0  0  0  0
 32 37  1  0  0  0  0
 32 33  1  0  0  0  0
 33 34  2  0  0  0  0
 34 35  1  0  0  0  0
 34 41  1  0  0  0  0
 35 42  1  0  0  0  0
 36 43  1  0  0  0  0
 36 35  2  0  0  0  0
 37 36  1  0  0  0  0
 38 44  1  0  0  0  0
 38 37  2  0  0  0  0
 39 30  1  0  0  0  0
 40 31  1  0  0  0  0
M  END
>  <minimizedAffinity>
-7.11216259

$$$$

 OpenBabel03242514003D

 44 49  0  0  0  0  0  0  0  0999 V2000
   38.6780   29.6050   41.8070 C   0  0  0  0  0  0  0  0  0  0  0  0
   37.3870   29.5730   41.2970 C   0  0  0  0  0  0  0  0  0  0  0  0
   37.0000   30.6060   40.4110 C   0  0  0  0  0  0  0  0  0  0  0  0
   37.9080   31.5550   40.1180 N   0  0  0  0  0  0  0  0  0  0  0  0
   39.1510   31.5700   40.6200 C   0  0  0  0  0  0  0  0  0  0  0  0
   39.5310   30.5690   41.4820 N   0  0  0  0  0  0  0  0  0  0  0  0
   38.9640   28.8010   42.4920 H   0  0  0  0  0  0  0  0  0  0  0  0
   36.0230   30.6270   39.9940 H   0  0  0  0  0  0  0  0  0  0  0  0
   40.1760   32.5710   40.3390 C   0  0  0  0  0  0  0  0  0  0  0  0
   40.3050   33.1460   39.0810 C   0  0  0  0  0  0  0  0  0  0  0  0
   41.3680   34.0470   39.1650 C   0  0  0  0  0  0  0  0  0  0  0  0
   41.8330   33.9930   40.4280 N   0  0  0  0  0  0  0  0  0  0  0  0
   41.1060   33.1070   41.1060 N   0  0  0  0  0  0  0  0  0  0  0  0
   39.7540   33.0090   38.1360 H   0  0  0  0  0  0  0  0  0  0  0  0
   41.8080   34.6960   38.4490 H   0  0  0  0  0  0  0  0  0  0  0  0
   44.1660   34.2810   40.7420 C   0  0  0  0  0  3  0  0  0  0  0  0
   42.8780   34.6520   41.1330 C   0  0  0  0  0  0  0  0  0  0  0  0
   42.6880   35.5920   42.1330 C   0  0  0  0  0  0  0  0  0  0  0  0
   41.6700   35.8400   42.3930 H   0  0  0  0  0  0  0  0  0  0  0  0
   43.8000   36.1620   42.7420 C   0  0  0  0  0  0  0  0  0  0  0  0
   43.8510   37.0820   43.7220 N   0  0  0  0  0  0  0  0  0  0  0  0
   45.1790   37.2940   43.9500 C   0  0  0  0  0  0  0  0  0  0  0  0
   45.6720   37.9510   44.6520 H   0  0  0  0  0  0  0  0  0  0  0  0
   45.8980   36.5140   43.1220 N   0  0  0  0  0  0  0  0  0  0  0  0
   45.0630   35.7790   42.3390 C   0  0  0  0  0  0  0  0  0  0  0  0
   45.2880   34.8470   41.3470 C   0  0  0  0  0  3  0  0  0  0  0  0
   43.0820   37.5670   44.2360 H   0  0  0  0  0  0  0  0  0  0  0  0
   36.4460   28.6030   41.5910 O   0  0  0  0  0  0  0  0  0  0  0  0
   36.6500   27.2360   41.4740 C   0  0  0  0  0  0  0  0  0  0  0  0
   36.9310   26.3590   42.4940 C   0  0  0  0  0  0  0  0  0  0  0  0
   37.1090   25.0160   42.2150 C   0  0  0  0  0  0  0  0  0  0  0  0
   37.0130   24.5120   40.9260 C   0  0  0  0  0  0  0  0  0  0  0  0
   37.1960   23.2060   40.7310 N   0  0  0  0  0  0  0  0  0  0  0  0
   37.1120   22.6680   39.4920 C   0  0  0  0  0  0  0  0  0  0  0  0
   36.8310   23.5240   38.4480 C   0  0  0  0  0  0  0  0  0  0  0  0
   36.6370   24.9010   38.6430 C   0  0  0  0  0  0  0  0  0  0  0  0
   36.7290   25.4090   39.9150 C   0  0  0  0  0  0  0  0  0  0  0  0
   36.5460   26.7680   40.1680 C   0  0  0  0  0  0  0  0  0  0  0  0
   36.9990   26.7860   43.4850 H   0  0  0  0  0  0  0  0  0  0  0  0
   37.3220   24.4110   43.0610 H   0  0  0  0  0  0  0  0  0  0  0  0
   37.2590   21.6060   39.3150 H   0  0  0  0  0  0  0  0  0  0  0  0
   36.7530   23.1430   37.4290 H   0  0  0  0  0  0  0  0  0  0  0  0
   36.4180   25.5660   37.8260 H   0  0  0  0  0  0  0  0  0  0  0  0
   36.3330   27.3590   39.3080 H   0  0  0  0  0  0  0  0  0  0  0  0
  1  7  1  0  0  0  0
  2 28  1  0  0  0  0
  2  1  2  0  0  0  0
  3  2  1  0  0  0  0
  4  3  2  0  0  0  0
  4  5  1  0  0  0  0
  5  6  2  0  0  0  0
  6  1  1  0  0  0  0
  8  3  1  0  0  0  0
  9  5  1  0  0  0  0
  9 13  2  0  0  0  0
 10 11  2  0  0  0  0
 10  9  1  0  0  0  0
 11 12  1  0  0  0  0
 12 13  1  0  0  0  0
 12 17  1  0  0  0  0
 14 10  1  0  0  0  0
 15 11  1  0  0  0  0
 16 17  2  0  0  0  0
 16 26  1  0  0  0  0
 17 18  1  0  0  0  0
 18 19  1  0  0  0  0
 18 20  2  0  0  0  0
 20 21  1  0  0  0  0
 21 22  1  0  0  0  0
 21 27  1  0  0  0  0
 22 23  1  0  0  0  0
 24 22  2  0  0  0  0
 25 20  1  0  0  0  0
 25 24  1  0  0  0  0
 26 25  2  0  0  0  0
 29 28  1  0  0  0  0
 29 30  1  0  0  0  0
 30 39  1  0  0  0  0
 31 30  2  0  0  0  0
 31 40  1  0  0  0  0
 32 31  1  0  0  0  0
 33 32  1  0  0  0  0
 34 33  2  0  0  0  0
 35 36  2  0  0  0  0
 35 34  1  0  0  0  0
 36 37  1  0  0  0  0
 37 38  1  0  0  0  0
 37 32  2  0  0  0  0
 38 29  2  0  0  0  0
 41 34  1  0  0  0  0
 42 35  1  0  0  0  0
 43 36  1  0  0  0  0
 44 38  1  0  0  0  0
M  END
>  <minimizedAffinity>
-7.0037837

$$$$

 OpenBabel03242514003D

 44 49  0  0  0  0  0  0  0  0999 V2000
   36.6970   24.0920   40.7580 C   0  0  0  0  0  0  0  0  0  0  0  0
   36.5130   23.8580   39.4010 C   0  0  0  0  0  0  0  0  0  0  0  0
   36.5730   24.9680   38.5250 C   0  0  0  0  0  0  0  0  0  0  0  0
   36.8030   26.1800   39.0620 N   0  0  0  0  0  0  0  0  0  0  0  0
   36.9780   26.3870   40.3750 C   0  0  0  0  0  0  0  0  0  0  0  0
   36.9210   25.3120   41.2290 N   0  0  0  0  0  0  0  0  0  0  0  0
   36.6470   23.2260   41.4240 H   0  0  0  0  0  0  0  0  0  0  0  0
   36.4390   24.8410   37.4790 H   0  0  0  0  0  0  0  0  0  0  0  0
   37.2300   27.6760   41.0120 C   0  0  0  0  0  0  0  0  0  0  0  0
   37.1350   27.8370   42.3890 C   0  0  0  0  0  0  0  0  0  0  0  0
   37.4350   29.1750   42.6520 C   0  0  0  0  0  0  0  0  0  0  0  0
   37.6930   29.7630   41.4670 N   0  0  0  0  0  0  0  0  0  0  0  0
   37.5640   28.8480   40.5080 N   0  0  0  0  0  0  0  0  0  0  0  0
   36.8870   27.1430   43.2080 H   0  0  0  0  0  0  0  0  0  0  0  0
   37.4820   29.7290   43.5560 H   0  0  0  0  0  0  0  0  0  0  0  0
   37.0770   31.7460   40.3220 C   0  0  0  0  0  3  0  0  0  0  0  0
   38.0520   31.0790   41.0660 C   0  0  0  0  0  0  0  0  0  0  0  0
   39.2570   31.6950   41.3630 C   0  0  0  0  0  0  0  0  0  0  0  0
   39.9730   31.1320   41.9410 H   0  0  0  0  0  0  0  0  0  0  0  0
   39.4810   32.9900   40.9090 C   0  0  0  0  0  0  0  0  0  0  0  0
   40.5630   33.7720   41.0770 N   0  0  0  0  0  0  0  0  0  0  0  0
   40.2680   34.9390   40.4360 C   0  0  0  0  0  0  0  0  0  0  0  0
   40.8540   35.8400   40.3190 H   0  0  0  0  0  0  0  0  0  0  0  0
   39.0370   34.8490   39.8990 N   0  0  0  0  0  0  0  0  0  0  0  0
   38.5020   33.6290   40.1750 C   0  0  0  0  0  0  0  0  0  0  0  0
   37.2920   33.0450   39.8620 C   0  0  0  0  0  3  0  0  0  0  0  0
   41.4610   33.5860   41.5760 H   0  0  0  0  0  0  0  0  0  0  0  0
   36.2760   22.6180   38.8390 O   0  0  0  0  0  0  0  0  0  0  0  0
   35.0820   21.9190   38.9280 C   0  0  0  0  0  0  0  0  0  0  0  0
   34.9230   20.5550   38.8740 C   0  0  0  0  0  0  0  0  0  0  0  0
   33.6580   20.0050   38.9790 C   0  0  0  0  0  0  0  0  0  0  0  0
   32.5250   20.7900   39.1390 C   0  0  0  0  0  0  0  0  0  0  0  0
   31.3370   20.1910   39.2330 N   0  0  0  0  0  0  0  0  0  0  0  0
   30.2040   20.9150   39.3900 C   0  0  0  0  0  0  0  0  0  0  0  0
   30.3310   22.2860   39.4480 C   0  0  0  0  0  0  0  0  0  0  0  0
   31.5780   22.9250   39.3500 C   0  0  0  0  0  0  0  0  0  0  0  0
   32.7050   22.1570   39.1920 C   0  0  0  0  0  0  0  0  0  0  0  0
   33.9690   22.7380   39.0890 C   0  0  0  0  0  0  0  0  0  0  0  0
   35.8280   19.9750   38.7490 H   0  0  0  0  0  0  0  0  0  0  0  0
   33.6280   18.9450   38.9270 H   0  0  0  0  0  0  0  0  0  0  0  0
   29.2280   20.4440   39.4680 H   0  0  0  0  0  0  0  0  0  0  0  0
   29.4500   22.9160   39.5730 H   0  0  0  0  0  0  0  0  0  0  0  0
   31.6740   23.9960   39.3950 H   0  0  0  0  0  0  0  0  0  0  0  0
   33.9780   23.8020   39.1420 H   0  0  0  0  0  0  0  0  0  0  0  0
  1  6  1  0  0  0  0
  1  7  1  0  0  0  0
  2  1  2  0  0  0  0
  3  4  2  0  0  0  0
  3  2  1  0  0  0  0
  4  5  1  0  0  0  0
  5  9  1  0  0  0  0
  5  6  2  0  0  0  0
  8  3  1  0  0  0  0
  9 10  1  0  0  0  0
 10 11  2  0  0  0  0
 10 14  1  0  0  0  0
 11 15  1  0  0  0  0
 12 11  1  0  0  0  0
 13  9  2  0  0  0  0
 13 12  1  0  0  0  0
 16 17  1  0  0  0  0
 17 18  2  0  0  0  0
 17 12  1  0  0  0  0
 18 19  1  0  0  0  0
 20 21  1  0  0  0  0
 20 18  1  0  0  0  0
 21 27  1  0  0  0  0
 22 21  1  0  0  0  0
 23 22  1  0  0  0  0
 24 25  1  0  0  0  0
 24 22  2  0  0  0  0
 25 20  2  0  0  0  0
 26 25  1  0  0  0  0
 26 16  2  0  0  0  0
 28 29  1  0  0  0  0
 28  2  1  0  0  0  0
 29 38  1  0  0  0  0
 30 29  2  0  0  0  0
 30 31  1  0  0  0  0
 31 32  2  0  0  0  0
 32 37  1  0  0  0  0
 32 33  1  0  0  0  0
 33 34  2  0  0  0  0
 34 35  1  0  0  0  0
 34 41  1  0  0  0  0
 35 42  1  0  0  0  0
 36 43  1  0  0  0  0
 36 35  2  0  0  0  0
 37 36  1  0  0  0  0
 38 44  1  0  0  0  0
 38 37  2  0  0  0  0
 39 30  1  0  0  0  0
 40 31  1  0  0  0  0
M  END
>  <minimizedAffinity>
-6.7133441

$$$$

 OpenBabel03242514003D

 44 49  0  0  0  0  0  0  0  0999 V2000
   40.1390   31.9470   38.8810 C   0  0  0  0  0  0  0  0  0  0  0  0
   39.9870   33.1600   39.5410 C   0  0  0  0  0  0  0  0  0  0  0  0
   38.9120   33.2860   40.4540 C   0  0  0  0  0  0  0  0  0  0  0  0
   38.1060   32.2230   40.6240 N   0  0  0  0  0  0  0  0  0  0  0  0
   38.2670   31.0600   39.9770 C   0  0  0  0  0  0  0  0  0  0  0  0
   39.3090   30.9330   39.0900 N   0  0  0  0  0  0  0  0  0  0  0  0
   40.9730   31.8630   38.1780 H   0  0  0  0  0  0  0  0  0  0  0  0
   38.7540   34.1930   40.9830 H   0  0  0  0  0  0  0  0  0  0  0  0
   37.4250   29.8760   40.1220 C   0  0  0  0  0  0  0  0  0  0  0  0
   36.1150   29.9670   40.5790 C   0  0  0  0  0  0  0  0  0  0  0  0
   35.6110   28.6660   40.5940 C   0  0  0  0  0  0  0  0  0  0  0  0
   36.5950   27.8540   40.1610 N   0  0  0  0  0  0  0  0  0  0  0  0
   37.6640   28.6010   39.8860 N   0  0  0  0  0  0  0  0  0  0  0  0
   35.4910   30.8190   40.8930 H   0  0  0  0  0  0  0  0  0  0  0  0
   34.6630   28.2740   40.8690 H   0  0  0  0  0  0  0  0  0  0  0  0
   35.9750   25.9640   38.8700 C   0  0  0  0  0  3  0  0  0  0  0  0
   36.7100   26.4520   39.9520 C   0  0  0  0  0  0  0  0  0  0  0  0
   37.4750   25.5970   40.7280 C   0  0  0  0  0  0  0  0  0  0  0  0
   38.0230   26.0300   41.5510 H   0  0  0  0  0  0  0  0  0  0  0  0
   37.5000   24.2430   40.4140 C   0  0  0  0  0  0  0  0  0  0  0  0
   38.1640   23.2440   41.0230 N   0  0  0  0  0  0  0  0  0  0  0  0
   37.8460   22.1190   40.3200 C   0  0  0  0  0  0  0  0  0  0  0  0
   38.1570   21.0930   40.4630 H   0  0  0  0  0  0  0  0  0  0  0  0
   37.0110   22.4460   39.3170 N   0  0  0  0  0  0  0  0  0  0  0  0
   36.7650   23.7840   39.3400 C   0  0  0  0  0  0  0  0  0  0  0  0
   35.9940   24.6070   38.5460 C   0  0  0  0  0  3  0  0  0  0  0  0
   38.7980   23.2590   41.8520 H   0  0  0  0  0  0  0  0  0  0  0  0
   40.8100   34.2580   39.3740 O   0  0  0  0  0  0  0  0  0  0  0  0
   42.0780   34.3920   39.9190 C   0  0  0  0  0  0  0  0  0  0  0  0
   43.2530   33.9110   39.3920 C   0  0  0  0  0  0  0  0  0  0  0  0
   44.4450   34.1280   40.0600 C   0  0  0  0  0  0  0  0  0  0  0  0
   44.5020   34.8220   41.2590 C   0  0  0  0  0  0  0  0  0  0  0  0
   45.6860   34.9930   41.8470 N   0  0  0  0  0  0  0  0  0  0  0  0
   45.7920   35.6630   43.0180 C   0  0  0  0  0  0  0  0  0  0  0  0
   44.6310   36.1570   43.5720 C   0  0  0  0  0  0  0  0  0  0  0  0
   43.3790   35.9820   42.9600 C   0  0  0  0  0  0  0  0  0  0  0  0
   43.3120   35.2970   41.7730 C   0  0  0  0  0  0  0  0  0  0  0  0
   42.0960   35.0930   41.1210 C   0  0  0  0  0  0  0  0  0  0  0  0
   43.1710   33.3750   38.4560 H   0  0  0  0  0  0  0  0  0  0  0  0
   45.3020   33.7230   39.5810 H   0  0  0  0  0  0  0  0  0  0  0  0
   46.7490   35.8120   43.5110 H   0  0  0  0  0  0  0  0  0  0  0  0
   44.6590   36.7050   44.5150 H   0  0  0  0  0  0  0  0  0  0  0  0
   42.4730   36.3690   43.3950 H   0  0  0  0  0  0  0  0  0  0  0  0
   41.2480   35.5060   41.6160 H   0  0  0  0  0  0  0  0  0  0  0  0
  1  6  2  0  0  0  0
  1  2  1  0  0  0  0
  2  3  2  0  0  0  0
  3  4  1  0  0  0  0
  3  8  1  0  0  0  0
  5  9  1  0  0  0  0
  5  4  2  0  0  0  0
  6  5  1  0  0  0  0
  7  1  1  0  0  0  0
  9 10  1  0  0  0  0
 10 11  2  0  0  0  0
 10 14  1  0  0  0  0
 11 15  1  0  0  0  0
 12 11  1  0  0  0  0
 13  9  2  0  0  0  0
 13 12  1  0  0  0  0
 16 17  1  0  0  0  0
 17 12  1  0  0  0  0
 17 18  2  0  0  0  0
 18 19  1  0  0  0  0
 20 18  1  0  0  0  0
 20 21  1  0  0  0  0
 21 27  1  0  0  0  0
 22 23  1  0  0  0  0
 22 21  1  0  0  0  0
 24 25  1  0  0  0  0
 24 22  2  0  0  0  0
 25 20  2  0  0  0  0
 26 16  2  0  0  0  0
 26 25  1  0  0  0  0
 28  2  1  0  0  0  0
 28 29  1  0  0  0  0
 29 38  1  0  0  0  0
 30 29  2  0  0  0  0
 30 31  1  0  0  0  0
 31 32  2  0  0  0  0
 32 37  1  0  0  0  0
 32 33  1  0  0  0  0
 33 34  2  0  0  0  0
 34 41  1  0  0  0  0
 34 35  1  0  0  0  0
 35 42  1  0  0  0  0
 36 43  1  0  0  0  0
 36 35  2  0  0  0  0
 37 36  1  0  0  0  0
 38 44  1  0  0  0  0
 38 37  2  0  0  0  0
 39 30  1  0  0  0  0
 40 31  1  0  0  0  0
M  END
>  <minimizedAffinity>
-6.70335245

$$$$

 OpenBabel03242514003D

 44 49  0  0  0  0  0  0  0  0999 V2000
   42.1190   32.2910   40.2360 C   0  0  0  0  0  0  0  0  0  0  0  0
   42.2620   33.6530   40.4700 C   0  0  0  0  0  0  0  0  0  0  0  0
   41.0970   34.4550   40.4420 C   0  0  0  0  0  0  0  0  0  0  0  0
   39.9230   33.8470   40.1890 N   0  0  0  0  0  0  0  0  0  0  0  0
   39.8040   32.5310   39.9650 C   0  0  0  0  0  0  0  0  0  0  0  0
   40.9330   31.7480   39.9910 N   0  0  0  0  0  0  0  0  0  0  0  0
   43.0280   31.6820   40.2590 H   0  0  0  0  0  0  0  0  0  0  0  0
   41.1540   35.5010   40.6150 H   0  0  0  0  0  0  0  0  0  0  0  0
   38.5590   31.8200   39.6860 C   0  0  0  0  0  0  0  0  0  0  0  0
   37.5360   31.7510   40.6230 C   0  0  0  0  0  0  0  0  0  0  0  0
   36.5110   31.0070   40.0340 C   0  0  0  0  0  0  0  0  0  0  0  0
   36.9310   30.6600   38.8020 N   0  0  0  0  0  0  0  0  0  0  0  0
   38.1540   31.1570   38.6200 N   0  0  0  0  0  0  0  0  0  0  0  0
   37.4280   32.1510   41.6430 H   0  0  0  0  0  0  0  0  0  0  0  0
   35.5550   30.7110   40.3870 H   0  0  0  0  0  0  0  0  0  0  0  0
   35.1210   29.3480   38.0110 C   0  0  0  0  0  3  0  0  0  0  0  0
   36.3640   29.9190   37.7290 C   0  0  0  0  0  0  0  0  0  0  0  0
   36.9540   29.7460   36.4880 C   0  0  0  0  0  0  0  0  0  0  0  0
   37.9160   30.2110   36.3260 H   0  0  0  0  0  0  0  0  0  0  0  0
   36.2900   28.9960   35.5250 C   0  0  0  0  0  0  0  0  0  0  0  0
   36.6710   28.7020   34.2680 N   0  0  0  0  0  0  0  0  0  0  0  0
   35.6610   27.9420   33.7530 C   0  0  0  0  0  0  0  0  0  0  0  0
   35.5530   27.4910   32.7770 H   0  0  0  0  0  0  0  0  0  0  0  0
   34.7040   27.7900   34.6870 N   0  0  0  0  0  0  0  0  0  0  0  0
   35.0630   28.4420   35.8260 C   0  0  0  0  0  0  0  0  0  0  0  0
   34.4470   28.5930   37.0510 C   0  0  0  0  0  3  0  0  0  0  0  0
   37.5340   28.9660   33.7430 H   0  0  0  0  0  0  0  0  0  0  0  0
   43.4630   34.2860   40.7310 O   0  0  0  0  0  0  0  0  0  0  0  0
   43.9460   34.5870   41.9960 C   0  0  0  0  0  0  0  0  0  0  0  0
   43.9180   35.8140   42.6140 C   0  0  0  0  0  0  0  0  0  0  0  0
   44.4420   35.9550   43.8860 C   0  0  0  0  0  0  0  0  0  0  0  0
   45.0040   34.8890   44.5730 C   0  0  0  0  0  0  0  0  0  0  0  0
   45.4910   35.0970   45.7970 N   0  0  0  0  0  0  0  0  0  0  0  0
   46.0490   34.0880   46.5060 C   0  0  0  0  0  0  0  0  0  0  0  0
   46.0920   32.8450   45.9120 C   0  0  0  0  0  0  0  0  0  0  0  0
   45.5820   32.6160   44.6240 C   0  0  0  0  0  0  0  0  0  0  0  0
   45.0230   33.6640   43.9360 C   0  0  0  0  0  0  0  0  0  0  0  0
   44.5010   33.4940   42.6540 C   0  0  0  0  0  0  0  0  0  0  0  0
   43.4720   36.6220   42.0500 H   0  0  0  0  0  0  0  0  0  0  0  0
   44.3780   36.9350   44.2880 H   0  0  0  0  0  0  0  0  0  0  0  0
   46.4510   34.2410   47.5040 H   0  0  0  0  0  0  0  0  0  0  0  0
   46.5310   31.9980   46.4390 H   0  0  0  0  0  0  0  0  0  0  0  0
   45.6170   31.6440   44.1620 H   0  0  0  0  0  0  0  0  0  0  0  0
   44.5750   32.5040   42.2680 H   0  0  0  0  0  0  0  0  0  0  0  0
  1  7  1  0  0  0  0
  1  2  1  0  0  0  0
  2 28  1  0  0  0  0
  3  2  2  0  0  0  0
  3  8  1  0  0  0  0
  4  3  1  0  0  0  0
  5  6  1  0  0  0  0
  5  4  2  0  0  0  0
  6  1  2  0  0  0  0
  9  5  1  0  0  0  0
  9 10  1  0  0  0  0
 10 14  1  0  0  0  0
 11 15  1  0  0  0  0
 11 10  2  0  0  0  0
 12 11  1  0  0  0  0
 13 12  1  0  0  0  0
 13  9  2  0  0  0  0
 17 16  1  0  0  0  0
 17 12  1  0  0  0  0
 18 17  2  0  0  0  0
 19 18  1  0  0  0  0
 20 25  2  0  0  0  0
 20 18  1  0  0  0  0
 21 20  1  0  0  0  0
 22 21  1  0  0  0  0
 22 24  2  0  0  0  0
 23 22  1  0  0  0  0
 24 25  1  0  0  0  0
 25 26  1  0  0  0  0
 26 16  2  0  0  0  0
 27 21  1  0  0  0  0
 28 29  1  0  0  0  0
 29 30  2  0  0  0  0
 29 38  1  0  0  0  0
 30 31  1  0  0  0  0
 31 40  1  0  0  0  0
 31 32  2  0  0  0  0
 32 33  1  0  0  0  0
 33 34  2  0  0  0  0
 34 41  1  0  0  0  0
 35 42  1  0  0  0  0
 35 34  1  0  0  0  0
 36 35  2  0  0  0  0
 37 32  1  0  0  0  0
 37 36  1  0  0  0  0
 38 37  2  0  0  0  0
 39 30  1  0  0  0  0
 43 36  1  0  0  0  0
 44 38  1  0  0  0  0
M  END
>  <minimizedAffinity>
-6.60891581

$$$$

 OpenBabel03242514003D

 44 49  0  0  0  0  0  0  0  0999 V2000
   36.9620   31.7500   39.9530 C   0  0  0  0  0  0  0  0  0  0  0  0
   37.0380   31.0830   38.7380 C   0  0  0  0  0  0  0  0  0  0  0  0
   38.1510   31.3490   37.9050 C   0  0  0  0  0  0  0  0  0  0  0  0
   39.0660   32.2330   38.3440 N   0  0  0  0  0  0  0  0  0  0  0  0
   38.9760   32.8690   39.5210 C   0  0  0  0  0  0  0  0  0  0  0  0
   37.8970   32.6130   40.3330 N   0  0  0  0  0  0  0  0  0  0  0  0
   36.0970   31.5360   40.5870 H   0  0  0  0  0  0  0  0  0  0  0  0
   38.2550   30.8640   36.9660 H   0  0  0  0  0  0  0  0  0  0  0  0
   39.9350   33.8360   40.0470 C   0  0  0  0  0  0  0  0  0  0  0  0
   39.6950   35.2030   39.9890 C   0  0  0  0  0  0  0  0  0  0  0  0
   40.8010   35.8240   40.5730 C   0  0  0  0  0  0  0  0  0  0  0  0
   41.6480   34.8470   40.9530 N   0  0  0  0  0  0  0  0  0  0  0  0
   41.1080   33.6730   40.6280 N   0  0  0  0  0  0  0  0  0  0  0  0
   38.8550   35.7990   39.5960 H   0  0  0  0  0  0  0  0  0  0  0  0
   41.0380   36.8450   40.7390 H   0  0  0  0  0  0  0  0  0  0  0  0
   43.1930   35.9430   42.3800 C   0  0  0  0  0  3  0  0  0  0  0  0
   42.9190   34.8240   41.5900 C   0  0  0  0  0  0  0  0  0  0  0  0
   43.8460   33.8010   41.4700 C   0  0  0  0  0  0  0  0  0  0  0  0
   43.5800   32.9610   40.8460 H   0  0  0  0  0  0  0  0  0  0  0  0
   45.0540   33.9040   42.1490 C   0  0  0  0  0  0  0  0  0  0  0  0
   46.0870   33.0420   42.1770 N   0  0  0  0  0  0  0  0  0  0  0  0
   47.0180   33.6210   42.9900 C   0  0  0  0  0  0  0  0  0  0  0  0
   47.9970   33.2740   43.2890 H   0  0  0  0  0  0  0  0  0  0  0  0
   46.5450   34.8000   43.4330 N   0  0  0  0  0  0  0  0  0  0  0  0
   45.3030   35.0190   42.9230 C   0  0  0  0  0  0  0  0  0  0  0  0
   44.4030   36.0550   43.0650 C   0  0  0  0  0  3  0  0  0  0  0  0
   46.2120   32.1200   41.7040 H   0  0  0  0  0  0  0  0  0  0  0  0
   36.1050   30.1730   38.2780 O   0  0  0  0  0  0  0  0  0  0  0  0
   36.1610   28.8020   38.4830 C   0  0  0  0  0  0  0  0  0  0  0  0
   37.0180   28.1340   39.3240 C   0  0  0  0  0  0  0  0  0  0  0  0
   36.9510   26.7550   39.4200 C   0  0  0  0  0  0  0  0  0  0  0  0
   36.0380   26.0100   38.6880 C   0  0  0  0  0  0  0  0  0  0  0  0
   36.0290   24.6840   38.8310 N   0  0  0  0  0  0  0  0  0  0  0  0
   35.1570   23.9150   38.1380 C   0  0  0  0  0  0  0  0  0  0  0  0
   34.2850   24.5570   37.2860 C   0  0  0  0  0  0  0  0  0  0  0  0
   34.2860   25.9530   37.1290 C   0  0  0  0  0  0  0  0  0  0  0  0
   35.1850   26.6990   37.8490 C   0  0  0  0  0  0  0  0  0  0  0  0
   35.2320   28.0890   37.7330 C   0  0  0  0  0  0  0  0  0  0  0  0
   37.7160   28.7460   39.8790 H   0  0  0  0  0  0  0  0  0  0  0  0
   37.6480   26.3220   40.0930 H   0  0  0  0  0  0  0  0  0  0  0  0
   35.1370   22.8330   38.2420 H   0  0  0  0  0  0  0  0  0  0  0  0
   33.5620   23.9850   36.7040 H   0  0  0  0  0  0  0  0  0  0  0  0
   33.6040   26.4520   36.4630 H   0  0  0  0  0  0  0  0  0  0  0  0
   34.5250   28.5050   37.0540 H   0  0  0  0  0  0  0  0  0  0  0  0
  1  6  1  0  0  0  0
  1  7  1  0  0  0  0
  2  1  2  0  0  0  0
  3  4  2  0  0  0  0
  3  2  1  0  0  0  0
  4  5  1  0  0  0  0
  5  9  1  0  0  0  0
  5  6  2  0  0  0  0
  8  3  1  0  0  0  0
  9 13  2  0  0  0  0
 10  9  1  0  0  0  0
 10 11  2  0  0  0  0
 11 15  1  0  0  0  0
 11 12  1  0  0  0  0
 12 17  1  0  0  0  0
 13 12  1  0  0  0  0
 14 10  1  0  0  0  0
 16 26  1  0  0  0  0
 17 16  2  0  0  0  0
 18 17  1  0  0  0  0
 18 20  2  0  0  0  0
 19 18  1  0  0  0  0
 20 21  1  0  0  0  0
 20 25  1  0  0  0  0
 21 22  1  0  0  0  0
 22 23  1  0  0  0  0
 22 24  2  0  0  0  0
 25 26  2  0  0  0  0
 25 24  1  0  0  0  0
 27 21  1  0  0  0  0
 28 29  1  0  0  0  0
 28  2  1  0  0  0  0
 29 30  1  0  0  0  0
 30 31  2  0  0  0  0
 30 39  1  0  0  0  0
 31 40  1  0  0  0  0
 32 33  1  0  0  0  0
 32 31  1  0  0  0  0
 34 41  1  0  0  0  0
 34 33  2  0  0  0  0
 35 34  1  0  0  0  0
 36 35  2  0  0  0  0
 36 37  1  0  0  0  0
 37 32  2  0  0  0  0
 38 37  1  0  0  0  0
 38 29  2  0  0  0  0
 42 35  1  0  0  0  0
 43 36  1  0  0  0  0
 44 38  1  0  0  0  0
M  END
>  <minimizedAffinity>
-6.5685463

$$$$
