
 OpenBabel03242519473D

 41 44  0  0  1  0  0  0  0  0999 V2000
   46.6860   32.8510   46.6700 C   0  0  2  0  0  0  0  0  0  0  0  0
   47.0740   32.7390   45.2500 C   0  0  1  0  0  0  0  0  0  0  0  0
   46.5860   31.4130   44.8530 O   0  0  0  0  0  0  0  0  0  0  0  0
   47.2550   30.7070   45.8810 C   0  0  0  0  0  0  0  0  0  0  0  0
   46.6220   31.3990   47.1180 C   0  0  2  0  0  0  0  0  0  0  0  0
   47.3790   33.4360   47.2990 H   0  0  0  0  0  0  0  0  0  0  0  0
   48.1500   32.6570   45.0640 H   0  0  0  0  0  0  0  0  0  0  0  0
   47.1660   29.6500   45.8610 H   0  0  0  0  0  0  0  0  0  0  0  0
   48.3300   31.0150   45.8160 H   0  0  0  0  0  0  0  0  0  0  0  0
   47.2900   31.1410   47.9690 H   0  0  0  0  0  0  0  0  0  0  0  0
   44.7220   35.2300   43.9920 C   0  0  0  0  0  0  0  0  0  0  0  0
   45.3270   35.7060   42.8300 C   0  0  0  0  0  0  0  0  0  0  0  0
   46.5730   35.1660   42.4520 C   0  0  0  0  0  0  0  0  0  0  0  0
   47.1410   34.1930   43.2400 N   0  0  0  0  0  0  0  0  0  0  0  0
   46.5210   33.7590   44.3580 C   0  0  0  0  0  0  0  0  0  0  0  0
   45.3200   34.2630   44.7440 N   0  0  0  0  0  0  0  0  0  0  0  0
   44.8530   36.4640   42.2460 H   0  0  0  0  0  0  0  0  0  0  0  0
   47.0720   35.5120   41.5560 H   0  0  0  0  0  0  0  0  0  0  0  0
   43.4850   35.7250   44.4200 O   0  0  0  0  0  0  0  0  0  0  0  0
   42.8900   36.0770   43.6720 H   0  0  0  0  0  0  0  0  0  0  0  0
   45.3600   33.3980   46.7590 O   0  0  0  0  0  0  0  0  0  0  0  0
   45.1610   33.3750   47.7280 H   0  0  0  0  0  0  0  0  0  0  0  0
   45.3380   30.9570   47.2130 O   0  0  0  0  0  0  0  0  0  0  0  0
   45.0910   29.9140   48.0680 C   0  0  0  0  0  0  0  0  0  0  0  0
   45.3100   30.1830   49.0960 H   0  0  0  0  0  0  0  0  0  0  0  0
   43.8950   29.9410   48.1380 H   0  0  0  0  0  0  0  0  0  0  0  0
   45.4540   28.5640   47.6030 C   0  0  0  0  0  0  0  0  0  0  0  0
   46.2910   28.5280   46.8780 H   0  0  0  0  0  0  0  0  0  0  0  0
   45.6590   27.9130   48.4890 H   0  0  0  0  0  0  0  0  0  0  0  0
   43.7350   26.7110   46.9440 C   0  0  0  0  0  3  0  0  0  0  0  0
   44.3030   27.9600   46.8810 C   0  0  0  0  0  0  0  0  0  0  0  0
   43.6640   28.7930   45.9480 C   0  0  0  0  0  0  0  0  0  0  0  0
   44.0190   29.8080   45.8040 H   0  0  0  0  0  0  0  0  0  0  0  0
   42.5860   28.4440   45.1630 C   0  0  0  0  0  0  0  0  0  0  0  0
   41.8690   29.1050   44.2390 N   0  0  0  0  0  0  0  0  0  0  0  0
   40.9200   28.2760   43.7830 C   0  0  0  0  0  0  0  0  0  0  0  0
   40.1640   28.4780   43.0320 H   0  0  0  0  0  0  0  0  0  0  0  0
   41.0490   27.0820   44.4300 N   0  0  0  0  0  0  0  0  0  0  0  0
   42.0790   27.1780   45.2880 C   0  0  0  0  0  0  0  0  0  0  0  0
   42.6610   26.3100   46.1860 C   0  0  0  0  0  3  0  0  0  0  0  0
   42.0240   30.0800   43.9380 H   0  0  0  0  0  0  0  0  0  0  0  0
  1 21  1  0  0  0  0
  1  5  1  0  0  0  0
  1  6  1  1  0  0  0
  2  7  1  6  0  0  0
  2  1  1  0  0  0  0
  3  2  1  0  0  0  0
  3  4  1  0  0  0  0
  4  5  1  0  0  0  0
  5 23  1  0  0  0  0
  5 10  1  1  0  0  0
  8  4  1  0  0  0  0
  9  4  1  0  0  0  0
 11 19  1  0  0  0  0
 11 16  1  0  0  0  0
 12 11  2  0  0  0  0
 13 12  1  0  0  0  0
 13 14  2  0  0  0  0
 14 15  1  0  0  0  0
 15 16  2  0  0  0  0
 15  2  1  0  0  0  0
 17 12  1  0  0  0  0
 18 13  1  0  0  0  0
 20 19  1  0  0  0  0
 21 22  1  0  0  0  0
 23 24  1  0  0  0  0
 24 26  1  0  0  0  0
 24 25  1  0  0  0  0
 27 24  1  0  0  0  0
 27 29  1  0  0  0  0
 28 27  1  0  0  0  0
 31 30  1  0  0  0  0
 31 27  1  0  0  0  0
 32 31  2  0  0  0  0
 33 32  1  0  0  0  0
 34 39  2  0  0  0  0
 34 32  1  0  0  0  0
 35 34  1  0  0  0  0
 36 35  1  0  0  0  0
 36 38  2  0  0  0  0
 37 36  1  0  0  0  0
 38 39  1  0  0  0  0
 39 40  1  0  0  0  0
 40 30  2  0  0  0  0
 41 35  1  0  0  0  0
M  END
>  <minimizedAffinity>
-6.01571131

>  <minimizedRMSD>
0.714674354

$$$$
