
 OpenBabel03252509293D

 24 26  0  0  0  0  0  0  0  0999 V2000
   47.6970   33.7990   42.7080 C   0  0  0  0  0  0  0  0  0  0  0  0
   48.6610   34.2830   42.9240 H   0  0  0  0  0  0  0  0  0  0  0  0
   47.8030   32.7530   43.0660 H   0  0  0  0  0  0  0  0  0  0  0  0
   48.3160   34.4530   40.4210 C   0  0  0  0  0  3  0  0  0  0  0  0
   47.4800   33.7210   41.2380 C   0  0  0  0  0  0  0  0  0  0  0  0
   46.4790   32.9430   40.6930 C   0  0  0  0  0  0  0  0  0  0  0  0
   45.8100   32.3580   41.3310 H   0  0  0  0  0  0  0  0  0  0  0  0
   46.2950   32.8840   39.3250 C   0  0  0  0  0  0  0  0  0  0  0  0
   45.4160   32.2250   38.5210 N   0  0  0  0  0  0  0  0  0  0  0  0
   45.7430   32.5750   37.2430 C   0  0  0  0  0  0  0  0  0  0  0  0
   45.2160   32.2040   36.3720 H   0  0  0  0  0  0  0  0  0  0  0  0
   46.7940   33.4280   37.2490 N   0  0  0  0  0  0  0  0  0  0  0  0
   47.1320   33.6170   38.5360 C   0  0  0  0  0  0  0  0  0  0  0  0
   48.1540   34.4140   39.0390 C   0  0  0  0  0  3  0  0  0  0  0  0
   44.6520   31.5840   38.8370 H   0  0  0  0  0  0  0  0  0  0  0  0
   44.9370   36.1380   43.5680 C   0  0  0  0  0  0  0  0  0  0  0  0
   46.0070   35.5320   42.8740 C   0  0  0  0  0  0  0  0  0  0  0  0
   46.5920   34.4130   43.4400 C   0  0  0  0  0  0  0  0  0  0  0  0
   46.1160   33.9490   44.6320 N   0  0  0  0  0  0  0  0  0  0  0  0
   45.0900   34.5580   45.2630 C   0  0  0  0  0  0  0  0  0  0  0  0
   44.5050   35.6390   44.7430 N   0  0  0  0  0  0  0  0  0  0  0  0
   44.4460   37.0160   43.1680 H   0  0  0  0  0  0  0  0  0  0  0  0
   46.3030   35.9780   41.9450 H   0  0  0  0  0  0  0  0  0  0  0  0
   44.7480   34.1380   46.2220 H   0  0  0  0  0  0  0  0  0  0  0  0
  1  2  1  0  0  0  0
  1  3  1  0  0  0  0
  1 18  1  0  0  0  0
  4  5  1  0  0  0  0
  5  1  1  0  0  0  0
  6  5  2  0  0  0  0
  6  7  1  0  0  0  0
  8  6  1  0  0  0  0
  9 15  1  0  0  0  0
  9  8  1  0  0  0  0
 10 12  2  0  0  0  0
 10  9  1  0  0  0  0
 11 10  1  0  0  0  0
 12 13  1  0  0  0  0
 13 14  1  0  0  0  0
 13  8  2  0  0  0  0
 14  4  2  0  0  0  0
 16 21  1  0  0  0  0
 17 18  1  0  0  0  0
 17 16  2  0  0  0  0
 18 19  2  0  0  0  0
 19 20  1  0  0  0  0
 20 24  1  0  0  0  0
 21 20  2  0  0  0  0
 22 16  1  0  0  0  0
 23 17  1  0  0  0  0
M  END
>  <minimizedAffinity>
-4.44329405

>  <minimizedRMSD>
1.78885901

$$$$
