
 OpenBabel03252503283D

 28 30  0  0  0  0  0  0  0  0999 V2000
   46.5230   31.3820   41.4910 C   0  0  0  0  0  0  0  0  0  0  0  0
   47.7750   30.7680   41.3870 C   0  0  0  0  0  0  0  0  0  0  0  0
   48.4580   30.5400   42.6080 C   0  0  0  0  0  0  0  0  0  0  0  0
   47.8480   30.9310   43.7600 N   0  0  0  0  0  0  0  0  0  0  0  0
   46.6390   31.5190   43.7860 C   0  0  0  0  0  0  0  0  0  0  0  0
   45.9680   31.7490   42.6520 N   0  0  0  0  0  0  0  0  0  0  0  0
   45.1660   30.4680   39.7820 C   0  0  0  0  0  0  0  0  0  0  0  0
   45.3940   29.3760   40.4060 O   0  0  0  0  0  0  0  0  0  0  0  0
   45.7670   31.6480   40.3020 N   0  0  0  0  0  0  0  0  0  0  0  0
   48.1160   30.5200   40.3980 H   0  0  0  0  0  0  0  0  0  0  0  0
   46.2600   31.7850   44.7670 H   0  0  0  0  0  0  0  0  0  0  0  0
   45.6560   32.5610   39.8620 H   0  0  0  0  0  0  0  0  0  0  0  0
   43.2530   31.3640   38.4000 C   0  0  0  0  0  3  0  0  0  0  0  0
   44.3270   30.5100   38.5860 C   0  0  0  0  0  0  0  0  0  0  0  0
   44.6180   29.6420   37.5680 C   0  0  0  0  0  0  0  0  0  0  0  0
   45.4360   28.9640   37.6670 H   0  0  0  0  0  0  0  0  0  0  0  0
   43.8700   29.6100   36.3890 C   0  0  0  0  0  0  0  0  0  0  0  0
   43.9440   28.8680   35.2540 N   0  0  0  0  0  0  0  0  0  0  0  0
   42.9490   29.2620   34.4140 C   0  0  0  0  0  0  0  0  0  0  0  0
   42.7160   28.8770   33.4180 H   0  0  0  0  0  0  0  0  0  0  0  0
   42.2510   30.2440   35.0080 N   0  0  0  0  0  0  0  0  0  0  0  0
   42.7980   30.4700   36.2140 C   0  0  0  0  0  0  0  0  0  0  0  0
   42.5050   31.3460   37.2410 C   0  0  0  0  0  3  0  0  0  0  0  0
   44.6470   28.1140   35.0510 H   0  0  0  0  0  0  0  0  0  0  0  0
   49.7590   29.8990   42.4710 C   0  0  0  0  0  0  0  0  0  0  0  0
   50.2120   29.5410   43.7500 F   0  0  0  0  0  0  0  0  0  0  0  0
   50.6480   30.8650   42.0270 F   0  0  0  0  0  0  0  0  0  0  0  0
   49.7360   28.7640   41.7230 F   0  0  0  0  0  0  0  0  0  0  0  0
  1  6  1  0  0  0  0
  2  1  2  0  0  0  0
  2  3  1  0  0  0  0
  3  4  2  0  0  0  0
  4  5  1  0  0  0  0
  5 11  1  0  0  0  0
  6  5  2  0  0  0  0
  7  9  1  0  0  0  0
  7  8  2  0  0  0  0
  9  1  1  0  0  0  0
 10  2  1  0  0  0  0
 12  9  1  0  0  0  0
 13 14  1  0  0  0  0
 14  7  1  0  0  0  0
 15 16  1  0  0  0  0
 15 14  2  0  0  0  0
 17 15  1  0  0  0  0
 18 17  1  0  0  0  0
 19 21  2  0  0  0  0
 19 18  1  0  0  0  0
 20 19  1  0  0  0  0
 21 22  1  0  0  0  0
 22 17  2  0  0  0  0
 22 23  1  0  0  0  0
 23 13  2  0  0  0  0
 24 18  1  0  0  0  0
 25  3  1  0  0  0  0
 25 26  1  0  0  0  0
 27 25  1  0  0  0  0
 28 25  1  0  0  0  0
M  END
>  <minimizedAffinity>
-1.99144411

>  <minimizedRMSD>
6.75366545

$$$$
