
 OpenBabel03252504533D

 24 26  0  0  0  0  0  0  0  0999 V2000
   47.7080   34.0910   42.6660 C   0  0  0  0  0  0  0  0  0  0  0  0
   48.4780   34.8670   42.5560 H   0  0  0  0  0  0  0  0  0  0  0  0
   48.2120   33.2420   43.1750 H   0  0  0  0  0  0  0  0  0  0  0  0
   46.4940   32.4660   41.2790 C   0  0  0  0  0  3  0  0  0  0  0  0
   47.2900   33.5910   41.3280 C   0  0  0  0  0  0  0  0  0  0  0  0
   47.6790   34.2210   40.1640 C   0  0  0  0  0  0  0  0  0  0  0  0
   48.3110   35.1130   40.1910 H   0  0  0  0  0  0  0  0  0  0  0  0
   47.2800   33.7390   38.9320 C   0  0  0  0  0  0  0  0  0  0  0  0
   47.5000   34.1370   37.6490 N   0  0  0  0  0  0  0  0  0  0  0  0
   46.8330   33.2460   36.8600 C   0  0  0  0  0  0  0  0  0  0  0  0
   46.8220   33.3010   35.7790 H   0  0  0  0  0  0  0  0  0  0  0  0
   46.2140   32.3180   37.6280 N   0  0  0  0  0  0  0  0  0  0  0  0
   46.4920   32.6250   38.9070 C   0  0  0  0  0  0  0  0  0  0  0  0
   46.0760   31.9570   40.0520 C   0  0  0  0  0  3  0  0  0  0  0  0
   48.0690   34.9620   37.3490 H   0  0  0  0  0  0  0  0  0  0  0  0
   44.7780   36.0390   43.8720 C   0  0  0  0  0  0  0  0  0  0  0  0
   45.8550   35.6050   43.0680 C   0  0  0  0  0  0  0  0  0  0  0  0
   46.5970   34.5250   43.5110 C   0  0  0  0  0  0  0  0  0  0  0  0
   46.2620   33.9310   44.6930 N   0  0  0  0  0  0  0  0  0  0  0  0
   45.2240   34.3760   45.4330 C   0  0  0  0  0  0  0  0  0  0  0  0
   44.4890   35.4160   45.0320 N   0  0  0  0  0  0  0  0  0  0  0  0
   44.1670   36.8790   43.5710 H   0  0  0  0  0  0  0  0  0  0  0  0
   46.0330   36.1430   42.1580 H   0  0  0  0  0  0  0  0  0  0  0  0
   45.0000   33.8570   46.3770 H   0  0  0  0  0  0  0  0  0  0  0  0
  1  3  1  0  0  0  0
  1 18  1  0  0  0  0
  2  1  1  0  0  0  0
  4  5  1  0  0  0  0
  5  1  1  0  0  0  0
  6  7  1  0  0  0  0
  6  5  2  0  0  0  0
  8  6  1  0  0  0  0
  9  8  1  0  0  0  0
 10 12  2  0  0  0  0
 10  9  1  0  0  0  0
 11 10  1  0  0  0  0
 12 13  1  0  0  0  0
 13  8  2  0  0  0  0
 13 14  1  0  0  0  0
 14  4  2  0  0  0  0
 15  9  1  0  0  0  0
 16 21  1  0  0  0  0
 17 18  1  0  0  0  0
 17 16  2  0  0  0  0
 18 19  2  0  0  0  0
 19 20  1  0  0  0  0
 20 24  1  0  0  0  0
 21 20  2  0  0  0  0
 22 16  1  0  0  0  0
 23 17  1  0  0  0  0
M  END
>  <minimizedAffinity>
-4.33858395

>  <minimizedRMSD>
1.29283583

$$$$
