
 OpenBabel03252501093D

 43 47  0  0  1  0  0  0  0  0999 V2000
   35.9590   28.2200   41.6330 O   0  0  0  0  0  0  0  0  0  0  0  0
   37.1680   27.7530   42.0940 C   0  0  0  0  0  0  0  0  0  0  0  0
   37.4760   26.4820   42.5650 C   0  0  0  0  0  0  0  0  0  0  0  0
   38.7290   26.1770   42.9890 C   0  0  0  0  0  0  0  0  0  0  0  0
   39.7220   27.1230   42.9610 C   0  0  0  0  0  0  0  0  0  0  0  0
   39.3970   28.3990   42.4840 C   0  0  0  0  0  0  0  0  0  0  0  0
   38.1410   28.6910   42.0630 N   0  0  0  0  0  0  0  0  0  0  0  0
   36.6030   25.8400   42.5330 H   0  0  0  0  0  0  0  0  0  0  0  0
   38.7830   25.1420   43.3200 H   0  0  0  0  0  0  0  0  0  0  0  0
   40.6180   26.6850   43.3280 H   0  0  0  0  0  0  0  0  0  0  0  0
   41.7330   28.9890   43.0610 C   0  0  0  0  0  3  0  0  0  0  0  0
   40.5200   29.3290   42.5380 C   0  0  0  0  0  0  0  0  0  0  0  0
   40.4820   30.6370   42.1010 C   0  0  0  0  0  0  0  0  0  0  0  0
   39.5520   30.9880   41.6760 H   0  0  0  0  0  0  0  0  0  0  0  0
   41.5050   31.5220   42.1610 C   0  0  0  0  0  0  0  0  0  0  0  0
   41.7560   32.7950   41.8360 N   0  0  0  0  0  0  0  0  0  0  0  0
   43.0010   33.1850   42.1330 C   0  0  0  0  0  0  0  0  0  0  0  0
   43.4760   34.1400   41.9860 H   0  0  0  0  0  0  0  0  0  0  0  0
   43.6160   32.1260   42.6850 N   0  0  0  0  0  0  0  0  0  0  0  0
   42.7190   31.1120   42.7060 C   0  0  0  0  0  0  0  0  0  0  0  0
   42.8190   29.8230   43.1590 C   0  0  0  0  0  3  0  0  0  0  0  0
   41.1070   33.4530   41.4040 H   0  0  0  0  0  0  0  0  0  0  0  0
   34.3990   29.2580   39.9130 O   0  0  0  0  0  0  0  0  0  0  0  0
   35.7810   29.4780   40.5330 P   0  0  1  0  0  0  0  0  0  0  0  0
   35.6720   30.9160   41.4090 O   0  0  0  0  0  0  0  0  0  0  0  0
   36.3060   30.9640   42.1640 H   0  0  0  0  0  0  0  0  0  0  0  0
   36.9710   29.4410   39.4070 O   0  0  0  0  0  0  0  0  0  0  0  0
   37.0730   30.8270   37.4260 C   0  0  1  0  0  0  0  0  0  0  0  0
   37.7130   29.5730   37.0160 C   0  0  0  0  0  0  0  0  0  0  0  0
   36.6350   29.6120   38.1120 C   0  0  1  0  0  0  0  0  0  0  0  0
   36.3020   31.3730   36.8390 H   0  0  0  0  0  0  0  0  0  0  0  0
   38.7290   29.3040   37.3300 H   0  0  0  0  0  0  0  0  0  0  0  0
   37.4480   29.1740   36.0160 H   0  0  0  0  0  0  0  0  0  0  0  0
   35.7440   29.0530   37.7760 H   0  0  0  0  0  0  0  0  0  0  0  0
   38.2330   33.5450   39.7930 C   0  0  0  0  0  0  0  0  0  0  0  0
   37.3860   32.6970   39.0870 C   0  0  0  0  0  0  0  0  0  0  0  0
   37.9490   31.7570   38.2150 C   0  0  0  0  0  0  0  0  0  0  0  0
   39.3060   31.7120   38.0930 N   0  0  0  0  0  0  0  0  0  0  0  0
   40.0980   32.5530   38.7970 C   0  0  0  0  0  0  0  0  0  0  0  0
   39.5630   33.4670   39.6430 N   0  0  0  0  0  0  0  0  0  0  0  0
   37.8720   34.2930   40.4810 H   0  0  0  0  0  0  0  0  0  0  0  0
   36.3260   32.7840   39.2320 H   0  0  0  0  0  0  0  0  0  0  0  0
   41.1120   32.2840   38.4990 H   0  0  0  0  0  0  0  0  0  0  0  0
  1  2  1  0  0  0  0
  2  3  1  0  0  0  0
  3  4  2  0  0  0  0
  4  9  1  0  0  0  0
  5  4  1  0  0  0  0
  5 10  1  0  0  0  0
  6 12  1  0  0  0  0
  6  5  2  0  0  0  0
  7  2  2  0  0  0  0
  7  6  1  0  0  0  0
  8  3  1  0  0  0  0
 11 21  1  0  0  0  0
 12 11  2  0  0  0  0
 13 15  2  0  0  0  0
 13 12  1  0  0  0  0
 14 13  1  0  0  0  0
 15 20  1  0  0  0  0
 16 17  1  0  0  0  0
 16 15  1  0  0  0  0
 17 19  2  0  0  0  0
 18 17  1  0  0  0  0
 19 20  1  0  0  0  0
 20 21  2  0  0  0  0
 22 16  1  0  0  0  0
 24 23  2  6  0  0  0
 24 25  1  0  0  0  0
 24  1  1  0  0  0  0
 25 26  1  0  0  0  0
 27 24  1  0  0  0  0
 28 31  1  6  0  0  0
 28 30  1  0  0  0  0
 28 37  1  0  0  0  0
 29 32  1  0  0  0  0
 29 28  1  0  0  0  0
 29 30  1  0  0  0  0
 30 34  1  6  0  0  0
 30 27  1  0  0  0  0
 33 29  1  0  0  0  0
 35 41  1  0  0  0  0
 36 42  1  0  0  0  0
 36 35  2  0  0  0  0
 37 36  1  0  0  0  0
 38 37  2  0  0  0  0
 38 39  1  0  0  0  0
 39 40  2  0  0  0  0
 40 35  1  0  0  0  0
 43 39  1  0  0  0  0
M  END
>  <minimizedAffinity>
-6.61034727

$$$$

 OpenBabel03252501093D

 43 47  0  0  1  0  0  0  0  0999 V2000
   37.4960   31.1510   37.3660 O   0  0  0  0  0  0  0  0  0  0  0  0
   37.9990   32.0730   38.2540 C   0  0  0  0  0  0  0  0  0  0  0  0
   37.3010   32.8690   39.1540 C   0  0  0  0  0  0  0  0  0  0  0  0
   37.9510   33.7390   39.9700 C   0  0  0  0  0  0  0  0  0  0  0  0
   39.3180   33.8490   39.9210 C   0  0  0  0  0  0  0  0  0  0  0  0
   40.0070   33.0410   39.0100 C   0  0  0  0  0  0  0  0  0  0  0  0
   39.3460   32.1760   38.2000 N   0  0  0  0  0  0  0  0  0  0  0  0
   36.2350   32.6820   39.0860 H   0  0  0  0  0  0  0  0  0  0  0  0
   37.2460   34.2750   40.6040 H   0  0  0  0  0  0  0  0  0  0  0  0
   39.6240   34.5750   40.6340 H   0  0  0  0  0  0  0  0  0  0  0  0
   42.1340   33.5850   40.1560 C   0  0  0  0  0  3  0  0  0  0  0  0
   41.4480   33.2730   39.0200 C   0  0  0  0  0  0  0  0  0  0  0  0
   42.2610   33.2320   37.9070 C   0  0  0  0  0  0  0  0  0  0  0  0
   41.7920   32.9960   36.9620 H   0  0  0  0  0  0  0  0  0  0  0  0
   43.5950   33.4650   37.8920 C   0  0  0  0  0  0  0  0  0  0  0  0
   44.6020   33.4990   37.0120 N   0  0  0  0  0  0  0  0  0  0  0  0
   45.7820   33.8000   37.5640 C   0  0  0  0  0  0  0  0  0  0  0  0
   46.7520   33.8970   37.1050 H   0  0  0  0  0  0  0  0  0  0  0  0
   45.5600   33.9790   38.8760 N   0  0  0  0  0  0  0  0  0  0  0  0
   44.2370   33.7780   39.0860 C   0  0  0  0  0  0  0  0  0  0  0  0
   43.4820   33.8350   40.2280 C   0  0  0  0  0  3  0  0  0  0  0  0
   44.5400   33.3220   36.0090 H   0  0  0  0  0  0  0  0  0  0  0  0
   36.8410   28.8960   36.3900 O   0  0  0  0  0  0  0  0  0  0  0  0
   37.7340   29.4910   37.4810 P   0  0  1  0  0  0  0  0  0  0  0  0
   39.3210   29.1650   37.0080 O   0  0  0  0  0  0  0  0  0  0  0  0
   39.9750   29.8150   37.3590 H   0  0  0  0  0  0  0  0  0  0  0  0
   37.3290   28.9450   38.9720 O   0  0  0  0  0  0  0  0  0  0  0  0
   35.6660   28.5650   40.6880 C   0  0  1  0  0  0  0  0  0  0  0  0
   35.4930   29.9760   40.3330 C   0  0  0  0  0  0  0  0  0  0  0  0
   36.0270   28.9460   39.3240 C   0  0  1  0  0  0  0  0  0  0  0  0
   34.8410   27.8270   40.7980 H   0  0  0  0  0  0  0  0  0  0  0  0
   36.1930   30.7540   40.6630 H   0  0  0  0  0  0  0  0  0  0  0  0
   34.4530   30.3470   40.2230 H   0  0  0  0  0  0  0  0  0  0  0  0
   35.3100   28.8390   38.4890 H   0  0  0  0  0  0  0  0  0  0  0  0
   38.3090   26.7520   42.7050 C   0  0  0  0  0  0  0  0  0  0  0  0
   37.2550   26.9710   41.8230 C   0  0  0  0  0  0  0  0  0  0  0  0
   36.8070   28.2830   41.6230 C   0  0  0  0  0  0  0  0  0  0  0  0
   37.4220   29.2920   42.3010 N   0  0  0  0  0  0  0  0  0  0  0  0
   38.4450   29.0410   43.1500 C   0  0  0  0  0  0  0  0  0  0  0  0
   38.8860   27.7750   43.3510 N   0  0  0  0  0  0  0  0  0  0  0  0
   38.7080   25.7710   42.9090 H   0  0  0  0  0  0  0  0  0  0  0  0
   36.8170   26.1300   41.3200 H   0  0  0  0  0  0  0  0  0  0  0  0
   38.7280   30.0220   43.5330 H   0  0  0  0  0  0  0  0  0  0  0  0
  1 24  1  0  0  0  0
  1  2  1  0  0  0  0
  2  3  1  0  0  0  0
  3  4  2  0  0  0  0
  4  9  1  0  0  0  0
  5  4  1  0  0  0  0
  5 10  1  0  0  0  0
  6 12  1  0  0  0  0
  6  5  2  0  0  0  0
  7  2  2  0  0  0  0
  7  6  1  0  0  0  0
  8  3  1  0  0  0  0
 11 21  1  0  0  0  0
 12 11  2  0  0  0  0
 13 12  1  0  0  0  0
 14 13  1  0  0  0  0
 15 13  2  0  0  0  0
 15 20  1  0  0  0  0
 16 17  1  0  0  0  0
 16 15  1  0  0  0  0
 17 19  2  0  0  0  0
 18 17  1  0  0  0  0
 19 20  1  0  0  0  0
 20 21  2  0  0  0  0
 22 16  1  0  0  0  0
 24 23  2  6  0  0  0
 24 27  1  0  0  0  0
 25 26  1  0  0  0  0
 25 24  1  0  0  0  0
 27 30  1  0  0  0  0
 28 31  1  1  0  0  0
 28 37  1  0  0  0  0
 29 32  1  0  0  0  0
 29 28  1  0  0  0  0
 30 34  1  6  0  0  0
 30 29  1  0  0  0  0
 30 28  1  0  0  0  0
 33 29  1  0  0  0  0
 35 41  1  0  0  0  0
 35 40  1  0  0  0  0
 36 35  2  0  0  0  0
 37 36  1  0  0  0  0
 37 38  2  0  0  0  0
 38 39  1  0  0  0  0
 39 40  2  0  0  0  0
 39 43  1  0  0  0  0
 42 36  1  0  0  0  0
M  END
>  <minimizedAffinity>
-6.27793264

$$$$

 OpenBabel03252501093D

 43 47  0  0  1  0  0  0  0  0999 V2000
   36.6070   26.4320   39.8010 O   0  0  0  0  0  0  0  0  0  0  0  0
   36.5680   27.5820   39.0490 C   0  0  0  0  0  0  0  0  0  0  0  0
   35.4580   28.2100   38.4950 C   0  0  0  0  0  0  0  0  0  0  0  0
   35.5880   29.3500   37.7690 C   0  0  0  0  0  0  0  0  0  0  0  0
   36.8240   29.9090   37.5670 C   0  0  0  0  0  0  0  0  0  0  0  0
   37.9320   29.2660   38.1300 C   0  0  0  0  0  0  0  0  0  0  0  0
   37.7890   28.1270   38.8540 N   0  0  0  0  0  0  0  0  0  0  0  0
   34.5510   27.6630   38.7300 H   0  0  0  0  0  0  0  0  0  0  0  0
   34.6170   29.6960   37.4170 H   0  0  0  0  0  0  0  0  0  0  0  0
   36.7070   30.7880   36.9830 H   0  0  0  0  0  0  0  0  0  0  0  0
   40.3370   29.2400   37.5360 C   0  0  0  0  0  3  0  0  0  0  0  0
   39.1940   29.9290   37.8170 C   0  0  0  0  0  0  0  0  0  0  0  0
   39.3820   31.2950   37.7940 C   0  0  0  0  0  0  0  0  0  0  0  0
   38.5240   31.9150   38.0120 H   0  0  0  0  0  0  0  0  0  0  0  0
   40.5490   31.9290   37.5270 C   0  0  0  0  0  0  0  0  0  0  0  0
   41.0190   33.1780   37.4370 N   0  0  0  0  0  0  0  0  0  0  0  0
   42.3190   33.2380   37.1300 C   0  0  0  0  0  0  0  0  0  0  0  0
   42.9550   34.0960   36.9940 H   0  0  0  0  0  0  0  0  0  0  0  0
   42.7450   31.9700   37.0090 N   0  0  0  0  0  0  0  0  0  0  0  0
   41.6800   31.1680   37.2470 C   0  0  0  0  0  0  0  0  0  0  0  0
   41.5570   29.8040   37.2550 C   0  0  0  0  0  3  0  0  0  0  0  0
   40.4890   34.0400   37.5780 H   0  0  0  0  0  0  0  0  0  0  0  0
   37.4960   24.6100   41.3370 O   0  0  0  0  0  0  0  0  0  0  0  0
   37.9760   25.8560   40.5880 P   0  0  1  0  0  0  0  0  0  0  0  0
   39.0510   25.3030   39.4110 O   0  0  0  0  0  0  0  0  0  0  0  0
   39.1080   25.8950   38.6240 H   0  0  0  0  0  0  0  0  0  0  0  0
   38.5840   26.9880   41.6050 O   0  0  0  0  0  0  0  0  0  0  0  0
   37.7880   28.3060   43.4720 C   0  0  1  0  0  0  0  0  0  0  0  0
   36.6750   27.3990   43.1780 C   0  0  0  0  0  0  0  0  0  0  0  0
   38.1330   27.0170   42.8760 C   0  0  1  0  0  0  0  0  0  0  0  0
   38.1950   28.5120   44.4870 H   0  0  0  0  0  0  0  0  0  0  0  0
   36.0130   27.5440   42.3150 H   0  0  0  0  0  0  0  0  0  0  0  0
   36.1630   26.9290   44.0420 H   0  0  0  0  0  0  0  0  0  0  0  0
   38.4280   26.1550   43.5030 H   0  0  0  0  0  0  0  0  0  0  0  0
   39.1350   31.3170   41.6110 C   0  0  0  0  0  0  0  0  0  0  0  0
   39.0890   30.2090   42.4520 C   0  0  0  0  0  0  0  0  0  0  0  0
   37.8860   29.5020   42.5700 C   0  0  0  0  0  0  0  0  0  0  0  0
   36.8070   29.9300   41.8550 N   0  0  0  0  0  0  0  0  0  0  0  0
   36.8890   31.0120   41.0470 C   0  0  0  0  0  0  0  0  0  0  0  0
   38.0490   31.7030   40.9270 N   0  0  0  0  0  0  0  0  0  0  0  0
   40.0250   31.9090   41.4710 H   0  0  0  0  0  0  0  0  0  0  0  0
   39.9770   29.9250   42.9850 H   0  0  0  0  0  0  0  0  0  0  0  0
   35.8920   31.1060   40.6170 H   0  0  0  0  0  0  0  0  0  0  0  0
  1 24  1  0  0  0  0
  2  1  1  0  0  0  0
  3  8  1  0  0  0  0
  3  2  2  0  0  0  0
  4  3  1  0  0  0  0
  5  4  2  0  0  0  0
  5  6  1  0  0  0  0
  6  7  2  0  0  0  0
  7  2  1  0  0  0  0
  9  4  1  0  0  0  0
 10  5  1  0  0  0  0
 11 12  1  0  0  0  0
 12  6  1  0  0  0  0
 13 12  2  0  0  0  0
 13 14  1  0  0  0  0
 15 13  1  0  0  0  0
 16 15  1  0  0  0  0
 16 22  1  0  0  0  0
 17 16  1  0  0  0  0
 18 17  1  0  0  0  0
 19 17  2  0  0  0  0
 19 20  1  0  0  0  0
 20 21  1  0  0  0  0
 20 15  2  0  0  0  0
 21 11  2  0  0  0  0
 24 23  2  1  0  0  0
 24 27  1  0  0  0  0
 25 24  1  0  0  0  0
 26 25  1  0  0  0  0
 27 30  1  0  0  0  0
 28 31  1  1  0  0  0
 29 28  1  0  0  0  0
 29 33  1  0  0  0  0
 30 29  1  0  0  0  0
 30 28  1  0  0  0  0
 30 34  1  1  0  0  0
 32 29  1  0  0  0  0
 35 36  1  0  0  0  0
 36 37  2  0  0  0  0
 36 42  1  0  0  0  0
 37 28  1  0  0  0  0
 38 37  1  0  0  0  0
 39 38  2  0  0  0  0
 40 39  1  0  0  0  0
 40 35  2  0  0  0  0
 41 35  1  0  0  0  0
 43 39  1  0  0  0  0
M  END
>  <minimizedAffinity>
-6.22122622

$$$$

 OpenBabel03252501093D

 43 47  0  0  1  0  0  0  0  0999 V2000
   36.2630   28.5930   38.4430 O   0  0  0  0  0  0  0  0  0  0  0  0
   35.1600   28.1140   37.7760 C   0  0  0  0  0  0  0  0  0  0  0  0
   34.8870   26.8060   37.3940 C   0  0  0  0  0  0  0  0  0  0  0  0
   33.7420   26.4930   36.7340 C   0  0  0  0  0  0  0  0  0  0  0  0
   32.8270   27.4680   36.4300 C   0  0  0  0  0  0  0  0  0  0  0  0
   33.1150   28.7810   36.8200 C   0  0  0  0  0  0  0  0  0  0  0  0
   34.2630   29.0800   37.4800 N   0  0  0  0  0  0  0  0  0  0  0  0
   35.6910   26.1430   37.6950 H   0  0  0  0  0  0  0  0  0  0  0  0
   33.7000   25.4270   36.5170 H   0  0  0  0  0  0  0  0  0  0  0  0
   32.0100   27.0190   35.9200 H   0  0  0  0  0  0  0  0  0  0  0  0
   31.1610   30.2350   37.2740 C   0  0  0  0  0  3  0  0  0  0  0  0
   32.0900   29.7350   36.4090 C   0  0  0  0  0  0  0  0  0  0  0  0
   31.9260   30.2120   35.1250 C   0  0  0  0  0  0  0  0  0  0  0  0
   32.6200   29.8590   34.3760 H   0  0  0  0  0  0  0  0  0  0  0  0
   30.9690   31.0790   34.7190 C   0  0  0  0  0  0  0  0  0  0  0  0
   30.5750   31.6910   33.5960 N   0  0  0  0  0  0  0  0  0  0  0  0
   29.5120   32.4860   33.7680 C   0  0  0  0  0  0  0  0  0  0  0  0
   28.9860   33.0940   33.0520 H   0  0  0  0  0  0  0  0  0  0  0  0
   29.1740   32.4030   35.0640 N   0  0  0  0  0  0  0  0  0  0  0  0
   30.0510   31.5540   35.6510 C   0  0  0  0  0  0  0  0  0  0  0  0
   30.1610   31.1160   36.9440 C   0  0  0  0  0  3  0  0  0  0  0  0
   31.0000   31.6030   32.6730 H   0  0  0  0  0  0  0  0  0  0  0  0
   36.4210   30.9330   39.4270 O   0  0  0  0  0  0  0  0  0  0  0  0
   36.2020   29.4840   39.8670 P   0  0  1  0  0  0  0  0  0  0  0  0
   34.6200   29.4120   40.4510 O   0  0  0  0  0  0  0  0  0  0  0  0
   34.2150   28.5150   40.3750 H   0  0  0  0  0  0  0  0  0  0  0  0
   37.3530   28.9810   40.9200 O   0  0  0  0  0  0  0  0  0  0  0  0
   37.4410   28.3440   43.2530 C   0  0  1  0  0  0  0  0  0  0  0  0
   38.4860   29.3630   43.1230 C   0  0  0  0  0  0  0  0  0  0  0  0
   37.2480   29.3520   42.2120 C   0  0  1  0  0  0  0  0  0  0  0  0
   36.6780   28.3090   44.0610 H   0  0  0  0  0  0  0  0  0  0  0  0
   39.4520   29.1540   42.6470 H   0  0  0  0  0  0  0  0  0  0  0  0
   38.5550   30.1230   43.9280 H   0  0  0  0  0  0  0  0  0  0  0  0
   36.6440   30.2590   42.3970 H   0  0  0  0  0  0  0  0  0  0  0  0
   37.2590   24.7550   42.0580 C   0  0  0  0  0  0  0  0  0  0  0  0
   36.8540   26.0170   42.4810 C   0  0  0  0  0  0  0  0  0  0  0  0
   37.8320   26.9720   42.7840 C   0  0  0  0  0  0  0  0  0  0  0  0
   39.1440   26.6250   42.6520 N   0  0  0  0  0  0  0  0  0  0  0  0
   39.5000   25.3870   42.2380 C   0  0  0  0  0  0  0  0  0  0  0  0
   38.5600   24.4560   41.9430 N   0  0  0  0  0  0  0  0  0  0  0  0
   36.5630   23.9700   41.8070 H   0  0  0  0  0  0  0  0  0  0  0  0
   35.8030   26.2250   42.5610 H   0  0  0  0  0  0  0  0  0  0  0  0
   40.5900   25.4080   42.2280 H   0  0  0  0  0  0  0  0  0  0  0  0
  1 24  1  0  0  0  0
  2  1  1  0  0  0  0
  3  8  1  0  0  0  0
  3  2  2  0  0  0  0
  4  3  1  0  0  0  0
  5  4  2  0  0  0  0
  5  6  1  0  0  0  0
  6  7  2  0  0  0  0
  7  2  1  0  0  0  0
  9  4  1  0  0  0  0
 10  5  1  0  0  0  0
 12  6  1  0  0  0  0
 12 11  2  0  0  0  0
 13 12  1  0  0  0  0
 14 13  1  0  0  0  0
 15 13  2  0  0  0  0
 15 20  1  0  0  0  0
 16 17  1  0  0  0  0
 16 15  1  0  0  0  0
 17 19  2  0  0  0  0
 18 17  1  0  0  0  0
 19 20  1  0  0  0  0
 20 21  2  0  0  0  0
 21 11  1  0  0  0  0
 22 16  1  0  0  0  0
 24 23  2  6  0  0  0
 24 25  1  0  0  0  0
 24 27  1  0  0  0  0
 26 25  1  0  0  0  0
 27 30  1  0  0  0  0
 28 31  1  1  0  0  0
 29 28  1  0  0  0  0
 29 33  1  0  0  0  0
 30 34  1  1  0  0  0
 30 29  1  0  0  0  0
 30 28  1  0  0  0  0
 32 29  1  0  0  0  0
 35 36  1  0  0  0  0
 36 42  1  0  0  0  0
 36 37  2  0  0  0  0
 37 28  1  0  0  0  0
 38 37  1  0  0  0  0
 39 38  2  0  0  0  0
 40 35  2  0  0  0  0
 40 39  1  0  0  0  0
 41 35  1  0  0  0  0
 43 39  1  0  0  0  0
M  END
>  <minimizedAffinity>
-6.08315897

$$$$

 OpenBabel03252501093D

 43 47  0  0  1  0  0  0  0  0999 V2000
   41.0010   32.1720   40.8480 O   0  0  0  0  0  0  0  0  0  0  0  0
   39.7740   32.5580   40.3610 C   0  0  0  0  0  0  0  0  0  0  0  0
   39.1000   33.7550   40.5790 C   0  0  0  0  0  0  0  0  0  0  0  0
   37.8830   33.9850   40.0220 C   0  0  0  0  0  0  0  0  0  0  0  0
   37.2900   33.0350   39.2300 C   0  0  0  0  0  0  0  0  0  0  0  0
   37.9800   31.8350   39.0200 C   0  0  0  0  0  0  0  0  0  0  0  0
   39.1960   31.6180   39.5820 N   0  0  0  0  0  0  0  0  0  0  0  0
   39.6800   34.4100   41.2210 H   0  0  0  0  0  0  0  0  0  0  0  0
   37.5120   34.9700   40.3020 H   0  0  0  0  0  0  0  0  0  0  0  0
   36.3540   33.4100   38.8960 H   0  0  0  0  0  0  0  0  0  0  0  0
   36.2300   30.1130   38.6910 C   0  0  0  0  0  3  0  0  0  0  0  0
   37.2360   30.8890   38.1950 C   0  0  0  0  0  0  0  0  0  0  0  0
   37.4730   30.6550   36.8570 C   0  0  0  0  0  0  0  0  0  0  0  0
   38.2600   31.2270   36.3870 H   0  0  0  0  0  0  0  0  0  0  0  0
   36.8090   29.7660   36.0790 C   0  0  0  0  0  0  0  0  0  0  0  0
   36.8140   29.3350   34.8120 N   0  0  0  0  0  0  0  0  0  0  0  0
   35.8990   28.3920   34.5670 C   0  0  0  0  0  0  0  0  0  0  0  0
   35.6770   27.8690   33.6520 H   0  0  0  0  0  0  0  0  0  0  0  0
   35.2480   28.1760   35.7220 N   0  0  0  0  0  0  0  0  0  0  0  0
   35.7920   29.0040   36.6450 C   0  0  0  0  0  0  0  0  0  0  0  0
   35.5090   29.1910   37.9730 C   0  0  0  0  0  3  0  0  0  0  0  0
   37.4290   29.6550   34.0630 H   0  0  0  0  0  0  0  0  0  0  0  0
   42.4980   31.6800   42.8440 O   0  0  0  0  0  0  0  0  0  0  0  0
   41.2250   31.1610   42.1720 P   0  0  1  0  0  0  0  0  0  0  0  0
   39.9720   31.4570   43.2620 O   0  0  0  0  0  0  0  0  0  0  0  0
   39.0930   31.5660   42.8280 H   0  0  0  0  0  0  0  0  0  0  0  0
   41.3750   29.6010   41.6940 O   0  0  0  0  0  0  0  0  0  0  0  0
   40.7930   27.7970   43.2000 C   0  0  1  0  0  0  0  0  0  0  0  0
   41.7470   27.1880   42.2670 C   0  0  0  0  0  0  0  0  0  0  0  0
   41.7840   28.6890   42.6000 C   0  0  1  0  0  0  0  0  0  0  0  0
   40.8230   27.6900   44.3060 H   0  0  0  0  0  0  0  0  0  0  0  0
   41.4700   26.9160   41.2410 H   0  0  0  0  0  0  0  0  0  0  0  0
   42.5210   26.5220   42.6990 H   0  0  0  0  0  0  0  0  0  0  0  0
   42.7290   28.9290   43.1210 H   0  0  0  0  0  0  0  0  0  0  0  0
   37.6490   27.2760   41.1540 C   0  0  0  0  0  0  0  0  0  0  0  0
   38.9550   27.1260   41.6100 C   0  0  0  0  0  0  0  0  0  0  0  0
   39.3900   27.9190   42.6800 C   0  0  0  0  0  0  0  0  0  0  0  0
   38.5140   28.8080   43.2280 N   0  0  0  0  0  0  0  0  0  0  0  0
   37.2520   28.9270   42.7570 C   0  0  0  0  0  0  0  0  0  0  0  0
   36.8220   28.1640   41.7230 N   0  0  0  0  0  0  0  0  0  0  0  0
   37.2450   26.7010   40.3360 H   0  0  0  0  0  0  0  0  0  0  0  0
   39.5920   26.4040   41.1340 H   0  0  0  0  0  0  0  0  0  0  0  0
   36.8000   29.6970   43.3830 H   0  0  0  0  0  0  0  0  0  0  0  0
  1 24  1  0  0  0  0
  2  3  1  0  0  0  0
  2  1  1  0  0  0  0
  3  8  1  0  0  0  0
  4  9  1  0  0  0  0
  4  3  2  0  0  0  0
  5  4  1  0  0  0  0
  6  5  2  0  0  0  0
  6  7  1  0  0  0  0
  7  2  2  0  0  0  0
 10  5  1  0  0  0  0
 12 11  1  0  0  0  0
 12  6  1  0  0  0  0
 13 12  2  0  0  0  0
 14 13  1  0  0  0  0
 15 20  2  0  0  0  0
 15 13  1  0  0  0  0
 16 15  1  0  0  0  0
 17 16  1  0  0  0  0
 17 19  2  0  0  0  0
 18 17  1  0  0  0  0
 19 20  1  0  0  0  0
 20 21  1  0  0  0  0
 21 11  2  0  0  0  0
 22 16  1  0  0  0  0
 24 23  2  1  0  0  0
 24 25  1  0  0  0  0
 26 25  1  0  0  0  0
 27 24  1  0  0  0  0
 27 30  1  0  0  0  0
 28 31  1  1  0  0  0
 29 30  1  0  0  0  0
 29 33  1  0  0  0  0
 29 28  1  0  0  0  0
 30 34  1  1  0  0  0
 30 28  1  0  0  0  0
 32 29  1  0  0  0  0
 35 36  2  0  0  0  0
 35 40  1  0  0  0  0
 36 37  1  0  0  0  0
 37 28  1  0  0  0  0
 37 38  2  0  0  0  0
 39 38  1  0  0  0  0
 39 43  1  0  0  0  0
 40 39  2  0  0  0  0
 41 35  1  0  0  0  0
 42 36  1  0  0  0  0
M  END
>  <minimizedAffinity>
-5.93269014

$$$$

 OpenBabel03252501093D

 43 47  0  0  1  0  0  0  0  0999 V2000
   37.4770   25.7920   38.8650 O   0  0  0  0  0  0  0  0  0  0  0  0
   36.7650   26.9550   38.6900 C   0  0  0  0  0  0  0  0  0  0  0  0
   35.4620   27.1040   38.2280 C   0  0  0  0  0  0  0  0  0  0  0  0
   34.8960   28.3330   38.1110 C   0  0  0  0  0  0  0  0  0  0  0  0
   35.6040   29.4590   38.4460 C   0  0  0  0  0  0  0  0  0  0  0  0
   36.9150   29.2930   38.9080 C   0  0  0  0  0  0  0  0  0  0  0  0
   37.4680   28.0590   39.0220 N   0  0  0  0  0  0  0  0  0  0  0  0
   35.0230   26.1380   38.0000 H   0  0  0  0  0  0  0  0  0  0  0  0
   33.8770   28.2540   37.7360 H   0  0  0  0  0  0  0  0  0  0  0  0
   34.9870   30.3080   38.2850 H   0  0  0  0  0  0  0  0  0  0  0  0
   36.9850   31.5580   39.9080 C   0  0  0  0  0  3  0  0  0  0  0  0
   37.5810   30.5600   39.1960 C   0  0  0  0  0  0  0  0  0  0  0  0
   38.8480   30.8990   38.7710 C   0  0  0  0  0  0  0  0  0  0  0  0
   39.3880   30.1620   38.1940 H   0  0  0  0  0  0  0  0  0  0  0  0
   39.4750   32.0760   39.0090 C   0  0  0  0  0  0  0  0  0  0  0  0
   40.6440   32.6680   38.7380 N   0  0  0  0  0  0  0  0  0  0  0  0
   40.7440   33.9030   39.2400 C   0  0  0  0  0  0  0  0  0  0  0  0
   41.5580   34.6060   39.1800 H   0  0  0  0  0  0  0  0  0  0  0  0
   39.5890   34.1560   39.8760 N   0  0  0  0  0  0  0  0  0  0  0  0
   38.8120   33.0550   39.7430 C   0  0  0  0  0  0  0  0  0  0  0  0
   37.5480   32.7780   40.1930 C   0  0  0  0  0  3  0  0  0  0  0  0
   41.4190   32.2690   38.2080 H   0  0  0  0  0  0  0  0  0  0  0  0
   36.4930   24.3740   40.7330 O   0  0  0  0  0  0  0  0  0  0  0  0
   37.7950   25.0860   40.3570 P   0  0  1  0  0  0  0  0  0  0  0  0
   38.9360   23.8660   40.1160 O   0  0  0  0  0  0  0  0  0  0  0  0
   39.6560   24.1220   39.4920 H   0  0  0  0  0  0  0  0  0  0  0  0
   38.2150   26.2210   41.4610 O   0  0  0  0  0  0  0  0  0  0  0  0
   37.6870   27.5510   43.4130 C   0  0  1  0  0  0  0  0  0  0  0  0
   36.5590   27.7860   42.5060 C   0  0  0  0  0  0  0  0  0  0  0  0
   37.3640   26.4760   42.4750 C   0  0  1  0  0  0  0  0  0  0  0  0
   37.5980   27.3120   44.4950 H   0  0  0  0  0  0  0  0  0  0  0  0
   36.6400   28.4380   41.6270 H   0  0  0  0  0  0  0  0  0  0  0  0
   35.5430   27.7830   42.9510 H   0  0  0  0  0  0  0  0  0  0  0  0
   36.7120   25.6340   42.7710 H   0  0  0  0  0  0  0  0  0  0  0  0
   39.9890   30.3550   42.3290 C   0  0  0  0  0  0  0  0  0  0  0  0
   38.8210   29.6530   42.6060 C   0  0  0  0  0  0  0  0  0  0  0  0
   38.9220   28.3490   43.1080 C   0  0  0  0  0  0  0  0  0  0  0  0
   40.1630   27.8210   43.3020 N   0  0  0  0  0  0  0  0  0  0  0  0
   41.2780   28.5350   43.0210 C   0  0  0  0  0  0  0  0  0  0  0  0
   41.1900   29.7970   42.5350 N   0  0  0  0  0  0  0  0  0  0  0  0
   39.9890   31.3620   41.9410 H   0  0  0  0  0  0  0  0  0  0  0  0
   37.8740   30.1300   42.4310 H   0  0  0  0  0  0  0  0  0  0  0  0
   42.1000   27.8650   43.2760 H   0  0  0  0  0  0  0  0  0  0  0  0
  1 24  1  0  0  0  0
  2  1  1  0  0  0  0
  2  7  1  0  0  0  0
  3  2  2  0  0  0  0
  4  3  1  0  0  0  0
  4  5  2  0  0  0  0
  5  6  1  0  0  0  0
  6  7  2  0  0  0  0
  6 12  1  0  0  0  0
  8  3  1  0  0  0  0
  9  4  1  0  0  0  0
 10  5  1  0  0  0  0
 11 21  1  0  0  0  0
 12 11  2  0  0  0  0
 13 15  2  0  0  0  0
 13 12  1  0  0  0  0
 14 13  1  0  0  0  0
 15 20  1  0  0  0  0
 16 15  1  0  0  0  0
 16 17  1  0  0  0  0
 17 19  2  0  0  0  0
 18 17  1  0  0  0  0
 20 19  1  0  0  0  0
 20 21  2  0  0  0  0
 22 16  1  0  0  0  0
 24 23  2  1  0  0  0
 24 27  1  0  0  0  0
 25 24  1  0  0  0  0
 26 25  1  0  0  0  0
 27 30  1  0  0  0  0
 28 31  1  1  0  0  0
 29 33  1  0  0  0  0
 29 28  1  0  0  0  0
 30 29  1  0  0  0  0
 30 34  1  1  0  0  0
 30 28  1  0  0  0  0
 32 29  1  0  0  0  0
 35 40  2  0  0  0  0
 35 36  1  0  0  0  0
 36 37  2  0  0  0  0
 37 38  1  0  0  0  0
 37 28  1  0  0  0  0
 39 43  1  0  0  0  0
 39 38  2  0  0  0  0
 40 39  1  0  0  0  0
 41 35  1  0  0  0  0
 42 36  1  0  0  0  0
M  END
>  <minimizedAffinity>
-5.92421293

$$$$

 OpenBabel03252501093D

 43 47  0  0  1  0  0  0  0  0999 V2000
   36.7460   28.7110   41.3210 O   0  0  0  0  0  0  0  0  0  0  0  0
   37.1220   29.8740   40.6930 C   0  0  0  0  0  0  0  0  0  0  0  0
   36.4980   31.1160   40.7360 C   0  0  0  0  0  0  0  0  0  0  0  0
   37.0000   32.1760   40.0530 C   0  0  0  0  0  0  0  0  0  0  0  0
   38.1390   32.0430   39.3010 C   0  0  0  0  0  0  0  0  0  0  0  0
   38.7560   30.7870   39.2660 C   0  0  0  0  0  0  0  0  0  0  0  0
   38.2450   29.7350   39.9540 N   0  0  0  0  0  0  0  0  0  0  0  0
   35.6140   31.0780   41.3630 H   0  0  0  0  0  0  0  0  0  0  0  0
   36.3820   33.0600   40.2040 H   0  0  0  0  0  0  0  0  0  0  0  0
   38.3610   32.9800   38.8540 H   0  0  0  0  0  0  0  0  0  0  0  0
   40.6120   31.8830   38.0450 C   0  0  0  0  0  3  0  0  0  0  0  0
   39.9350   30.7560   38.4050 C   0  0  0  0  0  0  0  0  0  0  0  0
   40.4740   29.6160   37.8480 C   0  0  0  0  0  0  0  0  0  0  0  0
   39.9910   28.6770   38.0810 H   0  0  0  0  0  0  0  0  0  0  0  0
   41.5530   29.5680   37.0300 C   0  0  0  0  0  0  0  0  0  0  0  0
   42.2720   28.6580   36.3640 N   0  0  0  0  0  0  0  0  0  0  0  0
   43.2870   29.1850   35.6700 C   0  0  0  0  0  0  0  0  0  0  0  0
   44.0220   28.7000   35.0510 H   0  0  0  0  0  0  0  0  0  0  0  0
   43.2470   30.5110   35.8760 N   0  0  0  0  0  0  0  0  0  0  0  0
   42.2000   30.7540   36.7000 C   0  0  0  0  0  0  0  0  0  0  0  0
   41.7110   31.9230   37.2220 C   0  0  0  0  0  3  0  0  0  0  0  0
   42.1140   27.6500   36.3480 H   0  0  0  0  0  0  0  0  0  0  0  0
   37.9800   29.3380   43.4550 O   0  0  0  0  0  0  0  0  0  0  0  0
   37.4700   28.1020   42.7110 P   0  0  1  0  0  0  0  0  0  0  0  0
   36.2550   27.4460   43.6800 O   0  0  0  0  0  0  0  0  0  0  0  0
   35.5820   26.9340   43.1710 H   0  0  0  0  0  0  0  0  0  0  0  0
   38.6850   27.0700   42.3300 O   0  0  0  0  0  0  0  0  0  0  0  0
   39.2400   24.8400   43.0900 C   0  0  1  0  0  0  0  0  0  0  0  0
   40.5240   25.5480   43.0980 C   0  0  0  0  0  0  0  0  0  0  0  0
   39.1900   26.2860   43.3040 C   0  0  1  0  0  0  0  0  0  0  0  0
   38.8570   24.2000   43.9150 H   0  0  0  0  0  0  0  0  0  0  0  0
   41.0760   25.7710   42.1760 H   0  0  0  0  0  0  0  0  0  0  0  0
   41.1870   25.3820   43.9710 H   0  0  0  0  0  0  0  0  0  0  0  0
   39.1570   26.7140   44.3220 H   0  0  0  0  0  0  0  0  0  0  0  0
   37.1360   23.3850   40.2980 C   0  0  0  0  0  0  0  0  0  0  0  0
   37.5060   23.8330   41.5620 C   0  0  0  0  0  0  0  0  0  0  0  0
   38.7940   24.3530   41.7410 C   0  0  0  0  0  0  0  0  0  0  0  0
   39.6330   24.3970   40.6680 N   0  0  0  0  0  0  0  0  0  0  0  0
   39.2380   23.9510   39.4530 C   0  0  0  0  0  0  0  0  0  0  0  0
   37.9930   23.4460   39.2700 N   0  0  0  0  0  0  0  0  0  0  0  0
   36.1620   22.9730   40.0850 H   0  0  0  0  0  0  0  0  0  0  0  0
   36.7940   23.7710   42.3640 H   0  0  0  0  0  0  0  0  0  0  0  0
   40.1030   24.1140   38.8100 H   0  0  0  0  0  0  0  0  0  0  0  0
  1 24  1  0  0  0  0
  2  3  1  0  0  0  0
  2  1  1  0  0  0  0
  3  8  1  0  0  0  0
  4  9  1  0  0  0  0
  4  3  2  0  0  0  0
  5  4  1  0  0  0  0
  6  5  2  0  0  0  0
  6  7  1  0  0  0  0
  7  2  2  0  0  0  0
 10  5  1  0  0  0  0
 11 12  1  0  0  0  0
 12  6  1  0  0  0  0
 13 14  1  0  0  0  0
 13 12  2  0  0  0  0
 15 13  1  0  0  0  0
 16 15  1  0  0  0  0
 17 19  2  0  0  0  0
 17 16  1  0  0  0  0
 18 17  1  0  0  0  0
 19 20  1  0  0  0  0
 20 15  2  0  0  0  0
 20 21  1  0  0  0  0
 21 11  2  0  0  0  0
 22 16  1  0  0  0  0
 24 23  2  1  0  0  0
 24 25  1  0  0  0  0
 26 25  1  0  0  0  0
 27 24  1  0  0  0  0
 27 30  1  0  0  0  0
 28 29  1  0  0  0  0
 28 30  1  0  0  0  0
 28 31  1  1  0  0  0
 29 30  1  0  0  0  0
 29 33  1  0  0  0  0
 30 34  1  1  0  0  0
 32 29  1  0  0  0  0
 35 36  1  0  0  0  0
 36 37  2  0  0  0  0
 36 42  1  0  0  0  0
 37 28  1  0  0  0  0
 38 37  1  0  0  0  0
 39 38  2  0  0  0  0
 40 39  1  0  0  0  0
 40 35  2  0  0  0  0
 41 35  1  0  0  0  0
 43 39  1  0  0  0  0
M  END
>  <minimizedAffinity>
-5.90282011

$$$$

 OpenBabel03252501093D

 43 47  0  0  1  0  0  0  0  0999 V2000
   35.9130   28.1980   41.2510 O   0  0  0  0  0  0  0  0  0  0  0  0
   37.0970   28.1300   41.9460 C   0  0  0  0  0  0  0  0  0  0  0  0
   37.5070   27.1600   42.8540 C   0  0  0  0  0  0  0  0  0  0  0  0
   38.7190   27.2370   43.4620 C   0  0  0  0  0  0  0  0  0  0  0  0
   39.5680   28.2800   43.1910 C   0  0  0  0  0  0  0  0  0  0  0  0
   39.1410   29.2500   42.2760 C   0  0  0  0  0  0  0  0  0  0  0  0
   37.9280   29.1610   41.6750 N   0  0  0  0  0  0  0  0  0  0  0  0
   36.7430   26.3990   42.9730 H   0  0  0  0  0  0  0  0  0  0  0  0
   38.8670   26.3940   44.1360 H   0  0  0  0  0  0  0  0  0  0  0  0
   40.4540   28.1520   43.7630 H   0  0  0  0  0  0  0  0  0  0  0  0
   40.0090   31.2470   41.0970 C   0  0  0  0  0  3  0  0  0  0  0  0
   40.1080   30.3280   42.0990 C   0  0  0  0  0  0  0  0  0  0  0  0
   41.2230   30.5250   42.8880 C   0  0  0  0  0  0  0  0  0  0  0  0
   41.3780   29.8330   43.7040 H   0  0  0  0  0  0  0  0  0  0  0  0
   42.1440   31.5050   42.7270 C   0  0  0  0  0  0  0  0  0  0  0  0
   43.2750   31.9280   43.3010 N   0  0  0  0  0  0  0  0  0  0  0  0
   43.8070   33.0010   42.7040 C   0  0  0  0  0  0  0  0  0  0  0  0
   44.7010   33.5500   42.9460 H   0  0  0  0  0  0  0  0  0  0  0  0
   42.9970   33.3130   41.6800 N   0  0  0  0  0  0  0  0  0  0  0  0
   41.9850   32.4130   41.6840 C   0  0  0  0  0  0  0  0  0  0  0  0
   40.8970   32.2700   40.8650 C   0  0  0  0  0  3  0  0  0  0  0  0
   43.7360   31.5180   44.1140 H   0  0  0  0  0  0  0  0  0  0  0  0
   33.9980   29.2280   39.9320 O   0  0  0  0  0  0  0  0  0  0  0  0
   35.4810   29.4600   40.2270 P   0  0  1  0  0  0  0  0  0  0  0  0
   35.5590   30.8930   41.1140 O   0  0  0  0  0  0  0  0  0  0  0  0
   36.3470   30.9430   41.7080 H   0  0  0  0  0  0  0  0  0  0  0  0
   36.3890   29.4380   38.8630 O   0  0  0  0  0  0  0  0  0  0  0  0
   38.4020   30.4380   37.9640 C   0  0  1  0  0  0  0  0  0  0  0  0
   37.3480   30.8670   37.0390 C   0  0  0  0  0  0  0  0  0  0  0  0
   37.0530   30.5600   38.5170 C   0  0  1  0  0  0  0  0  0  0  0  0
   39.1810   31.1020   38.3980 H   0  0  0  0  0  0  0  0  0  0  0  0
   36.9090   30.1890   36.2960 H   0  0  0  0  0  0  0  0  0  0  0  0
   37.3690   31.9230   36.7030 H   0  0  0  0  0  0  0  0  0  0  0  0
   36.7250   31.4830   39.0280 H   0  0  0  0  0  0  0  0  0  0  0  0
   40.1760   27.1280   38.4530 C   0  0  0  0  0  0  0  0  0  0  0  0
   39.7230   28.4210   38.6990 C   0  0  0  0  0  0  0  0  0  0  0  0
   38.9060   29.0400   37.7450 C   0  0  0  0  0  0  0  0  0  0  0  0
   38.5870   28.3500   36.6140 N   0  0  0  0  0  0  0  0  0  0  0  0
   39.0450   27.0930   36.4100 C   0  0  0  0  0  0  0  0  0  0  0  0
   39.8380   26.4860   37.3270 N   0  0  0  0  0  0  0  0  0  0  0  0
   40.8080   26.5890   39.1410 H   0  0  0  0  0  0  0  0  0  0  0  0
   40.0110   28.9070   39.6120 H   0  0  0  0  0  0  0  0  0  0  0  0
   38.6310   26.8070   35.4430 H   0  0  0  0  0  0  0  0  0  0  0  0
  1  2  1  0  0  0  0
  2  3  1  0  0  0  0
  3  8  1  0  0  0  0
  3  4  2  0  0  0  0
  4  9  1  0  0  0  0
  5  4  1  0  0  0  0
  5 10  1  0  0  0  0
  6  5  2  0  0  0  0
  7  2  2  0  0  0  0
  7  6  1  0  0  0  0
 11 12  1  0  0  0  0
 12  6  1  0  0  0  0
 12 13  2  0  0  0  0
 13 14  1  0  0  0  0
 15 13  1  0  0  0  0
 15 16  1  0  0  0  0
 16 22  1  0  0  0  0
 17 18  1  0  0  0  0
 17 16  1  0  0  0  0
 19 20  1  0  0  0  0
 19 17  2  0  0  0  0
 20 15  2  0  0  0  0
 21 11  2  0  0  0  0
 21 20  1  0  0  0  0
 24 23  2  6  0  0  0
 24 25  1  0  0  0  0
 24  1  1  0  0  0  0
 25 26  1  0  0  0  0
 27 24  1  0  0  0  0
 28 31  1  1  0  0  0
 28 30  1  0  0  0  0
 29 28  1  0  0  0  0
 29 30  1  0  0  0  0
 30 27  1  0  0  0  0
 30 34  1  1  0  0  0
 32 29  1  0  0  0  0
 33 29  1  0  0  0  0
 35 36  1  0  0  0  0
 35 41  1  0  0  0  0
 36 42  1  0  0  0  0
 37 28  1  0  0  0  0
 37 36  2  0  0  0  0
 38 37  1  0  0  0  0
 39 38  2  0  0  0  0
 39 40  1  0  0  0  0
 40 35  2  0  0  0  0
 43 39  1  0  0  0  0
M  END
>  <minimizedAffinity>
-5.89555788

$$$$

 OpenBabel03252501093D

 43 47  0  0  1  0  0  0  0  0999 V2000
   36.4790   27.6810   38.3380 O   0  0  0  0  0  0  0  0  0  0  0  0
   36.5310   28.8270   39.0970 C   0  0  0  0  0  0  0  0  0  0  0  0
   35.5990   29.2910   40.0180 C   0  0  0  0  0  0  0  0  0  0  0  0
   35.8000   30.4530   40.6920 C   0  0  0  0  0  0  0  0  0  0  0  0
   36.9320   31.1960   40.4750 C   0  0  0  0  0  0  0  0  0  0  0  0
   37.8610   30.7160   39.5440 C   0  0  0  0  0  0  0  0  0  0  0  0
   37.6490   29.5530   38.8780 N   0  0  0  0  0  0  0  0  0  0  0  0
   34.7580   28.6110   40.0880 H   0  0  0  0  0  0  0  0  0  0  0  0
   34.9700   30.6560   41.3670 H   0  0  0  0  0  0  0  0  0  0  0  0
   36.8970   32.0570   41.0960 H   0  0  0  0  0  0  0  0  0  0  0  0
   39.4930   32.3830   40.3790 C   0  0  0  0  0  3  0  0  0  0  0  0
   39.0040   31.6070   39.3700 C   0  0  0  0  0  0  0  0  0  0  0  0
   39.6910   31.7860   38.1870 C   0  0  0  0  0  0  0  0  0  0  0  0
   39.3610   31.2100   37.3340 H   0  0  0  0  0  0  0  0  0  0  0  0
   40.7380   32.6230   37.9980 C   0  0  0  0  0  0  0  0  0  0  0  0
   41.5660   32.9960   37.0160 N   0  0  0  0  0  0  0  0  0  0  0  0
   42.4680   33.9070   37.3960 C   0  0  0  0  0  0  0  0  0  0  0  0
   43.2480   34.3830   36.8260 H   0  0  0  0  0  0  0  0  0  0  0  0
   42.2360   34.1610   38.6940 N   0  0  0  0  0  0  0  0  0  0  0  0
   41.1900   33.3880   39.0700 C   0  0  0  0  0  0  0  0  0  0  0  0
   40.5480   33.2550   40.2730 C   0  0  0  0  0  3  0  0  0  0  0  0
   41.5600   32.6570   36.0530 H   0  0  0  0  0  0  0  0  0  0  0  0
   36.9410   25.3030   37.5650 O   0  0  0  0  0  0  0  0  0  0  0  0
   37.2520   26.2420   38.7330 P   0  0  1  0  0  0  0  0  0  0  0  0
   38.9150   26.5190   38.6740 O   0  0  0  0  0  0  0  0  0  0  0  0
   39.1820   27.3840   39.0670 H   0  0  0  0  0  0  0  0  0  0  0  0
   36.6970   25.6540   40.1580 O   0  0  0  0  0  0  0  0  0  0  0  0
   38.3110   25.0480   41.8570 C   0  0  1  0  0  0  0  0  0  0  0  0
   37.1050   24.3020   42.2300 C   0  0  0  0  0  0  0  0  0  0  0  0
   37.4040   24.6820   40.7700 C   0  0  1  0  0  0  0  0  0  0  0  0
   39.3380   24.6240   41.8140 H   0  0  0  0  0  0  0  0  0  0  0  0
   36.2390   24.7850   42.6990 H   0  0  0  0  0  0  0  0  0  0  0  0
   37.2400   23.2490   42.5500 H   0  0  0  0  0  0  0  0  0  0  0  0
   37.5640   23.7650   40.1740 H   0  0  0  0  0  0  0  0  0  0  0  0
   37.3620   28.3380   43.4740 C   0  0  0  0  0  0  0  0  0  0  0  0
   37.3300   26.9900   43.1300 C   0  0  0  0  0  0  0  0  0  0  0  0
   38.3110   26.4940   42.2630 C   0  0  0  0  0  0  0  0  0  0  0  0
   39.2570   27.3540   41.7890 N   0  0  0  0  0  0  0  0  0  0  0  0
   39.2560   28.6590   42.1460 C   0  0  0  0  0  0  0  0  0  0  0  0
   38.3100   29.1480   42.9850 N   0  0  0  0  0  0  0  0  0  0  0  0
   36.6400   28.7900   44.1360 H   0  0  0  0  0  0  0  0  0  0  0  0
   36.5570   26.3670   43.5410 H   0  0  0  0  0  0  0  0  0  0  0  0
   40.1130   29.0840   41.6240 H   0  0  0  0  0  0  0  0  0  0  0  0
  1 24  1  0  0  0  0
  1  2  1  0  0  0  0
  2  3  1  0  0  0  0
  3  8  1  0  0  0  0
  3  4  2  0  0  0  0
  4  9  1  0  0  0  0
  5  4  1  0  0  0  0
  5 10  1  0  0  0  0
  6  5  2  0  0  0  0
  7  2  2  0  0  0  0
  7  6  1  0  0  0  0
 12  6  1  0  0  0  0
 12 11  2  0  0  0  0
 13 12  1  0  0  0  0
 14 13  1  0  0  0  0
 15 13  2  0  0  0  0
 15 20  1  0  0  0  0
 16 17  1  0  0  0  0
 16 15  1  0  0  0  0
 17 19  2  0  0  0  0
 18 17  1  0  0  0  0
 19 20  1  0  0  0  0
 20 21  2  0  0  0  0
 21 11  1  0  0  0  0
 22 16  1  0  0  0  0
 24 23  2  6  0  0  0
 24 27  1  0  0  0  0
 25 24  1  0  0  0  0
 25 26  1  0  0  0  0
 27 30  1  0  0  0  0
 28 31  1  1  0  0  0
 28 29  1  0  0  0  0
 28 37  1  0  0  0  0
 29 33  1  0  0  0  0
 29 32  1  0  0  0  0
 30 34  1  6  0  0  0
 30 28  1  0  0  0  0
 30 29  1  0  0  0  0
 35 41  1  0  0  0  0
 36 35  1  0  0  0  0
 36 42  1  0  0  0  0
 37 36  2  0  0  0  0
 38 39  2  0  0  0  0
 38 37  1  0  0  0  0
 39 40  1  0  0  0  0
 40 35  2  0  0  0  0
 43 39  1  0  0  0  0
M  END
>  <minimizedAffinity>
-5.89289713

$$$$
