
 OpenBabel03252503003D

 25 27  0  0  0  0  0  0  0  0999 V2000
   36.2980   28.4990   41.6940 C   0  0  0  0  0  0  0  0  0  0  0  0
   36.1900   27.9130   40.7570 H   0  0  0  0  0  0  0  0  0  0  0  0
   35.2970   28.8760   42.0010 H   0  0  0  0  0  0  0  0  0  0  0  0
   38.4750   29.7770   41.9000 C   0  0  0  0  0  3  0  0  0  0  0  0
   37.1660   29.6860   41.4940 C   0  0  0  0  0  0  0  0  0  0  0  0
   36.5740   30.7470   40.8530 C   0  0  0  0  0  0  0  0  0  0  0  0
   35.5390   30.7260   40.5120 H   0  0  0  0  0  0  0  0  0  0  0  0
   37.2380   31.9410   40.5820 C   0  0  0  0  0  0  0  0  0  0  0  0
   36.9060   33.0970   39.9890 N   0  0  0  0  0  0  0  0  0  0  0  0
   37.9950   33.9120   40.0190 C   0  0  0  0  0  0  0  0  0  0  0  0
   37.9460   34.9180   39.5840 H   0  0  0  0  0  0  0  0  0  0  0  0
   38.9970   33.2490   40.6330 N   0  0  0  0  0  0  0  0  0  0  0  0
   38.5510   32.0260   40.9910 C   0  0  0  0  0  0  0  0  0  0  0  0
   39.1280   30.9410   41.6360 C   0  0  0  0  0  3  0  0  0  0  0  0
   35.9740   33.3040   39.5870 H   0  0  0  0  0  0  0  0  0  0  0  0
   36.9320   27.3980   42.9670 S   0  0  0  0  0  0  0  0  0  0  0  0
   38.9820   26.0440   41.6580 C   0  0  0  0  0  0  0  0  0  0  0  0
   37.6770   25.9500   42.1790 C   0  0  0  0  0  0  0  0  0  0  0  0
   36.9500   24.7580   42.0950 C   0  0  0  0  0  0  0  0  0  0  0  0
   37.5780   23.7110   41.4860 N   0  0  0  0  0  0  0  0  0  0  0  0
   38.8150   23.8340   41.0040 C   0  0  0  0  0  0  0  0  0  0  0  0
   39.5220   24.9530   41.0720 N   0  0  0  0  0  0  0  0  0  0  0  0
   39.5010   26.9830   41.7470 H   0  0  0  0  0  0  0  0  0  0  0  0
   35.9450   24.7360   42.5120 H   0  0  0  0  0  0  0  0  0  0  0  0
   39.2400   22.9460   40.5340 H   0  0  0  0  0  0  0  0  0  0  0  0
  1  3  1  0  0  0  0
  1 16  1  0  0  0  0
  2  1  1  0  0  0  0
  5  1  1  0  0  0  0
  5  4  2  0  0  0  0
  6  5  1  0  0  0  0
  7  6  1  0  0  0  0
  8  6  2  0  0  0  0
  8 13  1  0  0  0  0
  9 10  1  0  0  0  0
  9  8  1  0  0  0  0
 10 12  2  0  0  0  0
 11 10  1  0  0  0  0
 12 13  1  0  0  0  0
 13 14  2  0  0  0  0
 14  4  1  0  0  0  0
 15  9  1  0  0  0  0
 17 23  1  0  0  0  0
 17 18  1  0  0  0  0
 18 16  1  0  0  0  0
 19 18  2  0  0  0  0
 19 24  1  0  0  0  0
 20 19  1  0  0  0  0
 21 22  1  0  0  0  0
 21 20  2  0  0  0  0
 22 17  2  0  0  0  0
 25 21  1  0  0  0  0
M  END
>  <minimizedAffinity>
-4.92374182

$$$$

 OpenBabel03252503003D

 25 27  0  0  0  0  0  0  0  0999 V2000
   37.0560   29.1040   41.8720 C   0  0  0  0  0  0  0  0  0  0  0  0
   37.1420   28.2760   41.1370 H   0  0  0  0  0  0  0  0  0  0  0  0
   35.9990   29.1760   42.2120 H   0  0  0  0  0  0  0  0  0  0  0  0
   36.5770   31.1420   40.4470 C   0  0  0  0  0  3  0  0  0  0  0  0
   37.4060   30.4110   41.2620 C   0  0  0  0  0  0  0  0  0  0  0  0
   38.6600   30.8830   41.5620 C   0  0  0  0  0  0  0  0  0  0  0  0
   39.3550   30.3420   42.2040 H   0  0  0  0  0  0  0  0  0  0  0  0
   39.1550   32.0910   41.0780 C   0  0  0  0  0  0  0  0  0  0  0  0
   40.3070   32.7670   41.2110 N   0  0  0  0  0  0  0  0  0  0  0  0
   40.2070   33.9140   40.4870 C   0  0  0  0  0  0  0  0  0  0  0  0
   41.0440   34.6230   40.4560 H   0  0  0  0  0  0  0  0  0  0  0  0
   38.9880   33.9400   39.9090 N   0  0  0  0  0  0  0  0  0  0  0  0
   38.3190   32.8210   40.2610 C   0  0  0  0  0  0  0  0  0  0  0  0
   37.0560   32.3230   39.9720 C   0  0  0  0  0  3  0  0  0  0  0  0
   41.1140   32.4440   41.7750 H   0  0  0  0  0  0  0  0  0  0  0  0
   38.1040   28.7060   43.2790 S   0  0  0  0  0  0  0  0  0  0  0  0
   37.8960   26.0640   42.4270 C   0  0  0  0  0  0  0  0  0  0  0  0
   38.6880   27.0010   43.1180 C   0  0  0  0  0  0  0  0  0  0  0  0
   39.9160   26.6340   43.6800 C   0  0  0  0  0  0  0  0  0  0  0  0
   40.2870   25.3320   43.5160 N   0  0  0  0  0  0  0  0  0  0  0  0
   39.5130   24.4700   42.8560 C   0  0  0  0  0  0  0  0  0  0  0  0
   38.3470   24.7950   42.3160 N   0  0  0  0  0  0  0  0  0  0  0  0
   36.9580   26.3950   42.0120 H   0  0  0  0  0  0  0  0  0  0  0  0
   40.4900   27.3950   44.2040 H   0  0  0  0  0  0  0  0  0  0  0  0
   39.8880   23.4500   42.7730 H   0  0  0  0  0  0  0  0  0  0  0  0
  1  3  1  0  0  0  0
  1 16  1  0  0  0  0
  2  1  1  0  0  0  0
  4  5  1  0  0  0  0
  5  6  2  0  0  0  0
  5  1  1  0  0  0  0
  6  7  1  0  0  0  0
  8  9  1  0  0  0  0
  8  6  1  0  0  0  0
  9 15  1  0  0  0  0
 10  9  1  0  0  0  0
 11 10  1  0  0  0  0
 12 13  1  0  0  0  0
 12 10  2  0  0  0  0
 13  8  2  0  0  0  0
 14 13  1  0  0  0  0
 14  4  2  0  0  0  0
 17 18  1  0  0  0  0
 18 16  1  0  0  0  0
 18 19  2  0  0  0  0
 19 24  1  0  0  0  0
 20 19  1  0  0  0  0
 21 20  2  0  0  0  0
 22 17  2  0  0  0  0
 22 21  1  0  0  0  0
 23 17  1  0  0  0  0
 25 21  1  0  0  0  0
M  END
>  <minimizedAffinity>
-4.86446238

$$$$

 OpenBabel03252503003D

 25 27  0  0  0  0  0  0  0  0999 V2000
   35.7990   29.4310   40.6130 C   0  0  0  0  0  0  0  0  0  0  0  0
   35.7080   30.2270   41.3830 H   0  0  0  0  0  0  0  0  0  0  0  0
   34.7890   29.2160   40.1970 H   0  0  0  0  0  0  0  0  0  0  0  0
   36.5380   27.9580   42.5370 C   0  0  0  0  0  3  0  0  0  0  0  0
   36.3050   28.1640   41.1990 C   0  0  0  0  0  0  0  0  0  0  0  0
   36.5440   27.1540   40.3000 C   0  0  0  0  0  0  0  0  0  0  0  0
   36.3760   27.2670   39.2290 H   0  0  0  0  0  0  0  0  0  0  0  0
   37.0200   25.9000   40.6720 C   0  0  0  0  0  0  0  0  0  0  0  0
   37.3300   24.7700   40.0180 N   0  0  0  0  0  0  0  0  0  0  0  0
   37.7540   23.8570   40.9330 C   0  0  0  0  0  0  0  0  0  0  0  0
   38.0600   22.8540   40.6130 H   0  0  0  0  0  0  0  0  0  0  0  0
   37.7030   24.4330   42.1530 N   0  0  0  0  0  0  0  0  0  0  0  0
   37.2510   25.6980   42.0160 C   0  0  0  0  0  0  0  0  0  0  0  0
   37.0020   26.7330   42.9060 C   0  0  0  0  0  3  0  0  0  0  0  0
   37.2490   24.6450   38.9930 H   0  0  0  0  0  0  0  0  0  0  0  0
   36.8630   30.0470   39.3000 S   0  0  0  0  0  0  0  0  0  0  0  0
   37.1800   32.8110   39.4040 C   0  0  0  0  0  0  0  0  0  0  0  0
   37.6660   31.5700   39.8570 C   0  0  0  0  0  0  0  0  0  0  0  0
   38.7590   31.4960   40.7280 C   0  0  0  0  0  0  0  0  0  0  0  0
   39.3110   32.6870   41.1030 N   0  0  0  0  0  0  0  0  0  0  0  0
   38.8250   33.8440   40.6550 C   0  0  0  0  0  0  0  0  0  0  0  0
   37.7920   33.9380   39.8300 N   0  0  0  0  0  0  0  0  0  0  0  0
   36.3350   32.8150   38.7350 H   0  0  0  0  0  0  0  0  0  0  0  0
   39.0970   30.5140   41.0490 H   0  0  0  0  0  0  0  0  0  0  0  0
   39.3270   34.7470   41.0060 H   0  0  0  0  0  0  0  0  0  0  0  0
  1  5  1  0  0  0  0
  1  2  1  0  0  0  0
  3  1  1  0  0  0  0
  4 14  1  0  0  0  0
  5  4  2  0  0  0  0
  6  8  2  0  0  0  0
  6  5  1  0  0  0  0
  7  6  1  0  0  0  0
  8 13  1  0  0  0  0
  9  8  1  0  0  0  0
  9 10  1  0  0  0  0
 10 12  2  0  0  0  0
 11 10  1  0  0  0  0
 13 12  1  0  0  0  0
 13 14  2  0  0  0  0
 15  9  1  0  0  0  0
 16 18  1  0  0  0  0
 16  1  1  0  0  0  0
 17 22  2  0  0  0  0
 17 18  1  0  0  0  0
 18 19  2  0  0  0  0
 19 24  1  0  0  0  0
 19 20  1  0  0  0  0
 21 25  1  0  0  0  0
 21 20  2  0  0  0  0
 22 21  1  0  0  0  0
 23 17  1  0  0  0  0
M  END
>  <minimizedAffinity>
-4.64498472

$$$$

 OpenBabel03252503003D

 25 27  0  0  0  0  0  0  0  0999 V2000
   37.6450   29.2510   42.9690 C   0  0  0  0  0  0  0  0  0  0  0  0
   38.4940   29.9120   43.2480 H   0  0  0  0  0  0  0  0  0  0  0  0
   36.8860   29.2780   43.7830 H   0  0  0  0  0  0  0  0  0  0  0  0
   39.2020   27.3030   43.4140 C   0  0  0  0  0  3  0  0  0  0  0  0
   38.0810   27.8390   42.8290 C   0  0  0  0  0  0  0  0  0  0  0  0
   37.2740   27.0500   42.0470 C   0  0  0  0  0  0  0  0  0  0  0  0
   36.3740   27.4260   41.5600 H   0  0  0  0  0  0  0  0  0  0  0  0
   37.5300   25.7020   41.8050 C   0  0  0  0  0  0  0  0  0  0  0  0
   36.9240   24.7330   41.1040 N   0  0  0  0  0  0  0  0  0  0  0  0
   37.6550   23.5930   41.2430 C   0  0  0  0  0  0  0  0  0  0  0  0
   37.3370   22.6680   40.7480 H   0  0  0  0  0  0  0  0  0  0  0  0
   38.7120   23.8700   42.0360 N   0  0  0  0  0  0  0  0  0  0  0  0
   38.6550   25.1690   42.3960 C   0  0  0  0  0  0  0  0  0  0  0  0
   39.4550   25.9870   43.1820 C   0  0  0  0  0  3  0  0  0  0  0  0
   36.0510   24.8600   40.5590 H   0  0  0  0  0  0  0  0  0  0  0  0
   36.9150   29.8930   41.4560 S   0  0  0  0  0  0  0  0  0  0  0  0
   39.1800   31.5060   41.3230 C   0  0  0  0  0  0  0  0  0  0  0  0
   37.8350   31.3610   40.9330 C   0  0  0  0  0  0  0  0  0  0  0  0
   37.2010   32.3320   40.1490 C   0  0  0  0  0  0  0  0  0  0  0  0
   37.9600   33.4080   39.7950 N   0  0  0  0  0  0  0  0  0  0  0  0
   39.2310   33.5150   40.1820 C   0  0  0  0  0  0  0  0  0  0  0  0
   39.8520   32.6080   40.9230 N   0  0  0  0  0  0  0  0  0  0  0  0
   39.6240   30.7310   41.9260 H   0  0  0  0  0  0  0  0  0  0  0  0
   36.1600   32.1730   39.8750 H   0  0  0  0  0  0  0  0  0  0  0  0
   39.7630   34.4090   39.8520 H   0  0  0  0  0  0  0  0  0  0  0  0
  1  2  1  0  0  0  0
  1  3  1  0  0  0  0
  5  1  1  0  0  0  0
  5  4  2  0  0  0  0
  6  5  1  0  0  0  0
  7  6  1  0  0  0  0
  8  6  2  0  0  0  0
  8 13  1  0  0  0  0
  9 10  1  0  0  0  0
  9  8  1  0  0  0  0
 10 12  2  0  0  0  0
 11 10  1  0  0  0  0
 12 13  1  0  0  0  0
 13 14  2  0  0  0  0
 14  4  1  0  0  0  0
 15  9  1  0  0  0  0
 16  1  1  0  0  0  0
 17 23  1  0  0  0  0
 18 17  1  0  0  0  0
 18 16  1  0  0  0  0
 19 18  2  0  0  0  0
 20 19  1  0  0  0  0
 20 21  2  0  0  0  0
 21 22  1  0  0  0  0
 22 17  2  0  0  0  0
 24 19  1  0  0  0  0
 25 21  1  0  0  0  0
M  END
>  <minimizedAffinity>
-4.6371336

$$$$

 OpenBabel03252503003D

 25 27  0  0  0  0  0  0  0  0999 V2000
   39.2580   30.0240   42.9300 C   0  0  0  0  0  0  0  0  0  0  0  0
   40.0930   29.9550   43.6600 H   0  0  0  0  0  0  0  0  0  0  0  0
   38.5420   30.8020   43.2740 H   0  0  0  0  0  0  0  0  0  0  0  0
   37.3120   28.4980   43.4790 C   0  0  0  0  0  3  0  0  0  0  0  0
   38.5050   28.7470   42.8450 C   0  0  0  0  0  0  0  0  0  0  0  0
   39.0810   27.7740   42.0670 C   0  0  0  0  0  0  0  0  0  0  0  0
   40.0260   27.9210   41.5440 H   0  0  0  0  0  0  0  0  0  0  0  0
   38.5150   26.5170   41.8750 C   0  0  0  0  0  0  0  0  0  0  0  0
   38.8560   25.4170   41.1870 N   0  0  0  0  0  0  0  0  0  0  0  0
   37.8890   24.4810   41.3830 C   0  0  0  0  0  0  0  0  0  0  0  0
   37.9680   23.4960   40.9070 H   0  0  0  0  0  0  0  0  0  0  0  0
   36.9510   25.0130   42.1950 N   0  0  0  0  0  0  0  0  0  0  0  0
   37.3170   26.2730   42.5120 C   0  0  0  0  0  0  0  0  0  0  0  0
   36.7540   27.2710   43.2930 C   0  0  0  0  0  3  0  0  0  0  0  0
   39.7160   25.3270   40.6140 H   0  0  0  0  0  0  0  0  0  0  0  0
   39.9480   30.5140   41.3430 S   0  0  0  0  0  0  0  0  0  0  0  0
   37.7410   31.4000   39.8950 C   0  0  0  0  0  0  0  0  0  0  0  0
   38.8930   31.7870   40.6080 C   0  0  0  0  0  0  0  0  0  0  0  0
   39.2320   33.1360   40.7540 C   0  0  0  0  0  0  0  0  0  0  0  0
   38.3880   34.0360   40.1730 N   0  0  0  0  0  0  0  0  0  0  0  0
   37.3060   33.6350   39.5050 C   0  0  0  0  0  0  0  0  0  0  0  0
   36.9650   32.3630   39.3530 N   0  0  0  0  0  0  0  0  0  0  0  0
   37.5230   30.3480   39.8100 H   0  0  0  0  0  0  0  0  0  0  0  0
   40.1320   33.3830   41.3130 H   0  0  0  0  0  0  0  0  0  0  0  0
   36.6870   34.4220   39.0720 H   0  0  0  0  0  0  0  0  0  0  0  0
  1  3  1  0  0  0  0
  1  2  1  0  0  0  0
  5  1  1  0  0  0  0
  5  4  2  0  0  0  0
  6  5  1  0  0  0  0
  7  6  1  0  0  0  0
  8  6  2  0  0  0  0
  8 13  1  0  0  0  0
  9 10  1  0  0  0  0
  9  8  1  0  0  0  0
 10 12  2  0  0  0  0
 11 10  1  0  0  0  0
 12 13  1  0  0  0  0
 13 14  2  0  0  0  0
 14  4  1  0  0  0  0
 15  9  1  0  0  0  0
 16  1  1  0  0  0  0
 17 18  1  0  0  0  0
 18 19  2  0  0  0  0
 18 16  1  0  0  0  0
 19 24  1  0  0  0  0
 20 19  1  0  0  0  0
 21 20  2  0  0  0  0
 22 21  1  0  0  0  0
 22 17  2  0  0  0  0
 23 17  1  0  0  0  0
 25 21  1  0  0  0  0
M  END
>  <minimizedAffinity>
-4.63335371

$$$$

 OpenBabel03252503003D

 25 27  0  0  0  0  0  0  0  0999 V2000
   36.4470   30.7800   41.0510 C   0  0  0  0  0  0  0  0  0  0  0  0
   36.7640   31.6280   41.6930 H   0  0  0  0  0  0  0  0  0  0  0  0
   35.3350   30.7220   41.0540 H   0  0  0  0  0  0  0  0  0  0  0  0
   36.2530   28.3030   41.5420 C   0  0  0  0  0  3  0  0  0  0  0  0
   36.9510   29.4850   41.5730 C   0  0  0  0  0  0  0  0  0  0  0  0
   38.2100   29.5210   42.1180 C   0  0  0  0  0  0  0  0  0  0  0  0
   38.8050   30.4330   42.1680 H   0  0  0  0  0  0  0  0  0  0  0  0
   38.8400   28.4010   42.6550 C   0  0  0  0  0  0  0  0  0  0  0  0
   40.0290   28.1660   43.2320 N   0  0  0  0  0  0  0  0  0  0  0  0
   40.0820   26.8470   43.5620 C   0  0  0  0  0  0  0  0  0  0  0  0
   40.9740   26.4350   44.0500 H   0  0  0  0  0  0  0  0  0  0  0  0
   38.9200   26.2740   43.1840 N   0  0  0  0  0  0  0  0  0  0  0  0
   38.1360   27.2170   42.6200 C   0  0  0  0  0  0  0  0  0  0  0  0
   36.8640   27.2050   42.0640 C   0  0  0  0  0  3  0  0  0  0  0  0
   40.7580   28.8860   43.3850 H   0  0  0  0  0  0  0  0  0  0  0  0
   37.0170   31.1080   39.3770 S   0  0  0  0  0  0  0  0  0  0  0  0
   38.3940   33.3160   40.3660 C   0  0  0  0  0  0  0  0  0  0  0  0
   38.4170   32.2520   39.4440 C   0  0  0  0  0  0  0  0  0  0  0  0
   39.5030   32.0680   38.5810 C   0  0  0  0  0  0  0  0  0  0  0  0
   40.5200   32.9710   38.6920 N   0  0  0  0  0  0  0  0  0  0  0  0
   40.4660   33.9670   39.5760 C   0  0  0  0  0  0  0  0  0  0  0  0
   39.4480   34.1610   40.4020 N   0  0  0  0  0  0  0  0  0  0  0  0
   37.5360   33.4160   41.0090 H   0  0  0  0  0  0  0  0  0  0  0  0
   39.4730   31.2310   37.8860 H   0  0  0  0  0  0  0  0  0  0  0  0
   41.3220   34.6420   39.5950 H   0  0  0  0  0  0  0  0  0  0  0  0
  1  3  1  0  0  0  0
  1  5  1  0  0  0  0
  1  2  1  0  0  0  0
  4  5  2  0  0  0  0
  4 14  1  0  0  0  0
  5  6  1  0  0  0  0
  6  7  1  0  0  0  0
  6  8  2  0  0  0  0
  8  9  1  0  0  0  0
  9 15  1  0  0  0  0
  9 10  1  0  0  0  0
 10 11  1  0  0  0  0
 12 10  2  0  0  0  0
 13  8  1  0  0  0  0
 13 12  1  0  0  0  0
 14 13  2  0  0  0  0
 16 18  1  0  0  0  0
 16  1  1  0  0  0  0
 17 22  1  0  0  0  0
 17 23  1  0  0  0  0
 18 17  2  0  0  0  0
 19 20  2  0  0  0  0
 19 18  1  0  0  0  0
 20 21  1  0  0  0  0
 21 25  1  0  0  0  0
 21 22  2  0  0  0  0
 24 19  1  0  0  0  0
M  END
>  <minimizedAffinity>
-4.63175154

$$$$

 OpenBabel03252503003D

 25 27  0  0  0  0  0  0  0  0999 V2000
   35.9590   28.7400   41.0590 C   0  0  0  0  0  0  0  0  0  0  0  0
   34.9490   28.5190   41.4650 H   0  0  0  0  0  0  0  0  0  0  0  0
   36.0250   28.3390   40.0230 H   0  0  0  0  0  0  0  0  0  0  0  0
   37.7970   28.6900   42.8010 C   0  0  0  0  0  3  0  0  0  0  0  0
   37.0210   28.0710   41.8520 C   0  0  0  0  0  0  0  0  0  0  0  0
   37.2050   26.7380   41.5820 C   0  0  0  0  0  0  0  0  0  0  0  0
   36.6160   26.2000   40.8390 H   0  0  0  0  0  0  0  0  0  0  0  0
   38.1560   25.9530   42.2300 C   0  0  0  0  0  0  0  0  0  0  0  0
   38.5320   24.6670   42.1610 N   0  0  0  0  0  0  0  0  0  0  0  0
   39.5370   24.4740   43.0580 C   0  0  0  0  0  0  0  0  0  0  0  0
   39.9980   23.4850   43.1680 H   0  0  0  0  0  0  0  0  0  0  0  0
   39.7750   25.6490   43.6780 N   0  0  0  0  0  0  0  0  0  0  0  0
   38.9310   26.5790   43.1820 C   0  0  0  0  0  0  0  0  0  0  0  0
   38.7270   27.9280   43.4370 C   0  0  0  0  0  3  0  0  0  0  0  0
   38.1110   23.9670   41.5240 H   0  0  0  0  0  0  0  0  0  0  0  0
   36.1620   30.5270   41.0180 S   0  0  0  0  0  0  0  0  0  0  0  0
   38.4910   31.5430   39.8800 C   0  0  0  0  0  0  0  0  0  0  0  0
   37.2310   30.9680   39.6260 C   0  0  0  0  0  0  0  0  0  0  0  0
   36.7950   30.7330   38.3180 C   0  0  0  0  0  0  0  0  0  0  0  0
   37.6560   31.0920   37.3230 N   0  0  0  0  0  0  0  0  0  0  0  0
   38.8420   31.6350   37.5980 C   0  0  0  0  0  0  0  0  0  0  0  0
   39.2760   31.8670   38.8290 N   0  0  0  0  0  0  0  0  0  0  0  0
   38.7810   31.7040   40.9050 H   0  0  0  0  0  0  0  0  0  0  0  0
   35.8130   30.2860   38.1740 H   0  0  0  0  0  0  0  0  0  0  0  0
   39.4660   31.8910   36.7410 H   0  0  0  0  0  0  0  0  0  0  0  0
  1  2  1  0  0  0  0
  1  5  1  0  0  0  0
  3  1  1  0  0  0  0
  4 14  1  0  0  0  0
  5  4  2  0  0  0  0
  6  5  1  0  0  0  0
  6  8  2  0  0  0  0
  7  6  1  0  0  0  0
  8 13  1  0  0  0  0
  9  8  1  0  0  0  0
  9 10  1  0  0  0  0
 10 11  1  0  0  0  0
 10 12  2  0  0  0  0
 13 14  2  0  0  0  0
 13 12  1  0  0  0  0
 15  9  1  0  0  0  0
 16  1  1  0  0  0  0
 17 23  1  0  0  0  0
 18 17  1  0  0  0  0
 18 16  1  0  0  0  0
 19 18  2  0  0  0  0
 20 21  2  0  0  0  0
 20 19  1  0  0  0  0
 21 22  1  0  0  0  0
 22 17  2  0  0  0  0
 24 19  1  0  0  0  0
 25 21  1  0  0  0  0
M  END
>  <minimizedAffinity>
-4.60185289

$$$$

 OpenBabel03252503003D

 25 27  0  0  0  0  0  0  0  0999 V2000
   36.7720   27.4100   42.8100 C   0  0  0  0  0  0  0  0  0  0  0  0
   36.5890   26.9090   43.7840 H   0  0  0  0  0  0  0  0  0  0  0  0
   35.8750   28.0110   42.5410 H   0  0  0  0  0  0  0  0  0  0  0  0
   36.7490   26.6680   40.3890 C   0  0  0  0  0  3  0  0  0  0  0  0
   36.9750   26.4230   41.7210 C   0  0  0  0  0  0  0  0  0  0  0  0
   37.4230   25.1880   42.1220 C   0  0  0  0  0  0  0  0  0  0  0  0
   37.6170   24.9420   43.1660 H   0  0  0  0  0  0  0  0  0  0  0  0
   37.6670   24.1410   41.2360 C   0  0  0  0  0  0  0  0  0  0  0  0
   38.0940   22.8750   41.3580 N   0  0  0  0  0  0  0  0  0  0  0  0
   38.1380   22.3250   40.1140 C   0  0  0  0  0  0  0  0  0  0  0  0
   38.4620   21.2860   39.9800 H   0  0  0  0  0  0  0  0  0  0  0  0
   37.7360   23.2610   39.2280 N   0  0  0  0  0  0  0  0  0  0  0  0
   37.4390   24.3940   39.9000 C   0  0  0  0  0  0  0  0  0  0  0  0
   36.9880   25.6490   39.5190 C   0  0  0  0  0  3  0  0  0  0  0  0
   38.3400   22.4230   42.2570 H   0  0  0  0  0  0  0  0  0  0  0  0
   38.1840   28.5070   43.0080 S   0  0  0  0  0  0  0  0  0  0  0  0
   39.0280   30.8390   41.7420 C   0  0  0  0  0  0  0  0  0  0  0  0
   37.9420   29.9730   41.9740 C   0  0  0  0  0  0  0  0  0  0  0  0
   36.6830   30.2280   41.4210 C   0  0  0  0  0  0  0  0  0  0  0  0
   36.5800   31.3510   40.6540 N   0  0  0  0  0  0  0  0  0  0  0  0
   37.6280   32.1500   40.4540 C   0  0  0  0  0  0  0  0  0  0  0  0
   38.8290   31.9280   40.9680 N   0  0  0  0  0  0  0  0  0  0  0  0
   39.9780   30.5980   42.1900 H   0  0  0  0  0  0  0  0  0  0  0  0
   35.8760   29.5290   41.6310 H   0  0  0  0  0  0  0  0  0  0  0  0
   37.4550   33.0260   39.8270 H   0  0  0  0  0  0  0  0  0  0  0  0
  1 16  1  0  0  0  0
  1  2  1  0  0  0  0
  3  1  1  0  0  0  0
  4  5  1  0  0  0  0
  5  6  2  0  0  0  0
  5  1  1  0  0  0  0
  6  7  1  0  0  0  0
  8  9  1  0  0  0  0
  8  6  1  0  0  0  0
  9 15  1  0  0  0  0
 10  9  1  0  0  0  0
 11 10  1  0  0  0  0
 12 13  1  0  0  0  0
 12 10  2  0  0  0  0
 13  8  2  0  0  0  0
 14 13  1  0  0  0  0
 14  4  2  0  0  0  0
 17 18  1  0  0  0  0
 17 23  1  0  0  0  0
 18 16  1  0  0  0  0
 19 24  1  0  0  0  0
 19 18  2  0  0  0  0
 20 19  1  0  0  0  0
 21 20  2  0  0  0  0
 21 22  1  0  0  0  0
 22 17  2  0  0  0  0
 25 21  1  0  0  0  0
M  END
>  <minimizedAffinity>
-4.59127331

$$$$

 OpenBabel03252503003D

 25 27  0  0  0  0  0  0  0  0999 V2000
   38.2550   28.6070   42.9540 C   0  0  0  0  0  0  0  0  0  0  0  0
   38.4710   28.8830   44.0080 H   0  0  0  0  0  0  0  0  0  0  0  0
   39.1500   28.1050   42.5230 H   0  0  0  0  0  0  0  0  0  0  0  0
   36.8220   30.0430   41.4370 C   0  0  0  0  0  3  0  0  0  0  0  0
   37.9890   29.8070   42.1210 C   0  0  0  0  0  0  0  0  0  0  0  0
   39.0130   30.7200   42.0600 C   0  0  0  0  0  0  0  0  0  0  0  0
   39.9590   30.5800   42.5840 H   0  0  0  0  0  0  0  0  0  0  0  0
   38.9380   31.9020   41.3280 C   0  0  0  0  0  0  0  0  0  0  0  0
   39.7650   32.9340   41.1050 N   0  0  0  0  0  0  0  0  0  0  0  0
   39.1270   33.8150   40.2870 C   0  0  0  0  0  0  0  0  0  0  0  0
   39.6260   34.7400   39.9740 H   0  0  0  0  0  0  0  0  0  0  0  0
   37.9030   33.3170   40.0100 N   0  0  0  0  0  0  0  0  0  0  0  0
   37.7640   32.1340   40.6440 C   0  0  0  0  0  0  0  0  0  0  0  0
   36.7430   31.1970   40.7210 C   0  0  0  0  0  3  0  0  0  0  0  0
   40.7190   33.0170   41.5010 H   0  0  0  0  0  0  0  0  0  0  0  0
   36.8720   27.4570   42.9530 S   0  0  0  0  0  0  0  0  0  0  0  0
   37.0220   24.7920   42.1610 C   0  0  0  0  0  0  0  0  0  0  0  0
   37.2070   26.1310   41.7680 C   0  0  0  0  0  0  0  0  0  0  0  0
   37.6450   26.4520   40.4780 C   0  0  0  0  0  0  0  0  0  0  0  0
   37.8760   25.3980   39.6420 N   0  0  0  0  0  0  0  0  0  0  0  0
   37.6910   24.1420   40.0470 C   0  0  0  0  0  0  0  0  0  0  0  0
   37.2760   23.8150   41.2630 N   0  0  0  0  0  0  0  0  0  0  0  0
   36.6820   24.5970   43.1650 H   0  0  0  0  0  0  0  0  0  0  0  0
   37.7730   27.5010   40.2230 H   0  0  0  0  0  0  0  0  0  0  0  0
   37.8990   23.3630   39.3130 H   0  0  0  0  0  0  0  0  0  0  0  0
  1  2  1  0  0  0  0
  3  1  1  0  0  0  0
  4  5  1  0  0  0  0
  5  1  1  0  0  0  0
  6  5  2  0  0  0  0
  6  7  1  0  0  0  0
  8  6  1  0  0  0  0
  9  8  1  0  0  0  0
  9 15  1  0  0  0  0
 10  9  1  0  0  0  0
 11 10  1  0  0  0  0
 12 10  2  0  0  0  0
 12 13  1  0  0  0  0
 13 14  1  0  0  0  0
 13  8  2  0  0  0  0
 14  4  2  0  0  0  0
 16  1  1  0  0  0  0
 17 23  1  0  0  0  0
 18 17  1  0  0  0  0
 18 16  1  0  0  0  0
 19 18  2  0  0  0  0
 20 21  2  0  0  0  0
 20 19  1  0  0  0  0
 21 22  1  0  0  0  0
 22 17  2  0  0  0  0
 24 19  1  0  0  0  0
 25 21  1  0  0  0  0
M  END
>  <minimizedAffinity>
-4.58998346

$$$$
