
 OpenBabel03252503343D

 25 27  0  0  0  0  0  0  0  0999 V2000
   46.4500   33.5330   41.1520 C   0  0  0  0  0  0  0  0  0  0  0  0
   45.2810   33.0970   41.3380 O   0  0  0  0  0  0  0  0  0  0  0  0
   46.8930   34.4230   42.1630 N   0  0  0  0  0  0  0  0  0  0  0  0
   47.8120   34.9100   42.0970 H   0  0  0  0  0  0  0  0  0  0  0  0
   48.5020   32.5140   40.1010 C   0  0  0  0  0  3  0  0  0  0  0  0
   47.2950   33.1770   40.0160 C   0  0  0  0  0  0  0  0  0  0  0  0
   46.8560   33.5300   38.7500 C   0  0  0  0  0  0  0  0  0  0  0  0
   45.9330   34.0520   38.5240 H   0  0  0  0  0  0  0  0  0  0  0  0
   47.5990   33.2290   37.6090 C   0  0  0  0  0  0  0  0  0  0  0  0
   47.4840   33.4110   36.2860 N   0  0  0  0  0  0  0  0  0  0  0  0
   48.5490   32.8920   35.6510 C   0  0  0  0  0  0  0  0  0  0  0  0
   48.7680   32.8680   34.5860 H   0  0  0  0  0  0  0  0  0  0  0  0
   49.4010   32.3470   36.5520 N   0  0  0  0  0  0  0  0  0  0  0  0
   48.8030   32.5640   37.7380 C   0  0  0  0  0  0  0  0  0  0  0  0
   49.2500   32.2080   38.9890 C   0  0  0  0  0  3  0  0  0  0  0  0
   46.6710   33.8950   35.8310 H   0  0  0  0  0  0  0  0  0  0  0  0
   44.5380   36.0850   44.5080 C   0  0  0  0  0  0  0  0  0  0  0  0
   45.2930   35.8330   43.3420 C   0  0  0  0  0  0  0  0  0  0  0  0
   46.1200   34.7060   43.3200 C   0  0  0  0  0  0  0  0  0  0  0  0
   46.1740   33.9020   44.4000 N   0  0  0  0  0  0  0  0  0  0  0  0
   45.4290   34.1730   45.5180 C   0  0  0  0  0  0  0  0  0  0  0  0
   44.6300   35.2530   45.5490 N   0  0  0  0  0  0  0  0  0  0  0  0
   43.8880   36.9470   44.5580 H   0  0  0  0  0  0  0  0  0  0  0  0
   45.2090   36.5170   42.5010 H   0  0  0  0  0  0  0  0  0  0  0  0
   45.5490   33.4620   46.3220 H   0  0  0  0  0  0  0  0  0  0  0  0
  1  2  2  0  0  0  0
  1  3  1  0  0  0  0
  3 19  1  0  0  0  0
  4  3  1  0  0  0  0
  6  5  1  0  0  0  0
  6  1  1  0  0  0  0
  7  6  2  0  0  0  0
  8  7  1  0  0  0  0
  9 14  2  0  0  0  0
  9  7  1  0  0  0  0
 10  9  1  0  0  0  0
 11 10  1  0  0  0  0
 11 13  2  0  0  0  0
 12 11  1  0  0  0  0
 13 14  1  0  0  0  0
 14 15  1  0  0  0  0
 15  5  2  0  0  0  0
 16 10  1  0  0  0  0
 17 23  1  0  0  0  0
 17 22  1  0  0  0  0
 18 17  2  0  0  0  0
 19 18  1  0  0  0  0
 19 20  2  0  0  0  0
 20 21  1  0  0  0  0
 21 22  2  0  0  0  0
 21 25  1  0  0  0  0
 24 18  1  0  0  0  0
M  END
>  <minimizedAffinity>
-4.75604725

>  <minimizedRMSD>
1.19951546

$$$$
