
 OpenBabel03242517143D

 26 28  0  0  0  0  0  0  0  0999 V2000
   37.3460   28.1580   43.5870 C   0  0  0  0  0  0  0  0  0  0  0  0
   36.4690   28.4760   44.2030 H   0  0  0  0  0  0  0  0  0  0  0  0
   38.1480   27.7830   44.2490 H   0  0  0  0  0  0  0  0  0  0  0  0
   39.1020   29.7930   42.7960 C   0  0  0  0  0  3  0  0  0  0  0  0
   37.7950   29.2970   42.7500 C   0  0  0  0  0  0  0  0  0  0  0  0
   36.8840   29.8770   41.9040 C   0  0  0  0  0  0  0  0  0  0  0  0
   35.8670   29.5020   41.8590 H   0  0  0  0  0  0  0  0  0  0  0  0
   37.2020   30.9510   41.0750 C   0  0  0  0  0  0  0  0  0  0  0  0
   36.5240   31.6880   40.1750 N   0  0  0  0  0  0  0  0  0  0  0  0
   37.3820   32.6070   39.6830 C   0  0  0  0  0  0  0  0  0  0  0  0
   37.0810   33.3360   38.9310 H   0  0  0  0  0  0  0  0  0  0  0  0
   38.5890   32.4460   40.2700 N   0  0  0  0  0  0  0  0  0  0  0  0
   38.5040   31.4380   41.1260 C   0  0  0  0  0  0  0  0  0  0  0  0
   39.4150   30.8510   41.9800 C   0  0  0  0  0  3  0  0  0  0  0  0
   35.5210   31.4820   39.9870 H   0  0  0  0  0  0  0  0  0  0  0  0
   37.7600   26.2550   42.0770 C   0  0  0  0  0  3  0  0  0  0  0  0
   36.9140   27.0080   42.7350 C   0  0  0  0  0  3  0  0  0  0  0  0
   36.6290   25.2690   40.1100 C   0  0  0  0  0  0  0  0  0  0  0  0
   37.4430   25.1240   41.2300 C   0  0  0  0  0  0  0  0  0  0  0  0
   37.9450   23.8640   41.5120 C   0  0  0  0  0  0  0  0  0  0  0  0
   37.6240   22.8200   40.6880 N   0  0  0  0  0  0  0  0  0  0  0  0
   36.8260   22.9980   39.6040 C   0  0  0  0  0  0  0  0  0  0  0  0
   36.3320   24.2200   39.3210 N   0  0  0  0  0  0  0  0  0  0  0  0
   36.2520   26.2730   39.9190 H   0  0  0  0  0  0  0  0  0  0  0  0
   38.5810   23.6890   42.3630 H   0  0  0  0  0  0  0  0  0  0  0  0
   36.5570   22.1900   38.9360 H   0  0  0  0  0  0  0  0  0  0  0  0
  1  2  1  0  0  0  0
  1  3  1  0  0  0  0
  5  4  1  0  0  0  0
  5  1  1  0  0  0  0
  6  5  2  0  0  0  0
  7  6  1  0  0  0  0
  8 13  2  0  0  0  0
  8  6  1  0  0  0  0
  9  8  1  0  0  0  0
 10  9  1  0  0  0  0
 10 12  2  0  0  0  0
 11 10  1  0  0  0  0
 12 13  1  0  0  0  0
 13 14  1  0  0  0  0
 14  4  2  0  0  0  0
 15  9  1  0  0  0  0
 16 17  2  0  0  0  0
 17  1  1  0  0  0  0
 18 19  1  0  0  0  0
 19 20  2  0  0  0  0
 19 16  1  0  0  0  0
 20 25  1  0  0  0  0
 21 20  1  0  0  0  0
 22 21  2  0  0  0  0
 23 22  1  0  0  0  0
 23 18  2  0  0  0  0
 24 18  1  0  0  0  0
 26 22  1  0  0  0  0
M  END
>  <minimizedAffinity>
-5.17539597

$$$$

 OpenBabel03242517143D

 26 28  0  0  0  0  0  0  0  0999 V2000
   35.4280   29.7600   40.1070 C   0  0  0  0  0  0  0  0  0  0  0  0
   34.9520   29.3840   39.1690 H   0  0  0  0  0  0  0  0  0  0  0  0
   34.6620   30.2270   40.7520 H   0  0  0  0  0  0  0  0  0  0  0  0
   37.0400   30.8010   38.4630 C   0  0  0  0  0  3  0  0  0  0  0  0
   36.5190   30.7030   39.7570 C   0  0  0  0  0  0  0  0  0  0  0  0
   37.0270   31.5010   40.7510 C   0  0  0  0  0  0  0  0  0  0  0  0
   36.6320   31.4350   41.7590 H   0  0  0  0  0  0  0  0  0  0  0  0
   38.0510   32.4200   40.5300 C   0  0  0  0  0  0  0  0  0  0  0  0
   38.7170   33.3010   41.2990 N   0  0  0  0  0  0  0  0  0  0  0  0
   39.6180   33.9220   40.5080 C   0  0  0  0  0  0  0  0  0  0  0  0
   40.2910   34.6900   40.8900 H   0  0  0  0  0  0  0  0  0  0  0  0
   39.5170   33.4330   39.2520 N   0  0  0  0  0  0  0  0  0  0  0  0
   38.5640   32.5110   39.2400 C   0  0  0  0  0  0  0  0  0  0  0  0
   38.0500   31.7050   38.2460 C   0  0  0  0  0  3  0  0  0  0  0  0
   38.4810   33.3890   42.3090 H   0  0  0  0  0  0  0  0  0  0  0  0
   36.5360   27.5630   40.2580 C   0  0  0  0  0  3  0  0  0  0  0  0
   35.9620   28.5800   40.8540 C   0  0  0  0  0  3  0  0  0  0  0  0
   36.7670   25.1060   40.4240 C   0  0  0  0  0  0  0  0  0  0  0  0
   37.0820   26.3800   40.8890 C   0  0  0  0  0  0  0  0  0  0  0  0
   37.9350   26.4850   41.9750 C   0  0  0  0  0  0  0  0  0  0  0  0
   38.4320   25.3430   42.5440 N   0  0  0  0  0  0  0  0  0  0  0  0
   38.1030   24.1170   42.0640 C   0  0  0  0  0  0  0  0  0  0  0  0
   37.2730   24.0040   41.0080 N   0  0  0  0  0  0  0  0  0  0  0  0
   36.0940   25.0610   39.5690 H   0  0  0  0  0  0  0  0  0  0  0  0
   38.2160   27.4420   42.3800 H   0  0  0  0  0  0  0  0  0  0  0  0
   38.4820   23.1990   42.4950 H   0  0  0  0  0  0  0  0  0  0  0  0
  1  3  1  0  0  0  0
  1 17  1  0  0  0  0
  2  1  1  0  0  0  0
  4  5  1  0  0  0  0
  5  1  1  0  0  0  0
  5  6  2  0  0  0  0
  6  7  1  0  0  0  0
  8  6  1  0  0  0  0
  8  9  1  0  0  0  0
  9 15  1  0  0  0  0
 10 11  1  0  0  0  0
 10  9  1  0  0  0  0
 12 10  2  0  0  0  0
 13 12  1  0  0  0  0
 13  8  2  0  0  0  0
 14  4  2  0  0  0  0
 14 13  1  0  0  0  0
 16 17  2  0  0  0  0
 16 19  1  0  0  0  0
 18 19  2  0  0  0  0
 18 23  1  0  0  0  0
 19 20  1  0  0  0  0
 20 25  1  0  0  0  0
 20 21  2  0  0  0  0
 22 26  1  0  0  0  0
 22 21  1  0  0  0  0
 23 22  2  0  0  0  0
 24 18  1  0  0  0  0
M  END
>  <minimizedAffinity>
-5.05963945

$$$$

 OpenBabel03242517143D

 26 28  0  0  0  0  0  0  0  0999 V2000
   37.6580   27.8170   43.6800 C   0  0  0  0  0  0  0  0  0  0  0  0
   38.5110   28.1060   44.3400 H   0  0  0  0  0  0  0  0  0  0  0  0
   36.7450   27.6830   44.2890 H   0  0  0  0  0  0  0  0  0  0  0  0
   39.3100   26.0630   42.9210 C   0  0  0  0  0  3  0  0  0  0  0  0
   38.0150   26.5900   42.9260 C   0  0  0  0  0  0  0  0  0  0  0  0
   37.0280   25.9590   42.2110 C   0  0  0  0  0  0  0  0  0  0  0  0
   36.0190   26.3570   42.2070 H   0  0  0  0  0  0  0  0  0  0  0  0
   37.2570   24.8010   41.4710 C   0  0  0  0  0  0  0  0  0  0  0  0
   36.4940   24.0010   40.7020 N   0  0  0  0  0  0  0  0  0  0  0  0
   37.2910   23.0150   40.2380 C   0  0  0  0  0  0  0  0  0  0  0  0
   36.9160   22.2270   39.5850 H   0  0  0  0  0  0  0  0  0  0  0  0
   38.5440   23.1960   40.7130 N   0  0  0  0  0  0  0  0  0  0  0  0
   38.5480   24.2840   41.4710 C   0  0  0  0  0  0  0  0  0  0  0  0
   39.5350   24.9230   42.1900 C   0  0  0  0  0  3  0  0  0  0  0  0
   35.4850   24.2180   40.5710 H   0  0  0  0  0  0  0  0  0  0  0  0
   38.3470   29.7110   42.2610 C   0  0  0  0  0  3  0  0  0  0  0  0
   37.3930   28.9560   42.7480 C   0  0  0  0  0  3  0  0  0  0  0  0
   39.1940   31.7930   41.2270 C   0  0  0  0  0  0  0  0  0  0  0  0
   38.1950   30.8320   41.3580 C   0  0  0  0  0  0  0  0  0  0  0  0
   37.0470   30.9780   40.5960 C   0  0  0  0  0  0  0  0  0  0  0  0
   36.9400   32.0500   39.7520 N   0  0  0  0  0  0  0  0  0  0  0  0
   37.9340   32.9680   39.6510 C   0  0  0  0  0  0  0  0  0  0  0  0
   39.0550   32.8360   40.3880 N   0  0  0  0  0  0  0  0  0  0  0  0
   40.0820   31.6460   41.8400 H   0  0  0  0  0  0  0  0  0  0  0  0
   36.2400   30.2680   40.6530 H   0  0  0  0  0  0  0  0  0  0  0  0
   37.8750   33.8250   38.9920 H   0  0  0  0  0  0  0  0  0  0  0  0
  1  3  1  0  0  0  0
  1  2  1  0  0  0  0
  4  5  1  0  0  0  0
  5  1  1  0  0  0  0
  6  5  2  0  0  0  0
  7  6  1  0  0  0  0
  8  6  1  0  0  0  0
  9  8  1  0  0  0  0
 10  9  1  0  0  0  0
 10 12  2  0  0  0  0
 11 10  1  0  0  0  0
 12 13  1  0  0  0  0
 13  8  2  0  0  0  0
 13 14  1  0  0  0  0
 14  4  2  0  0  0  0
 15  9  1  0  0  0  0
 16 17  2  0  0  0  0
 17  1  1  0  0  0  0
 18 19  1  0  0  0  0
 18 24  1  0  0  0  0
 19 16  1  0  0  0  0
 20 25  1  0  0  0  0
 20 19  2  0  0  0  0
 21 20  1  0  0  0  0
 22 21  2  0  0  0  0
 22 23  1  0  0  0  0
 23 18  2  0  0  0  0
 26 22  1  0  0  0  0
M  END
>  <minimizedAffinity>
-4.91723585

$$$$

 OpenBabel03242517143D

 26 28  0  0  0  0  0  0  0  0999 V2000
   35.4520   29.2140   40.6080 C   0  0  0  0  0  0  0  0  0  0  0  0
   34.5330   29.3800   41.2200 H   0  0  0  0  0  0  0  0  0  0  0  0
   35.1710   29.0320   39.5550 H   0  0  0  0  0  0  0  0  0  0  0  0
   36.6110   28.0540   42.5300 C   0  0  0  0  0  3  0  0  0  0  0  0
   36.2290   28.0890   41.1860 C   0  0  0  0  0  0  0  0  0  0  0  0
   36.5790   27.0530   40.3580 C   0  0  0  0  0  0  0  0  0  0  0  0
   36.2890   27.0680   39.3130 H   0  0  0  0  0  0  0  0  0  0  0  0
   37.3060   25.9490   40.7990 C   0  0  0  0  0  0  0  0  0  0  0  0
   37.7700   24.8260   40.2190 N   0  0  0  0  0  0  0  0  0  0  0  0
   38.4160   24.1210   41.1720 C   0  0  0  0  0  0  0  0  0  0  0  0
   38.8890   23.1620   40.9620 H   0  0  0  0  0  0  0  0  0  0  0  0
   38.3570   24.7980   42.3410 N   0  0  0  0  0  0  0  0  0  0  0  0
   37.6820   25.9210   42.1380 C   0  0  0  0  0  0  0  0  0  0  0  0
   37.3280   26.9660   42.9640 C   0  0  0  0  0  3  0  0  0  0  0  0
   37.5930   24.6540   39.2080 H   0  0  0  0  0  0  0  0  0  0  0  0
   37.3600   30.6290   39.9490 C   0  0  0  0  0  3  0  0  0  0  0  0
   36.2500   30.4790   40.6300 C   0  0  0  0  0  3  0  0  0  0  0  0
   37.6980   33.0640   40.2350 C   0  0  0  0  0  0  0  0  0  0  0  0
   38.2000   31.8070   39.9040 C   0  0  0  0  0  0  0  0  0  0  0  0
   39.5300   31.7160   39.5290 C   0  0  0  0  0  0  0  0  0  0  0  0
   40.2930   32.8520   39.4990 N   0  0  0  0  0  0  0  0  0  0  0  0
   39.7700   34.0600   39.8280 C   0  0  0  0  0  0  0  0  0  0  0  0
   38.4770   34.1600   40.1940 N   0  0  0  0  0  0  0  0  0  0  0  0
   36.6490   33.0990   40.5250 H   0  0  0  0  0  0  0  0  0  0  0  0
   39.9760   30.7730   39.2630 H   0  0  0  0  0  0  0  0  0  0  0  0
   40.3510   34.9740   39.8130 H   0  0  0  0  0  0  0  0  0  0  0  0
  1 17  1  0  0  0  0
  1  5  1  0  0  0  0
  1  2  1  0  0  0  0
  3  1  1  0  0  0  0
  4 14  1  0  0  0  0
  5  4  2  0  0  0  0
  6  8  2  0  0  0  0
  6  5  1  0  0  0  0
  7  6  1  0  0  0  0
  8 13  1  0  0  0  0
  9  8  1  0  0  0  0
  9 10  1  0  0  0  0
 10 12  2  0  0  0  0
 11 10  1  0  0  0  0
 13 12  1  0  0  0  0
 13 14  2  0  0  0  0
 15  9  1  0  0  0  0
 16 17  2  0  0  0  0
 18 24  1  0  0  0  0
 19 16  1  0  0  0  0
 19 18  2  0  0  0  0
 20 19  1  0  0  0  0
 21 20  2  0  0  0  0
 21 22  1  0  0  0  0
 22 23  2  0  0  0  0
 23 18  1  0  0  0  0
 25 20  1  0  0  0  0
 26 22  1  0  0  0  0
M  END
>  <minimizedAffinity>
-4.90808582

$$$$

 OpenBabel03242517143D

 26 28  0  0  0  0  0  0  0  0999 V2000
   33.4780   28.1680   37.1970 C   0  0  0  0  0  0  0  0  0  0  0  0
   32.8330   27.6940   37.9770 H   0  0  0  0  0  0  0  0  0  0  0  0
   33.8480   27.3950   36.4990 H   0  0  0  0  0  0  0  0  0  0  0  0
   35.6960   29.3770   37.1560 C   0  0  0  0  0  3  0  0  0  0  0  0
   34.5840   28.9040   37.8590 C   0  0  0  0  0  0  0  0  0  0  0  0
   34.4990   29.1210   39.2110 C   0  0  0  0  0  0  0  0  0  0  0  0
   33.6410   28.7590   39.7680 H   0  0  0  0  0  0  0  0  0  0  0  0
   35.4810   29.8010   39.9280 C   0  0  0  0  0  0  0  0  0  0  0  0
   35.6460   30.1440   41.2190 N   0  0  0  0  0  0  0  0  0  0  0  0
   36.8190   30.8050   41.3110 C   0  0  0  0  0  0  0  0  0  0  0  0
   37.1920   31.1940   42.2580 H   0  0  0  0  0  0  0  0  0  0  0  0
   37.3850   30.8770   40.0850 N   0  0  0  0  0  0  0  0  0  0  0  0
   36.5840   30.2680   39.2220 C   0  0  0  0  0  0  0  0  0  0  0  0
   36.6640   30.0460   37.8630 C   0  0  0  0  0  3  0  0  0  0  0  0
   34.9220   29.8830   41.9210 H   0  0  0  0  0  0  0  0  0  0  0  0
   31.6920   29.8460   36.9380 C   0  0  0  0  0  3  0  0  0  0  0  0
   32.6220   29.0970   36.3990 C   0  0  0  0  0  3  0  0  0  0  0  0
   29.5990   31.1610   36.8130 C   0  0  0  0  0  0  0  0  0  0  0  0
   30.8150   30.7730   36.2550 C   0  0  0  0  0  0  0  0  0  0  0  0
   31.1630   31.3020   35.0230 C   0  0  0  0  0  0  0  0  0  0  0  0
   30.3080   32.1760   34.4070 N   0  0  0  0  0  0  0  0  0  0  0  0
   29.1310   32.5310   34.9810 C   0  0  0  0  0  0  0  0  0  0  0  0
   28.7820   32.0220   36.1800 N   0  0  0  0  0  0  0  0  0  0  0  0
   29.3580   30.7260   37.7820 H   0  0  0  0  0  0  0  0  0  0  0  0
   32.0900   31.0410   34.5400 H   0  0  0  0  0  0  0  0  0  0  0  0
   28.4370   33.2190   34.5160 H   0  0  0  0  0  0  0  0  0  0  0  0
  1  5  1  0  0  0  0
  1  2  1  0  0  0  0
  3  1  1  0  0  0  0
  4  5  2  0  0  0  0
  4 14  1  0  0  0  0
  5  6  1  0  0  0  0
  6  7  1  0  0  0  0
  6  8  2  0  0  0  0
  8  9  1  0  0  0  0
  9 10  1  0  0  0  0
  9 15  1  0  0  0  0
 10 11  1  0  0  0  0
 12 10  2  0  0  0  0
 13  8  1  0  0  0  0
 13 12  1  0  0  0  0
 14 13  2  0  0  0  0
 17 16  2  0  0  0  0
 17  1  1  0  0  0  0
 18 24  1  0  0  0  0
 19 18  1  0  0  0  0
 19 16  1  0  0  0  0
 20 19  2  0  0  0  0
 21 22  2  0  0  0  0
 21 20  1  0  0  0  0
 22 23  1  0  0  0  0
 23 18  2  0  0  0  0
 25 20  1  0  0  0  0
 26 22  1  0  0  0  0
M  END
>  <minimizedAffinity>
-4.90305138

$$$$

 OpenBabel03242517143D

 26 28  0  0  0  0  0  0  0  0999 V2000
   37.0500   31.5930   38.9390 C   0  0  0  0  0  0  0  0  0  0  0  0
   36.2860   32.3620   39.2110 H   0  0  0  0  0  0  0  0  0  0  0  0
   36.9580   31.3390   37.8680 H   0  0  0  0  0  0  0  0  0  0  0  0
   36.3830   29.1910   39.3440 C   0  0  0  0  0  3  0  0  0  0  0  0
   36.8850   30.4080   39.8160 C   0  0  0  0  0  0  0  0  0  0  0  0
   37.2400   30.5240   41.1350 C   0  0  0  0  0  0  0  0  0  0  0  0
   37.6310   31.4630   41.5140 H   0  0  0  0  0  0  0  0  0  0  0  0
   37.1260   29.4720   42.0430 C   0  0  0  0  0  0  0  0  0  0  0  0
   37.3930   29.3170   43.3520 N   0  0  0  0  0  0  0  0  0  0  0  0
   37.0670   28.0480   43.6790 C   0  0  0  0  0  0  0  0  0  0  0  0
   37.1890   27.6610   44.6910 H   0  0  0  0  0  0  0  0  0  0  0  0
   36.6000   27.4130   42.5810 N   0  0  0  0  0  0  0  0  0  0  0  0
   36.6260   28.2650   41.5660 C   0  0  0  0  0  0  0  0  0  0  0  0
   36.2700   28.1550   40.2380 C   0  0  0  0  0  3  0  0  0  0  0  0
   37.7780   30.1130   43.9010 H   0  0  0  0  0  0  0  0  0  0  0  0
   39.3470   32.1250   38.2200 C   0  0  0  0  0  3  0  0  0  0  0  0
   38.4010   32.2070   39.1230 C   0  0  0  0  0  3  0  0  0  0  0  0
   41.0920   33.4040   39.4190 C   0  0  0  0  0  0  0  0  0  0  0  0
   40.6810   32.6820   38.3020 C   0  0  0  0  0  0  0  0  0  0  0  0
   41.5870   32.5100   37.2690 C   0  0  0  0  0  0  0  0  0  0  0  0
   42.8390   33.0500   37.3830 N   0  0  0  0  0  0  0  0  0  0  0  0
   43.2050   33.7490   38.4870 C   0  0  0  0  0  0  0  0  0  0  0  0
   42.3310   33.9230   39.4990 N   0  0  0  0  0  0  0  0  0  0  0  0
   40.3550   33.5200   40.2120 H   0  0  0  0  0  0  0  0  0  0  0  0
   41.3280   31.9600   36.3790 H   0  0  0  0  0  0  0  0  0  0  0  0
   44.1880   34.1870   38.6030 H   0  0  0  0  0  0  0  0  0  0  0  0
  1 17  1  0  0  0  0
  1  2  1  0  0  0  0
  1  5  1  0  0  0  0
  3  1  1  0  0  0  0
  4  5  2  0  0  0  0
  4 14  1  0  0  0  0
  5  6  1  0  0  0  0
  6  7  1  0  0  0  0
  6  8  2  0  0  0  0
  8  9  1  0  0  0  0
  9 10  1  0  0  0  0
  9 15  1  0  0  0  0
 10 11  1  0  0  0  0
 12 10  2  0  0  0  0
 13  8  1  0  0  0  0
 13 12  1  0  0  0  0
 14 13  2  0  0  0  0
 16 19  1  0  0  0  0
 16 17  2  0  0  0  0
 18 23  1  0  0  0  0
 18 24  1  0  0  0  0
 19 18  2  0  0  0  0
 20 21  2  0  0  0  0
 20 19  1  0  0  0  0
 21 22  1  0  0  0  0
 22 26  1  0  0  0  0
 22 23  2  0  0  0  0
 25 20  1  0  0  0  0
M  END
>  <minimizedAffinity>
-4.86290026

$$$$

 OpenBabel03242517143D

 26 28  0  0  0  0  0  0  0  0999 V2000
   36.0730   29.9890   38.3250 C   0  0  0  0  0  0  0  0  0  0  0  0
   36.1490   29.5790   37.2890 H   0  0  0  0  0  0  0  0  0  0  0  0
   35.1310   30.5570   38.4320 H   0  0  0  0  0  0  0  0  0  0  0  0
   37.5280   31.3440   39.8830 C   0  0  0  0  0  3  0  0  0  0  0  0
   37.2670   30.8200   38.6130 C   0  0  0  0  0  0  0  0  0  0  0  0
   38.1390   31.0780   37.5860 C   0  0  0  0  0  0  0  0  0  0  0  0
   37.9480   30.6770   36.5960 H   0  0  0  0  0  0  0  0  0  0  0  0
   39.2900   31.8460   37.7490 C   0  0  0  0  0  0  0  0  0  0  0  0
   40.2880   32.2430   36.9370 N   0  0  0  0  0  0  0  0  0  0  0  0
   41.1360   32.9860   37.6800 C   0  0  0  0  0  0  0  0  0  0  0  0
   42.0360   33.4320   37.2570 H   0  0  0  0  0  0  0  0  0  0  0  0
   40.6720   33.0540   38.9480 N   0  0  0  0  0  0  0  0  0  0  0  0
   39.5420   32.3640   39.0150 C   0  0  0  0  0  0  0  0  0  0  0  0
   38.6610   32.1020   40.0430 C   0  0  0  0  0  3  0  0  0  0  0  0
   40.2850   31.9580   35.9360 H   0  0  0  0  0  0  0  0  0  0  0  0
   36.9050   27.8980   39.3300 C   0  0  0  0  0  3  0  0  0  0  0  0
   35.9890   28.8320   39.2690 C   0  0  0  0  0  3  0  0  0  0  0  0
   37.2870   26.8560   41.5420 C   0  0  0  0  0  0  0  0  0  0  0  0
   36.9160   26.7440   40.2040 C   0  0  0  0  0  0  0  0  0  0  0  0
   36.5540   25.4930   39.7320 C   0  0  0  0  0  0  0  0  0  0  0  0
   36.5750   24.4260   40.5890 N   0  0  0  0  0  0  0  0  0  0  0  0
   36.9430   24.5730   41.8870 C   0  0  0  0  0  0  0  0  0  0  0  0
   37.2980   25.7860   42.3570 N   0  0  0  0  0  0  0  0  0  0  0  0
   37.5650   27.8540   41.8790 H   0  0  0  0  0  0  0  0  0  0  0  0
   36.2560   25.3420   38.7080 H   0  0  0  0  0  0  0  0  0  0  0  0
   36.9690   23.7460   42.5850 H   0  0  0  0  0  0  0  0  0  0  0  0
  1  3  1  0  0  0  0
  1  5  1  0  0  0  0
  1 17  1  0  0  0  0
  2  1  1  0  0  0  0
  4 14  1  0  0  0  0
  5  4  2  0  0  0  0
  6  8  2  0  0  0  0
  6  5  1  0  0  0  0
  7  6  1  0  0  0  0
  8 13  1  0  0  0  0
  9 10  1  0  0  0  0
  9  8  1  0  0  0  0
 10 12  2  0  0  0  0
 11 10  1  0  0  0  0
 12 13  1  0  0  0  0
 13 14  2  0  0  0  0
 15  9  1  0  0  0  0
 16 19  1  0  0  0  0
 17 16  2  0  0  0  0
 18 24  1  0  0  0  0
 18 23  1  0  0  0  0
 19 18  2  0  0  0  0
 20 19  1  0  0  0  0
 20 21  2  0  0  0  0
 21 22  1  0  0  0  0
 22 23  2  0  0  0  0
 22 26  1  0  0  0  0
 25 20  1  0  0  0  0
M  END
>  <minimizedAffinity>
-4.83657217

$$$$

 OpenBabel03242517143D

 26 28  0  0  0  0  0  0  0  0999 V2000
   39.9610   28.8090   42.9660 C   0  0  0  0  0  0  0  0  0  0  0  0
   40.9000   28.6150   42.3930 H   0  0  0  0  0  0  0  0  0  0  0  0
   40.2000   28.9390   44.0370 H   0  0  0  0  0  0  0  0  0  0  0  0
   37.6890   27.7300   43.2010 C   0  0  0  0  0  3  0  0  0  0  0  0
   39.0070   27.6980   42.7330 C   0  0  0  0  0  0  0  0  0  0  0  0
   39.4460   26.6030   42.0330 C   0  0  0  0  0  0  0  0  0  0  0  0
   40.4660   26.5650   41.6650 H   0  0  0  0  0  0  0  0  0  0  0  0
   38.6320   25.5060   41.7590 C   0  0  0  0  0  0  0  0  0  0  0  0
   38.8010   24.3370   41.1130 N   0  0  0  0  0  0  0  0  0  0  0  0
   37.6290   23.6710   41.1800 C   0  0  0  0  0  0  0  0  0  0  0  0
   37.4960   22.6870   40.7300 H   0  0  0  0  0  0  0  0  0  0  0  0
   36.7310   24.4170   41.8620 N   0  0  0  0  0  0  0  0  0  0  0  0
   37.3230   25.5460   42.2280 C   0  0  0  0  0  0  0  0  0  0  0  0
   36.8870   26.6490   42.9320 C   0  0  0  0  0  3  0  0  0  0  0  0
   39.7220   24.1110   40.6840 H   0  0  0  0  0  0  0  0  0  0  0  0
   39.1280   30.3450   41.2280 C   0  0  0  0  0  3  0  0  0  0  0  0
   39.3940   30.1080   42.4890 C   0  0  0  0  0  3  0  0  0  0  0  0
   37.5420   31.5270   39.7410 C   0  0  0  0  0  0  0  0  0  0  0  0
   38.5800   31.5630   40.6680 C   0  0  0  0  0  0  0  0  0  0  0  0
   39.0760   32.8010   41.0420 C   0  0  0  0  0  0  0  0  0  0  0  0
   38.5320   33.9300   40.4920 N   0  0  0  0  0  0  0  0  0  0  0  0
   37.5210   33.8570   39.5900 C   0  0  0  0  0  0  0  0  0  0  0  0
   37.0310   32.6570   39.2190 N   0  0  0  0  0  0  0  0  0  0  0  0
   37.1770   30.5370   39.4700 H   0  0  0  0  0  0  0  0  0  0  0  0
   39.8780   32.8940   41.7560 H   0  0  0  0  0  0  0  0  0  0  0  0
   37.0730   34.7340   39.1400 H   0  0  0  0  0  0  0  0  0  0  0  0
  1  3  1  0  0  0  0
  2  1  1  0  0  0  0
  5  1  1  0  0  0  0
  5  4  2  0  0  0  0
  6  5  1  0  0  0  0
  7  6  1  0  0  0  0
  8  6  2  0  0  0  0
  8 13  1  0  0  0  0
  9 10  1  0  0  0  0
  9  8  1  0  0  0  0
 10 12  2  0  0  0  0
 11 10  1  0  0  0  0
 12 13  1  0  0  0  0
 13 14  2  0  0  0  0
 14  4  1  0  0  0  0
 15  9  1  0  0  0  0
 16 17  2  0  0  0  0
 17  1  1  0  0  0  0
 18 19  1  0  0  0  0
 19 20  2  0  0  0  0
 19 16  1  0  0  0  0
 20 25  1  0  0  0  0
 21 20  1  0  0  0  0
 22 21  2  0  0  0  0
 23 22  1  0  0  0  0
 23 18  2  0  0  0  0
 24 18  1  0  0  0  0
 26 22  1  0  0  0  0
M  END
>  <minimizedAffinity>
-4.8318162

$$$$

 OpenBabel03242517143D

 26 28  0  0  0  0  0  0  0  0999 V2000
   35.3290   29.2460   40.4550 C   0  0  0  0  0  0  0  0  0  0  0  0
   34.3350   29.1210   40.9480 H   0  0  0  0  0  0  0  0  0  0  0  0
   35.7890   30.1980   40.7810 H   0  0  0  0  0  0  0  0  0  0  0  0
   33.9600   28.7780   38.3840 C   0  0  0  0  0  3  0  0  0  0  0  0
   35.1580   29.1810   38.9830 C   0  0  0  0  0  0  0  0  0  0  0  0
   36.2230   29.5290   38.1920 C   0  0  0  0  0  0  0  0  0  0  0  0
   37.1580   29.8430   38.6440 H   0  0  0  0  0  0  0  0  0  0  0  0
   36.1680   29.5030   36.7990 C   0  0  0  0  0  0  0  0  0  0  0  0
   37.0370   29.7860   35.8110 N   0  0  0  0  0  0  0  0  0  0  0  0
   36.3980   29.5660   34.6420 C   0  0  0  0  0  0  0  0  0  0  0  0
   36.8840   29.7210   33.6790 H   0  0  0  0  0  0  0  0  0  0  0  0
   35.1380   29.1480   34.8970 N   0  0  0  0  0  0  0  0  0  0  0  0
   34.9730   29.1020   36.2120 C   0  0  0  0  0  0  0  0  0  0  0  0
   33.9070   28.7520   37.0130 C   0  0  0  0  0  3  0  0  0  0  0  0
   38.0000   30.1070   36.0430 H   0  0  0  0  0  0  0  0  0  0  0  0
   37.1430   28.3310   41.8510 C   0  0  0  0  0  3  0  0  0  0  0  0
   36.2210   28.1480   40.9380 C   0  0  0  0  0  3  0  0  0  0  0  0
   39.1300   27.7030   43.1840 C   0  0  0  0  0  0  0  0  0  0  0  0
   38.0510   27.3380   42.3830 C   0  0  0  0  0  0  0  0  0  0  0  0
   37.8710   25.9920   42.1080 C   0  0  0  0  0  0  0  0  0  0  0  0
   38.7510   25.0820   42.6290 N   0  0  0  0  0  0  0  0  0  0  0  0
   39.7920   25.4750   43.4060 C   0  0  0  0  0  0  0  0  0  0  0  0
   39.9760   26.7810   43.6800 N   0  0  0  0  0  0  0  0  0  0  0  0
   39.2410   28.7680   43.3800 H   0  0  0  0  0  0  0  0  0  0  0  0
   37.0550   25.6470   41.4950 H   0  0  0  0  0  0  0  0  0  0  0  0
   40.5010   24.7760   43.8310 H   0  0  0  0  0  0  0  0  0  0  0  0
  1  3  1  0  0  0  0
  1 17  1  0  0  0  0
  1  2  1  0  0  0  0
  4  5  1  0  0  0  0
  5  1  1  0  0  0  0
  6  7  1  0  0  0  0
  6  5  2  0  0  0  0
  8  6  1  0  0  0  0
  9 15  1  0  0  0  0
  9  8  1  0  0  0  0
 10 12  2  0  0  0  0
 10  9  1  0  0  0  0
 11 10  1  0  0  0  0
 12 13  1  0  0  0  0
 13  8  2  0  0  0  0
 13 14  1  0  0  0  0
 14  4  2  0  0  0  0
 16 19  1  0  0  0  0
 17 16  2  0  0  0  0
 18 24  1  0  0  0  0
 18 23  1  0  0  0  0
 19 18  2  0  0  0  0
 20 19  1  0  0  0  0
 20 21  2  0  0  0  0
 21 22  1  0  0  0  0
 22 23  2  0  0  0  0
 22 26  1  0  0  0  0
 25 20  1  0  0  0  0
M  END
>  <minimizedAffinity>
-4.79723883

$$$$
