
 OpenBabel03252507043D

 50 54  0  0  0  0  0  0  0  0999 V2000
   41.0100   33.5930   40.2030 N   0  0  0  0  0  0  0  0  0  0  0  0
   40.3950   32.3020   40.2150 C   0  0  0  0  0  0  0  0  0  0  0  0
   39.0320   32.6950   40.7780 C   0  0  0  0  0  0  0  0  0  0  0  0
   38.3100   33.6580   39.9640 C   0  0  0  0  0  0  0  0  0  0  0  0
   39.0580   34.5300   39.0850 C   0  0  0  0  0  0  0  0  0  0  0  0
   40.5670   34.5640   39.1790 C   0  0  0  0  0  0  0  0  0  0  0  0
   40.3570   31.7300   39.3060 H   0  0  0  0  0  0  0  0  0  0  0  0
   40.8550   31.6660   40.9930 H   0  0  0  0  0  0  0  0  0  0  0  0
   39.1740   33.0160   41.8360 H   0  0  0  0  0  0  0  0  0  0  0  0
   38.4550   31.7310   40.8660 H   0  0  0  0  0  0  0  0  0  0  0  0
   37.5670   33.1060   39.3150 H   0  0  0  0  0  0  0  0  0  0  0  0
   37.6730   34.2950   40.6340 H   0  0  0  0  0  0  0  0  0  0  0  0
   38.6420   35.1780   38.3820 H   0  0  0  0  0  0  0  0  0  0  0  0
   41.9420   34.0490   41.0450 C   0  0  0  0  0  0  0  0  0  0  0  0
   41.6240   34.0140   42.1100 H   0  0  0  0  0  0  0  0  0  0  0  0
   42.1980   35.1540   40.8890 H   0  0  0  0  0  0  0  0  0  0  0  0
   43.2510   33.3550   40.9350 C   0  0  0  0  0  0  0  0  0  0  0  0
   43.1930   32.3650   41.4440 H   0  0  0  0  0  0  0  0  0  0  0  0
   43.5250   33.2080   39.8550 H   0  0  0  0  0  0  0  0  0  0  0  0
   44.2640   34.1600   41.6400 C   0  0  0  0  0  0  0  0  0  0  0  0
   43.8980   35.2990   42.3170 C   0  0  0  0  0  0  0  0  0  0  0  0
   44.8870   36.0360   42.9570 C   0  0  0  0  0  0  0  0  0  0  0  0
   46.1730   35.5850   42.8800 N   0  0  0  0  0  0  0  0  0  0  0  0
   46.4890   34.4740   42.2170 C   0  0  0  0  0  0  0  0  0  0  0  0
   45.5220   33.7830   41.6060 N   0  0  0  0  0  0  0  0  0  0  0  0
   42.9630   35.8000   42.5040 H   0  0  0  0  0  0  0  0  0  0  0  0
   44.7880   36.9570   43.5350 H   0  0  0  0  0  0  0  0  0  0  0  0
   47.8880   34.0510   42.2240 C   0  0  0  0  0  0  0  0  0  0  0  0
   48.2170   32.7150   42.0080 C   0  0  0  0  0  0  0  0  0  0  0  0
   49.5390   32.3200   42.0330 C   0  0  0  0  0  0  0  0  0  0  0  0
   50.4340   33.3320   42.2790 C   0  0  0  0  0  0  0  0  0  0  0  0
   50.1560   34.6750   42.5000 C   0  0  0  0  0  0  0  0  0  0  0  0
   48.8320   34.9810   42.4590 N   0  0  0  0  0  0  0  0  0  0  0  0
   47.4400   31.9970   41.8220 H   0  0  0  0  0  0  0  0  0  0  0  0
   49.8620   31.3200   41.8760 H   0  0  0  0  0  0  0  0  0  0  0  0
   51.4960   33.0670   42.3090 H   0  0  0  0  0  0  0  0  0  0  0  0
   50.9300   35.4000   42.6870 H   0  0  0  0  0  0  0  0  0  0  0  0
   41.5800   35.5750   38.2280 S   0  0  0  0  0  0  0  0  0  0  0  0
   40.9540   36.9510   36.2120 C   0  0  0  0  0  3  0  0  0  0  0  0
   40.9750   37.0630   37.6030 C   0  0  0  0  0  0  0  0  0  0  0  0
   40.5550   38.2670   38.0460 C   0  0  0  0  0  0  0  0  0  0  0  0
   40.5950   38.3650   39.1130 H   0  0  0  0  0  0  0  0  0  0  0  0
   40.1330   39.3330   37.3280 C   0  0  0  0  0  0  0  0  0  0  0  0
   39.7040   40.5510   37.6950 N   0  0  0  0  0  0  0  0  0  0  0  0
   39.4270   41.1650   36.5160 C   0  0  0  0  0  0  0  0  0  0  0  0
   39.0520   42.1920   36.5070 H   0  0  0  0  0  0  0  0  0  0  0  0
   39.6730   40.3650   35.4780 N   0  0  0  0  0  0  0  0  0  0  0  0
   40.1280   39.1820   35.9620 C   0  0  0  0  0  0  0  0  0  0  0  0
   40.5370   37.9940   35.3810 C   0  0  0  0  0  3  0  0  0  0  0  0
   39.6070   40.9330   38.6680 H   0  0  0  0  0  0  0  0  0  0  0  0
  1  2  1  0  0  0  0
  1 14  1  0  0  0  0
  2  3  1  0  0  0  0
  2  8  1  0  0  0  0
  3 10  1  0  0  0  0
  3  9  1  0  0  0  0
  4 12  1  0  0  0  0
  4  3  1  0  0  0  0
  5  6  2  0  0  0  0
  5  4  1  0  0  0  0
  6  1  1  0  0  0  0
  7  2  1  0  0  0  0
 11  4  1  0  0  0  0
 13  5  1  0  0  0  0
 14 15  1  0  0  0  0
 16 14  1  0  0  0  0
 17 14  1  0  0  0  0
 17 18  1  0  0  0  0
 17 20  1  0  0  0  0
 19 17  1  0  0  0  0
 20 21  1  0  0  0  0
 21 26  1  0  0  0  0
 21 22  2  0  0  0  0
 22 27  1  0  0  0  0
 23 22  1  0  0  0  0
 24 28  1  0  0  0  0
 24 23  2  0  0  0  0
 25 20  2  0  0  0  0
 25 24  1  0  0  0  0
 28 33  1  0  0  0  0
 29 30  1  0  0  0  0
 29 28  2  0  0  0  0
 30 31  2  0  0  0  0
 31 36  1  0  0  0  0
 31 32  1  0  0  0  0
 32 37  1  0  0  0  0
 33 32  2  0  0  0  0
 34 29  1  0  0  0  0
 35 30  1  0  0  0  0
 38  6  1  0  0  0  0
 39 40  1  0  0  0  0
 40 41  2  0  0  0  0
 40 38  1  0  0  0  0
 41 42  1  0  0  0  0
 43 44  1  0  0  0  0
 43 41  1  0  0  0  0
 44 50  1  0  0  0  0
 45 44  1  0  0  0  0
 46 45  1  0  0  0  0
 47 48  1  0  0  0  0
 47 45  2  0  0  0  0
 48 43  2  0  0  0  0
 49 48  1  0  0  0  0
 49 39  2  0  0  0  0
M  END
>  <minimizedAffinity>
-2.79023743

>  <minimizedRMSD>
0.451829672

$$$$
