
 OpenBabel03252503273D

 28 30  0  0  0  0  0  0  0  0999 V2000
   45.4080   34.4180   43.2350 C   0  0  0  0  0  0  0  0  0  0  0  0
   46.4900   34.8900   42.4860 C   0  0  0  0  0  0  0  0  0  0  0  0
   47.7700   34.4320   42.8870 C   0  0  0  0  0  0  0  0  0  0  0  0
   47.8370   33.5850   43.9500 N   0  0  0  0  0  0  0  0  0  0  0  0
   46.7510   33.1700   44.6270 C   0  0  0  0  0  0  0  0  0  0  0  0
   45.5290   33.5850   44.2730 N   0  0  0  0  0  0  0  0  0  0  0  0
   43.5960   34.1640   41.7350 C   0  0  0  0  0  0  0  0  0  0  0  0
   44.3880   33.3370   41.1690 O   0  0  0  0  0  0  0  0  0  0  0  0
   44.0790   34.8350   42.8930 N   0  0  0  0  0  0  0  0  0  0  0  0
   46.2670   35.5580   41.6720 H   0  0  0  0  0  0  0  0  0  0  0  0
   46.9350   32.4950   45.4550 H   0  0  0  0  0  0  0  0  0  0  0  0
   43.5250   35.5230   43.4010 H   0  0  0  0  0  0  0  0  0  0  0  0
   41.6340   35.6540   41.1850 C   0  0  0  0  0  3  0  0  0  0  0  0
   42.2510   34.4150   41.2210 C   0  0  0  0  0  0  0  0  0  0  0  0
   41.5400   33.3510   40.7370 C   0  0  0  0  0  0  0  0  0  0  0  0
   41.9750   32.3760   40.7440 H   0  0  0  0  0  0  0  0  0  0  0  0
   40.2480   33.4960   40.2260 C   0  0  0  0  0  0  0  0  0  0  0  0
   39.3490   32.6260   39.6970 N   0  0  0  0  0  0  0  0  0  0  0  0
   38.2280   33.3200   39.3550 C   0  0  0  0  0  0  0  0  0  0  0  0
   37.3100   32.9360   38.9040 H   0  0  0  0  0  0  0  0  0  0  0  0
   38.4140   34.6140   39.6630 N   0  0  0  0  0  0  0  0  0  0  0  0
   39.6420   34.7410   40.1950 C   0  0  0  0  0  0  0  0  0  0  0  0
   40.3580   35.8160   40.6840 C   0  0  0  0  0  3  0  0  0  0  0  0
   39.4850   31.5940   39.5710 H   0  0  0  0  0  0  0  0  0  0  0  0
   48.8800   34.9390   42.0900 C   0  0  0  0  0  0  0  0  0  0  0  0
   49.9740   35.1520   42.9420 F   0  0  0  0  0  0  0  0  0  0  0  0
   48.5190   36.1980   41.6380 F   0  0  0  0  0  0  0  0  0  0  0  0
   49.2920   34.0850   41.1170 F   0  0  0  0  0  0  0  0  0  0  0  0
  1  6  1  0  0  0  0
  2  3  1  0  0  0  0
  2  1  2  0  0  0  0
  3  4  2  0  0  0  0
  4  5  1  0  0  0  0
  5 11  1  0  0  0  0
  6  5  2  0  0  0  0
  7  9  1  0  0  0  0
  8  7  2  0  0  0  0
  9  1  1  0  0  0  0
  9 12  1  0  0  0  0
 10  2  1  0  0  0  0
 13 14  1  0  0  0  0
 14  7  1  0  0  0  0
 15 16  1  0  0  0  0
 15 14  2  0  0  0  0
 17 15  1  0  0  0  0
 18 17  1  0  0  0  0
 19 21  2  0  0  0  0
 19 18  1  0  0  0  0
 20 19  1  0  0  0  0
 21 22  1  0  0  0  0
 22 17  2  0  0  0  0
 22 23  1  0  0  0  0
 23 13  2  0  0  0  0
 24 18  1  0  0  0  0
 25  3  1  0  0  0  0
 25 26  1  0  0  0  0
 27 25  1  0  0  0  0
 28 25  1  0  0  0  0
M  END
>  <minimizedAffinity>
-6.47235394

>  <minimizedRMSD>
1.50268233

$$$$
