
 OpenBabel03252503293D

 28 30  0  0  0  0  0  0  0  0999 V2000
   39.2220   26.9220   41.8160 C   0  0  0  0  0  0  0  0  0  0  0  0
   38.4240   25.9980   41.1350 C   0  0  0  0  0  0  0  0  0  0  0  0
   38.3360   24.7070   41.7140 C   0  0  0  0  0  0  0  0  0  0  0  0
   39.0230   24.4790   42.8660 N   0  0  0  0  0  0  0  0  0  0  0  0
   39.7750   25.4180   43.4690 C   0  0  0  0  0  0  0  0  0  0  0  0
   39.8790   26.6460   42.9480 N   0  0  0  0  0  0  0  0  0  0  0  0
   38.2050   29.0410   41.5410 C   0  0  0  0  0  0  0  0  0  0  0  0
   37.2310   28.4740   42.1420 O   0  0  0  0  0  0  0  0  0  0  0  0
   39.3630   28.2500   41.2960 N   0  0  0  0  0  0  0  0  0  0  0  0
   37.9450   26.3370   40.2330 H   0  0  0  0  0  0  0  0  0  0  0  0
   40.2740   25.1140   44.3830 H   0  0  0  0  0  0  0  0  0  0  0  0
   40.1820   28.6120   40.8080 H   0  0  0  0  0  0  0  0  0  0  0  0
   37.0560   31.0280   40.4880 C   0  0  0  0  0  3  0  0  0  0  0  0
   38.1400   30.4390   41.1180 C   0  0  0  0  0  0  0  0  0  0  0  0
   39.2280   31.2330   41.3590 C   0  0  0  0  0  0  0  0  0  0  0  0
   40.0880   30.8220   41.8410 H   0  0  0  0  0  0  0  0  0  0  0  0
   39.2560   32.5800   40.9900 C   0  0  0  0  0  0  0  0  0  0  0  0
   40.1850   33.5620   41.1080 N   0  0  0  0  0  0  0  0  0  0  0  0
   39.6770   34.7050   40.5690 C   0  0  0  0  0  0  0  0  0  0  0  0
   40.1520   35.6850   40.4960 H   0  0  0  0  0  0  0  0  0  0  0  0
   38.4400   34.4490   40.1130 N   0  0  0  0  0  0  0  0  0  0  0  0
   38.1650   33.1570   40.3610 C   0  0  0  0  0  0  0  0  0  0  0  0
   37.0660   32.3560   40.1180 C   0  0  0  0  0  3  0  0  0  0  0  0
   41.1370   33.4680   41.5420 H   0  0  0  0  0  0  0  0  0  0  0  0
   37.4980   23.7640   40.9840 C   0  0  0  0  0  0  0  0  0  0  0  0
   37.4510   24.1630   39.6400 F   0  0  0  0  0  0  0  0  0  0  0  0
   36.2030   23.9150   41.4550 F   0  0  0  0  0  0  0  0  0  0  0  0
   37.9620   22.4870   41.0060 F   0  0  0  0  0  0  0  0  0  0  0  0
  1  6  1  0  0  0  0
  2  3  1  0  0  0  0
  2  1  2  0  0  0  0
  3  4  2  0  0  0  0
  4  5  1  0  0  0  0
  5 11  1  0  0  0  0
  6  5  2  0  0  0  0
  7  8  2  0  0  0  0
  9  7  1  0  0  0  0
  9  1  1  0  0  0  0
 10  2  1  0  0  0  0
 12  9  1  0  0  0  0
 13 14  1  0  0  0  0
 14 15  2  0  0  0  0
 14  7  1  0  0  0  0
 15 16  1  0  0  0  0
 17 18  1  0  0  0  0
 17 15  1  0  0  0  0
 18 24  1  0  0  0  0
 19 18  1  0  0  0  0
 20 19  1  0  0  0  0
 21 22  1  0  0  0  0
 21 19  2  0  0  0  0
 22 17  2  0  0  0  0
 23 22  1  0  0  0  0
 23 13  2  0  0  0  0
 25 28  1  0  0  0  0
 25 27  1  0  0  0  0
 25  3  1  0  0  0  0
 26 25  1  0  0  0  0
M  END
>  <minimizedAffinity>
-5.89008379

$$$$

 OpenBabel03252503293D

 28 30  0  0  0  0  0  0  0  0999 V2000
   37.7260   30.4590   41.3340 C   0  0  0  0  0  0  0  0  0  0  0  0
   37.7840   29.4190   42.2660 C   0  0  0  0  0  0  0  0  0  0  0  0
   36.7310   28.4730   42.2070 C   0  0  0  0  0  0  0  0  0  0  0  0
   35.7670   28.6530   41.2640 N   0  0  0  0  0  0  0  0  0  0  0  0
   35.7730   29.6800   40.3960 C   0  0  0  0  0  0  0  0  0  0  0  0
   36.7530   30.5910   40.4260 N   0  0  0  0  0  0  0  0  0  0  0  0
   39.9570   30.9760   40.7410 C   0  0  0  0  0  0  0  0  0  0  0  0
   39.9630   29.7620   40.3410 O   0  0  0  0  0  0  0  0  0  0  0  0
   38.7540   31.4590   41.3270 N   0  0  0  0  0  0  0  0  0  0  0  0
   38.6170   29.4200   42.9470 H   0  0  0  0  0  0  0  0  0  0  0  0
   34.9480   29.7140   39.6920 H   0  0  0  0  0  0  0  0  0  0  0  0
   38.6610   32.4070   41.6890 H   0  0  0  0  0  0  0  0  0  0  0  0
   41.7880   32.1020   39.4160 C   0  0  0  0  0  3  0  0  0  0  0  0
   41.1320   31.8360   40.6060 C   0  0  0  0  0  0  0  0  0  0  0  0
   41.6280   32.4250   41.7370 C   0  0  0  0  0  0  0  0  0  0  0  0
   41.1550   32.2480   42.6780 H   0  0  0  0  0  0  0  0  0  0  0  0
   42.7460   33.2610   41.7050 C   0  0  0  0  0  0  0  0  0  0  0  0
   43.4240   33.9530   42.6560 N   0  0  0  0  0  0  0  0  0  0  0  0
   44.4530   34.6150   42.0580 C   0  0  0  0  0  0  0  0  0  0  0  0
   45.1970   35.2640   42.5230 H   0  0  0  0  0  0  0  0  0  0  0  0
   44.4290   34.3450   40.7420 N   0  0  0  0  0  0  0  0  0  0  0  0
   43.3940   33.5200   40.5070 C   0  0  0  0  0  0  0  0  0  0  0  0
   42.8930   32.9250   39.3650 C   0  0  0  0  0  3  0  0  0  0  0  0
   43.2010   33.9810   43.6820 H   0  0  0  0  0  0  0  0  0  0  0  0
   36.8160   27.3990   43.1890 C   0  0  0  0  0  0  0  0  0  0  0  0
   37.9450   27.6240   43.9920 F   0  0  0  0  0  0  0  0  0  0  0  0
   37.0880   26.2300   42.4960 F   0  0  0  0  0  0  0  0  0  0  0  0
   35.7430   27.3280   44.0190 F   0  0  0  0  0  0  0  0  0  0  0  0
  1  2  1  0  0  0  0
  2 10  1  0  0  0  0
  3  2  2  0  0  0  0
  3 25  1  0  0  0  0
  4  3  1  0  0  0  0
  5  6  1  0  0  0  0
  5  4  2  0  0  0  0
  6  1  2  0  0  0  0
  7  9  1  0  0  0  0
  8  7  2  0  0  0  0
  9  1  1  0  0  0  0
  9 12  1  0  0  0  0
 11  5  1  0  0  0  0
 13 14  1  0  0  0  0
 14  7  1  0  0  0  0
 14 15  2  0  0  0  0
 15 16  1  0  0  0  0
 17 15  1  0  0  0  0
 17 18  1  0  0  0  0
 18 24  1  0  0  0  0
 19 20  1  0  0  0  0
 19 18  1  0  0  0  0
 21 19  2  0  0  0  0
 22 21  1  0  0  0  0
 22 17  2  0  0  0  0
 23 13  2  0  0  0  0
 23 22  1  0  0  0  0
 25 26  1  0  0  0  0
 25 28  1  0  0  0  0
 27 25  1  0  0  0  0
M  END
>  <minimizedAffinity>
-5.80499458

$$$$

 OpenBabel03252503293D

 28 30  0  0  0  0  0  0  0  0999 V2000
   37.3820   30.3160   41.0990 C   0  0  0  0  0  0  0  0  0  0  0  0
   37.6060   29.3090   42.0420 C   0  0  0  0  0  0  0  0  0  0  0  0
   36.6050   28.3100   42.1340 C   0  0  0  0  0  0  0  0  0  0  0  0
   35.5260   28.4140   41.3110 N   0  0  0  0  0  0  0  0  0  0  0  0
   35.3740   29.4140   40.4250 C   0  0  0  0  0  0  0  0  0  0  0  0
   36.3020   30.3720   40.3130 N   0  0  0  0  0  0  0  0  0  0  0  0
   39.4960   30.9230   40.2270 C   0  0  0  0  0  0  0  0  0  0  0  0
   39.5170   29.7000   39.8600 O   0  0  0  0  0  0  0  0  0  0  0  0
   38.3480   31.3640   40.9430 N   0  0  0  0  0  0  0  0  0  0  0  0
   38.5140   29.3700   42.6170 H   0  0  0  0  0  0  0  0  0  0  0  0
   34.4710   29.3860   39.8250 H   0  0  0  0  0  0  0  0  0  0  0  0
   38.2500   32.3170   41.2910 H   0  0  0  0  0  0  0  0  0  0  0  0
   41.4510   32.3840   40.8730 C   0  0  0  0  0  3  0  0  0  0  0  0
   40.5990   31.8350   39.9300 C   0  0  0  0  0  0  0  0  0  0  0  0
   40.8120   32.1780   38.6220 C   0  0  0  0  0  0  0  0  0  0  0  0
   40.1800   31.7800   37.8590 H   0  0  0  0  0  0  0  0  0  0  0  0
   41.8420   33.0430   38.2440 C   0  0  0  0  0  0  0  0  0  0  0  0
   42.2590   33.5320   37.0490 N   0  0  0  0  0  0  0  0  0  0  0  0
   43.3280   34.3480   37.2650 C   0  0  0  0  0  0  0  0  0  0  0  0
   43.9100   34.9060   36.5290 H   0  0  0  0  0  0  0  0  0  0  0  0
   43.5850   34.3770   38.5830 N   0  0  0  0  0  0  0  0  0  0  0  0
   42.6880   33.5850   39.1980 C   0  0  0  0  0  0  0  0  0  0  0  0
   42.4730   33.2400   40.5170 C   0  0  0  0  0  3  0  0  0  0  0  0
   41.8370   33.3230   36.1100 H   0  0  0  0  0  0  0  0  0  0  0  0
   36.8630   27.2720   43.1240 C   0  0  0  0  0  0  0  0  0  0  0  0
   35.8130   27.2760   44.0540 F   0  0  0  0  0  0  0  0  0  0  0  0
   37.9850   27.6580   43.8400 F   0  0  0  0  0  0  0  0  0  0  0  0
   36.9300   26.0200   42.6010 F   0  0  0  0  0  0  0  0  0  0  0  0
  1  2  1  0  0  0  0
  2  3  2  0  0  0  0
  2 10  1  0  0  0  0
  3 25  1  0  0  0  0
  4  3  1  0  0  0  0
  5  4  2  0  0  0  0
  6  5  1  0  0  0  0
  6  1  2  0  0  0  0
  7  9  1  0  0  0  0
  8  7  2  0  0  0  0
  9  1  1  0  0  0  0
  9 12  1  0  0  0  0
 11  5  1  0  0  0  0
 14  7  1  0  0  0  0
 14 13  2  0  0  0  0
 15 14  1  0  0  0  0
 16 15  1  0  0  0  0
 17 15  2  0  0  0  0
 17 22  1  0  0  0  0
 18 19  1  0  0  0  0
 18 17  1  0  0  0  0
 19 21  2  0  0  0  0
 20 19  1  0  0  0  0
 21 22  1  0  0  0  0
 22 23  2  0  0  0  0
 23 13  1  0  0  0  0
 24 18  1  0  0  0  0
 25 27  1  0  0  0  0
 25 26  1  0  0  0  0
 28 25  1  0  0  0  0
M  END
>  <minimizedAffinity>
-5.72776508

$$$$

 OpenBabel03252503293D

 28 30  0  0  0  0  0  0  0  0999 V2000
   32.4230   29.2330   34.8610 C   0  0  0  0  0  0  0  0  0  0  0  0
   32.1710   30.6050   34.7720 C   0  0  0  0  0  0  0  0  0  0  0  0
   31.0330   30.9790   34.0130 C   0  0  0  0  0  0  0  0  0  0  0  0
   30.2940   29.9880   33.4460 N   0  0  0  0  0  0  0  0  0  0  0  0
   30.5960   28.6830   33.5730 C   0  0  0  0  0  0  0  0  0  0  0  0
   31.6630   28.2970   34.2820 N   0  0  0  0  0  0  0  0  0  0  0  0
   33.3250   28.8400   37.0130 C   0  0  0  0  0  0  0  0  0  0  0  0
   32.1980   29.3080   37.3950 O   0  0  0  0  0  0  0  0  0  0  0  0
   33.5550   28.7720   35.6110 N   0  0  0  0  0  0  0  0  0  0  0  0
   32.8540   31.2620   35.2810 H   0  0  0  0  0  0  0  0  0  0  0  0
   29.9290   27.9890   33.0730 H   0  0  0  0  0  0  0  0  0  0  0  0
   34.4290   28.4300   35.2140 H   0  0  0  0  0  0  0  0  0  0  0  0
   35.1690   27.3030   37.7940 C   0  0  0  0  0  3  0  0  0  0  0  0
   34.3370   28.3960   37.9690 C   0  0  0  0  0  0  0  0  0  0  0  0
   34.4790   29.1080   39.1290 C   0  0  0  0  0  0  0  0  0  0  0  0
   33.8590   29.9590   39.3090 H   0  0  0  0  0  0  0  0  0  0  0  0
   35.4200   28.7570   40.1010 C   0  0  0  0  0  0  0  0  0  0  0  0
   35.7570   29.2800   41.3080 N   0  0  0  0  0  0  0  0  0  0  0  0
   36.7590   28.5270   41.8400 C   0  0  0  0  0  0  0  0  0  0  0  0
   37.2680   28.6630   42.7960 H   0  0  0  0  0  0  0  0  0  0  0  0
   37.0530   27.5370   40.9820 N   0  0  0  0  0  0  0  0  0  0  0  0
   36.2470   27.6610   39.9130 C   0  0  0  0  0  0  0  0  0  0  0  0
   36.1030   26.9420   38.7430 C   0  0  0  0  0  3  0  0  0  0  0  0
   35.3250   30.1230   41.7620 H   0  0  0  0  0  0  0  0  0  0  0  0
   30.7930   32.4140   33.9360 C   0  0  0  0  0  0  0  0  0  0  0  0
   32.0300   33.0730   33.9930 F   0  0  0  0  0  0  0  0  0  0  0  0
   30.1300   32.7830   35.0960 F   0  0  0  0  0  0  0  0  0  0  0  0
   30.1830   32.8080   32.7870 F   0  0  0  0  0  0  0  0  0  0  0  0
  1  9  1  0  0  0  0
  2  1  1  0  0  0  0
  2 10  1  0  0  0  0
  3  2  2  0  0  0  0
  4  5  2  0  0  0  0
  4  3  1  0  0  0  0
  5  6  1  0  0  0  0
  6  1  2  0  0  0  0
  7  8  2  0  0  0  0
  7 14  1  0  0  0  0
  9  7  1  0  0  0  0
 11  5  1  0  0  0  0
 12  9  1  0  0  0  0
 13 14  2  0  0  0  0
 13 23  1  0  0  0  0
 14 15  1  0  0  0  0
 15 16  1  0  0  0  0
 15 17  2  0  0  0  0
 17 18  1  0  0  0  0
 18 24  1  0  0  0  0
 18 19  1  0  0  0  0
 19 20  1  0  0  0  0
 21 19  2  0  0  0  0
 22 17  1  0  0  0  0
 22 21  1  0  0  0  0
 23 22  2  0  0  0  0
 25 26  1  0  0  0  0
 25  3  1  0  0  0  0
 25 27  1  0  0  0  0
 28 25  1  0  0  0  0
M  END
>  <minimizedAffinity>
-5.55119944

$$$$

 OpenBabel03252503293D

 28 30  0  0  0  0  0  0  0  0999 V2000
   36.4820   27.3360   39.6000 C   0  0  0  0  0  0  0  0  0  0  0  0
   36.9500   26.5350   40.6450 C   0  0  0  0  0  0  0  0  0  0  0  0
   36.9240   25.1360   40.4150 C   0  0  0  0  0  0  0  0  0  0  0  0
   36.4530   24.6980   39.2160 N   0  0  0  0  0  0  0  0  0  0  0  0
   36.0160   25.5280   38.2520 C   0  0  0  0  0  0  0  0  0  0  0  0
   36.0280   26.8530   38.4380 N   0  0  0  0  0  0  0  0  0  0  0  0
   37.7790   29.3140   39.6170 C   0  0  0  0  0  0  0  0  0  0  0  0
   38.7390   28.4960   39.4120 O   0  0  0  0  0  0  0  0  0  0  0  0
   36.4750   28.7610   39.7520 N   0  0  0  0  0  0  0  0  0  0  0  0
   37.2900   27.0390   41.5320 H   0  0  0  0  0  0  0  0  0  0  0  0
   35.6650   25.0570   37.3410 H   0  0  0  0  0  0  0  0  0  0  0  0
   35.6520   29.3340   39.9340 H   0  0  0  0  0  0  0  0  0  0  0  0
   37.0400   31.7260   39.4950 C   0  0  0  0  0  3  0  0  0  0  0  0
   38.0040   30.7560   39.7100 C   0  0  0  0  0  0  0  0  0  0  0  0
   39.2620   31.1880   40.0350 C   0  0  0  0  0  0  0  0  0  0  0  0
   40.0390   30.4760   40.2090 H   0  0  0  0  0  0  0  0  0  0  0  0
   39.5700   32.5460   40.1460 C   0  0  0  0  0  0  0  0  0  0  0  0
   40.7070   33.2240   40.4460 N   0  0  0  0  0  0  0  0  0  0  0  0
   40.4350   34.5590   40.4140 C   0  0  0  0  0  0  0  0  0  0  0  0
   41.1160   35.3900   40.6050 H   0  0  0  0  0  0  0  0  0  0  0  0
   39.1410   34.7240   40.0960 N   0  0  0  0  0  0  0  0  0  0  0  0
   38.5950   33.5060   39.9290 C   0  0  0  0  0  0  0  0  0  0  0  0
   37.3260   33.0700   39.6010 C   0  0  0  0  0  3  0  0  0  0  0  0
   41.6420   32.8020   40.6690 H   0  0  0  0  0  0  0  0  0  0  0  0
   37.4180   24.3240   41.5200 C   0  0  0  0  0  0  0  0  0  0  0  0
   36.5440   24.4780   42.6070 F   0  0  0  0  0  0  0  0  0  0  0  0
   38.6170   24.8820   41.9350 F   0  0  0  0  0  0  0  0  0  0  0  0
   37.4790   22.9960   41.2410 F   0  0  0  0  0  0  0  0  0  0  0  0
  1  9  1  0  0  0  0
  1  2  1  0  0  0  0
  2 10  1  0  0  0  0
  3  2  2  0  0  0  0
  3 25  1  0  0  0  0
  4  3  1  0  0  0  0
  5  6  1  0  0  0  0
  5  4  2  0  0  0  0
  6  1  2  0  0  0  0
  7 14  1  0  0  0  0
  7  9  1  0  0  0  0
  8  7  2  0  0  0  0
  9 12  1  0  0  0  0
 11  5  1  0  0  0  0
 13 23  2  0  0  0  0
 13 14  1  0  0  0  0
 14 15  2  0  0  0  0
 15 17  1  0  0  0  0
 15 16  1  0  0  0  0
 17 18  1  0  0  0  0
 18 24  1  0  0  0  0
 19 18  1  0  0  0  0
 19 20  1  0  0  0  0
 21 19  2  0  0  0  0
 22 21  1  0  0  0  0
 22 17  2  0  0  0  0
 23 22  1  0  0  0  0
 25 27  1  0  0  0  0
 25 26  1  0  0  0  0
 28 25  1  0  0  0  0
M  END
>  <minimizedAffinity>
-5.53597975

$$$$

 OpenBabel03252503293D

 28 30  0  0  0  0  0  0  0  0999 V2000
   36.6590   29.0460   40.0140 C   0  0  0  0  0  0  0  0  0  0  0  0
   36.5400   28.0050   40.9380 C   0  0  0  0  0  0  0  0  0  0  0  0
   37.0920   28.2470   42.2210 C   0  0  0  0  0  0  0  0  0  0  0  0
   37.6810   29.4530   42.4420 N   0  0  0  0  0  0  0  0  0  0  0  0
   37.7620   30.4130   41.5020 C   0  0  0  0  0  0  0  0  0  0  0  0
   37.2510   30.2150   40.2810 N   0  0  0  0  0  0  0  0  0  0  0  0
   34.7090   29.0010   38.6740 C   0  0  0  0  0  0  0  0  0  0  0  0
   34.1290   29.2060   39.7940 O   0  0  0  0  0  0  0  0  0  0  0  0
   36.1270   28.8800   38.6930 N   0  0  0  0  0  0  0  0  0  0  0  0
   36.0430   27.1100   40.6060 H   0  0  0  0  0  0  0  0  0  0  0  0
   38.2560   31.3310   41.8000 H   0  0  0  0  0  0  0  0  0  0  0  0
   36.6730   28.6990   37.8520 H   0  0  0  0  0  0  0  0  0  0  0  0
   34.4810   28.4750   36.2150 C   0  0  0  0  0  3  0  0  0  0  0  0
   33.9560   28.8920   37.4260 C   0  0  0  0  0  0  0  0  0  0  0  0
   32.6290   29.2270   37.4480 C   0  0  0  0  0  0  0  0  0  0  0  0
   32.1790   29.5550   38.3590 H   0  0  0  0  0  0  0  0  0  0  0  0
   31.8300   29.1550   36.3040 C   0  0  0  0  0  0  0  0  0  0  0  0
   30.5220   29.4220   36.0590 N   0  0  0  0  0  0  0  0  0  0  0  0
   30.2690   29.1730   34.7440 C   0  0  0  0  0  0  0  0  0  0  0  0
   29.3240   29.2800   34.2080 H   0  0  0  0  0  0  0  0  0  0  0  0
   31.4040   28.7530   34.1620 N   0  0  0  0  0  0  0  0  0  0  0  0
   32.3690   28.7350   35.0980 C   0  0  0  0  0  0  0  0  0  0  0  0
   33.7080   28.3970   35.0770 C   0  0  0  0  0  3  0  0  0  0  0  0
   29.8160   29.7630   36.7580 H   0  0  0  0  0  0  0  0  0  0  0  0
   36.9540   27.1460   43.1660 C   0  0  0  0  0  0  0  0  0  0  0  0
   35.8050   27.3690   43.9400 F   0  0  0  0  0  0  0  0  0  0  0  0
   38.0140   27.2320   44.0540 F   0  0  0  0  0  0  0  0  0  0  0  0
   36.8080   25.9310   42.5750 F   0  0  0  0  0  0  0  0  0  0  0  0
  1  6  2  0  0  0  0
  1  2  1  0  0  0  0
  2  3  2  0  0  0  0
  3  4  1  0  0  0  0
  3 25  1  0  0  0  0
  5 11  1  0  0  0  0
  5  4  2  0  0  0  0
  6  5  1  0  0  0  0
  7  9  1  0  0  0  0
  7  8  2  0  0  0  0
  9  1  1  0  0  0  0
 10  2  1  0  0  0  0
 12  9  1  0  0  0  0
 13 14  1  0  0  0  0
 14 15  2  0  0  0  0
 14  7  1  0  0  0  0
 15 16  1  0  0  0  0
 17 15  1  0  0  0  0
 18 17  1  0  0  0  0
 18 24  1  0  0  0  0
 19 18  1  0  0  0  0
 20 19  1  0  0  0  0
 21 19  2  0  0  0  0
 21 22  1  0  0  0  0
 22 17  2  0  0  0  0
 23 22  1  0  0  0  0
 23 13  2  0  0  0  0
 25 26  1  0  0  0  0
 25 27  1  0  0  0  0
 28 25  1  0  0  0  0
M  END
>  <minimizedAffinity>
-5.51859951

$$$$

 OpenBabel03252503293D

 28 30  0  0  0  0  0  0  0  0999 V2000
   38.4410   28.7170   42.4010 C   0  0  0  0  0  0  0  0  0  0  0  0
   38.2640   27.5830   41.6040 C   0  0  0  0  0  0  0  0  0  0  0  0
   37.3500   26.6160   42.0940 C   0  0  0  0  0  0  0  0  0  0  0  0
   36.7330   26.8700   43.2790 N   0  0  0  0  0  0  0  0  0  0  0  0
   36.9520   27.9860   43.9970 C   0  0  0  0  0  0  0  0  0  0  0  0
   37.8080   28.9180   43.5620 N   0  0  0  0  0  0  0  0  0  0  0  0
   38.7970   30.5390   40.9330 C   0  0  0  0  0  0  0  0  0  0  0  0
   37.6290   30.2270   40.5200 O   0  0  0  0  0  0  0  0  0  0  0  0
   39.3480   29.7430   41.9760 N   0  0  0  0  0  0  0  0  0  0  0  0
   38.8300   27.5340   40.6900 H   0  0  0  0  0  0  0  0  0  0  0  0
   36.3990   28.0720   44.9260 H   0  0  0  0  0  0  0  0  0  0  0  0
   40.2800   29.9060   42.3570 H   0  0  0  0  0  0  0  0  0  0  0  0
   39.5930   32.9350   40.9040 C   0  0  0  0  0  3  0  0  0  0  0  0
   39.5400   31.6610   40.3630 C   0  0  0  0  0  0  0  0  0  0  0  0
   40.2380   31.4460   39.2060 C   0  0  0  0  0  0  0  0  0  0  0  0
   40.2260   30.4790   38.7510 H   0  0  0  0  0  0  0  0  0  0  0  0
   40.9760   32.4590   38.5890 C   0  0  0  0  0  0  0  0  0  0  0  0
   41.7380   32.5090   37.4660 N   0  0  0  0  0  0  0  0  0  0  0  0
   42.2330   33.7710   37.3370 C   0  0  0  0  0  0  0  0  0  0  0  0
   42.8820   34.1630   36.5510 H   0  0  0  0  0  0  0  0  0  0  0  0
   41.7900   34.5130   38.3650 N   0  0  0  0  0  0  0  0  0  0  0  0
   41.0210   33.7290   39.1410 C   0  0  0  0  0  0  0  0  0  0  0  0
   40.3160   33.9460   40.3080 C   0  0  0  0  0  3  0  0  0  0  0  0
   41.9210   31.7150   36.8030 H   0  0  0  0  0  0  0  0  0  0  0  0
   37.1840   25.4440   41.2440 C   0  0  0  0  0  0  0  0  0  0  0  0
   36.3560   25.7930   40.1670 F   0  0  0  0  0  0  0  0  0  0  0  0
   36.4630   24.5100   41.9710 F   0  0  0  0  0  0  0  0  0  0  0  0
   38.3470   24.9770   40.7190 F   0  0  0  0  0  0  0  0  0  0  0  0
  1  6  1  0  0  0  0
  2  3  1  0  0  0  0
  2  1  2  0  0  0  0
  3  4  2  0  0  0  0
  4  5  1  0  0  0  0
  5 11  1  0  0  0  0
  6  5  2  0  0  0  0
  7  9  1  0  0  0  0
  8  7  2  0  0  0  0
  9 12  1  0  0  0  0
  9  1  1  0  0  0  0
 10  2  1  0  0  0  0
 14 13  1  0  0  0  0
 14  7  1  0  0  0  0
 15 14  2  0  0  0  0
 16 15  1  0  0  0  0
 17 22  2  0  0  0  0
 17 15  1  0  0  0  0
 18 17  1  0  0  0  0
 19 18  1  0  0  0  0
 19 21  2  0  0  0  0
 20 19  1  0  0  0  0
 21 22  1  0  0  0  0
 22 23  1  0  0  0  0
 23 13  2  0  0  0  0
 24 18  1  0  0  0  0
 25 27  1  0  0  0  0
 25  3  1  0  0  0  0
 26 25  1  0  0  0  0
 28 25  1  0  0  0  0
M  END
>  <minimizedAffinity>
-5.51842499

$$$$

 OpenBabel03252503293D

 28 30  0  0  0  0  0  0  0  0999 V2000
   39.2010   32.2590   40.5020 C   0  0  0  0  0  0  0  0  0  0  0  0
   40.5890   32.3720   40.3830 C   0  0  0  0  0  0  0  0  0  0  0  0
   41.1070   33.6920   40.3850 C   0  0  0  0  0  0  0  0  0  0  0  0
   40.2240   34.7210   40.5010 N   0  0  0  0  0  0  0  0  0  0  0  0
   38.8950   34.5380   40.6110 C   0  0  0  0  0  0  0  0  0  0  0  0
   38.3750   33.3060   40.6120 N   0  0  0  0  0  0  0  0  0  0  0  0
   38.7770   30.2980   41.7560 C   0  0  0  0  0  0  0  0  0  0  0  0
   39.4440   30.9180   42.6510 O   0  0  0  0  0  0  0  0  0  0  0  0
   38.5970   30.9580   40.5080 N   0  0  0  0  0  0  0  0  0  0  0  0
   41.1480   31.4570   40.3010 H   0  0  0  0  0  0  0  0  0  0  0  0
   38.2960   35.4380   40.6960 H   0  0  0  0  0  0  0  0  0  0  0  0
   38.0940   30.5340   39.7300 H   0  0  0  0  0  0  0  0  0  0  0  0
   37.2770   28.6630   42.9620 C   0  0  0  0  0  3  0  0  0  0  0  0
   38.2200   28.9670   41.9950 C   0  0  0  0  0  0  0  0  0  0  0  0
   38.6610   27.9380   41.2080 C   0  0  0  0  0  0  0  0  0  0  0  0
   39.3890   28.1240   40.4490 H   0  0  0  0  0  0  0  0  0  0  0  0
   38.1870   26.6330   41.3640 C   0  0  0  0  0  0  0  0  0  0  0  0
   38.4510   25.4610   40.7340 N   0  0  0  0  0  0  0  0  0  0  0  0
   37.6910   24.4830   41.3020 C   0  0  0  0  0  0  0  0  0  0  0  0
   37.6520   23.4240   41.0420 H   0  0  0  0  0  0  0  0  0  0  0  0
   36.9550   25.0300   42.2830 N   0  0  0  0  0  0  0  0  0  0  0  0
   37.2420   26.3420   42.3360 C   0  0  0  0  0  0  0  0  0  0  0  0
   36.7980   27.3810   43.1300 C   0  0  0  0  0  3  0  0  0  0  0  0
   39.1250   25.3200   39.9410 H   0  0  0  0  0  0  0  0  0  0  0  0
   42.5560   33.7810   40.2610 C   0  0  0  0  0  0  0  0  0  0  0  0
   43.1120   32.5660   40.6880 F   0  0  0  0  0  0  0  0  0  0  0  0
   42.9890   34.7240   41.1800 F   0  0  0  0  0  0  0  0  0  0  0  0
   42.9850   33.9930   38.9890 F   0  0  0  0  0  0  0  0  0  0  0  0
  1  9  1  0  0  0  0
  1  6  1  0  0  0  0
  2  3  1  0  0  0  0
  2  1  2  0  0  0  0
  3  4  2  0  0  0  0
  4  5  1  0  0  0  0
  5  6  2  0  0  0  0
  5 11  1  0  0  0  0
  7 14  1  0  0  0  0
  7  8  2  0  0  0  0
  9  7  1  0  0  0  0
 10  2  1  0  0  0  0
 12  9  1  0  0  0  0
 13 23  1  0  0  0  0
 14 13  2  0  0  0  0
 15 17  2  0  0  0  0
 15 14  1  0  0  0  0
 16 15  1  0  0  0  0
 17 22  1  0  0  0  0
 18 19  1  0  0  0  0
 18 17  1  0  0  0  0
 19 21  2  0  0  0  0
 20 19  1  0  0  0  0
 21 22  1  0  0  0  0
 22 23  2  0  0  0  0
 24 18  1  0  0  0  0
 25  3  1  0  0  0  0
 25 26  1  0  0  0  0
 25 27  1  0  0  0  0
 28 25  1  0  0  0  0
M  END
>  <minimizedAffinity>
-5.51220131

$$$$

 OpenBabel03252503293D

 28 30  0  0  0  0  0  0  0  0999 V2000
   38.8510   31.0770   40.5360 C   0  0  0  0  0  0  0  0  0  0  0  0
   38.7900   29.9620   41.3760 C   0  0  0  0  0  0  0  0  0  0  0  0
   37.5010   29.6090   41.8480 C   0  0  0  0  0  0  0  0  0  0  0  0
   36.4480   30.3740   41.4520 N   0  0  0  0  0  0  0  0  0  0  0  0
   36.5800   31.4390   40.6400 C   0  0  0  0  0  0  0  0  0  0  0  0
   37.7830   31.7970   40.1760 N   0  0  0  0  0  0  0  0  0  0  0  0
   40.5630   30.6570   38.9580 C   0  0  0  0  0  0  0  0  0  0  0  0
   39.8150   29.6670   38.6500 O   0  0  0  0  0  0  0  0  0  0  0  0
   40.1180   31.5000   40.0150 N   0  0  0  0  0  0  0  0  0  0  0  0
   39.7180   29.4630   41.5940 H   0  0  0  0  0  0  0  0  0  0  0  0
   35.6650   31.9680   40.3960 H   0  0  0  0  0  0  0  0  0  0  0  0
   40.6560   32.3020   40.3410 H   0  0  0  0  0  0  0  0  0  0  0  0
   42.8030   31.7910   38.6940 C   0  0  0  0  0  3  0  0  0  0  0  0
   41.8210   30.9160   38.2610 C   0  0  0  0  0  0  0  0  0  0  0  0
   42.0540   30.2480   37.0890 C   0  0  0  0  0  0  0  0  0  0  0  0
   41.3250   29.5640   36.7150 H   0  0  0  0  0  0  0  0  0  0  0  0
   43.2280   30.4330   36.3540 C   0  0  0  0  0  0  0  0  0  0  0  0
   43.6950   29.9090   35.1930 N   0  0  0  0  0  0  0  0  0  0  0  0
   44.9190   30.4510   34.9360 C   0  0  0  0  0  0  0  0  0  0  0  0
   45.5780   30.2540   34.0880 H   0  0  0  0  0  0  0  0  0  0  0  0
   45.2230   31.3080   35.9230 N   0  0  0  0  0  0  0  0  0  0  0  0
   44.2030   31.3110   36.8000 C   0  0  0  0  0  0  0  0  0  0  0  0
   43.9680   31.9850   37.9820 C   0  0  0  0  0  3  0  0  0  0  0  0
   43.2050   29.2050   34.5870 H   0  0  0  0  0  0  0  0  0  0  0  0
   37.4660   28.4430   42.7210 C   0  0  0  0  0  0  0  0  0  0  0  0
   36.1840   27.8780   42.6520 F   0  0  0  0  0  0  0  0  0  0  0  0
   37.5940   28.9000   44.0230 F   0  0  0  0  0  0  0  0  0  0  0  0
   38.3500   27.4710   42.3740 F   0  0  0  0  0  0  0  0  0  0  0  0
  1  2  1  0  0  0  0
  2 10  1  0  0  0  0
  2  3  2  0  0  0  0
  3 25  1  0  0  0  0
  4  3  1  0  0  0  0
  5  4  2  0  0  0  0
  6  1  2  0  0  0  0
  6  5  1  0  0  0  0
  7  9  1  0  0  0  0
  8  7  2  0  0  0  0
  9 12  1  0  0  0  0
  9  1  1  0  0  0  0
 11  5  1  0  0  0  0
 14 13  1  0  0  0  0
 14  7  1  0  0  0  0
 15 14  2  0  0  0  0
 16 15  1  0  0  0  0
 17 22  2  0  0  0  0
 17 15  1  0  0  0  0
 18 17  1  0  0  0  0
 19 18  1  0  0  0  0
 19 21  2  0  0  0  0
 20 19  1  0  0  0  0
 21 22  1  0  0  0  0
 22 23  1  0  0  0  0
 23 13  2  0  0  0  0
 24 18  1  0  0  0  0
 25 27  1  0  0  0  0
 26 25  1  0  0  0  0
 28 25  1  0  0  0  0
M  END
>  <minimizedAffinity>
-5.43486357

$$$$
