
 OpenBabel03242522473D

 44 48  0  0  0  0  0  0  0  0999 V2000
   47.9440   34.4370   40.9860 C   0  0  0  0  0  0  0  0  0  0  0  0
   48.2060   33.0610   40.9280 C   0  0  0  0  0  0  0  0  0  0  0  0
   47.1530   32.1530   41.2050 C   0  0  0  0  0  0  0  0  0  0  0  0
   45.9470   32.7040   41.5120 N   0  0  0  0  0  0  0  0  0  0  0  0
   45.7230   34.0230   41.5600 C   0  0  0  0  0  0  0  0  0  0  0  0
   46.7190   34.8640   41.2970 N   0  0  0  0  0  0  0  0  0  0  0  0
   48.9970   35.3360   40.7080 N   0  0  0  0  0  0  0  0  0  0  0  0
   47.3250   31.0910   41.1700 H   0  0  0  0  0  0  0  0  0  0  0  0
   49.7950   35.5200   41.3600 H   0  0  0  0  0  0  0  0  0  0  0  0
   48.9500   35.8340   39.7850 H   0  0  0  0  0  0  0  0  0  0  0  0
   49.5120   32.5070   40.5940 C   0  0  0  0  0  0  0  0  0  0  0  0
   50.5910   32.3000   41.4140 C   0  0  0  0  0  0  0  0  0  0  0  0
   51.7600   31.7560   40.9130 C   0  0  0  0  0  0  0  0  0  0  0  0
   51.8940   31.4020   39.5810 C   0  0  0  0  0  0  0  0  0  0  0  0
   53.0550   30.8860   39.1810 N   0  0  0  0  0  0  0  0  0  0  0  0
   53.2080   30.5290   37.8710 C   0  0  0  0  0  0  0  0  0  0  0  0
   52.1250   30.7310   37.0230 C   0  0  0  0  0  0  0  0  0  0  0  0
   50.9180   31.2620   37.4160 C   0  0  0  0  0  0  0  0  0  0  0  0
   50.8010   31.6130   38.7540 C   0  0  0  0  0  0  0  0  0  0  0  0
   49.6180   32.1570   39.2410 C   0  0  0  0  0  0  0  0  0  0  0  0
   50.4340   32.5910   42.4330 H   0  0  0  0  0  0  0  0  0  0  0  0
   52.5540   31.6320   41.6310 H   0  0  0  0  0  0  0  0  0  0  0  0
   54.1440   30.1100   37.5360 H   0  0  0  0  0  0  0  0  0  0  0  0
   52.2880   30.4360   35.9940 H   0  0  0  0  0  0  0  0  0  0  0  0
   50.1000   31.4020   36.7210 H   0  0  0  0  0  0  0  0  0  0  0  0
   48.8210   32.2810   38.5040 H   0  0  0  0  0  0  0  0  0  0  0  0
   44.3520   34.4770   41.9030 C   0  0  0  0  0  0  0  0  0  0  0  0
   44.2480   34.9210   42.8910 H   0  0  0  0  0  0  0  0  0  0  0  0
   44.0800   35.2310   41.1090 H   0  0  0  0  0  0  0  0  0  0  0  0
   43.3520   33.3190   41.7040 C   0  0  0  0  0  0  0  0  0  0  0  0
   42.7500   33.1890   42.6260 H   0  0  0  0  0  0  0  0  0  0  0  0
   43.8630   32.4170   41.3680 H   0  0  0  0  0  0  0  0  0  0  0  0
   41.3500   33.0110   40.3120 C   0  0  0  0  0  0  0  0  0  0  0  0
   42.4640   33.7610   40.5720 C   0  0  0  0  0  0  0  0  0  0  0  0
   42.7380   34.8720   39.8100 C   0  0  0  0  0  0  0  0  0  0  0  0
   43.6190   35.4660   40.0130 H   0  0  0  0  0  0  0  0  0  0  0  0
   41.8680   35.2200   38.7740 C   0  0  0  0  0  0  0  0  0  0  0  0
   41.8750   36.2400   37.8700 N   0  0  0  0  0  0  0  0  0  0  0  0
   40.7860   36.0940   37.0930 C   0  0  0  0  0  0  0  0  0  0  0  0
   40.4880   36.7460   36.2640 H   0  0  0  0  0  0  0  0  0  0  0  0
   40.1040   35.0020   37.4980 N   0  0  0  0  0  0  0  0  0  0  0  0
   40.7450   34.4300   38.5420 C   0  0  0  0  0  0  0  0  0  0  0  0
   40.4560   33.3050   39.3050 C   0  0  0  0  0  0  0  0  0  0  0  0
   42.6160   36.9760   37.8320 H   0  0  0  0  0  0  0  0  0  0  0  0
  1  6  1  0  0  0  0
  2  1  2  0  0  0  0
  2  3  1  0  0  0  0
  3  4  2  0  0  0  0
  4  5  1  0  0  0  0
  5 27  1  0  0  0  0
  6  5  2  0  0  0  0
  7  1  1  0  0  0  0
  7  9  1  0  0  0  0
  8  3  1  0  0  0  0
 10  7  1  0  0  0  0
 11  2  1  0  0  0  0
 11 12  1  0  0  0  0
 12 21  1  0  0  0  0
 13 12  2  0  0  0  0
 13 22  1  0  0  0  0
 14 13  1  0  0  0  0
 15 14  1  0  0  0  0
 16 15  2  0  0  0  0
 17 18  2  0  0  0  0
 17 16  1  0  0  0  0
 18 19  1  0  0  0  0
 19 20  1  0  0  0  0
 19 14  2  0  0  0  0
 20 11  2  0  0  0  0
 23 16  1  0  0  0  0
 24 17  1  0  0  0  0
 25 18  1  0  0  0  0
 26 20  1  0  0  0  0
 27 28  1  0  0  0  0
 29 27  1  0  0  0  0
 30 27  1  0  0  0  0
 30 31  1  0  0  0  0
 32 30  1  0  0  0  0
 33 34  1  0  0  0  0
 34 30  1  0  0  0  0
 35 36  1  0  0  0  0
 35 34  2  0  0  0  0
 37 35  1  0  0  0  0
 38 37  1  0  0  0  0
 39 41  2  0  0  0  0
 39 38  1  0  0  0  0
 40 39  1  0  0  0  0
 41 42  1  0  0  0  0
 42 37  2  0  0  0  0
 42 43  1  0  0  0  0
 43 33  2  0  0  0  0
 44 38  1  0  0  0  0
M  END
>  <minimizedAffinity>
-5.64681864

>  <minimizedRMSD>
8.36699867

$$$$
