
 OpenBabel03252505403D

 31 34  0  0  1  0  0  0  0  0999 V2000
   44.5310   34.2700   43.2570 C   0  0  1  0  0  0  0  0  0  0  0  0
   45.1680   35.3710   42.3750 C   0  0  0  0  0  0  0  0  0  0  0  0
   44.3880   34.2330   41.8010 C   0  0  2  0  0  0  0  0  0  0  0  0
   43.8010   34.7440   43.9650 H   0  0  0  0  0  0  0  0  0  0  0  0
   44.6750   36.3520   42.3270 H   0  0  0  0  0  0  0  0  0  0  0  0
   46.2570   35.3580   42.2840 H   0  0  0  0  0  0  0  0  0  0  0  0
   44.9660   33.4980   41.2390 H   0  0  0  0  0  0  0  0  0  0  0  0
   42.3460   35.6120   41.6280 C   0  0  0  0  0  3  0  0  0  0  0  0
   43.0090   34.4630   41.2960 C   0  0  0  0  0  0  0  0  0  0  0  0
   42.3440   33.5640   40.4930 C   0  0  0  0  0  0  0  0  0  0  0  0
   42.8440   32.6460   40.2140 H   0  0  0  0  0  0  0  0  0  0  0  0
   41.0690   33.7760   40.0250 C   0  0  0  0  0  0  0  0  0  0  0  0
   40.1970   33.0790   39.2390 N   0  0  0  0  0  0  0  0  0  0  0  0
   39.0580   33.7660   39.0970 C   0  0  0  0  0  0  0  0  0  0  0  0
   38.1630   33.4800   38.5290 H   0  0  0  0  0  0  0  0  0  0  0  0
   39.1990   34.9080   39.7950 N   0  0  0  0  0  0  0  0  0  0  0  0
   40.4170   34.9540   40.3790 C   0  0  0  0  0  0  0  0  0  0  0  0
   41.0630   35.8870   41.1920 C   0  0  0  0  0  3  0  0  0  0  0  0
   40.3980   32.1410   38.8120 H   0  0  0  0  0  0  0  0  0  0  0  0
   45.5340   33.4150   43.9630 C   0  0  0  0  0  0  0  0  0  0  0  0
   46.5140   32.7310   43.1980 C   0  0  0  0  0  0  0  0  0  0  0  0
   47.4420   31.9540   43.8850 C   0  0  0  0  0  0  0  0  0  0  0  0
   47.3580   31.8970   45.2380 N   0  0  0  0  0  0  0  0  0  0  0  0
   46.4040   32.5670   45.9290 C   0  0  0  0  0  0  0  0  0  0  0  0
   45.4900   33.3290   45.2780 N   0  0  0  0  0  0  0  0  0  0  0  0
   46.5460   32.8060   42.1190 H   0  0  0  0  0  0  0  0  0  0  0  0
   48.2170   31.4040   43.3790 H   0  0  0  0  0  0  0  0  0  0  0  0
   46.4960   32.3770   47.4140 C   0  0  0  0  0  0  0  0  0  0  0  0
   45.4440   32.9670   48.0700 F   0  0  0  0  0  0  0  0  0  0  0  0
   47.6840   32.9410   47.8880 F   0  0  0  0  0  0  0  0  0  0  0  0
   46.5970   31.0180   47.6850 F   0  0  0  0  0  0  0  0  0  0  0  0
  1 20  1  0  0  0  0
  1  4  1  1  0  0  0
  2  1  1  0  0  0  0
  3  7  1  6  0  0  0
  3  2  1  0  0  0  0
  3  1  1  0  0  0  0
  5  2  1  0  0  0  0
  6  2  1  0  0  0  0
  9  8  1  0  0  0  0
  9  3  1  0  0  0  0
 10  9  2  0  0  0  0
 11 10  1  0  0  0  0
 12 17  2  0  0  0  0
 12 10  1  0  0  0  0
 13 12  1  0  0  0  0
 14 13  1  0  0  0  0
 14 16  2  0  0  0  0
 15 14  1  0  0  0  0
 16 17  1  0  0  0  0
 17 18  1  0  0  0  0
 18  8  2  0  0  0  0
 19 13  1  0  0  0  0
 20 25  1  0  0  0  0
 21 22  1  0  0  0  0
 21 20  2  0  0  0  0
 22 23  2  0  0  0  0
 23 24  1  0  0  0  0
 24 28  1  0  0  0  0
 25 24  2  0  0  0  0
 26 21  1  0  0  0  0
 27 22  1  0  0  0  0
 28 31  1  0  0  0  0
 28 30  1  0  0  0  0
 28 29  1  0  0  0  0
M  END
>  <minimizedAffinity>
-5.38896418

>  <minimizedRMSD>
2.01890874

$$$$
