
 OpenBabel03252500443D

 37 40  0  0  1  0  0  0  0  0999 V2000
   47.5410   35.0450   41.7270 C   0  0  1  0  0  0  0  0  0  0  0  0
   49.0300   34.8030   41.5190 C   0  0  0  0  0  0  0  0  0  0  0  0
   48.0640   34.7400   40.3560 C   0  0  1  0  0  0  0  0  0  0  0  0
   47.3340   36.1220   41.8770 H   0  0  0  0  0  0  0  0  0  0  0  0
   49.4550   33.8500   41.8990 H   0  0  0  0  0  0  0  0  0  0  0  0
   49.7380   35.6300   41.4910 H   0  0  0  0  0  0  0  0  0  0  0  0
   48.1440   35.5310   39.5870 H   0  0  0  0  0  0  0  0  0  0  0  0
   46.7850   33.9570   42.3750 C   0  0  0  0  0  0  0  0  0  0  0  0
   46.0590   33.5500   41.6410 H   0  0  0  0  0  0  0  0  0  0  0  0
   47.4650   33.0970   42.6320 H   0  0  0  0  0  0  0  0  0  0  0  0
   46.0400   34.3520   43.5760 C   0  0  0  0  0  0  0  0  0  0  0  0
   45.3200   35.5070   43.4260 C   0  0  0  0  0  0  0  0  0  0  0  0
   44.5610   36.0200   44.4860 C   0  0  0  0  0  0  0  0  0  0  0  0
   44.6010   35.2870   45.6520 N   0  0  0  0  0  0  0  0  0  0  0  0
   45.3150   34.1510   45.7810 C   0  0  0  0  0  0  0  0  0  0  0  0
   46.0180   33.7060   44.7480 N   0  0  0  0  0  0  0  0  0  0  0  0
   45.1540   36.2070   42.6100 H   0  0  0  0  0  0  0  0  0  0  0  0
   43.9510   36.8920   44.5470 H   0  0  0  0  0  0  0  0  0  0  0  0
   45.2730   33.6550   46.7450 H   0  0  0  0  0  0  0  0  0  0  0  0
   47.7860   33.5000   39.8420 O   0  0  0  0  0  0  0  0  0  0  0  0
   48.4350   34.5830   37.4840 O   0  0  0  0  0  0  0  0  0  0  0  0
   48.4070   33.2930   38.2870 P   0  0  1  0  0  0  0  0  0  0  0  0
   50.0130   32.7450   38.4360 O   0  0  0  0  0  0  0  0  0  0  0  0
   50.2930   32.6860   39.3810 H   0  0  0  0  0  0  0  0  0  0  0  0
   47.5100   32.0990   37.4810 O   0  0  0  0  0  0  0  0  0  0  0  0
   46.4180   32.0500   35.2370 C   0  0  0  0  0  0  0  0  0  0  0  0
   47.5140   32.1440   36.0740 C   0  0  0  0  0  0  0  0  0  0  0  0
   48.7870   32.3020   35.5440 C   0  0  0  0  0  0  0  0  0  0  0  0
   49.6850   32.3810   36.1430 H   0  0  0  0  0  0  0  0  0  0  0  0
   48.9810   32.3670   34.1790 C   0  0  0  0  0  0  0  0  0  0  0  0
   50.0450   32.5110   33.3520 N   0  0  0  0  0  0  0  0  0  0  0  0
   49.6860   32.5130   32.0730 C   0  0  0  0  0  0  0  0  0  0  0  0
   50.4250   32.6190   31.2720 H   0  0  0  0  0  0  0  0  0  0  0  0
   48.3340   32.3640   32.0630 N   0  0  0  0  0  0  0  0  0  0  0  0
   47.8910   32.2740   33.3300 C   0  0  0  0  0  0  0  0  0  0  0  0
   46.6380   32.1190   33.8680 C   0  0  0  0  0  0  0  0  0  0  0  0
   51.0150   32.6050   33.7580 H   0  0  0  0  0  0  0  0  0  0  0  0
  1  4  1  1  0  0  0
  1  8  1  0  0  0  0
  2  1  1  0  0  0  0
  2  5  1  0  0  0  0
  3  7  1  6  0  0  0
  3  2  1  0  0  0  0
  3  1  1  0  0  0  0
  6  2  1  0  0  0  0
  8 10  1  0  0  0  0
  8 11  1  0  0  0  0
  9  8  1  0  0  0  0
 11 16  1  0  0  0  0
 12 11  2  0  0  0  0
 12 13  1  0  0  0  0
 13 18  1  0  0  0  0
 13 14  2  0  0  0  0
 14 15  1  0  0  0  0
 15 19  1  0  0  0  0
 16 15  2  0  0  0  0
 17 12  1  0  0  0  0
 20  3  1  0  0  0  0
 22 21  2  6  0  0  0
 22 23  1  0  0  0  0
 22 20  1  0  0  0  0
 23 24  1  0  0  0  0
 25 22  1  0  0  0  0
 26 27  1  0  0  0  0
 27 25  1  0  0  0  0
 28 27  2  0  0  0  0
 28 29  1  0  0  0  0
 30 28  1  0  0  0  0
 31 37  1  0  0  0  0
 31 30  1  0  0  0  0
 32 31  1  0  0  0  0
 33 32  1  0  0  0  0
 34 32  2  0  0  0  0
 34 35  1  0  0  0  0
 35 36  1  0  0  0  0
 35 30  2  0  0  0  0
 36 26  2  0  0  0  0
M  END
>  <minimizedAffinity>
-5.97631216

>  <minimizedRMSD>
0.902828813

$$$$
