
 OpenBabel03242520033D

 28 31  0  0  0  0  0  0  0  0999 V2000
   37.2190   26.5610   41.6080 C   0  0  0  0  0  0  0  0  0  0  0  0
   36.8670   26.7830   42.9430 C   0  0  0  0  0  0  0  0  0  0  0  0
   37.1380   28.0830   43.2320 C   0  0  0  0  0  0  0  0  0  0  0  0
   37.6400   28.6400   42.1170 N   0  0  0  0  0  0  0  0  0  0  0  0
   37.6870   27.7230   41.1430 N   0  0  0  0  0  0  0  0  0  0  0  0
   36.4510   26.0870   43.6580 H   0  0  0  0  0  0  0  0  0  0  0  0
   37.0320   28.6870   44.1180 H   0  0  0  0  0  0  0  0  0  0  0  0
   39.4050   30.3820   42.0380 C   0  0  0  0  0  3  0  0  0  0  0  0
   38.1140   29.9320   41.7450 C   0  0  0  0  0  0  0  0  0  0  0  0
   37.2420   30.7730   41.0600 C   0  0  0  0  0  0  0  0  0  0  0  0
   36.2180   30.4720   40.8030 H   0  0  0  0  0  0  0  0  0  0  0  0
   37.6160   32.0560   40.6550 C   0  0  0  0  0  0  0  0  0  0  0  0
   36.9770   33.0370   39.9980 N   0  0  0  0  0  0  0  0  0  0  0  0
   37.8070   34.0730   39.8700 C   0  0  0  0  0  0  0  0  0  0  0  0
   37.5750   35.0160   39.3820 H   0  0  0  0  0  0  0  0  0  0  0  0
   38.9810   33.7280   40.4570 N   0  0  0  0  0  0  0  0  0  0  0  0
   38.8820   32.4710   40.9550 C   0  0  0  0  0  0  0  0  0  0  0  0
   39.7760   31.6600   41.6350 C   0  0  0  0  0  3  0  0  0  0  0  0
   36.0060   33.0290   39.6370 H   0  0  0  0  0  0  0  0  0  0  0  0
   37.5920   23.0190   40.7080 C   0  0  0  0  0  0  0  0  0  0  0  0
   36.8310   22.9340   39.5290 C   0  0  0  0  0  0  0  0  0  0  0  0
   36.1860   24.1080   39.0440 C   0  0  0  0  0  0  0  0  0  0  0  0
   36.3460   25.2560   39.7590 N   0  0  0  0  0  0  0  0  0  0  0  0
   37.0870   25.2980   40.8900 C   0  0  0  0  0  0  0  0  0  0  0  0
   37.7040   24.1910   41.3610 N   0  0  0  0  0  0  0  0  0  0  0  0
   38.1020   22.1870   41.1320 H   0  0  0  0  0  0  0  0  0  0  0  0
   36.7490   21.9890   39.0140 H   0  0  0  0  0  0  0  0  0  0  0  0
   35.5980   24.0530   38.1370 H   0  0  0  0  0  0  0  0  0  0  0  0
  1  2  1  0  0  0  0
  2  3  2  0  0  0  0
  2  6  1  0  0  0  0
  3  7  1  0  0  0  0
  4  3  1  0  0  0  0
  5  1  2  0  0  0  0
  5  4  1  0  0  0  0
  9  8  1  0  0  0  0
  9  4  1  0  0  0  0
 10  9  2  0  0  0  0
 11 10  1  0  0  0  0
 12 17  2  0  0  0  0
 12 10  1  0  0  0  0
 13 12  1  0  0  0  0
 14 13  1  0  0  0  0
 14 16  2  0  0  0  0
 15 14  1  0  0  0  0
 16 17  1  0  0  0  0
 17 18  1  0  0  0  0
 18  8  2  0  0  0  0
 19 13  1  0  0  0  0
 20 26  1  0  0  0  0
 20 25  1  0  0  0  0
 21 20  2  0  0  0  0
 22 21  1  0  0  0  0
 22 23  2  0  0  0  0
 23 24  1  0  0  0  0
 24 25  2  0  0  0  0
 24  1  1  0  0  0  0
 27 21  1  0  0  0  0
 28 22  1  0  0  0  0
M  END
>  <minimizedAffinity>
-5.59628105

$$$$

 OpenBabel03242520033D

 28 31  0  0  0  0  0  0  0  0999 V2000
   37.5080   27.1650   41.7980 C   0  0  0  0  0  0  0  0  0  0  0  0
   37.5280   27.4850   43.1590 C   0  0  0  0  0  0  0  0  0  0  0  0
   37.7270   28.8260   43.2670 C   0  0  0  0  0  0  0  0  0  0  0  0
   37.8260   29.3120   42.0180 N   0  0  0  0  0  0  0  0  0  0  0  0
   37.6940   28.3120   41.1380 N   0  0  0  0  0  0  0  0  0  0  0  0
   37.4130   26.8290   44.0100 H   0  0  0  0  0  0  0  0  0  0  0  0
   37.8110   29.5020   44.1010 H   0  0  0  0  0  0  0  0  0  0  0  0
   37.0420   31.2710   40.7130 C   0  0  0  0  0  3  0  0  0  0  0  0
   38.0300   30.5970   41.4360 C   0  0  0  0  0  0  0  0  0  0  0  0
   39.2760   31.1970   41.6030 C   0  0  0  0  0  0  0  0  0  0  0  0
   40.0890   30.7140   42.1620 H   0  0  0  0  0  0  0  0  0  0  0  0
   39.5700   32.4530   41.0700 C   0  0  0  0  0  0  0  0  0  0  0  0
   40.6660   33.2280   41.0900 N   0  0  0  0  0  0  0  0  0  0  0  0
   40.4060   34.3490   40.4150 C   0  0  0  0  0  0  0  0  0  0  0  0
   41.1000   35.1700   40.2580 H   0  0  0  0  0  0  0  0  0  0  0  0
   39.1270   34.2670   39.9690 N   0  0  0  0  0  0  0  0  0  0  0  0
   38.5860   33.0890   40.3680 C   0  0  0  0  0  0  0  0  0  0  0  0
   37.3370   32.5230   40.1820 C   0  0  0  0  0  3  0  0  0  0  0  0
   41.5760   33.0250   41.5410 H   0  0  0  0  0  0  0  0  0  0  0  0
   36.4290   24.4560   39.5650 C   0  0  0  0  0  0  0  0  0  0  0  0
   36.9640   23.3210   40.2000 C   0  0  0  0  0  0  0  0  0  0  0  0
   37.7020   23.4960   41.4060 C   0  0  0  0  0  0  0  0  0  0  0  0
   37.8480   24.7650   41.8780 N   0  0  0  0  0  0  0  0  0  0  0  0
   37.3170   25.8310   41.2380 C   0  0  0  0  0  0  0  0  0  0  0  0
   36.6150   25.6800   40.0930 N   0  0  0  0  0  0  0  0  0  0  0  0
   35.8670   24.4060   38.6620 H   0  0  0  0  0  0  0  0  0  0  0  0
   36.8080   22.3440   39.7670 H   0  0  0  0  0  0  0  0  0  0  0  0
   38.1180   22.6280   41.9020 H   0  0  0  0  0  0  0  0  0  0  0  0
  1  2  1  0  0  0  0
  2  3  2  0  0  0  0
  2  6  1  0  0  0  0
  3  7  1  0  0  0  0
  4  3  1  0  0  0  0
  5  1  2  0  0  0  0
  5  4  1  0  0  0  0
  8  9  1  0  0  0  0
  9 10  2  0  0  0  0
  9  4  1  0  0  0  0
 10 11  1  0  0  0  0
 12 13  1  0  0  0  0
 12 10  1  0  0  0  0
 13 19  1  0  0  0  0
 14 13  1  0  0  0  0
 15 14  1  0  0  0  0
 16 17  1  0  0  0  0
 16 14  2  0  0  0  0
 17 12  2  0  0  0  0
 18 17  1  0  0  0  0
 18  8  2  0  0  0  0
 20 25  2  0  0  0  0
 20 21  1  0  0  0  0
 21 22  2  0  0  0  0
 22 23  1  0  0  0  0
 22 28  1  0  0  0  0
 24  1  1  0  0  0  0
 24 23  2  0  0  0  0
 25 24  1  0  0  0  0
 26 20  1  0  0  0  0
 27 21  1  0  0  0  0
M  END
>  <minimizedAffinity>
-5.50957203

$$$$

 OpenBabel03242520033D

 28 31  0  0  0  0  0  0  0  0999 V2000
   38.5270   31.6330   39.9660 C   0  0  0  0  0  0  0  0  0  0  0  0
   37.2490   32.1230   40.2560 C   0  0  0  0  0  0  0  0  0  0  0  0
   36.5450   31.1210   40.8440 C   0  0  0  0  0  0  0  0  0  0  0  0
   37.3590   30.0530   40.9130 N   0  0  0  0  0  0  0  0  0  0  0  0
   38.5480   30.3640   40.3850 N   0  0  0  0  0  0  0  0  0  0  0  0
   36.8440   33.1070   40.0690 H   0  0  0  0  0  0  0  0  0  0  0  0
   35.5410   31.0410   41.2280 H   0  0  0  0  0  0  0  0  0  0  0  0
   37.2900   28.3990   42.7610 C   0  0  0  0  0  3  0  0  0  0  0  0
   37.2520   28.7180   41.4000 C   0  0  0  0  0  0  0  0  0  0  0  0
   37.1030   27.6940   40.4680 C   0  0  0  0  0  0  0  0  0  0  0  0
   37.0660   27.8860   39.3870 H   0  0  0  0  0  0  0  0  0  0  0  0
   36.9910   26.3570   40.8500 C   0  0  0  0  0  0  0  0  0  0  0  0
   36.8430   25.2120   40.1630 N   0  0  0  0  0  0  0  0  0  0  0  0
   36.7890   24.2000   41.0300 C   0  0  0  0  0  0  0  0  0  0  0  0
   36.6720   23.1510   40.7730 H   0  0  0  0  0  0  0  0  0  0  0  0
   36.9040   24.7260   42.2760 N   0  0  0  0  0  0  0  0  0  0  0  0
   37.0320   26.0730   42.1850 C   0  0  0  0  0  0  0  0  0  0  0  0
   37.1790   27.0650   43.1390 C   0  0  0  0  0  3  0  0  0  0  0  0
   36.7790   25.0950   39.1350 H   0  0  0  0  0  0  0  0  0  0  0  0
   41.1350   32.6240   37.5780 C   0  0  0  0  0  0  0  0  0  0  0  0
   41.6310   33.8050   38.1580 C   0  0  0  0  0  0  0  0  0  0  0  0
   41.0590   34.2600   39.3800 C   0  0  0  0  0  0  0  0  0  0  0  0
   40.0540   33.5170   39.9210 N   0  0  0  0  0  0  0  0  0  0  0  0
   39.6050   32.3850   39.3330 C   0  0  0  0  0  0  0  0  0  0  0  0
   40.1390   31.9420   38.1730 N   0  0  0  0  0  0  0  0  0  0  0  0
   41.5120   32.2220   36.6670 H   0  0  0  0  0  0  0  0  0  0  0  0
   42.4310   34.3440   37.6720 H   0  0  0  0  0  0  0  0  0  0  0  0
   41.4340   35.1690   39.8340 H   0  0  0  0  0  0  0  0  0  0  0  0
  1  2  1  0  0  0  0
  1  5  2  0  0  0  0
  2  3  2  0  0  0  0
  3  4  1  0  0  0  0
  3  7  1  0  0  0  0
  4  9  1  0  0  0  0
  5  4  1  0  0  0  0
  6  2  1  0  0  0  0
  8 18  1  0  0  0  0
  9  8  2  0  0  0  0
 10 12  2  0  0  0  0
 10  9  1  0  0  0  0
 11 10  1  0  0  0  0
 12 17  1  0  0  0  0
 13 12  1  0  0  0  0
 13 14  1  0  0  0  0
 14 16  2  0  0  0  0
 15 14  1  0  0  0  0
 17 16  1  0  0  0  0
 17 18  2  0  0  0  0
 19 13  1  0  0  0  0
 20 21  2  0  0  0  0
 20 25  1  0  0  0  0
 21 22  1  0  0  0  0
 22 28  1  0  0  0  0
 22 23  2  0  0  0  0
 24 23  1  0  0  0  0
 24  1  1  0  0  0  0
 25 24  2  0  0  0  0
 26 20  1  0  0  0  0
 27 21  1  0  0  0  0
M  END
>  <minimizedAffinity>
-5.44161224

$$$$

 OpenBabel03242520033D

 28 31  0  0  0  0  0  0  0  0999 V2000
   38.2310   30.0340   41.6310 C   0  0  0  0  0  0  0  0  0  0  0  0
   38.6320   29.6710   42.9210 C   0  0  0  0  0  0  0  0  0  0  0  0
   38.3790   28.3440   43.0760 C   0  0  0  0  0  0  0  0  0  0  0  0
   37.8420   27.9070   41.9240 N   0  0  0  0  0  0  0  0  0  0  0  0
   37.7550   28.9240   41.0580 N   0  0  0  0  0  0  0  0  0  0  0  0
   39.0680   30.2900   43.6930 H   0  0  0  0  0  0  0  0  0  0  0  0
   38.5200   27.6480   43.8860 H   0  0  0  0  0  0  0  0  0  0  0  0
   37.3370   25.4940   42.2020 C   0  0  0  0  0  3  0  0  0  0  0  0
   37.3630   26.6590   41.4300 C   0  0  0  0  0  0  0  0  0  0  0  0
   36.9030   26.6120   40.1170 C   0  0  0  0  0  0  0  0  0  0  0  0
   36.8990   27.4950   39.4640 H   0  0  0  0  0  0  0  0  0  0  0  0
   36.4160   25.4350   39.5450 C   0  0  0  0  0  0  0  0  0  0  0  0
   35.9270   25.1350   38.3310 N   0  0  0  0  0  0  0  0  0  0  0  0
   35.6010   23.8420   38.3130 C   0  0  0  0  0  0  0  0  0  0  0  0
   35.1790   23.3060   37.4660 H   0  0  0  0  0  0  0  0  0  0  0  0
   35.8920   23.3310   39.5360 N   0  0  0  0  0  0  0  0  0  0  0  0
   36.4030   24.3120   40.3210 C   0  0  0  0  0  0  0  0  0  0  0  0
   36.8520   24.3230   41.6310 C   0  0  0  0  0  3  0  0  0  0  0  0
   35.8090   25.7710   37.5210 H   0  0  0  0  0  0  0  0  0  0  0  0
   39.5630   33.3260   40.6960 C   0  0  0  0  0  0  0  0  0  0  0  0
   38.4990   33.8750   39.9570 C   0  0  0  0  0  0  0  0  0  0  0  0
   37.3170   33.1000   39.7820 C   0  0  0  0  0  0  0  0  0  0  0  0
   37.2850   31.8610   40.3460 N   0  0  0  0  0  0  0  0  0  0  0  0
   38.3300   31.3690   41.0510 C   0  0  0  0  0  0  0  0  0  0  0  0
   39.4580   32.0930   41.2240 N   0  0  0  0  0  0  0  0  0  0  0  0
   40.4770   33.8440   40.8690 H   0  0  0  0  0  0  0  0  0  0  0  0
   38.5950   34.8650   39.5380 H   0  0  0  0  0  0  0  0  0  0  0  0
   36.4920   33.5130   39.2150 H   0  0  0  0  0  0  0  0  0  0  0  0
  1  2  1  0  0  0  0
  2  3  2  0  0  0  0
  2  6  1  0  0  0  0
  3  7  1  0  0  0  0
  4  3  1  0  0  0  0
  5  1  2  0  0  0  0
  5  4  1  0  0  0  0
  9  4  1  0  0  0  0
  9  8  2  0  0  0  0
 10  9  1  0  0  0  0
 11 10  1  0  0  0  0
 12 10  2  0  0  0  0
 12 17  1  0  0  0  0
 13 12  1  0  0  0  0
 14 13  1  0  0  0  0
 14 16  2  0  0  0  0
 15 14  1  0  0  0  0
 16 17  1  0  0  0  0
 17 18  2  0  0  0  0
 18  8  1  0  0  0  0
 19 13  1  0  0  0  0
 20 26  1  0  0  0  0
 20 25  1  0  0  0  0
 21 20  2  0  0  0  0
 22 21  1  0  0  0  0
 22 23  2  0  0  0  0
 23 24  1  0  0  0  0
 24 25  2  0  0  0  0
 24  1  1  0  0  0  0
 27 21  1  0  0  0  0
 28 22  1  0  0  0  0
M  END
>  <minimizedAffinity>
-5.26207066

$$$$

 OpenBabel03242520033D

 28 31  0  0  0  0  0  0  0  0999 V2000
   38.5690   30.2030   41.5730 C   0  0  0  0  0  0  0  0  0  0  0  0
   38.7310   29.8050   42.9050 C   0  0  0  0  0  0  0  0  0  0  0  0
   38.4530   28.4770   42.9780 C   0  0  0  0  0  0  0  0  0  0  0  0
   38.1320   28.0720   41.7370 N   0  0  0  0  0  0  0  0  0  0  0  0
   38.2030   29.1100   40.8960 N   0  0  0  0  0  0  0  0  0  0  0  0
   39.0210   30.4030   43.7580 H   0  0  0  0  0  0  0  0  0  0  0  0
   38.4450   27.7610   43.7820 H   0  0  0  0  0  0  0  0  0  0  0  0
   36.7800   26.7510   40.1300 C   0  0  0  0  0  3  0  0  0  0  0  0
   37.7490   26.8390   41.1340 C   0  0  0  0  0  0  0  0  0  0  0  0
   38.3760   25.6760   41.5740 C   0  0  0  0  0  0  0  0  0  0  0  0
   39.1440   25.6850   42.3590 H   0  0  0  0  0  0  0  0  0  0  0  0
   38.0670   24.4230   41.0440 C   0  0  0  0  0  0  0  0  0  0  0  0
   38.5170   23.1810   41.2900 N   0  0  0  0  0  0  0  0  0  0  0  0
   37.8750   22.3300   40.4890 C   0  0  0  0  0  0  0  0  0  0  0  0
   38.0250   21.2540   40.4570 H   0  0  0  0  0  0  0  0  0  0  0  0
   37.0120   23.0540   39.7330 N   0  0  0  0  0  0  0  0  0  0  0  0
   37.1170   24.3650   40.0640 C   0  0  0  0  0  0  0  0  0  0  0  0
   36.4730   25.5010   39.6030 C   0  0  0  0  0  3  0  0  0  0  0  0
   39.2380   22.8950   41.9770 H   0  0  0  0  0  0  0  0  0  0  0  0
   37.8920   33.4900   40.0810 C   0  0  0  0  0  0  0  0  0  0  0  0
   39.1680   34.0810   40.0820 C   0  0  0  0  0  0  0  0  0  0  0  0
   40.2660   33.3380   40.6030 C   0  0  0  0  0  0  0  0  0  0  0  0
   40.0140   32.0860   41.0740 N   0  0  0  0  0  0  0  0  0  0  0  0
   38.7720   31.5510   41.0540 C   0  0  0  0  0  0  0  0  0  0  0  0
   37.7210   32.2450   40.5640 N   0  0  0  0  0  0  0  0  0  0  0  0
   37.0250   33.9810   39.7080 H   0  0  0  0  0  0  0  0  0  0  0  0
   39.2940   35.0800   39.6920 H   0  0  0  0  0  0  0  0  0  0  0  0
   41.2520   33.7850   40.6080 H   0  0  0  0  0  0  0  0  0  0  0  0
  1  2  1  0  0  0  0
  2  3  2  0  0  0  0
  2  6  1  0  0  0  0
  3  7  1  0  0  0  0
  4  3  1  0  0  0  0
  5  1  2  0  0  0  0
  5  4  1  0  0  0  0
  8  9  1  0  0  0  0
  9 10  2  0  0  0  0
  9  4  1  0  0  0  0
 10 11  1  0  0  0  0
 12 13  1  0  0  0  0
 12 10  1  0  0  0  0
 13 19  1  0  0  0  0
 14 13  1  0  0  0  0
 15 14  1  0  0  0  0
 16 17  1  0  0  0  0
 16 14  2  0  0  0  0
 17 12  2  0  0  0  0
 18 17  1  0  0  0  0
 18  8  2  0  0  0  0
 20 21  2  0  0  0  0
 20 25  1  0  0  0  0
 21 22  1  0  0  0  0
 22 28  1  0  0  0  0
 22 23  2  0  0  0  0
 24 23  1  0  0  0  0
 24  1  1  0  0  0  0
 25 24  2  0  0  0  0
 26 20  1  0  0  0  0
 27 21  1  0  0  0  0
M  END
>  <minimizedAffinity>
-5.09035015

$$$$

 OpenBabel03242520033D

 28 31  0  0  0  0  0  0  0  0999 V2000
   32.7360   29.0630   37.2620 C   0  0  0  0  0  0  0  0  0  0  0  0
   33.1540   28.0840   36.3550 C   0  0  0  0  0  0  0  0  0  0  0  0
   34.2480   27.4730   36.8790 C   0  0  0  0  0  0  0  0  0  0  0  0
   34.4960   28.0540   38.0650 N   0  0  0  0  0  0  0  0  0  0  0  0
   33.5860   29.0090   38.2930 N   0  0  0  0  0  0  0  0  0  0  0  0
   32.7230   27.8210   35.3990 H   0  0  0  0  0  0  0  0  0  0  0  0
   34.8920   26.6780   36.5390 H   0  0  0  0  0  0  0  0  0  0  0  0
   36.3820   26.8380   39.1240 C   0  0  0  0  0  3  0  0  0  0  0  0
   35.4660   27.8940   39.0970 C   0  0  0  0  0  0  0  0  0  0  0  0
   35.4910   28.8400   40.1190 C   0  0  0  0  0  0  0  0  0  0  0  0
   34.7960   29.6890   40.1490 H   0  0  0  0  0  0  0  0  0  0  0  0
   36.4030   28.7670   41.1730 C   0  0  0  0  0  0  0  0  0  0  0  0
   36.6270   29.5330   42.2530 N   0  0  0  0  0  0  0  0  0  0  0  0
   37.6350   29.0040   42.9470 C   0  0  0  0  0  0  0  0  0  0  0  0
   38.0450   29.4020   43.8720 H   0  0  0  0  0  0  0  0  0  0  0  0
   38.0440   27.8920   42.2870 N   0  0  0  0  0  0  0  0  0  0  0  0
   37.2860   27.7250   41.1750 C   0  0  0  0  0  0  0  0  0  0  0  0
   37.2900   26.7670   40.1750 C   0  0  0  0  0  3  0  0  0  0  0  0
   36.1230   30.3940   42.5320 H   0  0  0  0  0  0  0  0  0  0  0  0
   29.6690   30.9540   37.9750 C   0  0  0  0  0  0  0  0  0  0  0  0
   29.4460   31.6220   36.7580 C   0  0  0  0  0  0  0  0  0  0  0  0
   30.3630   31.4170   35.6870 C   0  0  0  0  0  0  0  0  0  0  0  0
   31.4120   30.5770   35.9070 N   0  0  0  0  0  0  0  0  0  0  0  0
   31.5920   29.9520   37.0930 C   0  0  0  0  0  0  0  0  0  0  0  0
   30.7300   30.1380   38.1170 N   0  0  0  0  0  0  0  0  0  0  0  0
   29.0300   31.0560   38.8200 H   0  0  0  0  0  0  0  0  0  0  0  0
   28.5920   32.2740   36.6560 H   0  0  0  0  0  0  0  0  0  0  0  0
   30.1990   31.9260   34.7460 H   0  0  0  0  0  0  0  0  0  0  0  0
  1  5  2  0  0  0  0
  2  3  2  0  0  0  0
  2  1  1  0  0  0  0
  3  4  1  0  0  0  0
  4  5  1  0  0  0  0
  4  9  1  0  0  0  0
  6  2  1  0  0  0  0
  7  3  1  0  0  0  0
  8 18  1  0  0  0  0
  9  8  2  0  0  0  0
  9 10  1  0  0  0  0
 10 11  1  0  0  0  0
 10 12  2  0  0  0  0
 12 17  1  0  0  0  0
 12 13  1  0  0  0  0
 13 19  1  0  0  0  0
 13 14  1  0  0  0  0
 14 15  1  0  0  0  0
 16 14  2  0  0  0  0
 17 16  1  0  0  0  0
 18 17  2  0  0  0  0
 20 25  1  0  0  0  0
 20 26  1  0  0  0  0
 21 20  2  0  0  0  0
 22 23  2  0  0  0  0
 22 21  1  0  0  0  0
 23 24  1  0  0  0  0
 24  1  1  0  0  0  0
 24 25  2  0  0  0  0
 27 21  1  0  0  0  0
 28 22  1  0  0  0  0
M  END
>  <minimizedAffinity>
-4.87818575

$$$$

 OpenBabel03242520033D

 28 31  0  0  0  0  0  0  0  0999 V2000
   37.7410   31.7430   38.6120 C   0  0  0  0  0  0  0  0  0  0  0  0
   37.2580   32.7190   39.4890 C   0  0  0  0  0  0  0  0  0  0  0  0
   38.3130   33.4780   39.8870 C   0  0  0  0  0  0  0  0  0  0  0  0
   39.4060   32.9860   39.2780 N   0  0  0  0  0  0  0  0  0  0  0  0
   39.0590   31.9440   38.5130 N   0  0  0  0  0  0  0  0  0  0  0  0
   36.2430   32.8860   39.8230 H   0  0  0  0  0  0  0  0  0  0  0  0
   38.4150   34.3250   40.5450 H   0  0  0  0  0  0  0  0  0  0  0  0
   41.4440   33.9420   40.3220 C   0  0  0  0  0  3  0  0  0  0  0  0
   40.7940   33.3060   39.2600 C   0  0  0  0  0  0  0  0  0  0  0  0
   41.5260   32.9640   38.1250 C   0  0  0  0  0  0  0  0  0  0  0  0
   41.0690   32.4620   37.2620 H   0  0  0  0  0  0  0  0  0  0  0  0
   42.8900   33.2370   38.0140 C   0  0  0  0  0  0  0  0  0  0  0  0
   43.7990   33.0140   37.0510 N   0  0  0  0  0  0  0  0  0  0  0  0
   44.9780   33.4810   37.4630 C   0  0  0  0  0  0  0  0  0  0  0  0
   45.9060   33.4450   36.9000 H   0  0  0  0  0  0  0  0  0  0  0  0
   44.7980   34.0020   38.7030 N   0  0  0  0  0  0  0  0  0  0  0  0
   43.4990   33.8590   39.0660 C   0  0  0  0  0  0  0  0  0  0  0  0
   42.8030   34.2130   40.2090 C   0  0  0  0  0  3  0  0  0  0  0  0
   43.6480   32.5600   36.1310 H   0  0  0  0  0  0  0  0  0  0  0  0
   36.4020   29.5250   36.0080 C   0  0  0  0  0  0  0  0  0  0  0  0
   35.4270   28.7990   36.7140 C   0  0  0  0  0  0  0  0  0  0  0  0
   35.2330   29.0780   38.0980 C   0  0  0  0  0  0  0  0  0  0  0  0
   36.0130   30.0420   38.6620 N   0  0  0  0  0  0  0  0  0  0  0  0
   36.9400   30.7200   37.9480 C   0  0  0  0  0  0  0  0  0  0  0  0
   37.1340   30.4650   36.6350 N   0  0  0  0  0  0  0  0  0  0  0  0
   36.6040   29.3740   34.9750 H   0  0  0  0  0  0  0  0  0  0  0  0
   34.8450   28.0480   36.2010 H   0  0  0  0  0  0  0  0  0  0  0  0
   34.4850   28.5240   38.6500 H   0  0  0  0  0  0  0  0  0  0  0  0
  1  2  1  0  0  0  0
  2  6  1  0  0  0  0
  2  3  2  0  0  0  0
  3  7  1  0  0  0  0
  4  3  1  0  0  0  0
  5  1  2  0  0  0  0
  5  4  1  0  0  0  0
  9  4  1  0  0  0  0
  9  8  2  0  0  0  0
 10  9  1  0  0  0  0
 11 10  1  0  0  0  0
 12 10  2  0  0  0  0
 12 17  1  0  0  0  0
 13 14  1  0  0  0  0
 13 12  1  0  0  0  0
 14 16  2  0  0  0  0
 15 14  1  0  0  0  0
 16 17  1  0  0  0  0
 17 18  2  0  0  0  0
 18  8  1  0  0  0  0
 19 13  1  0  0  0  0
 20 25  2  0  0  0  0
 20 21  1  0  0  0  0
 21 22  2  0  0  0  0
 22 28  1  0  0  0  0
 22 23  1  0  0  0  0
 24  1  1  0  0  0  0
 24 23  2  0  0  0  0
 25 24  1  0  0  0  0
 26 20  1  0  0  0  0
 27 21  1  0  0  0  0
M  END
>  <minimizedAffinity>
-4.83884287

$$$$

 OpenBabel03242520033D

 28 31  0  0  0  0  0  0  0  0999 V2000
   34.9670   29.1950   38.6810 C   0  0  0  0  0  0  0  0  0  0  0  0
   34.7880   29.1850   40.0680 C   0  0  0  0  0  0  0  0  0  0  0  0
   35.7930   29.9140   40.6210 C   0  0  0  0  0  0  0  0  0  0  0  0
   36.5620   30.3570   39.6110 N   0  0  0  0  0  0  0  0  0  0  0  0
   36.0640   29.9230   38.4470 N   0  0  0  0  0  0  0  0  0  0  0  0
   34.0130   28.7020   40.6460 H   0  0  0  0  0  0  0  0  0  0  0  0
   36.0560   30.1740   41.6330 H   0  0  0  0  0  0  0  0  0  0  0  0
   38.2880   31.8580   40.5730 C   0  0  0  0  0  3  0  0  0  0  0  0
   37.7400   31.1510   39.4980 C   0  0  0  0  0  0  0  0  0  0  0  0
   38.3630   31.2180   38.2550 C   0  0  0  0  0  0  0  0  0  0  0  0
   37.9780   30.6830   37.3760 H   0  0  0  0  0  0  0  0  0  0  0  0
   39.5210   31.9700   38.0460 C   0  0  0  0  0  0  0  0  0  0  0  0
   40.2940   32.1920   36.9710 N   0  0  0  0  0  0  0  0  0  0  0  0
   41.2920   33.0020   37.3260 C   0  0  0  0  0  0  0  0  0  0  0  0
   42.0810   33.3610   36.6710 H   0  0  0  0  0  0  0  0  0  0  0  0
   41.1370   33.2860   38.6440 N   0  0  0  0  0  0  0  0  0  0  0  0
   40.0340   32.6510   39.1130 C   0  0  0  0  0  0  0  0  0  0  0  0
   39.4410   32.6070   40.3630 C   0  0  0  0  0  3  0  0  0  0  0  0
   40.1680   31.8170   36.0130 H   0  0  0  0  0  0  0  0  0  0  0  0
   32.3280   28.6400   36.1870 C   0  0  0  0  0  0  0  0  0  0  0  0
   32.5000   27.2800   35.8760 C   0  0  0  0  0  0  0  0  0  0  0  0
   33.5340   26.5520   36.5310 C   0  0  0  0  0  0  0  0  0  0  0  0
   34.3050   27.2250   37.4310 N   0  0  0  0  0  0  0  0  0  0  0  0
   34.1070   28.5340   37.7040 C   0  0  0  0  0  0  0  0  0  0  0  0
   33.1300   29.2360   37.0890 N   0  0  0  0  0  0  0  0  0  0  0  0
   31.5780   29.2480   35.7390 H   0  0  0  0  0  0  0  0  0  0  0  0
   31.8510   26.8120   35.1510 H   0  0  0  0  0  0  0  0  0  0  0  0
   33.6740   25.5050   36.2980 H   0  0  0  0  0  0  0  0  0  0  0  0
  1  2  1  0  0  0  0
  2  3  2  0  0  0  0
  2  6  1  0  0  0  0
  3  7  1  0  0  0  0
  4  3  1  0  0  0  0
  5  1  2  0  0  0  0
  5  4  1  0  0  0  0
  9  4  1  0  0  0  0
  9  8  2  0  0  0  0
 10  9  1  0  0  0  0
 11 10  1  0  0  0  0
 12 10  2  0  0  0  0
 12 17  1  0  0  0  0
 13 14  1  0  0  0  0
 13 12  1  0  0  0  0
 14 16  2  0  0  0  0
 15 14  1  0  0  0  0
 16 17  1  0  0  0  0
 17 18  2  0  0  0  0
 18  8  1  0  0  0  0
 19 13  1  0  0  0  0
 20 25  1  0  0  0  0
 21 20  2  0  0  0  0
 21 22  1  0  0  0  0
 22 23  2  0  0  0  0
 23 24  1  0  0  0  0
 24  1  1  0  0  0  0
 25 24  2  0  0  0  0
 26 20  1  0  0  0  0
 27 21  1  0  0  0  0
 28 22  1  0  0  0  0
M  END
>  <minimizedAffinity>
-4.83478642

$$$$

 OpenBabel03242520033D

 28 31  0  0  0  0  0  0  0  0999 V2000
   40.2060   31.0750   40.6170 C   0  0  0  0  0  0  0  0  0  0  0  0
   40.2520   31.5320   41.9380 C   0  0  0  0  0  0  0  0  0  0  0  0
   39.6190   30.6150   42.7160 C   0  0  0  0  0  0  0  0  0  0  0  0
   39.1990   29.6300   41.9040 N   0  0  0  0  0  0  0  0  0  0  0  0
   39.5530   29.9090   40.6440 N   0  0  0  0  0  0  0  0  0  0  0  0
   40.6940   32.4400   42.3250 H   0  0  0  0  0  0  0  0  0  0  0  0
   39.4140   30.5480   43.7720 H   0  0  0  0  0  0  0  0  0  0  0  0
   37.3660   28.2780   42.8880 C   0  0  0  0  0  3  0  0  0  0  0  0
   38.4920   28.4040   42.0680 C   0  0  0  0  0  0  0  0  0  0  0  0
   38.9550   27.2870   41.3760 C   0  0  0  0  0  0  0  0  0  0  0  0
   39.8330   27.3280   40.7190 H   0  0  0  0  0  0  0  0  0  0  0  0
   38.3290   26.0440   41.4740 C   0  0  0  0  0  0  0  0  0  0  0  0
   38.5720   24.8440   40.9230 N   0  0  0  0  0  0  0  0  0  0  0  0
   37.6540   23.9810   41.3610 C   0  0  0  0  0  0  0  0  0  0  0  0
   37.5900   22.9310   41.0890 H   0  0  0  0  0  0  0  0  0  0  0  0
   36.8260   24.6570   42.1970 N   0  0  0  0  0  0  0  0  0  0  0  0
   37.2310   25.9490   42.2820 C   0  0  0  0  0  0  0  0  0  0  0  0
   36.7440   27.0380   42.9840 C   0  0  0  0  0  3  0  0  0  0  0  0
   39.3340   24.5920   40.2670 H   0  0  0  0  0  0  0  0  0  0  0  0
   41.6290   33.7060   38.4850 C   0  0  0  0  0  0  0  0  0  0  0  0
   41.8310   33.0240   37.2720 C   0  0  0  0  0  0  0  0  0  0  0  0
   41.4740   31.6470   37.1930 C   0  0  0  0  0  0  0  0  0  0  0  0
   40.9520   31.0660   38.3090 N   0  0  0  0  0  0  0  0  0  0  0  0
   40.7720   31.7570   39.4580 C   0  0  0  0  0  0  0  0  0  0  0  0
   41.1070   33.0640   39.5460 N   0  0  0  0  0  0  0  0  0  0  0  0
   41.8700   34.7340   38.6210 H   0  0  0  0  0  0  0  0  0  0  0  0
   42.2500   33.5500   36.4280 H   0  0  0  0  0  0  0  0  0  0  0  0
   41.6270   31.1140   36.2640 H   0  0  0  0  0  0  0  0  0  0  0  0
  1  5  2  0  0  0  0
  1  2  1  0  0  0  0
  2  6  1  0  0  0  0
  2  3  2  0  0  0  0
  3  7  1  0  0  0  0
  4  9  1  0  0  0  0
  4  3  1  0  0  0  0
  5  4  1  0  0  0  0
  8 18  1  0  0  0  0
  9  8  2  0  0  0  0
 10 12  2  0  0  0  0
 10  9  1  0  0  0  0
 11 10  1  0  0  0  0
 12 17  1  0  0  0  0
 13 14  1  0  0  0  0
 13 12  1  0  0  0  0
 14 16  2  0  0  0  0
 15 14  1  0  0  0  0
 16 17  1  0  0  0  0
 17 18  2  0  0  0  0
 19 13  1  0  0  0  0
 20 26  1  0  0  0  0
 20 25  1  0  0  0  0
 21 20  2  0  0  0  0
 22 21  1  0  0  0  0
 22 23  2  0  0  0  0
 23 24  1  0  0  0  0
 24 25  2  0  0  0  0
 24  1  1  0  0  0  0
 27 21  1  0  0  0  0
 28 22  1  0  0  0  0
M  END
>  <minimizedAffinity>
-4.80580139

$$$$
