
 OpenBabel03252509083D

 44 48  0  0  0  0  0  0  0  0999 V2000
   49.3390   33.2610   41.0590 C   0  0  0  0  0  0  0  0  0  0  0  0
   48.5550   34.1730   40.4150 C   0  0  0  0  0  0  0  0  0  0  0  0
   48.4950   35.4760   40.8800 C   0  0  0  0  0  0  0  0  0  0  0  0
   49.2200   35.8570   41.9860 C   0  0  0  0  0  0  0  0  0  0  0  0
   50.0320   34.9580   42.6710 C   0  0  0  0  0  0  0  0  0  0  0  0
   50.0760   33.6470   42.1820 C   0  0  0  0  0  0  0  0  0  0  0  0
   47.8780   36.2180   40.3840 H   0  0  0  0  0  0  0  0  0  0  0  0
   49.2330   36.8370   42.4100 H   0  0  0  0  0  0  0  0  0  0  0  0
   50.6300   35.1630   43.5390 H   0  0  0  0  0  0  0  0  0  0  0  0
   50.7020   32.9190   42.6950 H   0  0  0  0  0  0  0  0  0  0  0  0
   44.1080   32.5700   38.3390 Cl  0  0  0  0  0  0  0  0  0  0  0  0
   45.7560   33.1380   38.2610 C   0  0  0  0  0  0  0  0  0  0  0  0
   46.4540   33.4210   39.3920 C   0  0  0  0  0  0  0  0  0  0  0  0
   47.7580   33.8750   39.2330 C   0  0  0  0  0  0  0  0  0  0  0  0
   48.3220   34.0370   37.9940 C   0  0  0  0  0  0  0  0  0  0  0  0
   47.6120   33.7500   36.8730 C   0  0  0  0  0  0  0  0  0  0  0  0
   46.3140   33.2950   37.0130 C   0  0  0  0  0  0  0  0  0  0  0  0
   49.3440   34.3980   37.9340 H   0  0  0  0  0  0  0  0  0  0  0  0
   48.0920   33.8890   35.9210 H   0  0  0  0  0  0  0  0  0  0  0  0
   45.7790   33.0760   36.1000 H   0  0  0  0  0  0  0  0  0  0  0  0
   44.6220   34.1110   42.6280 C   0  0  0  0  0  0  0  0  0  0  0  0
   45.2340   34.2890   41.3830 C   0  0  0  0  0  0  0  0  0  0  0  0
   45.8210   33.2480   40.6850 C   0  0  0  0  0  0  0  0  0  0  0  0
   45.7420   32.0710   41.3160 N   0  0  0  0  0  0  0  0  0  0  0  0
   45.1640   31.8790   42.5000 C   0  0  0  0  0  0  0  0  0  0  0  0
   44.6070   32.8870   43.1550 N   0  0  0  0  0  0  0  0  0  0  0  0
   44.1780   34.9530   43.1340 H   0  0  0  0  0  0  0  0  0  0  0  0
   45.2520   35.2900   40.9400 H   0  0  0  0  0  0  0  0  0  0  0  0
   45.2070   30.8430   42.8410 H   0  0  0  0  0  0  0  0  0  0  0  0
   49.4340   31.6530   40.5530 S   0  0  0  0  0  0  0  0  0  0  0  0
   50.7940   31.0610   41.0080 O   0  0  0  0  0  0  0  0  0  0  0  0
   48.4210   30.8820   41.3980 O   0  0  0  0  0  0  0  0  0  0  0  0
   48.3270   30.3900   38.3790 C   0  0  0  0  0  0  0  0  0  0  0  0
   49.4130   31.1290   38.9260 C   0  0  0  0  0  0  0  0  0  0  0  0
   50.3220   31.3630   37.9010 C   0  0  0  0  0  0  0  0  0  0  0  0
   51.1900   31.9460   38.1680 H   0  0  0  0  0  0  0  0  0  0  0  0
   50.2550   30.9870   36.5980 C   0  0  0  0  0  0  0  0  0  0  0  0
   51.0590   31.1520   35.5380 N   0  0  0  0  0  0  0  0  0  0  0  0
   50.4380   30.5360   34.4920 C   0  0  0  0  0  0  0  0  0  0  0  0
   50.8580   30.5070   33.4930 H   0  0  0  0  0  0  0  0  0  0  0  0
   49.2610   30.0010   34.9190 N   0  0  0  0  0  0  0  0  0  0  0  0
   49.1340   30.2750   36.2340 C   0  0  0  0  0  0  0  0  0  0  0  0
   48.1170   29.9400   37.0930 C   0  0  0  0  0  0  0  0  0  0  0  0
   51.9660   31.6500   35.5370 H   0  0  0  0  0  0  0  0  0  0  0  0
  1  6  1  0  0  0  0
  2  3  1  0  0  0  0
  2  1  2  0  0  0  0
  3  4  2  0  0  0  0
  4  8  1  0  0  0  0
  4  5  1  0  0  0  0
  5  9  1  0  0  0  0
  6  5  2  0  0  0  0
  6 10  1  0  0  0  0
  7  3  1  0  0  0  0
 12 11  1  0  0  0  0
 12 13  1  0  0  0  0
 13 23  1  0  0  0  0
 14 13  2  0  0  0  0
 14  2  1  0  0  0  0
 15 14  1  0  0  0  0
 16 17  1  0  0  0  0
 16 15  2  0  0  0  0
 17 12  2  0  0  0  0
 18 15  1  0  0  0  0
 19 16  1  0  0  0  0
 20 17  1  0  0  0  0
 21 27  1  0  0  0  0
 21 26  1  0  0  0  0
 22 21  2  0  0  0  0
 23 24  2  0  0  0  0
 23 22  1  0  0  0  0
 24 25  1  0  0  0  0
 25 29  1  0  0  0  0
 25 26  2  0  0  0  0
 28 22  1  0  0  0  0
 30 31  2  0  0  0  0
 30  1  1  0  0  0  0
 30 32  2  0  0  0  0
 33 34  1  0  0  0  0
 34 30  1  0  0  0  0
 35 36  1  0  0  0  0
 35 34  2  0  0  0  0
 37 35  1  0  0  0  0
 38 37  1  0  0  0  0
 39 41  2  0  0  0  0
 39 38  1  0  0  0  0
 40 39  1  0  0  0  0
 41 42  1  0  0  0  0
 42 37  2  0  0  0  0
 42 43  1  0  0  0  0
 43 33  2  0  0  0  0
 44 38  1  0  0  0  0
M  END
>  <minimizedAffinity>
-6.04164886

>  <minimizedRMSD>
5.75728703

$$$$
