
 OpenBabel03252509043D

 51 54  0  0  1  0  0  0  0  0999 V2000
   47.0590   34.3420   43.2390 N   0  0  0  0  0  0  0  0  0  0  0  0
   46.7060   34.8890   41.9850 C   0  0  0  0  0  0  0  0  0  0  0  0
   45.2640   34.6440   41.5790 C   0  0  0  0  0  0  0  0  0  0  0  0
   44.2960   34.6770   42.7300 C   0  0  0  0  0  0  0  0  0  0  0  0
   44.9850   34.9870   44.0380 C   0  0  0  0  0  0  0  0  0  0  0  0
   46.1190   33.8920   44.1310 C   0  0  2  0  0  0  0  0  0  0  0  0
   47.3180   34.5870   41.1300 H   0  0  0  0  0  0  0  0  0  0  0  0
   46.8190   36.0090   42.0410 H   0  0  0  0  0  0  0  0  0  0  0  0
   45.1550   33.6650   41.0470 H   0  0  0  0  0  0  0  0  0  0  0  0
   44.9550   35.4110   40.8360 H   0  0  0  0  0  0  0  0  0  0  0  0
   43.5060   35.4710   42.5870 H   0  0  0  0  0  0  0  0  0  0  0  0
   43.7350   33.7290   42.8560 H   0  0  0  0  0  0  0  0  0  0  0  0
   45.4350   35.9880   44.0630 H   0  0  0  0  0  0  0  0  0  0  0  0
   44.3080   34.7560   44.8740 H   0  0  0  0  0  0  0  0  0  0  0  0
   45.6200   32.9280   43.9210 H   0  0  0  0  0  0  0  0  0  0  0  0
   48.3870   33.7800   43.2860 C   0  0  0  0  0  0  0  0  0  0  0  0
   48.9920   34.3570   42.5530 H   0  0  0  0  0  0  0  0  0  0  0  0
   48.9050   33.9320   44.2630 H   0  0  0  0  0  0  0  0  0  0  0  0
   48.2940   32.3530   42.8550 C   0  0  0  0  0  0  0  0  0  0  0  0
   48.4710   31.6750   43.6890 H   0  0  0  0  0  0  0  0  0  0  0  0
   47.2820   32.1060   42.4380 H   0  0  0  0  0  0  0  0  0  0  0  0
   51.5490   31.8900   41.0370 C   0  0  0  0  0  0  0  0  0  0  0  0
   50.6120   32.1230   42.0620 C   0  0  0  0  0  0  0  0  0  0  0  0
   49.2720   32.1050   41.7630 C   0  0  0  0  0  0  0  0  0  0  0  0
   48.9230   31.8640   40.4970 N   0  0  0  0  0  0  0  0  0  0  0  0
   49.8160   31.6420   39.5250 C   0  0  0  0  0  0  0  0  0  0  0  0
   51.1300   31.6510   39.7700 N   0  0  0  0  0  0  0  0  0  0  0  0
   52.6090   31.9020   41.2570 H   0  0  0  0  0  0  0  0  0  0  0  0
   50.9930   32.3100   43.0580 H   0  0  0  0  0  0  0  0  0  0  0  0
   49.3610   31.4640   38.5570 H   0  0  0  0  0  0  0  0  0  0  0  0
   46.5100   34.0280   45.4500 O   0  0  0  0  0  0  0  0  0  0  0  0
   45.8370   31.4500   45.4620 O   0  0  0  0  0  0  0  0  0  0  0  0
   46.2510   32.6230   46.3470 P   0  0  2  0  0  0  0  0  0  0  0  0
   44.8700   32.9460   47.3140 O   0  0  0  0  0  0  0  0  0  0  0  0
   44.3070   32.1580   47.4070 H   0  0  0  0  0  0  0  0  0  0  0  0
   47.4980   32.2440   47.3690 O   0  0  0  0  0  0  0  0  0  0  0  0
   47.7680   30.8880   47.2740 C   0  0  0  0  0  0  0  0  0  0  0  0
   46.8150   30.3510   47.4010 H   0  0  0  0  0  0  0  0  0  0  0  0
   48.2690   30.5970   46.3480 H   0  0  0  0  0  0  0  0  0  0  0  0
   49.1430   31.5210   49.3010 C   0  0  0  0  0  3  0  0  0  0  0  0
   48.6860   30.5590   48.4210 C   0  0  0  0  0  0  0  0  0  0  0  0
   49.0620   29.2230   48.5600 C   0  0  0  0  0  0  0  0  0  0  0  0
   48.6970   28.4620   47.8590 H   0  0  0  0  0  0  0  0  0  0  0  0
   49.8990   28.8580   49.5880 C   0  0  0  0  0  0  0  0  0  0  0  0
   50.3750   27.6310   49.8920 N   0  0  0  0  0  0  0  0  0  0  0  0
   51.1570   27.7730   50.9840 C   0  0  0  0  0  0  0  0  0  0  0  0
   51.6920   26.9880   51.4900 H   0  0  0  0  0  0  0  0  0  0  0  0
   51.1500   29.0920   51.3370 N   0  0  0  0  0  0  0  0  0  0  0  0
   50.3780   29.7900   50.4900 C   0  0  0  0  0  0  0  0  0  0  0  0
   49.9920   31.1140   50.3340 C   0  0  0  0  0  3  0  0  0  0  0  0
   50.2280   26.6960   49.4340 H   0  0  0  0  0  0  0  0  0  0  0  0
  1 16  1  0  0  0  0
  1  6  1  0  0  0  0
  2  8  1  0  0  0  0
  2  1  1  0  0  0  0
  3  2  1  0  0  0  0
  3  4  1  0  0  0  0
  4 12  1  0  0  0  0
  4  5  1  0  0  0  0
  5 13  1  0  0  0  0
  5  6  1  0  0  0  0
  5 14  1  0  0  0  0
  6 15  1  6  0  0  0
  6 31  1  0  0  0  0
  7  2  1  0  0  0  0
  9  3  1  0  0  0  0
 10  3  1  0  0  0  0
 11  4  1  0  0  0  0
 16 18  1  0  0  0  0
 17 16  1  0  0  0  0
 19 16  1  0  0  0  0
 19 20  1  0  0  0  0
 21 19  1  0  0  0  0
 22 28  1  0  0  0  0
 22 23  1  0  0  0  0
 23 29  1  0  0  0  0
 24 23  2  0  0  0  0
 24 19  1  0  0  0  0
 25 24  1  0  0  0  0
 26 27  1  0  0  0  0
 26 25  2  0  0  0  0
 27 22  2  0  0  0  0
 30 26  1  0  0  0  0
 31 33  1  0  0  0  0
 33 32  2  6  0  0  0
 33 34  1  0  0  0  0
 33 36  1  0  0  0  0
 34 35  1  0  0  0  0
 37 36  1  0  0  0  0
 37 38  1  0  0  0  0
 37 41  1  0  0  0  0
 39 37  1  0  0  0  0
 40 50  1  0  0  0  0
 41 42  1  0  0  0  0
 41 40  2  0  0  0  0
 42 44  2  0  0  0  0
 43 42  1  0  0  0  0
 44 45  1  0  0  0  0
 44 49  1  0  0  0  0
 45 46  1  0  0  0  0
 46 48  2  0  0  0  0
 46 47  1  0  0  0  0
 49 48  1  0  0  0  0
 50 49  2  0  0  0  0
 51 45  1  0  0  0  0
M  END
>  <minimizedAffinity>
-5.42817116

>  <minimizedRMSD>
3.30037069

$$$$
