
 OpenBabel03252509293D

 24 26  0  0  0  0  0  0  0  0999 V2000
   47.0340   34.8860   41.9280 C   0  0  0  0  0  0  0  0  0  0  0  0
   47.3800   35.8860   41.6300 H   0  0  0  0  0  0  0  0  0  0  0  0
   47.9570   34.3010   42.1330 H   0  0  0  0  0  0  0  0  0  0  0  0
   44.9880   34.0690   40.8410 C   0  0  0  0  0  3  0  0  0  0  0  0
   46.3570   34.2160   40.7850 C   0  0  0  0  0  0  0  0  0  0  0  0
   47.0640   33.7510   39.6950 C   0  0  0  0  0  0  0  0  0  0  0  0
   48.1510   33.8620   39.6390 H   0  0  0  0  0  0  0  0  0  0  0  0
   46.4150   33.1310   38.6430 C   0  0  0  0  0  0  0  0  0  0  0  0
   46.8350   32.5850   37.4680 N   0  0  0  0  0  0  0  0  0  0  0  0
   45.7100   32.1240   36.8470 C   0  0  0  0  0  0  0  0  0  0  0  0
   45.7240   31.6330   35.8830 H   0  0  0  0  0  0  0  0  0  0  0  0
   44.6220   32.3740   37.6120 N   0  0  0  0  0  0  0  0  0  0  0  0
   45.0600   32.9950   38.7200 C   0  0  0  0  0  0  0  0  0  0  0  0
   44.3060   33.4480   39.7960 C   0  0  0  0  0  3  0  0  0  0  0  0
   47.8230   32.5390   37.1290 H   0  0  0  0  0  0  0  0  0  0  0  0
   44.6070   36.0310   44.5020 C   0  0  0  0  0  0  0  0  0  0  0  0
   45.3820   35.9870   43.3230 C   0  0  0  0  0  0  0  0  0  0  0  0
   46.2400   34.9150   43.1540 C   0  0  0  0  0  0  0  0  0  0  0  0
   46.3020   33.9560   44.1240 N   0  0  0  0  0  0  0  0  0  0  0  0
   45.5430   34.0360   45.2380 C   0  0  0  0  0  0  0  0  0  0  0  0
   44.7060   35.0580   45.4300 N   0  0  0  0  0  0  0  0  0  0  0  0
   43.9210   36.8480   44.6820 H   0  0  0  0  0  0  0  0  0  0  0  0
   45.2580   36.7910   42.6250 H   0  0  0  0  0  0  0  0  0  0  0  0
   45.6340   33.2340   45.9860 H   0  0  0  0  0  0  0  0  0  0  0  0
  1  3  1  0  0  0  0
  1 18  1  0  0  0  0
  2  1  1  0  0  0  0
  5  4  1  0  0  0  0
  5  1  1  0  0  0  0
  6  5  2  0  0  0  0
  7  6  1  0  0  0  0
  8 13  2  0  0  0  0
  8  6  1  0  0  0  0
  9  8  1  0  0  0  0
 10  9  1  0  0  0  0
 10 12  2  0  0  0  0
 11 10  1  0  0  0  0
 12 13  1  0  0  0  0
 13 14  1  0  0  0  0
 14  4  2  0  0  0  0
 15  9  1  0  0  0  0
 16 22  1  0  0  0  0
 16 21  1  0  0  0  0
 17 16  2  0  0  0  0
 18 17  1  0  0  0  0
 18 19  2  0  0  0  0
 19 20  1  0  0  0  0
 20 21  2  0  0  0  0
 20 24  1  0  0  0  0
 23 17  1  0  0  0  0
M  END
>  <minimizedAffinity>
-4.53824806

>  <minimizedRMSD>
0.332439661

$$$$
