
 OpenBabel03242521463D

 50 54  0  0  1  0  0  0  0  0999 V2000
   45.2080   36.9900   42.8460 C   0  0  0  0  0  0  0  0  0  0  0  0
   44.3010   36.7900   42.2660 H   0  0  0  0  0  0  0  0  0  0  0  0
   46.0780   37.3000   42.2340 H   0  0  0  0  0  0  0  0  0  0  0  0
   45.5440   35.7570   43.6510 C   0  0  0  0  0  0  0  0  0  0  0  0
   46.5720   34.9220   43.1830 C   0  0  0  0  0  0  0  0  0  0  0  0
   46.9080   33.7720   43.9250 C   0  0  0  0  0  0  0  0  0  0  0  0
   46.2280   33.5370   45.0340 N   0  0  0  0  0  0  0  0  0  0  0  0
   45.2390   34.3510   45.4700 C   0  0  0  0  0  0  0  0  0  0  0  0
   44.8930   35.4700   44.7750 N   0  0  0  0  0  0  0  0  0  0  0  0
   47.0490   35.2110   42.2780 H   0  0  0  0  0  0  0  0  0  0  0  0
   44.6800   34.1580   46.3800 H   0  0  0  0  0  0  0  0  0  0  0  0
   49.0150   33.6750   42.6080 C   0  0  2  0  0  0  0  0  0  0  0  0
   47.9810   32.9600   43.3750 C   0  0  2  0  0  0  0  0  0  0  0  0
   47.5320   31.9870   42.4090 O   0  0  0  0  0  0  0  0  0  0  0  0
   48.7520   31.4290   42.0310 C   0  0  0  0  0  0  0  0  0  0  0  0
   49.8340   32.4510   42.1380 C   0  0  1  0  0  0  0  0  0  0  0  0
   48.6250   34.0970   41.6370 H   0  0  0  0  0  0  0  0  0  0  0  0
   48.4630   32.3350   44.1690 H   0  0  0  0  0  0  0  0  0  0  0  0
   48.6580   31.1330   40.9660 H   0  0  0  0  0  0  0  0  0  0  0  0
   48.9440   30.5220   42.6420 H   0  0  0  0  0  0  0  0  0  0  0  0
   50.6050   32.1770   42.8600 H   0  0  0  0  0  0  0  0  0  0  0  0
   49.7300   34.5970   43.2860 O   0  0  0  0  0  0  0  0  0  0  0  0
   50.1240   35.2960   42.6790 H   0  0  0  0  0  0  0  0  0  0  0  0
   50.4380   32.7550   40.9150 O   0  0  0  0  0  0  0  0  0  0  0  0
   50.5880   31.9220   40.3920 H   0  0  0  0  0  0  0  0  0  0  0  0
   45.3730   39.3550   43.8990 C   0  0  0  0  0  0  0  0  0  0  0  0
   46.1680   39.6900   42.9820 O   0  0  0  0  0  0  0  0  0  0  0  0
   44.8810   38.0310   43.8130 N   0  0  0  0  0  0  0  0  0  0  0  0
   44.1730   37.7110   44.5330 H   0  0  0  0  0  0  0  0  0  0  0  0
   44.9540   40.2260   44.9980 C   0  0  0  0  0  0  0  0  0  0  0  0
   45.5510   40.1130   46.2080 C   0  0  0  0  0  0  0  0  0  0  0  0
   45.0890   40.9840   47.1990 C   0  0  0  0  0  0  0  0  0  0  0  0
   44.0860   41.9200   47.0040 C   0  0  0  0  0  0  0  0  0  0  0  0
   43.5460   41.9610   45.7560 C   0  0  0  0  0  0  0  0  0  0  0  0
   43.9710   41.1400   44.7970 N   0  0  0  0  0  0  0  0  0  0  0  0
   46.3380   39.4130   46.4510 H   0  0  0  0  0  0  0  0  0  0  0  0
   45.5460   40.9220   48.1870 H   0  0  0  0  0  0  0  0  0  0  0  0
   43.7980   42.5400   47.8130 H   0  0  0  0  0  0  0  0  0  0  0  0
   42.5280   43.8080   44.4020 C   0  0  0  0  0  0  0  0  0  0  0  0
   42.4840   42.9090   45.4390 C   0  0  0  0  0  0  0  0  0  0  0  0
   41.3180   42.9630   46.1940 C   0  0  0  0  0  0  0  0  0  0  0  0
   41.2260   42.2680   47.0380 H   0  0  0  0  0  0  0  0  0  0  0  0
   40.2830   43.8210   45.9580 C   0  0  0  0  0  0  0  0  0  0  0  0
   39.0870   44.0160   46.5780 N   0  0  0  0  0  0  0  0  0  0  0  0
   38.4310   45.0050   45.9310 C   0  0  0  0  0  0  0  0  0  0  0  0
   37.4430   45.4000   46.1800 H   0  0  0  0  0  0  0  0  0  0  0  0
   39.2250   45.4240   44.9060 N   0  0  0  0  0  0  0  0  0  0  0  0
   40.3650   44.7080   44.9100 C   0  0  0  0  0  0  0  0  0  0  0  0
   41.5160   44.6990   44.1130 C   0  0  0  0  0  0  0  0  0  0  0  0
   38.7540   43.4790   47.4130 H   0  0  0  0  0  0  0  0  0  0  0  0
  1  4  1  0  0  0  0
  1 28  1  0  0  0  0
  2  1  1  0  0  0  0
  3  1  1  0  0  0  0
  4  9  1  0  0  0  0
  5  4  2  0  0  0  0
  5  6  1  0  0  0  0
  6  7  2  0  0  0  0
  7  8  1  0  0  0  0
  8 11  1  0  0  0  0
  9  8  2  0  0  0  0
 10  5  1  0  0  0  0
 12 17  1  6  0  0  0
 12 22  1  0  0  0  0
 12 13  1  0  0  0  0
 13  6  1  0  0  0  0
 13 18  1  1  0  0  0
 14 13  1  0  0  0  0
 15 16  1  0  0  0  0
 15 14  1  0  0  0  0
 15 20  1  0  0  0  0
 16 12  1  0  0  0  0
 16 21  1  1  0  0  0
 19 15  1  0  0  0  0
 23 22  1  0  0  0  0
 24 16  1  0  0  0  0
 25 24  1  0  0  0  0
 26 30  1  0  0  0  0
 27 26  2  0  0  0  0
 28 26  1  0  0  0  0
 28 29  1  0  0  0  0
 30 31  1  0  0  0  0
 31 36  1  0  0  0  0
 31 32  2  0  0  0  0
 32 37  1  0  0  0  0
 33 32  1  0  0  0  0
 33 38  1  0  0  0  0
 34 33  2  0  0  0  0
 35 30  2  0  0  0  0
 35 34  1  0  0  0  0
 39 40  1  0  0  0  0
 40 34  1  0  0  0  0
 40 41  2  0  0  0  0
 41 42  1  0  0  0  0
 43 41  1  0  0  0  0
 43 44  1  0  0  0  0
 44 50  1  0  0  0  0
 45 46  1  0  0  0  0
 45 44  1  0  0  0  0
 47 48  1  0  0  0  0
 47 45  2  0  0  0  0
 48 43  2  0  0  0  0
 49 39  2  0  0  0  0
 49 48  1  0  0  0  0
M  END
>  <minimizedAffinity>
-4.52033758

>  <minimizedRMSD>
1.57714605

$$$$
