
 OpenBabel03252506373D

 47 51  0  0  1  0  0  0  0  0999 V2000
   46.6280   30.0410   46.5000 S   0  0  0  0  0  0  0  0  0  0  0  0
   44.5060   35.5390   45.1300 C   0  0  0  0  0  0  0  0  0  0  0  0
   45.1570   35.5380   43.8790 C   0  0  0  0  0  0  0  0  0  0  0  0
   46.0730   34.5800   43.6100 C   0  0  0  0  0  0  0  0  0  0  0  0
   46.3120   33.6630   44.5800 N   0  0  0  0  0  0  0  0  0  0  0  0
   45.6980   33.6660   45.7540 C   0  0  0  0  0  0  0  0  0  0  0  0
   44.7900   34.5980   46.0490 N   0  0  0  0  0  0  0  0  0  0  0  0
   46.0330   32.6440   46.7090 N   0  0  0  0  0  0  0  0  0  0  0  0
   45.3000   32.3890   47.8950 C   0  0  0  0  0  0  0  0  0  0  0  0
   46.3770   32.0300   48.9010 C   0  0  0  0  0  0  0  0  0  0  0  0
   47.6560   31.9280   48.1240 C   0  0  0  0  0  0  0  0  0  0  0  0
   47.1480   31.7310   46.6970 C   0  0  1  0  0  0  0  0  0  0  0  0
   43.7790   36.3150   45.3230 H   0  0  0  0  0  0  0  0  0  0  0  0
   46.5740   34.5610   42.6720 H   0  0  0  0  0  0  0  0  0  0  0  0
   44.4990   31.7340   47.9940 H   0  0  0  0  0  0  0  0  0  0  0  0
   44.9300   33.3980   48.2650 H   0  0  0  0  0  0  0  0  0  0  0  0
   46.4950   32.7380   49.7200 H   0  0  0  0  0  0  0  0  0  0  0  0
   46.1330   31.0420   49.3830 H   0  0  0  0  0  0  0  0  0  0  0  0
   48.2300   31.0210   48.4250 H   0  0  0  0  0  0  0  0  0  0  0  0
   48.2490   32.8430   48.2410 H   0  0  0  0  0  0  0  0  0  0  0  0
   47.9810   32.0320   46.0390 H   0  0  0  0  0  0  0  0  0  0  0  0
   44.7930   36.5800   42.9560 N   0  0  0  0  0  0  0  0  0  0  0  0
   45.5800   36.8740   42.3460 H   0  0  0  0  0  0  0  0  0  0  0  0
   43.8560   37.0090   42.8870 H   0  0  0  0  0  0  0  0  0  0  0  0
   45.6120   30.5740   43.3690 O   0  0  0  0  0  0  0  0  0  0  0  0
   44.9830   30.0200   44.2840 C   0  0  0  0  0  0  0  0  0  0  0  0
   45.0800   29.7700   45.7420 C   0  0  1  0  0  0  0  0  0  0  0  0
   44.5390   28.3660   45.8570 C   0  0  0  0  0  0  0  0  0  0  0  0
   43.2270   28.5870   45.0970 C   0  0  0  0  0  0  0  0  0  0  0  0
   43.7350   29.3690   43.9770 N   0  0  0  0  0  0  0  0  0  0  0  0
   44.1960   30.3680   46.1000 H   0  0  0  0  0  0  0  0  0  0  0  0
   45.1160   27.6390   45.2540 H   0  0  0  0  0  0  0  0  0  0  0  0
   44.3340   28.0570   46.8870 H   0  0  0  0  0  0  0  0  0  0  0  0
   42.8760   27.6030   44.7550 H   0  0  0  0  0  0  0  0  0  0  0  0
   42.4910   29.1440   45.7000 H   0  0  0  0  0  0  0  0  0  0  0  0
   42.1480   30.5030   42.6430 C   0  0  0  0  0  3  0  0  0  0  0  0
   42.9400   29.3720   42.7700 C   0  0  0  0  0  0  0  0  0  0  0  0
   42.9280   28.3920   41.8170 C   0  0  0  0  0  0  0  0  0  0  0  0
   43.5740   27.5440   41.9920 H   0  0  0  0  0  0  0  0  0  0  0  0
   42.1130   28.5250   40.7030 C   0  0  0  0  0  0  0  0  0  0  0  0
   41.9270   27.7140   39.6460 N   0  0  0  0  0  0  0  0  0  0  0  0
   41.0120   28.3350   38.8460 C   0  0  0  0  0  0  0  0  0  0  0  0
   40.6170   27.9650   37.8910 H   0  0  0  0  0  0  0  0  0  0  0  0
   40.6270   29.5040   39.3730 N   0  0  0  0  0  0  0  0  0  0  0  0
   41.2960   29.6470   40.5290 C   0  0  0  0  0  0  0  0  0  0  0  0
   41.3410   30.6230   41.5280 C   0  0  0  0  0  3  0  0  0  0  0  0
   42.3870   26.7920   39.4680 H   0  0  0  0  0  0  0  0  0  0  0  0
  1 12  1  0  0  0  0
  2 13  1  0  0  0  0
  2  7  1  0  0  0  0
  3  2  2  0  0  0  0
  4  3  1  0  0  0  0
  4  5  2  0  0  0  0
  5  6  1  0  0  0  0
  6  7  2  0  0  0  0
  6  8  1  0  0  0  0
  8  9  1  0  0  0  0
  9 15  1  0  0  0  0
  9 16  1  0  0  0  0
  9 10  1  0  0  0  0
 10 18  1  0  0  0  0
 10 17  1  0  0  0  0
 11 20  1  0  0  0  0
 11 19  1  0  0  0  0
 11 10  1  0  0  0  0
 12 21  1  6  0  0  0
 12  8  1  0  0  0  0
 12 11  1  0  0  0  0
 14  4  1  0  0  0  0
 22  3  1  0  0  0  0
 23 22  1  0  0  0  0
 24 22  1  0  0  0  0
 25 26  2  0  0  0  0
 26 27  1  0  0  0  0
 27 28  1  0  0  0  0
 27 31  1  1  0  0  0
 27  1  1  0  0  0  0
 28 33  1  0  0  0  0
 29 35  1  0  0  0  0
 29 28  1  0  0  0  0
 30 26  1  0  0  0  0
 30 29  1  0  0  0  0
 32 28  1  0  0  0  0
 34 29  1  0  0  0  0
 36 37  1  0  0  0  0
 37 30  1  0  0  0  0
 38 39  1  0  0  0  0
 38 37  2  0  0  0  0
 40 38  1  0  0  0  0
 41 40  1  0  0  0  0
 42 44  2  0  0  0  0
 42 41  1  0  0  0  0
 43 42  1  0  0  0  0
 44 45  1  0  0  0  0
 45 40  2  0  0  0  0
 45 46  1  0  0  0  0
 46 36  2  0  0  0  0
 47 41  1  0  0  0  0
M  END
>  <minimizedAffinity>
-5.45877028

>  <minimizedRMSD>
0.569707692

$$$$
