
 OpenBabel03252509003D

 48 51  0  0  1  0  0  0  0  0999 V2000
   46.7040   34.5400   43.4740 N   0  0  0  0  0  0  0  0  0  0  0  0
   46.2160   35.6080   42.6790 C   0  0  0  0  0  0  0  0  0  0  0  0
   44.7210   35.7960   42.6910 C   0  0  0  0  0  0  0  0  0  0  0  0
   44.0560   35.4280   43.9900 C   0  0  0  0  0  0  0  0  0  0  0  0
   45.0660   35.0470   45.0460 C   0  0  0  0  0  0  0  0  0  0  0  0
   45.8720   33.8800   44.3650 C   0  0  2  0  0  0  0  0  0  0  0  0
   46.5400   35.6210   41.6360 H   0  0  0  0  0  0  0  0  0  0  0  0
   46.6400   36.5520   43.1350 H   0  0  0  0  0  0  0  0  0  0  0  0
   44.5130   36.8730   42.4280 H   0  0  0  0  0  0  0  0  0  0  0  0
   44.2820   35.1960   41.8590 H   0  0  0  0  0  0  0  0  0  0  0  0
   43.4910   36.3000   44.3830 H   0  0  0  0  0  0  0  0  0  0  0  0
   43.3640   34.5880   43.8500 H   0  0  0  0  0  0  0  0  0  0  0  0
   44.5530   34.6160   45.9120 H   0  0  0  0  0  0  0  0  0  0  0  0
   45.7730   35.8440   45.2790 H   0  0  0  0  0  0  0  0  0  0  0  0
   45.1150   33.1720   43.9520 H   0  0  0  0  0  0  0  0  0  0  0  0
   47.7950   33.8210   42.8860 C   0  0  0  0  0  0  0  0  0  0  0  0
   48.3600   33.2900   43.6950 H   0  0  0  0  0  0  0  0  0  0  0  0
   48.4820   34.5130   42.3940 H   0  0  0  0  0  0  0  0  0  0  0  0
   47.2440   32.7530   41.9900 C   0  0  0  0  0  0  0  0  0  0  0  0
   46.1430   32.8650   41.8820 H   0  0  0  0  0  0  0  0  0  0  0  0
   47.4270   31.7210   42.3410 H   0  0  0  0  0  0  0  0  0  0  0  0
   49.1170   32.0640   38.8090 C   0  0  0  0  0  0  0  0  0  0  0  0
   48.5790   31.9200   40.1010 C   0  0  0  0  0  0  0  0  0  0  0  0
   47.8040   32.9240   40.6240 C   0  0  0  0  0  0  0  0  0  0  0  0
   47.5950   34.0070   39.8670 N   0  0  0  0  0  0  0  0  0  0  0  0
   48.1070   34.1470   38.6330 C   0  0  0  0  0  0  0  0  0  0  0  0
   48.8700   33.1840   38.0920 N   0  0  0  0  0  0  0  0  0  0  0  0
   49.7330   31.3060   38.3500 H   0  0  0  0  0  0  0  0  0  0  0  0
   48.7870   31.0300   40.6470 H   0  0  0  0  0  0  0  0  0  0  0  0
   47.8700   35.0700   38.1150 H   0  0  0  0  0  0  0  0  0  0  0  0
   46.5790   33.3690   45.4470 O   0  0  0  0  0  0  0  0  0  0  0  0
   45.4830   31.1200   44.5650 O   0  0  0  0  0  0  0  0  0  0  0  0
   46.2760   31.7310   45.7040 P   0  0  2  0  0  0  0  0  0  0  0  0
   45.2410   31.6510   47.0660 O   0  0  0  0  0  0  0  0  0  0  0  0
   45.7800   31.4670   47.8750 H   0  0  0  0  0  0  0  0  0  0  0  0
   47.6760   30.9010   46.0620 O   0  0  0  0  0  0  0  0  0  0  0  0
   48.9520   29.4400   47.4080 C   0  0  0  0  0  3  0  0  0  0  0  0
   47.7930   29.6770   46.6590 C   0  0  0  0  0  0  0  0  0  0  0  0
   46.8520   28.6690   46.5740 C   0  0  0  0  0  0  0  0  0  0  0  0
   45.9450   28.8460   45.9920 H   0  0  0  0  0  0  0  0  0  0  0  0
   47.0820   27.4540   47.2300 C   0  0  0  0  0  0  0  0  0  0  0  0
   46.3140   26.3330   47.2890 N   0  0  0  0  0  0  0  0  0  0  0  0
   46.9310   25.3980   48.0400 C   0  0  0  0  0  0  0  0  0  0  0  0
   46.5290   24.4130   48.2440 H   0  0  0  0  0  0  0  0  0  0  0  0
   48.0960   25.9450   48.4510 N   0  0  0  0  0  0  0  0  0  0  0  0
   48.2190   27.2080   47.9700 C   0  0  0  0  0  0  0  0  0  0  0  0
   49.1500   28.2230   48.0480 C   0  0  0  0  0  3  0  0  0  0  0  0
   45.3910   26.2520   46.8100 H   0  0  0  0  0  0  0  0  0  0  0  0
  1  6  1  0  0  0  0
  2  3  1  0  0  0  0
  2  8  1  0  0  0  0
  2  1  1  0  0  0  0
  3  4  1  0  0  0  0
  4 11  1  0  0  0  0
  4  5  1  0  0  0  0
  5 14  1  0  0  0  0
  5 13  1  0  0  0  0
  6 15  1  6  0  0  0
  6  5  1  0  0  0  0
  6 31  1  0  0  0  0
  7  2  1  0  0  0  0
  9  3  1  0  0  0  0
 10  3  1  0  0  0  0
 12  4  1  0  0  0  0
 16  1  1  0  0  0  0
 16 17  1  0  0  0  0
 18 16  1  0  0  0  0
 19 21  1  0  0  0  0
 19 16  1  0  0  0  0
 20 19  1  0  0  0  0
 22 23  1  0  0  0  0
 23 24  2  0  0  0  0
 23 29  1  0  0  0  0
 24 19  1  0  0  0  0
 25 24  1  0  0  0  0
 26 25  2  0  0  0  0
 27 26  1  0  0  0  0
 27 22  2  0  0  0  0
 28 22  1  0  0  0  0
 30 26  1  0  0  0  0
 31 33  1  0  0  0  0
 33 32  2  6  0  0  0
 33 36  1  0  0  0  0
 33 34  1  0  0  0  0
 34 35  1  0  0  0  0
 36 38  1  0  0  0  0
 37 47  1  0  0  0  0
 38 37  2  0  0  0  0
 39 38  1  0  0  0  0
 39 41  2  0  0  0  0
 40 39  1  0  0  0  0
 41 42  1  0  0  0  0
 41 46  1  0  0  0  0
 42 43  1  0  0  0  0
 43 44  1  0  0  0  0
 43 45  2  0  0  0  0
 46 47  2  0  0  0  0
 46 45  1  0  0  0  0
 48 42  1  0  0  0  0
M  END
>  <minimizedAffinity>
-4.57920265

>  <minimizedRMSD>
1.49807978

$$$$
