
 OpenBabel03252504283D

 25 27  0  0  0  0  0  0  0  0999 V2000
   36.8660   28.6860   41.9030 O   0  0  0  0  0  0  0  0  0  0  0  0
   38.7920   30.1570   41.9490 C   0  0  0  0  0  3  0  0  0  0  0  0
   37.4880   29.8850   41.6000 C   0  0  0  0  0  0  0  0  0  0  0  0
   36.8050   30.8790   40.9180 C   0  0  0  0  0  0  0  0  0  0  0  0
   35.7960   30.7470   40.6120 H   0  0  0  0  0  0  0  0  0  0  0  0
   37.3950   32.0770   40.6030 C   0  0  0  0  0  0  0  0  0  0  0  0
   36.9490   33.1700   39.9610 N   0  0  0  0  0  0  0  0  0  0  0  0
   37.9030   34.1150   39.8890 C   0  0  0  0  0  0  0  0  0  0  0  0
   37.7960   35.0910   39.4210 H   0  0  0  0  0  0  0  0  0  0  0  0
   38.9810   33.5880   40.5080 N   0  0  0  0  0  0  0  0  0  0  0  0
   38.6960   32.3570   40.9470 C   0  0  0  0  0  0  0  0  0  0  0  0
   39.3930   31.3650   41.6350 C   0  0  0  0  0  3  0  0  0  0  0  0
   35.9930   33.3020   39.5600 H   0  0  0  0  0  0  0  0  0  0  0  0
   37.1060   28.0620   43.1150 C   0  0  0  0  0  0  0  0  0  0  0  0
   37.6260   28.8180   43.7740 H   0  0  0  0  0  0  0  0  0  0  0  0
   36.1550   27.8560   43.6630 H   0  0  0  0  0  0  0  0  0  0  0  0
   39.1080   26.8440   43.6630 C   0  0  0  0  0  0  0  0  0  0  0  0
   37.8970   26.8350   43.0060 C   0  0  0  0  0  0  0  0  0  0  0  0
   37.5490   25.6930   42.3170 C   0  0  0  0  0  0  0  0  0  0  0  0
   38.4230   24.6610   42.3350 N   0  0  0  0  0  0  0  0  0  0  0  0
   39.5980   24.6800   42.9760 C   0  0  0  0  0  0  0  0  0  0  0  0
   39.9920   25.7950   43.6790 N   0  0  0  0  0  0  0  0  0  0  0  0
   39.4570   27.7180   44.2350 H   0  0  0  0  0  0  0  0  0  0  0  0
   36.6030   25.6990   41.8090 H   0  0  0  0  0  0  0  0  0  0  0  0
   40.2800   23.8400   42.9740 H   0  0  0  0  0  0  0  0  0  0  0  0
  1 14  1  0  0  0  0
  3  1  1  0  0  0  0
  3  2  2  0  0  0  0
  4  3  1  0  0  0  0
  5  4  1  0  0  0  0
  6  4  2  0  0  0  0
  6 11  1  0  0  0  0
  7  6  1  0  0  0  0
  8  7  1  0  0  0  0
  8 10  2  0  0  0  0
  9  8  1  0  0  0  0
 10 11  1  0  0  0  0
 11 12  2  0  0  0  0
 12  2  1  0  0  0  0
 13  7  1  0  0  0  0
 14 16  1  0  0  0  0
 14 15  1  0  0  0  0
 17 22  1  0  0  0  0
 17 23  1  0  0  0  0
 18 14  1  0  0  0  0
 18 17  2  0  0  0  0
 19 20  2  0  0  0  0
 19 18  1  0  0  0  0
 20 21  1  0  0  0  0
 21 22  2  0  0  0  0
 24 19  1  0  0  0  0
 25 21  1  0  0  0  0
M  END
>  <minimizedAffinity>
-5.21666861

$$$$

 OpenBabel03252504283D

 25 27  0  0  0  0  0  0  0  0999 V2000
   36.1260   28.0680   41.8180 O   0  0  0  0  0  0  0  0  0  0  0  0
   36.5000   28.7930   39.5350 C   0  0  0  0  0  3  0  0  0  0  0  0
   36.3960   29.0530   40.8840 C   0  0  0  0  0  0  0  0  0  0  0  0
   36.5780   30.3680   41.2800 C   0  0  0  0  0  0  0  0  0  0  0  0
   36.5130   30.6520   42.3020 H   0  0  0  0  0  0  0  0  0  0  0  0
   36.8460   31.3660   40.3780 C   0  0  0  0  0  0  0  0  0  0  0  0
   37.0570   32.6870   40.5170 N   0  0  0  0  0  0  0  0  0  0  0  0
   37.2860   33.2700   39.3270 C   0  0  0  0  0  0  0  0  0  0  0  0
   37.4840   34.3270   39.1670 H   0  0  0  0  0  0  0  0  0  0  0  0
   37.2160   32.2750   38.4170 N   0  0  0  0  0  0  0  0  0  0  0  0
   36.9520   31.1160   39.0300 C   0  0  0  0  0  0  0  0  0  0  0  0
   36.7720   29.7960   38.6190 C   0  0  0  0  0  3  0  0  0  0  0  0
   37.0490   33.2200   41.4150 H   0  0  0  0  0  0  0  0  0  0  0  0
   36.9190   27.9380   42.9440 C   0  0  0  0  0  0  0  0  0  0  0  0
   37.4960   28.9020   43.0510 H   0  0  0  0  0  0  0  0  0  0  0  0
   36.3030   27.9040   43.8750 H   0  0  0  0  0  0  0  0  0  0  0  0
   39.0060   26.9350   43.5990 C   0  0  0  0  0  0  0  0  0  0  0  0
   37.8260   26.7900   42.9030 C   0  0  0  0  0  0  0  0  0  0  0  0
   37.6130   25.5980   42.2420 C   0  0  0  0  0  0  0  0  0  0  0  0
   38.5800   24.6570   42.3240 N   0  0  0  0  0  0  0  0  0  0  0  0
   39.7250   24.8080   43.0030 C   0  0  0  0  0  0  0  0  0  0  0  0
   39.9850   25.9770   43.6800 N   0  0  0  0  0  0  0  0  0  0  0  0
   39.2490   27.8560   44.1520 H   0  0  0  0  0  0  0  0  0  0  0  0
   36.6900   25.4980   41.7030 H   0  0  0  0  0  0  0  0  0  0  0  0
   40.4830   24.0380   43.0520 H   0  0  0  0  0  0  0  0  0  0  0  0
  1 14  1  0  0  0  0
  2  3  1  0  0  0  0
  3  4  2  0  0  0  0
  3  1  1  0  0  0  0
  4  5  1  0  0  0  0
  6  7  1  0  0  0  0
  6  4  1  0  0  0  0
  7 13  1  0  0  0  0
  8  7  1  0  0  0  0
  9  8  1  0  0  0  0
 10 11  1  0  0  0  0
 10  8  2  0  0  0  0
 11  6  2  0  0  0  0
 12 11  1  0  0  0  0
 12  2  2  0  0  0  0
 14 15  1  0  0  0  0
 14 16  1  0  0  0  0
 17 22  1  0  0  0  0
 17 23  1  0  0  0  0
 18 14  1  0  0  0  0
 18 17  2  0  0  0  0
 19 20  2  0  0  0  0
 19 18  1  0  0  0  0
 20 21  1  0  0  0  0
 21 25  1  0  0  0  0
 21 22  2  0  0  0  0
 24 19  1  0  0  0  0
M  END
>  <minimizedAffinity>
-5.17063951

$$$$

 OpenBabel03252504283D

 25 27  0  0  0  0  0  0  0  0999 V2000
   37.1190   29.1810   42.0580 O   0  0  0  0  0  0  0  0  0  0  0  0
   36.7160   31.1360   40.6820 C   0  0  0  0  0  3  0  0  0  0  0  0
   37.5330   30.3710   41.4850 C   0  0  0  0  0  0  0  0  0  0  0  0
   38.8150   30.8490   41.7030 C   0  0  0  0  0  0  0  0  0  0  0  0
   39.5070   30.3190   42.3110 H   0  0  0  0  0  0  0  0  0  0  0  0
   39.2540   32.0250   41.1500 C   0  0  0  0  0  0  0  0  0  0  0  0
   40.4260   32.6800   41.2140 N   0  0  0  0  0  0  0  0  0  0  0  0
   40.3880   33.8160   40.4940 C   0  0  0  0  0  0  0  0  0  0  0  0
   41.2060   34.5240   40.3840 H   0  0  0  0  0  0  0  0  0  0  0  0
   39.1470   33.8670   39.9650 N   0  0  0  0  0  0  0  0  0  0  0  0
   38.4450   32.7950   40.3470 C   0  0  0  0  0  0  0  0  0  0  0  0
   37.1530   32.3240   40.1200 C   0  0  0  0  0  3  0  0  0  0  0  0
   41.2740   32.3760   41.7440 H   0  0  0  0  0  0  0  0  0  0  0  0
   37.6940   28.7370   43.2360 C   0  0  0  0  0  0  0  0  0  0  0  0
   38.4610   29.5080   43.5370 H   0  0  0  0  0  0  0  0  0  0  0  0
   36.9630   28.7600   44.0800 H   0  0  0  0  0  0  0  0  0  0  0  0
   37.5800   26.4730   42.4280 C   0  0  0  0  0  0  0  0  0  0  0  0
   38.3010   27.4090   43.1370 C   0  0  0  0  0  0  0  0  0  0  0  0
   39.5060   27.0150   43.6800 C   0  0  0  0  0  0  0  0  0  0  0  0
   39.8940   25.7350   43.4770 N   0  0  0  0  0  0  0  0  0  0  0  0
   39.1850   24.8320   42.7870 C   0  0  0  0  0  0  0  0  0  0  0  0
   37.9770   25.1750   42.2250 N   0  0  0  0  0  0  0  0  0  0  0  0
   36.6100   26.7110   41.9640 H   0  0  0  0  0  0  0  0  0  0  0  0
   40.0580   27.7530   44.2300 H   0  0  0  0  0  0  0  0  0  0  0  0
   39.5180   23.8140   42.6400 H   0  0  0  0  0  0  0  0  0  0  0  0
  1 14  1  0  0  0  0
  2  3  1  0  0  0  0
  3  4  2  0  0  0  0
  3  1  1  0  0  0  0
  4  5  1  0  0  0  0
  6  7  1  0  0  0  0
  6  4  1  0  0  0  0
  7 13  1  0  0  0  0
  8  7  1  0  0  0  0
  9  8  1  0  0  0  0
 10 11  1  0  0  0  0
 10  8  2  0  0  0  0
 11  6  2  0  0  0  0
 12 11  1  0  0  0  0
 12  2  2  0  0  0  0
 14 15  1  0  0  0  0
 14 16  1  0  0  0  0
 17 18  1  0  0  0  0
 18 14  1  0  0  0  0
 18 19  2  0  0  0  0
 19 24  1  0  0  0  0
 20 19  1  0  0  0  0
 21 20  2  0  0  0  0
 22 17  2  0  0  0  0
 22 21  1  0  0  0  0
 23 17  1  0  0  0  0
 25 21  1  0  0  0  0
M  END
>  <minimizedAffinity>
-4.89140511

$$$$

 OpenBabel03252504283D

 25 27  0  0  0  0  0  0  0  0999 V2000
   36.8940   28.6140   42.0960 O   0  0  0  0  0  0  0  0  0  0  0  0
   38.8040   30.1060   42.0410 C   0  0  0  0  0  3  0  0  0  0  0  0
   37.4950   29.8070   41.7330 C   0  0  0  0  0  0  0  0  0  0  0  0
   36.7850   30.7670   41.0310 C   0  0  0  0  0  0  0  0  0  0  0  0
   35.7710   30.6130   40.7540 H   0  0  0  0  0  0  0  0  0  0  0  0
   37.3540   31.9590   40.6570 C   0  0  0  0  0  0  0  0  0  0  0  0
   36.8800   33.0220   39.9850 N   0  0  0  0  0  0  0  0  0  0  0  0
   37.8220   33.9740   39.8550 C   0  0  0  0  0  0  0  0  0  0  0  0
   37.6920   34.9290   39.3530 H   0  0  0  0  0  0  0  0  0  0  0  0
   38.9200   33.4810   40.4670 N   0  0  0  0  0  0  0  0  0  0  0  0
   38.6600   32.2650   40.9590 C   0  0  0  0  0  0  0  0  0  0  0  0
   39.3840   31.3070   41.6670 C   0  0  0  0  0  3  0  0  0  0  0  0
   35.9140   33.1280   39.6020 H   0  0  0  0  0  0  0  0  0  0  0  0
   36.5700   27.6740   41.1330 C   0  0  0  0  0  0  0  0  0  0  0  0
   35.4550   27.5090   41.1990 H   0  0  0  0  0  0  0  0  0  0  0  0
   36.7090   28.0820   40.1030 H   0  0  0  0  0  0  0  0  0  0  0  0
   38.2600   26.1660   40.3200 C   0  0  0  0  0  0  0  0  0  0  0  0
   37.2930   26.4090   41.2710 C   0  0  0  0  0  0  0  0  0  0  0  0
   37.0970   25.4530   42.2460 C   0  0  0  0  0  0  0  0  0  0  0  0
   37.8690   24.3440   42.1990 N   0  0  0  0  0  0  0  0  0  0  0  0
   38.8070   24.1170   41.2690 C   0  0  0  0  0  0  0  0  0  0  0  0
   39.0420   25.0390   40.2750 N   0  0  0  0  0  0  0  0  0  0  0  0
   38.4760   26.8800   39.5100 H   0  0  0  0  0  0  0  0  0  0  0  0
   36.3400   25.6540   42.9810 H   0  0  0  0  0  0  0  0  0  0  0  0
   39.4110   23.2200   41.2540 H   0  0  0  0  0  0  0  0  0  0  0  0
  3  2  1  0  0  0  0
  3  1  1  0  0  0  0
  4  3  2  0  0  0  0
  5  4  1  0  0  0  0
  6 11  2  0  0  0  0
  6  4  1  0  0  0  0
  7  6  1  0  0  0  0
  8  7  1  0  0  0  0
  8 10  2  0  0  0  0
  9  8  1  0  0  0  0
 10 11  1  0  0  0  0
 11 12  1  0  0  0  0
 12  2  2  0  0  0  0
 13  7  1  0  0  0  0
 14 15  1  0  0  0  0
 14 18  1  0  0  0  0
 14  1  1  0  0  0  0
 16 14  1  0  0  0  0
 17 18  1  0  0  0  0
 18 19  2  0  0  0  0
 19 24  1  0  0  0  0
 20 19  1  0  0  0  0
 21 20  2  0  0  0  0
 22 17  2  0  0  0  0
 22 21  1  0  0  0  0
 23 17  1  0  0  0  0
 25 21  1  0  0  0  0
M  END
>  <minimizedAffinity>
-4.76187992

$$$$

 OpenBabel03252504283D

 25 27  0  0  0  0  0  0  0  0999 V2000
   39.0930   30.1100   42.9030 O   0  0  0  0  0  0  0  0  0  0  0  0
   37.2380   28.6140   43.3460 C   0  0  0  0  0  3  0  0  0  0  0  0
   38.4780   28.8730   42.8070 C   0  0  0  0  0  0  0  0  0  0  0  0
   39.1040   27.8260   42.1510 C   0  0  0  0  0  0  0  0  0  0  0  0
   40.0620   27.9440   41.7070 H   0  0  0  0  0  0  0  0  0  0  0  0
   38.5200   26.5890   42.0390 C   0  0  0  0  0  0  0  0  0  0  0  0
   38.9190   25.4430   41.4630 N   0  0  0  0  0  0  0  0  0  0  0  0
   37.9950   24.4760   41.6110 C   0  0  0  0  0  0  0  0  0  0  0  0
   38.0770   23.4590   41.2360 H   0  0  0  0  0  0  0  0  0  0  0  0
   36.9860   25.0450   42.3040 N   0  0  0  0  0  0  0  0  0  0  0  0
   37.2820   26.3210   42.5740 C   0  0  0  0  0  0  0  0  0  0  0  0
   36.6430   27.3670   43.2380 C   0  0  0  0  0  3  0  0  0  0  0  0
   39.8220   25.2880   40.9580 H   0  0  0  0  0  0  0  0  0  0  0  0
   39.7120   30.6690   41.7990 C   0  0  0  0  0  0  0  0  0  0  0  0
   40.6160   31.2290   42.1790 H   0  0  0  0  0  0  0  0  0  0  0  0
   40.1570   29.8840   41.1400 H   0  0  0  0  0  0  0  0  0  0  0  0
   39.1870   32.8840   41.0200 C   0  0  0  0  0  0  0  0  0  0  0  0
   38.8460   31.5490   41.0140 C   0  0  0  0  0  0  0  0  0  0  0  0
   37.7390   31.1730   40.2820 C   0  0  0  0  0  0  0  0  0  0  0  0
   37.0660   32.1430   39.6240 N   0  0  0  0  0  0  0  0  0  0  0  0
   37.4050   33.4390   39.6370 C   0  0  0  0  0  0  0  0  0  0  0  0
   38.5010   33.8660   40.3500 N   0  0  0  0  0  0  0  0  0  0  0  0
   40.0570   33.2630   41.5790 H   0  0  0  0  0  0  0  0  0  0  0  0
   37.4840   30.1300   40.2850 H   0  0  0  0  0  0  0  0  0  0  0  0
   36.8490   34.1950   39.1010 H   0  0  0  0  0  0  0  0  0  0  0  0
  3  1  1  0  0  0  0
  3  2  2  0  0  0  0
  4  3  1  0  0  0  0
  5  4  1  0  0  0  0
  6  4  2  0  0  0  0
  6 11  1  0  0  0  0
  7  8  1  0  0  0  0
  7  6  1  0  0  0  0
  8 10  2  0  0  0  0
  9  8  1  0  0  0  0
 10 11  1  0  0  0  0
 11 12  2  0  0  0  0
 12  2  1  0  0  0  0
 13  7  1  0  0  0  0
 14 15  1  0  0  0  0
 14  1  1  0  0  0  0
 16 14  1  0  0  0  0
 17 23  1  0  0  0  0
 18 17  1  0  0  0  0
 18 14  1  0  0  0  0
 19 24  1  0  0  0  0
 19 18  2  0  0  0  0
 20 21  2  0  0  0  0
 20 19  1  0  0  0  0
 21 22  1  0  0  0  0
 22 17  2  0  0  0  0
 25 21  1  0  0  0  0
M  END
>  <minimizedAffinity>
-4.70043659

$$$$

 OpenBabel03252504283D

 25 27  0  0  0  0  0  0  0  0999 V2000
   36.6280   30.0200   41.8110 O   0  0  0  0  0  0  0  0  0  0  0  0
   38.4630   28.8560   42.8850 C   0  0  0  0  0  3  0  0  0  0  0  0
   37.3070   28.8590   42.1360 C   0  0  0  0  0  0  0  0  0  0  0  0
   36.8380   27.6270   41.7110 C   0  0  0  0  0  0  0  0  0  0  0  0
   35.9520   27.5430   41.1300 H   0  0  0  0  0  0  0  0  0  0  0  0
   37.4890   26.4580   42.0170 C   0  0  0  0  0  0  0  0  0  0  0  0
   37.2340   25.1710   41.7260 N   0  0  0  0  0  0  0  0  0  0  0  0
   38.1690   24.3600   42.2520 C   0  0  0  0  0  0  0  0  0  0  0  0
   38.1930   23.2770   42.1610 H   0  0  0  0  0  0  0  0  0  0  0  0
   39.0350   25.1740   42.8930 N   0  0  0  0  0  0  0  0  0  0  0  0
   38.6430   26.4460   42.7640 C   0  0  0  0  0  0  0  0  0  0  0  0
   39.1260   27.6800   43.1980 C   0  0  0  0  0  3  0  0  0  0  0  0
   36.4260   24.8140   41.1670 H   0  0  0  0  0  0  0  0  0  0  0  0
   35.7900   30.0540   40.7100 C   0  0  0  0  0  0  0  0  0  0  0  0
   35.3820   29.0090   40.5780 H   0  0  0  0  0  0  0  0  0  0  0  0
   34.8750   30.6620   40.9130 H   0  0  0  0  0  0  0  0  0  0  0  0
   37.0140   31.7700   39.5490 C   0  0  0  0  0  0  0  0  0  0  0  0
   36.4380   30.5190   39.4840 C   0  0  0  0  0  0  0  0  0  0  0  0
   36.5230   29.8350   38.2890 C   0  0  0  0  0  0  0  0  0  0  0  0
   37.1660   30.4420   37.2660 N   0  0  0  0  0  0  0  0  0  0  0  0
   37.7220   31.6580   37.3390 C   0  0  0  0  0  0  0  0  0  0  0  0
   37.6650   32.3820   38.5080 N   0  0  0  0  0  0  0  0  0  0  0  0
   36.9890   32.3770   40.4670 H   0  0  0  0  0  0  0  0  0  0  0  0
   36.0710   28.8620   38.2510 H   0  0  0  0  0  0  0  0  0  0  0  0
   38.2300   32.1210   36.5040 H   0  0  0  0  0  0  0  0  0  0  0  0
  1  3  1  0  0  0  0
  2 12  1  0  0  0  0
  3  2  2  0  0  0  0
  4  6  2  0  0  0  0
  4  3  1  0  0  0  0
  5  4  1  0  0  0  0
  6 11  1  0  0  0  0
  7  6  1  0  0  0  0
  7  8  1  0  0  0  0
  8 10  2  0  0  0  0
  9  8  1  0  0  0  0
 11 10  1  0  0  0  0
 11 12  2  0  0  0  0
 13  7  1  0  0  0  0
 14 16  1  0  0  0  0
 14  1  1  0  0  0  0
 15 14  1  0  0  0  0
 17 23  1  0  0  0  0
 18 17  1  0  0  0  0
 18 14  1  0  0  0  0
 19 18  2  0  0  0  0
 20 21  2  0  0  0  0
 20 19  1  0  0  0  0
 21 22  1  0  0  0  0
 22 17  2  0  0  0  0
 24 19  1  0  0  0  0
 25 21  1  0  0  0  0
M  END
>  <minimizedAffinity>
-4.62855196

$$$$

 OpenBabel03252504283D

 25 27  0  0  0  0  0  0  0  0999 V2000
   36.1710   29.4000   40.3090 O   0  0  0  0  0  0  0  0  0  0  0  0
   36.6180   28.0190   42.2500 C   0  0  0  0  0  3  0  0  0  0  0  0
   36.4900   28.1850   40.8890 C   0  0  0  0  0  0  0  0  0  0  0  0
   36.6980   27.0630   40.1030 C   0  0  0  0  0  0  0  0  0  0  0  0
   36.6180   27.1070   39.0440 H   0  0  0  0  0  0  0  0  0  0  0  0
   37.0150   25.8450   40.6480 C   0  0  0  0  0  0  0  0  0  0  0  0
   37.2580   24.6400   40.1050 N   0  0  0  0  0  0  0  0  0  0  0  0
   37.5320   23.7250   41.0530 C   0  0  0  0  0  0  0  0  0  0  0  0
   37.7620   22.6780   40.8750 H   0  0  0  0  0  0  0  0  0  0  0  0
   37.4550   24.3880   42.2270 N   0  0  0  0  0  0  0  0  0  0  0  0
   37.1450   25.6700   42.0060 C   0  0  0  0  0  0  0  0  0  0  0  0
   36.9380   26.7910   42.8080 C   0  0  0  0  0  3  0  0  0  0  0  0
   37.2450   24.4090   39.0860 H   0  0  0  0  0  0  0  0  0  0  0  0
   36.2280   30.5650   41.0540 C   0  0  0  0  0  0  0  0  0  0  0  0
   35.2880   31.1470   40.8240 H   0  0  0  0  0  0  0  0  0  0  0  0
   36.1370   30.3550   42.1480 H   0  0  0  0  0  0  0  0  0  0  0  0
   37.2240   32.4970   40.0210 C   0  0  0  0  0  0  0  0  0  0  0  0
   37.4190   31.3760   40.7990 C   0  0  0  0  0  0  0  0  0  0  0  0
   38.6970   31.1260   41.2540 C   0  0  0  0  0  0  0  0  0  0  0  0
   39.6670   31.9990   40.9040 N   0  0  0  0  0  0  0  0  0  0  0  0
   39.4670   33.0860   40.1470 C   0  0  0  0  0  0  0  0  0  0  0  0
   38.2120   33.3810   39.6680 N   0  0  0  0  0  0  0  0  0  0  0  0
   36.2340   32.7650   39.6200 H   0  0  0  0  0  0  0  0  0  0  0  0
   38.8360   30.2500   41.8590 H   0  0  0  0  0  0  0  0  0  0  0  0
   40.2630   33.7690   39.8810 H   0  0  0  0  0  0  0  0  0  0  0  0
  1  3  1  0  0  0  0
  1 14  1  0  0  0  0
  2 12  1  0  0  0  0
  3  2  2  0  0  0  0
  4  6  2  0  0  0  0
  4  3  1  0  0  0  0
  5  4  1  0  0  0  0
  6 11  1  0  0  0  0
  7  6  1  0  0  0  0
  7  8  1  0  0  0  0
  8 10  2  0  0  0  0
  9  8  1  0  0  0  0
 11 10  1  0  0  0  0
 11 12  2  0  0  0  0
 13  7  1  0  0  0  0
 14 16  1  0  0  0  0
 15 14  1  0  0  0  0
 17 18  1  0  0  0  0
 18 14  1  0  0  0  0
 18 19  2  0  0  0  0
 19 24  1  0  0  0  0
 20 19  1  0  0  0  0
 21 20  2  0  0  0  0
 22 17  2  0  0  0  0
 22 21  1  0  0  0  0
 23 17  1  0  0  0  0
 25 21  1  0  0  0  0
M  END
>  <minimizedAffinity>
-4.55502415

$$$$

 OpenBabel03252504283D

 25 27  0  0  0  0  0  0  0  0999 V2000
   37.9900   28.2460   42.2160 O   0  0  0  0  0  0  0  0  0  0  0  0
   36.7040   29.8520   40.9340 C   0  0  0  0  0  3  0  0  0  0  0  0
   37.8250   29.4990   41.6520 C   0  0  0  0  0  0  0  0  0  0  0  0
   38.8050   30.4680   41.7920 C   0  0  0  0  0  0  0  0  0  0  0  0
   39.7000   30.2760   42.3310 H   0  0  0  0  0  0  0  0  0  0  0  0
   38.6700   31.7190   41.2440 C   0  0  0  0  0  0  0  0  0  0  0  0
   39.4650   32.8030   41.2440 N   0  0  0  0  0  0  0  0  0  0  0  0
   38.9020   33.8190   40.5650 C   0  0  0  0  0  0  0  0  0  0  0  0
   39.3400   34.8030   40.4170 H   0  0  0  0  0  0  0  0  0  0  0  0
   37.7150   33.3460   40.1280 N   0  0  0  0  0  0  0  0  0  0  0  0
   37.5550   32.0800   40.5260 C   0  0  0  0  0  0  0  0  0  0  0  0
   36.5610   31.1130   40.3780 C   0  0  0  0  0  3  0  0  0  0  0  0
   40.4010   32.8810   41.7020 H   0  0  0  0  0  0  0  0  0  0  0  0
   36.9050   27.4010   42.3680 C   0  0  0  0  0  0  0  0  0  0  0  0
   36.7710   27.2360   43.4770 H   0  0  0  0  0  0  0  0  0  0  0  0
   35.9520   27.9020   42.0680 H   0  0  0  0  0  0  0  0  0  0  0  0
   36.8670   26.1740   40.2980 C   0  0  0  0  0  0  0  0  0  0  0  0
   37.0410   26.1250   41.6640 C   0  0  0  0  0  0  0  0  0  0  0  0
   37.3220   24.9000   42.2320 C   0  0  0  0  0  0  0  0  0  0  0  0
   37.4050   23.8330   41.4060 N   0  0  0  0  0  0  0  0  0  0  0  0
   37.2330   23.8900   40.0790 C   0  0  0  0  0  0  0  0  0  0  0  0
   36.9520   25.0880   39.4640 N   0  0  0  0  0  0  0  0  0  0  0  0
   36.6410   27.1140   39.7710 H   0  0  0  0  0  0  0  0  0  0  0  0
   37.4560   24.8750   43.2970 H   0  0  0  0  0  0  0  0  0  0  0  0
   37.3050   23.0200   39.4410 H   0  0  0  0  0  0  0  0  0  0  0  0
  1 14  1  0  0  0  0
  2  3  1  0  0  0  0
  3  4  2  0  0  0  0
  3  1  1  0  0  0  0
  4  5  1  0  0  0  0
  6  4  1  0  0  0  0
  7  6  1  0  0  0  0
  7 13  1  0  0  0  0
  8  7  1  0  0  0  0
  9  8  1  0  0  0  0
 10 11  1  0  0  0  0
 10  8  2  0  0  0  0
 11  6  2  0  0  0  0
 12 11  1  0  0  0  0
 12  2  2  0  0  0  0
 14 15  1  0  0  0  0
 16 14  1  0  0  0  0
 17 18  1  0  0  0  0
 18 19  2  0  0  0  0
 18 14  1  0  0  0  0
 19 24  1  0  0  0  0
 20 19  1  0  0  0  0
 21 20  2  0  0  0  0
 22 21  1  0  0  0  0
 22 17  2  0  0  0  0
 23 17  1  0  0  0  0
 25 21  1  0  0  0  0
M  END
>  <minimizedAffinity>
-4.46722984

$$$$

 OpenBabel03252504283D

 25 27  0  0  0  0  0  0  0  0999 V2000
   35.8950   28.1820   40.5330 O   0  0  0  0  0  0  0  0  0  0  0  0
   36.8410   27.9980   42.7570 C   0  0  0  0  0  3  0  0  0  0  0  0
   36.8700   27.7320   41.4060 C   0  0  0  0  0  0  0  0  0  0  0  0
   37.9380   26.9800   40.9430 C   0  0  0  0  0  0  0  0  0  0  0  0
   38.0330   26.7310   39.9140 H   0  0  0  0  0  0  0  0  0  0  0  0
   38.9190   26.5200   41.7840 C   0  0  0  0  0  0  0  0  0  0  0  0
   40.0270   25.7890   41.5750 N   0  0  0  0  0  0  0  0  0  0  0  0
   40.6960   25.5810   42.7240 C   0  0  0  0  0  0  0  0  0  0  0  0
   41.6220   25.0200   42.8260 H   0  0  0  0  0  0  0  0  0  0  0  0
   39.9750   26.2060   43.6790 N   0  0  0  0  0  0  0  0  0  0  0  0
   38.8980   26.7810   43.1340 C   0  0  0  0  0  0  0  0  0  0  0  0
   37.8290   27.5370   43.6120 C   0  0  0  0  0  3  0  0  0  0  0  0
   40.3550   25.4160   40.6560 H   0  0  0  0  0  0  0  0  0  0  0  0
   35.4170   29.4770   40.6280 C   0  0  0  0  0  0  0  0  0  0  0  0
   34.3880   29.4800   40.1630 H   0  0  0  0  0  0  0  0  0  0  0  0
   35.2180   29.7610   41.6900 H   0  0  0  0  0  0  0  0  0  0  0  0
   36.4520   30.3410   38.6350 C   0  0  0  0  0  0  0  0  0  0  0  0
   36.2780   30.4770   39.9960 C   0  0  0  0  0  0  0  0  0  0  0  0
   36.9220   31.5220   40.6240 C   0  0  0  0  0  0  0  0  0  0  0  0
   37.6800   32.3400   39.8590 N   0  0  0  0  0  0  0  0  0  0  0  0
   37.8430   32.1990   38.5370 C   0  0  0  0  0  0  0  0  0  0  0  0
   37.2220   31.1740   37.8620 N   0  0  0  0  0  0  0  0  0  0  0  0
   35.9710   29.5340   38.0620 H   0  0  0  0  0  0  0  0  0  0  0  0
   36.7790   31.6160   41.6840 H   0  0  0  0  0  0  0  0  0  0  0  0
   38.4550   32.8690   37.9490 H   0  0  0  0  0  0  0  0  0  0  0  0
  1 14  1  0  0  0  0
  1  3  1  0  0  0  0
  2 12  1  0  0  0  0
  3  2  2  0  0  0  0
  4  3  1  0  0  0  0
  4  6  2  0  0  0  0
  5  4  1  0  0  0  0
  6 11  1  0  0  0  0
  7  6  1  0  0  0  0
  7  8  1  0  0  0  0
  8  9  1  0  0  0  0
  8 10  2  0  0  0  0
 11 12  2  0  0  0  0
 11 10  1  0  0  0  0
 13  7  1  0  0  0  0
 14 16  1  0  0  0  0
 15 14  1  0  0  0  0
 17 18  1  0  0  0  0
 18 19  2  0  0  0  0
 18 14  1  0  0  0  0
 19 24  1  0  0  0  0
 20 19  1  0  0  0  0
 21 20  2  0  0  0  0
 22 21  1  0  0  0  0
 22 17  2  0  0  0  0
 23 17  1  0  0  0  0
 25 21  1  0  0  0  0
M  END
>  <minimizedAffinity>
-4.39537191

$$$$
