
 OpenBabel03252509293D

 24 26  0  0  0  0  0  0  0  0999 V2000
   47.1250   35.0560   41.9160 C   0  0  0  0  0  0  0  0  0  0  0  0
   47.3400   36.0900   41.6090 H   0  0  0  0  0  0  0  0  0  0  0  0
   48.1130   34.6020   42.1450 H   0  0  0  0  0  0  0  0  0  0  0  0
   45.2060   34.0440   40.7620 C   0  0  0  0  0  3  0  0  0  0  0  0
   46.5630   34.2870   40.7730 C   0  0  0  0  0  0  0  0  0  0  0  0
   47.3620   33.8250   39.7470 C   0  0  0  0  0  0  0  0  0  0  0  0
   48.4400   34.0120   39.7450 H   0  0  0  0  0  0  0  0  0  0  0  0
   46.8200   33.1140   38.6940 C   0  0  0  0  0  0  0  0  0  0  0  0
   47.3430   32.5470   37.5720 N   0  0  0  0  0  0  0  0  0  0  0  0
   46.2910   31.9780   36.9150 C   0  0  0  0  0  0  0  0  0  0  0  0
   46.3930   31.4470   35.9770 H   0  0  0  0  0  0  0  0  0  0  0  0
   45.1450   32.1830   37.6050 N   0  0  0  0  0  0  0  0  0  0  0  0
   45.4750   32.8850   38.7040 C   0  0  0  0  0  0  0  0  0  0  0  0
   44.6310   33.3290   39.7140 C   0  0  0  0  0  3  0  0  0  0  0  0
   48.3490   32.5570   37.2880 H   0  0  0  0  0  0  0  0  0  0  0  0
   44.5980   35.9670   44.4890 C   0  0  0  0  0  0  0  0  0  0  0  0
   45.3920   36.0100   43.3220 C   0  0  0  0  0  0  0  0  0  0  0  0
   46.3130   34.9950   43.1290 C   0  0  0  0  0  0  0  0  0  0  0  0
   46.4140   34.0060   44.0650 N   0  0  0  0  0  0  0  0  0  0  0  0
   45.6360   34.0020   45.1690 C   0  0  0  0  0  0  0  0  0  0  0  0
   44.7390   34.9680   45.3830 N   0  0  0  0  0  0  0  0  0  0  0  0
   43.8640   36.7370   44.6870 H   0  0  0  0  0  0  0  0  0  0  0  0
   45.2330   36.8310   42.6520 H   0  0  0  0  0  0  0  0  0  0  0  0
   45.7610   33.1790   45.8890 H   0  0  0  0  0  0  0  0  0  0  0  0
  1  3  1  0  0  0  0
  1 18  1  0  0  0  0
  2  1  1  0  0  0  0
  4  5  1  0  0  0  0
  5  1  1  0  0  0  0
  6  5  2  0  0  0  0
  7  6  1  0  0  0  0
  8 13  2  0  0  0  0
  8  6  1  0  0  0  0
  9  8  1  0  0  0  0
 10  9  1  0  0  0  0
 10 12  2  0  0  0  0
 11 10  1  0  0  0  0
 12 13  1  0  0  0  0
 13 14  1  0  0  0  0
 14  4  2  0  0  0  0
 15  9  1  0  0  0  0
 16 22  1  0  0  0  0
 16 21  1  0  0  0  0
 17 16  2  0  0  0  0
 18 17  1  0  0  0  0
 18 19  2  0  0  0  0
 19 20  1  0  0  0  0
 20 21  2  0  0  0  0
 20 24  1  0  0  0  0
 23 17  1  0  0  0  0
M  END
>  <minimizedAffinity>
-4.46880484

>  <minimizedRMSD>
1.05516958

$$$$
