
 OpenBabel03252503343D

 25 27  0  0  0  0  0  0  0  0999 V2000
   45.3680   33.8120   41.0000 C   0  0  0  0  0  0  0  0  0  0  0  0
   44.2080   33.4950   41.3820 O   0  0  0  0  0  0  0  0  0  0  0  0
   46.1220   34.5000   41.9860 N   0  0  0  0  0  0  0  0  0  0  0  0
   47.0700   34.8810   41.7790 H   0  0  0  0  0  0  0  0  0  0  0  0
   45.1920   33.0210   38.6140 C   0  0  0  0  0  3  0  0  0  0  0  0
   45.9150   33.5170   39.6800 C   0  0  0  0  0  0  0  0  0  0  0  0
   47.2650   33.7510   39.4740 C   0  0  0  0  0  0  0  0  0  0  0  0
   47.9590   34.1370   40.2120 H   0  0  0  0  0  0  0  0  0  0  0  0
   47.8700   33.4970   38.2430 C   0  0  0  0  0  0  0  0  0  0  0  0
   49.0970   33.6020   37.7130 N   0  0  0  0  0  0  0  0  0  0  0  0
   49.0860   33.1960   36.4320 C   0  0  0  0  0  0  0  0  0  0  0  0
   49.9060   33.1530   35.7180 H   0  0  0  0  0  0  0  0  0  0  0  0
   47.8350   32.8090   36.0830 N   0  0  0  0  0  0  0  0  0  0  0  0
   47.1120   33.0010   37.2010 C   0  0  0  0  0  0  0  0  0  0  0  0
   45.7690   32.7650   37.3930 C   0  0  0  0  0  3  0  0  0  0  0  0
   49.9340   33.9540   38.2400 H   0  0  0  0  0  0  0  0  0  0  0  0
   44.4530   36.0520   44.9190 C   0  0  0  0  0  0  0  0  0  0  0  0
   44.9190   35.8730   43.5990 C   0  0  0  0  0  0  0  0  0  0  0  0
   45.6390   34.7120   43.3040 C   0  0  0  0  0  0  0  0  0  0  0  0
   45.8670   33.8070   44.2760 N   0  0  0  0  0  0  0  0  0  0  0  0
   45.4010   34.0100   45.5500 C   0  0  0  0  0  0  0  0  0  0  0  0
   44.7080   35.1220   45.8430 N   0  0  0  0  0  0  0  0  0  0  0  0
   43.8930   36.9380   45.1810 H   0  0  0  0  0  0  0  0  0  0  0  0
   44.7050   36.6370   42.8560 H   0  0  0  0  0  0  0  0  0  0  0  0
   45.6410   33.2210   46.2470 H   0  0  0  0  0  0  0  0  0  0  0  0
  1  2  2  0  0  0  0
  1  3  1  0  0  0  0
  3 19  1  0  0  0  0
  4  3  1  0  0  0  0
  5  6  1  0  0  0  0
  6  1  1  0  0  0  0
  7  6  2  0  0  0  0
  7  8  1  0  0  0  0
  9  7  1  0  0  0  0
 10 16  1  0  0  0  0
 10  9  1  0  0  0  0
 11 10  1  0  0  0  0
 12 11  1  0  0  0  0
 13 11  2  0  0  0  0
 13 14  1  0  0  0  0
 14 15  1  0  0  0  0
 14  9  2  0  0  0  0
 15  5  2  0  0  0  0
 17 23  1  0  0  0  0
 17 22  1  0  0  0  0
 18 17  2  0  0  0  0
 19 18  1  0  0  0  0
 19 20  2  0  0  0  0
 20 21  1  0  0  0  0
 21 22  2  0  0  0  0
 21 25  1  0  0  0  0
 24 18  1  0  0  0  0
M  END
>  <minimizedAffinity>
-4.68183565

>  <minimizedRMSD>
1.44206953

$$$$
