
 OpenBabel03252501163D

 38 42  0  0  1  0  0  0  0  0999 V2000
   45.5700   27.5510   46.9520 C   0  0  1  0  0  0  0  0  0  0  0  0
   44.2950   28.1610   46.5100 C   0  0  0  0  0  0  0  0  0  0  0  0
   45.4600   28.9910   47.1750 C   0  0  2  0  0  0  0  0  0  0  0  0
   46.2270   27.1510   46.1280 H   0  0  0  0  0  0  0  0  0  0  0  0
   43.3880   28.1290   47.1320 H   0  0  0  0  0  0  0  0  0  0  0  0
   44.1110   28.3640   45.4390 H   0  0  0  0  0  0  0  0  0  0  0  0
   45.2310   29.3660   48.1720 H   0  0  0  0  0  0  0  0  0  0  0  0
   44.3900   25.7600   50.0350 C   0  0  0  0  0  0  0  0  0  0  0  0
   44.3890   26.6690   48.9910 C   0  0  0  0  0  0  0  0  0  0  0  0
   45.4620   26.6130   48.1090 C   0  0  0  0  0  0  0  0  0  0  0  0
   46.4410   25.6980   48.2980 N   0  0  0  0  0  0  0  0  0  0  0  0
   46.3980   24.8240   49.3400 C   0  0  0  0  0  0  0  0  0  0  0  0
   45.3650   24.8630   50.2060 N   0  0  0  0  0  0  0  0  0  0  0  0
   43.6250   27.4030   48.8230 H   0  0  0  0  0  0  0  0  0  0  0  0
   47.1790   24.0810   49.5070 H   0  0  0  0  0  0  0  0  0  0  0  0
   43.2380   25.7940   50.9940 C   0  0  0  0  0  0  0  0  0  0  0  0
   43.2660   27.0140   51.6300 F   0  0  0  0  0  0  0  0  0  0  0  0
   43.4640   24.8150   51.9390 F   0  0  0  0  0  0  0  0  0  0  0  0
   42.0510   25.6360   50.3430 F   0  0  0  0  0  0  0  0  0  0  0  0
   46.1570   29.8640   46.1910 C   0  0  0  0  0  0  0  0  0  0  0  0
   47.4580   29.7310   45.7150 C   0  0  0  0  0  0  0  0  0  0  0  0
   47.5690   30.7920   44.8390 C   0  0  0  0  0  0  0  0  0  0  0  0
   46.3640   31.5240   44.8080 C   0  0  0  0  0  0  0  0  0  0  0  0
   45.5880   30.8940   45.6450 O   0  0  0  0  0  0  0  0  0  0  0  0
   48.1760   28.9750   45.9810 H   0  0  0  0  0  0  0  0  0  0  0  0
   48.4790   31.0090   44.2650 H   0  0  0  0  0  0  0  0  0  0  0  0
   47.1030   33.6380   43.7660 C   0  0  0  0  0  3  0  0  0  0  0  0
   46.1070   32.7120   43.9970 C   0  0  0  0  0  0  0  0  0  0  0  0
   44.8280   32.8410   43.4900 C   0  0  0  0  0  0  0  0  0  0  0  0
   44.0360   32.1070   43.6730 H   0  0  0  0  0  0  0  0  0  0  0  0
   44.5030   33.9260   42.7210 C   0  0  0  0  0  0  0  0  0  0  0  0
   43.3790   34.3160   42.1070 N   0  0  0  0  0  0  0  0  0  0  0  0
   43.6440   35.4680   41.4940 C   0  0  0  0  0  0  0  0  0  0  0  0
   42.9770   36.0900   40.8920 H   0  0  0  0  0  0  0  0  0  0  0  0
   44.9430   35.8240   41.7110 N   0  0  0  0  0  0  0  0  0  0  0  0
   45.4950   34.8530   42.4880 C   0  0  0  0  0  0  0  0  0  0  0  0
   46.7930   34.7530   42.9820 C   0  0  0  0  0  3  0  0  0  0  0  0
   42.4500   33.8080   42.1060 H   0  0  0  0  0  0  0  0  0  0  0  0
  1  4  1  6  0  0  0
  1  3  1  0  0  0  0
  1 10  1  0  0  0  0
  2  1  1  0  0  0  0
  2  5  1  0  0  0  0
  2  3  1  0  0  0  0
  3  7  1  1  0  0  0
  6  2  1  0  0  0  0
  8 13  1  0  0  0  0
  8 16  1  0  0  0  0
  9  8  2  0  0  0  0
 10 11  2  0  0  0  0
 10  9  1  0  0  0  0
 11 12  1  0  0  0  0
 12 15  1  0  0  0  0
 12 13  2  0  0  0  0
 14  9  1  0  0  0  0
 16 17  1  0  0  0  0
 16 18  1  0  0  0  0
 19 16  1  0  0  0  0
 20  3  1  0  0  0  0
 21 25  1  0  0  0  0
 21 20  2  0  0  0  0
 22 21  1  0  0  0  0
 23 22  2  0  0  0  0
 23 24  1  0  0  0  0
 24 20  1  0  0  0  0
 26 22  1  0  0  0  0
 27 28  1  0  0  0  0
 28 23  1  0  0  0  0
 29 30  1  0  0  0  0
 29 28  2  0  0  0  0
 31 29  1  0  0  0  0
 32 31  1  0  0  0  0
 33 35  2  0  0  0  0
 33 32  1  0  0  0  0
 34 33  1  0  0  0  0
 35 36  1  0  0  0  0
 36 31  2  0  0  0  0
 36 37  1  0  0  0  0
 37 27  2  0  0  0  0
 38 32  1  0  0  0  0
M  END
>  <minimizedAffinity>
-4.84533262

>  <minimizedRMSD>
6.61900854

$$$$
