
 OpenBabel03252507043D

 50 54  0  0  0  0  0  0  0  0999 V2000
   41.0100   33.5850   40.1980 N   0  0  0  0  0  0  0  0  0  0  0  0
   40.3910   32.2960   40.2070 C   0  0  0  0  0  0  0  0  0  0  0  0
   39.0300   32.6910   40.7740 C   0  0  0  0  0  0  0  0  0  0  0  0
   38.3090   33.6590   39.9660 C   0  0  0  0  0  0  0  0  0  0  0  0
   39.0580   34.5320   39.0880 C   0  0  0  0  0  0  0  0  0  0  0  0
   40.5670   34.5610   39.1780 C   0  0  0  0  0  0  0  0  0  0  0  0
   40.3490   31.7270   39.2960 H   0  0  0  0  0  0  0  0  0  0  0  0
   40.8510   31.6560   40.9810 H   0  0  0  0  0  0  0  0  0  0  0  0
   39.1760   33.0070   41.8330 H   0  0  0  0  0  0  0  0  0  0  0  0
   38.4510   31.7280   40.8600 H   0  0  0  0  0  0  0  0  0  0  0  0
   37.5630   33.1120   39.3160 H   0  0  0  0  0  0  0  0  0  0  0  0
   37.6760   34.2960   40.6390 H   0  0  0  0  0  0  0  0  0  0  0  0
   38.6420   35.1840   38.3880 H   0  0  0  0  0  0  0  0  0  0  0  0
   41.9450   34.0350   41.0400 C   0  0  0  0  0  0  0  0  0  0  0  0
   41.6390   33.9750   42.1070 H   0  0  0  0  0  0  0  0  0  0  0  0
   42.1860   35.1460   40.9030 H   0  0  0  0  0  0  0  0  0  0  0  0
   43.2610   33.3600   40.9020 C   0  0  0  0  0  0  0  0  0  0  0  0
   43.2200   32.3590   41.3890 H   0  0  0  0  0  0  0  0  0  0  0  0
   43.5260   33.2410   39.8160 H   0  0  0  0  0  0  0  0  0  0  0  0
   44.2720   34.1620   41.6140 C   0  0  0  0  0  0  0  0  0  0  0  0
   43.9030   35.2990   42.2950 C   0  0  0  0  0  0  0  0  0  0  0  0
   44.8890   36.0320   42.9420 C   0  0  0  0  0  0  0  0  0  0  0  0
   46.1750   35.5810   42.8700 N   0  0  0  0  0  0  0  0  0  0  0  0
   46.4940   34.4720   42.2040 C   0  0  0  0  0  0  0  0  0  0  0  0
   45.5290   33.7840   41.5850 N   0  0  0  0  0  0  0  0  0  0  0  0
   42.9670   35.7990   42.4800 H   0  0  0  0  0  0  0  0  0  0  0  0
   44.7870   36.9510   43.5230 H   0  0  0  0  0  0  0  0  0  0  0  0
   47.8920   34.0480   42.2160 C   0  0  0  0  0  0  0  0  0  0  0  0
   48.2210   32.7130   41.9980 C   0  0  0  0  0  0  0  0  0  0  0  0
   49.5440   32.3170   42.0280 C   0  0  0  0  0  0  0  0  0  0  0  0
   50.4380   33.3280   42.2800 C   0  0  0  0  0  0  0  0  0  0  0  0
   50.1600   34.6710   42.5020 C   0  0  0  0  0  0  0  0  0  0  0  0
   48.8360   34.9770   42.4560 N   0  0  0  0  0  0  0  0  0  0  0  0
   47.4450   31.9960   41.8080 H   0  0  0  0  0  0  0  0  0  0  0  0
   49.8660   31.3170   41.8710 H   0  0  0  0  0  0  0  0  0  0  0  0
   51.4990   33.0630   42.3140 H   0  0  0  0  0  0  0  0  0  0  0  0
   50.9330   35.3950   42.6940 H   0  0  0  0  0  0  0  0  0  0  0  0
   41.5810   35.5730   38.2290 S   0  0  0  0  0  0  0  0  0  0  0  0
   40.9550   36.9490   36.2130 C   0  0  0  0  0  3  0  0  0  0  0  0
   40.9750   37.0600   37.6030 C   0  0  0  0  0  0  0  0  0  0  0  0
   40.5550   38.2650   38.0460 C   0  0  0  0  0  0  0  0  0  0  0  0
   40.5950   38.3630   39.1130 H   0  0  0  0  0  0  0  0  0  0  0  0
   40.1330   39.3310   37.3280 C   0  0  0  0  0  0  0  0  0  0  0  0
   39.7040   40.5480   37.6950 N   0  0  0  0  0  0  0  0  0  0  0  0
   39.4270   41.1620   36.5160 C   0  0  0  0  0  0  0  0  0  0  0  0
   39.0500   42.1900   36.5070 H   0  0  0  0  0  0  0  0  0  0  0  0
   39.6740   40.3620   35.4780 N   0  0  0  0  0  0  0  0  0  0  0  0
   40.1280   39.1800   35.9620 C   0  0  0  0  0  0  0  0  0  0  0  0
   40.5370   37.9910   35.3820 C   0  0  0  0  0  3  0  0  0  0  0  0
   39.6070   40.9320   38.6690 H   0  0  0  0  0  0  0  0  0  0  0  0
  1  2  1  0  0  0  0
  1 14  1  0  0  0  0
  2  3  1  0  0  0  0
  2  8  1  0  0  0  0
  3 10  1  0  0  0  0
  3  9  1  0  0  0  0
  4 12  1  0  0  0  0
  4  3  1  0  0  0  0
  5  6  2  0  0  0  0
  5  4  1  0  0  0  0
  6  1  1  0  0  0  0
  7  2  1  0  0  0  0
 11  4  1  0  0  0  0
 13  5  1  0  0  0  0
 14 15  1  0  0  0  0
 16 14  1  0  0  0  0
 17 14  1  0  0  0  0
 17 18  1  0  0  0  0
 17 20  1  0  0  0  0
 19 17  1  0  0  0  0
 20 21  1  0  0  0  0
 21 26  1  0  0  0  0
 21 22  2  0  0  0  0
 22 27  1  0  0  0  0
 23 22  1  0  0  0  0
 24 28  1  0  0  0  0
 24 23  2  0  0  0  0
 25 20  2  0  0  0  0
 25 24  1  0  0  0  0
 28 33  1  0  0  0  0
 29 30  1  0  0  0  0
 29 28  2  0  0  0  0
 30 31  2  0  0  0  0
 31 36  1  0  0  0  0
 31 32  1  0  0  0  0
 32 37  1  0  0  0  0
 33 32  2  0  0  0  0
 34 29  1  0  0  0  0
 35 30  1  0  0  0  0
 38  6  1  0  0  0  0
 39 40  1  0  0  0  0
 40 41  2  0  0  0  0
 40 38  1  0  0  0  0
 41 42  1  0  0  0  0
 43 44  1  0  0  0  0
 43 41  1  0  0  0  0
 44 50  1  0  0  0  0
 45 44  1  0  0  0  0
 46 45  1  0  0  0  0
 47 48  1  0  0  0  0
 47 45  2  0  0  0  0
 48 43  2  0  0  0  0
 49 48  1  0  0  0  0
 49 39  2  0  0  0  0
M  END
>  <minimizedAffinity>
-2.79062676

>  <minimizedRMSD>
0.708892703

$$$$
