
 OpenBabel03252500453D

 37 40  0  0  1  0  0  0  0  0999 V2000
   37.8150   26.9440   42.9720 C   0  0  1  0  0  0  0  0  0  0  0  0
   36.4580   27.4370   43.4550 C   0  0  0  0  0  0  0  0  0  0  0  0
   36.9370   27.7350   42.0510 C   0  0  1  0  0  0  0  0  0  0  0  0
   37.7880   25.8570   42.7620 H   0  0  0  0  0  0  0  0  0  0  0  0
   36.4450   28.2680   44.1910 H   0  0  0  0  0  0  0  0  0  0  0  0
   35.6040   26.7650   43.5220 H   0  0  0  0  0  0  0  0  0  0  0  0
   36.3980   27.2470   41.2170 H   0  0  0  0  0  0  0  0  0  0  0  0
   38.9960   27.6570   43.4940 C   0  0  0  0  0  0  0  0  0  0  0  0
   39.1770   28.5460   42.8560 H   0  0  0  0  0  0  0  0  0  0  0  0
   38.7920   28.0650   44.5250 H   0  0  0  0  0  0  0  0  0  0  0  0
   40.2310   26.8670   43.5290 C   0  0  0  0  0  0  0  0  0  0  0  0
   40.2110   25.7720   42.7060 C   0  0  0  0  0  0  0  0  0  0  0  0
   41.3150   24.9120   42.6330 C   0  0  0  0  0  0  0  0  0  0  0  0
   42.3840   25.2500   43.4340 N   0  0  0  0  0  0  0  0  0  0  0  0
   42.3860   26.3320   44.2380 C   0  0  0  0  0  0  0  0  0  0  0  0
   41.3170   27.1160   44.2720 N   0  0  0  0  0  0  0  0  0  0  0  0
   39.4910   25.3490   42.0100 H   0  0  0  0  0  0  0  0  0  0  0  0
   41.4710   24.0280   42.0590 H   0  0  0  0  0  0  0  0  0  0  0  0
   43.2820   26.5030   44.8260 H   0  0  0  0  0  0  0  0  0  0  0  0
   37.3150   29.0250   41.7810 O   0  0  0  0  0  0  0  0  0  0  0  0
   35.1460   28.8870   40.2230 O   0  0  0  0  0  0  0  0  0  0  0  0
   36.2650   29.7940   40.7080 P   0  0  1  0  0  0  0  0  0  0  0  0
   35.5460   31.1030   41.5300 O   0  0  0  0  0  0  0  0  0  0  0  0
   35.8400   31.1480   42.4720 H   0  0  0  0  0  0  0  0  0  0  0  0
   37.1520   30.4100   39.4000 O   0  0  0  0  0  0  0  0  0  0  0  0
   39.4500   31.0920   40.0990 C   0  0  0  0  0  3  0  0  0  0  0  0
   38.1520   31.3540   39.7000 C   0  0  0  0  0  0  0  0  0  0  0  0
   37.7150   32.6640   39.5580 C   0  0  0  0  0  0  0  0  0  0  0  0
   36.7150   32.9370   39.2510 H   0  0  0  0  0  0  0  0  0  0  0  0
   38.5640   33.7230   39.8110 C   0  0  0  0  0  0  0  0  0  0  0  0
   38.4740   35.0740   39.7740 N   0  0  0  0  0  0  0  0  0  0  0  0
   39.6140   35.6610   40.1180 C   0  0  0  0  0  0  0  0  0  0  0  0
   39.7130   36.7510   40.1420 H   0  0  0  0  0  0  0  0  0  0  0  0
   40.4860   34.6530   40.3920 N   0  0  0  0  0  0  0  0  0  0  0  0
   39.8660   33.4730   40.2100 C   0  0  0  0  0  0  0  0  0  0  0  0
   40.2840   32.1730   40.3470 C   0  0  0  0  0  3  0  0  0  0  0  0
   37.5640   35.5300   39.4920 H   0  0  0  0  0  0  0  0  0  0  0  0
  1  4  1  6  0  0  0
  1  2  1  0  0  0  0
  1  8  1  0  0  0  0
  2  6  1  0  0  0  0
  2  5  1  0  0  0  0
  3  7  1  6  0  0  0
  3  1  1  0  0  0  0
  3  2  1  0  0  0  0
  8 11  1  0  0  0  0
  8 10  1  0  0  0  0
  9  8  1  0  0  0  0
 11 16  1  0  0  0  0
 12 11  2  0  0  0  0
 13 12  1  0  0  0  0
 13 14  2  0  0  0  0
 14 15  1  0  0  0  0
 15 16  2  0  0  0  0
 15 19  1  0  0  0  0
 17 12  1  0  0  0  0
 18 13  1  0  0  0  0
 20  3  1  0  0  0  0
 22 21  2  6  0  0  0
 22 23  1  0  0  0  0
 22 20  1  0  0  0  0
 23 24  1  0  0  0  0
 25 27  1  0  0  0  0
 25 22  1  0  0  0  0
 26 36  1  0  0  0  0
 27 26  2  0  0  0  0
 28 27  1  0  0  0  0
 28 30  2  0  0  0  0
 29 28  1  0  0  0  0
 30 35  1  0  0  0  0
 31 30  1  0  0  0  0
 31 32  1  0  0  0  0
 32 33  1  0  0  0  0
 32 34  2  0  0  0  0
 35 36  2  0  0  0  0
 35 34  1  0  0  0  0
 37 31  1  0  0  0  0
M  END
>  <minimizedAffinity>
-6.48144484

$$$$

 OpenBabel03252500453D

 37 40  0  0  1  0  0  0  0  0999 V2000
   37.2450   26.8850   42.8150 C   0  0  1  0  0  0  0  0  0  0  0  0
   37.2840   28.2270   43.5340 C   0  0  0  0  0  0  0  0  0  0  0  0
   36.5090   28.0590   42.2450 C   0  0  1  0  0  0  0  0  0  0  0  0
   36.5790   26.1750   43.3420 H   0  0  0  0  0  0  0  0  0  0  0  0
   38.2340   28.8010   43.5030 H   0  0  0  0  0  0  0  0  0  0  0  0
   36.6780   28.4100   44.4200 H   0  0  0  0  0  0  0  0  0  0  0  0
   35.4060   28.1240   42.3040 H   0  0  0  0  0  0  0  0  0  0  0  0
   38.4700   26.4920   42.0940 C   0  0  0  0  0  0  0  0  0  0  0  0
   38.7670   27.3280   41.4290 H   0  0  0  0  0  0  0  0  0  0  0  0
   39.3300   26.3600   42.8110 H   0  0  0  0  0  0  0  0  0  0  0  0
   38.3440   25.2830   41.2730 C   0  0  0  0  0  0  0  0  0  0  0  0
   38.8660   25.4120   40.0140 C   0  0  0  0  0  0  0  0  0  0  0  0
   38.8160   24.3470   39.1050 C   0  0  0  0  0  0  0  0  0  0  0  0
   38.2160   23.1980   39.5730 N   0  0  0  0  0  0  0  0  0  0  0  0
   37.7080   23.0880   40.8170 C   0  0  0  0  0  0  0  0  0  0  0  0
   37.7800   24.1250   41.6400 N   0  0  0  0  0  0  0  0  0  0  0  0
   39.3730   26.2070   39.4710 H   0  0  0  0  0  0  0  0  0  0  0  0
   39.1650   24.2710   38.1010 H   0  0  0  0  0  0  0  0  0  0  0  0
   37.2580   22.1360   41.0790 H   0  0  0  0  0  0  0  0  0  0  0  0
   37.0340   28.6410   41.1200 O   0  0  0  0  0  0  0  0  0  0  0  0
   34.6820   29.1170   39.9410 O   0  0  0  0  0  0  0  0  0  0  0  0
   35.9780   29.7520   40.4160 P   0  0  1  0  0  0  0  0  0  0  0  0
   35.5790   30.9130   41.5980 O   0  0  0  0  0  0  0  0  0  0  0  0
   35.9990   30.7070   42.4680 H   0  0  0  0  0  0  0  0  0  0  0  0
   36.7670   30.5430   39.1390 O   0  0  0  0  0  0  0  0  0  0  0  0
   39.0950   31.0970   39.8480 C   0  0  0  0  0  3  0  0  0  0  0  0
   37.8030   31.4300   39.4860 C   0  0  0  0  0  0  0  0  0  0  0  0
   37.4120   32.7600   39.4340 C   0  0  0  0  0  0  0  0  0  0  0  0
   36.4180   33.0880   39.1590 H   0  0  0  0  0  0  0  0  0  0  0  0
   38.3010   33.7710   39.7430 C   0  0  0  0  0  0  0  0  0  0  0  0
   38.2580   35.1230   39.7940 N   0  0  0  0  0  0  0  0  0  0  0  0
   39.4230   35.6470   40.1600 C   0  0  0  0  0  0  0  0  0  0  0  0
   39.5610   36.7290   40.2520 H   0  0  0  0  0  0  0  0  0  0  0  0
   40.2620   34.5930   40.3560 N   0  0  0  0  0  0  0  0  0  0  0  0
   39.5980   33.4500   40.1070 C   0  0  0  0  0  0  0  0  0  0  0  0
   39.9710   32.1300   40.1530 C   0  0  0  0  0  3  0  0  0  0  0  0
   37.3620   35.6290   39.5560 H   0  0  0  0  0  0  0  0  0  0  0  0
  1  4  1  1  0  0  0
  1  2  1  0  0  0  0
  2  6  1  0  0  0  0
  3  7  1  1  0  0  0
  3  1  1  0  0  0  0
  3  2  1  0  0  0  0
  5  2  1  0  0  0  0
  8 10  1  0  0  0  0
  8  1  1  0  0  0  0
  9  8  1  0  0  0  0
 11 16  1  0  0  0  0
 11  8  1  0  0  0  0
 12 11  2  0  0  0  0
 13 14  2  0  0  0  0
 13 12  1  0  0  0  0
 14 15  1  0  0  0  0
 15 19  1  0  0  0  0
 15 16  2  0  0  0  0
 17 12  1  0  0  0  0
 18 13  1  0  0  0  0
 20  3  1  0  0  0  0
 22 21  2  6  0  0  0
 22 20  1  0  0  0  0
 22 23  1  0  0  0  0
 23 24  1  0  0  0  0
 25 27  1  0  0  0  0
 25 22  1  0  0  0  0
 26 36  1  0  0  0  0
 27 26  2  0  0  0  0
 28 27  1  0  0  0  0
 28 30  2  0  0  0  0
 29 28  1  0  0  0  0
 30 31  1  0  0  0  0
 30 35  1  0  0  0  0
 31 32  1  0  0  0  0
 32 33  1  0  0  0  0
 32 34  2  0  0  0  0
 35 36  2  0  0  0  0
 35 34  1  0  0  0  0
 37 31  1  0  0  0  0
M  END
>  <minimizedAffinity>
-6.12462616

$$$$

 OpenBabel03252500453D

 37 40  0  0  1  0  0  0  0  0999 V2000
   36.9950   26.8910   42.7890 C   0  0  1  0  0  0  0  0  0  0  0  0
   37.7280   27.8020   43.7640 C   0  0  0  0  0  0  0  0  0  0  0  0
   36.8210   28.3770   42.6980 C   0  0  1  0  0  0  0  0  0  0  0  0
   36.1410   26.3890   43.2840 H   0  0  0  0  0  0  0  0  0  0  0  0
   38.8250   27.9160   43.6360 H   0  0  0  0  0  0  0  0  0  0  0  0
   37.3800   27.9290   44.7880 H   0  0  0  0  0  0  0  0  0  0  0  0
   35.8870   28.8640   43.0360 H   0  0  0  0  0  0  0  0  0  0  0  0
   37.8100   26.2800   41.7230 C   0  0  0  0  0  0  0  0  0  0  0  0
   38.4070   27.0800   41.2370 H   0  0  0  0  0  0  0  0  0  0  0  0
   38.5650   25.5650   42.1580 H   0  0  0  0  0  0  0  0  0  0  0  0
   37.0460   25.5890   40.6780 C   0  0  0  0  0  0  0  0  0  0  0  0
   36.5790   24.3590   41.0560 C   0  0  0  0  0  0  0  0  0  0  0  0
   35.8360   23.5710   40.1670 C   0  0  0  0  0  0  0  0  0  0  0  0
   35.6250   24.1220   38.9220 N   0  0  0  0  0  0  0  0  0  0  0  0
   36.0920   25.3360   38.5670 C   0  0  0  0  0  0  0  0  0  0  0  0
   36.7900   26.0440   39.4450 N   0  0  0  0  0  0  0  0  0  0  0  0
   36.6280   23.7660   41.9670 H   0  0  0  0  0  0  0  0  0  0  0  0
   35.4020   22.6050   40.2880 H   0  0  0  0  0  0  0  0  0  0  0  0
   35.8660   25.6710   37.5600 H   0  0  0  0  0  0  0  0  0  0  0  0
   37.4230   29.0140   41.6440 O   0  0  0  0  0  0  0  0  0  0  0  0
   35.2110   28.8610   40.1490 O   0  0  0  0  0  0  0  0  0  0  0  0
   36.3120   29.7870   40.6380 P   0  0  1  0  0  0  0  0  0  0  0  0
   35.5740   31.0320   41.5380 O   0  0  0  0  0  0  0  0  0  0  0  0
   35.8960   31.0490   42.4710 H   0  0  0  0  0  0  0  0  0  0  0  0
   37.1340   30.4910   39.3320 O   0  0  0  0  0  0  0  0  0  0  0  0
   37.1790   32.9790   39.5250 C   0  0  0  0  0  3  0  0  0  0  0  0
   37.7630   31.7270   39.5690 C   0  0  0  0  0  0  0  0  0  0  0  0
   39.1100   31.5940   39.8750 C   0  0  0  0  0  0  0  0  0  0  0  0
   39.6280   30.6460   39.9250 H   0  0  0  0  0  0  0  0  0  0  0  0
   39.8880   32.7050   40.1380 C   0  0  0  0  0  0  0  0  0  0  0  0
   41.1840   32.9320   40.4580 N   0  0  0  0  0  0  0  0  0  0  0  0
   41.4410   34.2260   40.6130 C   0  0  0  0  0  0  0  0  0  0  0  0
   42.4420   34.5840   40.8730 H   0  0  0  0  0  0  0  0  0  0  0  0
   40.2650   34.8710   40.3860 N   0  0  0  0  0  0  0  0  0  0  0  0
   39.3140   33.9640   40.0970 C   0  0  0  0  0  0  0  0  0  0  0  0
   37.9800   34.0800   39.7940 C   0  0  0  0  0  3  0  0  0  0  0  0
   41.8510   32.1190   40.5530 H   0  0  0  0  0  0  0  0  0  0  0  0
  1  4  1  1  0  0  0
  1  2  1  0  0  0  0
  2  6  1  0  0  0  0
  3  1  1  0  0  0  0
  3  7  1  1  0  0  0
  3  2  1  0  0  0  0
  5  2  1  0  0  0  0
  8 10  1  0  0  0  0
  8  1  1  0  0  0  0
  9  8  1  0  0  0  0
 11 12  1  0  0  0  0
 11  8  1  0  0  0  0
 12 17  1  0  0  0  0
 13 18  1  0  0  0  0
 13 12  2  0  0  0  0
 14 13  1  0  0  0  0
 15 14  2  0  0  0  0
 15 16  1  0  0  0  0
 16 11  2  0  0  0  0
 19 15  1  0  0  0  0
 20  3  1  0  0  0  0
 22 21  2  6  0  0  0
 22 23  1  0  0  0  0
 22 20  1  0  0  0  0
 23 24  1  0  0  0  0
 25 27  1  0  0  0  0
 25 22  1  0  0  0  0
 26 27  2  0  0  0  0
 26 36  1  0  0  0  0
 27 28  1  0  0  0  0
 28 29  1  0  0  0  0
 28 30  2  0  0  0  0
 30 31  1  0  0  0  0
 31 37  1  0  0  0  0
 31 32  1  0  0  0  0
 32 33  1  0  0  0  0
 34 32  2  0  0  0  0
 35 30  1  0  0  0  0
 35 34  1  0  0  0  0
 36 35  2  0  0  0  0
M  END
>  <minimizedAffinity>
-5.97783613

$$$$

 OpenBabel03252500453D

 37 40  0  0  1  0  0  0  0  0999 V2000
   36.1960   30.8310   40.3640 C   0  0  1  0  0  0  0  0  0  0  0  0
   35.4790   29.4900   40.4540 C   0  0  0  0  0  0  0  0  0  0  0  0
   36.4140   29.9430   41.5530 C   0  0  1  0  0  0  0  0  0  0  0  0
   35.4990   31.6640   40.5750 H   0  0  0  0  0  0  0  0  0  0  0  0
   35.8200   28.6780   39.7780 H   0  0  0  0  0  0  0  0  0  0  0  0
   34.4280   29.4290   40.7340 H   0  0  0  0  0  0  0  0  0  0  0  0
   35.9650   30.1840   42.5350 H   0  0  0  0  0  0  0  0  0  0  0  0
   37.3210   30.9100   39.4150 C   0  0  0  0  0  0  0  0  0  0  0  0
   37.9130   29.9750   39.4950 H   0  0  0  0  0  0  0  0  0  0  0  0
   36.9460   30.9370   38.3530 H   0  0  0  0  0  0  0  0  0  0  0  0
   38.2320   32.0400   39.6280 C   0  0  0  0  0  0  0  0  0  0  0  0
   37.5930   33.2300   39.8540 C   0  0  0  0  0  0  0  0  0  0  0  0
   38.3250   34.4060   40.0680 C   0  0  0  0  0  0  0  0  0  0  0  0
   39.6950   34.2650   40.0330 N   0  0  0  0  0  0  0  0  0  0  0  0
   40.3070   33.0850   39.8100 C   0  0  0  0  0  0  0  0  0  0  0  0
   39.5700   32.0000   39.6120 N   0  0  0  0  0  0  0  0  0  0  0  0
   36.5540   33.5410   39.9270 H   0  0  0  0  0  0  0  0  0  0  0  0
   38.0000   35.4040   40.2540 H   0  0  0  0  0  0  0  0  0  0  0  0
   41.3920   33.0900   39.8040 H   0  0  0  0  0  0  0  0  0  0  0  0
   37.6250   29.3070   41.6440 O   0  0  0  0  0  0  0  0  0  0  0  0
   39.1010   27.7790   43.2680 O   0  0  0  0  0  0  0  0  0  0  0  0
   37.6860   28.2190   42.9320 P   0  0  1  0  0  0  0  0  0  0  0  0
   37.0510   29.0020   44.3050 O   0  0  0  0  0  0  0  0  0  0  0  0
   36.8040   29.9380   44.1110 H   0  0  0  0  0  0  0  0  0  0  0  0
   36.7050   26.8810   42.5810 O   0  0  0  0  0  0  0  0  0  0  0  0
   37.3290   26.3960   40.2130 C   0  0  0  0  0  3  0  0  0  0  0  0
   37.1280   26.0410   41.5340 C   0  0  0  0  0  0  0  0  0  0  0  0
   37.3460   24.7340   41.9480 C   0  0  0  0  0  0  0  0  0  0  0  0
   37.2070   24.3910   42.9640 H   0  0  0  0  0  0  0  0  0  0  0  0
   37.7650   23.7700   41.0520 C   0  0  0  0  0  0  0  0  0  0  0  0
   38.0640   22.4500   41.1110 N   0  0  0  0  0  0  0  0  0  0  0  0
   38.4320   21.9680   39.9290 C   0  0  0  0  0  0  0  0  0  0  0  0
   38.7070   20.9160   39.8010 H   0  0  0  0  0  0  0  0  0  0  0  0
   38.3730   23.0150   39.0620 N   0  0  0  0  0  0  0  0  0  0  0  0
   37.9710   24.1140   39.7270 C   0  0  0  0  0  0  0  0  0  0  0  0
   37.7510   25.4100   39.3320 C   0  0  0  0  0  3  0  0  0  0  0  0
   37.9860   21.9360   42.0300 H   0  0  0  0  0  0  0  0  0  0  0  0
  1  2  1  0  0  0  0
  1  4  1  1  0  0  0
  1  3  1  0  0  0  0
  2  6  1  0  0  0  0
  2  3  1  0  0  0  0
  3 20  1  0  0  0  0
  3  7  1  1  0  0  0
  5  2  1  0  0  0  0
  8  9  1  0  0  0  0
  8 11  1  0  0  0  0
  8  1  1  0  0  0  0
 10  8  1  0  0  0  0
 11 12  1  0  0  0  0
 12 17  1  0  0  0  0
 12 13  2  0  0  0  0
 13 18  1  0  0  0  0
 14 13  1  0  0  0  0
 15 14  2  0  0  0  0
 16 11  2  0  0  0  0
 16 15  1  0  0  0  0
 19 15  1  0  0  0  0
 20 22  1  0  0  0  0
 22 21  2  1  0  0  0
 22 23  1  0  0  0  0
 24 23  1  0  0  0  0
 25 22  1  0  0  0  0
 26 27  1  0  0  0  0
 27 28  2  0  0  0  0
 27 25  1  0  0  0  0
 28 29  1  0  0  0  0
 30 31  1  0  0  0  0
 30 28  1  0  0  0  0
 31 37  1  0  0  0  0
 32 31  1  0  0  0  0
 33 32  1  0  0  0  0
 34 35  1  0  0  0  0
 34 32  2  0  0  0  0
 35 30  2  0  0  0  0
 36 35  1  0  0  0  0
 36 26  2  0  0  0  0
M  END
>  <minimizedAffinity>
-5.93276691

$$$$

 OpenBabel03252500453D

 37 40  0  0  1  0  0  0  0  0999 V2000
   40.2050   30.6200   42.3060 C   0  0  1  0  0  0  0  0  0  0  0  0
   41.7100   30.8510   42.3050 C   0  0  0  0  0  0  0  0  0  0  0  0
   40.7700   31.8640   41.6900 C   0  0  1  0  0  0  0  0  0  0  0  0
   39.7790   30.7960   43.3120 H   0  0  0  0  0  0  0  0  0  0  0  0
   42.3270   30.2270   41.6250 H   0  0  0  0  0  0  0  0  0  0  0  0
   42.2300   31.1840   43.2030 H   0  0  0  0  0  0  0  0  0  0  0  0
   40.6780   32.8440   42.1960 H   0  0  0  0  0  0  0  0  0  0  0  0
   39.6960   29.6150   41.3540 C   0  0  0  0  0  0  0  0  0  0  0  0
   39.2360   30.1470   40.4960 H   0  0  0  0  0  0  0  0  0  0  0  0
   40.5440   29.0160   40.9160 H   0  0  0  0  0  0  0  0  0  0  0  0
   38.6950   28.6940   41.9040 C   0  0  0  0  0  0  0  0  0  0  0  0
   38.2470   29.0430   43.1500 C   0  0  0  0  0  0  0  0  0  0  0  0
   37.2940   28.2590   43.8140 C   0  0  0  0  0  0  0  0  0  0  0  0
   36.8620   27.1450   43.1270 N   0  0  0  0  0  0  0  0  0  0  0  0
   37.3130   26.8170   41.9000 C   0  0  0  0  0  0  0  0  0  0  0  0
   38.2160   27.5920   41.3130 N   0  0  0  0  0  0  0  0  0  0  0  0
   38.4500   29.8620   43.8360 H   0  0  0  0  0  0  0  0  0  0  0  0
   36.8410   28.3760   44.7710 H   0  0  0  0  0  0  0  0  0  0  0  0
   36.9040   25.9170   41.4530 H   0  0  0  0  0  0  0  0  0  0  0  0
   40.7530   31.9490   40.3210 O   0  0  0  0  0  0  0  0  0  0  0  0
   40.9710   34.5980   40.6120 O   0  0  0  0  0  0  0  0  0  0  0  0
   40.3480   33.4930   39.7760 P   0  0  1  0  0  0  0  0  0  0  0  0
   40.9400   33.6550   38.1860 O   0  0  0  0  0  0  0  0  0  0  0  0
   41.4320   32.8500   37.8960 H   0  0  0  0  0  0  0  0  0  0  0  0
   38.6590   33.6460   39.7330 O   0  0  0  0  0  0  0  0  0  0  0  0
   37.9290   31.8510   38.1590 C   0  0  0  0  0  3  0  0  0  0  0  0
   37.9260   32.4970   39.3820 C   0  0  0  0  0  0  0  0  0  0  0  0
   37.1430   32.0200   40.4230 C   0  0  0  0  0  0  0  0  0  0  0  0
   37.0940   32.4790   41.4020 H   0  0  0  0  0  0  0  0  0  0  0  0
   36.3550   30.8980   40.2580 C   0  0  0  0  0  0  0  0  0  0  0  0
   35.5010   30.1860   41.0310 N   0  0  0  0  0  0  0  0  0  0  0  0
   34.9790   29.1530   40.3780 C   0  0  0  0  0  0  0  0  0  0  0  0
   34.2680   28.4730   40.8580 H   0  0  0  0  0  0  0  0  0  0  0  0
   35.5140   29.1910   39.1280 N   0  0  0  0  0  0  0  0  0  0  0  0
   36.3500   30.2420   39.0390 C   0  0  0  0  0  0  0  0  0  0  0  0
   37.1300   30.7250   38.0180 C   0  0  0  0  0  3  0  0  0  0  0  0
   35.3240   30.4840   42.0280 H   0  0  0  0  0  0  0  0  0  0  0  0
  1  4  1  1  0  0  0
  2  1  1  0  0  0  0
  2  6  1  0  0  0  0
  3  7  1  1  0  0  0
  3  2  1  0  0  0  0
  3  1  1  0  0  0  0
  5  2  1  0  0  0  0
  8 11  1  0  0  0  0
  8  1  1  0  0  0  0
  9  8  1  0  0  0  0
 10  8  1  0  0  0  0
 11 12  1  0  0  0  0
 12 13  2  0  0  0  0
 12 17  1  0  0  0  0
 13 18  1  0  0  0  0
 14 13  1  0  0  0  0
 15 14  2  0  0  0  0
 16 15  1  0  0  0  0
 16 11  2  0  0  0  0
 19 15  1  0  0  0  0
 20  3  1  0  0  0  0
 22 20  1  0  0  0  0
 22 21  2  1  0  0  0
 23 22  1  0  0  0  0
 24 23  1  0  0  0  0
 25 22  1  0  0  0  0
 26 27  1  0  0  0  0
 27 25  1  0  0  0  0
 27 28  2  0  0  0  0
 28 29  1  0  0  0  0
 30 28  1  0  0  0  0
 30 31  1  0  0  0  0
 31 37  1  0  0  0  0
 32 33  1  0  0  0  0
 32 31  1  0  0  0  0
 34 32  2  0  0  0  0
 35 34  1  0  0  0  0
 35 30  2  0  0  0  0
 36 26  2  0  0  0  0
 36 35  1  0  0  0  0
M  END
>  <minimizedAffinity>
-5.73250771

$$$$

 OpenBabel03252500453D

 37 40  0  0  1  0  0  0  0  0999 V2000
   40.5430   29.1310   41.2400 C   0  0  1  0  0  0  0  0  0  0  0  0
   41.0420   28.5380   42.5510 C   0  0  0  0  0  0  0  0  0  0  0  0
   39.6100   28.3350   42.1040 C   0  0  1  0  0  0  0  0  0  0  0  0
   40.9240   28.5540   40.3760 H   0  0  0  0  0  0  0  0  0  0  0  0
   41.2340   29.2360   43.3920 H   0  0  0  0  0  0  0  0  0  0  0  0
   41.6550   27.6380   42.5650 H   0  0  0  0  0  0  0  0  0  0  0  0
   39.3070   27.3100   41.8210 H   0  0  0  0  0  0  0  0  0  0  0  0
   40.3090   30.5870   41.2270 C   0  0  0  0  0  0  0  0  0  0  0  0
   39.2520   30.7750   41.5030 H   0  0  0  0  0  0  0  0  0  0  0  0
   40.9220   31.0960   42.0240 H   0  0  0  0  0  0  0  0  0  0  0  0
   40.5630   31.2430   39.9390 C   0  0  0  0  0  0  0  0  0  0  0  0
   40.6880   30.3720   38.8900 C   0  0  0  0  0  0  0  0  0  0  0  0
   40.9400   30.8420   37.5950 C   0  0  0  0  0  0  0  0  0  0  0  0
   41.0480   32.2110   37.4730 N   0  0  0  0  0  0  0  0  0  0  0  0
   40.9210   33.0540   38.5170 C   0  0  0  0  0  0  0  0  0  0  0  0
   40.6830   32.5590   39.7240 N   0  0  0  0  0  0  0  0  0  0  0  0
   40.6300   29.2910   38.7790 H   0  0  0  0  0  0  0  0  0  0  0  0
   41.0660   30.3180   36.6760 H   0  0  0  0  0  0  0  0  0  0  0  0
   41.0250   34.1130   38.3060 H   0  0  0  0  0  0  0  0  0  0  0  0
   38.6410   29.0280   42.7820 O   0  0  0  0  0  0  0  0  0  0  0  0
   37.6100   26.5970   43.2040 O   0  0  0  0  0  0  0  0  0  0  0  0
   37.2880   28.0800   43.1200 P   0  0  1  0  0  0  0  0  0  0  0  0
   36.6810   28.5610   44.6380 O   0  0  0  0  0  0  0  0  0  0  0  0
   37.2400   29.2630   45.0490 H   0  0  0  0  0  0  0  0  0  0  0  0
   36.0920   28.3730   41.9530 O   0  0  0  0  0  0  0  0  0  0  0  0
   36.7500   28.8580   39.5940 C   0  0  0  0  0  3  0  0  0  0  0  0
   36.4390   29.2270   40.8900 C   0  0  0  0  0  0  0  0  0  0  0  0
   36.4480   30.5660   41.2560 C   0  0  0  0  0  0  0  0  0  0  0  0
   36.2160   30.9210   42.2510 H   0  0  0  0  0  0  0  0  0  0  0  0
   36.7670   31.5480   40.3390 C   0  0  0  0  0  0  0  0  0  0  0  0
   36.8690   32.8980   40.3540 N   0  0  0  0  0  0  0  0  0  0  0  0
   37.2180   33.3860   39.1690 C   0  0  0  0  0  0  0  0  0  0  0  0
   37.3460   34.4610   39.0080 H   0  0  0  0  0  0  0  0  0  0  0  0
   37.3500   32.3110   38.3450 N   0  0  0  0  0  0  0  0  0  0  0  0
   37.0790   31.1900   39.0390 C   0  0  0  0  0  0  0  0  0  0  0  0
   37.0660   29.8630   38.6900 C   0  0  0  0  0  3  0  0  0  0  0  0
   36.6770   33.4280   41.2470 H   0  0  0  0  0  0  0  0  0  0  0  0
  1  4  1  6  0  0  0
  1  3  1  0  0  0  0
  1  2  1  0  0  0  0
  2  6  1  0  0  0  0
  2  5  1  0  0  0  0
  3  7  1  6  0  0  0
  3  2  1  0  0  0  0
  3 20  1  0  0  0  0
  8  1  1  0  0  0  0
  8  9  1  0  0  0  0
  8 10  1  0  0  0  0
 11  8  1  0  0  0  0
 12 11  2  0  0  0  0
 13 12  1  0  0  0  0
 14 13  2  0  0  0  0
 14 15  1  0  0  0  0
 15 16  2  0  0  0  0
 16 11  1  0  0  0  0
 17 12  1  0  0  0  0
 18 13  1  0  0  0  0
 19 15  1  0  0  0  0
 20 22  1  0  0  0  0
 22 21  2  1  0  0  0
 22 23  1  0  0  0  0
 23 24  1  0  0  0  0
 25 22  1  0  0  0  0
 26 27  1  0  0  0  0
 27 28  2  0  0  0  0
 27 25  1  0  0  0  0
 28 29  1  0  0  0  0
 30 31  1  0  0  0  0
 30 28  1  0  0  0  0
 31 37  1  0  0  0  0
 32 31  1  0  0  0  0
 33 32  1  0  0  0  0
 34 35  1  0  0  0  0
 34 32  2  0  0  0  0
 35 30  2  0  0  0  0
 36 35  1  0  0  0  0
 36 26  2  0  0  0  0
M  END
>  <minimizedAffinity>
-5.55743265

$$$$

 OpenBabel03252500453D

 37 40  0  0  1  0  0  0  0  0999 V2000
   38.1390   27.1880   41.1860 C   0  0  1  0  0  0  0  0  0  0  0  0
   36.7170   27.5470   40.7760 C   0  0  0  0  0  0  0  0  0  0  0  0
   37.8700   28.4780   40.4720 C   0  0  1  0  0  0  0  0  0  0  0  0
   38.5560   26.4080   40.5210 H   0  0  0  0  0  0  0  0  0  0  0  0
   36.0070   27.8370   41.5790 H   0  0  0  0  0  0  0  0  0  0  0  0
   36.2480   27.0890   39.9070 H   0  0  0  0  0  0  0  0  0  0  0  0
   38.1490   28.6100   39.4100 H   0  0  0  0  0  0  0  0  0  0  0  0
   38.4580   27.3110   42.6210 C   0  0  0  0  0  0  0  0  0  0  0  0
   38.4310   28.3850   42.8950 H   0  0  0  0  0  0  0  0  0  0  0  0
   37.6610   26.8210   43.2500 H   0  0  0  0  0  0  0  0  0  0  0  0
   39.7680   26.7770   43.0110 C   0  0  0  0  0  0  0  0  0  0  0  0
   40.1180   25.6300   42.3500 C   0  0  0  0  0  0  0  0  0  0  0  0
   41.3370   24.9930   42.6170 C   0  0  0  0  0  0  0  0  0  0  0  0
   42.1260   25.6010   43.5700 N   0  0  0  0  0  0  0  0  0  0  0  0
   41.7650   26.7310   44.2100 C   0  0  0  0  0  0  0  0  0  0  0  0
   40.6000   27.2960   43.9230 N   0  0  0  0  0  0  0  0  0  0  0  0
   39.6540   25.0170   41.5810 H   0  0  0  0  0  0  0  0  0  0  0  0
   41.7640   24.1080   42.2060 H   0  0  0  0  0  0  0  0  0  0  0  0
   42.4640   27.1220   44.9430 H   0  0  0  0  0  0  0  0  0  0  0  0
   37.9530   29.6310   41.2090 O   0  0  0  0  0  0  0  0  0  0  0  0
   36.6500   30.6510   39.1100 O   0  0  0  0  0  0  0  0  0  0  0  0
   37.0140   30.8760   40.5680 P   0  0  1  0  0  0  0  0  0  0  0  0
   35.5610   30.9430   41.4560 O   0  0  0  0  0  0  0  0  0  0  0  0
   35.5190   30.2330   42.1420 H   0  0  0  0  0  0  0  0  0  0  0  0
   37.8270   32.3510   40.7670 O   0  0  0  0  0  0  0  0  0  0  0  0
   40.2850   32.1710   41.1630 C   0  0  0  0  0  3  0  0  0  0  0  0
   39.1750   32.3920   40.3680 C   0  0  0  0  0  0  0  0  0  0  0  0
   39.3290   32.6890   39.0210 C   0  0  0  0  0  0  0  0  0  0  0  0
   38.5040   32.8730   38.3450 H   0  0  0  0  0  0  0  0  0  0  0  0
   40.5850   32.7710   38.4540 C   0  0  0  0  0  0  0  0  0  0  0  0
   41.0820   33.0300   37.2210 N   0  0  0  0  0  0  0  0  0  0  0  0
   42.4090   32.9860   37.1970 C   0  0  0  0  0  0  0  0  0  0  0  0
   42.9720   33.1730   36.2770 H   0  0  0  0  0  0  0  0  0  0  0  0
   42.7970   32.6850   38.4670 N   0  0  0  0  0  0  0  0  0  0  0  0
   41.7030   32.5510   39.2400 C   0  0  0  0  0  0  0  0  0  0  0  0
   41.5370   32.2580   40.5700 C   0  0  0  0  0  3  0  0  0  0  0  0
   40.4220   33.2350   36.4220 H   0  0  0  0  0  0  0  0  0  0  0  0
  1  4  1  6  0  0  0
  1  8  1  0  0  0  0
  2  1  1  0  0  0  0
  2  5  1  0  0  0  0
  3  7  1  6  0  0  0
  3  2  1  0  0  0  0
  3  1  1  0  0  0  0
  3 20  1  0  0  0  0
  6  2  1  0  0  0  0
  8  9  1  0  0  0  0
  8 11  1  0  0  0  0
  8 10  1  0  0  0  0
 11 16  1  0  0  0  0
 12 13  1  0  0  0  0
 12 11  2  0  0  0  0
 13 14  2  0  0  0  0
 14 15  1  0  0  0  0
 15 19  1  0  0  0  0
 16 15  2  0  0  0  0
 17 12  1  0  0  0  0
 18 13  1  0  0  0  0
 22 21  2  6  0  0  0
 22 25  1  0  0  0  0
 22 20  1  0  0  0  0
 22 23  1  0  0  0  0
 23 24  1  0  0  0  0
 27 25  1  0  0  0  0
 27 26  2  0  0  0  0
 28 27  1  0  0  0  0
 29 28  1  0  0  0  0
 30 28  2  0  0  0  0
 30 35  1  0  0  0  0
 31 30  1  0  0  0  0
 32 31  1  0  0  0  0
 32 34  2  0  0  0  0
 33 32  1  0  0  0  0
 34 35  1  0  0  0  0
 35 36  2  0  0  0  0
 36 26  1  0  0  0  0
 37 31  1  0  0  0  0
M  END
>  <minimizedAffinity>
-5.49823713

$$$$

 OpenBabel03252500453D

 37 40  0  0  1  0  0  0  0  0999 V2000
   36.8000   28.5480   41.0080 C   0  0  1  0  0  0  0  0  0  0  0  0
   35.8070   29.6850   40.8030 C   0  0  0  0  0  0  0  0  0  0  0  0
   37.0920   29.6240   40.0060 C   0  0  1  0  0  0  0  0  0  0  0  0
   36.4320   27.6150   40.5390 H   0  0  0  0  0  0  0  0  0  0  0  0
   35.7240   30.4470   41.6060 H   0  0  0  0  0  0  0  0  0  0  0  0
   34.8950   29.5400   40.2250 H   0  0  0  0  0  0  0  0  0  0  0  0
   37.0070   29.4310   38.9200 H   0  0  0  0  0  0  0  0  0  0  0  0
   37.6030   28.5940   42.2430 C   0  0  0  0  0  0  0  0  0  0  0  0
   38.3640   29.3940   42.1360 H   0  0  0  0  0  0  0  0  0  0  0  0
   36.9670   28.9010   43.1210 H   0  0  0  0  0  0  0  0  0  0  0  0
   38.3020   27.3470   42.5740 C   0  0  0  0  0  0  0  0  0  0  0  0
   39.2770   27.4940   43.5240 C   0  0  0  0  0  0  0  0  0  0  0  0
   40.0400   26.3960   43.9430 C   0  0  0  0  0  0  0  0  0  0  0  0
   39.7340   25.1970   43.3360 N   0  0  0  0  0  0  0  0  0  0  0  0
   38.7700   25.0710   42.4020 C   0  0  0  0  0  0  0  0  0  0  0  0
   38.0760   26.1410   42.0390 N   0  0  0  0  0  0  0  0  0  0  0  0
   39.6540   28.3270   44.1130 H   0  0  0  0  0  0  0  0  0  0  0  0
   40.8260   26.3270   44.6580 H   0  0  0  0  0  0  0  0  0  0  0  0
   38.6150   24.0790   41.9910 H   0  0  0  0  0  0  0  0  0  0  0  0
   38.0700   30.5300   40.3290 O   0  0  0  0  0  0  0  0  0  0  0  0
   36.8970   31.8850   38.3440 O   0  0  0  0  0  0  0  0  0  0  0  0
   37.9360   31.9640   39.4500 P   0  0  1  0  0  0  0  0  0  0  0  0
   37.4480   33.1910   40.5280 O   0  0  0  0  0  0  0  0  0  0  0  0
   37.3000   32.8390   41.4390 H   0  0  0  0  0  0  0  0  0  0  0  0
   39.4560   32.3800   38.8230 O   0  0  0  0  0  0  0  0  0  0  0  0
   41.1580   31.6400   40.4920 C   0  0  0  0  0  3  0  0  0  0  0  0
   40.4880   32.5980   39.7540 C   0  0  0  0  0  0  0  0  0  0  0  0
   40.8150   33.9400   39.8910 C   0  0  0  0  0  0  0  0  0  0  0  0
   40.3300   34.7390   39.3450 H   0  0  0  0  0  0  0  0  0  0  0  0
   41.8080   34.3410   40.7630 C   0  0  0  0  0  0  0  0  0  0  0  0
   42.3630   35.5200   41.1310 N   0  0  0  0  0  0  0  0  0  0  0  0
   43.3210   35.3600   42.0380 C   0  0  0  0  0  0  0  0  0  0  0  0
   43.8720   36.2130   42.4440 H   0  0  0  0  0  0  0  0  0  0  0  0
   43.3950   34.0210   42.2720 N   0  0  0  0  0  0  0  0  0  0  0  0
   42.4850   33.3900   41.5070 C   0  0  0  0  0  0  0  0  0  0  0  0
   42.1520   32.0670   41.3610 C   0  0  0  0  0  3  0  0  0  0  0  0
   42.0170   36.4190   40.7000 H   0  0  0  0  0  0  0  0  0  0  0  0
  1  4  1  6  0  0  0
  1  8  1  0  0  0  0
  2  1  1  0  0  0  0
  2  5  1  0  0  0  0
  3  7  1  6  0  0  0
  3 20  1  0  0  0  0
  3  2  1  0  0  0  0
  3  1  1  0  0  0  0
  6  2  1  0  0  0  0
  8 11  1  0  0  0  0
  8 10  1  0  0  0  0
  9  8  1  0  0  0  0
 11 12  1  0  0  0  0
 12 13  2  0  0  0  0
 12 17  1  0  0  0  0
 13 18  1  0  0  0  0
 14 13  1  0  0  0  0
 15 14  2  0  0  0  0
 16 15  1  0  0  0  0
 16 11  2  0  0  0  0
 19 15  1  0  0  0  0
 22 21  2  6  0  0  0
 22 20  1  0  0  0  0
 22 23  1  0  0  0  0
 23 24  1  0  0  0  0
 25 22  1  0  0  0  0
 25 27  1  0  0  0  0
 26 36  1  0  0  0  0
 27 28  1  0  0  0  0
 27 26  2  0  0  0  0
 28 30  2  0  0  0  0
 29 28  1  0  0  0  0
 30 31  1  0  0  0  0
 30 35  1  0  0  0  0
 31 32  1  0  0  0  0
 32 34  2  0  0  0  0
 32 33  1  0  0  0  0
 35 34  1  0  0  0  0
 36 35  2  0  0  0  0
 37 31  1  0  0  0  0
M  END
>  <minimizedAffinity>
-5.45121908

$$$$

 OpenBabel03252500453D

 37 40  0  0  1  0  0  0  0  0999 V2000
   36.8520   30.7830   41.0020 C   0  0  1  0  0  0  0  0  0  0  0  0
   35.8930   29.7230   40.4760 C   0  0  0  0  0  0  0  0  0  0  0  0
   36.6940   29.4860   41.7380 C   0  0  1  0  0  0  0  0  0  0  0  0
   36.2980   31.6150   41.4760 H   0  0  0  0  0  0  0  0  0  0  0  0
   36.1870   29.1720   39.5580 H   0  0  0  0  0  0  0  0  0  0  0  0
   34.8170   29.8140   40.6200 H   0  0  0  0  0  0  0  0  0  0  0  0
   36.1360   29.4360   42.6920 H   0  0  0  0  0  0  0  0  0  0  0  0
   38.1180   30.9440   40.2630 C   0  0  0  0  0  0  0  0  0  0  0  0
   38.8690   30.2550   40.7010 H   0  0  0  0  0  0  0  0  0  0  0  0
   37.9990   30.6160   39.1920 H   0  0  0  0  0  0  0  0  0  0  0  0
   38.6800   32.2990   40.2880 C   0  0  0  0  0  0  0  0  0  0  0  0
   40.0420   32.3310   40.4290 C   0  0  0  0  0  0  0  0  0  0  0  0
   40.7280   33.5520   40.4780 C   0  0  0  0  0  0  0  0  0  0  0  0
   39.9400   34.6780   40.3750 N   0  0  0  0  0  0  0  0  0  0  0  0
   38.6010   34.6270   40.2360 C   0  0  0  0  0  0  0  0  0  0  0  0
   37.9970   33.4470   40.1960 N   0  0  0  0  0  0  0  0  0  0  0  0
   40.8220   31.5780   40.5150 H   0  0  0  0  0  0  0  0  0  0  0  0
   41.7670   33.7620   40.5830 H   0  0  0  0  0  0  0  0  0  0  0  0
   38.0810   35.5770   40.1650 H   0  0  0  0  0  0  0  0  0  0  0  0
   37.7310   28.5930   41.6610 O   0  0  0  0  0  0  0  0  0  0  0  0
   36.1280   27.1990   43.2850 O   0  0  0  0  0  0  0  0  0  0  0  0
   37.5270   27.2770   42.6960 P   0  0  1  0  0  0  0  0  0  0  0  0
   37.7840   25.8570   41.7910 O   0  0  0  0  0  0  0  0  0  0  0  0
   37.9640   26.0570   40.8400 H   0  0  0  0  0  0  0  0  0  0  0  0
   38.6960   27.3440   43.9230 O   0  0  0  0  0  0  0  0  0  0  0  0
   40.7150   28.3980   42.9020 C   0  0  0  0  0  3  0  0  0  0  0  0
   40.0430   27.3580   43.5170 C   0  0  0  0  0  0  0  0  0  0  0  0
   40.7010   26.1680   43.7950 C   0  0  0  0  0  0  0  0  0  0  0  0
   40.2340   25.3170   44.2720 H   0  0  0  0  0  0  0  0  0  0  0  0
   42.0320   26.0020   43.4640 C   0  0  0  0  0  0  0  0  0  0  0  0
   42.9490   25.0130   43.5860 N   0  0  0  0  0  0  0  0  0  0  0  0
   44.1320   25.3660   43.0940 C   0  0  0  0  0  0  0  0  0  0  0  0
   44.9860   24.6810   43.1110 H   0  0  0  0  0  0  0  0  0  0  0  0
   43.9820   26.6370   42.6320 N   0  0  0  0  0  0  0  0  0  0  0  0
   42.7150   27.0370   42.8500 C   0  0  0  0  0  0  0  0  0  0  0  0
   42.0520   28.2080   42.5810 C   0  0  0  0  0  3  0  0  0  0  0  0
   42.6760   24.0970   44.0320 H   0  0  0  0  0  0  0  0  0  0  0  0
  1  4  1  1  0  0  0
  1  3  1  0  0  0  0
  2  6  1  0  0  0  0
  2  1  1  0  0  0  0
  2  3  1  0  0  0  0
  3  7  1  1  0  0  0
  5  2  1  0  0  0  0
  8 11  1  0  0  0  0
  8  9  1  0  0  0  0
  8  1  1  0  0  0  0
 10  8  1  0  0  0  0
 11 12  1  0  0  0  0
 12 13  2  0  0  0  0
 12 17  1  0  0  0  0
 13 18  1  0  0  0  0
 14 13  1  0  0  0  0
 15 14  2  0  0  0  0
 16 15  1  0  0  0  0
 16 11  2  0  0  0  0
 19 15  1  0  0  0  0
 20  3  1  0  0  0  0
 20 22  1  0  0  0  0
 22 21  2  1  0  0  0
 22 25  1  0  0  0  0
 23 22  1  0  0  0  0
 24 23  1  0  0  0  0
 26 27  1  0  0  0  0
 27 28  2  0  0  0  0
 27 25  1  0  0  0  0
 28 29  1  0  0  0  0
 30 31  1  0  0  0  0
 30 28  1  0  0  0  0
 31 37  1  0  0  0  0
 32 33  1  0  0  0  0
 32 31  1  0  0  0  0
 34 35  1  0  0  0  0
 34 32  2  0  0  0  0
 35 30  2  0  0  0  0
 36 35  1  0  0  0  0
 36 26  2  0  0  0  0
M  END
>  <minimizedAffinity>
-5.38632536

$$$$
