
 OpenBabel03252507323D

 52 56  0  0  1  0  0  0  0  0999 V2000
   47.0440   32.4380   45.3700 C   0  0  0  0  0  0  0  0  0  0  0  0
   45.9600   33.0760   45.9530 C   0  0  0  0  0  0  0  0  0  0  0  0
   45.3430   34.1590   45.2830 C   0  0  0  0  0  0  0  0  0  0  0  0
   45.8890   34.5160   44.0520 N   0  0  0  0  0  0  0  0  0  0  0  0
   46.9370   33.8600   43.5480 C   0  0  0  0  0  0  0  0  0  0  0  0
   47.5050   32.8400   44.1920 N   0  0  0  0  0  0  0  0  0  0  0  0
   45.4190   32.9960   46.8720 H   0  0  0  0  0  0  0  0  0  0  0  0
   44.5090   34.7540   45.5820 H   0  0  0  0  0  0  0  0  0  0  0  0
   47.6250   31.3200   46.0860 C   0  0  2  0  0  0  0  0  0  0  0  0
   47.1630   29.9560   45.4860 C   0  0  0  0  0  0  0  0  0  0  0  0
   47.9130   28.8500   46.1470 C   0  0  0  0  0  0  0  0  0  0  0  0
   48.0390   28.9390   47.6310 C   0  0  0  0  0  0  0  0  0  0  0  0
   48.2380   30.2760   48.1340 C   0  0  0  0  0  0  0  0  0  0  0  0
   47.3010   31.3260   47.4980 C   0  0  2  0  0  0  0  0  0  0  0  0
   48.7240   31.2920   45.8770 H   0  0  0  0  0  0  0  0  0  0  0  0
   46.0710   29.8680   45.5140 H   0  0  0  0  0  0  0  0  0  0  0  0
   47.4480   30.0340   44.4170 H   0  0  0  0  0  0  0  0  0  0  0  0
   48.8540   28.7310   45.5750 H   0  0  0  0  0  0  0  0  0  0  0  0
   47.3360   27.9000   45.9410 H   0  0  0  0  0  0  0  0  0  0  0  0
   47.6200   28.1340   48.2350 H   0  0  0  0  0  0  0  0  0  0  0  0
   49.1270   28.5380   47.7410 H   0  0  0  0  0  0  0  0  0  0  0  0
   49.2520   30.7390   48.0460 H   0  0  0  0  0  0  0  0  0  0  0  0
   48.0110   30.3050   49.2320 H   0  0  0  0  0  0  0  0  0  0  0  0
   47.5730   32.2190   48.0620 H   0  0  0  0  0  0  0  0  0  0  0  0
   45.9150   30.8960   47.6950 N   0  0  0  0  0  0  0  0  0  0  0  0
   45.2010   30.5580   48.8570 C   0  0  0  0  0  0  0  0  0  0  0  0
   44.7470   31.4340   49.6790 O   0  0  0  0  0  0  0  0  0  0  0  0
   45.0090   29.1570   49.0530 N   0  0  0  0  0  0  0  0  0  0  0  0
   45.2460   30.7140   46.8550 H   0  0  0  0  0  0  0  0  0  0  0  0
   44.6380   28.4370   48.4290 H   0  0  0  0  0  0  0  0  0  0  0  0
   45.2740   28.7350   49.9700 H   0  0  0  0  0  0  0  0  0  0  0  0
   47.4760   34.2990   42.2560 C   0  0  0  0  0  0  0  0  0  0  0  0
   48.4240   35.2950   42.1830 C   0  0  0  0  0  0  0  0  0  0  0  0
   48.9760   35.7600   41.0090 C   0  0  0  0  0  0  0  0  0  0  0  0
   48.5090   35.1480   39.8680 C   0  0  0  0  0  0  0  0  0  0  0  0
   47.5640   34.1520   39.9220 C   0  0  0  0  0  0  0  0  0  0  0  0
   47.0480   33.7280   41.1180 N   0  0  0  0  0  0  0  0  0  0  0  0
   48.7410   35.7290   43.1270 H   0  0  0  0  0  0  0  0  0  0  0  0
   49.7080   36.5330   40.9880 H   0  0  0  0  0  0  0  0  0  0  0  0
   48.9110   35.4750   38.9210 H   0  0  0  0  0  0  0  0  0  0  0  0
   47.8060   33.4640   37.5810 C   0  0  0  0  0  3  0  0  0  0  0  0
   47.0500   33.4840   38.7340 C   0  0  0  0  0  0  0  0  0  0  0  0
   45.8360   32.8540   38.6620 C   0  0  0  0  0  0  0  0  0  0  0  0
   45.2030   32.8320   39.5210 H   0  0  0  0  0  0  0  0  0  0  0  0
   45.3510   32.2220   37.5360 C   0  0  0  0  0  0  0  0  0  0  0  0
   44.1940   31.5560   37.2840 N   0  0  0  0  0  0  0  0  0  0  0  0
   44.2290   31.1370   36.0180 C   0  0  0  0  0  0  0  0  0  0  0  0
   43.4010   30.5750   35.5890 H   0  0  0  0  0  0  0  0  0  0  0  0
   45.4080   31.5330   35.4590 N   0  0  0  0  0  0  0  0  0  0  0  0
   46.1260   32.2110   36.3820 C   0  0  0  0  0  0  0  0  0  0  0  0
   47.3520   32.8360   36.4180 C   0  0  0  0  0  3  0  0  0  0  0  0
   43.4300   31.4150   37.9810 H   0  0  0  0  0  0  0  0  0  0  0  0
  1  2  1  0  0  0  0
  1  9  1  0  0  0  0
  2  7  1  0  0  0  0
  3  8  1  0  0  0  0
  3  2  2  0  0  0  0
  4  3  1  0  0  0  0
  5  4  2  0  0  0  0
  5  6  1  0  0  0  0
  6  1  2  0  0  0  0
  9 15  1  6  0  0  0
  9 14  1  0  0  0  0
 10 16  1  0  0  0  0
 10  9  1  0  0  0  0
 10 11  1  0  0  0  0
 11 12  1  0  0  0  0
 12 21  1  0  0  0  0
 12 13  1  0  0  0  0
 12 20  1  0  0  0  0
 13 23  1  0  0  0  0
 14 25  1  0  0  0  0
 14 24  1  1  0  0  0
 14 13  1  0  0  0  0
 17 10  1  0  0  0  0
 18 11  1  0  0  0  0
 19 11  1  0  0  0  0
 22 13  1  0  0  0  0
 25 26  1  0  0  0  0
 26 28  1  0  0  0  0
 26 27  2  0  0  0  0
 28 31  1  0  0  0  0
 29 25  1  0  0  0  0
 30 28  1  0  0  0  0
 32  5  1  0  0  0  0
 33 32  1  0  0  0  0
 33 38  1  0  0  0  0
 34 33  2  0  0  0  0
 35 36  2  0  0  0  0
 35 34  1  0  0  0  0
 36 37  1  0  0  0  0
 37 32  2  0  0  0  0
 39 34  1  0  0  0  0
 40 35  1  0  0  0  0
 41 42  1  0  0  0  0
 42 36  1  0  0  0  0
 43 42  2  0  0  0  0
 43 44  1  0  0  0  0
 45 43  1  0  0  0  0
 46 45  1  0  0  0  0
 46 52  1  0  0  0  0
 47 46  1  0  0  0  0
 48 47  1  0  0  0  0
 49 47  2  0  0  0  0
 49 50  1  0  0  0  0
 50 51  1  0  0  0  0
 50 45  2  0  0  0  0
 51 41  2  0  0  0  0
M  END
>  <minimizedAffinity>
-6.76101017

>  <minimizedRMSD>
0.915362835

$$$$
