
 OpenBabel03252500393D

 24 26  0  0  0  0  0  0  0  0999 V2000
   44.4460   36.0930   42.4130 C   0  0  0  0  0  0  0  0  0  0  0  0
   43.8140   36.5930   43.1680 H   0  0  0  0  0  0  0  0  0  0  0  0
   44.9730   36.8770   41.8580 H   0  0  0  0  0  0  0  0  0  0  0  0
   42.1800   35.4530   41.8730 C   0  0  0  0  0  0  0  0  0  0  0  0
   43.5250   35.3340   41.5280 C   0  0  0  0  0  0  0  0  0  0  0  0
   43.8440   34.5560   40.4450 C   0  0  0  0  0  0  0  0  0  0  0  0
   44.8840   34.4960   40.2210 H   0  0  0  0  0  0  0  0  0  0  0  0
   42.8400   33.9240   39.7410 C   0  0  0  0  0  0  0  0  0  0  0  0
   42.8900   33.1210   38.6620 N   0  0  0  0  0  0  0  0  0  0  0  0
   41.6410   32.7480   38.3380 C   0  0  0  0  0  0  0  0  0  0  0  0
   41.3190   32.1000   37.5180 H   0  0  0  0  0  0  0  0  0  0  0  0
   40.8220   33.3310   39.2290 N   0  0  0  0  0  0  0  0  0  0  0  0
   41.5130   34.0550   40.1000 C   0  0  0  0  0  0  0  0  0  0  0  0
   41.1620   34.8350   41.1900 C   0  0  0  0  0  0  0  0  0  0  0  0
   43.7580   32.8220   38.1420 H   0  0  0  0  0  0  0  0  0  0  0  0
   45.4180   35.1630   43.0840 C   0  0  0  0  0  0  0  0  0  0  0  0
   44.9660   34.5380   44.2420 C   0  0  0  0  0  0  0  0  0  0  0  0
   45.8490   33.6570   44.9020 C   0  0  0  0  0  0  0  0  0  0  0  0
   47.0790   33.4840   44.3590 N   0  0  0  0  0  0  0  0  0  0  0  0
   47.4770   34.1170   43.2270 C   0  0  0  0  0  0  0  0  0  0  0  0
   46.6380   34.9620   42.5870 N   0  0  0  0  0  0  0  0  0  0  0  0
   43.9770   34.7100   44.6310 H   0  0  0  0  0  0  0  0  0  0  0  0
   45.5320   33.1530   45.8040 H   0  0  0  0  0  0  0  0  0  0  0  0
   48.4840   33.9070   42.8770 H   0  0  0  0  0  0  0  0  0  0  0  0
  1 16  1  0  0  0  0
  1  2  1  0  0  0  0
  3  1  1  0  0  0  0
  5  4  1  0  0  0  0
  5  1  1  0  0  0  0
  6  5  2  0  0  0  0
  7  6  1  0  0  0  0
  8 13  2  0  0  0  0
  8  6  1  0  0  0  0
  9  8  1  0  0  0  0
 10  9  1  0  0  0  0
 10 12  2  0  0  0  0
 11 10  1  0  0  0  0
 12 13  1  0  0  0  0
 13 14  1  0  0  0  0
 14  4  2  0  0  0  0
 15  9  1  0  0  0  0
 16 17  1  0  0  0  0
 17 22  1  0  0  0  0
 17 18  2  0  0  0  0
 18 23  1  0  0  0  0
 19 18  1  0  0  0  0
 20 19  2  0  0  0  0
 21 16  2  0  0  0  0
 21 20  1  0  0  0  0
 24 20  1  0  0  0  0
M  END
>  <minimizedAffinity>
-4.32218313

>  <minimizedRMSD>
6.25502253

$$$$
