
 OpenBabel03242523303D

 25 27  0  0  0  0  0  0  0  0999 V2000
   46.5440   31.4160   48.6710 S   0  0  0  0  0  0  0  0  0  0  0  0
   47.0640   32.1090   45.9600 C   0  0  0  0  0  0  0  0  0  0  0  0
   46.3770   32.3250   47.1360 C   0  0  0  0  0  0  0  0  0  0  0  0
   45.4330   33.3430   47.2160 C   0  0  0  0  0  0  0  0  0  0  0  0
   44.8390   33.5920   48.1020 H   0  0  0  0  0  0  0  0  0  0  0  0
   45.1630   34.1540   46.1320 C   0  0  0  0  0  0  0  0  0  0  0  0
   44.3490   35.1920   45.8670 N   0  0  0  0  0  0  0  0  0  0  0  0
   44.4910   35.6250   44.6070 C   0  0  0  0  0  0  0  0  0  0  0  0
   43.9190   36.4500   44.2130 H   0  0  0  0  0  0  0  0  0  0  0  0
   45.4380   34.8220   44.0630 N   0  0  0  0  0  0  0  0  0  0  0  0
   45.8640   33.9200   44.9670 C   0  0  0  0  0  0  0  0  0  0  0  0
   46.8030   32.9130   44.8730 C   0  0  0  0  0  0  0  0  0  0  0  0
   43.6930   35.5820   46.5980 H   0  0  0  0  0  0  0  0  0  0  0  0
   47.9080   30.2180   48.4860 C   0  0  0  0  0  0  0  0  0  0  0  0
   48.2310   30.1530   47.4270 H   0  0  0  0  0  0  0  0  0  0  0  0
   47.5340   29.2500   48.8810 H   0  0  0  0  0  0  0  0  0  0  0  0
   50.5070   30.2940   51.1310 C   0  0  0  0  0  0  0  0  0  0  0  0
   51.0170   31.5890   50.9630 C   0  0  0  0  0  0  0  0  0  0  0  0
   50.4780   32.4140   49.9620 C   0  0  0  0  0  0  0  0  0  0  0  0
   49.4670   31.9330   49.1740 N   0  0  0  0  0  0  0  0  0  0  0  0
   49.0010   30.6710   49.3710 C   0  0  0  0  0  0  0  0  0  0  0  0
   49.5190   29.8830   50.3310 N   0  0  0  0  0  0  0  0  0  0  0  0
   50.9270   29.6870   51.8940 H   0  0  0  0  0  0  0  0  0  0  0  0
   51.8150   32.0060   51.5630 H   0  0  0  0  0  0  0  0  0  0  0  0
   50.8410   33.4260   49.7920 H   0  0  0  0  0  0  0  0  0  0  0  0
  2  3  1  0  0  0  0
  3  4  2  0  0  0  0
  3  1  1  0  0  0  0
  4  5  1  0  0  0  0
  6  4  1  0  0  0  0
  7  6  1  0  0  0  0
  7 13  1  0  0  0  0
  8  7  1  0  0  0  0
  9  8  1  0  0  0  0
 10  8  2  0  0  0  0
 10 11  1  0  0  0  0
 11  6  2  0  0  0  0
 12 11  1  0  0  0  0
 12  2  2  0  0  0  0
 14  1  1  0  0  0  0
 14 16  1  0  0  0  0
 14 21  1  0  0  0  0
 15 14  1  0  0  0  0
 17 23  1  0  0  0  0
 18 17  1  0  0  0  0
 18 24  1  0  0  0  0
 19 18  2  0  0  0  0
 20 21  2  0  0  0  0
 20 19  1  0  0  0  0
 21 22  1  0  0  0  0
 22 17  2  0  0  0  0
 25 19  1  0  0  0  0
M  END
>  <minimizedAffinity>
-4.98496199

>  <minimizedRMSD>
7.33927107

$$$$
