
 OpenBabel03252503273D

 28 30  0  0  0  0  0  0  0  0999 V2000
   46.7140   34.3490   41.2180 C   0  0  0  0  0  0  0  0  0  0  0  0
   47.2860   33.2680   40.5420 C   0  0  0  0  0  0  0  0  0  0  0  0
   48.5500   32.8370   41.0170 C   0  0  0  0  0  0  0  0  0  0  0  0
   49.0920   33.5010   42.0740 N   0  0  0  0  0  0  0  0  0  0  0  0
   48.4830   34.5370   42.6790 C   0  0  0  0  0  0  0  0  0  0  0  0
   47.2900   34.9680   42.2550 N   0  0  0  0  0  0  0  0  0  0  0  0
   44.3740   33.9970   41.2200 C   0  0  0  0  0  0  0  0  0  0  0  0
   44.6950   32.9400   41.8630 O   0  0  0  0  0  0  0  0  0  0  0  0
   45.4360   34.8460   40.8000 N   0  0  0  0  0  0  0  0  0  0  0  0
   46.7270   32.8530   39.7220 H   0  0  0  0  0  0  0  0  0  0  0  0
   49.0170   34.9830   43.5110 H   0  0  0  0  0  0  0  0  0  0  0  0
   45.2770   35.7000   40.2680 H   0  0  0  0  0  0  0  0  0  0  0  0
   42.1750   35.1390   41.6990 C   0  0  0  0  0  3  0  0  0  0  0  0
   42.9800   34.3230   40.9240 C   0  0  0  0  0  0  0  0  0  0  0  0
   42.4210   33.7840   39.7980 C   0  0  0  0  0  0  0  0  0  0  0  0
   43.0030   33.1470   39.1700 H   0  0  0  0  0  0  0  0  0  0  0  0
   41.0960   34.0390   39.4350 C   0  0  0  0  0  0  0  0  0  0  0  0
   40.3180   33.6410   38.3970 N   0  0  0  0  0  0  0  0  0  0  0  0
   39.0840   34.2010   38.5420 C   0  0  0  0  0  0  0  0  0  0  0  0
   38.2150   34.0930   37.8910 H   0  0  0  0  0  0  0  0  0  0  0  0
   39.0820   34.9450   39.6600 N   0  0  0  0  0  0  0  0  0  0  0  0
   40.3010   34.8590   40.2200 C   0  0  0  0  0  0  0  0  0  0  0  0
   40.8650   35.4040   41.3560 C   0  0  0  0  0  3  0  0  0  0  0  0
   40.6070   33.0090   37.6100 H   0  0  0  0  0  0  0  0  0  0  0  0
   49.1240   31.7090   40.2940 C   0  0  0  0  0  0  0  0  0  0  0  0
   49.1860   30.6120   41.1660 F   0  0  0  0  0  0  0  0  0  0  0  0
   50.4440   32.0290   40.0160 F   0  0  0  0  0  0  0  0  0  0  0  0
   48.3960   31.3210   39.2150 F   0  0  0  0  0  0  0  0  0  0  0  0
  1  6  1  0  0  0  0
  2  3  1  0  0  0  0
  2  1  2  0  0  0  0
  3  4  2  0  0  0  0
  4  5  1  0  0  0  0
  5 11  1  0  0  0  0
  6  5  2  0  0  0  0
  7  8  2  0  0  0  0
  9  1  1  0  0  0  0
  9  7  1  0  0  0  0
 10  2  1  0  0  0  0
 12  9  1  0  0  0  0
 14  7  1  0  0  0  0
 14 13  2  0  0  0  0
 15 14  1  0  0  0  0
 16 15  1  0  0  0  0
 17 15  2  0  0  0  0
 17 22  1  0  0  0  0
 18 19  1  0  0  0  0
 18 17  1  0  0  0  0
 19 21  2  0  0  0  0
 20 19  1  0  0  0  0
 21 22  1  0  0  0  0
 22 23  2  0  0  0  0
 23 13  1  0  0  0  0
 24 18  1  0  0  0  0
 25  3  1  0  0  0  0
 25 26  1  0  0  0  0
 27 25  1  0  0  0  0
 28 25  1  0  0  0  0
M  END
>  <minimizedAffinity>
-5.11737633

>  <minimizedRMSD>
2.88170218

$$$$
