
 OpenBabel03252505403D

 31 34  0  0  1  0  0  0  0  0999 V2000
   45.1250   31.6120   43.1830 C   0  0  1  0  0  0  0  0  0  0  0  0
   45.8320   30.2670   42.8930 C   0  0  0  0  0  0  0  0  0  0  0  0
   46.4660   31.3490   43.7050 C   0  0  2  0  0  0  0  0  0  0  0  0
   44.1680   31.4110   43.7340 H   0  0  0  0  0  0  0  0  0  0  0  0
   45.5170   29.3780   43.4560 H   0  0  0  0  0  0  0  0  0  0  0  0
   46.1820   30.1070   41.8700 H   0  0  0  0  0  0  0  0  0  0  0  0
   47.3150   31.8540   43.2420 H   0  0  0  0  0  0  0  0  0  0  0  0
   47.5750   30.4900   45.7380 C   0  0  0  0  0  3  0  0  0  0  0  0
   46.5530   31.2080   45.1820 C   0  0  0  0  0  0  0  0  0  0  0  0
   45.6420   31.7730   46.0450 C   0  0  0  0  0  0  0  0  0  0  0  0
   44.8210   32.3480   45.6340 H   0  0  0  0  0  0  0  0  0  0  0  0
   45.7200   31.6430   47.4120 C   0  0  0  0  0  0  0  0  0  0  0  0
   44.9800   32.0830   48.4710 N   0  0  0  0  0  0  0  0  0  0  0  0
   45.5210   31.6540   49.6180 C   0  0  0  0  0  0  0  0  0  0  0  0
   45.1660   31.8350   50.6410 H   0  0  0  0  0  0  0  0  0  0  0  0
   46.6120   30.9380   49.2920 N   0  0  0  0  0  0  0  0  0  0  0  0
   46.7710   30.9070   47.9500 C   0  0  0  0  0  0  0  0  0  0  0  0
   47.7130   30.3190   47.1030 C   0  0  0  0  0  3  0  0  0  0  0  0
   44.1130   32.6710   48.3900 H   0  0  0  0  0  0  0  0  0  0  0  0
   44.9140   32.4520   41.9650 C   0  0  0  0  0  0  0  0  0  0  0  0
   46.0440   33.0030   41.3060 C   0  0  0  0  0  0  0  0  0  0  0  0
   45.8160   33.7690   40.1660 C   0  0  0  0  0  0  0  0  0  0  0  0
   44.5350   33.9440   39.7530 N   0  0  0  0  0  0  0  0  0  0  0  0
   43.4850   33.3980   40.4140 C   0  0  0  0  0  0  0  0  0  0  0  0
   43.6860   32.6490   41.5270 N   0  0  0  0  0  0  0  0  0  0  0  0
   47.0490   32.8370   41.6690 H   0  0  0  0  0  0  0  0  0  0  0  0
   46.6180   34.2220   39.6090 H   0  0  0  0  0  0  0  0  0  0  0  0
   42.1580   33.7040   39.7840 C   0  0  0  0  0  0  0  0  0  0  0  0
   41.2270   32.7320   40.0590 F   0  0  0  0  0  0  0  0  0  0  0  0
   42.3050   33.7950   38.3980 F   0  0  0  0  0  0  0  0  0  0  0  0
   41.7470   34.9660   40.1980 F   0  0  0  0  0  0  0  0  0  0  0  0
  1  3  1  0  0  0  0
  1  4  1  1  0  0  0
  2  1  1  0  0  0  0
  2  5  1  0  0  0  0
  2  3  1  0  0  0  0
  3  7  1  6  0  0  0
  3  9  1  0  0  0  0
  6  2  1  0  0  0  0
  8 18  1  0  0  0  0
  9  8  2  0  0  0  0
  9 10  1  0  0  0  0
 10 12  2  0  0  0  0
 11 10  1  0  0  0  0
 12 17  1  0  0  0  0
 12 13  1  0  0  0  0
 13 14  1  0  0  0  0
 14 15  1  0  0  0  0
 16 14  2  0  0  0  0
 17 16  1  0  0  0  0
 18 17  2  0  0  0  0
 19 13  1  0  0  0  0
 20  1  1  0  0  0  0
 21 26  1  0  0  0  0
 21 20  2  0  0  0  0
 22 21  1  0  0  0  0
 23 22  2  0  0  0  0
 23 24  1  0  0  0  0
 24 25  2  0  0  0  0
 25 20  1  0  0  0  0
 27 22  1  0  0  0  0
 28 29  1  0  0  0  0
 28 31  1  0  0  0  0
 28 24  1  0  0  0  0
 30 28  1  0  0  0  0
M  END
>  <minimizedAffinity>
-4.05044842

>  <minimizedRMSD>
8.57400799

$$$$
