
 OpenBabel03252504533D

 24 26  0  0  0  0  0  0  0  0999 V2000
   46.8700   34.9500   42.0050 C   0  0  0  0  0  0  0  0  0  0  0  0
   47.1690   35.9660   41.7090 H   0  0  0  0  0  0  0  0  0  0  0  0
   47.8200   34.3930   42.1570 H   0  0  0  0  0  0  0  0  0  0  0  0
   46.9290   33.7220   39.8770 C   0  0  0  0  0  3  0  0  0  0  0  0
   46.1630   34.2760   40.8820 C   0  0  0  0  0  0  0  0  0  0  0  0
   44.7860   34.1990   40.8330 C   0  0  0  0  0  0  0  0  0  0  0  0
   44.1700   34.6350   41.6240 H   0  0  0  0  0  0  0  0  0  0  0  0
   44.1510   33.5690   39.7810 C   0  0  0  0  0  0  0  0  0  0  0  0
   42.8450   33.3430   39.4680 N   0  0  0  0  0  0  0  0  0  0  0  0
   42.8560   32.6590   38.2870 C   0  0  0  0  0  0  0  0  0  0  0  0
   41.9550   32.3350   37.7790 H   0  0  0  0  0  0  0  0  0  0  0  0
   44.1290   32.4650   37.8720 N   0  0  0  0  0  0  0  0  0  0  0  0
   44.9280   33.0270   38.7970 C   0  0  0  0  0  0  0  0  0  0  0  0
   46.3150   33.0800   38.8030 C   0  0  0  0  0  3  0  0  0  0  0  0
   42.0160   33.6390   40.0330 H   0  0  0  0  0  0  0  0  0  0  0  0
   44.5520   35.9870   44.7220 C   0  0  0  0  0  0  0  0  0  0  0  0
   45.2720   35.9880   43.5080 C   0  0  0  0  0  0  0  0  0  0  0  0
   46.1330   34.9320   43.2660 C   0  0  0  0  0  0  0  0  0  0  0  0
   46.2490   33.9450   44.2020 N   0  0  0  0  0  0  0  0  0  0  0  0
   45.5420   33.9810   45.3520 C   0  0  0  0  0  0  0  0  0  0  0  0
   44.7030   34.9870   45.6130 N   0  0  0  0  0  0  0  0  0  0  0  0
   43.8670   36.7900   44.9590 H   0  0  0  0  0  0  0  0  0  0  0  0
   45.1080   36.8120   42.8420 H   0  0  0  0  0  0  0  0  0  0  0  0
   45.6750   33.1570   46.0690 H   0  0  0  0  0  0  0  0  0  0  0  0
  1  3  1  0  0  0  0
  1 18  1  0  0  0  0
  2  1  1  0  0  0  0
  4  5  1  0  0  0  0
  5  1  1  0  0  0  0
  6  5  2  0  0  0  0
  6  7  1  0  0  0  0
  8  6  1  0  0  0  0
  9  8  1  0  0  0  0
  9 15  1  0  0  0  0
 10  9  1  0  0  0  0
 11 10  1  0  0  0  0
 12 10  2  0  0  0  0
 12 13  1  0  0  0  0
 13 14  1  0  0  0  0
 13  8  2  0  0  0  0
 14  4  2  0  0  0  0
 16 22  1  0  0  0  0
 16 21  1  0  0  0  0
 17 16  2  0  0  0  0
 18 17  1  0  0  0  0
 18 19  2  0  0  0  0
 19 20  1  0  0  0  0
 20 21  2  0  0  0  0
 20 24  1  0  0  0  0
 23 17  1  0  0  0  0
M  END
>  <minimizedAffinity>
-4.55564404

>  <minimizedRMSD>
0.422896028

$$$$
