
 OpenBabel03242512593D

 38 42  0  0  0  0  0  0  0  0999 V2000
   46.0150   32.2910   43.7750 F   0  0  0  0  0  0  0  0  0  0  0  0
   45.5020   33.5180   44.0500 C   0  0  0  0  0  0  0  0  0  0  0  0
   45.3880   33.9760   45.3460 C   0  0  0  0  0  0  0  0  0  0  0  0
   44.8590   35.2260   45.5270 C   0  0  0  0  0  0  0  0  0  0  0  0
   44.4400   36.0380   44.5140 C   0  0  0  0  0  0  0  0  0  0  0  0
   44.5720   35.5400   43.2420 C   0  0  0  0  0  0  0  0  0  0  0  0
   45.0940   34.2950   42.9880 C   0  0  0  0  0  0  0  0  0  0  0  0
   44.7820   35.5620   46.5530 H   0  0  0  0  0  0  0  0  0  0  0  0
   44.0320   37.0130   44.7410 H   0  0  0  0  0  0  0  0  0  0  0  0
   44.2500   36.1570   42.4110 H   0  0  0  0  0  0  0  0  0  0  0  0
   45.5840   32.0300   48.6030 C   0  0  0  0  0  0  0  0  0  0  0  0
   45.1140   32.8840   47.5930 C   0  0  0  0  0  0  0  0  0  0  0  0
   45.8420   33.0950   46.4200 C   0  0  0  0  0  0  0  0  0  0  0  0
   47.0270   32.4180   46.3330 N   0  0  0  0  0  0  0  0  0  0  0  0
   47.4540   31.6020   47.3220 C   0  0  0  0  0  0  0  0  0  0  0  0
   46.7480   31.4090   48.4390 N   0  0  0  0  0  0  0  0  0  0  0  0
   45.0040   31.8910   49.4850 H   0  0  0  0  0  0  0  0  0  0  0  0
   44.1800   33.4030   47.6880 H   0  0  0  0  0  0  0  0  0  0  0  0
   48.4050   31.1670   47.0590 H   0  0  0  0  0  0  0  0  0  0  0  0
   45.2270   33.7810   41.6270 C   0  0  0  0  0  0  0  0  0  0  0  0
   44.3090   32.9950   40.9490 C   0  0  0  0  0  0  0  0  0  0  0  0
   44.8470   32.7400   39.6880 C   0  0  0  0  0  0  0  0  0  0  0  0
   46.0310   33.3560   39.6420 N   0  0  0  0  0  0  0  0  0  0  0  0
   46.2730   33.9820   40.7910 N   0  0  0  0  0  0  0  0  0  0  0  0
   43.3780   32.6850   41.3900 H   0  0  0  0  0  0  0  0  0  0  0  0
   44.2970   32.1370   38.9730 H   0  0  0  0  0  0  0  0  0  0  0  0
   48.1290   33.7170   38.4910 C   0  0  0  0  0  0  0  0  0  0  0  0
   46.8230   33.2730   38.4620 C   0  0  0  0  0  0  0  0  0  0  0  0
   46.2990   32.7500   37.2750 C   0  0  0  0  0  0  0  0  0  0  0  0
   45.2710   32.4120   37.2930 H   0  0  0  0  0  0  0  0  0  0  0  0
   47.0740   32.6670   36.1150 C   0  0  0  0  0  0  0  0  0  0  0  0
   46.7490   32.2010   34.8990 N   0  0  0  0  0  0  0  0  0  0  0  0
   47.8780   32.3630   34.1730 C   0  0  0  0  0  0  0  0  0  0  0  0
   48.0500   32.1100   33.1160 H   0  0  0  0  0  0  0  0  0  0  0  0
   48.8840   32.9160   34.9110 N   0  0  0  0  0  0  0  0  0  0  0  0
   48.3830   33.1080   36.1360 C   0  0  0  0  0  0  0  0  0  0  0  0
   48.8710   33.6220   37.3290 C   0  0  0  0  0  0  0  0  0  0  0  0
   45.8730   31.7990   34.5230 H   0  0  0  0  0  0  0  0  0  0  0  0
  1  2  1  0  0  0  0
  2  3  1  0  0  0  0
  3  4  2  0  0  0  0
  3 13  1  0  0  0  0
  4  8  1  0  0  0  0
  5  9  1  0  0  0  0
  5  4  1  0  0  0  0
  6  5  2  0  0  0  0
  7  6  1  0  0  0  0
  7  2  2  0  0  0  0
 10  6  1  0  0  0  0
 11 17  1  0  0  0  0
 12 18  1  0  0  0  0
 12 11  2  0  0  0  0
 13 12  1  0  0  0  0
 14 13  2  0  0  0  0
 14 15  1  0  0  0  0
 15 16  2  0  0  0  0
 16 11  1  0  0  0  0
 19 15  1  0  0  0  0
 20  7  1  0  0  0  0
 21 25  1  0  0  0  0
 21 20  1  0  0  0  0
 22 21  2  0  0  0  0
 23 22  1  0  0  0  0
 23 24  1  0  0  0  0
 24 20  2  0  0  0  0
 26 22  1  0  0  0  0
 28 27  1  0  0  0  0
 28 23  1  0  0  0  0
 29 30  1  0  0  0  0
 29 28  2  0  0  0  0
 31 36  2  0  0  0  0
 31 29  1  0  0  0  0
 32 31  1  0  0  0  0
 33 32  1  0  0  0  0
 33 35  2  0  0  0  0
 34 33  1  0  0  0  0
 35 36  1  0  0  0  0
 36 37  1  0  0  0  0
 37 27  2  0  0  0  0
 38 32  1  0  0  0  0
M  END
>  <minimizedAffinity>
-6.49506378

>  <minimizedRMSD>
4.71854353

$$$$
