
 OpenBabel03252506463D

 45 49  0  0  1  0  0  0  0  0999 V2000
   49.4470   33.3830   41.4190 N   0  0  1  0  0  0  0  0  0  0  0  0
   50.7130   33.1420   42.0630 C   0  0  0  0  0  0  0  0  0  0  0  0
   51.3240   31.8140   41.6870 C   0  0  0  0  0  0  0  0  0  0  0  0
   50.4560   30.7040   42.2310 C   0  0  0  0  0  0  0  0  0  0  0  0
   48.9850   31.0710   42.1360 C   0  0  0  0  0  0  0  0  0  0  0  0
   48.8090   32.1450   41.0820 C   0  0  2  0  0  0  0  0  0  0  0  0
   50.6460   33.1630   43.1700 H   0  0  0  0  0  0  0  0  0  0  0  0
   51.4360   33.9250   41.6940 H   0  0  0  0  0  0  0  0  0  0  0  0
   51.5110   31.6780   40.6240 H   0  0  0  0  0  0  0  0  0  0  0  0
   52.3350   31.8120   42.1800 H   0  0  0  0  0  0  0  0  0  0  0  0
   50.7390   30.5840   43.3070 H   0  0  0  0  0  0  0  0  0  0  0  0
   50.5790   29.7510   41.6630 H   0  0  0  0  0  0  0  0  0  0  0  0
   48.6900   31.5210   43.0960 H   0  0  0  0  0  0  0  0  0  0  0  0
   48.3510   30.2210   41.8300 H   0  0  0  0  0  0  0  0  0  0  0  0
   47.7160   32.3440   41.0440 H   0  0  0  0  0  0  0  0  0  0  0  0
   47.2860   34.6830   41.9840 C   0  0  1  0  0  0  0  0  0  0  0  0
   48.4220   35.6090   41.7740 C   0  0  0  0  0  0  0  0  0  0  0  0
   48.6790   34.2360   42.2490 C   0  0  2  0  0  0  0  0  0  0  0  0
   46.7580   34.2840   41.0910 H   0  0  0  0  0  0  0  0  0  0  0  0
   48.5250   36.4690   42.4580 H   0  0  0  0  0  0  0  0  0  0  0  0
   48.6660   35.8800   40.7250 H   0  0  0  0  0  0  0  0  0  0  0  0
   48.9360   34.1790   43.3410 H   0  0  0  0  0  0  0  0  0  0  0  0
   45.5400   36.0550   43.1550 C   0  0  0  0  0  0  0  0  0  0  0  0
   46.3570   34.9100   43.1090 C   0  0  0  0  0  0  0  0  0  0  0  0
   46.2540   33.9900   44.1500 C   0  0  0  0  0  0  0  0  0  0  0  0
   45.3710   34.2510   45.1490 N   0  0  0  0  0  0  0  0  0  0  0  0
   44.5990   35.3470   45.1780 C   0  0  0  0  0  0  0  0  0  0  0  0
   44.6800   36.2700   44.1650 N   0  0  0  0  0  0  0  0  0  0  0  0
   45.6320   36.7620   42.3370 H   0  0  0  0  0  0  0  0  0  0  0  0
   46.8600   33.0950   44.1610 H   0  0  0  0  0  0  0  0  0  0  0  0
   43.9300   35.4470   46.0290 H   0  0  0  0  0  0  0  0  0  0  0  0
   49.1680   31.6120   39.8050 N   0  0  0  0  0  0  0  0  0  0  0  0
   49.7300   30.7070   39.7670 H   0  0  0  0  0  0  0  0  0  0  0  0
   47.9840   33.0180   38.0780 C   0  0  0  0  0  0  0  0  0  0  0  0
   48.9170   32.0510   38.4740 C   0  0  0  0  0  0  0  0  0  0  0  0
   49.6530   31.4760   37.4600 C   0  0  0  0  0  0  0  0  0  0  0  0
   50.3940   30.7190   37.6650 H   0  0  0  0  0  0  0  0  0  0  0  0
   49.5350   31.7800   36.1180 C   0  0  0  0  0  0  0  0  0  0  0  0
   50.1360   31.3520   34.9930 N   0  0  0  0  0  0  0  0  0  0  0  0
   49.6210   32.0030   33.9340 C   0  0  0  0  0  0  0  0  0  0  0  0
   49.8990   31.8800   32.8950 H   0  0  0  0  0  0  0  0  0  0  0  0
   48.6730   32.8630   34.4090 N   0  0  0  0  0  0  0  0  0  0  0  0
   48.6140   32.7310   35.7470 C   0  0  0  0  0  0  0  0  0  0  0  0
   47.8650   33.3220   36.7420 C   0  0  0  0  0  0  0  0  0  0  0  0
   50.8850   30.6310   34.9270 H   0  0  0  0  0  0  0  0  0  0  0  0
  1  2  1  1  0  0  0
  1 18  1  0  0  0  0
  2  7  1  0  0  0  0
  3  2  1  0  0  0  0
  3 10  1  0  0  0  0
  3  4  1  0  0  0  0
  4 11  1  0  0  0  0
  5  4  1  0  0  0  0
  5 13  1  0  0  0  0
  6 15  1  6  0  0  0
  6  1  1  0  0  0  0
  6  5  1  0  0  0  0
  8  2  1  0  0  0  0
  9  3  1  0  0  0  0
 12  4  1  0  0  0  0
 14  5  1  0  0  0  0
 16 19  1  6  0  0  0
 16 18  1  0  0  0  0
 16 24  1  0  0  0  0
 17 16  1  0  0  0  0
 17 18  1  0  0  0  0
 17 20  1  0  0  0  0
 18 22  1  1  0  0  0
 21 17  1  0  0  0  0
 23 28  1  0  0  0  0
 24 23  2  0  0  0  0
 24 25  1  0  0  0  0
 25 30  1  0  0  0  0
 25 26  2  0  0  0  0
 26 27  1  0  0  0  0
 27 31  1  0  0  0  0
 28 27  2  0  0  0  0
 29 23  1  0  0  0  0
 32  6  1  0  0  0  0
 33 32  1  0  0  0  0
 34 35  1  0  0  0  0
 35 32  1  0  0  0  0
 36 37  1  0  0  0  0
 36 35  2  0  0  0  0
 38 36  1  0  0  0  0
 39 38  1  0  0  0  0
 40 42  2  0  0  0  0
 40 39  1  0  0  0  0
 41 40  1  0  0  0  0
 42 43  1  0  0  0  0
 43 38  2  0  0  0  0
 43 44  1  0  0  0  0
 44 34  2  0  0  0  0
 45 39  1  0  0  0  0
M  END
>  <minimizedAffinity>
-5.85006142

>  <minimizedRMSD>
0.43170315

$$$$
