
 OpenBabel03242513533D

 42 45  0  0  1  0  0  0  0  0999 V2000
   37.7250   25.0650   41.9980 C   0  0  2  0  0  0  0  0  0  0  0  0
   38.9510   24.4830   41.3650 C   0  0  0  0  0  0  0  0  0  0  0  0
   38.3890   23.1810   40.8570 C   0  0  0  0  0  0  0  0  0  0  0  0
   37.0400   23.5100   40.3940 C   0  0  0  0  0  0  0  0  0  0  0  0
   36.7480   25.0220   40.8510 C   0  0  2  0  0  0  0  0  0  0  0  0
   37.3390   24.3670   42.7740 H   0  0  0  0  0  0  0  0  0  0  0  0
   39.2580   25.1090   40.5040 H   0  0  0  0  0  0  0  0  0  0  0  0
   39.7740   24.3410   42.0950 H   0  0  0  0  0  0  0  0  0  0  0  0
   38.3240   22.4850   41.7430 H   0  0  0  0  0  0  0  0  0  0  0  0
   39.0550   22.6890   40.1240 H   0  0  0  0  0  0  0  0  0  0  0  0
   36.2210   22.8830   40.8290 H   0  0  0  0  0  0  0  0  0  0  0  0
   37.0010   23.4930   39.3000 H   0  0  0  0  0  0  0  0  0  0  0  0
   35.6870   25.0510   41.1500 H   0  0  0  0  0  0  0  0  0  0  0  0
   37.1860   28.4170   43.5910 C   0  0  0  0  0  0  0  0  0  0  0  0
   36.8720   27.1220   43.1300 C   0  0  0  0  0  0  0  0  0  0  0  0
   37.8690   26.4390   42.5210 C   0  0  0  0  0  0  0  0  0  0  0  0
   39.1210   27.0440   42.3860 N   0  0  0  0  0  0  0  0  0  0  0  0
   39.3890   28.2730   42.8330 C   0  0  0  0  0  0  0  0  0  0  0  0
   38.4190   28.9610   43.4360 N   0  0  0  0  0  0  0  0  0  0  0  0
   36.4130   29.0000   44.0860 H   0  0  0  0  0  0  0  0  0  0  0  0
   35.8960   26.6870   43.2510 H   0  0  0  0  0  0  0  0  0  0  0  0
   40.4050   28.5930   42.6500 H   0  0  0  0  0  0  0  0  0  0  0  0
   37.1140   25.8200   39.7820 O   0  0  0  0  0  0  0  0  0  0  0  0
   36.4160   26.8800   39.2760 C   0  0  0  0  0  0  0  0  0  0  0  0
   35.8220   26.4590   38.2050 O   0  0  0  0  0  0  0  0  0  0  0  0
   35.9850   28.2820   39.3310 C   0  0  0  0  0  3  0  0  0  0  0  0
   36.4680   29.3010   40.0530 C   0  0  0  0  0  3  0  0  0  0  0  0
   36.1080   30.7330   40.1580 C   0  0  0  0  0  0  0  0  0  0  0  0
   35.5110   30.8510   41.0970 H   0  0  0  0  0  0  0  0  0  0  0  0
   35.4680   30.9970   39.3150 H   0  0  0  0  0  0  0  0  0  0  0  0
   37.2320   32.9820   39.9040 C   0  0  0  0  0  3  0  0  0  0  0  0
   37.2770   31.6400   40.2200 C   0  0  0  0  0  0  0  0  0  0  0  0
   38.5050   31.1040   40.6270 C   0  0  0  0  0  0  0  0  0  0  0  0
   38.6060   30.0560   40.8890 H   0  0  0  0  0  0  0  0  0  0  0  0
   39.6190   31.9330   40.6960 C   0  0  0  0  0  0  0  0  0  0  0  0
   40.9040   31.7130   41.0420 N   0  0  0  0  0  0  0  0  0  0  0  0
   41.6180   32.8530   40.9470 C   0  0  0  0  0  0  0  0  0  0  0  0
   42.6810   32.9710   41.1660 H   0  0  0  0  0  0  0  0  0  0  0  0
   40.7360   33.8000   40.5270 N   0  0  0  0  0  0  0  0  0  0  0  0
   39.5170   33.2520   40.3700 C   0  0  0  0  0  0  0  0  0  0  0  0
   38.3170   33.8320   39.9610 C   0  0  0  0  0  3  0  0  0  0  0  0
   41.3230   30.7930   41.3490 H   0  0  0  0  0  0  0  0  0  0  0  0
  1 16  1  0  0  0  0
  1  6  1  1  0  0  0
  2  1  1  0  0  0  0
  2  8  1  0  0  0  0
  3  2  1  0  0  0  0
  3  9  1  0  0  0  0
  4 11  1  0  0  0  0
  4  5  1  0  0  0  0
  4  3  1  0  0  0  0
  5 13  1  1  0  0  0
  5  1  1  0  0  0  0
  7  2  1  0  0  0  0
 10  3  1  0  0  0  0
 12  4  1  0  0  0  0
 14 20  1  0  0  0  0
 15 21  1  0  0  0  0
 15 14  2  0  0  0  0
 16 15  1  0  0  0  0
 17 16  2  0  0  0  0
 17 18  1  0  0  0  0
 18 19  2  0  0  0  0
 19 14  1  0  0  0  0
 22 18  1  0  0  0  0
 23  5  1  0  0  0  0
 24 26  1  0  0  0  0
 24 23  1  0  0  0  0
 25 24  2  0  0  0  0
 26 27  2  0  0  0  0
 27 28  1  0  0  0  0
 28 32  1  0  0  0  0
 28 29  1  0  0  0  0
 30 28  1  0  0  0  0
 31 41  2  0  0  0  0
 31 32  1  0  0  0  0
 32 33  2  0  0  0  0
 33 35  1  0  0  0  0
 33 34  1  0  0  0  0
 35 36  1  0  0  0  0
 36 42  1  0  0  0  0
 37 36  1  0  0  0  0
 37 38  1  0  0  0  0
 39 37  2  0  0  0  0
 40 39  1  0  0  0  0
 40 35  2  0  0  0  0
 41 40  1  0  0  0  0
M  END
>  <minimizedAffinity>
-5.71713209

$$$$

 OpenBabel03242513533D

 42 45  0  0  1  0  0  0  0  0999 V2000
   39.5540   32.9500   39.3920 C   0  0  2  0  0  0  0  0  0  0  0  0
   40.5380   32.6280   38.3120 C   0  0  0  0  0  0  0  0  0  0  0  0
   41.4940   33.7800   38.4780 C   0  0  0  0  0  0  0  0  0  0  0  0
   41.5760   33.9940   39.9230 C   0  0  0  0  0  0  0  0  0  0  0  0
   40.4550   33.0590   40.5950 C   0  0  2  0  0  0  0  0  0  0  0  0
   39.1280   33.9640   39.2190 H   0  0  0  0  0  0  0  0  0  0  0  0
   41.0610   31.6810   38.5540 H   0  0  0  0  0  0  0  0  0  0  0  0
   40.0670   32.6010   37.3080 H   0  0  0  0  0  0  0  0  0  0  0  0
   41.0130   34.6760   37.9900 H   0  0  0  0  0  0  0  0  0  0  0  0
   42.4520   33.6160   37.9500 H   0  0  0  0  0  0  0  0  0  0  0  0
   41.3610   35.0390   40.2630 H   0  0  0  0  0  0  0  0  0  0  0  0
   42.5440   33.6550   40.3020 H   0  0  0  0  0  0  0  0  0  0  0  0
   40.0360   33.6390   41.4330 H   0  0  0  0  0  0  0  0  0  0  0  0
   36.4390   31.1170   40.3940 C   0  0  0  0  0  0  0  0  0  0  0  0
   37.3540   32.1850   40.2980 C   0  0  0  0  0  0  0  0  0  0  0  0
   38.4960   31.9430   39.6120 C   0  0  0  0  0  0  0  0  0  0  0  0
   38.6960   30.6770   39.0540 N   0  0  0  0  0  0  0  0  0  0  0  0
   37.8090   29.6840   39.1630 C   0  0  0  0  0  0  0  0  0  0  0  0
   36.6800   29.9050   39.8340 N   0  0  0  0  0  0  0  0  0  0  0  0
   35.5090   31.2690   40.9370 H   0  0  0  0  0  0  0  0  0  0  0  0
   37.1670   33.1470   40.7400 H   0  0  0  0  0  0  0  0  0  0  0  0
   38.1160   28.7700   38.6740 H   0  0  0  0  0  0  0  0  0  0  0  0
   41.0920   31.8740   40.9180 O   0  0  0  0  0  0  0  0  0  0  0  0
   40.8860   31.1110   42.0320 C   0  0  0  0  0  0  0  0  0  0  0  0
   41.8170   31.4230   42.8770 O   0  0  0  0  0  0  0  0  0  0  0  0
   40.1280   30.0980   42.7760 C   0  0  0  0  0  3  0  0  0  0  0  0
   38.8110   29.8530   42.7960 C   0  0  0  0  0  3  0  0  0  0  0  0
   37.9740   28.8550   43.4980 C   0  0  0  0  0  0  0  0  0  0  0  0
   36.9070   29.1270   43.3000 H   0  0  0  0  0  0  0  0  0  0  0  0
   38.1510   28.9390   44.5700 H   0  0  0  0  0  0  0  0  0  0  0  0
   39.2490   26.6730   43.4690 C   0  0  0  0  0  3  0  0  0  0  0  0
   38.2000   27.4630   43.0460 C   0  0  0  0  0  0  0  0  0  0  0  0
   37.2930   26.9110   42.1340 C   0  0  0  0  0  0  0  0  0  0  0  0
   36.4470   27.4800   41.7630 H   0  0  0  0  0  0  0  0  0  0  0  0
   37.4800   25.6060   41.6930 C   0  0  0  0  0  0  0  0  0  0  0  0
   36.7940   24.8200   40.8390 N   0  0  0  0  0  0  0  0  0  0  0  0
   37.3820   23.6110   40.7350 C   0  0  0  0  0  0  0  0  0  0  0  0
   37.0440   22.7780   40.1170 H   0  0  0  0  0  0  0  0  0  0  0  0
   38.4650   23.6630   41.5560 N   0  0  0  0  0  0  0  0  0  0  0  0
   38.5360   24.8720   42.1440 C   0  0  0  0  0  0  0  0  0  0  0  0
   39.4650   25.3760   43.0530 C   0  0  0  0  0  3  0  0  0  0  0  0
   35.9170   25.0830   40.3090 H   0  0  0  0  0  0  0  0  0  0  0  0
  1  6  1  6  0  0  0
  1 16  1  0  0  0  0
  1  5  1  0  0  0  0
  2  3  1  0  0  0  0
  2  7  1  0  0  0  0
  2  1  1  0  0  0  0
  3  4  1  0  0  0  0
  4 11  1  0  0  0  0
  4 12  1  0  0  0  0
  4  5  1  0  0  0  0
  5 23  1  0  0  0  0
  5 13  1  1  0  0  0
  8  2  1  0  0  0  0
  9  3  1  0  0  0  0
 10  3  1  0  0  0  0
 14 20  1  0  0  0  0
 15 14  1  0  0  0  0
 15 21  1  0  0  0  0
 16 15  2  0  0  0  0
 17 18  2  0  0  0  0
 17 16  1  0  0  0  0
 18 19  1  0  0  0  0
 19 14  2  0  0  0  0
 22 18  1  0  0  0  0
 23 24  1  0  0  0  0
 24 26  1  0  0  0  0
 24 25  2  0  0  0  0
 26 27  2  0  0  0  0
 27 28  1  0  0  0  0
 28 30  1  0  0  0  0
 29 28  1  0  0  0  0
 32 31  2  0  0  0  0
 32 28  1  0  0  0  0
 33 32  1  0  0  0  0
 34 33  1  0  0  0  0
 35 33  2  0  0  0  0
 35 40  1  0  0  0  0
 36 35  1  0  0  0  0
 37 36  1  0  0  0  0
 37 39  2  0  0  0  0
 38 37  1  0  0  0  0
 39 40  1  0  0  0  0
 40 41  2  0  0  0  0
 41 31  1  0  0  0  0
 42 36  1  0  0  0  0
M  END
>  <minimizedAffinity>
-5.67404652

$$$$

 OpenBabel03242513533D

 42 45  0  0  1  0  0  0  0  0999 V2000
   39.4830   32.7600   39.1040 C   0  0  2  0  0  0  0  0  0  0  0  0
   38.6050   33.5870   39.9910 C   0  0  0  0  0  0  0  0  0  0  0  0
   37.3770   32.7160   40.0290 C   0  0  0  0  0  0  0  0  0  0  0  0
   37.8910   31.3460   40.0670 C   0  0  0  0  0  0  0  0  0  0  0  0
   39.4770   31.4380   39.8290 C   0  0  2  0  0  0  0  0  0  0  0  0
   38.9760   32.5920   38.1290 H   0  0  0  0  0  0  0  0  0  0  0  0
   39.0460   33.6430   41.0060 H   0  0  0  0  0  0  0  0  0  0  0  0
   38.4060   34.5920   39.5650 H   0  0  0  0  0  0  0  0  0  0  0  0
   36.8260   32.8850   39.0590 H   0  0  0  0  0  0  0  0  0  0  0  0
   36.6790   33.0020   40.8370 H   0  0  0  0  0  0  0  0  0  0  0  0
   37.4910   30.6650   39.2740 H   0  0  0  0  0  0  0  0  0  0  0  0
   37.7410   30.9140   41.0610 H   0  0  0  0  0  0  0  0  0  0  0  0
   39.7420   30.5700   39.2030 H   0  0  0  0  0  0  0  0  0  0  0  0
   42.9530   34.0920   39.6010 C   0  0  0  0  0  0  0  0  0  0  0  0
   41.6550   33.6640   39.9460 C   0  0  0  0  0  0  0  0  0  0  0  0
   40.8610   33.2600   38.9260 C   0  0  0  0  0  0  0  0  0  0  0  0
   41.3640   33.2910   37.6220 N   0  0  0  0  0  0  0  0  0  0  0  0
   42.6000   33.7030   37.3270 C   0  0  0  0  0  0  0  0  0  0  0  0
   43.3950   34.1040   38.3180 N   0  0  0  0  0  0  0  0  0  0  0  0
   43.6230   34.4250   40.3900 H   0  0  0  0  0  0  0  0  0  0  0  0
   41.3010   33.6530   40.9610 H   0  0  0  0  0  0  0  0  0  0  0  0
   42.8320   33.6650   36.2720 H   0  0  0  0  0  0  0  0  0  0  0  0
   40.0480   31.4950   41.0880 O   0  0  0  0  0  0  0  0  0  0  0  0
   39.7400   30.7080   42.1610 C   0  0  0  0  0  0  0  0  0  0  0  0
   40.4290   31.1560   43.1630 O   0  0  0  0  0  0  0  0  0  0  0  0
   39.0090   29.5900   42.7710 C   0  0  0  0  0  3  0  0  0  0  0  0
   39.0900   28.2760   42.5250 C   0  0  0  0  0  3  0  0  0  0  0  0
   38.4090   27.0920   43.0970 C   0  0  0  0  0  0  0  0  0  0  0  0
   37.5160   27.4690   43.6570 H   0  0  0  0  0  0  0  0  0  0  0  0
   39.0780   26.6120   43.8110 H   0  0  0  0  0  0  0  0  0  0  0  0
   37.0970   26.4220   41.0430 C   0  0  0  0  0  3  0  0  0  0  0  0
   37.9540   26.1170   42.0800 C   0  0  0  0  0  0  0  0  0  0  0  0
   38.4240   24.8010   42.1740 C   0  0  0  0  0  0  0  0  0  0  0  0
   39.1000   24.4970   42.9660 H   0  0  0  0  0  0  0  0  0  0  0  0
   38.0140   23.8630   41.2330 C   0  0  0  0  0  0  0  0  0  0  0  0
   38.2880   22.5540   41.0650 N   0  0  0  0  0  0  0  0  0  0  0  0
   37.6380   22.0720   39.9870 C   0  0  0  0  0  0  0  0  0  0  0  0
   37.6740   21.0460   39.6140 H   0  0  0  0  0  0  0  0  0  0  0  0
   36.9440   23.1260   39.4790 N   0  0  0  0  0  0  0  0  0  0  0  0
   37.1640   24.2210   40.2300 C   0  0  0  0  0  0  0  0  0  0  0  0
   36.6700   25.5180   40.0930 C   0  0  0  0  0  3  0  0  0  0  0  0
   38.9170   21.9600   41.6730 H   0  0  0  0  0  0  0  0  0  0  0  0
  1  6  1  6  0  0  0
  1  5  1  0  0  0  0
  1  2  1  0  0  0  0
  2  3  1  0  0  0  0
  2  7  1  0  0  0  0
  3  4  1  0  0  0  0
  3 10  1  0  0  0  0
  4 12  1  0  0  0  0
  5 13  1  6  0  0  0
  5  4  1  0  0  0  0
  5 23  1  0  0  0  0
  8  2  1  0  0  0  0
  9  3  1  0  0  0  0
 11  4  1  0  0  0  0
 14 15  1  0  0  0  0
 14 20  1  0  0  0  0
 15 21  1  0  0  0  0
 16  1  1  0  0  0  0
 16 15  2  0  0  0  0
 17 16  1  0  0  0  0
 18 17  2  0  0  0  0
 18 19  1  0  0  0  0
 19 14  2  0  0  0  0
 22 18  1  0  0  0  0
 23 24  1  0  0  0  0
 24 26  1  0  0  0  0
 24 25  2  0  0  0  0
 27 26  2  0  0  0  0
 27 28  1  0  0  0  0
 28 29  1  0  0  0  0
 28 30  1  0  0  0  0
 31 32  1  0  0  0  0
 32 33  2  0  0  0  0
 32 28  1  0  0  0  0
 33 34  1  0  0  0  0
 35 33  1  0  0  0  0
 36 35  1  0  0  0  0
 36 42  1  0  0  0  0
 37 36  1  0  0  0  0
 38 37  1  0  0  0  0
 39 37  2  0  0  0  0
 39 40  1  0  0  0  0
 40 35  2  0  0  0  0
 41 40  1  0  0  0  0
 41 31  2  0  0  0  0
M  END
>  <minimizedAffinity>
-5.63352251

$$$$

 OpenBabel03242513533D

 42 45  0  0  1  0  0  0  0  0999 V2000
   38.1030   30.5890   40.8170 C   0  0  2  0  0  0  0  0  0  0  0  0
   36.7570   31.2280   40.6750 C   0  0  0  0  0  0  0  0  0  0  0  0
   37.0690   32.2640   39.6260 C   0  0  0  0  0  0  0  0  0  0  0  0
   38.0040   31.6020   38.7140 C   0  0  0  0  0  0  0  0  0  0  0  0
   38.4010   30.2000   39.3920 C   0  0  2  0  0  0  0  0  0  0  0  0
   38.8530   31.3580   41.1030 H   0  0  0  0  0  0  0  0  0  0  0  0
   36.0370   30.4940   40.2610 H   0  0  0  0  0  0  0  0  0  0  0  0
   36.4000   31.6740   41.6260 H   0  0  0  0  0  0  0  0  0  0  0  0
   37.5930   33.1130   40.1520 H   0  0  0  0  0  0  0  0  0  0  0  0
   36.1590   32.6940   39.1710 H   0  0  0  0  0  0  0  0  0  0  0  0
   38.9640   32.1510   38.5360 H   0  0  0  0  0  0  0  0  0  0  0  0
   37.5080   31.3700   37.7670 H   0  0  0  0  0  0  0  0  0  0  0  0
   39.4710   30.0470   39.1720 H   0  0  0  0  0  0  0  0  0  0  0  0
   39.1830   27.7300   42.9910 C   0  0  0  0  0  0  0  0  0  0  0  0
   39.3100   28.8330   42.1220 C   0  0  0  0  0  0  0  0  0  0  0  0
   38.1580   29.4120   41.7090 C   0  0  0  0  0  0  0  0  0  0  0  0
   36.9400   28.8960   42.1590 N   0  0  0  0  0  0  0  0  0  0  0  0
   36.8520   27.8490   42.9830 C   0  0  0  0  0  0  0  0  0  0  0  0
   37.9750   27.2650   43.4000 N   0  0  0  0  0  0  0  0  0  0  0  0
   40.0830   27.2340   43.3460 H   0  0  0  0  0  0  0  0  0  0  0  0
   40.2650   29.2040   41.7960 H   0  0  0  0  0  0  0  0  0  0  0  0
   35.8370   27.5760   43.2350 H   0  0  0  0  0  0  0  0  0  0  0  0
   37.5200   29.2660   38.8770 O   0  0  0  0  0  0  0  0  0  0  0  0
   37.1280   29.1430   37.5740 C   0  0  0  0  0  0  0  0  0  0  0  0
   38.1120   28.5900   36.9380 O   0  0  0  0  0  0  0  0  0  0  0  0
   36.1380   29.3220   36.5050 C   0  0  0  0  0  3  0  0  0  0  0  0
   34.9240   28.7760   36.3610 C   0  0  0  0  0  3  0  0  0  0  0  0
   33.8660   28.9110   35.3340 C   0  0  0  0  0  0  0  0  0  0  0  0
   33.5950   27.8750   35.0070 H   0  0  0  0  0  0  0  0  0  0  0  0
   34.2760   29.4400   34.4740 H   0  0  0  0  0  0  0  0  0  0  0  0
   31.8810   30.4510   35.0600 C   0  0  0  0  0  3  0  0  0  0  0  0
   32.6430   29.5890   35.8210 C   0  0  0  0  0  0  0  0  0  0  0  0
   32.2310   29.3400   37.1360 C   0  0  0  0  0  0  0  0  0  0  0  0
   32.7870   28.6720   37.7860 H   0  0  0  0  0  0  0  0  0  0  0  0
   31.0870   29.9630   37.6200 C   0  0  0  0  0  0  0  0  0  0  0  0
   30.4560   29.9230   38.8110 N   0  0  0  0  0  0  0  0  0  0  0  0
   29.3660   30.7160   38.7930 C   0  0  0  0  0  0  0  0  0  0  0  0
   28.6690   30.8760   39.6180 H   0  0  0  0  0  0  0  0  0  0  0  0
   29.3310   31.2570   37.5460 N   0  0  0  0  0  0  0  0  0  0  0  0
   30.3730   30.8070   36.8230 C   0  0  0  0  0  0  0  0  0  0  0  0
   30.7420   31.0860   35.5080 C   0  0  0  0  0  3  0  0  0  0  0  0
   30.7490   29.3620   39.6590 H   0  0  0  0  0  0  0  0  0  0  0  0
  1  6  1  1  0  0  0
  1 16  1  0  0  0  0
  2  1  1  0  0  0  0
  2  8  1  0  0  0  0
  3  9  1  0  0  0  0
  3  2  1  0  0  0  0
  4  5  1  0  0  0  0
  4  3  1  0  0  0  0
  5 13  1  6  0  0  0
  5  1  1  0  0  0  0
  7  2  1  0  0  0  0
 10  3  1  0  0  0  0
 11  4  1  0  0  0  0
 12  4  1  0  0  0  0
 14 20  1  0  0  0  0
 14 19  1  0  0  0  0
 15 14  2  0  0  0  0
 16 15  1  0  0  0  0
 16 17  2  0  0  0  0
 17 18  1  0  0  0  0
 18 22  1  0  0  0  0
 18 19  2  0  0  0  0
 21 15  1  0  0  0  0
 23  5  1  0  0  0  0
 24 23  1  0  0  0  0
 25 24  2  0  0  0  0
 26 24  1  0  0  0  0
 27 26  2  0  0  0  0
 28 32  1  0  0  0  0
 28 27  1  0  0  0  0
 29 28  1  0  0  0  0
 30 28  1  0  0  0  0
 31 41  2  0  0  0  0
 31 32  1  0  0  0  0
 32 33  2  0  0  0  0
 33 35  1  0  0  0  0
 33 34  1  0  0  0  0
 35 36  1  0  0  0  0
 36 42  1  0  0  0  0
 37 36  1  0  0  0  0
 37 38  1  0  0  0  0
 39 37  2  0  0  0  0
 40 39  1  0  0  0  0
 40 35  2  0  0  0  0
 41 40  1  0  0  0  0
M  END
>  <minimizedAffinity>
-5.58102942

$$$$

 OpenBabel03242513533D

 42 45  0  0  1  0  0  0  0  0999 V2000
   39.1420   32.8270   39.2390 C   0  0  2  0  0  0  0  0  0  0  0  0
   40.4710   32.8750   38.5500 C   0  0  0  0  0  0  0  0  0  0  0  0
   41.0900   34.0510   39.2610 C   0  0  0  0  0  0  0  0  0  0  0  0
   40.6470   33.9250   40.6500 C   0  0  0  0  0  0  0  0  0  0  0  0
   39.5590   32.7430   40.6850 C   0  0  2  0  0  0  0  0  0  0  0  0
   38.6200   33.8010   39.1120 H   0  0  0  0  0  0  0  0  0  0  0  0
   41.0480   31.9590   38.7880 H   0  0  0  0  0  0  0  0  0  0  0  0
   40.3720   33.0370   37.4570 H   0  0  0  0  0  0  0  0  0  0  0  0
   40.6420   34.9810   38.8050 H   0  0  0  0  0  0  0  0  0  0  0  0
   42.1810   34.1190   39.0960 H   0  0  0  0  0  0  0  0  0  0  0  0
   40.1440   34.8310   41.0740 H   0  0  0  0  0  0  0  0  0  0  0  0
   41.4800   33.6110   41.2860 H   0  0  0  0  0  0  0  0  0  0  0  0
   38.7860   33.0610   41.4050 H   0  0  0  0  0  0  0  0  0  0  0  0
   36.3410   30.3540   38.9140 C   0  0  0  0  0  0  0  0  0  0  0  0
   37.0450   31.4780   39.3940 C   0  0  0  0  0  0  0  0  0  0  0  0
   38.2750   31.6890   38.8700 C   0  0  0  0  0  0  0  0  0  0  0  0
   38.7640   30.8010   37.9080 N   0  0  0  0  0  0  0  0  0  0  0  0
   38.0720   29.7450   37.4730 C   0  0  0  0  0  0  0  0  0  0  0  0
   36.8600   29.5210   37.9780 N   0  0  0  0  0  0  0  0  0  0  0  0
   35.3490   30.1480   39.3090 H   0  0  0  0  0  0  0  0  0  0  0  0
   36.6380   32.1400   40.1360 H   0  0  0  0  0  0  0  0  0  0  0  0
   38.5930   29.1600   36.7280 H   0  0  0  0  0  0  0  0  0  0  0  0
   40.2590   31.5900   40.9930 O   0  0  0  0  0  0  0  0  0  0  0  0
   40.0070   30.7330   42.0270 C   0  0  0  0  0  0  0  0  0  0  0  0
   40.6960   31.1570   43.0400 O   0  0  0  0  0  0  0  0  0  0  0  0
   39.3390   29.5520   42.5880 C   0  0  0  0  0  3  0  0  0  0  0  0
   38.0340   29.2720   42.6870 C   0  0  0  0  0  3  0  0  0  0  0  0
   37.2820   28.1120   43.2190 C   0  0  0  0  0  0  0  0  0  0  0  0
   36.2810   28.4940   43.5430 H   0  0  0  0  0  0  0  0  0  0  0  0
   37.8000   27.7300   44.0980 H   0  0  0  0  0  0  0  0  0  0  0  0
   37.1240   25.6840   42.5360 C   0  0  0  0  0  3  0  0  0  0  0  0
   37.0790   27.0290   42.2300 C   0  0  0  0  0  0  0  0  0  0  0  0
   36.8220   27.3890   40.9020 C   0  0  0  0  0  0  0  0  0  0  0  0
   36.7740   28.4290   40.5970 H   0  0  0  0  0  0  0  0  0  0  0  0
   36.6270   26.3920   39.9520 C   0  0  0  0  0  0  0  0  0  0  0  0
   36.3690   26.4250   38.6290 N   0  0  0  0  0  0  0  0  0  0  0  0
   36.2620   25.1740   38.1390 C   0  0  0  0  0  0  0  0  0  0  0  0
   36.0570   24.9000   37.1030 H   0  0  0  0  0  0  0  0  0  0  0  0
   36.4610   24.3490   39.2030 N   0  0  0  0  0  0  0  0  0  0  0  0
   36.6850   25.0790   40.3110 C   0  0  0  0  0  0  0  0  0  0  0  0
   36.9360   24.6700   41.6200 C   0  0  0  0  0  3  0  0  0  0  0  0
   36.2610   27.2910   38.0310 H   0  0  0  0  0  0  0  0  0  0  0  0
  1  6  1  6  0  0  0
  1  5  1  0  0  0  0
  2  7  1  0  0  0  0
  2  1  1  0  0  0  0
  2  3  1  0  0  0  0
  3  4  1  0  0  0  0
  4  5  1  0  0  0  0
  4 11  1  0  0  0  0
  4 12  1  0  0  0  0
  5 23  1  0  0  0  0
  5 13  1  1  0  0  0
  8  2  1  0  0  0  0
  9  3  1  0  0  0  0
 10  3  1  0  0  0  0
 14 20  1  0  0  0  0
 14 15  1  0  0  0  0
 15 21  1  0  0  0  0
 16  1  1  0  0  0  0
 16 15  2  0  0  0  0
 17 16  1  0  0  0  0
 18 17  2  0  0  0  0
 18 19  1  0  0  0  0
 19 14  2  0  0  0  0
 22 18  1  0  0  0  0
 23 24  1  0  0  0  0
 24 26  1  0  0  0  0
 24 25  2  0  0  0  0
 26 27  2  0  0  0  0
 27 28  1  0  0  0  0
 28 29  1  0  0  0  0
 28 30  1  0  0  0  0
 32 31  1  0  0  0  0
 32 28  1  0  0  0  0
 33 32  2  0  0  0  0
 34 33  1  0  0  0  0
 35 40  2  0  0  0  0
 35 33  1  0  0  0  0
 36 35  1  0  0  0  0
 37 36  1  0  0  0  0
 37 39  2  0  0  0  0
 38 37  1  0  0  0  0
 39 40  1  0  0  0  0
 40 41  1  0  0  0  0
 41 31  2  0  0  0  0
 42 36  1  0  0  0  0
M  END
>  <minimizedAffinity>
-5.42983818

$$$$

 OpenBabel03242513533D

 42 45  0  0  1  0  0  0  0  0999 V2000
   39.7970   24.6210   41.9650 C   0  0  2  0  0  0  0  0  0  0  0  0
   39.2020   24.6730   40.5920 C   0  0  0  0  0  0  0  0  0  0  0  0
   37.8130   24.1700   40.8910 C   0  0  0  0  0  0  0  0  0  0  0  0
   37.4750   24.7530   42.1900 C   0  0  0  0  0  0  0  0  0  0  0  0
   38.8120   25.4490   42.7490 C   0  0  2  0  0  0  0  0  0  0  0  0
   39.7320   23.5840   42.3610 H   0  0  0  0  0  0  0  0  0  0  0  0
   39.1440   25.7250   40.2500 H   0  0  0  0  0  0  0  0  0  0  0  0
   39.7470   24.0280   39.8730 H   0  0  0  0  0  0  0  0  0  0  0  0
   37.8860   23.0480   40.9890 H   0  0  0  0  0  0  0  0  0  0  0  0
   37.1050   24.3640   40.0650 H   0  0  0  0  0  0  0  0  0  0  0  0
   37.1490   24.0210   42.9710 H   0  0  0  0  0  0  0  0  0  0  0  0
   36.7310   25.5450   42.0670 H   0  0  0  0  0  0  0  0  0  0  0  0
   38.8200   25.2640   43.8360 H   0  0  0  0  0  0  0  0  0  0  0  0
   43.1270   25.8270   43.1990 C   0  0  0  0  0  0  0  0  0  0  0  0
   41.8180   25.3080   43.2640 C   0  0  0  0  0  0  0  0  0  0  0  0
   41.1640   25.1680   42.0870 C   0  0  0  0  0  0  0  0  0  0  0  0
   41.8110   25.5370   40.9040 N   0  0  0  0  0  0  0  0  0  0  0  0
   43.0530   26.0260   40.8750 C   0  0  0  0  0  0  0  0  0  0  0  0
   43.7120   26.1710   42.0240 N   0  0  0  0  0  0  0  0  0  0  0  0
   43.6880   25.9560   44.1220 H   0  0  0  0  0  0  0  0  0  0  0  0
   41.3510   25.0340   44.1930 H   0  0  0  0  0  0  0  0  0  0  0  0
   43.4060   26.2620   39.8800 H   0  0  0  0  0  0  0  0  0  0  0  0
   38.7520   26.7700   42.3430 O   0  0  0  0  0  0  0  0  0  0  0  0
   37.6740   27.6040   42.4340 C   0  0  0  0  0  0  0  0  0  0  0  0
   37.8240   28.2920   43.5210 O   0  0  0  0  0  0  0  0  0  0  0  0
   36.4060   28.1310   41.9140 C   0  0  0  0  0  3  0  0  0  0  0  0
   36.1260   28.6720   40.7210 C   0  0  0  0  0  3  0  0  0  0  0  0
   34.8870   29.2090   40.1160 C   0  0  0  0  0  0  0  0  0  0  0  0
   34.8180   30.2860   40.4150 H   0  0  0  0  0  0  0  0  0  0  0  0
   34.0310   28.6850   40.5430 H   0  0  0  0  0  0  0  0  0  0  0  0
   33.7420   28.7820   37.9040 C   0  0  0  0  0  3  0  0  0  0  0  0
   34.8580   29.1240   38.6380 C   0  0  0  0  0  0  0  0  0  0  0  0
   36.0370   29.4100   37.9390 C   0  0  0  0  0  0  0  0  0  0  0  0
   36.9500   29.6860   38.4580 H   0  0  0  0  0  0  0  0  0  0  0  0
   36.0400   29.3390   36.5510 C   0  0  0  0  0  0  0  0  0  0  0  0
   36.9960   29.5510   35.6240 N   0  0  0  0  0  0  0  0  0  0  0  0
   36.5030   29.3520   34.3850 C   0  0  0  0  0  0  0  0  0  0  0  0
   37.0510   29.4530   33.4470 H   0  0  0  0  0  0  0  0  0  0  0  0
   35.2000   29.0060   34.5640 N   0  0  0  0  0  0  0  0  0  0  0  0
   34.9070   28.9930   35.8780 C   0  0  0  0  0  0  0  0  0  0  0  0
   33.7090   28.7010   36.5280 C   0  0  0  0  0  3  0  0  0  0  0  0
   37.9980   29.8340   35.8090 H   0  0  0  0  0  0  0  0  0  0  0  0
  1 16  1  0  0  0  0
  1  6  1  1  0  0  0
  1  5  1  0  0  0  0
  2  3  1  0  0  0  0
  2  1  1  0  0  0  0
  3  9  1  0  0  0  0
  3  4  1  0  0  0  0
  4  5  1  0  0  0  0
  4 11  1  0  0  0  0
  5 13  1  1  0  0  0
  7  2  1  0  0  0  0
  8  2  1  0  0  0  0
 10  3  1  0  0  0  0
 12  4  1  0  0  0  0
 14 15  1  0  0  0  0
 14 20  1  0  0  0  0
 15 21  1  0  0  0  0
 16 15  2  0  0  0  0
 17 16  1  0  0  0  0
 18 17  2  0  0  0  0
 18 19  1  0  0  0  0
 19 14  2  0  0  0  0
 22 18  1  0  0  0  0
 23 24  1  0  0  0  0
 23  5  1  0  0  0  0
 24 25  2  0  0  0  0
 26 24  1  0  0  0  0
 27 26  2  0  0  0  0
 28 29  1  0  0  0  0
 28 30  1  0  0  0  0
 28 27  1  0  0  0  0
 31 32  1  0  0  0  0
 32 28  1  0  0  0  0
 33 34  1  0  0  0  0
 33 32  2  0  0  0  0
 35 33  1  0  0  0  0
 36 42  1  0  0  0  0
 36 35  1  0  0  0  0
 37 39  2  0  0  0  0
 37 36  1  0  0  0  0
 38 37  1  0  0  0  0
 39 40  1  0  0  0  0
 40 41  1  0  0  0  0
 40 35  2  0  0  0  0
 41 31  2  0  0  0  0
M  END
>  <minimizedAffinity>
-5.42193842

$$$$

 OpenBabel03242513533D

 42 45  0  0  1  0  0  0  0  0999 V2000
   37.6330   25.3050   39.6880 C   0  0  2  0  0  0  0  0  0  0  0  0
   36.5570   24.2980   39.9530 C   0  0  0  0  0  0  0  0  0  0  0  0
   37.3000   23.3550   40.8630 C   0  0  0  0  0  0  0  0  0  0  0  0
   38.1370   24.2210   41.6960 C   0  0  0  0  0  0  0  0  0  0  0  0
   38.0190   25.7040   41.0890 C   0  0  2  0  0  0  0  0  0  0  0  0
   38.5180   24.7980   39.2440 H   0  0  0  0  0  0  0  0  0  0  0  0
   35.7300   24.7750   40.5160 H   0  0  0  0  0  0  0  0  0  0  0  0
   36.2030   23.8080   39.0230 H   0  0  0  0  0  0  0  0  0  0  0  0
   37.9570   22.7160   40.2050 H   0  0  0  0  0  0  0  0  0  0  0  0
   36.6260   22.6620   41.3970 H   0  0  0  0  0  0  0  0  0  0  0  0
   39.2270   23.9670   41.7010 H   0  0  0  0  0  0  0  0  0  0  0  0
   37.7430   24.2600   42.7160 H   0  0  0  0  0  0  0  0  0  0  0  0
   39.0230   26.1510   41.1800 H   0  0  0  0  0  0  0  0  0  0  0  0
   37.5290   28.4510   37.6480 C   0  0  0  0  0  0  0  0  0  0  0  0
   38.0880   27.3990   38.4020 C   0  0  0  0  0  0  0  0  0  0  0  0
   37.2220   26.4830   38.8960 C   0  0  0  0  0  0  0  0  0  0  0  0
   35.8570   26.6310   38.6350 N   0  0  0  0  0  0  0  0  0  0  0  0
   35.3580   27.6390   37.9160 C   0  0  0  0  0  0  0  0  0  0  0  0
   36.1950   28.5500   37.4230 N   0  0  0  0  0  0  0  0  0  0  0  0
   38.1900   29.2080   37.2330 H   0  0  0  0  0  0  0  0  0  0  0  0
   39.1450   27.3160   38.5830 H   0  0  0  0  0  0  0  0  0  0  0  0
   34.2830   27.6070   37.8080 H   0  0  0  0  0  0  0  0  0  0  0  0
   36.9980   26.3220   41.7900 O   0  0  0  0  0  0  0  0  0  0  0  0
   36.9080   27.6490   42.1030 C   0  0  0  0  0  0  0  0  0  0  0  0
   36.4260   27.7180   43.3040 O   0  0  0  0  0  0  0  0  0  0  0  0
   37.0830   29.0660   41.7640 C   0  0  0  0  0  3  0  0  0  0  0  0
   36.3650   29.8490   40.9480 C   0  0  0  0  0  3  0  0  0  0  0  0
   36.4610   31.2750   40.5650 C   0  0  0  0  0  0  0  0  0  0  0  0
   36.1670   31.8750   41.4630 H   0  0  0  0  0  0  0  0  0  0  0  0
   35.7400   31.4760   39.7730 H   0  0  0  0  0  0  0  0  0  0  0  0
   38.8300   32.0320   41.0140 C   0  0  0  0  0  3  0  0  0  0  0  0
   37.8190   31.6890   40.1410 C   0  0  0  0  0  0  0  0  0  0  0  0
   38.0960   31.7340   38.7700 C   0  0  0  0  0  0  0  0  0  0  0  0
   37.3430   31.4760   38.0320 H   0  0  0  0  0  0  0  0  0  0  0  0
   39.3620   32.1190   38.3430 C   0  0  0  0  0  0  0  0  0  0  0  0
   39.9150   32.2550   37.1210 N   0  0  0  0  0  0  0  0  0  0  0  0
   41.1960   32.6620   37.2270 C   0  0  0  0  0  0  0  0  0  0  0  0
   41.8840   32.8530   36.4020 H   0  0  0  0  0  0  0  0  0  0  0  0
   41.4310   32.7750   38.5620 N   0  0  0  0  0  0  0  0  0  0  0  0
   40.3230   32.4490   39.2510 C   0  0  0  0  0  0  0  0  0  0  0  0
   40.0960   32.4190   40.6270 C   0  0  0  0  0  3  0  0  0  0  0  0
   39.4400   32.0790   36.1930 H   0  0  0  0  0  0  0  0  0  0  0  0
  1  6  1  6  0  0  0
  1  2  1  0  0  0  0
  1  5  1  0  0  0  0
  2  7  1  0  0  0  0
  2  3  1  0  0  0  0
  3 10  1  0  0  0  0
  3  4  1  0  0  0  0
  4 11  1  0  0  0  0
  4 12  1  0  0  0  0
  5 13  1  1  0  0  0
  5  4  1  0  0  0  0
  5 23  1  0  0  0  0
  8  2  1  0  0  0  0
  9  3  1  0  0  0  0
 14 15  1  0  0  0  0
 15 21  1  0  0  0  0
 15 16  2  0  0  0  0
 16  1  1  0  0  0  0
 17 16  1  0  0  0  0
 18 17  2  0  0  0  0
 19 14  2  0  0  0  0
 19 18  1  0  0  0  0
 20 14  1  0  0  0  0
 22 18  1  0  0  0  0
 23 24  1  0  0  0  0
 24 25  2  0  0  0  0
 26 24  1  0  0  0  0
 27 26  2  0  0  0  0
 28 27  1  0  0  0  0
 28 29  1  0  0  0  0
 30 28  1  0  0  0  0
 32 28  1  0  0  0  0
 32 31  2  0  0  0  0
 33 32  1  0  0  0  0
 34 33  1  0  0  0  0
 35 33  2  0  0  0  0
 35 40  1  0  0  0  0
 36 37  1  0  0  0  0
 36 35  1  0  0  0  0
 37 39  2  0  0  0  0
 38 37  1  0  0  0  0
 39 40  1  0  0  0  0
 40 41  2  0  0  0  0
 41 31  1  0  0  0  0
 42 36  1  0  0  0  0
M  END
>  <minimizedAffinity>
-5.41693974

$$$$

 OpenBabel03242513533D

 42 45  0  0  1  0  0  0  0  0999 V2000
   41.3630   31.9730   40.0090 C   0  0  2  0  0  0  0  0  0  0  0  0
   41.8960   32.9030   41.0540 C   0  0  0  0  0  0  0  0  0  0  0  0
   42.1930   34.1100   40.2020 C   0  0  0  0  0  0  0  0  0  0  0  0
   41.0990   34.1610   39.2310 C   0  0  0  0  0  0  0  0  0  0  0  0
   40.2580   32.8030   39.4070 C   0  0  2  0  0  0  0  0  0  0  0  0
   42.1260   31.8300   39.2120 H   0  0  0  0  0  0  0  0  0  0  0  0
   41.0930   33.1530   41.7760 H   0  0  0  0  0  0  0  0  0  0  0  0
   42.8000   32.4990   41.5550 H   0  0  0  0  0  0  0  0  0  0  0  0
   43.1630   33.9020   39.6660 H   0  0  0  0  0  0  0  0  0  0  0  0
   42.3590   35.0230   40.8030 H   0  0  0  0  0  0  0  0  0  0  0  0
   41.4160   34.2000   38.1580 H   0  0  0  0  0  0  0  0  0  0  0  0
   40.4220   34.9880   39.4650 H   0  0  0  0  0  0  0  0  0  0  0  0
   39.9550   32.4970   38.3920 H   0  0  0  0  0  0  0  0  0  0  0  0
   39.9510   28.5150   40.3490 C   0  0  0  0  0  0  0  0  0  0  0  0
   40.3900   29.6920   39.7070 C   0  0  0  0  0  0  0  0  0  0  0  0
   40.8450   30.6830   40.5090 C   0  0  0  0  0  0  0  0  0  0  0  0
   40.8530   30.4860   41.8930 N   0  0  0  0  0  0  0  0  0  0  0  0
   40.4310   29.3590   42.4710 C   0  0  0  0  0  0  0  0  0  0  0  0
   39.9790   28.3730   41.6980 N   0  0  0  0  0  0  0  0  0  0  0  0
   39.5770   27.6940   39.7420 H   0  0  0  0  0  0  0  0  0  0  0  0
   40.3690   29.8090   38.6390 H   0  0  0  0  0  0  0  0  0  0  0  0
   40.5040   29.3690   43.5490 H   0  0  0  0  0  0  0  0  0  0  0  0
   39.2400   33.0980   40.2960 O   0  0  0  0  0  0  0  0  0  0  0  0
   37.9390   32.6890   40.2150 C   0  0  0  0  0  0  0  0  0  0  0  0
   37.3170   33.5660   39.4920 O   0  0  0  0  0  0  0  0  0  0  0  0
   36.8650   31.7420   40.5350 C   0  0  0  0  0  3  0  0  0  0  0  0
   36.7280   30.4530   40.1960 C   0  0  0  0  0  3  0  0  0  0  0  0
   35.6960   29.4320   40.4840 C   0  0  0  0  0  0  0  0  0  0  0  0
   35.1900   29.1970   39.5140 H   0  0  0  0  0  0  0  0  0  0  0  0
   34.9540   29.8610   41.1570 H   0  0  0  0  0  0  0  0  0  0  0  0
   36.4660   27.9690   42.3960 C   0  0  0  0  0  3  0  0  0  0  0  0
   36.2400   28.1770   41.0510 C   0  0  0  0  0  0  0  0  0  0  0  0
   36.5430   27.1330   40.1690 C   0  0  0  0  0  0  0  0  0  0  0  0
   36.3880   27.2330   39.0990 H   0  0  0  0  0  0  0  0  0  0  0  0
   37.0550   25.9420   40.6730 C   0  0  0  0  0  0  0  0  0  0  0  0
   37.4340   24.7880   40.0890 N   0  0  0  0  0  0  0  0  0  0  0  0
   37.8720   23.9130   41.0160 C   0  0  0  0  0  0  0  0  0  0  0  0
   38.2390   22.9020   40.8300 H   0  0  0  0  0  0  0  0  0  0  0  0
   37.7550   24.5580   42.2080 N   0  0  0  0  0  0  0  0  0  0  0  0
   37.2600   25.7940   42.0120 C   0  0  0  0  0  0  0  0  0  0  0  0
   36.9730   26.8030   42.9300 C   0  0  0  0  0  3  0  0  0  0  0  0
   37.4050   24.5670   39.0550 H   0  0  0  0  0  0  0  0  0  0  0  0
  1  6  1  6  0  0  0
  1 16  1  0  0  0  0
  1  2  1  0  0  0  0
  2  8  1  0  0  0  0
  2  7  1  0  0  0  0
  3 10  1  0  0  0  0
  3  2  1  0  0  0  0
  4  5  1  0  0  0  0
  4 12  1  0  0  0  0
  4  3  1  0  0  0  0
  5 13  1  6  0  0  0
  5  1  1  0  0  0  0
  5 23  1  0  0  0  0
  9  3  1  0  0  0  0
 11  4  1  0  0  0  0
 14 19  1  0  0  0  0
 15 14  2  0  0  0  0
 15 16  1  0  0  0  0
 16 17  2  0  0  0  0
 17 18  1  0  0  0  0
 18 22  1  0  0  0  0
 19 18  2  0  0  0  0
 20 14  1  0  0  0  0
 21 15  1  0  0  0  0
 24 23  1  0  0  0  0
 24 26  1  0  0  0  0
 25 24  2  0  0  0  0
 27 28  1  0  0  0  0
 27 26  2  0  0  0  0
 28 32  1  0  0  0  0
 28 30  1  0  0  0  0
 29 28  1  0  0  0  0
 31 41  1  0  0  0  0
 32 31  2  0  0  0  0
 33 35  2  0  0  0  0
 33 32  1  0  0  0  0
 34 33  1  0  0  0  0
 35 40  1  0  0  0  0
 36 35  1  0  0  0  0
 36 37  1  0  0  0  0
 37 39  2  0  0  0  0
 38 37  1  0  0  0  0
 40 39  1  0  0  0  0
 40 41  2  0  0  0  0
 42 36  1  0  0  0  0
M  END
>  <minimizedAffinity>
-5.38858223

$$$$

 OpenBabel03242513533D

 42 45  0  0  1  0  0  0  0  0999 V2000
   36.3510   24.4890   38.1250 C   0  0  2  0  0  0  0  0  0  0  0  0
   34.8630   24.3260   38.1080 C   0  0  0  0  0  0  0  0  0  0  0  0
   34.7660   22.8270   37.9890 C   0  0  0  0  0  0  0  0  0  0  0  0
   35.8560   22.3150   38.8220 C   0  0  0  0  0  0  0  0  0  0  0  0
   36.7380   23.5820   39.2650 C   0  0  2  0  0  0  0  0  0  0  0  0
   36.7860   24.0460   37.2020 H   0  0  0  0  0  0  0  0  0  0  0  0
   34.4420   24.6440   39.0830 H   0  0  0  0  0  0  0  0  0  0  0  0
   34.3920   24.8560   37.2550 H   0  0  0  0  0  0  0  0  0  0  0  0
   34.9650   22.5720   36.9090 H   0  0  0  0  0  0  0  0  0  0  0  0
   33.7530   22.4490   38.2170 H   0  0  0  0  0  0  0  0  0  0  0  0
   36.5540   21.6060   38.3090 H   0  0  0  0  0  0  0  0  0  0  0  0
   35.4540   21.8690   39.7370 H   0  0  0  0  0  0  0  0  0  0  0  0
   37.7870   23.2440   39.2480 H   0  0  0  0  0  0  0  0  0  0  0  0
   36.6640   28.1920   38.6360 C   0  0  0  0  0  0  0  0  0  0  0  0
   36.0360   26.9540   38.3830 C   0  0  0  0  0  0  0  0  0  0  0  0
   36.8390   25.8650   38.3540 C   0  0  0  0  0  0  0  0  0  0  0  0
   38.2100   26.0270   38.5710 N   0  0  0  0  0  0  0  0  0  0  0  0
   38.7750   27.2130   38.8090 C   0  0  0  0  0  0  0  0  0  0  0  0
   38.0010   28.2970   38.8410 N   0  0  0  0  0  0  0  0  0  0  0  0
   36.0550   29.0920   38.6680 H   0  0  0  0  0  0  0  0  0  0  0  0
   34.9770   26.8670   38.2200 H   0  0  0  0  0  0  0  0  0  0  0  0
   39.8450   27.1650   38.9560 H   0  0  0  0  0  0  0  0  0  0  0  0
   36.2350   23.9870   40.4890 O   0  0  0  0  0  0  0  0  0  0  0  0
   36.9310   24.5850   41.5010 C   0  0  0  0  0  0  0  0  0  0  0  0
   37.8260   23.7350   41.8940 O   0  0  0  0  0  0  0  0  0  0  0  0
   37.1870   25.7270   42.3880 C   0  0  0  0  0  3  0  0  0  0  0  0
   36.8490   27.0150   42.2480 C   0  0  0  0  0  3  0  0  0  0  0  0
   37.0520   28.2160   43.0900 C   0  0  0  0  0  0  0  0  0  0  0  0
   37.7680   27.9270   43.9010 H   0  0  0  0  0  0  0  0  0  0  0  0
   36.1030   28.4830   43.5560 H   0  0  0  0  0  0  0  0  0  0  0  0
   38.9530   29.6750   42.2890 C   0  0  0  0  0  3  0  0  0  0  0  0
   37.6090   29.3740   42.3550 C   0  0  0  0  0  0  0  0  0  0  0  0
   36.7160   30.2170   41.6820 C   0  0  0  0  0  0  0  0  0  0  0  0
   35.6470   30.0350   41.6950 H   0  0  0  0  0  0  0  0  0  0  0  0
   37.2110   31.3120   40.9820 C   0  0  0  0  0  0  0  0  0  0  0  0
   36.6160   32.2800   40.2560 N   0  0  0  0  0  0  0  0  0  0  0  0
   37.5370   33.1350   39.7670 C   0  0  0  0  0  0  0  0  0  0  0  0
   37.3420   34.0100   39.1460 H   0  0  0  0  0  0  0  0  0  0  0  0
   38.7360   32.6700   40.2120 N   0  0  0  0  0  0  0  0  0  0  0  0
   38.5500   31.5620   40.9530 C   0  0  0  0  0  0  0  0  0  0  0  0
   39.4780   30.7520   41.6050 C   0  0  0  0  0  3  0  0  0  0  0  0
   35.5790   32.3840   40.0760 H   0  0  0  0  0  0  0  0  0  0  0  0
  1  6  1  6  0  0  0
  1 16  1  0  0  0  0
  1  5  1  0  0  0  0
  2  1  1  0  0  0  0
  2  7  1  0  0  0  0
  3  2  1  0  0  0  0
  3 10  1  0  0  0  0
  3  4  1  0  0  0  0
  4  5  1  0  0  0  0
  4 12  1  0  0  0  0
  5 13  1  1  0  0  0
  5 23  1  0  0  0  0
  8  2  1  0  0  0  0
  9  3  1  0  0  0  0
 11  4  1  0  0  0  0
 14 20  1  0  0  0  0
 14 19  1  0  0  0  0
 15 14  2  0  0  0  0
 16 15  1  0  0  0  0
 16 17  2  0  0  0  0
 17 18  1  0  0  0  0
 18 19  2  0  0  0  0
 18 22  1  0  0  0  0
 21 15  1  0  0  0  0
 23 24  1  0  0  0  0
 24 25  2  0  0  0  0
 24 26  1  0  0  0  0
 27 26  2  0  0  0  0
 27 28  1  0  0  0  0
 28 30  1  0  0  0  0
 28 29  1  0  0  0  0
 31 32  1  0  0  0  0
 32 28  1  0  0  0  0
 33 34  1  0  0  0  0
 33 32  2  0  0  0  0
 35 33  1  0  0  0  0
 36 35  1  0  0  0  0
 37 39  2  0  0  0  0
 37 36  1  0  0  0  0
 38 37  1  0  0  0  0
 39 40  1  0  0  0  0
 40 35  2  0  0  0  0
 40 41  1  0  0  0  0
 41 31  2  0  0  0  0
 42 36  1  0  0  0  0
M  END
>  <minimizedAffinity>
-5.29689264

$$$$
