
 OpenBabel03252500283D

 46 49  0  0  1  0  0  0  0  0999 V2000
   47.0570   33.2820   46.5710 O   0  0  0  0  0  0  0  0  0  0  0  0
   45.5950   33.0160   46.5090 P   0  0  1  0  0  0  0  0  0  0  0  0
   45.2870   31.8740   45.2950 O   0  0  0  0  0  0  0  0  0  0  0  0
   45.8480   32.0430   44.4930 H   0  0  0  0  0  0  0  0  0  0  0  0
   45.1470   32.4070   47.9740 O   0  0  0  0  0  0  0  0  0  0  0  0
   47.0670   30.9880   48.0250 C   0  0  2  0  0  0  0  0  0  0  0  0
   45.5930   31.1170   48.1110 C   0  0  2  0  0  0  0  0  0  0  0  0
   45.0480   30.2140   47.1200 C   0  0  0  0  0  0  0  0  0  0  0  0
   46.0030   29.2260   46.8360 O   0  0  0  0  0  0  0  0  0  0  0  0
   47.0320   29.4440   47.6870 C   0  0  0  0  0  0  0  0  0  0  0  0
   47.5620   31.2650   47.0800 H   0  0  0  0  0  0  0  0  0  0  0  0
   45.3890   30.8900   49.1970 H   0  0  0  0  0  0  0  0  0  0  0  0
   44.3420   30.4660   46.3600 H   0  0  0  0  0  0  0  0  0  0  0  0
   44.3490   29.5460   47.7410 H   0  0  0  0  0  0  0  0  0  0  0  0
   46.7460   29.0150   48.6870 H   0  0  0  0  0  0  0  0  0  0  0  0
   48.0230   29.0940   47.4070 H   0  0  0  0  0  0  0  0  0  0  0  0
   47.7690   31.1340   49.1600 O   0  0  0  0  0  0  0  0  0  0  0  0
   49.0440   31.3870   49.2480 C   0  0  0  0  0  0  0  0  0  0  0  0
   49.4030   32.3760   49.2230 H   0  0  0  0  0  0  0  0  0  0  0  0
   49.5200   31.0170   48.1840 H   0  0  0  0  0  0  0  0  0  0  0  0
   49.6600   30.4170   50.2450 C   0  0  0  0  0  0  0  0  0  0  0  0
   49.0680   29.4950   50.3200 H   0  0  0  0  0  0  0  0  0  0  0  0
   49.7930   30.9000   51.2410 H   0  0  0  0  0  0  0  0  0  0  0  0
   50.6850   30.1560   49.9060 H   0  0  0  0  0  0  0  0  0  0  0  0
   44.8580   34.5140   46.1620 O   0  0  0  0  0  0  0  0  0  0  0  0
   45.1970   36.9410   43.5390 C   0  0  0  0  0  0  0  0  0  0  0  0
   44.8500   36.2300   42.3670 C   0  0  0  0  0  0  0  0  0  0  0  0
   44.4960   34.8740   42.5410 C   0  0  0  0  0  0  0  0  0  0  0  0
   44.5080   34.3470   43.7810 N   0  0  0  0  0  0  0  0  0  0  0  0
   44.8440   35.0600   44.8670 C   0  0  0  0  0  0  0  0  0  0  0  0
   45.1840   36.3470   44.7310 N   0  0  0  0  0  0  0  0  0  0  0  0
   44.8540   36.6890   41.3910 H   0  0  0  0  0  0  0  0  0  0  0  0
   44.2320   34.3260   41.6590 H   0  0  0  0  0  0  0  0  0  0  0  0
   45.5490   38.2560   43.4260 O   0  0  0  0  0  0  0  0  0  0  0  0
   45.1790   38.9180   45.7190 C   0  0  0  0  0  3  0  0  0  0  0  0
   45.2380   39.2180   44.3680 C   0  0  0  0  0  0  0  0  0  0  0  0
   45.0000   40.4760   43.8310 C   0  0  0  0  0  0  0  0  0  0  0  0
   45.0490   40.6930   42.7880 H   0  0  0  0  0  0  0  0  0  0  0  0
   44.6800   41.4990   44.7160 C   0  0  0  0  0  0  0  0  0  0  0  0
   44.3980   42.8120   44.5080 N   0  0  0  0  0  0  0  0  0  0  0  0
   44.1590   43.3510   45.7230 C   0  0  0  0  0  0  0  0  0  0  0  0
   43.9040   44.3870   45.8980 H   0  0  0  0  0  0  0  0  0  0  0  0
   44.2860   42.4120   46.6720 N   0  0  0  0  0  0  0  0  0  0  0  0
   44.6090   41.2510   46.0710 C   0  0  0  0  0  0  0  0  0  0  0  0
   44.8560   39.9740   46.5710 C   0  0  0  0  0  3  0  0  0  0  0  0
   44.3900   43.2380   43.5650 H   0  0  0  0  0  0  0  0  0  0  0  0
  2  1  2  1  0  0  0
  2  5  1  0  0  0  0
  3  2  1  0  0  0  0
  4  3  1  0  0  0  0
  5  7  1  0  0  0  0
  6 11  1  6  0  0  0
  6  7  1  0  0  0  0
  6 17  1  0  0  0  0
  7 12  1  1  0  0  0
  8 14  1  0  0  0  0
  8  7  1  0  0  0  0
  9  8  1  0  0  0  0
  9 10  1  0  0  0  0
 10  6  1  0  0  0  0
 10 15  1  0  0  0  0
 13  8  1  0  0  0  0
 16 10  1  0  0  0  0
 17 18  1  0  0  0  0
 18 21  1  0  0  0  0
 19 18  1  0  0  0  0
 20 18  1  0  0  0  0
 21 22  1  0  0  0  0
 21 23  1  0  0  0  0
 24 21  1  0  0  0  0
 25  2  1  0  0  0  0
 26 31  1  0  0  0  0
 27 28  1  0  0  0  0
 27 26  2  0  0  0  0
 28 29  2  0  0  0  0
 29 30  1  0  0  0  0
 30 25  1  0  0  0  0
 31 30  2  0  0  0  0
 32 27  1  0  0  0  0
 33 28  1  0  0  0  0
 34 26  1  0  0  0  0
 34 36  1  0  0  0  0
 35 45  1  0  0  0  0
 36 35  2  0  0  0  0
 37 36  1  0  0  0  0
 37 39  2  0  0  0  0
 38 37  1  0  0  0  0
 39 44  1  0  0  0  0
 40 39  1  0  0  0  0
 40 41  1  0  0  0  0
 41 42  1  0  0  0  0
 41 43  2  0  0  0  0
 44 45  2  0  0  0  0
 44 43  1  0  0  0  0
 46 40  1  0  0  0  0
M  END
>  <minimizedAffinity>
-3.51180172

>  <minimizedRMSD>
0.781069934

$$$$
