
 OpenBabel03242521203D

 29 32  0  0  0  0  0  0  0  0999 V2000
   48.1580   33.8560   42.6950 C   0  0  0  0  0  0  0  0  0  0  0  0
   49.3790   34.4190   42.9010 C   0  0  0  0  0  0  0  0  0  0  0  0
   50.5380   33.9060   42.3850 C   0  0  0  0  0  0  0  0  0  0  0  0
   50.4200   32.7660   41.6280 N   0  0  0  0  0  0  0  0  0  0  0  0
   49.2160   32.2210   41.4310 C   0  0  0  0  0  0  0  0  0  0  0  0
   48.0640   32.7210   41.9370 N   0  0  0  0  0  0  0  0  0  0  0  0
   49.4930   35.3180   43.4950 H   0  0  0  0  0  0  0  0  0  0  0  0
   51.5120   34.3230   42.5290 H   0  0  0  0  0  0  0  0  0  0  0  0
   47.9170   30.5010   40.1910 C   0  0  0  0  0  3  0  0  0  0  0  0
   49.1260   31.0100   40.6210 C   0  0  0  0  0  0  0  0  0  0  0  0
   50.2470   30.3070   40.2400 C   0  0  0  0  0  0  0  0  0  0  0  0
   51.2310   30.6210   40.5230 H   0  0  0  0  0  0  0  0  0  0  0  0
   50.1650   29.1530   39.4690 C   0  0  0  0  0  0  0  0  0  0  0  0
   51.0310   28.2650   38.9460 N   0  0  0  0  0  0  0  0  0  0  0  0
   50.3460   27.3070   38.2590 C   0  0  0  0  0  0  0  0  0  0  0  0
   50.7650   26.4510   37.7240 H   0  0  0  0  0  0  0  0  0  0  0  0
   49.0120   27.5740   38.3350 N   0  0  0  0  0  0  0  0  0  0  0  0
   48.9100   28.6930   39.0680 C   0  0  0  0  0  0  0  0  0  0  0  0
   47.7600   29.3620   39.4250 C   0  0  0  0  0  3  0  0  0  0  0  0
   52.0700   28.3180   39.0610 H   0  0  0  0  0  0  0  0  0  0  0  0
   45.2780   34.3940   44.9060 C   0  0  0  0  0  0  0  0  0  0  0  0
   44.6380   35.4700   44.2830 C   0  0  0  0  0  0  0  0  0  0  0  0
   45.1810   36.0160   43.1110 C   0  0  0  0  0  0  0  0  0  0  0  0
   46.3310   35.4570   42.6300 N   0  0  0  0  0  0  0  0  0  0  0  0
   46.9320   34.4150   43.2500 C   0  0  0  0  0  0  0  0  0  0  0  0
   46.4080   33.8930   44.3760 N   0  0  0  0  0  0  0  0  0  0  0  0
   44.9200   33.9200   45.8100 H   0  0  0  0  0  0  0  0  0  0  0  0
   43.7270   35.8410   44.7480 H   0  0  0  0  0  0  0  0  0  0  0  0
   44.6870   36.8380   42.6420 H   0  0  0  0  0  0  0  0  0  0  0  0
  1  2  1  0  0  0  0
  1 25  1  0  0  0  0
  2  7  1  0  0  0  0
  3  8  1  0  0  0  0
  3  2  2  0  0  0  0
  4  3  1  0  0  0  0
  5  4  2  0  0  0  0
  5  6  1  0  0  0  0
  6  1  2  0  0  0  0
  9 10  1  0  0  0  0
 10  5  1  0  0  0  0
 11 12  1  0  0  0  0
 11 10  2  0  0  0  0
 13 11  1  0  0  0  0
 14 20  1  0  0  0  0
 14 13  1  0  0  0  0
 15 17  2  0  0  0  0
 15 14  1  0  0  0  0
 16 15  1  0  0  0  0
 17 18  1  0  0  0  0
 18 19  1  0  0  0  0
 18 13  2  0  0  0  0
 19  9  2  0  0  0  0
 21 27  1  0  0  0  0
 22 28  1  0  0  0  0
 22 21  2  0  0  0  0
 23 22  1  0  0  0  0
 24 23  2  0  0  0  0
 24 25  1  0  0  0  0
 25 26  2  0  0  0  0
 26 21  1  0  0  0  0
 29 23  1  0  0  0  0
M  END
>  <minimizedAffinity>
-4.0029273

>  <minimizedRMSD>
10.0382032

$$$$
