
 OpenBabel03252505493D

 25 27  0  0  0  0  0  0  0  0999 V2000
   45.7380   32.5130   47.2590 O   0  0  0  0  0  0  0  0  0  0  0  0
   46.9440   30.5690   46.7470 C   0  0  0  0  0  0  0  0  0  0  0  0
   46.7100   31.5910   47.6520 C   0  0  0  0  0  0  0  0  0  0  0  0
   47.3970   31.6830   48.8560 C   0  0  0  0  0  0  0  0  0  0  0  0
   47.1790   32.4960   49.5250 H   0  0  0  0  0  0  0  0  0  0  0  0
   48.3320   30.7350   49.1570 C   0  0  0  0  0  0  0  0  0  0  0  0
   49.1580   30.5230   50.2050 N   0  0  0  0  0  0  0  0  0  0  0  0
   49.8960   29.4110   49.9880 C   0  0  0  0  0  0  0  0  0  0  0  0
   50.6480   28.9780   50.6410 H   0  0  0  0  0  0  0  0  0  0  0  0
   49.5050   28.9400   48.7820 N   0  0  0  0  0  0  0  0  0  0  0  0
   48.5510   29.7240   48.2440 C   0  0  0  0  0  0  0  0  0  0  0  0
   47.8850   29.6030   47.0340 C   0  0  0  0  0  0  0  0  0  0  0  0
   49.2180   31.1390   51.0700 H   0  0  0  0  0  0  0  0  0  0  0  0
   45.0510   34.9940   44.7850 C   0  0  0  0  0  0  0  0  0  0  0  0
   45.9940   34.7330   43.7970 C   0  0  0  0  0  0  0  0  0  0  0  0
   46.8820   33.6670   44.0090 C   0  0  0  0  0  0  0  0  0  0  0  0
   46.7760   32.9540   45.1560 N   0  0  0  0  0  0  0  0  0  0  0  0
   45.8350   33.2500   46.0930 C   0  0  0  0  0  0  0  0  0  0  0  0
   44.9760   34.2580   45.9180 N   0  0  0  0  0  0  0  0  0  0  0  0
   44.3150   35.7990   44.7180 H   0  0  0  0  0  0  0  0  0  0  0  0
   47.5960   33.4830   43.2390 H   0  0  0  0  0  0  0  0  0  0  0  0
   45.9850   35.6090   42.5870 C   0  0  0  0  0  0  0  0  0  0  0  0
   45.4200   36.7980   42.9800 F   0  0  0  0  0  0  0  0  0  0  0  0
   45.1920   34.9820   41.6350 F   0  0  0  0  0  0  0  0  0  0  0  0
   47.2740   35.7210   42.1240 F   0  0  0  0  0  0  0  0  0  0  0  0
  1  3  1  0  0  0  0
  2 12  2  0  0  0  0
  2  3  1  0  0  0  0
  3  4  2  0  0  0  0
  4  6  1  0  0  0  0
  4  5  1  0  0  0  0
  6  7  1  0  0  0  0
  7 13  1  0  0  0  0
  8  7  1  0  0  0  0
  8  9  1  0  0  0  0
 10  8  2  0  0  0  0
 11 10  1  0  0  0  0
 11  6  2  0  0  0  0
 12 11  1  0  0  0  0
 14 19  1  0  0  0  0
 15 16  1  0  0  0  0
 15 14  2  0  0  0  0
 16 17  2  0  0  0  0
 17 18  1  0  0  0  0
 18  1  1  0  0  0  0
 19 18  2  0  0  0  0
 20 14  1  0  0  0  0
 21 16  1  0  0  0  0
 22 23  1  0  0  0  0
 22 15  1  0  0  0  0
 24 22  1  0  0  0  0
 25 22  1  0  0  0  0
M  END
>  <minimizedAffinity>
-5.66346359

>  <minimizedRMSD>
0.455053329

$$$$
