
 OpenBabel03252506373D

 47 51  0  0  1  0  0  0  0  0999 V2000
   46.7040   30.0190   46.5300 S   0  0  0  0  0  0  0  0  0  0  0  0
   44.5220   35.4890   45.1460 C   0  0  0  0  0  0  0  0  0  0  0  0
   45.1860   35.5000   43.9010 C   0  0  0  0  0  0  0  0  0  0  0  0
   46.1180   34.5540   43.6410 C   0  0  0  0  0  0  0  0  0  0  0  0
   46.3590   33.6390   44.6120 N   0  0  0  0  0  0  0  0  0  0  0  0
   45.7330   33.6310   45.7790 C   0  0  0  0  0  0  0  0  0  0  0  0
   44.8090   34.5510   46.0660 N   0  0  0  0  0  0  0  0  0  0  0  0
   46.0710   32.6130   46.7370 N   0  0  0  0  0  0  0  0  0  0  0  0
   45.3290   32.3460   47.9140 C   0  0  0  0  0  0  0  0  0  0  0  0
   46.3990   32.0000   48.9310 C   0  0  0  0  0  0  0  0  0  0  0  0
   47.6880   31.9170   48.1680 C   0  0  0  0  0  0  0  0  0  0  0  0
   47.1980   31.7150   46.7350 C   0  0  1  0  0  0  0  0  0  0  0  0
   43.7830   36.2550   45.3310 H   0  0  0  0  0  0  0  0  0  0  0  0
   46.6300   34.5440   42.7090 H   0  0  0  0  0  0  0  0  0  0  0  0
   44.5360   31.6800   48.0040 H   0  0  0  0  0  0  0  0  0  0  0  0
   44.9420   33.3490   48.2810 H   0  0  0  0  0  0  0  0  0  0  0  0
   46.4990   32.7080   49.7520 H   0  0  0  0  0  0  0  0  0  0  0  0
   46.1640   31.0080   49.4090 H   0  0  0  0  0  0  0  0  0  0  0  0
   48.2720   31.0170   48.4740 H   0  0  0  0  0  0  0  0  0  0  0  0
   48.2680   32.8400   48.2930 H   0  0  0  0  0  0  0  0  0  0  0  0
   48.0350   32.0280   46.0860 H   0  0  0  0  0  0  0  0  0  0  0  0
   44.8190   36.5380   42.9760 N   0  0  0  0  0  0  0  0  0  0  0  0
   45.6090   36.8430   42.3750 H   0  0  0  0  0  0  0  0  0  0  0  0
   43.8760   36.9540   42.8980 H   0  0  0  0  0  0  0  0  0  0  0  0
   45.5010   30.5930   43.4740 O   0  0  0  0  0  0  0  0  0  0  0  0
   44.9360   30.0070   44.4110 C   0  0  0  0  0  0  0  0  0  0  0  0
   45.1210   29.7290   45.8550 C   0  0  1  0  0  0  0  0  0  0  0  0
   44.6170   28.3110   45.9690 C   0  0  0  0  0  0  0  0  0  0  0  0
   43.2590   28.5200   45.2900 C   0  0  0  0  0  0  0  0  0  0  0  0
   43.6870   29.3350   44.1600 N   0  0  0  0  0  0  0  0  0  0  0  0
   44.2470   30.3000   46.2750 H   0  0  0  0  0  0  0  0  0  0  0  0
   45.1740   27.6100   45.3200 H   0  0  0  0  0  0  0  0  0  0  0  0
   44.4770   27.9780   47.0030 H   0  0  0  0  0  0  0  0  0  0  0  0
   42.9100   27.5350   44.9480 H   0  0  0  0  0  0  0  0  0  0  0  0
   42.5480   29.0480   45.9450 H   0  0  0  0  0  0  0  0  0  0  0  0
   43.0480   28.2790   42.1450 C   0  0  0  0  0  3  0  0  0  0  0  0
   42.8250   29.3460   43.0000 C   0  0  0  0  0  0  0  0  0  0  0  0
   41.8700   30.2830   42.7220 C   0  0  0  0  0  0  0  0  0  0  0  0
   41.7590   31.0830   43.4410 H   0  0  0  0  0  0  0  0  0  0  0  0
   41.1110   30.1720   41.5690 C   0  0  0  0  0  0  0  0  0  0  0  0
   40.1280   30.9520   41.0810 N   0  0  0  0  0  0  0  0  0  0  0  0
   39.7290   30.3750   39.9100 C   0  0  0  0  0  0  0  0  0  0  0  0
   38.9430   30.7360   39.2350 H   0  0  0  0  0  0  0  0  0  0  0  0
   40.4320   29.2650   39.6580 N   0  0  0  0  0  0  0  0  0  0  0  0
   41.2980   29.1140   40.6720 C   0  0  0  0  0  0  0  0  0  0  0  0
   42.2850   28.1790   40.9970 C   0  0  0  0  0  3  0  0  0  0  0  0
   39.7440   31.8250   41.5080 H   0  0  0  0  0  0  0  0  0  0  0  0
  1 12  1  0  0  0  0
  2 13  1  0  0  0  0
  2  7  1  0  0  0  0
  3  2  2  0  0  0  0
  4  3  1  0  0  0  0
  4  5  2  0  0  0  0
  5  6  1  0  0  0  0
  6  7  2  0  0  0  0
  6  8  1  0  0  0  0
  8  9  1  0  0  0  0
  9 15  1  0  0  0  0
  9 16  1  0  0  0  0
  9 10  1  0  0  0  0
 10 18  1  0  0  0  0
 10 17  1  0  0  0  0
 11 20  1  0  0  0  0
 11 19  1  0  0  0  0
 11 10  1  0  0  0  0
 12 21  1  6  0  0  0
 12  8  1  0  0  0  0
 12 11  1  0  0  0  0
 14  4  1  0  0  0  0
 22  3  1  0  0  0  0
 23 22  1  0  0  0  0
 24 22  1  0  0  0  0
 25 26  2  0  0  0  0
 26 27  1  0  0  0  0
 27 28  1  0  0  0  0
 27 31  1  1  0  0  0
 27  1  1  0  0  0  0
 28 33  1  0  0  0  0
 29 35  1  0  0  0  0
 29 28  1  0  0  0  0
 30 26  1  0  0  0  0
 30 29  1  0  0  0  0
 32 28  1  0  0  0  0
 34 29  1  0  0  0  0
 36 37  1  0  0  0  0
 37 30  1  0  0  0  0
 38 37  2  0  0  0  0
 38 39  1  0  0  0  0
 40 38  1  0  0  0  0
 41 47  1  0  0  0  0
 41 40  1  0  0  0  0
 42 41  1  0  0  0  0
 43 42  1  0  0  0  0
 44 42  2  0  0  0  0
 44 45  1  0  0  0  0
 45 46  1  0  0  0  0
 45 40  2  0  0  0  0
 46 36  2  0  0  0  0
M  END
>  <minimizedAffinity>
-5.65449715

>  <minimizedRMSD>
0.262150586

$$$$
