
 OpenBabel03252504333D

 43 46  0  0  0  0  0  0  0  0999 V2000
   41.4840   35.4430   41.5730 C   0  0  0  0  0  0  0  0  0  0  0  0
   40.8900   36.3620   41.2160 H   0  0  0  0  0  0  0  0  0  0  0  0
   41.3460   35.3980   42.6440 H   0  0  0  0  0  0  0  0  0  0  0  0
   41.1400   33.0550   41.1900 C   0  0  0  0  0  0  0  0  0  0  0  0
   40.6540   34.3370   40.9720 C   0  0  0  0  0  0  0  0  0  0  0  0
   39.4950   34.4850   40.2710 C   0  0  0  0  0  0  0  0  0  0  0  0
   38.9130   33.3660   39.8430 N   0  0  0  0  0  0  0  0  0  0  0  0
   39.3600   32.1430   40.0410 C   0  0  0  0  0  0  0  0  0  0  0  0
   40.5420   31.9500   40.7530 N   0  0  0  0  0  0  0  0  0  0  0  0
   42.0510   32.8360   41.7330 H   0  0  0  0  0  0  0  0  0  0  0  0
   39.1610   35.4970   40.1300 H   0  0  0  0  0  0  0  0  0  0  0  0
   37.7640   30.2800   40.3330 C   0  0  0  0  0  3  0  0  0  0  0  0
   38.6580   30.9660   39.5370 C   0  0  0  0  0  0  0  0  0  0  0  0
   38.9450   30.5940   38.2380 C   0  0  0  0  0  0  0  0  0  0  0  0
   39.6480   31.1400   37.6250 H   0  0  0  0  0  0  0  0  0  0  0  0
   38.3080   29.4880   37.7150 C   0  0  0  0  0  0  0  0  0  0  0  0
   38.3840   28.8960   36.5000 N   0  0  0  0  0  0  0  0  0  0  0  0
   37.5410   27.8340   36.5130 C   0  0  0  0  0  0  0  0  0  0  0  0
   37.3200   27.1120   35.7360 H   0  0  0  0  0  0  0  0  0  0  0  0
   36.9470   27.7610   37.7170 N   0  0  0  0  0  0  0  0  0  0  0  0
   37.4000   28.7820   38.5010 C   0  0  0  0  0  0  0  0  0  0  0  0
   37.1310   29.1760   39.8000 C   0  0  0  0  0  3  0  0  0  0  0  0
   38.9690   29.1720   35.6740 H   0  0  0  0  0  0  0  0  0  0  0  0
   42.7210   35.5630   41.0300 O   0  0  0  0  0  0  0  0  0  0  0  0
   43.9620   35.4210   41.6270 C   0  0  0  0  0  2  0  0  0  0  0  0
   43.9660   35.5920   42.9610 C   0  0  0  0  0  2  0  0  0  0  0  0
   45.1920   35.4950   43.8380 C   0  0  0  0  0  0  0  0  0  0  0  0
   45.4680   36.4830   44.2420 H   0  0  0  0  0  0  0  0  0  0  0  0
   46.0180   35.1870   43.1750 H   0  0  0  0  0  0  0  0  0  0  0  0
   44.9660   34.5300   44.7880 O   0  0  0  0  0  0  0  0  0  0  0  0
   45.5280   32.4460   43.2280 O   0  0  0  0  0  0  0  0  0  0  0  0
   45.9290   33.1770   44.4890 P   0  0  1  0  0  0  0  0  0  0  0  0
   47.5540   33.6580   44.2930 O   0  0  0  0  0  0  0  0  0  0  0  0
   47.7120   34.4320   44.8990 H   0  0  0  0  0  0  0  0  0  0  0  0
   45.8810   32.1290   45.8070 O   0  0  0  0  0  0  0  0  0  0  0  0
   45.8770   32.7950   47.0140 C   0  0  0  0  0  0  0  0  0  0  0  0
   46.6990   32.2600   48.1460 C   0  0  0  0  0  0  0  0  0  0  0  0
   45.1920   32.0770   48.1500 C   0  0  0  0  0  0  0  0  0  0  0  0
   45.7160   33.8840   46.9500 H   0  0  0  0  0  0  0  0  0  0  0  0
   47.1260   33.0350   48.8140 H   0  0  0  0  0  0  0  0  0  0  0  0
   47.2930   31.3700   47.9460 H   0  0  0  0  0  0  0  0  0  0  0  0
   44.8280   31.0470   48.0010 H   0  0  0  0  0  0  0  0  0  0  0  0
   44.6420   32.6550   48.9160 H   0  0  0  0  0  0  0  0  0  0  0  0
  1  3  1  0  0  0  0
  2  1  1  0  0  0  0
  4 10  1  0  0  0  0
  5  4  1  0  0  0  0
  5  1  1  0  0  0  0
  6  5  2  0  0  0  0
  7  8  2  0  0  0  0
  7  6  1  0  0  0  0
  8  9  1  0  0  0  0
  9  4  2  0  0  0  0
 11  6  1  0  0  0  0
 13  8  1  0  0  0  0
 13 12  2  0  0  0  0
 14 13  1  0  0  0  0
 15 14  1  0  0  0  0
 16 14  2  0  0  0  0
 16 21  1  0  0  0  0
 17 18  1  0  0  0  0
 17 16  1  0  0  0  0
 18 20  2  0  0  0  0
 19 18  1  0  0  0  0
 20 21  1  0  0  0  0
 21 22  2  0  0  0  0
 22 12  1  0  0  0  0
 23 17  1  0  0  0  0
 24  1  1  0  0  0  0
 24 25  1  0  0  0  0
 25 26  1  0  0  0  0
 26 27  1  0  0  0  0
 27 28  1  0  0  0  0
 27 30  1  0  0  0  0
 29 27  1  0  0  0  0
 32 31  2  6  0  0  0
 32 30  1  0  0  0  0
 32 35  1  0  0  0  0
 33 32  1  0  0  0  0
 33 34  1  0  0  0  0
 35 36  1  0  0  0  0
 36 37  1  0  0  0  0
 36 38  1  0  0  0  0
 37 38  1  0  0  0  0
 37 40  1  0  0  0  0
 38 43  1  0  0  0  0
 39 36  1  0  0  0  0
 41 37  1  0  0  0  0
 42 38  1  0  0  0  0
M  END
>  <minimizedAffinity>
-5.17874432

>  <minimizedRMSD>
1.47479808

$$$$
