
 OpenBabel03242520263D

 41 44  0  0  0  0  0  0  0  0999 V2000
   45.0260   35.5190   43.4830 C   0  0  0  0  0  0  0  0  0  0  0  0
   46.0510   34.5260   43.5180 C   0  0  0  0  0  0  0  0  0  0  0  0
   46.2870   33.8780   44.7170 C   0  0  0  0  0  0  0  0  0  0  0  0
   45.5370   34.2120   45.8090 N   0  0  0  0  0  0  0  0  0  0  0  0
   44.5770   35.1490   45.7520 C   0  0  0  0  0  0  0  0  0  0  0  0
   44.3270   35.7930   44.6050 N   0  0  0  0  0  0  0  0  0  0  0  0
   44.8120   36.0450   42.5640 H   0  0  0  0  0  0  0  0  0  0  0  0
   44.0210   35.3610   46.6640 H   0  0  0  0  0  0  0  0  0  0  0  0
   46.7310   34.3050   42.2970 N   0  0  0  0  0  0  0  0  0  0  0  0
   47.8410   35.1190   41.8410 C   0  0  0  0  0  0  0  0  0  0  0  0
   48.4050   34.5430   40.5860 C   0  0  0  0  0  0  0  0  0  0  0  0
   47.4100   34.2990   39.5760 N   0  0  0  0  0  0  0  0  0  0  0  0
   46.2650   33.5810   40.0220 C   0  0  0  0  0  0  0  0  0  0  0  0
   46.2790   33.1910   41.4630 C   0  0  0  0  0  0  0  0  0  0  0  0
   48.6410   35.0800   42.6260 H   0  0  0  0  0  0  0  0  0  0  0  0
   47.5970   36.1680   41.6600 H   0  0  0  0  0  0  0  0  0  0  0  0
   48.8900   33.5650   40.8320 H   0  0  0  0  0  0  0  0  0  0  0  0
   49.1540   35.2260   40.1880 H   0  0  0  0  0  0  0  0  0  0  0  0
   47.8700   33.9540   38.7160 H   0  0  0  0  0  0  0  0  0  0  0  0
   45.3650   34.2340   39.8770 H   0  0  0  0  0  0  0  0  0  0  0  0
   46.0590   32.6540   39.4240 H   0  0  0  0  0  0  0  0  0  0  0  0
   45.2650   32.8540   41.7370 H   0  0  0  0  0  0  0  0  0  0  0  0
   47.0150   32.3730   41.6000 H   0  0  0  0  0  0  0  0  0  0  0  0
   47.2880   32.9190   44.7220 O   0  0  0  0  0  0  0  0  0  0  0  0
   45.4900   31.0090   44.4420 O   0  0  0  0  0  0  0  0  0  0  0  0
   46.8750   31.2780   45.0640 P   0  0  1  0  0  0  0  0  0  0  0  0
   48.0290   30.2980   44.3840 O   0  0  0  0  0  0  0  0  0  0  0  0
   48.9050   30.7670   44.3340 H   0  0  0  0  0  0  0  0  0  0  0  0
   46.7300   31.1200   46.7310 O   0  0  0  0  0  0  0  0  0  0  0  0
   48.1030   29.2810   47.3120 C   0  0  0  0  0  0  0  0  0  0  0  0
   47.6540   30.5640   47.5830 C   0  0  0  0  0  0  0  0  0  0  0  0
   48.1090   31.2780   48.6740 C   0  0  0  0  0  0  0  0  0  0  0  0
   47.7850   32.2740   48.9170 H   0  0  0  0  0  0  0  0  0  0  0  0
   49.0380   30.7020   49.5200 C   0  0  0  0  0  0  0  0  0  0  0  0
   49.6400   31.1630   50.6330 N   0  0  0  0  0  0  0  0  0  0  0  0
   50.4500   30.1660   51.0370 C   0  0  0  0  0  0  0  0  0  0  0  0
   51.0740   30.2380   51.9170 H   0  0  0  0  0  0  0  0  0  0  0  0
   50.3560   29.1120   50.1980 N   0  0  0  0  0  0  0  0  0  0  0  0
   49.4690   29.4260   49.2290 C   0  0  0  0  0  0  0  0  0  0  0  0
   49.0420   28.6780   48.1550 C   0  0  0  0  0  0  0  0  0  0  0  0
   49.4820   32.1030   51.0610 H   0  0  0  0  0  0  0  0  0  0  0  0
  1  2  2  0  0  0  0
  1  6  1  0  0  0  0
  2  3  1  0  0  0  0
  3 24  1  0  0  0  0
  3  4  2  0  0  0  0
  5  4  1  0  0  0  0
  5  8  1  0  0  0  0
  6  5  2  0  0  0  0
  7  1  1  0  0  0  0
  9  2  1  0  0  0  0
 10  9  1  0  0  0  0
 10 15  1  0  0  0  0
 11 17  1  0  0  0  0
 11 10  1  0  0  0  0
 12 13  1  0  0  0  0
 12 11  1  0  0  0  0
 13 14  1  0  0  0  0
 14 23  1  0  0  0  0
 14 22  1  0  0  0  0
 14  9  1  0  0  0  0
 16 10  1  0  0  0  0
 18 11  1  0  0  0  0
 19 12  1  0  0  0  0
 20 13  1  0  0  0  0
 21 13  1  0  0  0  0
 24 26  1  0  0  0  0
 26 25  2  6  0  0  0
 26 29  1  0  0  0  0
 27 26  1  0  0  0  0
 28 27  1  0  0  0  0
 29 31  1  0  0  0  0
 30 31  2  0  0  0  0
 30 40  1  0  0  0  0
 31 32  1  0  0  0  0
 32 33  1  0  0  0  0
 32 34  2  0  0  0  0
 34 35  1  0  0  0  0
 35 36  1  0  0  0  0
 35 41  1  0  0  0  0
 36 37  1  0  0  0  0
 38 36  2  0  0  0  0
 39 34  1  0  0  0  0
 39 38  1  0  0  0  0
 40 39  2  0  0  0  0
M  END
>  <minimizedAffinity>
-5.81104565

>  <minimizedRMSD>
2.02822542

$$$$
