
 OpenBabel03252509293D

 24 26  0  0  0  0  0  0  0  0999 V2000
   47.8290   35.2040   41.7920 C   0  0  0  0  0  0  0  0  0  0  0  0
   47.9070   36.2880   41.6250 H   0  0  0  0  0  0  0  0  0  0  0  0
   48.8450   34.8760   42.0980 H   0  0  0  0  0  0  0  0  0  0  0  0
   46.3630   33.7790   40.4280 C   0  0  0  0  0  3  0  0  0  0  0  0
   47.5300   34.5080   40.5110 C   0  0  0  0  0  0  0  0  0  0  0  0
   48.3860   34.5810   39.4300 C   0  0  0  0  0  0  0  0  0  0  0  0
   49.3140   35.1560   39.4840 H   0  0  0  0  0  0  0  0  0  0  0  0
   48.0890   33.9270   38.2490 C   0  0  0  0  0  0  0  0  0  0  0  0
   48.7210   33.8190   37.0480 N   0  0  0  0  0  0  0  0  0  0  0  0
   47.9220   33.0290   36.2740 C   0  0  0  0  0  0  0  0  0  0  0  0
   48.1620   32.7610   35.2520 H   0  0  0  0  0  0  0  0  0  0  0  0
   46.8220   32.6560   36.9700 N   0  0  0  0  0  0  0  0  0  0  0  0
   46.9280   33.2120   38.1890 C   0  0  0  0  0  0  0  0  0  0  0  0
   46.0370   33.1100   39.2510 C   0  0  0  0  0  3  0  0  0  0  0  0
   49.6340   34.2590   36.7910 H   0  0  0  0  0  0  0  0  0  0  0  0
   44.8560   35.3360   44.0230 C   0  0  0  0  0  0  0  0  0  0  0  0
   45.7590   35.6410   42.9810 C   0  0  0  0  0  0  0  0  0  0  0  0
   46.9060   34.8740   42.8760 C   0  0  0  0  0  0  0  0  0  0  0  0
   47.1140   33.8670   43.7730 N   0  0  0  0  0  0  0  0  0  0  0  0
   46.2250   33.6080   44.7560 C   0  0  0  0  0  0  0  0  0  0  0  0
   45.1090   34.3300   44.8830 N   0  0  0  0  0  0  0  0  0  0  0  0
   43.9450   35.9050   44.1490 H   0  0  0  0  0  0  0  0  0  0  0  0
   45.5000   36.4530   42.3310 H   0  0  0  0  0  0  0  0  0  0  0  0
   46.4450   32.7830   45.4500 H   0  0  0  0  0  0  0  0  0  0  0  0
  1  3  1  0  0  0  0
  1 18  1  0  0  0  0
  2  1  1  0  0  0  0
  4  5  1  0  0  0  0
  5  1  1  0  0  0  0
  6  7  1  0  0  0  0
  6  5  2  0  0  0  0
  8  6  1  0  0  0  0
  9  8  1  0  0  0  0
 10 12  2  0  0  0  0
 10  9  1  0  0  0  0
 11 10  1  0  0  0  0
 12 13  1  0  0  0  0
 13  8  2  0  0  0  0
 13 14  1  0  0  0  0
 14  4  2  0  0  0  0
 15  9  1  0  0  0  0
 16 22  1  0  0  0  0
 16 21  1  0  0  0  0
 17 16  2  0  0  0  0
 18 17  1  0  0  0  0
 18 19  2  0  0  0  0
 19 20  1  0  0  0  0
 20 21  2  0  0  0  0
 20 24  1  0  0  0  0
 23 17  1  0  0  0  0
M  END
>  <minimizedAffinity>
-4.75475979

>  <minimizedRMSD>
2.45309639

$$$$
