
 OpenBabel03252509043D

 51 54  0  0  1  0  0  0  0  0999 V2000
   47.0500   34.3560   43.2480 N   0  0  0  0  0  0  0  0  0  0  0  0
   46.7000   34.8950   41.9900 C   0  0  0  0  0  0  0  0  0  0  0  0
   45.2670   34.6240   41.5700 C   0  0  0  0  0  0  0  0  0  0  0  0
   44.2870   34.6410   42.7110 C   0  0  0  0  0  0  0  0  0  0  0  0
   44.9570   34.9640   44.0260 C   0  0  0  0  0  0  0  0  0  0  0  0
   46.1090   33.8900   44.1320 C   0  0  2  0  0  0  0  0  0  0  0  0
   47.3260   34.6030   41.1410 H   0  0  0  0  0  0  0  0  0  0  0  0
   46.7930   36.0160   42.0450 H   0  0  0  0  0  0  0  0  0  0  0  0
   45.1800   33.6420   41.0380 H   0  0  0  0  0  0  0  0  0  0  0  0
   44.9520   35.3850   40.8230 H   0  0  0  0  0  0  0  0  0  0  0  0
   43.4840   35.4200   42.5600 H   0  0  0  0  0  0  0  0  0  0  0  0
   43.7410   33.6840   42.8330 H   0  0  0  0  0  0  0  0  0  0  0  0
   45.3890   35.9740   44.0540 H   0  0  0  0  0  0  0  0  0  0  0  0
   44.2760   34.7220   44.8560 H   0  0  0  0  0  0  0  0  0  0  0  0
   45.6290   32.9170   43.9180 H   0  0  0  0  0  0  0  0  0  0  0  0
   48.3870   33.8170   43.3090 C   0  0  0  0  0  0  0  0  0  0  0  0
   48.9810   34.3790   42.5560 H   0  0  0  0  0  0  0  0  0  0  0  0
   48.9050   34.0080   44.2790 H   0  0  0  0  0  0  0  0  0  0  0  0
   48.3160   32.3750   42.9240 C   0  0  0  0  0  0  0  0  0  0  0  0
   48.5280   31.7270   43.7740 H   0  0  0  0  0  0  0  0  0  0  0  0
   47.3010   32.0930   42.5400 H   0  0  0  0  0  0  0  0  0  0  0  0
   51.5370   31.8990   41.0500 C   0  0  0  0  0  0  0  0  0  0  0  0
   50.6200   32.1440   42.0890 C   0  0  0  0  0  0  0  0  0  0  0  0
   49.2740   32.1150   41.8180 C   0  0  0  0  0  0  0  0  0  0  0  0
   48.9010   31.8520   40.5630 N   0  0  0  0  0  0  0  0  0  0  0  0
   49.7760   31.6190   39.5760 C   0  0  0  0  0  0  0  0  0  0  0  0
   51.0940   31.6380   39.7950 N   0  0  0  0  0  0  0  0  0  0  0  0
   52.6010   31.9200   41.2490 H   0  0  0  0  0  0  0  0  0  0  0  0
   51.0190   32.3490   43.0750 H   0  0  0  0  0  0  0  0  0  0  0  0
   49.3030   31.4230   38.6210 H   0  0  0  0  0  0  0  0  0  0  0  0
   46.4850   34.0340   45.4540 O   0  0  0  0  0  0  0  0  0  0  0  0
   45.8430   31.4480   45.4630 O   0  0  0  0  0  0  0  0  0  0  0  0
   46.2460   32.6240   46.3490 P   0  0  2  0  0  0  0  0  0  0  0  0
   44.8650   32.9280   47.3220 O   0  0  0  0  0  0  0  0  0  0  0  0
   44.3120   32.1330   47.4150 H   0  0  0  0  0  0  0  0  0  0  0  0
   47.5020   32.2580   47.3650 O   0  0  0  0  0  0  0  0  0  0  0  0
   47.8310   30.9200   47.2190 C   0  0  0  0  0  0  0  0  0  0  0  0
   46.8960   30.3410   47.2810 H   0  0  0  0  0  0  0  0  0  0  0  0
   48.3800   30.6930   46.3020 H   0  0  0  0  0  0  0  0  0  0  0  0
   49.1540   31.5200   49.2890 C   0  0  0  0  0  3  0  0  0  0  0  0
   48.7140   30.5710   48.3860 C   0  0  0  0  0  0  0  0  0  0  0  0
   49.0770   29.2310   48.5220 C   0  0  0  0  0  0  0  0  0  0  0  0
   48.7240   28.4800   47.8030 H   0  0  0  0  0  0  0  0  0  0  0  0
   49.8830   28.8500   49.5690 C   0  0  0  0  0  0  0  0  0  0  0  0
   50.3400   27.6160   49.8730 N   0  0  0  0  0  0  0  0  0  0  0  0
   51.0930   27.7410   50.9870 C   0  0  0  0  0  0  0  0  0  0  0  0
   51.6090   26.9470   51.4990 H   0  0  0  0  0  0  0  0  0  0  0  0
   51.0870   29.0560   51.3540 N   0  0  0  0  0  0  0  0  0  0  0  0
   50.3430   29.7680   50.4920 C   0  0  0  0  0  0  0  0  0  0  0  0
   49.9730   31.0960   50.3400 C   0  0  0  0  0  3  0  0  0  0  0  0
   50.1970   26.6860   49.4020 H   0  0  0  0  0  0  0  0  0  0  0  0
  1 16  1  0  0  0  0
  1  6  1  0  0  0  0
  2  8  1  0  0  0  0
  2  1  1  0  0  0  0
  3  2  1  0  0  0  0
  3  4  1  0  0  0  0
  4 12  1  0  0  0  0
  4  5  1  0  0  0  0
  5 13  1  0  0  0  0
  5  6  1  0  0  0  0
  5 14  1  0  0  0  0
  6 15  1  6  0  0  0
  6 31  1  0  0  0  0
  7  2  1  0  0  0  0
  9  3  1  0  0  0  0
 10  3  1  0  0  0  0
 11  4  1  0  0  0  0
 16 18  1  0  0  0  0
 17 16  1  0  0  0  0
 19 16  1  0  0  0  0
 19 20  1  0  0  0  0
 21 19  1  0  0  0  0
 22 28  1  0  0  0  0
 22 23  1  0  0  0  0
 23 29  1  0  0  0  0
 24 23  2  0  0  0  0
 24 19  1  0  0  0  0
 25 24  1  0  0  0  0
 26 27  1  0  0  0  0
 26 25  2  0  0  0  0
 27 22  2  0  0  0  0
 30 26  1  0  0  0  0
 31 33  1  0  0  0  0
 33 32  2  6  0  0  0
 33 34  1  0  0  0  0
 33 36  1  0  0  0  0
 34 35  1  0  0  0  0
 37 38  1  0  0  0  0
 37 36  1  0  0  0  0
 37 41  1  0  0  0  0
 39 37  1  0  0  0  0
 40 50  1  0  0  0  0
 41 42  1  0  0  0  0
 41 40  2  0  0  0  0
 42 44  2  0  0  0  0
 43 42  1  0  0  0  0
 44 45  1  0  0  0  0
 44 49  1  0  0  0  0
 45 46  1  0  0  0  0
 46 48  2  0  0  0  0
 46 47  1  0  0  0  0
 49 48  1  0  0  0  0
 50 49  2  0  0  0  0
 51 45  1  0  0  0  0
M  END
>  <minimizedAffinity>
-5.42752647

>  <minimizedRMSD>
3.28307605

$$$$
