
 OpenBabel03252509303D

 24 26  0  0  0  0  0  0  0  0999 V2000
   36.2390   27.9880   42.1500 C   0  0  0  0  0  0  0  0  0  0  0  0
   35.3630   27.3950   41.8490 H   0  0  0  0  0  0  0  0  0  0  0  0
   35.9260   28.5380   43.0630 H   0  0  0  0  0  0  0  0  0  0  0  0
   36.7810   28.5940   39.8300 C   0  0  0  0  0  3  0  0  0  0  0  0
   36.5370   29.0200   41.1200 C   0  0  0  0  0  0  0  0  0  0  0  0
   36.5720   30.3650   41.4280 C   0  0  0  0  0  0  0  0  0  0  0  0
   36.3800   30.7140   42.4470 H   0  0  0  0  0  0  0  0  0  0  0  0
   36.8520   31.3060   40.4560 C   0  0  0  0  0  0  0  0  0  0  0  0
   36.9520   32.6640   40.4620 N   0  0  0  0  0  0  0  0  0  0  0  0
   37.2530   33.0220   39.1800 C   0  0  0  0  0  0  0  0  0  0  0  0
   37.3980   34.0490   38.8680 H   0  0  0  0  0  0  0  0  0  0  0  0
   37.3380   31.9210   38.3980 N   0  0  0  0  0  0  0  0  0  0  0  0
   37.0900   30.8630   39.1880 C   0  0  0  0  0  0  0  0  0  0  0  0
   37.0650   29.5210   38.8300 C   0  0  0  0  0  3  0  0  0  0  0  0
   36.8210   33.2880   41.2900 H   0  0  0  0  0  0  0  0  0  0  0  0
   39.4550   26.9150   43.6800 C   0  0  0  0  0  0  0  0  0  0  0  0
   38.3410   27.7100   43.3290 C   0  0  0  0  0  0  0  0  0  0  0  0
   37.3840   27.1510   42.5010 C   0  0  0  0  0  0  0  0  0  0  0  0
   37.5550   25.8700   42.0620 N   0  0  0  0  0  0  0  0  0  0  0  0
   38.6350   25.1440   42.4200 C   0  0  0  0  0  0  0  0  0  0  0  0
   39.5750   25.6550   43.2180 N   0  0  0  0  0  0  0  0  0  0  0  0
   40.2310   27.3060   44.3240 H   0  0  0  0  0  0  0  0  0  0  0  0
   38.3040   28.7040   43.7290 H   0  0  0  0  0  0  0  0  0  0  0  0
   38.7190   24.1160   42.0360 H   0  0  0  0  0  0  0  0  0  0  0  0
  1 18  1  0  0  0  0
  1  3  1  0  0  0  0
  2  1  1  0  0  0  0
  4  5  1  0  0  0  0
  5  6  2  0  0  0  0
  5  1  1  0  0  0  0
  6  7  1  0  0  0  0
  8  9  1  0  0  0  0
  8  6  1  0  0  0  0
  9 15  1  0  0  0  0
 10  9  1  0  0  0  0
 11 10  1  0  0  0  0
 12 10  2  0  0  0  0
 12 13  1  0  0  0  0
 13  8  2  0  0  0  0
 14 13  1  0  0  0  0
 14  4  2  0  0  0  0
 16 22  1  0  0  0  0
 17 16  1  0  0  0  0
 17 23  1  0  0  0  0
 18 17  2  0  0  0  0
 19 20  2  0  0  0  0
 19 18  1  0  0  0  0
 20 21  1  0  0  0  0
 21 16  2  0  0  0  0
 24 20  1  0  0  0  0
M  END
>  <minimizedAffinity>
-5.12688828

$$$$

 OpenBabel03252509303D

 24 26  0  0  0  0  0  0  0  0999 V2000
   35.6860   28.8800   41.0280 C   0  0  0  0  0  0  0  0  0  0  0  0
   34.9280   29.2010   41.7570 H   0  0  0  0  0  0  0  0  0  0  0  0
   35.1510   28.2120   40.3180 H   0  0  0  0  0  0  0  0  0  0  0  0
   37.3000   28.5300   42.8480 C   0  0  0  0  0  3  0  0  0  0  0  0
   36.7180   28.0420   41.6970 C   0  0  0  0  0  0  0  0  0  0  0  0
   37.0910   26.8120   41.1940 C   0  0  0  0  0  0  0  0  0  0  0  0
   36.6360   26.4140   40.2830 H   0  0  0  0  0  0  0  0  0  0  0  0
   38.0520   26.0500   41.8320 C   0  0  0  0  0  0  0  0  0  0  0  0
   38.6090   24.8330   41.5790 N   0  0  0  0  0  0  0  0  0  0  0  0
   39.5100   24.6200   42.5810 C   0  0  0  0  0  0  0  0  0  0  0  0
   40.1180   23.7260   42.6530 H   0  0  0  0  0  0  0  0  0  0  0  0
   39.5160   25.6710   43.4330 N   0  0  0  0  0  0  0  0  0  0  0  0
   38.6150   26.5520   42.9680 C   0  0  0  0  0  0  0  0  0  0  0  0
   38.2710   27.7840   43.5120 C   0  0  0  0  0  3  0  0  0  0  0  0
   38.3790   24.2050   40.7750 H   0  0  0  0  0  0  0  0  0  0  0  0
   36.9810   30.8630   38.1610 C   0  0  0  0  0  0  0  0  0  0  0  0
   36.4520   29.7920   38.9140 C   0  0  0  0  0  0  0  0  0  0  0  0
   36.2330   29.9990   40.2650 C   0  0  0  0  0  0  0  0  0  0  0  0
   36.5340   31.2150   40.8060 N   0  0  0  0  0  0  0  0  0  0  0  0
   37.0380   32.2140   40.0500 C   0  0  0  0  0  0  0  0  0  0  0  0
   37.2610   32.0450   38.7440 N   0  0  0  0  0  0  0  0  0  0  0  0
   37.1710   30.7520   37.1010 H   0  0  0  0  0  0  0  0  0  0  0  0
   36.2520   28.8780   38.3910 H   0  0  0  0  0  0  0  0  0  0  0  0
   37.2610   33.1740   40.5400 H   0  0  0  0  0  0  0  0  0  0  0  0
  1  5  1  0  0  0  0
  1  2  1  0  0  0  0
  3  1  1  0  0  0  0
  4 14  1  0  0  0  0
  5  4  2  0  0  0  0
  6  5  1  0  0  0  0
  6  8  2  0  0  0  0
  7  6  1  0  0  0  0
  8 13  1  0  0  0  0
  9  8  1  0  0  0  0
  9 10  1  0  0  0  0
 10 11  1  0  0  0  0
 10 12  2  0  0  0  0
 13 12  1  0  0  0  0
 13 14  2  0  0  0  0
 15  9  1  0  0  0  0
 16 21  2  0  0  0  0
 16 17  1  0  0  0  0
 17 18  2  0  0  0  0
 18 19  1  0  0  0  0
 18  1  1  0  0  0  0
 20 24  1  0  0  0  0
 20 19  2  0  0  0  0
 21 20  1  0  0  0  0
 22 16  1  0  0  0  0
 23 17  1  0  0  0  0
M  END
>  <minimizedAffinity>
-4.84586573

$$$$

 OpenBabel03252509303D

 24 26  0  0  0  0  0  0  0  0999 V2000
   37.6830   28.6680   43.5170 C   0  0  0  0  0  0  0  0  0  0  0  0
   38.2850   28.8970   44.4080 H   0  0  0  0  0  0  0  0  0  0  0  0
   36.6290   28.6400   43.8700 H   0  0  0  0  0  0  0  0  0  0  0  0
   39.2020   26.7410   43.3920 C   0  0  0  0  0  3  0  0  0  0  0  0
   37.9960   27.3000   43.0230 C   0  0  0  0  0  0  0  0  0  0  0  0
   37.1180   26.5990   42.2210 C   0  0  0  0  0  0  0  0  0  0  0  0
   36.1590   27.0320   41.9230 H   0  0  0  0  0  0  0  0  0  0  0  0
   37.4300   25.3290   41.7740 C   0  0  0  0  0  0  0  0  0  0  0  0
   36.7820   24.4210   40.9930 N   0  0  0  0  0  0  0  0  0  0  0  0
   37.6110   23.3400   40.9110 C   0  0  0  0  0  0  0  0  0  0  0  0
   37.3670   22.4460   40.3510 H   0  0  0  0  0  0  0  0  0  0  0  0
   38.7420   23.5670   41.6190 N   0  0  0  0  0  0  0  0  0  0  0  0
   38.6280   24.7960   42.1500 C   0  0  0  0  0  0  0  0  0  0  0  0
   39.5430   25.4620   42.9560 C   0  0  0  0  0  3  0  0  0  0  0  0
   35.8400   24.5450   40.5560 H   0  0  0  0  0  0  0  0  0  0  0  0
   39.1390   31.3110   41.3440 C   0  0  0  0  0  0  0  0  0  0  0  0
   39.0220   30.3050   42.3280 C   0  0  0  0  0  0  0  0  0  0  0  0
   37.7850   29.7070   42.4950 C   0  0  0  0  0  0  0  0  0  0  0  0
   36.7430   30.1100   41.7110 N   0  0  0  0  0  0  0  0  0  0  0  0
   36.8980   31.0760   40.7810 C   0  0  0  0  0  0  0  0  0  0  0  0
   38.0780   31.6720   40.5960 N   0  0  0  0  0  0  0  0  0  0  0  0
   40.0840   31.8110   41.1750 H   0  0  0  0  0  0  0  0  0  0  0  0
   39.9020   30.0650   42.8900 H   0  0  0  0  0  0  0  0  0  0  0  0
   36.0220   31.3600   40.1770 H   0  0  0  0  0  0  0  0  0  0  0  0
  1  3  1  0  0  0  0
  1  2  1  0  0  0  0
  5  4  1  0  0  0  0
  5  1  1  0  0  0  0
  6  5  2  0  0  0  0
  7  6  1  0  0  0  0
  8 13  2  0  0  0  0
  8  6  1  0  0  0  0
  9  8  1  0  0  0  0
 10  9  1  0  0  0  0
 10 12  2  0  0  0  0
 11 10  1  0  0  0  0
 12 13  1  0  0  0  0
 13 14  1  0  0  0  0
 14  4  2  0  0  0  0
 15  9  1  0  0  0  0
 16 17  1  0  0  0  0
 17 18  2  0  0  0  0
 17 23  1  0  0  0  0
 18  1  1  0  0  0  0
 19 18  1  0  0  0  0
 20 19  2  0  0  0  0
 21 20  1  0  0  0  0
 21 16  2  0  0  0  0
 22 16  1  0  0  0  0
 24 20  1  0  0  0  0
M  END
>  <minimizedAffinity>
-4.83410549

$$$$

 OpenBabel03252509303D

 24 26  0  0  0  0  0  0  0  0999 V2000
   37.6460   28.2200   43.6220 C   0  0  0  0  0  0  0  0  0  0  0  0
   36.5590   28.1200   43.7560 H   0  0  0  0  0  0  0  0  0  0  0  0
   38.0430   28.5130   44.6170 H   0  0  0  0  0  0  0  0  0  0  0  0
   36.9920   29.6920   41.7660 C   0  0  0  0  0  3  0  0  0  0  0  0
   37.9480   29.3480   42.7000 C   0  0  0  0  0  0  0  0  0  0  0  0
   39.1410   30.0390   42.7640 C   0  0  0  0  0  0  0  0  0  0  0  0
   39.9050   29.7750   43.5000 H   0  0  0  0  0  0  0  0  0  0  0  0
   39.4000   31.0840   41.8970 C   0  0  0  0  0  0  0  0  0  0  0  0
   40.4570   31.9260   41.7280 N   0  0  0  0  0  0  0  0  0  0  0  0
   40.1120   32.7540   40.7000 C   0  0  0  0  0  0  0  0  0  0  0  0
   40.7590   33.5400   40.3290 H   0  0  0  0  0  0  0  0  0  0  0  0
   38.8790   32.4390   40.2410 N   0  0  0  0  0  0  0  0  0  0  0  0
   38.4410   31.4070   40.9820 C   0  0  0  0  0  0  0  0  0  0  0  0
   37.2260   30.7420   40.8800 C   0  0  0  0  0  3  0  0  0  0  0  0
   41.3420   31.9230   42.2840 H   0  0  0  0  0  0  0  0  0  0  0  0
   38.1630   24.9080   42.0100 C   0  0  0  0  0  0  0  0  0  0  0  0
   37.5680   26.1320   42.3870 C   0  0  0  0  0  0  0  0  0  0  0  0
   38.2770   26.9580   43.2420 C   0  0  0  0  0  0  0  0  0  0  0  0
   39.5070   26.5580   43.6800 N   0  0  0  0  0  0  0  0  0  0  0  0
   40.0400   25.3790   43.2950 C   0  0  0  0  0  0  0  0  0  0  0  0
   39.3800   24.5610   42.4710 N   0  0  0  0  0  0  0  0  0  0  0  0
   37.6490   24.2270   41.3440 H   0  0  0  0  0  0  0  0  0  0  0  0
   36.5980   26.3490   41.9870 H   0  0  0  0  0  0  0  0  0  0  0  0
   41.0350   25.1100   43.6790 H   0  0  0  0  0  0  0  0  0  0  0  0
  1  2  1  0  0  0  0
  1  3  1  0  0  0  0
  4  5  1  0  0  0  0
  5  6  2  0  0  0  0
  5  1  1  0  0  0  0
  6  7  1  0  0  0  0
  8  6  1  0  0  0  0
  9  8  1  0  0  0  0
  9 15  1  0  0  0  0
 10  9  1  0  0  0  0
 11 10  1  0  0  0  0
 12 10  2  0  0  0  0
 12 13  1  0  0  0  0
 13  8  2  0  0  0  0
 14 13  1  0  0  0  0
 14  4  2  0  0  0  0
 16 17  2  0  0  0  0
 16 21  1  0  0  0  0
 17 18  1  0  0  0  0
 18  1  1  0  0  0  0
 18 19  2  0  0  0  0
 20 24  1  0  0  0  0
 20 19  1  0  0  0  0
 21 20  2  0  0  0  0
 22 16  1  0  0  0  0
 23 17  1  0  0  0  0
M  END
>  <minimizedAffinity>
-4.79976606

$$$$

 OpenBabel03252509303D

 24 26  0  0  0  0  0  0  0  0999 V2000
   36.6910   27.4260   43.0290 C   0  0  0  0  0  0  0  0  0  0  0  0
   35.6580   27.1070   43.2320 H   0  0  0  0  0  0  0  0  0  0  0  0
   37.0700   27.8350   43.9900 H   0  0  0  0  0  0  0  0  0  0  0  0
   35.7260   28.5740   41.0810 C   0  0  0  0  0  3  0  0  0  0  0  0
   36.6990   28.5560   42.0600 C   0  0  0  0  0  0  0  0  0  0  0  0
   37.6410   29.5620   42.1250 C   0  0  0  0  0  0  0  0  0  0  0  0
   38.4160   29.5580   42.8970 H   0  0  0  0  0  0  0  0  0  0  0  0
   37.6300   30.6010   41.2150 C   0  0  0  0  0  0  0  0  0  0  0  0
   38.4090   31.7040   41.0350 N   0  0  0  0  0  0  0  0  0  0  0  0
   37.8880   32.3560   39.9560 C   0  0  0  0  0  0  0  0  0  0  0  0
   38.2990   33.2790   39.5650 H   0  0  0  0  0  0  0  0  0  0  0  0
   36.8170   31.6830   39.4770 N   0  0  0  0  0  0  0  0  0  0  0  0
   36.6590   30.5990   40.2560 C   0  0  0  0  0  0  0  0  0  0  0  0
   35.6900   29.6100   40.1510 C   0  0  0  0  0  3  0  0  0  0  0  0
   39.2330   31.9770   41.6170 H   0  0  0  0  0  0  0  0  0  0  0  0
   37.7530   24.1090   41.7260 C   0  0  0  0  0  0  0  0  0  0  0  0
   36.9360   25.1970   42.1010 C   0  0  0  0  0  0  0  0  0  0  0  0
   37.5520   26.3100   42.6460 C   0  0  0  0  0  0  0  0  0  0  0  0
   38.9090   26.3080   42.7970 N   0  0  0  0  0  0  0  0  0  0  0  0
   39.6550   25.2460   42.4250 C   0  0  0  0  0  0  0  0  0  0  0  0
   39.0890   24.1580   41.8960 N   0  0  0  0  0  0  0  0  0  0  0  0
   37.3200   23.2160   41.2950 H   0  0  0  0  0  0  0  0  0  0  0  0
   35.8810   25.0960   41.9410 H   0  0  0  0  0  0  0  0  0  0  0  0
   40.7450   25.3010   42.5690 H   0  0  0  0  0  0  0  0  0  0  0  0
  1  2  1  0  0  0  0
  1  3  1  0  0  0  0
  4  5  1  0  0  0  0
  5  6  2  0  0  0  0
  5  1  1  0  0  0  0
  6  7  1  0  0  0  0
  8  6  1  0  0  0  0
  9  8  1  0  0  0  0
  9 15  1  0  0  0  0
 10  9  1  0  0  0  0
 11 10  1  0  0  0  0
 12 10  2  0  0  0  0
 12 13  1  0  0  0  0
 13  8  2  0  0  0  0
 14 13  1  0  0  0  0
 14  4  2  0  0  0  0
 16 21  2  0  0  0  0
 16 17  1  0  0  0  0
 17 18  2  0  0  0  0
 18 19  1  0  0  0  0
 18  1  1  0  0  0  0
 20 24  1  0  0  0  0
 20 19  2  0  0  0  0
 21 20  1  0  0  0  0
 22 16  1  0  0  0  0
 23 17  1  0  0  0  0
M  END
>  <minimizedAffinity>
-4.79912472

$$$$

 OpenBabel03252509303D

 24 26  0  0  0  0  0  0  0  0999 V2000
   36.2790   30.3830   41.2760 C   0  0  0  0  0  0  0  0  0  0  0  0
   35.3300   30.5640   41.8020 H   0  0  0  0  0  0  0  0  0  0  0  0
   36.7970   31.3650   41.2510 H   0  0  0  0  0  0  0  0  0  0  0  0
   34.8860   29.2700   39.5840 C   0  0  0  0  0  3  0  0  0  0  0  0
   36.0180   30.0090   39.8600 C   0  0  0  0  0  0  0  0  0  0  0  0
   36.8710   30.3840   38.8410 C   0  0  0  0  0  0  0  0  0  0  0  0
   37.7710   30.9700   39.0470 H   0  0  0  0  0  0  0  0  0  0  0  0
   36.6090   30.0260   37.5320 C   0  0  0  0  0  0  0  0  0  0  0  0
   37.2490   30.2440   36.3510 N   0  0  0  0  0  0  0  0  0  0  0  0
   36.4900   29.6340   35.3960 C   0  0  0  0  0  0  0  0  0  0  0  0
   36.7460   29.6330   34.3440 H   0  0  0  0  0  0  0  0  0  0  0  0
   35.4080   29.0510   35.9640 N   0  0  0  0  0  0  0  0  0  0  0  0
   35.4840   29.2950   37.2830 C   0  0  0  0  0  0  0  0  0  0  0  0
   34.5960   28.8960   38.2740 C   0  0  0  0  0  3  0  0  0  0  0  0
   38.1410   30.7760   36.2220 H   0  0  0  0  0  0  0  0  0  0  0  0
   39.2970   28.9240   42.8870 C   0  0  0  0  0  0  0  0  0  0  0  0
   38.4520   29.8220   42.1990 C   0  0  0  0  0  0  0  0  0  0  0  0
   37.1380   29.4410   41.9900 C   0  0  0  0  0  0  0  0  0  0  0  0
   36.7190   28.2270   42.4520 N   0  0  0  0  0  0  0  0  0  0  0  0
   37.5600   27.3970   43.1060 C   0  0  0  0  0  0  0  0  0  0  0  0
   38.8330   27.7360   43.3220 N   0  0  0  0  0  0  0  0  0  0  0  0
   40.3330   29.1740   43.0750 H   0  0  0  0  0  0  0  0  0  0  0  0
   38.8810   30.7500   41.8780 H   0  0  0  0  0  0  0  0  0  0  0  0
   37.1670   26.4310   43.4560 H   0  0  0  0  0  0  0  0  0  0  0  0
  1  2  1  0  0  0  0
  1 18  1  0  0  0  0
  3  1  1  0  0  0  0
  4  5  1  0  0  0  0
  5  1  1  0  0  0  0
  6  7  1  0  0  0  0
  6  5  2  0  0  0  0
  8  6  1  0  0  0  0
  9  8  1  0  0  0  0
 10 12  2  0  0  0  0
 10  9  1  0  0  0  0
 11 10  1  0  0  0  0
 12 13  1  0  0  0  0
 13  8  2  0  0  0  0
 13 14  1  0  0  0  0
 14  4  2  0  0  0  0
 15  9  1  0  0  0  0
 16 22  1  0  0  0  0
 16 21  1  0  0  0  0
 17 16  2  0  0  0  0
 18 17  1  0  0  0  0
 18 19  2  0  0  0  0
 19 20  1  0  0  0  0
 20 21  2  0  0  0  0
 20 24  1  0  0  0  0
 23 17  1  0  0  0  0
M  END
>  <minimizedAffinity>
-4.64796448

$$$$

 OpenBabel03252509303D

 24 26  0  0  0  0  0  0  0  0999 V2000
   36.6360   31.0050   40.8820 C   0  0  0  0  0  0  0  0  0  0  0  0
   35.8010   30.8870   40.1770 H   0  0  0  0  0  0  0  0  0  0  0  0
   36.2930   31.7540   41.6280 H   0  0  0  0  0  0  0  0  0  0  0  0
   38.3770   32.7340   40.7470 C   0  0  0  0  0  3  0  0  0  0  0  0
   37.8100   31.6050   40.1930 C   0  0  0  0  0  0  0  0  0  0  0  0
   38.3280   31.0620   39.0350 C   0  0  0  0  0  0  0  0  0  0  0  0
   37.8880   30.1670   38.5870 H   0  0  0  0  0  0  0  0  0  0  0  0
   39.4190   31.6360   38.4110 C   0  0  0  0  0  0  0  0  0  0  0  0
   40.1300   31.3330   37.2900 N   0  0  0  0  0  0  0  0  0  0  0  0
   41.1040   32.2830   37.1970 C   0  0  0  0  0  0  0  0  0  0  0  0
   41.8350   32.3080   36.3980 H   0  0  0  0  0  0  0  0  0  0  0  0
   41.0050   33.1540   38.2280 N   0  0  0  0  0  0  0  0  0  0  0  0
   39.9640   32.7520   38.9770 C   0  0  0  0  0  0  0  0  0  0  0  0
   39.4780   33.3340   40.1410 C   0  0  0  0  0  3  0  0  0  0  0  0
   39.9500   30.5290   36.6450 H   0  0  0  0  0  0  0  0  0  0  0  0
   36.6050   27.4060   41.8220 C   0  0  0  0  0  0  0  0  0  0  0  0
   36.3250   28.6120   41.1430 C   0  0  0  0  0  0  0  0  0  0  0  0
   36.9370   29.7670   41.5980 C   0  0  0  0  0  0  0  0  0  0  0  0
   37.7750   29.6920   42.6730 N   0  0  0  0  0  0  0  0  0  0  0  0
   38.0150   28.5190   43.2950 C   0  0  0  0  0  0  0  0  0  0  0  0
   37.4400   27.3880   42.8800 N   0  0  0  0  0  0  0  0  0  0  0  0
   36.1510   26.4760   41.5060 H   0  0  0  0  0  0  0  0  0  0  0  0
   35.6520   28.5600   40.3100 H   0  0  0  0  0  0  0  0  0  0  0  0
   38.7010   28.5190   44.1570 H   0  0  0  0  0  0  0  0  0  0  0  0
  1 18  1  0  0  0  0
  1  3  1  0  0  0  0
  2  1  1  0  0  0  0
  5  4  1  0  0  0  0
  5  1  1  0  0  0  0
  6  5  2  0  0  0  0
  7  6  1  0  0  0  0
  8 13  2  0  0  0  0
  8  6  1  0  0  0  0
  9  8  1  0  0  0  0
 10  9  1  0  0  0  0
 10 12  2  0  0  0  0
 11 10  1  0  0  0  0
 12 13  1  0  0  0  0
 13 14  1  0  0  0  0
 14  4  2  0  0  0  0
 15  9  1  0  0  0  0
 16 21  1  0  0  0  0
 17 18  1  0  0  0  0
 17 16  2  0  0  0  0
 18 19  2  0  0  0  0
 19 20  1  0  0  0  0
 20 24  1  0  0  0  0
 21 20  2  0  0  0  0
 22 16  1  0  0  0  0
 23 17  1  0  0  0  0
M  END
>  <minimizedAffinity>
-4.55168915

$$$$

 OpenBabel03252509303D

 24 26  0  0  0  0  0  0  0  0999 V2000
   36.5200   30.7930   40.9720 C   0  0  0  0  0  0  0  0  0  0  0  0
   35.6850   30.7100   40.2610 H   0  0  0  0  0  0  0  0  0  0  0  0
   36.1580   31.4650   41.7800 H   0  0  0  0  0  0  0  0  0  0  0  0
   37.8490   31.3260   38.9740 C   0  0  0  0  0  3  0  0  0  0  0  0
   37.6720   31.4860   40.3330 C   0  0  0  0  0  0  0  0  0  0  0  0
   38.5440   32.2680   41.0630 C   0  0  0  0  0  0  0  0  0  0  0  0
   38.4130   32.4030   42.1400 H   0  0  0  0  0  0  0  0  0  0  0  0
   39.6060   32.9030   40.4490 C   0  0  0  0  0  0  0  0  0  0  0  0
   40.6030   33.7160   40.8960 N   0  0  0  0  0  0  0  0  0  0  0  0
   41.3540   34.0250   39.7990 C   0  0  0  0  0  0  0  0  0  0  0  0
   42.2280   34.6620   39.8380 H   0  0  0  0  0  0  0  0  0  0  0  0
   40.8420   33.4230   38.7010 N   0  0  0  0  0  0  0  0  0  0  0  0
   39.7630   32.7310   39.1040 C   0  0  0  0  0  0  0  0  0  0  0  0
   38.9110   31.9540   38.3290 C   0  0  0  0  0  3  0  0  0  0  0  0
   40.7460   34.0290   41.8830 H   0  0  0  0  0  0  0  0  0  0  0  0
   36.8810   27.1190   41.4250 C   0  0  0  0  0  0  0  0  0  0  0  0
   36.5570   28.3690   40.8550 C   0  0  0  0  0  0  0  0  0  0  0  0
   36.8630   29.5080   41.5780 C   0  0  0  0  0  0  0  0  0  0  0  0
   37.4580   29.3760   42.8000 N   0  0  0  0  0  0  0  0  0  0  0  0
   37.7510   28.1610   43.3100 C   0  0  0  0  0  0  0  0  0  0  0  0
   37.4680   27.0440   42.6360 N   0  0  0  0  0  0  0  0  0  0  0  0
   36.6610   26.1980   40.9000 H   0  0  0  0  0  0  0  0  0  0  0  0
   36.0900   28.3600   39.8900 H   0  0  0  0  0  0  0  0  0  0  0  0
   38.2310   28.1160   44.2990 H   0  0  0  0  0  0  0  0  0  0  0  0
  1 18  1  0  0  0  0
  1  3  1  0  0  0  0
  2  1  1  0  0  0  0
  4  5  1  0  0  0  0
  5  1  1  0  0  0  0
  5  6  2  0  0  0  0
  6  7  1  0  0  0  0
  8  9  1  0  0  0  0
  8  6  1  0  0  0  0
  9 15  1  0  0  0  0
 10 11  1  0  0  0  0
 10  9  1  0  0  0  0
 12 13  1  0  0  0  0
 12 10  2  0  0  0  0
 13  8  2  0  0  0  0
 14  4  2  0  0  0  0
 14 13  1  0  0  0  0
 16 21  1  0  0  0  0
 17 16  2  0  0  0  0
 17 18  1  0  0  0  0
 18 19  2  0  0  0  0
 19 20  1  0  0  0  0
 20 24  1  0  0  0  0
 21 20  2  0  0  0  0
 22 16  1  0  0  0  0
 23 17  1  0  0  0  0
M  END
>  <minimizedAffinity>
-4.51234674

$$$$

 OpenBabel03252509303D

 24 26  0  0  0  0  0  0  0  0999 V2000
   37.3870   31.3160   38.6550 C   0  0  0  0  0  0  0  0  0  0  0  0
   36.4560   31.8090   38.3390 H   0  0  0  0  0  0  0  0  0  0  0  0
   37.7400   30.7500   37.7660 H   0  0  0  0  0  0  0  0  0  0  0  0
   35.8010   29.8570   39.8380 C   0  0  0  0  0  3  0  0  0  0  0  0
   37.1000   30.3050   39.7090 C   0  0  0  0  0  0  0  0  0  0  0  0
   38.0900   29.8190   40.5380 C   0  0  0  0  0  0  0  0  0  0  0  0
   39.1230   30.1660   40.4450 H   0  0  0  0  0  0  0  0  0  0  0  0
   37.8010   28.8810   41.5100 C   0  0  0  0  0  0  0  0  0  0  0  0
   38.5490   28.2360   42.4490 N   0  0  0  0  0  0  0  0  0  0  0  0
   37.6850   27.4190   43.1170 C   0  0  0  0  0  0  0  0  0  0  0  0
   37.9890   26.7730   43.9320 H   0  0  0  0  0  0  0  0  0  0  0  0
   36.4360   27.5490   42.6130 N   0  0  0  0  0  0  0  0  0  0  0  0
   36.5110   28.4520   41.6200 C   0  0  0  0  0  0  0  0  0  0  0  0
   35.4810   28.9110   40.8080 C   0  0  0  0  0  3  0  0  0  0  0  0
   39.5750   28.3570   42.6070 H   0  0  0  0  0  0  0  0  0  0  0  0
   39.0960   34.1610   40.3320 C   0  0  0  0  0  0  0  0  0  0  0  0
   38.1020   33.2270   39.9680 C   0  0  0  0  0  0  0  0  0  0  0  0
   38.4280   32.2740   39.0190 C   0  0  0  0  0  0  0  0  0  0  0  0
   39.6830   32.2770   38.4820 N   0  0  0  0  0  0  0  0  0  0  0  0
   40.6050   33.1880   38.8570 C   0  0  0  0  0  0  0  0  0  0  0  0
   40.3200   34.1200   39.7700 N   0  0  0  0  0  0  0  0  0  0  0  0
   38.8920   34.9270   41.0680 H   0  0  0  0  0  0  0  0  0  0  0  0
   37.1490   33.3130   40.4500 H   0  0  0  0  0  0  0  0  0  0  0  0
   41.6010   33.1420   38.3900 H   0  0  0  0  0  0  0  0  0  0  0  0
  1 18  1  0  0  0  0
  1  5  1  0  0  0  0
  2  1  1  0  0  0  0
  3  1  1  0  0  0  0
  4 14  1  0  0  0  0
  5  4  2  0  0  0  0
  5  6  1  0  0  0  0
  6  8  2  0  0  0  0
  7  6  1  0  0  0  0
  8 13  1  0  0  0  0
  8  9  1  0  0  0  0
  9 15  1  0  0  0  0
  9 10  1  0  0  0  0
 10 11  1  0  0  0  0
 12 10  2  0  0  0  0
 13 12  1  0  0  0  0
 14 13  2  0  0  0  0
 16 22  1  0  0  0  0
 17 16  1  0  0  0  0
 17 23  1  0  0  0  0
 18 17  2  0  0  0  0
 19 20  2  0  0  0  0
 19 18  1  0  0  0  0
 20 21  1  0  0  0  0
 21 16  2  0  0  0  0
 24 20  1  0  0  0  0
M  END
>  <minimizedAffinity>
-4.45591784

$$$$
