
 OpenBabel03252509043D

 51 54  0  0  1  0  0  0  0  0999 V2000
   47.0300   34.3160   43.3860 N   0  0  0  0  0  0  0  0  0  0  0  0
   46.6550   34.9880   42.2010 C   0  0  0  0  0  0  0  0  0  0  0  0
   45.1790   34.8830   41.8630 C   0  0  0  0  0  0  0  0  0  0  0  0
   44.2780   34.8920   43.0680 C   0  0  0  0  0  0  0  0  0  0  0  0
   45.0580   35.0430   44.3530 C   0  0  0  0  0  0  0  0  0  0  0  0
   46.1070   33.8640   44.2950 C   0  0  2  0  0  0  0  0  0  0  0  0
   47.1950   34.7130   41.2900 H   0  0  0  0  0  0  0  0  0  0  0  0
   46.8570   36.0880   42.3360 H   0  0  0  0  0  0  0  0  0  0  0  0
   44.9660   33.9610   41.2640 H   0  0  0  0  0  0  0  0  0  0  0  0
   44.8910   35.7280   41.2010 H   0  0  0  0  0  0  0  0  0  0  0  0
   43.5450   35.7510   43.0340 H   0  0  0  0  0  0  0  0  0  0  0  0
   43.6530   33.9810   43.1530 H   0  0  0  0  0  0  0  0  0  0  0  0
   45.5840   36.0040   44.4290 H   0  0  0  0  0  0  0  0  0  0  0  0
   44.4090   34.7950   45.2070 H   0  0  0  0  0  0  0  0  0  0  0  0
   45.5240   32.9600   44.0400 H   0  0  0  0  0  0  0  0  0  0  0  0
   48.3110   33.6560   43.3110 C   0  0  0  0  0  0  0  0  0  0  0  0
   48.9140   34.2360   42.5790 H   0  0  0  0  0  0  0  0  0  0  0  0
   48.8960   33.7020   44.2600 H   0  0  0  0  0  0  0  0  0  0  0  0
   48.0830   32.2730   42.7960 C   0  0  0  0  0  0  0  0  0  0  0  0
   48.3310   31.5240   43.5470 H   0  0  0  0  0  0  0  0  0  0  0  0
   47.0120   32.1050   42.5040 H   0  0  0  0  0  0  0  0  0  0  0  0
   51.0150   31.6280   40.5380 C   0  0  0  0  0  0  0  0  0  0  0  0
   50.2370   31.8250   41.6950 C   0  0  0  0  0  0  0  0  0  0  0  0
   48.8920   32.0670   41.5660 C   0  0  0  0  0  0  0  0  0  0  0  0
   48.3850   32.1040   40.3320 N   0  0  0  0  0  0  0  0  0  0  0  0
   49.1270   31.9170   39.2330 C   0  0  0  0  0  0  0  0  0  0  0  0
   50.4390   31.6790   39.3110 N   0  0  0  0  0  0  0  0  0  0  0  0
   52.0770   31.4370   40.6240 H   0  0  0  0  0  0  0  0  0  0  0  0
   50.7400   31.7770   42.6530 H   0  0  0  0  0  0  0  0  0  0  0  0
   48.5560   31.9800   38.3130 H   0  0  0  0  0  0  0  0  0  0  0  0
   46.5760   33.8640   45.5940 O   0  0  0  0  0  0  0  0  0  0  0  0
   45.7790   31.3260   45.4330 O   0  0  0  0  0  0  0  0  0  0  0  0
   46.2590   32.4120   46.3930 P   0  0  2  0  0  0  0  0  0  0  0  0
   44.9060   32.7300   47.4000 O   0  0  0  0  0  0  0  0  0  0  0  0
   44.3060   31.9650   47.4450 H   0  0  0  0  0  0  0  0  0  0  0  0
   47.4970   31.9010   47.3670 O   0  0  0  0  0  0  0  0  0  0  0  0
   47.5960   30.5220   47.2930 C   0  0  0  0  0  0  0  0  0  0  0  0
   46.6100   30.1050   47.5490 H   0  0  0  0  0  0  0  0  0  0  0  0
   47.9470   30.1510   46.3260 H   0  0  0  0  0  0  0  0  0  0  0  0
   49.1380   28.8400   48.3850 C   0  0  0  0  0  3  0  0  0  0  0  0
   48.6000   30.1120   48.3370 C   0  0  0  0  0  0  0  0  0  0  0  0
   48.9710   31.0820   49.2670 C   0  0  0  0  0  0  0  0  0  0  0  0
   48.5410   32.0920   49.2250 H   0  0  0  0  0  0  0  0  0  0  0  0
   49.8850   30.7700   50.2460 C   0  0  0  0  0  0  0  0  0  0  0  0
   50.3690   31.5580   51.2290 N   0  0  0  0  0  0  0  0  0  0  0  0
   51.2380   30.8090   51.9410 C   0  0  0  0  0  0  0  0  0  0  0  0
   51.8040   31.1320   52.7990 H   0  0  0  0  0  0  0  0  0  0  0  0
   51.2750   29.5630   51.3820 N   0  0  0  0  0  0  0  0  0  0  0  0
   50.4450   29.5090   50.3280 C   0  0  0  0  0  0  0  0  0  0  0  0
   50.0640   28.5570   49.3940 C   0  0  0  0  0  3  0  0  0  0  0  0
   50.1740   32.5630   51.4750 H   0  0  0  0  0  0  0  0  0  0  0  0
  1  6  1  0  0  0  0
  2  8  1  0  0  0  0
  2  1  1  0  0  0  0
  3  2  1  0  0  0  0
  3  4  1  0  0  0  0
  4 12  1  0  0  0  0
  4  5  1  0  0  0  0
  5 13  1  0  0  0  0
  5 14  1  0  0  0  0
  6 15  1  6  0  0  0
  6  5  1  0  0  0  0
  6 31  1  0  0  0  0
  7  2  1  0  0  0  0
  9  3  1  0  0  0  0
 10  3  1  0  0  0  0
 11  4  1  0  0  0  0
 16  1  1  0  0  0  0
 16 18  1  0  0  0  0
 17 16  1  0  0  0  0
 19 16  1  0  0  0  0
 19 20  1  0  0  0  0
 21 19  1  0  0  0  0
 22 28  1  0  0  0  0
 22 23  1  0  0  0  0
 23 29  1  0  0  0  0
 24 23  2  0  0  0  0
 24 19  1  0  0  0  0
 25 24  1  0  0  0  0
 26 27  1  0  0  0  0
 26 25  2  0  0  0  0
 27 22  2  0  0  0  0
 30 26  1  0  0  0  0
 31 33  1  0  0  0  0
 33 32  2  6  0  0  0
 33 36  1  0  0  0  0
 33 34  1  0  0  0  0
 34 35  1  0  0  0  0
 37 36  1  0  0  0  0
 37 38  1  0  0  0  0
 37 41  1  0  0  0  0
 39 37  1  0  0  0  0
 40 50  1  0  0  0  0
 41 40  2  0  0  0  0
 41 42  1  0  0  0  0
 42 44  2  0  0  0  0
 43 42  1  0  0  0  0
 44 49  1  0  0  0  0
 44 45  1  0  0  0  0
 45 51  1  0  0  0  0
 45 46  1  0  0  0  0
 46 47  1  0  0  0  0
 48 46  2  0  0  0  0
 49 48  1  0  0  0  0
 50 49  2  0  0  0  0
M  END
>  <minimizedAffinity>
-5.49249172

>  <minimizedRMSD>
2.81151628

$$$$
