
 OpenBabel03252503273D

 28 30  0  0  0  0  0  0  0  0999 V2000
   45.4460   34.8160   42.6330 C   0  0  0  0  0  0  0  0  0  0  0  0
   46.5090   35.2970   41.8640 C   0  0  0  0  0  0  0  0  0  0  0  0
   47.8070   34.9280   42.2980 C   0  0  0  0  0  0  0  0  0  0  0  0
   47.9080   34.1500   43.4100 N   0  0  0  0  0  0  0  0  0  0  0  0
   46.8380   33.7210   44.1050 C   0  0  0  0  0  0  0  0  0  0  0  0
   45.6000   34.0520   43.7200 N   0  0  0  0  0  0  0  0  0  0  0  0
   43.6610   34.3820   41.1420 C   0  0  0  0  0  0  0  0  0  0  0  0
   44.4990   33.5640   40.6300 O   0  0  0  0  0  0  0  0  0  0  0  0
   44.1010   35.1440   42.2610 N   0  0  0  0  0  0  0  0  0  0  0  0
   46.2600   35.9030   41.0110 H   0  0  0  0  0  0  0  0  0  0  0  0
   47.0490   33.1060   44.9730 H   0  0  0  0  0  0  0  0  0  0  0  0
   43.5090   35.8330   42.7230 H   0  0  0  0  0  0  0  0  0  0  0  0
   41.3750   35.4510   41.0590 C   0  0  0  0  0  3  0  0  0  0  0  0
   42.3090   34.5350   40.6060 C   0  0  0  0  0  0  0  0  0  0  0  0
   41.9300   33.7140   39.5800 C   0  0  0  0  0  0  0  0  0  0  0  0
   42.6180   32.9910   39.1980 H   0  0  0  0  0  0  0  0  0  0  0  0
   40.6590   33.7880   39.0050 C   0  0  0  0  0  0  0  0  0  0  0  0
   40.0460   33.1090   38.0030 N   0  0  0  0  0  0  0  0  0  0  0  0
   38.7840   33.6000   37.8570 C   0  0  0  0  0  0  0  0  0  0  0  0
   38.0160   33.2870   37.1460 H   0  0  0  0  0  0  0  0  0  0  0  0
   38.6000   34.5800   38.7570 N   0  0  0  0  0  0  0  0  0  0  0  0
   39.7340   34.7090   39.4670 C   0  0  0  0  0  0  0  0  0  0  0  0
   40.1150   35.5380   40.5040 C   0  0  0  0  0  3  0  0  0  0  0  0
   40.4640   32.3340   37.4300 H   0  0  0  0  0  0  0  0  0  0  0  0
   48.8970   35.4430   41.4790 C   0  0  0  0  0  0  0  0  0  0  0  0
   50.0470   34.6850   41.7470 F   0  0  0  0  0  0  0  0  0  0  0  0
   49.1870   36.7190   41.9350 F   0  0  0  0  0  0  0  0  0  0  0  0
   48.6650   35.3590   40.1430 F   0  0  0  0  0  0  0  0  0  0  0  0
  1  6  1  0  0  0  0
  2  3  1  0  0  0  0
  2  1  2  0  0  0  0
  3  4  2  0  0  0  0
  4  5  1  0  0  0  0
  5 11  1  0  0  0  0
  6  5  2  0  0  0  0
  7  9  1  0  0  0  0
  8  7  2  0  0  0  0
  9  1  1  0  0  0  0
  9 12  1  0  0  0  0
 10  2  1  0  0  0  0
 14 13  1  0  0  0  0
 14  7  1  0  0  0  0
 15 14  2  0  0  0  0
 16 15  1  0  0  0  0
 17 22  2  0  0  0  0
 17 15  1  0  0  0  0
 18 17  1  0  0  0  0
 19 18  1  0  0  0  0
 19 21  2  0  0  0  0
 20 19  1  0  0  0  0
 21 22  1  0  0  0  0
 22 23  1  0  0  0  0
 23 13  2  0  0  0  0
 24 18  1  0  0  0  0
 25 26  1  0  0  0  0
 25 27  1  0  0  0  0
 25  3  1  0  0  0  0
 28 25  1  0  0  0  0
M  END
>  <minimizedAffinity>
-6.52598763

>  <minimizedRMSD>
1.60844457

$$$$
