
 OpenBabel03242514103D

 49 53  0  0  1  0  0  0  0  0999 V2000
   47.4880   33.5870   39.7880 C   0  0  0  0  0  0  0  0  0  0  0  0
   48.3070   34.6150   39.3880 C   0  0  0  0  0  0  0  0  0  0  0  0
   48.6400   34.8670   38.0640 C   0  0  0  0  0  0  0  0  0  0  0  0
   48.0660   33.9750   37.1490 C   0  0  0  0  0  0  0  0  0  0  0  0
   47.2280   32.9240   37.5630 C   0  0  0  0  0  0  0  0  0  0  0  0
   46.9490   32.7400   38.8650 N   0  0  0  0  0  0  0  0  0  0  0  0
   48.7030   35.2520   40.1720 H   0  0  0  0  0  0  0  0  0  0  0  0
   49.2780   35.6730   37.8030 H   0  0  0  0  0  0  0  0  0  0  0  0
   48.3580   34.2150   36.1370 H   0  0  0  0  0  0  0  0  0  0  0  0
   46.6490   32.0460   36.5500 C   0  0  1  0  0  0  0  0  0  0  0  0
   45.2010   32.5510   36.1480 C   0  0  0  0  0  0  0  0  0  0  0  0
   44.6070   31.2890   35.4660 C   0  0  0  0  0  0  0  0  0  0  0  0
   45.3170   31.2390   34.1110 C   0  0  0  0  0  0  0  0  0  0  0  0
   46.7770   31.0460   34.2760 C   0  0  0  0  0  0  0  0  0  0  0  0
   47.4390   31.7640   35.3910 C   0  0  2  0  0  0  0  0  0  0  0  0
   46.3610   31.1000   37.0960 H   0  0  0  0  0  0  0  0  0  0  0  0
   44.6600   32.7830   37.0750 H   0  0  0  0  0  0  0  0  0  0  0  0
   45.2840   33.3650   35.4250 H   0  0  0  0  0  0  0  0  0  0  0  0
   43.5440   31.4860   35.3000 H   0  0  0  0  0  0  0  0  0  0  0  0
   44.8410   30.3970   36.0670 H   0  0  0  0  0  0  0  0  0  0  0  0
   44.8550   30.3740   33.5910 H   0  0  0  0  0  0  0  0  0  0  0  0
   45.0150   32.1300   33.5440 H   0  0  0  0  0  0  0  0  0  0  0  0
   47.2710   31.2810   33.3090 H   0  0  0  0  0  0  0  0  0  0  0  0
   46.9240   29.9280   34.3630 H   0  0  0  0  0  0  0  0  0  0  0  0
   47.8220   32.7310   34.9410 H   0  0  0  0  0  0  0  0  0  0  0  0
   48.8140   30.6960   35.9340 S   0  0  0  0  0  0  0  0  0  0  0  0
   50.0440   31.3450   35.6950 H   0  0  0  0  0  0  0  0  0  0  0  0
   47.7250   33.2820   43.4190 C   0  0  0  0  0  0  0  0  0  0  0  0
   46.4270   33.0000   43.8210 C   0  0  0  0  0  0  0  0  0  0  0  0
   45.4850   32.9210   42.8200 C   0  0  0  0  0  0  0  0  0  0  0  0
   45.8690   33.1190   41.5210 N   0  0  0  0  0  0  0  0  0  0  0  0
   47.1840   33.3960   41.1960 C   0  0  0  0  0  0  0  0  0  0  0  0
   48.0670   33.4700   42.1290 N   0  0  0  0  0  0  0  0  0  0  0  0
   44.1360   32.6490   43.0340 N   0  0  0  0  0  0  0  0  0  0  0  0
   48.4890   33.3490   44.1860 H   0  0  0  0  0  0  0  0  0  0  0  0
   43.7260   31.7470   43.3590 H   0  0  0  0  0  0  0  0  0  0  0  0
   43.2420   33.2000   42.9440 H   0  0  0  0  0  0  0  0  0  0  0  0
   45.5240   33.7960   46.0310 C   0  0  0  0  0  0  0  0  0  0  0  0
   46.0260   32.7910   45.2030 C   0  0  0  0  0  0  0  0  0  0  0  0
   46.1800   31.4870   45.6580 C   0  0  0  0  0  0  0  0  0  0  0  0
   46.5550   30.6680   45.0890 H   0  0  0  0  0  0  0  0  0  0  0  0
   45.8310   31.1530   46.9680 C   0  0  0  0  0  0  0  0  0  0  0  0
   45.8590   30.0030   47.7030 N   0  0  0  0  0  0  0  0  0  0  0  0
   45.3940   30.3240   48.9030 C   0  0  0  0  0  0  0  0  0  0  0  0
   45.3180   29.5820   49.6670 H   0  0  0  0  0  0  0  0  0  0  0  0
   45.0640   31.6310   48.9870 N   0  0  0  0  0  0  0  0  0  0  0  0
   45.3290   32.1640   47.7910 C   0  0  0  0  0  0  0  0  0  0  0  0
   45.1780   33.4590   47.3310 C   0  0  0  0  0  0  0  0  0  0  0  0
   46.1970   29.0930   47.3140 H   0  0  0  0  0  0  0  0  0  0  0  0
  1 32  1  0  0  0  0
  2  1  1  0  0  0  0
  2  7  1  0  0  0  0
  3  2  2  0  0  0  0
  4  5  2  0  0  0  0
  4  3  1  0  0  0  0
  5  6  1  0  0  0  0
  6  1  2  0  0  0  0
  8  3  1  0  0  0  0
  9  4  1  0  0  0  0
 10 16  1  1  0  0  0
 10  5  1  0  0  0  0
 11 10  1  0  0  0  0
 11 17  1  0  0  0  0
 12 20  1  0  0  0  0
 12 11  1  0  0  0  0
 13 14  1  0  0  0  0
 13 12  1  0  0  0  0
 14 24  1  0  0  0  0
 14 15  1  0  0  0  0
 15 25  1  6  0  0  0
 15 26  1  0  0  0  0
 15 10  1  0  0  0  0
 18 11  1  0  0  0  0
 19 12  1  0  0  0  0
 21 13  1  0  0  0  0
 22 13  1  0  0  0  0
 23 14  1  0  0  0  0
 27 26  1  0  0  0  0
 28 29  1  0  0  0  0
 28 35  1  0  0  0  0
 29 39  1  0  0  0  0
 30 34  1  0  0  0  0
 30 29  2  0  0  0  0
 31 30  1  0  0  0  0
 32 31  2  0  0  0  0
 32 33  1  0  0  0  0
 33 28  2  0  0  0  0
 34 36  1  0  0  0  0
 37 34  1  0  0  0  0
 38 48  1  0  0  0  0
 39 40  1  0  0  0  0
 39 38  2  0  0  0  0
 40 42  2  0  0  0  0
 41 40  1  0  0  0  0
 42 43  1  0  0  0  0
 42 47  1  0  0  0  0
 43 44  1  0  0  0  0
 44 46  2  0  0  0  0
 44 45  1  0  0  0  0
 47 46  1  0  0  0  0
 48 47  2  0  0  0  0
 49 43  1  0  0  0  0
M  END
>  <minimizedAffinity>
-6.29090595

>  <minimizedRMSD>
2.81522632

$$$$
