
 OpenBabel03252506563D

 41 46  0  0  0  0  0  0  0  0999 V2000
   47.1880   31.3630   45.0880 C   0  0  0  0  0  0  0  0  0  0  0  0
   46.8790   32.7200   45.0860 C   0  0  0  0  0  0  0  0  0  0  0  0
   46.2960   33.3490   46.1600 C   0  0  0  0  0  0  0  0  0  0  0  0
   45.9850   32.6390   47.3130 C   0  0  0  0  0  0  0  0  0  0  0  0
   45.4230   32.9220   48.5270 N   0  0  0  0  0  0  0  0  0  0  0  0
   45.3860   31.7740   49.2540 C   0  0  0  0  0  0  0  0  0  0  0  0
   45.9220   30.8060   48.4860 N   0  0  0  0  0  0  0  0  0  0  0  0
   46.2940   31.3010   47.3010 C   0  0  0  0  0  0  0  0  0  0  0  0
   46.8730   30.6460   46.2550 C   0  0  0  0  0  0  0  0  0  0  0  0
   47.6470   30.8600   44.2470 H   0  0  0  0  0  0  0  0  0  0  0  0
   46.0540   34.4040   46.1640 H   0  0  0  0  0  0  0  0  0  0  0  0
   45.1040   33.8930   48.7640 H   0  0  0  0  0  0  0  0  0  0  0  0
   44.9860   31.7250   50.2590 H   0  0  0  0  0  0  0  0  0  0  0  0
   46.6020   35.1790   42.3700 C   0  0  0  0  0  0  0  0  0  0  0  0
   47.7990   34.9810   41.6630 C   0  0  0  0  0  0  0  0  0  0  0  0
   48.6820   34.0110   42.1210 C   0  0  0  0  0  0  0  0  0  0  0  0
   48.3540   33.2880   43.2440 N   0  0  0  0  0  0  0  0  0  0  0  0
   47.1860   33.5130   43.8980 C   0  0  0  0  0  0  0  0  0  0  0  0
   46.3130   34.4440   43.4770 N   0  0  0  0  0  0  0  0  0  0  0  0
   45.9010   35.9270   42.0300 H   0  0  0  0  0  0  0  0  0  0  0  0
   48.0150   35.5700   40.7880 H   0  0  0  0  0  0  0  0  0  0  0  0
   49.6010   33.8480   41.5920 H   0  0  0  0  0  0  0  0  0  0  0  0
   47.1710   29.2000   46.3330 C   0  0  0  0  0  0  0  0  0  0  0  0
   48.4560   28.6750   46.4220 C   0  0  0  0  0  0  0  0  0  0  0  0
   48.2300   27.2920   46.4700 C   0  0  0  0  0  0  0  0  0  0  0  0
   46.8630   27.0650   46.4090 C   0  0  0  0  0  0  0  0  0  0  0  0
   46.2810   28.2500   46.3270 O   0  0  0  0  0  0  0  0  0  0  0  0
   49.3500   29.2800   46.4420 H   0  0  0  0  0  0  0  0  0  0  0  0
   49.0540   26.5890   46.5430 H   0  0  0  0  0  0  0  0  0  0  0  0
   44.9620   25.5210   46.8350 C   0  0  0  0  0  3  0  0  0  0  0  0
   46.2640   25.7350   46.4350 C   0  0  0  0  0  0  0  0  0  0  0  0
   47.0300   24.6340   46.0440 C   0  0  0  0  0  0  0  0  0  0  0  0
   48.0660   24.7310   45.7160 H   0  0  0  0  0  0  0  0  0  0  0  0
   46.4300   23.3910   46.0820 C   0  0  0  0  0  0  0  0  0  0  0  0
   46.8540   22.1300   45.7820 N   0  0  0  0  0  0  0  0  0  0  0  0
   45.8760   21.2290   45.9890 C   0  0  0  0  0  0  0  0  0  0  0  0
   46.0660   20.1860   45.7920 H   0  0  0  0  0  0  0  0  0  0  0  0
   44.7900   21.9070   46.4310 N   0  0  0  0  0  0  0  0  0  0  0  0
   45.1170   23.2010   46.4890 C   0  0  0  0  0  0  0  0  0  0  0  0
   44.3740   24.2940   46.8720 C   0  0  0  0  0  3  0  0  0  0  0  0
   47.8320   21.9710   45.4400 H   0  0  0  0  0  0  0  0  0  0  0  0
  1  9  1  0  0  0  0
  2  1  2  0  0  0  0
  2  3  1  0  0  0  0
  3 11  1  0  0  0  0
  3  4  2  0  0  0  0
  4  5  1  0  0  0  0
  5 12  1  0  0  0  0
  5  6  1  0  0  0  0
  6 13  1  0  0  0  0
  7  6  2  0  0  0  0
  8  4  1  0  0  0  0
  8  7  1  0  0  0  0
  9 23  1  0  0  0  0
  9  8  2  0  0  0  0
 10  1  1  0  0  0  0
 14 19  1  0  0  0  0
 15 16  1  0  0  0  0
 15 14  2  0  0  0  0
 16 17  2  0  0  0  0
 17 18  1  0  0  0  0
 18  2  1  0  0  0  0
 19 18  2  0  0  0  0
 20 14  1  0  0  0  0
 21 15  1  0  0  0  0
 22 16  1  0  0  0  0
 23 24  2  0  0  0  0
 24 28  1  0  0  0  0
 24 25  1  0  0  0  0
 25 29  1  0  0  0  0
 26 31  1  0  0  0  0
 26 25  2  0  0  0  0
 27 23  1  0  0  0  0
 27 26  1  0  0  0  0
 30 40  1  0  0  0  0
 31 30  2  0  0  0  0
 32 34  2  0  0  0  0
 32 31  1  0  0  0  0
 33 32  1  0  0  0  0
 34 39  1  0  0  0  0
 35 36  1  0  0  0  0
 35 34  1  0  0  0  0
 36 38  2  0  0  0  0
 37 36  1  0  0  0  0
 38 39  1  0  0  0  0
 39 40  2  0  0  0  0
 41 35  1  0  0  0  0
M  END
>  <minimizedAffinity>
-5.7532959

>  <minimizedRMSD>
0.3964082

$$$$
