
 OpenBabel03252508173D

 50 55  0  0  1  0  0  0  0  0999 V2000
   46.6700   31.5530   48.2390 C   0  0  1  0  0  0  0  0  0  0  0  0
   46.2780   30.4800   49.1960 C   0  0  0  0  0  0  0  0  0  0  0  0
   47.4920   31.2500   49.4270 C   0  0  1  0  0  0  0  0  0  0  0  0
   45.8670   32.3460   48.2250 H   0  0  0  0  0  0  0  0  0  0  0  0
   46.4360   29.4110   48.9000 H   0  0  0  0  0  0  0  0  0  0  0  0
   45.4210   30.5840   49.8890 H   0  0  0  0  0  0  0  0  0  0  0  0
   47.4440   32.0010   50.2440 H   0  0  0  0  0  0  0  0  0  0  0  0
   48.8600   30.6790   49.2110 C   0  0  2  0  0  0  0  0  0  0  0  0
   49.4890   30.1000   50.5040 C   0  0  0  0  0  0  0  0  0  0  0  0
   50.0200   31.3520   49.9380 C   0  0  1  0  0  0  0  0  0  0  0  0
   49.0850   30.0200   48.3630 H   0  0  0  0  0  0  0  0  0  0  0  0
   48.9100   30.1790   51.4450 H   0  0  0  0  0  0  0  0  0  0  0  0
   50.1180   29.2180   50.4610 H   0  0  0  0  0  0  0  0  0  0  0  0
   49.7640   32.2990   50.4640 H   0  0  0  0  0  0  0  0  0  0  0  0
   51.7910   30.3030   48.5340 C   0  0  0  0  0  3  0  0  0  0  0  0
   51.3640   31.3240   49.3560 C   0  0  0  0  0  0  0  0  0  0  0  0
   52.2960   32.3360   49.6070 C   0  0  0  0  0  0  0  0  0  0  0  0
   51.9380   33.1430   50.2660 H   0  0  0  0  0  0  0  0  0  0  0  0
   53.5730   32.3720   49.0960 C   0  0  0  0  0  0  0  0  0  0  0  0
   54.5620   33.2820   49.2560 N   0  0  0  0  0  0  0  0  0  0  0  0
   55.5800   32.8140   48.5350 C   0  0  0  0  0  0  0  0  0  0  0  0
   56.5220   33.3200   48.4610 H   0  0  0  0  0  0  0  0  0  0  0  0
   55.2460   31.6370   47.9310 N   0  0  0  0  0  0  0  0  0  0  0  0
   53.9800   31.3420   48.2750 C   0  0  0  0  0  0  0  0  0  0  0  0
   53.0750   30.3230   48.0090 C   0  0  0  0  0  3  0  0  0  0  0  0
   54.5430   34.1700   49.8260 H   0  0  0  0  0  0  0  0  0  0  0  0
   47.0910   31.0720   46.8970 C   0  0  0  0  0  0  0  0  0  0  0  0
   48.0880   30.7030   46.7610 H   0  0  0  0  0  0  0  0  0  0  0  0
   46.3830   30.2370   46.6210 H   0  0  0  0  0  0  0  0  0  0  0  0
   46.0190   33.0340   46.1560 C   0  0  0  0  0  3  0  0  0  0  0  0
   46.8500   32.1310   45.8470 C   0  0  0  0  0  3  0  0  0  0  0  0
   44.5670   35.9550   44.4380 C   0  0  0  0  0  0  0  0  0  0  0  0
   45.1970   35.9400   43.2070 C   0  0  0  0  0  0  0  0  0  0  0  0
   46.0960   34.9330   42.9950 C   0  0  0  0  0  0  0  0  0  0  0  0
   46.3250   34.0160   43.9780 N   0  0  0  0  0  0  0  0  0  0  0  0
   45.6950   34.0620   45.1630 C   0  0  0  0  0  0  0  0  0  0  0  0
   44.8250   35.0390   45.3630 N   0  0  0  0  0  0  0  0  0  0  0  0
   43.8520   36.7640   44.5940 H   0  0  0  0  0  0  0  0  0  0  0  0
   45.0490   36.6330   42.4150 H   0  0  0  0  0  0  0  0  0  0  0  0
   46.8360   34.7850   41.7500 C   0  0  0  0  0  0  0  0  0  0  0  0
   48.0440   35.3670   41.4950 C   0  0  0  0  0  0  0  0  0  0  0  0
   48.7360   35.2200   40.3080 C   0  0  0  0  0  0  0  0  0  0  0  0
   48.2060   34.4460   39.3030 C   0  0  0  0  0  0  0  0  0  0  0  0
   46.9950   33.8390   39.5040 C   0  0  0  0  0  0  0  0  0  0  0  0
   46.3550   34.0260   40.7090 C   0  0  0  0  0  0  0  0  0  0  0  0
   48.5050   35.9950   42.2740 H   0  0  0  0  0  0  0  0  0  0  0  0
   49.6920   35.7000   40.1500 H   0  0  0  0  0  0  0  0  0  0  0  0
   48.7040   34.2970   38.3550 H   0  0  0  0  0  0  0  0  0  0  0  0
   46.5640   33.2230   38.7130 H   0  0  0  0  0  0  0  0  0  0  0  0
   45.3900   33.5040   40.7890 H   0  0  0  0  0  0  0  0  0  0  0  0
  1  4  1  1  0  0  0
  1  2  1  0  0  0  0
  1  3  1  0  0  0  0
  2  3  1  0  0  0  0
  2  6  1  0  0  0  0
  3  7  1  1  0  0  0
  5  2  1  0  0  0  0
  8 11  1  6  0  0  0
  8  3  1  0  0  0  0
  8 10  1  0  0  0  0
  8  9  1  0  0  0  0
  9 12  1  0  0  0  0
 10 14  1  1  0  0  0
 10  9  1  0  0  0  0
 13  9  1  0  0  0  0
 15 16  1  0  0  0  0
 16 17  2  0  0  0  0
 16 10  1  0  0  0  0
 17 18  1  0  0  0  0
 19 20  1  0  0  0  0
 19 17  1  0  0  0  0
 20 26  1  0  0  0  0
 21 20  1  0  0  0  0
 22 21  1  0  0  0  0
 23 24  1  0  0  0  0
 23 21  2  0  0  0  0
 24 19  2  0  0  0  0
 25 24  1  0  0  0  0
 25 15  2  0  0  0  0
 27  1  1  0  0  0  0
 28 27  1  0  0  0  0
 29 27  1  0  0  0  0
 31 30  2  0  0  0  0
 31 27  1  0  0  0  0
 32 38  1  0  0  0  0
 32 37  1  0  0  0  0
 33 32  2  0  0  0  0
 34 33  1  0  0  0  0
 34 35  2  0  0  0  0
 35 36  1  0  0  0  0
 36 37  2  0  0  0  0
 36 30  1  0  0  0  0
 39 33  1  0  0  0  0
 40 34  1  0  0  0  0
 41 40  1  0  0  0  0
 41 46  1  0  0  0  0
 42 41  2  0  0  0  0
 43 44  2  0  0  0  0
 43 42  1  0  0  0  0
 44 45  1  0  0  0  0
 45 50  1  0  0  0  0
 45 40  2  0  0  0  0
 47 42  1  0  0  0  0
 48 43  1  0  0  0  0
 49 44  1  0  0  0  0
M  END
>  <minimizedAffinity>
-6.96670055

>  <minimizedRMSD>
0.990674138

$$$$
