
 OpenBabel03252504103D

 28 30  0  0  0  0  0  0  0  0999 V2000
   46.9650   34.2100   43.1120 C   0  0  0  0  0  0  0  0  0  0  0  0
   45.8370   34.7140   43.7540 C   0  0  0  0  0  0  0  0  0  0  0  0
   45.3230   33.9780   44.8330 C   0  0  0  0  0  0  0  0  0  0  0  0
   45.9420   32.8320   45.1890 N   0  0  0  0  0  0  0  0  0  0  0  0
   47.0350   32.3790   44.5390 C   0  0  0  0  0  0  0  0  0  0  0  0
   47.5490   33.0550   43.5070 N   0  0  0  0  0  0  0  0  0  0  0  0
   44.4510   34.3640   45.3320 H   0  0  0  0  0  0  0  0  0  0  0  0
   48.3920   30.3260   44.1940 C   0  0  0  0  0  3  0  0  0  0  0  0
   47.6100   31.1270   45.0210 C   0  0  0  0  0  0  0  0  0  0  0  0
   47.3800   30.7310   46.3120 C   0  0  0  0  0  0  0  0  0  0  0  0
   46.7760   31.3320   46.9820 H   0  0  0  0  0  0  0  0  0  0  0  0
   47.9320   29.5440   46.7530 C   0  0  0  0  0  0  0  0  0  0  0  0
   47.8230   28.9810   47.9840 N   0  0  0  0  0  0  0  0  0  0  0  0
   48.5480   27.8310   47.8870 C   0  0  0  0  0  0  0  0  0  0  0  0
   48.6140   27.1900   48.7650 H   0  0  0  0  0  0  0  0  0  0  0  0
   49.0710   27.7040   46.6550 N   0  0  0  0  0  0  0  0  0  0  0  0
   48.7040   28.7660   45.9140 C   0  0  0  0  0  0  0  0  0  0  0  0
   48.9610   29.1250   44.6080 C   0  0  0  0  0  3  0  0  0  0  0  0
   47.3000   29.3570   48.8080 H   0  0  0  0  0  0  0  0  0  0  0  0
   45.2310   35.9790   43.2890 C   0  0  0  0  0  0  0  0  0  0  0  0
   46.2270   36.8820   42.9580 F   0  0  0  0  0  0  0  0  0  0  0  0
   44.5370   35.7260   42.1140 F   0  0  0  0  0  0  0  0  0  0  0  0
   44.4050   36.5740   44.1760 F   0  0  0  0  0  0  0  0  0  0  0  0
   47.4550   34.9290   42.0690 O   0  0  0  0  0  0  0  0  0  0  0  0
   48.8040   35.0620   41.6940 C   0  0  0  0  0  0  0  0  0  0  0  0
   49.5340   35.3570   42.8480 F   0  0  0  0  0  0  0  0  0  0  0  0
   49.2360   33.9300   41.0790 F   0  0  0  0  0  0  0  0  0  0  0  0
   48.9540   36.1810   40.8830 F   0  0  0  0  0  0  0  0  0  0  0  0
  1  6  2  0  0  0  0
  1  2  1  0  0  0  0
  2  3  2  0  0  0  0
  3  4  1  0  0  0  0
  3  7  1  0  0  0  0
  5  9  1  0  0  0  0
  5  4  2  0  0  0  0
  6  5  1  0  0  0  0
  8 18  2  0  0  0  0
  8  9  1  0  0  0  0
  9 10  2  0  0  0  0
 10 12  1  0  0  0  0
 10 11  1  0  0  0  0
 12 13  1  0  0  0  0
 13 19  1  0  0  0  0
 14 13  1  0  0  0  0
 14 15  1  0  0  0  0
 16 14  2  0  0  0  0
 17 16  1  0  0  0  0
 17 12  2  0  0  0  0
 18 17  1  0  0  0  0
 20  2  1  0  0  0  0
 20 23  1  0  0  0  0
 21 20  1  0  0  0  0
 22 20  1  0  0  0  0
 24  1  1  0  0  0  0
 25 24  1  0  0  0  0
 25 26  1  0  0  0  0
 27 25  1  0  0  0  0
 28 25  1  0  0  0  0
M  END
>  <minimizedAffinity>
-5.47101736

>  <minimizedRMSD>
0.777399302

$$$$
