
 OpenBabel03242510063D

 21 23  0  0  0  0  0  0  0  0999 V2000
   36.9540   31.2630   40.6300 C   0  0  0  0  0  3  0  0  0  0  0  0
   37.9070   30.5120   41.2880 C   0  0  0  0  0  0  0  0  0  0  0  0
   39.2050   30.9640   41.5020 C   0  0  0  0  0  0  0  0  0  0  0  0
   39.9510   30.3770   42.0170 H   0  0  0  0  0  0  0  0  0  0  0  0
   39.5840   32.2260   41.0410 C   0  0  0  0  0  0  0  0  0  0  0  0
   40.7150   32.9770   41.0620 N   0  0  0  0  0  0  0  0  0  0  0  0
   40.4600   34.1600   40.4310 C   0  0  0  0  0  0  0  0  0  0  0  0
   41.2120   34.9290   40.3200 H   0  0  0  0  0  0  0  0  0  0  0  0
   39.1650   34.1190   40.0280 N   0  0  0  0  0  0  0  0  0  0  0  0
   38.6060   32.9500   40.3870 C   0  0  0  0  0  0  0  0  0  0  0  0
   37.3130   32.5270   40.1610 C   0  0  0  0  0  3  0  0  0  0  0  0
   41.6110   32.6640   41.4990 H   0  0  0  0  0  0  0  0  0  0  0  0
   37.0320   26.9370   41.4200 C   0  0  0  0  0  0  0  0  0  0  0  0
   36.9330   26.7040   42.8000 C   0  0  0  0  0  0  0  0  0  0  0  0
   37.1690   27.7790   43.6800 C   0  0  0  0  0  0  0  0  0  0  0  0
   37.4810   28.9910   43.1220 N   0  0  0  0  0  0  0  0  0  0  0  0
   37.5690   29.1850   41.7930 C   0  0  0  0  0  0  0  0  0  0  0  0
   37.3450   28.1650   40.9510 N   0  0  0  0  0  0  0  0  0  0  0  0
   36.8450   26.0950   40.7890 H   0  0  0  0  0  0  0  0  0  0  0  0
   36.6800   25.7110   43.1560 H   0  0  0  0  0  0  0  0  0  0  0  0
   37.0990   27.6270   44.7410 H   0  0  0  0  0  0  0  0  0  0  0  0
  1  2  1  0  0  0  0
  2  3  2  0  0  0  0
  2 17  1  0  0  0  0
  3  4  1  0  0  0  0
  5  6  1  0  0  0  0
  5  3  1  0  0  0  0
  6 12  1  0  0  0  0
  7  6  1  0  0  0  0
  8  7  1  0  0  0  0
  9 10  1  0  0  0  0
  9  7  2  0  0  0  0
 10  5  2  0  0  0  0
 11 10  1  0  0  0  0
 11  1  2  0  0  0  0
 13 14  1  0  0  0  0
 14 20  1  0  0  0  0
 14 15  2  0  0  0  0
 15 21  1  0  0  0  0
 16 15  1  0  0  0  0
 17 16  2  0  0  0  0
 18 13  2  0  0  0  0
 18 17  1  0  0  0  0
 19 13  1  0  0  0  0
M  END
>  <minimizedAffinity>
-4.86702776

$$$$

 OpenBabel03242510063D

 21 23  0  0  0  0  0  0  0  0999 V2000
   39.3620   30.4270   42.0220 C   0  0  0  0  0  3  0  0  0  0  0  0
   38.1130   29.9750   41.6450 C   0  0  0  0  0  0  0  0  0  0  0  0
   37.2060   30.7650   40.9480 C   0  0  0  0  0  0  0  0  0  0  0  0
   36.2290   30.4120   40.6530 H   0  0  0  0  0  0  0  0  0  0  0  0
   37.5490   32.0750   40.6030 C   0  0  0  0  0  0  0  0  0  0  0  0
   36.9500   33.1030   39.9510 N   0  0  0  0  0  0  0  0  0  0  0  0
   37.8130   34.1610   39.9290 C   0  0  0  0  0  0  0  0  0  0  0  0
   37.5600   35.1030   39.4610 H   0  0  0  0  0  0  0  0  0  0  0  0
   38.9380   33.7640   40.5730 N   0  0  0  0  0  0  0  0  0  0  0  0
   38.8050   32.4930   40.9950 C   0  0  0  0  0  0  0  0  0  0  0  0
   39.7240   31.7320   41.6870 C   0  0  0  0  0  3  0  0  0  0  0  0
   35.9870   33.0530   39.5470 H   0  0  0  0  0  0  0  0  0  0  0  0
   36.6470   27.0990   43.4180 C   0  0  0  0  0  0  0  0  0  0  0  0
   36.9440   26.0320   42.5560 C   0  0  0  0  0  0  0  0  0  0  0  0
   37.6480   26.3090   41.3660 C   0  0  0  0  0  0  0  0  0  0  0  0
   37.9980   27.6130   41.1310 N   0  0  0  0  0  0  0  0  0  0  0  0
   37.6990   28.6160   41.9780 C   0  0  0  0  0  0  0  0  0  0  0  0
   37.0290   28.3580   43.1110 N   0  0  0  0  0  0  0  0  0  0  0  0
   36.1110   26.8450   44.3070 H   0  0  0  0  0  0  0  0  0  0  0  0
   36.6290   25.0300   42.8190 H   0  0  0  0  0  0  0  0  0  0  0  0
   37.8890   25.5110   40.6890 H   0  0  0  0  0  0  0  0  0  0  0  0
  2 17  1  0  0  0  0
  2  1  2  0  0  0  0
  3  2  1  0  0  0  0
  4  3  1  0  0  0  0
  5  3  2  0  0  0  0
  5 10  1  0  0  0  0
  6  5  1  0  0  0  0
  7  6  1  0  0  0  0
  7  9  2  0  0  0  0
  8  7  1  0  0  0  0
  9 10  1  0  0  0  0
 10 11  2  0  0  0  0
 11  1  1  0  0  0  0
 12  6  1  0  0  0  0
 13 19  1  0  0  0  0
 14 20  1  0  0  0  0
 14 13  2  0  0  0  0
 15 14  1  0  0  0  0
 16 15  2  0  0  0  0
 16 17  1  0  0  0  0
 17 18  2  0  0  0  0
 18 13  1  0  0  0  0
 21 15  1  0  0  0  0
M  END
>  <minimizedAffinity>
-4.78044367

$$$$

 OpenBabel03242510063D

 21 23  0  0  0  0  0  0  0  0999 V2000
   41.2910   29.0300   42.6450 C   0  0  0  0  0  3  0  0  0  0  0  0
   40.6800   30.2600   42.5060 C   0  0  0  0  0  0  0  0  0  0  0  0
   39.3160   30.4490   42.7060 C   0  0  0  0  0  0  0  0  0  0  0  0
   38.8380   31.4110   42.5970 H   0  0  0  0  0  0  0  0  0  0  0  0
   38.5110   29.3650   43.0600 C   0  0  0  0  0  0  0  0  0  0  0  0
   37.1940   29.1700   43.3270 N   0  0  0  0  0  0  0  0  0  0  0  0
   37.0040   27.8510   43.6220 C   0  0  0  0  0  0  0  0  0  0  0  0
   36.0310   27.4490   43.8710 H   0  0  0  0  0  0  0  0  0  0  0  0
   38.2160   27.2490   43.5320 N   0  0  0  0  0  0  0  0  0  0  0  0
   39.1550   28.1500   43.1910 C   0  0  0  0  0  0  0  0  0  0  0  0
   40.5030   27.9330   42.9990 C   0  0  0  0  0  3  0  0  0  0  0  0
   36.4780   29.9300   43.3010 H   0  0  0  0  0  0  0  0  0  0  0  0
   41.8170   33.3180   40.7980 C   0  0  0  0  0  0  0  0  0  0  0  0
   43.0030   33.6200   41.4840 C   0  0  0  0  0  0  0  0  0  0  0  0
   43.4060   32.7700   42.5330 C   0  0  0  0  0  0  0  0  0  0  0  0
   42.6040   31.6950   42.8140 N   0  0  0  0  0  0  0  0  0  0  0  0
   41.4710   31.4290   42.1370 C   0  0  0  0  0  0  0  0  0  0  0  0
   41.0830   32.2350   41.1380 N   0  0  0  0  0  0  0  0  0  0  0  0
   41.5490   33.9880   40.0100 H   0  0  0  0  0  0  0  0  0  0  0  0
   43.5770   34.4930   41.1960 H   0  0  0  0  0  0  0  0  0  0  0  0
   44.3100   32.9790   43.0740 H   0  0  0  0  0  0  0  0  0  0  0  0
  1 11  1  0  0  0  0
  2  1  2  0  0  0  0
  2  3  1  0  0  0  0
  3  5  2  0  0  0  0
  4  3  1  0  0  0  0
  5 10  1  0  0  0  0
  5  6  1  0  0  0  0
  6  7  1  0  0  0  0
  7  8  1  0  0  0  0
  9  7  2  0  0  0  0
 10  9  1  0  0  0  0
 11 10  2  0  0  0  0
 12  6  1  0  0  0  0
 13 18  2  0  0  0  0
 13 14  1  0  0  0  0
 14 15  2  0  0  0  0
 15 16  1  0  0  0  0
 15 21  1  0  0  0  0
 17  2  1  0  0  0  0
 17 16  2  0  0  0  0
 18 17  1  0  0  0  0
 19 13  1  0  0  0  0
 20 14  1  0  0  0  0
M  END
>  <minimizedAffinity>
-4.57830954

$$$$

 OpenBabel03242510063D

 21 23  0  0  0  0  0  0  0  0999 V2000
   40.1180   29.7380   42.3270 C   0  0  0  0  0  3  0  0  0  0  0  0
   39.1040   30.4940   41.7710 C   0  0  0  0  0  0  0  0  0  0  0  0
   37.7720   30.0950   41.7900 C   0  0  0  0  0  0  0  0  0  0  0  0
   36.9790   30.6860   41.3560 H   0  0  0  0  0  0  0  0  0  0  0  0
   37.4200   28.8830   42.3880 C   0  0  0  0  0  0  0  0  0  0  0  0
   36.2710   28.1900   42.5910 N   0  0  0  0  0  0  0  0  0  0  0  0
   36.5730   27.0370   43.2550 C   0  0  0  0  0  0  0  0  0  0  0  0
   35.8180   26.3140   43.5320 H   0  0  0  0  0  0  0  0  0  0  0  0
   37.9150   27.0380   43.4520 N   0  0  0  0  0  0  0  0  0  0  0  0
   38.4580   28.1540   42.9330 C   0  0  0  0  0  0  0  0  0  0  0  0
   39.7860   28.5240   42.9290 C   0  0  0  0  0  3  0  0  0  0  0  0
   35.3300   28.5200   42.2770 H   0  0  0  0  0  0  0  0  0  0  0  0
   38.7240   33.8100   40.2160 C   0  0  0  0  0  0  0  0  0  0  0  0
   40.0520   34.1610   39.9300 C   0  0  0  0  0  0  0  0  0  0  0  0
   41.0730   33.2530   40.2740 C   0  0  0  0  0  0  0  0  0  0  0  0
   40.6960   32.0790   40.8710 N   0  0  0  0  0  0  0  0  0  0  0  0
   39.4120   31.7690   41.1330 C   0  0  0  0  0  0  0  0  0  0  0  0
   38.4360   32.6300   40.8070 N   0  0  0  0  0  0  0  0  0  0  0  0
   37.9810   34.5270   39.9390 H   0  0  0  0  0  0  0  0  0  0  0  0
   40.2620   35.1130   39.4550 H   0  0  0  0  0  0  0  0  0  0  0  0
   42.0990   33.4970   40.0660 H   0  0  0  0  0  0  0  0  0  0  0  0
  1 11  1  0  0  0  0
  2  3  1  0  0  0  0
  2  1  2  0  0  0  0
  3  5  2  0  0  0  0
  4  3  1  0  0  0  0
  5  6  1  0  0  0  0
  5 10  1  0  0  0  0
  6  7  1  0  0  0  0
  7  9  2  0  0  0  0
  7  8  1  0  0  0  0
 10  9  1  0  0  0  0
 11 10  2  0  0  0  0
 12  6  1  0  0  0  0
 13 18  1  0  0  0  0
 14 13  2  0  0  0  0
 14 15  1  0  0  0  0
 15 16  2  0  0  0  0
 16 17  1  0  0  0  0
 17  2  1  0  0  0  0
 18 17  2  0  0  0  0
 19 13  1  0  0  0  0
 20 14  1  0  0  0  0
 21 15  1  0  0  0  0
M  END
>  <minimizedAffinity>
-4.55373144

$$$$

 OpenBabel03242510063D

 21 23  0  0  0  0  0  0  0  0999 V2000
   37.1280   29.0190   38.7300 C   0  0  0  0  0  3  0  0  0  0  0  0
   37.0850   29.0230   40.1100 C   0  0  0  0  0  0  0  0  0  0  0  0
   37.0840   30.1940   40.8590 C   0  0  0  0  0  0  0  0  0  0  0  0
   37.0500   30.1970   41.9390 H   0  0  0  0  0  0  0  0  0  0  0  0
   37.1300   31.4310   40.2130 C   0  0  0  0  0  0  0  0  0  0  0  0
   37.1430   32.7340   40.5930 N   0  0  0  0  0  0  0  0  0  0  0  0
   37.1940   33.5110   39.4710 C   0  0  0  0  0  0  0  0  0  0  0  0
   37.2140   34.5910   39.5170 H   0  0  0  0  0  0  0  0  0  0  0  0
   37.2110   32.6670   38.4090 N   0  0  0  0  0  0  0  0  0  0  0  0
   37.1720   31.3900   38.8330 C   0  0  0  0  0  0  0  0  0  0  0  0
   37.1740   30.2450   38.0640 C   0  0  0  0  0  3  0  0  0  0  0  0
   37.1170   33.0490   41.5890 H   0  0  0  0  0  0  0  0  0  0  0  0
   36.9470   26.5720   42.8550 C   0  0  0  0  0  0  0  0  0  0  0  0
   36.9450   25.3500   42.1660 C   0  0  0  0  0  0  0  0  0  0  0  0
   36.9920   25.3750   40.7570 C   0  0  0  0  0  0  0  0  0  0  0  0
   37.0350   26.6030   40.1520 N   0  0  0  0  0  0  0  0  0  0  0  0
   37.0360   27.7600   40.8400 C   0  0  0  0  0  0  0  0  0  0  0  0
   36.9920   27.7420   42.1800 N   0  0  0  0  0  0  0  0  0  0  0  0
   36.9100   26.5070   43.9210 H   0  0  0  0  0  0  0  0  0  0  0  0
   36.9080   24.4220   42.7250 H   0  0  0  0  0  0  0  0  0  0  0  0
   36.9910   24.4540   40.2050 H   0  0  0  0  0  0  0  0  0  0  0  0
  1  2  1  0  0  0  0
  2 17  1  0  0  0  0
  2  3  2  0  0  0  0
  3  4  1  0  0  0  0
  5  6  1  0  0  0  0
  5  3  1  0  0  0  0
  6 12  1  0  0  0  0
  7  8  1  0  0  0  0
  7  6  1  0  0  0  0
  9 10  1  0  0  0  0
  9  7  2  0  0  0  0
 10  5  2  0  0  0  0
 11  1  2  0  0  0  0
 11 10  1  0  0  0  0
 13 19  1  0  0  0  0
 14 20  1  0  0  0  0
 14 13  2  0  0  0  0
 15 14  1  0  0  0  0
 16 15  2  0  0  0  0
 16 17  1  0  0  0  0
 17 18  2  0  0  0  0
 18 13  1  0  0  0  0
 21 15  1  0  0  0  0
M  END
>  <minimizedAffinity>
-4.46559715

$$$$

 OpenBabel03242510063D

 21 23  0  0  0  0  0  0  0  0999 V2000
   37.4650   28.7850   42.9240 C   0  0  0  0  0  3  0  0  0  0  0  0
   37.5740   29.0840   41.5800 C   0  0  0  0  0  0  0  0  0  0  0  0
   37.4670   28.1190   40.5850 C   0  0  0  0  0  0  0  0  0  0  0  0
   37.5520   28.3530   39.5340 H   0  0  0  0  0  0  0  0  0  0  0  0
   37.2420   26.7860   40.9320 C   0  0  0  0  0  0  0  0  0  0  0  0
   37.0870   25.6140   40.2660 N   0  0  0  0  0  0  0  0  0  0  0  0
   36.8880   24.6200   41.1800 C   0  0  0  0  0  0  0  0  0  0  0  0
   36.7380   23.5890   40.8900 H   0  0  0  0  0  0  0  0  0  0  0  0
   36.9240   25.2000   42.4060 N   0  0  0  0  0  0  0  0  0  0  0  0
   37.1380   26.5230   42.2840 C   0  0  0  0  0  0  0  0  0  0  0  0
   37.2400   27.4580   43.2930 C   0  0  0  0  0  3  0  0  0  0  0  0
   37.1200   25.5290   39.2240 H   0  0  0  0  0  0  0  0  0  0  0  0
   37.1160   32.3990   40.0440 C   0  0  0  0  0  0  0  0  0  0  0  0
   38.3090   33.0550   40.3860 C   0  0  0  0  0  0  0  0  0  0  0  0
   39.2660   32.3520   41.1450 C   0  0  0  0  0  0  0  0  0  0  0  0
   38.9640   31.0640   41.5010 N   0  0  0  0  0  0  0  0  0  0  0  0
   37.8100   30.4600   41.1570 C   0  0  0  0  0  0  0  0  0  0  0  0
   36.8960   31.1250   40.4350 N   0  0  0  0  0  0  0  0  0  0  0  0
   36.4180   32.9690   39.4690 H   0  0  0  0  0  0  0  0  0  0  0  0
   38.4660   34.0780   40.0630 H   0  0  0  0  0  0  0  0  0  0  0  0
   40.1870   32.8310   41.4210 H   0  0  0  0  0  0  0  0  0  0  0  0
  1 11  1  0  0  0  0
  2  1  2  0  0  0  0
  3  5  2  0  0  0  0
  3  2  1  0  0  0  0
  4  3  1  0  0  0  0
  5 10  1  0  0  0  0
  6  5  1  0  0  0  0
  6  7  1  0  0  0  0
  7  9  2  0  0  0  0
  8  7  1  0  0  0  0
 10  9  1  0  0  0  0
 10 11  2  0  0  0  0
 12  6  1  0  0  0  0
 13 14  2  0  0  0  0
 13 18  1  0  0  0  0
 14 15  1  0  0  0  0
 15 21  1  0  0  0  0
 15 16  2  0  0  0  0
 17 16  1  0  0  0  0
 17  2  1  0  0  0  0
 18 17  2  0  0  0  0
 19 13  1  0  0  0  0
 20 14  1  0  0  0  0
M  END
>  <minimizedAffinity>
-4.44175577

$$$$

 OpenBabel03242510063D

 21 23  0  0  0  0  0  0  0  0999 V2000
   38.9300   29.2840   39.9750 C   0  0  0  0  0  3  0  0  0  0  0  0
   38.8840   30.4140   40.7690 C   0  0  0  0  0  0  0  0  0  0  0  0
   38.2900   30.4260   42.0260 C   0  0  0  0  0  0  0  0  0  0  0  0
   38.2540   31.3090   42.6470 H   0  0  0  0  0  0  0  0  0  0  0  0
   37.7070   29.2610   42.5280 C   0  0  0  0  0  0  0  0  0  0  0  0
   37.0600   28.9030   43.6670 N   0  0  0  0  0  0  0  0  0  0  0  0
   36.7170   27.5850   43.5730 C   0  0  0  0  0  0  0  0  0  0  0  0
   36.1900   27.0670   44.3620 H   0  0  0  0  0  0  0  0  0  0  0  0
   37.1620   27.1480   42.3680 N   0  0  0  0  0  0  0  0  0  0  0  0
   37.7710   28.1510   41.7090 C   0  0  0  0  0  0  0  0  0  0  0  0
   38.3530   28.1090   40.4590 C   0  0  0  0  0  3  0  0  0  0  0  0
   36.8760   29.5570   44.4610 H   0  0  0  0  0  0  0  0  0  0  0  0
   40.9360   32.8150   38.8750 C   0  0  0  0  0  0  0  0  0  0  0  0
   40.5610   34.0420   39.4430 C   0  0  0  0  0  0  0  0  0  0  0  0
   39.6030   34.0370   40.4760 C   0  0  0  0  0  0  0  0  0  0  0  0
   39.0970   32.8230   40.8590 N   0  0  0  0  0  0  0  0  0  0  0  0
   39.4760   31.6600   40.2960 C   0  0  0  0  0  0  0  0  0  0  0  0
   40.3880   31.6590   39.3120 N   0  0  0  0  0  0  0  0  0  0  0  0
   41.6650   32.8640   38.0950 H   0  0  0  0  0  0  0  0  0  0  0  0
   41.0120   34.9580   39.0780 H   0  0  0  0  0  0  0  0  0  0  0  0
   39.2980   34.9630   40.9280 H   0  0  0  0  0  0  0  0  0  0  0  0
  1 11  2  0  0  0  0
  1  2  1  0  0  0  0
  2  3  2  0  0  0  0
  3  5  1  0  0  0  0
  3  4  1  0  0  0  0
  5  6  1  0  0  0  0
  6 12  1  0  0  0  0
  7  6  1  0  0  0  0
  7  8  1  0  0  0  0
  9  7  2  0  0  0  0
 10  9  1  0  0  0  0
 10  5  2  0  0  0  0
 11 10  1  0  0  0  0
 13 18  2  0  0  0  0
 13 14  1  0  0  0  0
 14 15  2  0  0  0  0
 15 16  1  0  0  0  0
 15 21  1  0  0  0  0
 17  2  1  0  0  0  0
 17 16  2  0  0  0  0
 18 17  1  0  0  0  0
 19 13  1  0  0  0  0
 20 14  1  0  0  0  0
M  END
>  <minimizedAffinity>
-4.30849743

$$$$

 OpenBabel03242510063D

 21 23  0  0  0  0  0  0  0  0999 V2000
   36.9290   29.0850   38.6110 C   0  0  0  0  0  3  0  0  0  0  0  0
   36.1390   28.9600   39.7370 C   0  0  0  0  0  0  0  0  0  0  0  0
   34.7510   28.8960   39.6800 C   0  0  0  0  0  0  0  0  0  0  0  0
   34.1340   28.7980   40.5600 H   0  0  0  0  0  0  0  0  0  0  0  0
   34.1050   28.9610   38.4430 C   0  0  0  0  0  0  0  0  0  0  0  0
   32.8200   28.9310   38.0080 N   0  0  0  0  0  0  0  0  0  0  0  0
   32.8220   29.0370   36.6470 C   0  0  0  0  0  0  0  0  0  0  0  0
   31.9090   29.0360   36.0670 H   0  0  0  0  0  0  0  0  0  0  0  0
   34.1190   29.1300   36.2620 N   0  0  0  0  0  0  0  0  0  0  0  0
   34.9250   29.0860   37.3390 C   0  0  0  0  0  0  0  0  0  0  0  0
   36.3020   29.1520   37.3660 C   0  0  0  0  0  3  0  0  0  0  0  0
   31.9940   28.8410   38.6430 H   0  0  0  0  0  0  0  0  0  0  0  0
   38.3030   29.6750   42.6300 C   0  0  0  0  0  0  0  0  0  0  0  0
   37.8930   28.7050   43.5580 C   0  0  0  0  0  0  0  0  0  0  0  0
   36.8720   27.8090   43.1830 C   0  0  0  0  0  0  0  0  0  0  0  0
   36.3440   27.9470   41.9260 N   0  0  0  0  0  0  0  0  0  0  0  0
   36.7590   28.8880   41.0570 C   0  0  0  0  0  0  0  0  0  0  0  0
   37.7300   29.7430   41.4080 N   0  0  0  0  0  0  0  0  0  0  0  0
   39.0790   30.3340   42.9560 H   0  0  0  0  0  0  0  0  0  0  0  0
   38.3640   28.6670   44.5330 H   0  0  0  0  0  0  0  0  0  0  0  0
   36.5390   27.0570   43.8740 H   0  0  0  0  0  0  0  0  0  0  0  0
  1  2  1  0  0  0  0
  2 17  1  0  0  0  0
  3  2  2  0  0  0  0
  3  4  1  0  0  0  0
  5  3  1  0  0  0  0
  6  5  1  0  0  0  0
  6 12  1  0  0  0  0
  7  6  1  0  0  0  0
  8  7  1  0  0  0  0
  9  7  2  0  0  0  0
  9 10  1  0  0  0  0
 10 11  1  0  0  0  0
 10  5  2  0  0  0  0
 11  1  2  0  0  0  0
 13 19  1  0  0  0  0
 13 14  1  0  0  0  0
 14 20  1  0  0  0  0
 15 14  2  0  0  0  0
 15 21  1  0  0  0  0
 16 15  1  0  0  0  0
 17 18  1  0  0  0  0
 17 16  2  0  0  0  0
 18 13  2  0  0  0  0
M  END
>  <minimizedAffinity>
-4.28011703

$$$$

 OpenBabel03242510063D

 21 23  0  0  0  0  0  0  0  0999 V2000
   36.9990   29.2550   41.9150 C   0  0  0  0  0  3  0  0  0  0  0  0
   38.1560   29.9790   41.7060 C   0  0  0  0  0  0  0  0  0  0  0  0
   39.4120   29.5140   42.0800 C   0  0  0  0  0  0  0  0  0  0  0  0
   40.3170   30.0800   41.9160 H   0  0  0  0  0  0  0  0  0  0  0  0
   39.5350   28.2670   42.6970 C   0  0  0  0  0  0  0  0  0  0  0  0
   40.5520   27.5120   43.1830 N   0  0  0  0  0  0  0  0  0  0  0  0
   40.0300   26.3530   43.6800 C   0  0  0  0  0  0  0  0  0  0  0  0
   40.6480   25.5850   44.1240 H   0  0  0  0  0  0  0  0  0  0  0  0
   38.6890   26.4120   43.4890 N   0  0  0  0  0  0  0  0  0  0  0  0
   38.3580   27.5710   42.8910 C   0  0  0  0  0  0  0  0  0  0  0  0
   37.1000   28.0060   42.5300 C   0  0  0  0  0  3  0  0  0  0  0  0
   41.5550   27.8060   43.1620 H   0  0  0  0  0  0  0  0  0  0  0  0
   36.9840   32.8400   39.7050 C   0  0  0  0  0  0  0  0  0  0  0  0
   38.0170   33.7730   39.8820 C   0  0  0  0  0  0  0  0  0  0  0  0
   39.1130   33.4120   40.6910 C   0  0  0  0  0  0  0  0  0  0  0  0
   39.0950   32.1630   41.2550 N   0  0  0  0  0  0  0  0  0  0  0  0
   38.0900   31.2890   41.0660 C   0  0  0  0  0  0  0  0  0  0  0  0
   37.0440   31.6260   40.2970 N   0  0  0  0  0  0  0  0  0  0  0  0
   36.1720   33.1540   39.0850 H   0  0  0  0  0  0  0  0  0  0  0  0
   37.9500   34.7410   39.3990 H   0  0  0  0  0  0  0  0  0  0  0  0
   39.9170   34.1080   40.8440 H   0  0  0  0  0  0  0  0  0  0  0  0
  1 11  1  0  0  0  0
  2  1  2  0  0  0  0
  2  3  1  0  0  0  0
  3  5  2  0  0  0  0
  4  3  1  0  0  0  0
  5 10  1  0  0  0  0
  5  6  1  0  0  0  0
  6  7  1  0  0  0  0
  7  8  1  0  0  0  0
  9  7  2  0  0  0  0
 10  9  1  0  0  0  0
 11 10  2  0  0  0  0
 12  6  1  0  0  0  0
 13 14  2  0  0  0  0
 13 18  1  0  0  0  0
 14 15  1  0  0  0  0
 15 21  1  0  0  0  0
 15 16  2  0  0  0  0
 17 16  1  0  0  0  0
 17  2  1  0  0  0  0
 18 17  2  0  0  0  0
 19 13  1  0  0  0  0
 20 14  1  0  0  0  0
M  END
>  <minimizedAffinity>
-4.27717686

$$$$
