
 OpenBabel03252501423D

 48 52  0  0  0  0  0  0  0  0999 V2000
   43.7260   33.2140   41.0840 C   0  0  0  0  0  0  0  0  0  0  0  0
   42.9490   33.1820   42.1110 O   0  0  0  0  0  0  0  0  0  0  0  0
   44.9950   33.7960   41.3760 N   0  0  0  0  0  0  0  0  0  0  0  0
   45.7520   33.8760   40.6940 H   0  0  0  0  0  0  0  0  0  0  0  0
   45.0020   34.2290   42.7610 C   0  0  0  0  0  0  0  0  0  0  0  0
   44.4790   35.3830   43.2530 C   0  0  0  0  0  0  0  0  0  0  0  0
   44.5860   35.6170   44.5990 C   0  0  0  0  0  0  0  0  0  0  0  0
   45.2040   34.6830   45.3510 N   0  0  0  0  0  0  0  0  0  0  0  0
   45.7180   33.5420   44.8440 C   0  0  0  0  0  0  0  0  0  0  0  0
   45.6170   33.3030   43.5160 N   0  0  0  0  0  0  0  0  0  0  0  0
   44.1750   36.5270   45.0000 H   0  0  0  0  0  0  0  0  0  0  0  0
   46.6410   32.9270   47.0300 C   0  0  0  0  0  0  0  0  0  0  0  0
   46.3850   32.5580   45.7250 C   0  0  0  0  0  0  0  0  0  0  0  0
   46.7210   31.3170   45.2060 C   0  0  0  0  0  0  0  0  0  0  0  0
   46.4880   31.1010   44.1730 H   0  0  0  0  0  0  0  0  0  0  0  0
   47.3410   30.4500   46.0860 C   0  0  0  0  0  0  0  0  0  0  0  0
   47.7520   29.1880   45.7810 N   0  0  0  0  0  0  0  0  0  0  0  0
   48.2950   28.7320   46.9480 C   0  0  0  0  0  0  0  0  0  0  0  0
   48.7200   27.7180   47.0080 H   0  0  0  0  0  0  0  0  0  0  0  0
   48.2190   29.6780   47.9250 N   0  0  0  0  0  0  0  0  0  0  0  0
   47.6140   30.7790   47.3940 C   0  0  0  0  0  0  0  0  0  0  0  0
   47.2700   32.0220   47.8900 C   0  0  0  0  0  0  0  0  0  0  0  0
   47.6850   28.6690   44.8940 H   0  0  0  0  0  0  0  0  0  0  0  0
   43.8620   36.2570   42.3250 N   0  0  0  0  0  0  0  0  0  0  0  0
   44.2140   36.7200   41.4670 H   0  0  0  0  0  0  0  0  0  0  0  0
   42.8610   36.4440   42.5900 H   0  0  0  0  0  0  0  0  0  0  0  0
   43.4370   32.7520   39.7980 O   0  0  0  0  0  0  0  0  0  0  0  0
   41.5780   30.5530   40.5380 Cl  0  0  0  0  0  0  0  0  0  0  0  0
   41.1910   31.9820   39.5980 C   0  0  0  0  0  0  0  0  0  0  0  0
   42.1380   32.9620   39.3030 C   0  0  0  0  0  0  0  0  0  0  0  0
   41.7880   34.0620   38.5650 C   0  0  0  0  0  0  0  0  0  0  0  0
   40.5120   34.2670   38.0800 C   0  0  0  0  0  0  0  0  0  0  0  0
   39.5390   33.2890   38.3670 C   0  0  0  0  0  0  0  0  0  0  0  0
   37.8900   33.4640   37.7920 Cl  0  0  0  0  0  0  0  0  0  0  0  0
   39.9290   32.1960   39.1120 C   0  0  0  0  0  0  0  0  0  0  0  0
   42.5920   34.7640   38.3890 H   0  0  0  0  0  0  0  0  0  0  0  0
   40.2600   35.1340   37.5060 H   0  0  0  0  0  0  0  0  0  0  0  0
   38.5080   32.3420   41.4300 F   0  0  0  0  0  0  0  0  0  0  0  0
   38.2230   31.2800   40.6030 C   0  0  0  0  0  0  0  0  0  0  0  0
   38.9300   31.1780   39.4150 C   0  0  0  0  0  0  0  0  0  0  0  0
   38.6080   30.0840   38.6050 C   0  0  0  0  0  0  0  0  0  0  0  0
   37.6340   29.1910   39.0200 C   0  0  0  0  0  0  0  0  0  0  0  0
   36.9600   29.3540   40.2290 C   0  0  0  0  0  0  0  0  0  0  0  0
   37.2480   30.4280   41.0660 C   0  0  0  0  0  0  0  0  0  0  0  0
   39.1600   30.0040   37.6800 H   0  0  0  0  0  0  0  0  0  0  0  0
   37.4470   28.3740   38.3350 H   0  0  0  0  0  0  0  0  0  0  0  0
   36.2080   28.6330   40.5100 H   0  0  0  0  0  0  0  0  0  0  0  0
   36.7530   30.5840   41.9960 H   0  0  0  0  0  0  0  0  0  0  0  0
  1  3  1  0  0  0  0
  1  2  2  0  0  0  0
  3  5  1  0  0  0  0
  4  3  1  0  0  0  0
  5  6  2  0  0  0  0
  5 10  1  0  0  0  0
  6  7  1  0  0  0  0
  7 11  1  0  0  0  0
  7  8  2  0  0  0  0
  9  8  1  0  0  0  0
  9 13  1  0  0  0  0
 10  9  2  0  0  0  0
 12 22  1  0  0  0  0
 13 12  2  0  0  0  0
 14 13  1  0  0  0  0
 14 16  2  0  0  0  0
 15 14  1  0  0  0  0
 16 21  1  0  0  0  0
 17 16  1  0  0  0  0
 17 18  1  0  0  0  0
 18 19  1  0  0  0  0
 18 20  2  0  0  0  0
 21 22  2  0  0  0  0
 21 20  1  0  0  0  0
 23 17  1  0  0  0  0
 24 26  1  0  0  0  0
 24  6  1  0  0  0  0
 25 24  1  0  0  0  0
 27  1  1  0  0  0  0
 29 28  1  0  0  0  0
 30 29  1  0  0  0  0
 30 27  1  0  0  0  0
 31 30  2  0  0  0  0
 32 33  2  0  0  0  0
 32 31  1  0  0  0  0
 33 35  1  0  0  0  0
 34 33  1  0  0  0  0
 35 40  1  0  0  0  0
 35 29  2  0  0  0  0
 36 31  1  0  0  0  0
 37 32  1  0  0  0  0
 39 44  1  0  0  0  0
 39 38  1  0  0  0  0
 40 39  2  0  0  0  0
 41 42  2  0  0  0  0
 41 40  1  0  0  0  0
 42 43  1  0  0  0  0
 43 47  1  0  0  0  0
 43 44  2  0  0  0  0
 44 48  1  0  0  0  0
 45 41  1  0  0  0  0
 46 42  1  0  0  0  0
M  END
>  <minimizedAffinity>
-7.56686163

>  <minimizedRMSD>
2.76788688

$$$$
