
 OpenBabel03252508173D

 50 55  0  0  1  0  0  0  0  0999 V2000
   46.7570   31.6080   48.2900 C   0  0  1  0  0  0  0  0  0  0  0  0
   46.3100   30.5620   49.2530 C   0  0  0  0  0  0  0  0  0  0  0  0
   47.5800   31.2440   49.4610 C   0  0  1  0  0  0  0  0  0  0  0  0
   46.0120   32.4550   48.2950 H   0  0  0  0  0  0  0  0  0  0  0  0
   46.3860   29.4850   48.9520 H   0  0  0  0  0  0  0  0  0  0  0  0
   45.4770   30.7230   49.9640 H   0  0  0  0  0  0  0  0  0  0  0  0
   47.6010   31.9930   50.2810 H   0  0  0  0  0  0  0  0  0  0  0  0
   48.8990   30.5790   49.2160 C   0  0  2  0  0  0  0  0  0  0  0  0
   49.6220   30.1620   50.5210 C   0  0  0  0  0  0  0  0  0  0  0  0
   50.1460   31.2900   49.7330 C   0  0  1  0  0  0  0  0  0  0  0  0
   49.0200   29.7940   48.4580 H   0  0  0  0  0  0  0  0  0  0  0  0
   49.1370   30.4050   51.4860 H   0  0  0  0  0  0  0  0  0  0  0  0
   50.2120   29.2520   50.5560 H   0  0  0  0  0  0  0  0  0  0  0  0
   49.9760   32.3140   50.1320 H   0  0  0  0  0  0  0  0  0  0  0  0
   52.4710   32.0000   49.1840 C   0  0  0  0  0  3  0  0  0  0  0  0
   51.4290   31.1090   49.0480 C   0  0  0  0  0  0  0  0  0  0  0  0
   51.6690   30.0120   48.2140 C   0  0  0  0  0  0  0  0  0  0  0  0
   50.8260   29.3100   48.1170 H   0  0  0  0  0  0  0  0  0  0  0  0
   52.8470   29.7800   47.5430 C   0  0  0  0  0  0  0  0  0  0  0  0
   53.2070   28.7710   46.7140 N   0  0  0  0  0  0  0  0  0  0  0  0
   54.4560   29.0530   46.3530 C   0  0  0  0  0  0  0  0  0  0  0  0
   55.0250   28.4300   45.6890 H   0  0  0  0  0  0  0  0  0  0  0  0
   54.8820   30.2100   46.9360 N   0  0  0  0  0  0  0  0  0  0  0  0
   53.8760   30.6840   47.6930 C   0  0  0  0  0  0  0  0  0  0  0  0
   53.6660   31.7830   48.5140 C   0  0  0  0  0  3  0  0  0  0  0  0
   52.6300   27.9400   46.4130 H   0  0  0  0  0  0  0  0  0  0  0  0
   47.1160   31.1040   46.9390 C   0  0  0  0  0  0  0  0  0  0  0  0
   48.0970   30.7060   46.7710 H   0  0  0  0  0  0  0  0  0  0  0  0
   46.3750   30.2860   46.6970 H   0  0  0  0  0  0  0  0  0  0  0  0
   46.0260   33.0550   46.1960 C   0  0  0  0  0  3  0  0  0  0  0  0
   46.8670   32.1590   45.8880 C   0  0  0  0  0  3  0  0  0  0  0  0
   44.5300   35.9460   44.4630 C   0  0  0  0  0  0  0  0  0  0  0  0
   45.1830   35.9530   43.2440 C   0  0  0  0  0  0  0  0  0  0  0  0
   46.1110   34.9710   43.0440 C   0  0  0  0  0  0  0  0  0  0  0  0
   46.3460   34.0550   44.0280 N   0  0  0  0  0  0  0  0  0  0  0  0
   45.6930   34.0790   45.2010 C   0  0  0  0  0  0  0  0  0  0  0  0
   44.7950   35.0320   45.3900 N   0  0  0  0  0  0  0  0  0  0  0  0
   43.7920   36.7350   44.6100 H   0  0  0  0  0  0  0  0  0  0  0  0
   45.0310   36.6450   42.4530 H   0  0  0  0  0  0  0  0  0  0  0  0
   46.8770   34.8480   41.8120 C   0  0  0  0  0  0  0  0  0  0  0  0
   48.0820   35.4480   41.5890 C   0  0  0  0  0  0  0  0  0  0  0  0
   48.8000   35.3250   40.4140 C   0  0  0  0  0  0  0  0  0  0  0  0
   48.2990   34.5580   39.3890 C   0  0  0  0  0  0  0  0  0  0  0  0
   47.0930   33.9320   39.5590 C   0  0  0  0  0  0  0  0  0  0  0  0
   46.4270   34.0960   40.7530 C   0  0  0  0  0  0  0  0  0  0  0  0
   48.5200   36.0720   42.3850 H   0  0  0  0  0  0  0  0  0  0  0  0
   49.7520   35.8190   40.2810 H   0  0  0  0  0  0  0  0  0  0  0  0
   48.8180   34.4270   38.4490 H   0  0  0  0  0  0  0  0  0  0  0  0
   46.6860   33.3210   38.7520 H   0  0  0  0  0  0  0  0  0  0  0  0
   45.4670   33.5600   40.8080 H   0  0  0  0  0  0  0  0  0  0  0  0
  1  4  1  1  0  0  0
  1  2  1  0  0  0  0
  1  3  1  0  0  0  0
  2  3  1  0  0  0  0
  2  6  1  0  0  0  0
  3  7  1  1  0  0  0
  5  2  1  0  0  0  0
  8 11  1  6  0  0  0
  8  3  1  0  0  0  0
  8 10  1  0  0  0  0
  8  9  1  0  0  0  0
  9 13  1  0  0  0  0
  9 12  1  0  0  0  0
 10 14  1  1  0  0  0
 10  9  1  0  0  0  0
 16 15  1  0  0  0  0
 16 10  1  0  0  0  0
 17 16  2  0  0  0  0
 18 17  1  0  0  0  0
 19 24  2  0  0  0  0
 19 17  1  0  0  0  0
 20 19  1  0  0  0  0
 21 20  1  0  0  0  0
 21 23  2  0  0  0  0
 22 21  1  0  0  0  0
 23 24  1  0  0  0  0
 24 25  1  0  0  0  0
 25 15  2  0  0  0  0
 26 20  1  0  0  0  0
 27  1  1  0  0  0  0
 28 27  1  0  0  0  0
 29 27  1  0  0  0  0
 31 30  2  0  0  0  0
 31 27  1  0  0  0  0
 32 38  1  0  0  0  0
 32 37  1  0  0  0  0
 33 32  2  0  0  0  0
 34 33  1  0  0  0  0
 34 35  2  0  0  0  0
 35 36  1  0  0  0  0
 36 37  2  0  0  0  0
 36 30  1  0  0  0  0
 39 33  1  0  0  0  0
 40 34  1  0  0  0  0
 41 40  1  0  0  0  0
 41 46  1  0  0  0  0
 42 41  2  0  0  0  0
 43 44  2  0  0  0  0
 43 42  1  0  0  0  0
 44 45  1  0  0  0  0
 45 50  1  0  0  0  0
 45 40  2  0  0  0  0
 47 42  1  0  0  0  0
 48 43  1  0  0  0  0
 49 44  1  0  0  0  0
M  END
>  <minimizedAffinity>
-6.75724125

>  <minimizedRMSD>
0.855146408

$$$$
