
 OpenBabel03252506563D

 41 46  0  0  0  0  0  0  0  0999 V2000
   47.1550   31.3340   45.1520 C   0  0  0  0  0  0  0  0  0  0  0  0
   46.8340   32.6880   45.1670 C   0  0  0  0  0  0  0  0  0  0  0  0
   46.2650   33.3030   46.2570 C   0  0  0  0  0  0  0  0  0  0  0  0
   45.9810   32.5810   47.4090 C   0  0  0  0  0  0  0  0  0  0  0  0
   45.4380   32.8490   48.6350 N   0  0  0  0  0  0  0  0  0  0  0  0
   45.4250   31.6950   49.3530 C   0  0  0  0  0  0  0  0  0  0  0  0
   45.9550   30.7380   48.5680 N   0  0  0  0  0  0  0  0  0  0  0  0
   46.3020   31.2470   47.3810 C   0  0  0  0  0  0  0  0  0  0  0  0
   46.8680   30.6040   46.3190 C   0  0  0  0  0  0  0  0  0  0  0  0
   47.6040   30.8420   44.3000 H   0  0  0  0  0  0  0  0  0  0  0  0
   46.0130   34.3560   46.2730 H   0  0  0  0  0  0  0  0  0  0  0  0
   45.1150   33.8160   48.8850 H   0  0  0  0  0  0  0  0  0  0  0  0
   45.0430   31.6340   50.3650 H   0  0  0  0  0  0  0  0  0  0  0  0
   46.4930   35.1760   42.4860 C   0  0  0  0  0  0  0  0  0  0  0  0
   47.6710   34.9840   41.7460 C   0  0  0  0  0  0  0  0  0  0  0  0
   48.5640   34.0080   42.1720 C   0  0  0  0  0  0  0  0  0  0  0  0
   48.2630   33.2740   43.2940 N   0  0  0  0  0  0  0  0  0  0  0  0
   47.1120   33.4930   43.9800 C   0  0  0  0  0  0  0  0  0  0  0  0
   46.2310   34.4300   43.5910 N   0  0  0  0  0  0  0  0  0  0  0  0
   45.7850   35.9290   42.1710 H   0  0  0  0  0  0  0  0  0  0  0  0
   47.8660   35.5820   40.8730 H   0  0  0  0  0  0  0  0  0  0  0  0
   49.4690   33.8490   41.6180 H   0  0  0  0  0  0  0  0  0  0  0  0
   47.1800   29.1610   46.3800 C   0  0  0  0  0  0  0  0  0  0  0  0
   48.4720   28.6460   46.4230 C   0  0  0  0  0  0  0  0  0  0  0  0
   48.2590   27.2610   46.4720 C   0  0  0  0  0  0  0  0  0  0  0  0
   46.8930   27.0240   46.4560 C   0  0  0  0  0  0  0  0  0  0  0  0
   46.2990   28.2040   46.3990 O   0  0  0  0  0  0  0  0  0  0  0  0
   49.3610   29.2600   46.4160 H   0  0  0  0  0  0  0  0  0  0  0  0
   49.0910   26.5650   46.5140 H   0  0  0  0  0  0  0  0  0  0  0  0
   45.9070   25.0950   47.6750 C   0  0  0  0  0  3  0  0  0  0  0  0
   46.3070   25.6890   46.4950 C   0  0  0  0  0  0  0  0  0  0  0  0
   46.1430   24.9790   45.3040 C   0  0  0  0  0  0  0  0  0  0  0  0
   46.4370   25.3870   44.3360 H   0  0  0  0  0  0  0  0  0  0  0  0
   45.5850   23.7170   45.3810 C   0  0  0  0  0  0  0  0  0  0  0  0
   45.2820   22.7630   44.4560 N   0  0  0  0  0  0  0  0  0  0  0  0
   44.7390   21.6780   45.0400 C   0  0  0  0  0  0  0  0  0  0  0  0
   44.4470   20.8370   44.4320 H   0  0  0  0  0  0  0  0  0  0  0  0
   44.6850   21.9220   46.3720 N   0  0  0  0  0  0  0  0  0  0  0  0
   45.1890   23.1420   46.5790 C   0  0  0  0  0  0  0  0  0  0  0  0
   45.3570   23.8510   47.7470 C   0  0  0  0  0  3  0  0  0  0  0  0
   45.4780   22.9320   43.4410 H   0  0  0  0  0  0  0  0  0  0  0  0
  1  2  2  0  0  0  0
  1  9  1  0  0  0  0
  2  3  1  0  0  0  0
  3 11  1  0  0  0  0
  3  4  2  0  0  0  0
  4  5  1  0  0  0  0
  5 12  1  0  0  0  0
  5  6  1  0  0  0  0
  6 13  1  0  0  0  0
  7  6  2  0  0  0  0
  8  4  1  0  0  0  0
  8  7  1  0  0  0  0
  9 23  1  0  0  0  0
  9  8  2  0  0  0  0
 10  1  1  0  0  0  0
 14 19  1  0  0  0  0
 15 16  1  0  0  0  0
 15 14  2  0  0  0  0
 16 17  2  0  0  0  0
 17 18  1  0  0  0  0
 18  2  1  0  0  0  0
 19 18  2  0  0  0  0
 20 14  1  0  0  0  0
 21 15  1  0  0  0  0
 22 16  1  0  0  0  0
 23 27  1  0  0  0  0
 23 24  2  0  0  0  0
 24 25  1  0  0  0  0
 25 29  1  0  0  0  0
 26 25  2  0  0  0  0
 26 31  1  0  0  0  0
 27 26  1  0  0  0  0
 28 24  1  0  0  0  0
 30 40  1  0  0  0  0
 31 30  2  0  0  0  0
 32 34  2  0  0  0  0
 32 31  1  0  0  0  0
 33 32  1  0  0  0  0
 34 39  1  0  0  0  0
 35 36  1  0  0  0  0
 35 34  1  0  0  0  0
 36 38  2  0  0  0  0
 37 36  1  0  0  0  0
 38 39  1  0  0  0  0
 39 40  2  0  0  0  0
 41 35  1  0  0  0  0
M  END
>  <minimizedAffinity>
-5.70792294

>  <minimizedRMSD>
0.385311306

$$$$
