
 OpenBabel03252508383D

 44 48  0  0  0  0  0  0  0  0999 V2000
   45.1210   33.9650   40.7280 C   0  0  0  0  0  0  0  0  0  0  0  0
   44.0750   33.6300   39.9180 C   0  0  0  0  0  0  0  0  0  0  0  0
   44.3750   33.1100   38.6880 C   0  0  0  0  0  0  0  0  0  0  0  0
   45.6600   32.9120   38.2360 C   0  0  0  0  0  0  0  0  0  0  0  0
   46.6880   33.2640   39.0850 C   0  0  0  0  0  0  0  0  0  0  0  0
   46.4370   33.7930   40.3380 C   0  0  0  0  0  0  0  0  0  0  0  0
   43.5530   32.8410   38.0390 H   0  0  0  0  0  0  0  0  0  0  0  0
   45.8280   32.5020   37.2640 H   0  0  0  0  0  0  0  0  0  0  0  0
   47.7120   33.1110   38.7340 H   0  0  0  0  0  0  0  0  0  0  0  0
   40.7920   35.2810   40.8050 C   0  0  0  0  0  0  0  0  0  0  0  0
   42.0950   35.1080   40.2940 C   0  0  0  0  0  0  0  0  0  0  0  0
   42.7320   33.8530   40.4320 C   0  0  0  0  0  0  0  0  0  0  0  0
   42.0100   32.9070   41.0610 N   0  0  0  0  0  0  0  0  0  0  0  0
   40.7820   33.0920   41.5360 C   0  0  0  0  0  0  0  0  0  0  0  0
   40.1760   34.2830   41.4070 N   0  0  0  0  0  0  0  0  0  0  0  0
   40.2030   36.5640   40.6390 N   0  0  0  0  0  0  0  0  0  0  0  0
   42.6370   35.9030   39.7930 H   0  0  0  0  0  0  0  0  0  0  0  0
   40.2560   32.2840   42.0350 H   0  0  0  0  0  0  0  0  0  0  0  0
   39.9170   37.0570   39.7500 H   0  0  0  0  0  0  0  0  0  0  0  0
   39.9840   37.1820   41.4510 H   0  0  0  0  0  0  0  0  0  0  0  0
   47.5900   34.1300   41.1470 C   0  0  0  0  0  0  0  0  0  0  0  0
   48.1390   35.3770   40.9120 C   0  0  0  0  0  0  0  0  0  0  0  0
   49.2470   35.8840   41.5860 C   0  0  0  0  0  0  0  0  0  0  0  0
   49.8210   35.0680   42.5490 C   0  0  0  0  0  0  0  0  0  0  0  0
   49.2900   33.8170   42.8030 C   0  0  0  0  0  0  0  0  0  0  0  0
   48.1890   33.3620   42.1060 C   0  0  0  0  0  0  0  0  0  0  0  0
   47.7550   36.0880   40.1730 H   0  0  0  0  0  0  0  0  0  0  0  0
   49.6710   36.8430   41.4080 H   0  0  0  0  0  0  0  0  0  0  0  0
   50.6850   35.4030   43.1090 H   0  0  0  0  0  0  0  0  0  0  0  0
   49.6970   33.1300   43.5480 H   0  0  0  0  0  0  0  0  0  0  0  0
   48.1710   31.0650   41.5290 C   0  0  0  0  0  3  0  0  0  0  0  0
   47.6140   32.0480   42.3550 C   0  0  0  0  0  0  0  0  0  0  0  0
   46.6450   31.6430   43.2480 C   0  0  0  0  0  0  0  0  0  0  0  0
   46.2740   32.4650   43.8440 H   0  0  0  0  0  0  0  0  0  0  0  0
   46.2640   30.3220   43.3000 C   0  0  0  0  0  0  0  0  0  0  0  0
   45.3550   29.7440   44.0880 N   0  0  0  0  0  0  0  0  0  0  0  0
   45.3140   28.4200   43.7910 C   0  0  0  0  0  0  0  0  0  0  0  0
   44.6720   27.6790   44.2620 H   0  0  0  0  0  0  0  0  0  0  0  0
   46.2170   28.2010   42.8060 N   0  0  0  0  0  0  0  0  0  0  0  0
   46.8130   29.3760   42.4930 C   0  0  0  0  0  0  0  0  0  0  0  0
   47.7860   29.7310   41.5830 C   0  0  0  0  0  3  0  0  0  0  0  0
   44.7560   30.1960   44.8210 H   0  0  0  0  0  0  0  0  0  0  0  0
   44.7090   34.9850   43.1100 N   0  0  0  0  0  0  0  0  0  0  0  0
   44.8890   34.5240   42.0440 C   0  0  0  0  0  0  0  0  0  0  0  0
  1 44  1  0  0  0  0
  2 12  1  0  0  0  0
  2  1  2  0  0  0  0
  3  2  1  0  0  0  0
  4  3  2  0  0  0  0
  4  5  1  0  0  0  0
  5  6  2  0  0  0  0
  6  1  1  0  0  0  0
  6 21  1  0  0  0  0
  7  3  1  0  0  0  0
  8  4  1  0  0  0  0
  9  5  1  0  0  0  0
 10 15  1  0  0  0  0
 11 12  1  0  0  0  0
 11 10  2  0  0  0  0
 12 13  2  0  0  0  0
 13 14  1  0  0  0  0
 14 18  1  0  0  0  0
 15 14  2  0  0  0  0
 16 10  1  0  0  0  0
 16 20  1  0  0  0  0
 17 11  1  0  0  0  0
 19 16  1  0  0  0  0
 21 26  1  0  0  0  0
 22 21  2  0  0  0  0
 22 23  1  0  0  0  0
 23 24  2  0  0  0  0
 24 25  1  0  0  0  0
 24 29  1  0  0  0  0
 25 30  1  0  0  0  0
 26 32  1  0  0  0  0
 26 25  2  0  0  0  0
 27 22  1  0  0  0  0
 28 23  1  0  0  0  0
 31 41  2  0  0  0  0
 31 32  1  0  0  0  0
 32 33  2  0  0  0  0
 33 35  1  0  0  0  0
 33 34  1  0  0  0  0
 35 36  1  0  0  0  0
 36 42  1  0  0  0  0
 37 36  1  0  0  0  0
 37 38  1  0  0  0  0
 39 37  2  0  0  0  0
 40 39  1  0  0  0  0
 40 35  2  0  0  0  0
 41 40  1  0  0  0  0
 44 43  3  0  0  0  0
M  END
>  <minimizedAffinity>
-6.1235981

>  <minimizedRMSD>
0.211951509

$$$$
