
 OpenBabel03242521353D

 34 38  0  0  0  0  0  0  0  0999 V2000
   35.0570   27.1970   35.8950 C   0  0  0  0  0  0  0  0  0  0  0  0
   35.7670   27.0430   37.1020 C   0  0  0  0  0  0  0  0  0  0  0  0
   35.3320   27.6930   38.2410 C   0  0  0  0  0  0  0  0  0  0  0  0
   34.2230   28.4670   38.1640 N   0  0  0  0  0  0  0  0  0  0  0  0
   33.5460   28.6060   36.9880 C   0  0  0  0  0  0  0  0  0  0  0  0
   33.9770   27.9690   35.8820 N   0  0  0  0  0  0  0  0  0  0  0  0
   35.4670   26.6530   35.0540 H   0  0  0  0  0  0  0  0  0  0  0  0
   36.6530   26.4500   37.2470 H   0  0  0  0  0  0  0  0  0  0  0  0
   36.6200   26.4160   39.8470 C   0  0  0  0  0  0  0  0  0  0  0  0
   35.9910   27.6020   39.5350 C   0  0  0  0  0  0  0  0  0  0  0  0
   36.0250   28.6190   40.4590 C   0  0  0  0  0  0  0  0  0  0  0  0
   36.6570   28.5110   41.6840 C   0  0  0  0  0  0  0  0  0  0  0  0
   36.8110   29.3630   42.7210 N   0  0  0  0  0  0  0  0  0  0  0  0
   37.5340   28.7140   43.6800 C   0  0  0  0  0  0  0  0  0  0  0  0
   37.8180   27.4650   43.2190 N   0  0  0  0  0  0  0  0  0  0  0  0
   37.2910   27.3130   41.9960 C   0  0  0  0  0  0  0  0  0  0  0  0
   37.2660   26.2910   41.0830 C   0  0  0  0  0  0  0  0  0  0  0  0
   36.6270   25.5890   39.1650 H   0  0  0  0  0  0  0  0  0  0  0  0
   35.5250   29.5440   40.1970 H   0  0  0  0  0  0  0  0  0  0  0  0
   36.4470   30.3470   42.7900 H   0  0  0  0  0  0  0  0  0  0  0  0
   37.7860   29.2100   44.6210 H   0  0  0  0  0  0  0  0  0  0  0  0
   37.7650   25.3580   41.3380 H   0  0  0  0  0  0  0  0  0  0  0  0
   31.9830   30.0330   35.7460 C   0  0  0  0  0  3  0  0  0  0  0  0
   32.3550   29.4470   36.9330 C   0  0  0  0  0  0  0  0  0  0  0  0
   31.6060   29.6480   38.0770 C   0  0  0  0  0  0  0  0  0  0  0  0
   31.9430   29.1660   38.9790 H   0  0  0  0  0  0  0  0  0  0  0  0
   30.4820   30.4460   38.0100 C   0  0  0  0  0  0  0  0  0  0  0  0
   29.6580   30.7310   39.0420 N   0  0  0  0  0  0  0  0  0  0  0  0
   28.7020   31.5420   38.5030 C   0  0  0  0  0  0  0  0  0  0  0  0
   27.8920   31.9340   39.1120 H   0  0  0  0  0  0  0  0  0  0  0  0
   28.9600   31.7300   37.1780 N   0  0  0  0  0  0  0  0  0  0  0  0
   30.0730   31.0520   36.8420 C   0  0  0  0  0  0  0  0  0  0  0  0
   30.8510   30.8220   35.7270 C   0  0  0  0  0  3  0  0  0  0  0  0
   29.7150   30.4170   40.0340 H   0  0  0  0  0  0  0  0  0  0  0  0
  1  2  1  0  0  0  0
  2  8  1  0  0  0  0
  2  3  2  0  0  0  0
  3 10  1  0  0  0  0
  4  3  1  0  0  0  0
  5  4  2  0  0  0  0
  6  1  2  0  0  0  0
  6  5  1  0  0  0  0
  7  1  1  0  0  0  0
  9 17  1  0  0  0  0
 10  9  2  0  0  0  0
 10 11  1  0  0  0  0
 11 12  2  0  0  0  0
 12 16  1  0  0  0  0
 12 13  1  0  0  0  0
 13 20  1  0  0  0  0
 13 14  1  0  0  0  0
 14 21  1  0  0  0  0
 15 14  2  0  0  0  0
 16 15  1  0  0  0  0
 17 22  1  0  0  0  0
 17 16  2  0  0  0  0
 18  9  1  0  0  0  0
 19 11  1  0  0  0  0
 23 24  1  0  0  0  0
 24  5  1  0  0  0  0
 24 25  2  0  0  0  0
 25 26  1  0  0  0  0
 27 25  1  0  0  0  0
 27 28  1  0  0  0  0
 28 34  1  0  0  0  0
 29 28  1  0  0  0  0
 29 30  1  0  0  0  0
 31 29  2  0  0  0  0
 32 31  1  0  0  0  0
 32 27  2  0  0  0  0
 33 23  2  0  0  0  0
 33 32  1  0  0  0  0
M  END
>  <minimizedAffinity>
-6.31957626

$$$$

 OpenBabel03242521353D

 34 38  0  0  0  0  0  0  0  0999 V2000
   37.0560   27.7980   43.6800 C   0  0  0  0  0  0  0  0  0  0  0  0
   36.8630   26.7070   42.8080 C   0  0  0  0  0  0  0  0  0  0  0  0
   36.9950   26.8880   41.4450 C   0  0  0  0  0  0  0  0  0  0  0  0
   37.3100   28.1200   40.9800 N   0  0  0  0  0  0  0  0  0  0  0  0
   37.4940   29.1660   41.8360 C   0  0  0  0  0  0  0  0  0  0  0  0
   37.3630   28.9820   43.1640 N   0  0  0  0  0  0  0  0  0  0  0  0
   36.9330   27.5670   44.7290 H   0  0  0  0  0  0  0  0  0  0  0  0
   36.6120   25.7020   43.0950 H   0  0  0  0  0  0  0  0  0  0  0  0
   36.7400   24.5350   40.9230 C   0  0  0  0  0  0  0  0  0  0  0  0
   36.8180   25.8320   40.4600 C   0  0  0  0  0  0  0  0  0  0  0  0
   36.7230   26.0440   39.1050 C   0  0  0  0  0  0  0  0  0  0  0  0
   36.5550   25.0250   38.1870 C   0  0  0  0  0  0  0  0  0  0  0  0
   36.4400   25.0050   36.8410 N   0  0  0  0  0  0  0  0  0  0  0  0
   36.2910   23.7020   36.4620 C   0  0  0  0  0  0  0  0  0  0  0  0
   36.3150   22.9320   37.5840 N   0  0  0  0  0  0  0  0  0  0  0  0
   36.4770   23.7180   38.6580 C   0  0  0  0  0  0  0  0  0  0  0  0
   36.5690   23.4920   40.0070 C   0  0  0  0  0  0  0  0  0  0  0  0
   36.8070   24.3090   41.9690 H   0  0  0  0  0  0  0  0  0  0  0  0
   36.7860   27.0690   38.7590 H   0  0  0  0  0  0  0  0  0  0  0  0
   36.4600   25.8330   36.1930 H   0  0  0  0  0  0  0  0  0  0  0  0
   36.1790   23.4370   35.4070 H   0  0  0  0  0  0  0  0  0  0  0  0
   36.5070   22.4660   40.3630 H   0  0  0  0  0  0  0  0  0  0  0  0
   36.8960   31.2000   40.6000 C   0  0  0  0  0  3  0  0  0  0  0  0
   37.8320   30.4840   41.3080 C   0  0  0  0  0  0  0  0  0  0  0  0
   39.0930   31.0050   41.5250 C   0  0  0  0  0  0  0  0  0  0  0  0
   39.7870   30.4020   42.0860 H   0  0  0  0  0  0  0  0  0  0  0  0
   39.3990   32.2520   41.0200 C   0  0  0  0  0  0  0  0  0  0  0  0
   40.5850   32.8840   41.1530 N   0  0  0  0  0  0  0  0  0  0  0  0
   40.4160   34.0710   40.4990 C   0  0  0  0  0  0  0  0  0  0  0  0
   41.2210   34.7980   40.4410 H   0  0  0  0  0  0  0  0  0  0  0  0
   39.1530   34.1340   39.9920 N   0  0  0  0  0  0  0  0  0  0  0  0
   38.4920   33.0040   40.3050 C   0  0  0  0  0  0  0  0  0  0  0  0
   37.2470   32.4430   40.1140 C   0  0  0  0  0  3  0  0  0  0  0  0
   41.4500   32.5640   41.6380 H   0  0  0  0  0  0  0  0  0  0  0  0
  1  7  1  0  0  0  0
  2  8  1  0  0  0  0
  2  1  2  0  0  0  0
  3  2  1  0  0  0  0
  4  3  2  0  0  0  0
  4  5  1  0  0  0  0
  5  6  2  0  0  0  0
  6  1  1  0  0  0  0
  9 18  1  0  0  0  0
 10  9  1  0  0  0  0
 10  3  1  0  0  0  0
 11 10  2  0  0  0  0
 12 16  2  0  0  0  0
 12 11  1  0  0  0  0
 13 12  1  0  0  0  0
 14 13  1  0  0  0  0
 14 15  2  0  0  0  0
 15 16  1  0  0  0  0
 16 17  1  0  0  0  0
 17 22  1  0  0  0  0
 17  9  2  0  0  0  0
 19 11  1  0  0  0  0
 20 13  1  0  0  0  0
 21 14  1  0  0  0  0
 23 24  1  0  0  0  0
 24 25  2  0  0  0  0
 24  5  1  0  0  0  0
 25 26  1  0  0  0  0
 27 28  1  0  0  0  0
 27 25  1  0  0  0  0
 28 34  1  0  0  0  0
 29 28  1  0  0  0  0
 30 29  1  0  0  0  0
 31 32  1  0  0  0  0
 31 29  2  0  0  0  0
 32 27  2  0  0  0  0
 33 32  1  0  0  0  0
 33 23  2  0  0  0  0
M  END
>  <minimizedAffinity>
-6.2083559

$$$$

 OpenBabel03242521353D

 34 38  0  0  0  0  0  0  0  0999 V2000
   39.2920   26.8830   43.6560 C   0  0  0  0  0  0  0  0  0  0  0  0
   39.0970   28.2060   43.2100 C   0  0  0  0  0  0  0  0  0  0  0  0
   38.4230   28.4370   42.0260 C   0  0  0  0  0  0  0  0  0  0  0  0
   37.9630   27.3760   41.3210 N   0  0  0  0  0  0  0  0  0  0  0  0
   38.1590   26.1020   41.7660 C   0  0  0  0  0  0  0  0  0  0  0  0
   38.8180   25.8840   42.9210 N   0  0  0  0  0  0  0  0  0  0  0  0
   39.8280   26.7940   44.5900 H   0  0  0  0  0  0  0  0  0  0  0  0
   39.4280   29.0990   43.7080 H   0  0  0  0  0  0  0  0  0  0  0  0
   36.9940   29.9450   40.7790 C   0  0  0  0  0  0  0  0  0  0  0  0
   38.1680   29.7610   41.4770 C   0  0  0  0  0  0  0  0  0  0  0  0
   39.0200   30.8310   41.6110 C   0  0  0  0  0  0  0  0  0  0  0  0
   38.7570   32.0800   41.0810 C   0  0  0  0  0  0  0  0  0  0  0  0
   39.4370   33.2480   41.0910 N   0  0  0  0  0  0  0  0  0  0  0  0
   38.6920   34.1610   40.4010 C   0  0  0  0  0  0  0  0  0  0  0  0
   37.5580   33.5420   39.9740 N   0  0  0  0  0  0  0  0  0  0  0  0
   37.5720   32.2630   40.3770 C   0  0  0  0  0  0  0  0  0  0  0  0
   36.7130   31.2040   40.2360 C   0  0  0  0  0  0  0  0  0  0  0  0
   36.2910   29.1460   40.6430 H   0  0  0  0  0  0  0  0  0  0  0  0
   39.9370   30.6680   42.1630 H   0  0  0  0  0  0  0  0  0  0  0  0
   40.3670   33.4340   41.5430 H   0  0  0  0  0  0  0  0  0  0  0  0
   39.0440   35.1890   40.2750 H   0  0  0  0  0  0  0  0  0  0  0  0
   35.7890   31.3590   39.6830 H   0  0  0  0  0  0  0  0  0  0  0  0
   38.2170   23.7310   41.1360 C   0  0  0  0  0  3  0  0  0  0  0  0
   37.6540   24.9760   40.9860 C   0  0  0  0  0  0  0  0  0  0  0  0
   36.6110   25.1710   40.1020 C   0  0  0  0  0  0  0  0  0  0  0  0
   36.2080   26.1660   40.0240 H   0  0  0  0  0  0  0  0  0  0  0  0
   36.1430   24.0980   39.3710 C   0  0  0  0  0  0  0  0  0  0  0  0
   35.1350   24.1380   38.4730 N   0  0  0  0  0  0  0  0  0  0  0  0
   35.0340   22.8560   38.0130 C   0  0  0  0  0  0  0  0  0  0  0  0
   34.2930   22.5860   37.2670 H   0  0  0  0  0  0  0  0  0  0  0  0
   35.9670   22.0780   38.6310 N   0  0  0  0  0  0  0  0  0  0  0  0
   36.6770   22.8330   39.4890 C   0  0  0  0  0  0  0  0  0  0  0  0
   37.7160   22.6870   40.3850 C   0  0  0  0  0  3  0  0  0  0  0  0
   34.5500   24.9480   38.1780 H   0  0  0  0  0  0  0  0  0  0  0  0
  1  7  1  0  0  0  0
  2  1  1  0  0  0  0
  2  8  1  0  0  0  0
  3  2  2  0  0  0  0
  4  5  2  0  0  0  0
  4  3  1  0  0  0  0
  5  6  1  0  0  0  0
  6  1  2  0  0  0  0
  9 10  1  0  0  0  0
 10 11  2  0  0  0  0
 10  3  1  0  0  0  0
 11 19  1  0  0  0  0
 12 13  1  0  0  0  0
 12 11  1  0  0  0  0
 13 20  1  0  0  0  0
 14 13  1  0  0  0  0
 15 16  1  0  0  0  0
 15 14  2  0  0  0  0
 16 12  2  0  0  0  0
 17 16  1  0  0  0  0
 17  9  2  0  0  0  0
 18  9  1  0  0  0  0
 21 14  1  0  0  0  0
 22 17  1  0  0  0  0
 24 23  1  0  0  0  0
 24  5  1  0  0  0  0
 25 24  2  0  0  0  0
 26 25  1  0  0  0  0
 27 32  2  0  0  0  0
 27 25  1  0  0  0  0
 28 27  1  0  0  0  0
 29 28  1  0  0  0  0
 29 31  2  0  0  0  0
 30 29  1  0  0  0  0
 31 32  1  0  0  0  0
 32 33  1  0  0  0  0
 33 23  2  0  0  0  0
 34 28  1  0  0  0  0
M  END
>  <minimizedAffinity>
-6.12250233

$$$$

 OpenBabel03242521353D

 34 38  0  0  0  0  0  0  0  0999 V2000
   35.4610   27.3200   35.8610 C   0  0  0  0  0  0  0  0  0  0  0  0
   34.2760   28.0730   35.7450 C   0  0  0  0  0  0  0  0  0  0  0  0
   33.6980   28.6200   36.8740 C   0  0  0  0  0  0  0  0  0  0  0  0
   34.2930   28.4150   38.0730 N   0  0  0  0  0  0  0  0  0  0  0  0
   35.4410   27.6840   38.1700 C   0  0  0  0  0  0  0  0  0  0  0  0
   35.9980   27.1530   37.0630 N   0  0  0  0  0  0  0  0  0  0  0  0
   35.8440   26.9300   34.9280 H   0  0  0  0  0  0  0  0  0  0  0  0
   33.7430   28.2820   34.8340 H   0  0  0  0  0  0  0  0  0  0  0  0
   32.0750   29.9480   35.6600 C   0  0  0  0  0  0  0  0  0  0  0  0
   32.4780   29.4130   36.8650 C   0  0  0  0  0  0  0  0  0  0  0  0
   31.7060   29.6580   37.9760 C   0  0  0  0  0  0  0  0  0  0  0  0
   30.5500   30.4150   37.9440 C   0  0  0  0  0  0  0  0  0  0  0  0
   29.6570   30.7760   38.8920 N   0  0  0  0  0  0  0  0  0  0  0  0
   28.6990   31.5350   38.2840 C   0  0  0  0  0  0  0  0  0  0  0  0
   29.0150   31.6320   36.9640 N   0  0  0  0  0  0  0  0  0  0  0  0
   30.1460   30.9540   36.7270 C   0  0  0  0  0  0  0  0  0  0  0  0
   30.9060   30.7160   35.6110 C   0  0  0  0  0  0  0  0  0  0  0  0
   32.6370   29.7890   34.7610 H   0  0  0  0  0  0  0  0  0  0  0  0
   32.0370   29.2300   38.9140 H   0  0  0  0  0  0  0  0  0  0  0  0
   29.6830   30.5260   39.9130 H   0  0  0  0  0  0  0  0  0  0  0  0
   27.8640   31.9450   38.8590 H   0  0  0  0  0  0  0  0  0  0  0  0
   30.5810   31.1430   34.6650 H   0  0  0  0  0  0  0  0  0  0  0  0
   36.6630   26.2760   39.7650 C   0  0  0  0  0  3  0  0  0  0  0  0
   36.0610   27.4770   39.4740 C   0  0  0  0  0  0  0  0  0  0  0  0
   36.0400   28.4940   40.4100 C   0  0  0  0  0  0  0  0  0  0  0  0
   35.5540   29.4130   40.1300 H   0  0  0  0  0  0  0  0  0  0  0  0
   36.6300   28.2850   41.6400 C   0  0  0  0  0  0  0  0  0  0  0  0
   36.6850   29.1820   42.6470 N   0  0  0  0  0  0  0  0  0  0  0  0
   37.3560   28.5350   43.6460 C   0  0  0  0  0  0  0  0  0  0  0  0
   37.5520   29.0240   44.5960 H   0  0  0  0  0  0  0  0  0  0  0  0
   37.6890   27.2810   43.2300 N   0  0  0  0  0  0  0  0  0  0  0  0
   37.2440   27.0970   41.9740 C   0  0  0  0  0  0  0  0  0  0  0  0
   37.2420   26.1130   41.0080 C   0  0  0  0  0  3  0  0  0  0  0  0
   36.3100   30.1540   42.6840 H   0  0  0  0  0  0  0  0  0  0  0  0
  1  6  1  0  0  0  0
  2  1  2  0  0  0  0
  2  3  1  0  0  0  0
  3  4  2  0  0  0  0
  4  5  1  0  0  0  0
  5 24  1  0  0  0  0
  6  5  2  0  0  0  0
  7  1  1  0  0  0  0
  8  2  1  0  0  0  0
  9 10  1  0  0  0  0
 10  3  1  0  0  0  0
 10 11  2  0  0  0  0
 11 19  1  0  0  0  0
 12 11  1  0  0  0  0
 12 13  1  0  0  0  0
 13 20  1  0  0  0  0
 14 21  1  0  0  0  0
 14 13  1  0  0  0  0
 15 14  2  0  0  0  0
 16 15  1  0  0  0  0
 16 12  2  0  0  0  0
 17  9  2  0  0  0  0
 17 16  1  0  0  0  0
 18  9  1  0  0  0  0
 22 17  1  0  0  0  0
 23 33  1  0  0  0  0
 24 23  2  0  0  0  0
 24 25  1  0  0  0  0
 25 27  2  0  0  0  0
 26 25  1  0  0  0  0
 27 32  1  0  0  0  0
 27 28  1  0  0  0  0
 28 34  1  0  0  0  0
 28 29  1  0  0  0  0
 29 30  1  0  0  0  0
 31 29  2  0  0  0  0
 32 31  1  0  0  0  0
 33 32  2  0  0  0  0
M  END
>  <minimizedAffinity>
-6.11572838

$$$$

 OpenBabel03242521353D

 34 38  0  0  0  0  0  0  0  0999 V2000
   33.5840   26.7970   36.6120 C   0  0  0  0  0  0  0  0  0  0  0  0
   32.5920   27.6660   36.1150 C   0  0  0  0  0  0  0  0  0  0  0  0
   32.5600   28.9810   36.5350 C   0  0  0  0  0  0  0  0  0  0  0  0
   33.4940   29.4040   37.4210 N   0  0  0  0  0  0  0  0  0  0  0  0
   34.4480   28.5510   37.8930 C   0  0  0  0  0  0  0  0  0  0  0  0
   34.4720   27.2690   37.4780 N   0  0  0  0  0  0  0  0  0  0  0  0
   33.5350   25.7860   36.2300 H   0  0  0  0  0  0  0  0  0  0  0  0
   31.8180   27.4100   35.4130 H   0  0  0  0  0  0  0  0  0  0  0  0
   30.8050   30.5720   37.0460 C   0  0  0  0  0  0  0  0  0  0  0  0
   31.5810   29.9590   36.0850 C   0  0  0  0  0  0  0  0  0  0  0  0
   31.3830   30.3070   34.7700 C   0  0  0  0  0  0  0  0  0  0  0  0
   30.4460   31.2400   34.3660 C   0  0  0  0  0  0  0  0  0  0  0  0
   30.0900   31.7240   33.1550 N   0  0  0  0  0  0  0  0  0  0  0  0
   29.0950   32.6370   33.3570 C   0  0  0  0  0  0  0  0  0  0  0  0
   28.8490   32.7040   34.6940 N   0  0  0  0  0  0  0  0  0  0  0  0
   29.6650   31.8560   35.3370 C   0  0  0  0  0  0  0  0  0  0  0  0
   29.8520   31.5180   36.6530 C   0  0  0  0  0  0  0  0  0  0  0  0
   30.9160   30.3400   38.0870 H   0  0  0  0  0  0  0  0  0  0  0  0
   32.0010   29.8160   34.0290 H   0  0  0  0  0  0  0  0  0  0  0  0
   30.4960   31.4570   32.2230 H   0  0  0  0  0  0  0  0  0  0  0  0
   28.6430   33.1660   32.5130 H   0  0  0  0  0  0  0  0  0  0  0  0
   29.2350   32.0070   37.4040 H   0  0  0  0  0  0  0  0  0  0  0  0
   36.3540   29.9880   38.4650 C   0  0  0  0  0  3  0  0  0  0  0  0
   35.4420   29.0320   38.8470 C   0  0  0  0  0  0  0  0  0  0  0  0
   35.4580   28.5240   40.1310 C   0  0  0  0  0  0  0  0  0  0  0  0
   34.7230   27.7780   40.3770 H   0  0  0  0  0  0  0  0  0  0  0  0
   36.4040   28.9880   41.0230 C   0  0  0  0  0  0  0  0  0  0  0  0
   36.5400   28.5840   42.3050 N   0  0  0  0  0  0  0  0  0  0  0  0
   37.5920   29.3110   42.7840 C   0  0  0  0  0  0  0  0  0  0  0  0
   37.9340   29.1930   43.8080 H   0  0  0  0  0  0  0  0  0  0  0  0
   38.0650   30.1270   41.7990 N   0  0  0  0  0  0  0  0  0  0  0  0
   37.3360   29.9440   40.6830 C   0  0  0  0  0  0  0  0  0  0  0  0
   37.2800   30.4220   39.3910 C   0  0  0  0  0  3  0  0  0  0  0  0
   35.9830   27.8800   42.8350 H   0  0  0  0  0  0  0  0  0  0  0  0
  1  6  1  0  0  0  0
  2  3  1  0  0  0  0
  2  1  2  0  0  0  0
  3  4  2  0  0  0  0
  4  5  1  0  0  0  0
  5 24  1  0  0  0  0
  6  5  2  0  0  0  0
  7  1  1  0  0  0  0
  8  2  1  0  0  0  0
  9 18  1  0  0  0  0
 10  3  1  0  0  0  0
 10  9  2  0  0  0  0
 11 10  1  0  0  0  0
 12 11  2  0  0  0  0
 12 16  1  0  0  0  0
 13 14  1  0  0  0  0
 13 12  1  0  0  0  0
 14 15  2  0  0  0  0
 15 16  1  0  0  0  0
 16 17  2  0  0  0  0
 17  9  1  0  0  0  0
 17 22  1  0  0  0  0
 19 11  1  0  0  0  0
 20 13  1  0  0  0  0
 21 14  1  0  0  0  0
 23 24  2  0  0  0  0
 23 33  1  0  0  0  0
 24 25  1  0  0  0  0
 25 26  1  0  0  0  0
 25 27  2  0  0  0  0
 27 28  1  0  0  0  0
 28 29  1  0  0  0  0
 28 34  1  0  0  0  0
 29 30  1  0  0  0  0
 31 29  2  0  0  0  0
 32 27  1  0  0  0  0
 32 31  1  0  0  0  0
 33 32  2  0  0  0  0
M  END
>  <minimizedAffinity>
-5.88685751

$$$$

 OpenBabel03242521353D

 34 38  0  0  0  0  0  0  0  0999 V2000
   34.0310   26.9310   36.3920 C   0  0  0  0  0  0  0  0  0  0  0  0
   34.8720   27.1520   37.5010 C   0  0  0  0  0  0  0  0  0  0  0  0
   34.6790   28.2640   38.2970 C   0  0  0  0  0  0  0  0  0  0  0  0
   33.6760   29.1200   37.9860 N   0  0  0  0  0  0  0  0  0  0  0  0
   32.8690   28.8930   36.9100 C   0  0  0  0  0  0  0  0  0  0  0  0
   33.0650   27.8050   36.1380 N   0  0  0  0  0  0  0  0  0  0  0  0
   34.2530   26.0380   35.8250 H   0  0  0  0  0  0  0  0  0  0  0  0
   35.6870   26.5240   37.8150 H   0  0  0  0  0  0  0  0  0  0  0  0
   35.4540   29.8840   39.9240 C   0  0  0  0  0  0  0  0  0  0  0  0
   35.4880   28.5850   39.4630 C   0  0  0  0  0  0  0  0  0  0  0  0
   36.2790   27.6790   40.1290 C   0  0  0  0  0  0  0  0  0  0  0  0
   37.0400   28.0060   41.2350 C   0  0  0  0  0  0  0  0  0  0  0  0
   37.8710   27.2930   42.0270 N   0  0  0  0  0  0  0  0  0  0  0  0
   38.3560   28.1410   42.9800 C   0  0  0  0  0  0  0  0  0  0  0  0
   37.8160   29.3710   42.7640 N   0  0  0  0  0  0  0  0  0  0  0  0
   37.0040   29.3180   41.6980 C   0  0  0  0  0  0  0  0  0  0  0  0
   36.2190   30.2310   41.0430 C   0  0  0  0  0  0  0  0  0  0  0  0
   34.8550   30.6330   39.4450 H   0  0  0  0  0  0  0  0  0  0  0  0
   36.2930   26.6640   39.7530 H   0  0  0  0  0  0  0  0  0  0  0  0
   38.1090   26.2730   41.9370 H   0  0  0  0  0  0  0  0  0  0  0  0
   39.0560   27.7850   43.7420 H   0  0  0  0  0  0  0  0  0  0  0  0
   36.1990   31.2540   41.4140 H   0  0  0  0  0  0  0  0  0  0  0  0
   30.9400   30.2490   37.5880 C   0  0  0  0  0  3  0  0  0  0  0  0
   31.7970   29.8310   36.5970 C   0  0  0  0  0  0  0  0  0  0  0  0
   31.6490   30.2950   35.3040 C   0  0  0  0  0  0  0  0  0  0  0  0
   32.3460   29.9350   34.5670 H   0  0  0  0  0  0  0  0  0  0  0  0
   30.6300   31.1820   35.0230 C   0  0  0  0  0  0  0  0  0  0  0  0
   30.3650   31.7160   33.8110 N   0  0  0  0  0  0  0  0  0  0  0  0
   29.2830   32.5230   34.0210 C   0  0  0  0  0  0  0  0  0  0  0  0
   28.8430   33.0910   33.2060 H   0  0  0  0  0  0  0  0  0  0  0  0
   28.9200   32.4620   35.3330 N   0  0  0  0  0  0  0  0  0  0  0  0
   29.7490   31.6270   35.9850 C   0  0  0  0  0  0  0  0  0  0  0  0
   29.9370   31.1380   37.2610 C   0  0  0  0  0  3  0  0  0  0  0  0
   30.8570   31.5660   32.9050 H   0  0  0  0  0  0  0  0  0  0  0  0
  1  2  1  0  0  0  0
  2  8  1  0  0  0  0
  2  3  2  0  0  0  0
  3 10  1  0  0  0  0
  4  3  1  0  0  0  0
  5  4  2  0  0  0  0
  6  1  2  0  0  0  0
  6  5  1  0  0  0  0
  7  1  1  0  0  0  0
  9 17  1  0  0  0  0
 10  9  2  0  0  0  0
 10 11  1  0  0  0  0
 11 12  2  0  0  0  0
 12 16  1  0  0  0  0
 12 13  1  0  0  0  0
 13 14  1  0  0  0  0
 14 21  1  0  0  0  0
 15 14  2  0  0  0  0
 16 15  1  0  0  0  0
 17 22  1  0  0  0  0
 17 16  2  0  0  0  0
 18  9  1  0  0  0  0
 19 11  1  0  0  0  0
 20 13  1  0  0  0  0
 24  5  1  0  0  0  0
 24 23  2  0  0  0  0
 25 24  1  0  0  0  0
 26 25  1  0  0  0  0
 27 25  2  0  0  0  0
 27 32  1  0  0  0  0
 28 29  1  0  0  0  0
 28 27  1  0  0  0  0
 29 31  2  0  0  0  0
 30 29  1  0  0  0  0
 31 32  1  0  0  0  0
 32 33  2  0  0  0  0
 33 23  1  0  0  0  0
 34 28  1  0  0  0  0
M  END
>  <minimizedAffinity>
-5.87153244

$$$$

 OpenBabel03242521353D

 34 38  0  0  0  0  0  0  0  0999 V2000
   36.2270   31.1330   39.4200 C   0  0  0  0  0  0  0  0  0  0  0  0
   37.4190   31.8500   39.1960 C   0  0  0  0  0  0  0  0  0  0  0  0
   38.6320   31.2890   39.5440 C   0  0  0  0  0  0  0  0  0  0  0  0
   38.6420   30.0510   40.0940 N   0  0  0  0  0  0  0  0  0  0  0  0
   37.4800   29.3680   40.3040 C   0  0  0  0  0  0  0  0  0  0  0  0
   36.3000   29.9230   39.9620 N   0  0  0  0  0  0  0  0  0  0  0  0
   35.3250   31.6470   39.1180 H   0  0  0  0  0  0  0  0  0  0  0  0
   37.4980   32.8330   38.7660 H   0  0  0  0  0  0  0  0  0  0  0  0
   40.7700   31.9960   40.4390 C   0  0  0  0  0  0  0  0  0  0  0  0
   39.9190   31.9420   39.3560 C   0  0  0  0  0  0  0  0  0  0  0  0
   40.3360   32.5060   38.1730 C   0  0  0  0  0  0  0  0  0  0  0  0
   41.5630   33.1220   38.0180 C   0  0  0  0  0  0  0  0  0  0  0  0
   42.1650   33.7280   36.9710 N   0  0  0  0  0  0  0  0  0  0  0  0
   43.3880   34.1610   37.3960 C   0  0  0  0  0  0  0  0  0  0  0  0
   43.5250   33.8130   38.7050 N   0  0  0  0  0  0  0  0  0  0  0  0
   42.4190   33.1750   39.1130 C   0  0  0  0  0  0  0  0  0  0  0  0
   42.0170   32.6160   40.2980 C   0  0  0  0  0  0  0  0  0  0  0  0
   40.4990   31.5730   41.3870 H   0  0  0  0  0  0  0  0  0  0  0  0
   39.6540   32.4550   37.3330 H   0  0  0  0  0  0  0  0  0  0  0  0
   41.7750   33.8520   36.0030 H   0  0  0  0  0  0  0  0  0  0  0  0
   44.0620   34.6870   36.7150 H   0  0  0  0  0  0  0  0  0  0  0  0
   42.6950   32.6630   41.1480 H   0  0  0  0  0  0  0  0  0  0  0  0
   36.9200   27.8120   42.1160 C   0  0  0  0  0  3  0  0  0  0  0  0
   37.5190   28.0370   40.8990 C   0  0  0  0  0  0  0  0  0  0  0  0
   38.1580   27.0090   40.2330 C   0  0  0  0  0  0  0  0  0  0  0  0
   38.6100   27.2400   39.2840 H   0  0  0  0  0  0  0  0  0  0  0  0
   38.1870   25.7540   40.8080 C   0  0  0  0  0  0  0  0  0  0  0  0
   38.7720   24.6600   40.2770 N   0  0  0  0  0  0  0  0  0  0  0  0
   38.5450   23.6710   41.1910 C   0  0  0  0  0  0  0  0  0  0  0  0
   38.9090   22.6610   41.0250 H   0  0  0  0  0  0  0  0  0  0  0  0
   37.8390   24.1780   42.2400 N   0  0  0  0  0  0  0  0  0  0  0  0
   37.6010   25.4850   42.0260 C   0  0  0  0  0  0  0  0  0  0  0  0
   36.9740   26.5410   42.6520 C   0  0  0  0  0  3  0  0  0  0  0  0
   39.2870   24.5620   39.3760 H   0  0  0  0  0  0  0  0  0  0  0  0
  1  6  1  0  0  0  0
  2  1  2  0  0  0  0
  2  3  1  0  0  0  0
  3  4  2  0  0  0  0
  4  5  1  0  0  0  0
  5 24  1  0  0  0  0
  6  5  2  0  0  0  0
  7  1  1  0  0  0  0
  8  2  1  0  0  0  0
  9 18  1  0  0  0  0
 10  3  1  0  0  0  0
 10  9  2  0  0  0  0
 11 10  1  0  0  0  0
 12 11  2  0  0  0  0
 12 16  1  0  0  0  0
 13 14  1  0  0  0  0
 13 12  1  0  0  0  0
 14 15  2  0  0  0  0
 15 16  1  0  0  0  0
 16 17  2  0  0  0  0
 17  9  1  0  0  0  0
 17 22  1  0  0  0  0
 19 11  1  0  0  0  0
 20 13  1  0  0  0  0
 21 14  1  0  0  0  0
 23 33  1  0  0  0  0
 24 23  2  0  0  0  0
 25 27  2  0  0  0  0
 25 24  1  0  0  0  0
 26 25  1  0  0  0  0
 27 32  1  0  0  0  0
 28 27  1  0  0  0  0
 28 29  1  0  0  0  0
 29 31  2  0  0  0  0
 30 29  1  0  0  0  0
 32 31  1  0  0  0  0
 32 33  2  0  0  0  0
 34 28  1  0  0  0  0
M  END
>  <minimizedAffinity>
-5.70138645

$$$$

 OpenBabel03242521353D

 34 38  0  0  0  0  0  0  0  0999 V2000
   36.9560   31.7900   38.8820 C   0  0  0  0  0  0  0  0  0  0  0  0
   36.6880   30.5070   39.4000 C   0  0  0  0  0  0  0  0  0  0  0  0
   37.6710   29.8310   40.0960 C   0  0  0  0  0  0  0  0  0  0  0  0
   38.8760   30.4260   40.2630 N   0  0  0  0  0  0  0  0  0  0  0  0
   39.1200   31.6680   39.7560 C   0  0  0  0  0  0  0  0  0  0  0  0
   38.1560   32.3220   39.0780 N   0  0  0  0  0  0  0  0  0  0  0  0
   36.1310   32.2470   38.3520 H   0  0  0  0  0  0  0  0  0  0  0  0
   35.7620   29.9680   39.3120 H   0  0  0  0  0  0  0  0  0  0  0  0
   37.7430   28.3590   42.0200 C   0  0  0  0  0  0  0  0  0  0  0  0
   37.4990   28.5050   40.6710 C   0  0  0  0  0  0  0  0  0  0  0  0
   37.1090   27.3970   39.9570 C   0  0  0  0  0  0  0  0  0  0  0  0
   36.9520   26.1460   40.5250 C   0  0  0  0  0  0  0  0  0  0  0  0
   36.5860   24.9460   40.0240 N   0  0  0  0  0  0  0  0  0  0  0  0
   36.6020   24.0500   41.0550 C   0  0  0  0  0  0  0  0  0  0  0  0
   36.9780   24.7140   42.1820 N   0  0  0  0  0  0  0  0  0  0  0  0
   37.2000   26.0020   41.8850 C   0  0  0  0  0  0  0  0  0  0  0  0
   37.5880   27.1000   42.6090 C   0  0  0  0  0  0  0  0  0  0  0  0
   38.0490   29.1890   42.6270 H   0  0  0  0  0  0  0  0  0  0  0  0
   36.9210   27.5300   38.8990 H   0  0  0  0  0  0  0  0  0  0  0  0
   36.3330   24.7270   39.0270 H   0  0  0  0  0  0  0  0  0  0  0  0
   36.3380   23.0020   40.8880 H   0  0  0  0  0  0  0  0  0  0  0  0
   37.7800   26.9750   43.6730 H   0  0  0  0  0  0  0  0  0  0  0  0
   41.1020   32.8170   38.8750 C   0  0  0  0  0  3  0  0  0  0  0  0
   40.4280   32.2860   39.9500 C   0  0  0  0  0  0  0  0  0  0  0  0
   40.9810   32.3330   41.2150 C   0  0  0  0  0  0  0  0  0  0  0  0
   40.4110   31.9020   42.0200 H   0  0  0  0  0  0  0  0  0  0  0  0
   42.2190   32.9200   41.3830 C   0  0  0  0  0  0  0  0  0  0  0  0
   42.8800   33.0380   42.5550 N   0  0  0  0  0  0  0  0  0  0  0  0
   44.0420   33.6770   42.2310 C   0  0  0  0  0  0  0  0  0  0  0  0
   44.7830   33.9090   42.9900 H   0  0  0  0  0  0  0  0  0  0  0  0
   44.0620   33.9300   40.8920 N   0  0  0  0  0  0  0  0  0  0  0  0
   42.9290   33.4640   40.3350 C   0  0  0  0  0  0  0  0  0  0  0  0
   42.3360   33.3940   39.0920 C   0  0  0  0  0  3  0  0  0  0  0  0
   42.5930   32.7220   43.5060 H   0  0  0  0  0  0  0  0  0  0  0  0
  1  6  2  0  0  0  0
  1  2  1  0  0  0  0
  2  3  2  0  0  0  0
  3  4  1  0  0  0  0
  3 10  1  0  0  0  0
  5 24  1  0  0  0  0
  5  4  2  0  0  0  0
  6  5  1  0  0  0  0
  7  1  1  0  0  0  0
  8  2  1  0  0  0  0
  9 17  1  0  0  0  0
  9 18  1  0  0  0  0
 10  9  2  0  0  0  0
 11 12  2  0  0  0  0
 11 10  1  0  0  0  0
 12 16  1  0  0  0  0
 13 12  1  0  0  0  0
 13 14  1  0  0  0  0
 14 15  2  0  0  0  0
 16 15  1  0  0  0  0
 16 17  2  0  0  0  0
 17 22  1  0  0  0  0
 19 11  1  0  0  0  0
 20 13  1  0  0  0  0
 21 14  1  0  0  0  0
 23 33  2  0  0  0  0
 23 24  1  0  0  0  0
 24 25  2  0  0  0  0
 25 27  1  0  0  0  0
 25 26  1  0  0  0  0
 27 28  1  0  0  0  0
 28 34  1  0  0  0  0
 29 28  1  0  0  0  0
 29 30  1  0  0  0  0
 31 29  2  0  0  0  0
 32 31  1  0  0  0  0
 32 27  2  0  0  0  0
 33 32  1  0  0  0  0
M  END
>  <minimizedAffinity>
-5.69093275

$$$$

 OpenBabel03242521353D

 34 38  0  0  0  0  0  0  0  0999 V2000
   37.6740   28.5230   43.6330 C   0  0  0  0  0  0  0  0  0  0  0  0
   37.5970   27.2210   43.0990 C   0  0  0  0  0  0  0  0  0  0  0  0
   38.0710   26.9740   41.8250 C   0  0  0  0  0  0  0  0  0  0  0  0
   38.6020   28.0000   41.1190 N   0  0  0  0  0  0  0  0  0  0  0  0
   38.6700   29.2550   41.6490 C   0  0  0  0  0  0  0  0  0  0  0  0
   38.2050   29.4880   42.8920 N   0  0  0  0  0  0  0  0  0  0  0  0
   37.2810   28.6260   44.6350 H   0  0  0  0  0  0  0  0  0  0  0  0
   37.1920   26.3550   43.5920 H   0  0  0  0  0  0  0  0  0  0  0  0
   36.9440   24.8670   41.4210 C   0  0  0  0  0  0  0  0  0  0  0  0
   38.0390   25.6690   41.1810 C   0  0  0  0  0  0  0  0  0  0  0  0
   39.0260   25.1920   40.3520 C   0  0  0  0  0  0  0  0  0  0  0  0
   38.9750   23.9490   39.7500 C   0  0  0  0  0  0  0  0  0  0  0  0
   39.8130   23.2910   38.9180 N   0  0  0  0  0  0  0  0  0  0  0  0
   39.2460   22.0810   38.6390 C   0  0  0  0  0  0  0  0  0  0  0  0
   38.0610   22.0080   39.3040 N   0  0  0  0  0  0  0  0  0  0  0  0
   37.8700   23.1410   39.9950 C   0  0  0  0  0  0  0  0  0  0  0  0
   36.8770   23.6050   40.8190 C   0  0  0  0  0  0  0  0  0  0  0  0
   36.1440   25.1870   42.0590 H   0  0  0  0  0  0  0  0  0  0  0  0
   39.8780   25.8360   40.1740 H   0  0  0  0  0  0  0  0  0  0  0  0
   40.7340   23.6360   38.5470 H   0  0  0  0  0  0  0  0  0  0  0  0
   39.7480   21.3680   37.9790 H   0  0  0  0  0  0  0  0  0  0  0  0
   36.0180   22.9650   41.0040 H   0  0  0  0  0  0  0  0  0  0  0  0
   39.4680   31.5670   41.4510 C   0  0  0  0  0  3  0  0  0  0  0  0
   39.2460   30.3420   40.8660 C   0  0  0  0  0  0  0  0  0  0  0  0
   39.5680   30.1340   39.5390 C   0  0  0  0  0  0  0  0  0  0  0  0
   39.3730   29.1570   39.1310 H   0  0  0  0  0  0  0  0  0  0  0  0
   40.1120   31.1710   38.8100 C   0  0  0  0  0  0  0  0  0  0  0  0
   40.4730   31.1140   37.5100 N   0  0  0  0  0  0  0  0  0  0  0  0
   40.9540   32.3620   37.2320 C   0  0  0  0  0  0  0  0  0  0  0  0
   41.3230   32.6110   36.2410 H   0  0  0  0  0  0  0  0  0  0  0  0
   40.8760   33.1370   38.3500 N   0  0  0  0  0  0  0  0  0  0  0  0
   40.3500   32.4140   39.3560 C   0  0  0  0  0  0  0  0  0  0  0  0
   40.0150   32.5750   40.6830 C   0  0  0  0  0  3  0  0  0  0  0  0
   40.4110   30.3140   36.8450 H   0  0  0  0  0  0  0  0  0  0  0  0
  1  7  1  0  0  0  0
  2  8  1  0  0  0  0
  2  1  1  0  0  0  0
  3  2  2  0  0  0  0
  4  5  2  0  0  0  0
  4  3  1  0  0  0  0
  5  6  1  0  0  0  0
  6  1  2  0  0  0  0
  9 18  1  0  0  0  0
 10  9  1  0  0  0  0
 10  3  1  0  0  0  0
 11 10  2  0  0  0  0
 12 16  2  0  0  0  0
 12 11  1  0  0  0  0
 13 12  1  0  0  0  0
 14 13  1  0  0  0  0
 14 15  2  0  0  0  0
 15 16  1  0  0  0  0
 16 17  1  0  0  0  0
 17 22  1  0  0  0  0
 17  9  2  0  0  0  0
 19 11  1  0  0  0  0
 20 13  1  0  0  0  0
 21 14  1  0  0  0  0
 24 23  1  0  0  0  0
 24  5  1  0  0  0  0
 25 24  2  0  0  0  0
 26 25  1  0  0  0  0
 27 32  2  0  0  0  0
 27 25  1  0  0  0  0
 28 27  1  0  0  0  0
 29 28  1  0  0  0  0
 29 31  2  0  0  0  0
 30 29  1  0  0  0  0
 31 32  1  0  0  0  0
 32 33  1  0  0  0  0
 33 23  2  0  0  0  0
 34 28  1  0  0  0  0
M  END
>  <minimizedAffinity>
-5.52558327

$$$$
