
 OpenBabel03252508333D

 35 38  0  0  1  0  0  0  0  0999 V2000
   44.2750   34.3920   41.8370 N   0  0  0  0  0  0  0  0  0  0  0  0
   44.3670   33.2710   40.9600 C   0  0  2  0  0  0  0  0  0  0  0  0
   43.9230   33.6100   39.5570 C   0  0  0  0  0  0  0  0  0  0  0  0
   42.6370   34.2340   39.5410 N   0  0  0  0  0  0  0  0  0  0  0  0
   42.4780   35.2910   40.4620 C   0  0  0  0  0  0  0  0  0  0  0  0
   43.7340   35.6000   41.2480 C   0  0  0  0  0  0  0  0  0  0  0  0
   45.4480   32.9900   40.8940 H   0  0  0  0  0  0  0  0  0  0  0  0
   44.6620   34.3300   39.1460 H   0  0  0  0  0  0  0  0  0  0  0  0
   43.9120   32.7270   38.9190 H   0  0  0  0  0  0  0  0  0  0  0  0
   41.9130   33.4970   39.7310 H   0  0  0  0  0  0  0  0  0  0  0  0
   41.6530   35.1870   41.1950 H   0  0  0  0  0  0  0  0  0  0  0  0
   42.2620   36.2180   39.8680 H   0  0  0  0  0  0  0  0  0  0  0  0
   44.4910   35.9070   40.4690 H   0  0  0  0  0  0  0  0  0  0  0  0
   43.4880   36.3990   41.9310 H   0  0  0  0  0  0  0  0  0  0  0  0
   44.1260   30.7820   41.2290 C   0  0  0  0  0  3  0  0  0  0  0  0
   43.6330   32.0660   41.3540 C   0  0  0  0  0  0  0  0  0  0  0  0
   42.3520   32.0620   41.9240 C   0  0  0  0  0  0  0  0  0  0  0  0
   41.8650   33.0390   42.0690 H   0  0  0  0  0  0  0  0  0  0  0  0
   41.6520   30.9530   42.3190 C   0  0  0  0  0  0  0  0  0  0  0  0
   40.4330   30.8200   42.8710 N   0  0  0  0  0  0  0  0  0  0  0  0
   40.2320   29.5030   43.0560 C   0  0  0  0  0  0  0  0  0  0  0  0
   39.2900   29.1510   43.5020 H   0  0  0  0  0  0  0  0  0  0  0  0
   41.3170   28.8450   42.6230 N   0  0  0  0  0  0  0  0  0  0  0  0
   42.2210   29.7150   42.1570 C   0  0  0  0  0  0  0  0  0  0  0  0
   43.4810   29.6220   41.6030 C   0  0  0  0  0  3  0  0  0  0  0  0
   39.7710   31.6070   43.1070 H   0  0  0  0  0  0  0  0  0  0  0  0
   44.3780   35.2680   44.0840 C   0  0  0  0  0  0  0  0  0  0  0  0
   44.7050   34.2620   43.1860 C   0  0  0  0  0  0  0  0  0  0  0  0
   45.4240   33.1910   43.6700 C   0  0  0  0  0  0  0  0  0  0  0  0
   45.7760   33.1600   44.9730 N   0  0  0  0  0  0  0  0  0  0  0  0
   45.4460   34.1470   45.8260 C   0  0  0  0  0  0  0  0  0  0  0  0
   44.7540   35.1860   45.3740 N   0  0  0  0  0  0  0  0  0  0  0  0
   43.8250   36.1690   43.8800 H   0  0  0  0  0  0  0  0  0  0  0  0
   45.7090   32.3940   43.0170 H   0  0  0  0  0  0  0  0  0  0  0  0
   45.7990   33.9800   46.8390 H   0  0  0  0  0  0  0  0  0  0  0  0
  1 28  1  0  0  0  0
  2  7  1  6  0  0  0
  2 16  1  0  0  0  0
  2  1  1  0  0  0  0
  3  2  1  0  0  0  0
  4  3  1  0  0  0  0
  4 10  1  0  0  0  0
  4  5  1  0  0  0  0
  5 11  1  0  0  0  0
  5  6  1  0  0  0  0
  6  1  1  0  0  0  0
  6 14  1  0  0  0  0
  8  3  1  0  0  0  0
  9  3  1  0  0  0  0
 12  5  1  0  0  0  0
 13  6  1  0  0  0  0
 15 16  2  0  0  0  0
 15 25  1  0  0  0  0
 16 17  1  0  0  0  0
 17 18  1  0  0  0  0
 17 19  2  0  0  0  0
 19 20  1  0  0  0  0
 20 21  1  0  0  0  0
 20 26  1  0  0  0  0
 21 22  1  0  0  0  0
 23 21  2  0  0  0  0
 24 19  1  0  0  0  0
 24 23  1  0  0  0  0
 25 24  2  0  0  0  0
 27 32  1  0  0  0  0
 28 29  1  0  0  0  0
 28 27  2  0  0  0  0
 29 30  2  0  0  0  0
 30 31  1  0  0  0  0
 31 35  1  0  0  0  0
 32 31  2  0  0  0  0
 33 27  1  0  0  0  0
 34 29  1  0  0  0  0
M  END
>  <minimizedAffinity>
-4.23018217

>  <minimizedRMSD>
0.234309211

$$$$
