
 OpenBabel03252508383D

 44 48  0  0  0  0  0  0  0  0999 V2000
   45.1200   33.9640   40.7290 C   0  0  0  0  0  0  0  0  0  0  0  0
   44.0740   33.6300   39.9190 C   0  0  0  0  0  0  0  0  0  0  0  0
   44.3740   33.1100   38.6880 C   0  0  0  0  0  0  0  0  0  0  0  0
   45.6580   32.9120   38.2360 C   0  0  0  0  0  0  0  0  0  0  0  0
   46.6870   33.2630   39.0850 C   0  0  0  0  0  0  0  0  0  0  0  0
   46.4360   33.7930   40.3380 C   0  0  0  0  0  0  0  0  0  0  0  0
   43.5520   32.8410   38.0390 H   0  0  0  0  0  0  0  0  0  0  0  0
   45.8270   32.5010   37.2650 H   0  0  0  0  0  0  0  0  0  0  0  0
   47.7110   33.1100   38.7340 H   0  0  0  0  0  0  0  0  0  0  0  0
   40.7910   35.2810   40.8060 C   0  0  0  0  0  0  0  0  0  0  0  0
   42.0940   35.1080   40.2940 C   0  0  0  0  0  0  0  0  0  0  0  0
   42.7310   33.8520   40.4320 C   0  0  0  0  0  0  0  0  0  0  0  0
   42.0090   32.9070   41.0620 N   0  0  0  0  0  0  0  0  0  0  0  0
   40.7810   33.0920   41.5370 C   0  0  0  0  0  0  0  0  0  0  0  0
   40.1750   34.2830   41.4080 N   0  0  0  0  0  0  0  0  0  0  0  0
   40.2020   36.5640   40.6400 N   0  0  0  0  0  0  0  0  0  0  0  0
   42.6360   35.9020   39.7940 H   0  0  0  0  0  0  0  0  0  0  0  0
   40.2550   32.2840   42.0360 H   0  0  0  0  0  0  0  0  0  0  0  0
   39.9160   37.0570   39.7510 H   0  0  0  0  0  0  0  0  0  0  0  0
   39.9830   37.1810   41.4520 H   0  0  0  0  0  0  0  0  0  0  0  0
   47.5890   34.1290   41.1470 C   0  0  0  0  0  0  0  0  0  0  0  0
   48.1380   35.3770   40.9120 C   0  0  0  0  0  0  0  0  0  0  0  0
   49.2460   35.8830   41.5860 C   0  0  0  0  0  0  0  0  0  0  0  0
   49.8200   35.0680   42.5500 C   0  0  0  0  0  0  0  0  0  0  0  0
   49.2890   33.8160   42.8030 C   0  0  0  0  0  0  0  0  0  0  0  0
   48.1880   33.3610   42.1060 C   0  0  0  0  0  0  0  0  0  0  0  0
   47.7540   36.0880   40.1740 H   0  0  0  0  0  0  0  0  0  0  0  0
   49.6710   36.8420   41.4080 H   0  0  0  0  0  0  0  0  0  0  0  0
   50.6840   35.4020   43.1090 H   0  0  0  0  0  0  0  0  0  0  0  0
   49.6960   33.1290   43.5480 H   0  0  0  0  0  0  0  0  0  0  0  0
   48.1700   31.0650   41.5290 C   0  0  0  0  0  3  0  0  0  0  0  0
   47.6130   32.0470   42.3550 C   0  0  0  0  0  0  0  0  0  0  0  0
   46.6440   31.6430   43.2490 C   0  0  0  0  0  0  0  0  0  0  0  0
   46.2730   32.4640   43.8450 H   0  0  0  0  0  0  0  0  0  0  0  0
   46.2630   30.3210   43.3010 C   0  0  0  0  0  0  0  0  0  0  0  0
   45.3550   29.7430   44.0890 N   0  0  0  0  0  0  0  0  0  0  0  0
   45.3130   28.4190   43.7910 C   0  0  0  0  0  0  0  0  0  0  0  0
   44.6710   27.6790   44.2630 H   0  0  0  0  0  0  0  0  0  0  0  0
   46.2150   28.2000   42.8060 N   0  0  0  0  0  0  0  0  0  0  0  0
   46.8110   29.3760   42.4940 C   0  0  0  0  0  0  0  0  0  0  0  0
   47.7840   29.7300   41.5820 C   0  0  0  0  0  3  0  0  0  0  0  0
   44.7560   30.1950   44.8220 H   0  0  0  0  0  0  0  0  0  0  0  0
   44.7080   34.9850   43.1100 N   0  0  0  0  0  0  0  0  0  0  0  0
   44.8880   34.5230   42.0450 C   0  0  0  0  0  0  0  0  0  0  0  0
  1 44  1  0  0  0  0
  2 12  1  0  0  0  0
  2  1  2  0  0  0  0
  3  2  1  0  0  0  0
  4  3  2  0  0  0  0
  4  5  1  0  0  0  0
  5  6  2  0  0  0  0
  6  1  1  0  0  0  0
  6 21  1  0  0  0  0
  7  3  1  0  0  0  0
  8  4  1  0  0  0  0
  9  5  1  0  0  0  0
 10 15  1  0  0  0  0
 11 12  1  0  0  0  0
 11 10  2  0  0  0  0
 12 13  2  0  0  0  0
 13 14  1  0  0  0  0
 14 18  1  0  0  0  0
 15 14  2  0  0  0  0
 16 10  1  0  0  0  0
 16 20  1  0  0  0  0
 17 11  1  0  0  0  0
 19 16  1  0  0  0  0
 21 26  1  0  0  0  0
 22 21  2  0  0  0  0
 22 23  1  0  0  0  0
 23 24  2  0  0  0  0
 24 25  1  0  0  0  0
 24 29  1  0  0  0  0
 25 30  1  0  0  0  0
 26 32  1  0  0  0  0
 26 25  2  0  0  0  0
 27 22  1  0  0  0  0
 28 23  1  0  0  0  0
 31 41  2  0  0  0  0
 31 32  1  0  0  0  0
 32 33  2  0  0  0  0
 33 35  1  0  0  0  0
 33 34  1  0  0  0  0
 35 36  1  0  0  0  0
 36 42  1  0  0  0  0
 37 36  1  0  0  0  0
 37 38  1  0  0  0  0
 39 37  2  0  0  0  0
 40 39  1  0  0  0  0
 40 35  2  0  0  0  0
 41 40  1  0  0  0  0
 44 43  3  0  0  0  0
M  END
>  <minimizedAffinity>
-6.12110662

>  <minimizedRMSD>
0.680845797

$$$$
