
 OpenBabel03242516013D

 31 34  0  0  0  0  0  0  0  0999 V2000
   44.9280   33.0610   41.1700 Cl  0  0  0  0  0  0  0  0  0  0  0  0
   46.4160   33.9670   40.9830 C   0  0  0  0  0  0  0  0  0  0  0  0
   46.8930   34.7540   41.9870 C   0  0  0  0  0  0  0  0  0  0  0  0
   48.0650   35.4180   41.7360 C   0  0  0  0  0  0  0  0  0  0  0  0
   48.7430   35.3240   40.5600 C   0  0  0  0  0  0  0  0  0  0  0  0
   48.2540   34.5260   39.5490 C   0  0  0  0  0  0  0  0  0  0  0  0
   47.0760   33.8470   39.7800 C   0  0  0  0  0  0  0  0  0  0  0  0
   48.4670   36.0540   42.5270 H   0  0  0  0  0  0  0  0  0  0  0  0
   49.6620   35.8830   40.4450 H   0  0  0  0  0  0  0  0  0  0  0  0
   48.8130   34.4800   38.6470 H   0  0  0  0  0  0  0  0  0  0  0  0
   45.4600   33.2260   37.9390 C   0  0  0  0  0  3  0  0  0  0  0  0
   46.6100   33.0210   38.6730 C   0  0  0  0  0  0  0  0  0  0  0  0
   47.3870   31.9150   38.3080 C   0  0  0  0  0  0  0  0  0  0  0  0
   48.3200   31.6470   38.8110 H   0  0  0  0  0  0  0  0  0  0  0  0
   47.0450   31.0720   37.2830 C   0  0  0  0  0  0  0  0  0  0  0  0
   47.5510   29.9700   36.7040 N   0  0  0  0  0  0  0  0  0  0  0  0
   46.7890   29.5260   35.7030 C   0  0  0  0  0  0  0  0  0  0  0  0
   46.8600   28.6990   35.0230 H   0  0  0  0  0  0  0  0  0  0  0  0
   45.7280   30.3800   35.6190 N   0  0  0  0  0  0  0  0  0  0  0  0
   45.8880   31.3110   36.5750 C   0  0  0  0  0  0  0  0  0  0  0  0
   45.0960   32.3890   36.9040 C   0  0  0  0  0  3  0  0  0  0  0  0
   48.4370   29.4990   36.9900 H   0  0  0  0  0  0  0  0  0  0  0  0
   44.4980   35.8860   44.6990 C   0  0  0  0  0  0  0  0  0  0  0  0
   45.2050   35.8330   43.4920 C   0  0  0  0  0  0  0  0  0  0  0  0
   46.1490   34.8330   43.2250 C   0  0  0  0  0  0  0  0  0  0  0  0
   46.3270   33.9260   44.2200 N   0  0  0  0  0  0  0  0  0  0  0  0
   45.6390   33.9900   45.3780 C   0  0  0  0  0  0  0  0  0  0  0  0
   44.7400   34.9460   45.6250 N   0  0  0  0  0  0  0  0  0  0  0  0
   43.7950   36.7110   44.7790 H   0  0  0  0  0  0  0  0  0  0  0  0
   45.0610   36.5530   42.7050 H   0  0  0  0  0  0  0  0  0  0  0  0
   45.8250   33.2270   46.1500 H   0  0  0  0  0  0  0  0  0  0  0  0
  2  1  1  0  0  0  0
  2  3  1  0  0  0  0
  3 25  1  0  0  0  0
  4  3  2  0  0  0  0
  4  8  1  0  0  0  0
  5  4  1  0  0  0  0
  6  7  1  0  0  0  0
  6  5  2  0  0  0  0
  7  2  2  0  0  0  0
  9  5  1  0  0  0  0
 10  6  1  0  0  0  0
 11 12  1  0  0  0  0
 12  7  1  0  0  0  0
 13 12  2  0  0  0  0
 13 14  1  0  0  0  0
 15 13  1  0  0  0  0
 16 22  1  0  0  0  0
 16 15  1  0  0  0  0
 17 16  1  0  0  0  0
 18 17  1  0  0  0  0
 19 17  2  0  0  0  0
 19 20  1  0  0  0  0
 20 21  1  0  0  0  0
 20 15  2  0  0  0  0
 21 11  2  0  0  0  0
 23 29  1  0  0  0  0
 23 28  1  0  0  0  0
 24 23  2  0  0  0  0
 25 24  1  0  0  0  0
 25 26  2  0  0  0  0
 26 27  1  0  0  0  0
 27 28  2  0  0  0  0
 27 31  1  0  0  0  0
 30 24  1  0  0  0  0
M  END
>  <minimizedAffinity>
-5.80379009

>  <minimizedRMSD>
0.250051737

$$$$
