
 OpenBabel03252509163D

 28 31  0  0  0  0  0  0  0  0999 V2000
   47.6020   31.0050   45.2530 C   0  0  0  0  0  0  0  0  0  0  0  0
   48.2990   29.8310   45.6410 C   0  0  0  0  0  0  0  0  0  0  0  0
   49.1270   29.2550   44.7350 C   0  0  0  0  0  0  0  0  0  0  0  0
   49.2670   29.8410   43.4480 C   0  0  0  0  0  0  0  0  0  0  0  0
   48.1450   31.3000   43.5430 S   0  0  0  0  0  0  0  0  0  0  0  0
   48.1620   29.4180   46.6290 H   0  0  0  0  0  0  0  0  0  0  0  0
   49.6980   28.3830   44.9000 H   0  0  0  0  0  0  0  0  0  0  0  0
   51.3170   29.9710   42.1600 C   0  0  0  0  0  3  0  0  0  0  0  0
   50.0480   29.4550   42.3350 C   0  0  0  0  0  0  0  0  0  0  0  0
   49.4850   28.5560   41.4530 C   0  0  0  0  0  0  0  0  0  0  0  0
   48.4890   28.1280   41.5570 H   0  0  0  0  0  0  0  0  0  0  0  0
   50.2350   28.1550   40.3420 C   0  0  0  0  0  0  0  0  0  0  0  0
   49.9260   27.2920   39.3310 N   0  0  0  0  0  0  0  0  0  0  0  0
   51.0210   27.2780   38.5220 C   0  0  0  0  0  0  0  0  0  0  0  0
   51.1670   26.7060   37.6000 H   0  0  0  0  0  0  0  0  0  0  0  0
   51.9640   28.1050   39.0280 N   0  0  0  0  0  0  0  0  0  0  0  0
   51.5040   28.6640   40.1570 C   0  0  0  0  0  0  0  0  0  0  0  0
   52.0500   29.5730   41.0640 C   0  0  0  0  0  3  0  0  0  0  0  0
   49.0510   26.7500   39.1840 H   0  0  0  0  0  0  0  0  0  0  0  0
   45.3320   32.1210   47.9850 C   0  0  0  0  0  0  0  0  0  0  0  0
   44.9460   33.3900   47.4770 C   0  0  0  0  0  0  0  0  0  0  0  0
   45.4780   33.7840   46.2470 C   0  0  0  0  0  0  0  0  0  0  0  0
   46.3380   32.9300   45.6010 N   0  0  0  0  0  0  0  0  0  0  0  0
   46.6740   31.7310   46.1270 C   0  0  0  0  0  0  0  0  0  0  0  0
   46.1760   31.3190   47.3200 N   0  0  0  0  0  0  0  0  0  0  0  0
   44.9390   31.7860   48.9360 H   0  0  0  0  0  0  0  0  0  0  0  0
   44.2730   34.0310   48.0080 H   0  0  0  0  0  0  0  0  0  0  0  0
   45.2330   34.7340   45.7940 H   0  0  0  0  0  0  0  0  0  0  0  0
  1  2  2  0  0  0  0
  1 24  1  0  0  0  0
  2  6  1  0  0  0  0
  3  7  1  0  0  0  0
  3  2  1  0  0  0  0
  4  5  1  0  0  0  0
  4  3  2  0  0  0  0
  5  1  1  0  0  0  0
  8  9  1  0  0  0  0
  9  4  1  0  0  0  0
 10 11  1  0  0  0  0
 10  9  2  0  0  0  0
 12 10  1  0  0  0  0
 13 12  1  0  0  0  0
 14 16  2  0  0  0  0
 14 13  1  0  0  0  0
 15 14  1  0  0  0  0
 16 17  1  0  0  0  0
 17 12  2  0  0  0  0
 17 18  1  0  0  0  0
 18  8  2  0  0  0  0
 19 13  1  0  0  0  0
 20 26  1  0  0  0  0
 21 20  1  0  0  0  0
 21 27  1  0  0  0  0
 22 21  2  0  0  0  0
 23 24  2  0  0  0  0
 23 22  1  0  0  0  0
 24 25  1  0  0  0  0
 25 20  2  0  0  0  0
 28 22  1  0  0  0  0
M  END
>  <minimizedAffinity>
-2.53590107

>  <minimizedRMSD>
7.46790552

$$$$
