
 OpenBabel03252506563D

 41 46  0  0  0  0  0  0  0  0999 V2000
   47.1440   31.3480   45.1400 C   0  0  0  0  0  0  0  0  0  0  0  0
   46.8350   32.7050   45.1600 C   0  0  0  0  0  0  0  0  0  0  0  0
   46.2750   33.3220   46.2530 C   0  0  0  0  0  0  0  0  0  0  0  0
   45.9880   32.5990   47.4040 C   0  0  0  0  0  0  0  0  0  0  0  0
   45.4510   32.8690   48.6330 N   0  0  0  0  0  0  0  0  0  0  0  0
   45.4300   31.7130   49.3470 C   0  0  0  0  0  0  0  0  0  0  0  0
   45.9480   30.7530   48.5580 N   0  0  0  0  0  0  0  0  0  0  0  0
   46.2970   31.2620   47.3700 C   0  0  0  0  0  0  0  0  0  0  0  0
   46.8530   30.6180   46.3050 C   0  0  0  0  0  0  0  0  0  0  0  0
   47.5850   30.8550   44.2840 H   0  0  0  0  0  0  0  0  0  0  0  0
   46.0330   34.3770   46.2730 H   0  0  0  0  0  0  0  0  0  0  0  0
   45.1380   33.8370   48.8870 H   0  0  0  0  0  0  0  0  0  0  0  0
   45.0500   31.6510   50.3600 H   0  0  0  0  0  0  0  0  0  0  0  0
   46.4990   35.1900   42.4740 C   0  0  0  0  0  0  0  0  0  0  0  0
   47.6830   35.0050   41.7440 C   0  0  0  0  0  0  0  0  0  0  0  0
   48.5790   34.0350   42.1770 C   0  0  0  0  0  0  0  0  0  0  0  0
   48.2740   33.2990   43.2980 N   0  0  0  0  0  0  0  0  0  0  0  0
   47.1170   33.5120   43.9740 C   0  0  0  0  0  0  0  0  0  0  0  0
   46.2330   34.4420   43.5780 N   0  0  0  0  0  0  0  0  0  0  0  0
   45.7880   35.9390   42.1550 H   0  0  0  0  0  0  0  0  0  0  0  0
   47.8820   35.6030   40.8720 H   0  0  0  0  0  0  0  0  0  0  0  0
   49.4890   33.8810   41.6300 H   0  0  0  0  0  0  0  0  0  0  0  0
   47.1520   29.1720   46.3600 C   0  0  0  0  0  0  0  0  0  0  0  0
   48.4380   28.6460   46.4290 C   0  0  0  0  0  0  0  0  0  0  0  0
   48.2130   27.2620   46.4610 C   0  0  0  0  0  0  0  0  0  0  0  0
   46.8460   27.0360   46.4110 C   0  0  0  0  0  0  0  0  0  0  0  0
   46.2630   28.2220   46.3510 O   0  0  0  0  0  0  0  0  0  0  0  0
   49.3330   29.2520   46.4480 H   0  0  0  0  0  0  0  0  0  0  0  0
   49.0390   26.5590   46.5160 H   0  0  0  0  0  0  0  0  0  0  0  0
   44.9090   25.5020   46.6880 C   0  0  0  0  0  3  0  0  0  0  0  0
   46.2480   25.7050   46.4250 C   0  0  0  0  0  0  0  0  0  0  0  0
   47.0530   24.5930   46.1660 C   0  0  0  0  0  0  0  0  0  0  0  0
   48.1180   24.6820   45.9510 H   0  0  0  0  0  0  0  0  0  0  0  0
   46.4520   23.3490   46.1880 C   0  0  0  0  0  0  0  0  0  0  0  0
   46.9070   22.0800   45.9890 N   0  0  0  0  0  0  0  0  0  0  0  0
   45.9120   21.1820   46.1220 C   0  0  0  0  0  0  0  0  0  0  0  0
   46.1220   20.1340   45.9910 H   0  0  0  0  0  0  0  0  0  0  0  0
   44.7840   21.8730   46.4140 N   0  0  0  0  0  0  0  0  0  0  0  0
   45.1030   23.1690   46.4550 C   0  0  0  0  0  0  0  0  0  0  0  0
   44.3220   24.2730   46.7090 C   0  0  0  0  0  3  0  0  0  0  0  0
   47.9170   21.9110   45.7630 H   0  0  0  0  0  0  0  0  0  0  0  0
  1  2  2  0  0  0  0
  1  9  1  0  0  0  0
  2  3  1  0  0  0  0
  3 11  1  0  0  0  0
  3  4  2  0  0  0  0
  4  5  1  0  0  0  0
  5 12  1  0  0  0  0
  5  6  1  0  0  0  0
  6 13  1  0  0  0  0
  7  6  2  0  0  0  0
  8  4  1  0  0  0  0
  8  7  1  0  0  0  0
  9 23  1  0  0  0  0
  9  8  2  0  0  0  0
 10  1  1  0  0  0  0
 14 19  1  0  0  0  0
 15 16  1  0  0  0  0
 15 14  2  0  0  0  0
 16 17  2  0  0  0  0
 17 18  1  0  0  0  0
 18  2  1  0  0  0  0
 19 18  2  0  0  0  0
 20 14  1  0  0  0  0
 21 15  1  0  0  0  0
 22 16  1  0  0  0  0
 23 24  2  0  0  0  0
 24 28  1  0  0  0  0
 24 25  1  0  0  0  0
 25 29  1  0  0  0  0
 26 31  1  0  0  0  0
 26 25  2  0  0  0  0
 27 23  1  0  0  0  0
 27 26  1  0  0  0  0
 30 40  1  0  0  0  0
 31 30  2  0  0  0  0
 32 34  2  0  0  0  0
 32 31  1  0  0  0  0
 33 32  1  0  0  0  0
 34 39  1  0  0  0  0
 35 36  1  0  0  0  0
 35 34  1  0  0  0  0
 36 38  2  0  0  0  0
 37 36  1  0  0  0  0
 38 39  1  0  0  0  0
 39 40  2  0  0  0  0
 41 35  1  0  0  0  0
M  END
>  <minimizedAffinity>
-5.75994635

>  <minimizedRMSD>
0.398013562

$$$$
