
 OpenBabel03242516153D

 44 48  0  0  0  0  0  0  0  0999 V2000
   36.4620   29.4190   39.5430 C   0  0  0  0  0  0  0  0  0  0  0  0
   35.8230   28.5340   40.6160 C   0  0  0  0  0  0  0  0  0  0  0  0
   35.0160   29.3400   39.7270 C   0  0  0  0  0  0  0  0  0  0  0  0
   36.0250   28.8470   41.6810 H   0  0  0  0  0  0  0  0  0  0  0  0
   35.8840   27.4340   40.5110 H   0  0  0  0  0  0  0  0  0  0  0  0
   34.4080   30.1440   40.1990 H   0  0  0  0  0  0  0  0  0  0  0  0
   34.4060   28.7870   38.9610 H   0  0  0  0  0  0  0  0  0  0  0  0
   37.1010   28.6450   38.4470 C   0  0  0  0  0  0  0  0  0  0  0  0
   38.3990   29.2330   37.9040 C   0  0  0  0  0  0  0  0  0  0  0  0
   38.9220   28.1500   36.9430 C   0  0  0  0  0  0  0  0  0  0  0  0
   38.1300   28.1930   35.8090 O   0  0  0  0  0  0  0  0  0  0  0  0
   36.9040   27.6160   36.2330 C   0  0  0  0  0  0  0  0  0  0  0  0
   36.2090   28.5500   37.2160 C   0  0  0  0  0  0  0  0  0  0  0  0
   37.3380   27.6010   38.7400 H   0  0  0  0  0  0  0  0  0  0  0  0
   38.2760   30.1610   37.3560 H   0  0  0  0  0  0  0  0  0  0  0  0
   39.1520   29.2490   38.7200 H   0  0  0  0  0  0  0  0  0  0  0  0
   38.9680   27.1720   37.4400 H   0  0  0  0  0  0  0  0  0  0  0  0
   39.9420   28.4910   36.6400 H   0  0  0  0  0  0  0  0  0  0  0  0
   37.2120   26.6980   36.7950 H   0  0  0  0  0  0  0  0  0  0  0  0
   36.2700   27.3350   35.3860 H   0  0  0  0  0  0  0  0  0  0  0  0
   35.2970   27.9900   37.5400 H   0  0  0  0  0  0  0  0  0  0  0  0
   35.9830   29.5160   36.7600 H   0  0  0  0  0  0  0  0  0  0  0  0
   36.8930   31.8960   39.5590 C   0  0  0  0  0  0  0  0  0  0  0  0
   37.1910   30.6200   40.0470 C   0  0  0  0  0  0  0  0  0  0  0  0
   38.2050   30.5440   41.0200 C   0  0  0  0  0  0  0  0  0  0  0  0
   38.8230   31.6820   41.4210 N   0  0  0  0  0  0  0  0  0  0  0  0
   38.4890   32.8730   40.9130 C   0  0  0  0  0  0  0  0  0  0  0  0
   37.5440   32.9880   39.9990 N   0  0  0  0  0  0  0  0  0  0  0  0
   39.1230   34.0650   41.3220 N   0  0  0  0  0  0  0  0  0  0  0  0
   36.1150   31.9850   38.8080 H   0  0  0  0  0  0  0  0  0  0  0  0
   38.5170   34.7850   41.7760 H   0  0  0  0  0  0  0  0  0  0  0  0
   40.1500   34.1740   41.1570 H   0  0  0  0  0  0  0  0  0  0  0  0
   38.1300   29.0820   42.8950 C   0  0  0  0  0  3  0  0  0  0  0  0
   38.6950   29.3320   41.6310 C   0  0  0  0  0  0  0  0  0  0  0  0
   39.5790   28.3490   41.2580 C   0  0  0  0  0  0  0  0  0  0  0  0
   39.9910   28.5480   40.2840 H   0  0  0  0  0  0  0  0  0  0  0  0
   39.8810   27.2610   42.0100 C   0  0  0  0  0  0  0  0  0  0  0  0
   40.7310   26.2610   41.7170 N   0  0  0  0  0  0  0  0  0  0  0  0
   40.6890   25.4230   42.7690 C   0  0  0  0  0  0  0  0  0  0  0  0
   41.2740   24.5150   42.8250 H   0  0  0  0  0  0  0  0  0  0  0  0
   39.8450   25.8860   43.6800 N   0  0  0  0  0  0  0  0  0  0  0  0
   39.3220   27.0400   43.2320 C   0  0  0  0  0  0  0  0  0  0  0  0
   38.4210   27.9830   43.6790 C   0  0  0  0  0  3  0  0  0  0  0  0
   41.3120   26.1470   40.8490 H   0  0  0  0  0  0  0  0  0  0  0  0
  1  3  1  0  0  0  0
  1 24  1  0  0  0  0
  1  2  1  0  0  0  0
  2  4  1  0  0  0  0
  3  6  1  0  0  0  0
  3  2  1  0  0  0  0
  5  2  1  0  0  0  0
  7  3  1  0  0  0  0
  8 14  1  0  0  0  0
  8  1  1  0  0  0  0
  9  8  1  0  0  0  0
  9 16  1  0  0  0  0
 10 17  1  0  0  0  0
 10  9  1  0  0  0  0
 11 12  1  0  0  0  0
 11 10  1  0  0  0  0
 12 19  1  0  0  0  0
 12 13  1  0  0  0  0
 13 21  1  0  0  0  0
 13  8  1  0  0  0  0
 15  9  1  0  0  0  0
 18 10  1  0  0  0  0
 20 12  1  0  0  0  0
 22 13  1  0  0  0  0
 23 28  2  0  0  0  0
 23 24  1  0  0  0  0
 24 25  2  0  0  0  0
 25 26  1  0  0  0  0
 25 34  1  0  0  0  0
 27 29  1  0  0  0  0
 27 26  2  0  0  0  0
 28 27  1  0  0  0  0
 29 31  1  0  0  0  0
 30 23  1  0  0  0  0
 32 29  1  0  0  0  0
 33 43  1  0  0  0  0
 34 33  2  0  0  0  0
 35 34  1  0  0  0  0
 35 37  2  0  0  0  0
 36 35  1  0  0  0  0
 37 42  1  0  0  0  0
 38 37  1  0  0  0  0
 38 39  1  0  0  0  0
 39 40  1  0  0  0  0
 39 41  2  0  0  0  0
 42 43  2  0  0  0  0
 42 41  1  0  0  0  0
 44 38  1  0  0  0  0
M  END
>  <minimizedAffinity>
-5.98458242

$$$$

 OpenBabel03242516153D

 44 48  0  0  0  0  0  0  0  0999 V2000
   37.6240   27.4170   42.4370 C   0  0  0  0  0  0  0  0  0  0  0  0
   36.7300   27.3930   43.6800 C   0  0  0  0  0  0  0  0  0  0  0  0
   37.3380   28.6200   43.2130 C   0  0  0  0  0  0  0  0  0  0  0  0
   37.1460   26.8230   44.5610 H   0  0  0  0  0  0  0  0  0  0  0  0
   35.6480   27.1970   43.5600 H   0  0  0  0  0  0  0  0  0  0  0  0
   38.0710   29.1030   43.8960 H   0  0  0  0  0  0  0  0  0  0  0  0
   36.6450   29.3900   42.7750 H   0  0  0  0  0  0  0  0  0  0  0  0
   36.8790   27.1700   41.1740 C   0  0  0  0  0  0  0  0  0  0  0  0
   37.5480   26.2060   40.2010 C   0  0  0  0  0  0  0  0  0  0  0  0
   36.4890   25.9950   39.1030 C   0  0  0  0  0  0  0  0  0  0  0  0
   36.4610   27.1480   38.3370 O   0  0  0  0  0  0  0  0  0  0  0  0
   35.8060   28.0900   39.1730 C   0  0  0  0  0  0  0  0  0  0  0  0
   36.7050   28.4410   40.3530 C   0  0  0  0  0  0  0  0  0  0  0  0
   35.8590   26.7700   41.3480 H   0  0  0  0  0  0  0  0  0  0  0  0
   38.4570   26.5850   39.7470 H   0  0  0  0  0  0  0  0  0  0  0  0
   37.6280   25.2090   40.6860 H   0  0  0  0  0  0  0  0  0  0  0  0
   35.5240   25.7020   39.5370 H   0  0  0  0  0  0  0  0  0  0  0  0
   36.8960   25.1830   38.4520 H   0  0  0  0  0  0  0  0  0  0  0  0
   34.9200   27.5350   39.5730 H   0  0  0  0  0  0  0  0  0  0  0  0
   35.4690   28.9690   38.6140 H   0  0  0  0  0  0  0  0  0  0  0  0
   36.0870   29.1300   40.9820 H   0  0  0  0  0  0  0  0  0  0  0  0
   37.6450   28.8860   40.0230 H   0  0  0  0  0  0  0  0  0  0  0  0
   39.0660   25.4890   43.1590 C   0  0  0  0  0  0  0  0  0  0  0  0
   38.9550   26.7590   42.5850 C   0  0  0  0  0  0  0  0  0  0  0  0
   40.1550   27.3630   42.1680 C   0  0  0  0  0  0  0  0  0  0  0  0
   41.3240   26.7010   42.3420 N   0  0  0  0  0  0  0  0  0  0  0  0
   41.3610   25.4860   42.9000 C   0  0  0  0  0  0  0  0  0  0  0  0
   40.2590   24.8840   43.3050 N   0  0  0  0  0  0  0  0  0  0  0  0
   42.5710   24.7840   43.0860 N   0  0  0  0  0  0  0  0  0  0  0  0
   38.1570   24.9990   43.4900 H   0  0  0  0  0  0  0  0  0  0  0  0
   42.6650   23.8730   42.5820 H   0  0  0  0  0  0  0  0  0  0  0  0
   43.3050   25.1970   43.7050 H   0  0  0  0  0  0  0  0  0  0  0  0
   40.3070   28.6580   40.1780 C   0  0  0  0  0  3  0  0  0  0  0  0
   40.2760   28.6780   41.5850 C   0  0  0  0  0  0  0  0  0  0  0  0
   40.3530   29.9560   42.0850 C   0  0  0  0  0  0  0  0  0  0  0  0
   40.3140   29.9530   43.1600 H   0  0  0  0  0  0  0  0  0  0  0  0
   40.4490   31.0740   41.3240 C   0  0  0  0  0  0  0  0  0  0  0  0
   40.5280   32.3520   41.7340 N   0  0  0  0  0  0  0  0  0  0  0  0
   40.6060   33.0950   40.6150 C   0  0  0  0  0  0  0  0  0  0  0  0
   40.6810   34.1730   40.6250 H   0  0  0  0  0  0  0  0  0  0  0  0
   40.5750   32.3060   39.5500 N   0  0  0  0  0  0  0  0  0  0  0  0
   40.4770   31.0310   39.9630 C   0  0  0  0  0  0  0  0  0  0  0  0
   40.4040   29.7830   39.3820 C   0  0  0  0  0  3  0  0  0  0  0  0
   40.5300   32.7080   42.7230 H   0  0  0  0  0  0  0  0  0  0  0  0
  1 24  1  0  0  0  0
  1  3  1  0  0  0  0
  1  2  1  0  0  0  0
  2  4  1  0  0  0  0
  3  2  1  0  0  0  0
  3  6  1  0  0  0  0
  5  2  1  0  0  0  0
  7  3  1  0  0  0  0
  8 14  1  0  0  0  0
  8  1  1  0  0  0  0
  9 16  1  0  0  0  0
  9  8  1  0  0  0  0
 10 17  1  0  0  0  0
 10  9  1  0  0  0  0
 11 10  1  0  0  0  0
 11 12  1  0  0  0  0
 12 19  1  0  0  0  0
 12 13  1  0  0  0  0
 13 21  1  0  0  0  0
 13  8  1  0  0  0  0
 15  9  1  0  0  0  0
 18 10  1  0  0  0  0
 20 12  1  0  0  0  0
 22 13  1  0  0  0  0
 23 28  1  0  0  0  0
 23 30  1  0  0  0  0
 24 23  2  0  0  0  0
 25 26  2  0  0  0  0
 25 24  1  0  0  0  0
 26 27  1  0  0  0  0
 27 29  1  0  0  0  0
 27 28  2  0  0  0  0
 29 32  1  0  0  0  0
 31 29  1  0  0  0  0
 33 34  1  0  0  0  0
 34 35  2  0  0  0  0
 34 25  1  0  0  0  0
 35 36  1  0  0  0  0
 37 38  1  0  0  0  0
 37 35  1  0  0  0  0
 38 44  1  0  0  0  0
 39 40  1  0  0  0  0
 39 38  1  0  0  0  0
 41 42  1  0  0  0  0
 41 39  2  0  0  0  0
 42 37  2  0  0  0  0
 43 42  1  0  0  0  0
 43 33  2  0  0  0  0
M  END
>  <minimizedAffinity>
-5.9107666

$$$$

 OpenBabel03242516153D

 44 48  0  0  0  0  0  0  0  0999 V2000
   37.9770   27.9650   42.4890 C   0  0  0  0  0  0  0  0  0  0  0  0
   36.6380   27.3830   42.9460 C   0  0  0  0  0  0  0  0  0  0  0  0
   37.2850   28.4480   43.6800 C   0  0  0  0  0  0  0  0  0  0  0  0
   36.6730   26.3120   43.3000 H   0  0  0  0  0  0  0  0  0  0  0  0
   35.7350   27.5650   42.3310 H   0  0  0  0  0  0  0  0  0  0  0  0
   37.6060   28.2130   44.7190 H   0  0  0  0  0  0  0  0  0  0  0  0
   36.7920   29.4580   43.6420 H   0  0  0  0  0  0  0  0  0  0  0  0
   37.8800   28.7400   41.2230 C   0  0  0  0  0  0  0  0  0  0  0  0
   39.2070   29.0210   40.5270 C   0  0  0  0  0  0  0  0  0  0  0  0
   38.7930   29.6500   39.1840 C   0  0  0  0  0  0  0  0  0  0  0  0
   38.3690   30.9400   39.4510 O   0  0  0  0  0  0  0  0  0  0  0  0
   37.1040   30.7560   40.0690 C   0  0  0  0  0  0  0  0  0  0  0  0
   37.2920   30.1270   41.4450 C   0  0  0  0  0  0  0  0  0  0  0  0
   37.2360   28.2460   40.4660 H   0  0  0  0  0  0  0  0  0  0  0  0
   39.8540   29.7120   41.0560 H   0  0  0  0  0  0  0  0  0  0  0  0
   39.6680   28.0530   40.2350 H   0  0  0  0  0  0  0  0  0  0  0  0
   38.0620   29.0190   38.6620 H   0  0  0  0  0  0  0  0  0  0  0  0
   39.7380   29.7340   38.5930 H   0  0  0  0  0  0  0  0  0  0  0  0
   36.5860   30.0060   39.4190 H   0  0  0  0  0  0  0  0  0  0  0  0
   36.5240   31.6840   40.0970 H   0  0  0  0  0  0  0  0  0  0  0  0
   36.2520   29.9630   41.8240 H   0  0  0  0  0  0  0  0  0  0  0  0
   37.8930   30.7630   42.0980 H   0  0  0  0  0  0  0  0  0  0  0  0
   40.1980   27.4050   43.5240 C   0  0  0  0  0  0  0  0  0  0  0  0
   39.1600   27.0690   42.6510 C   0  0  0  0  0  0  0  0  0  0  0  0
   39.3020   25.8580   41.9490 C   0  0  0  0  0  0  0  0  0  0  0  0
   40.4090   25.1030   42.1490 N   0  0  0  0  0  0  0  0  0  0  0  0
   41.3680   25.4830   43.0010 C   0  0  0  0  0  0  0  0  0  0  0  0
   41.2740   26.6110   43.6790 N   0  0  0  0  0  0  0  0  0  0  0  0
   42.5250   24.7070   43.2200 N   0  0  0  0  0  0  0  0  0  0  0  0
   40.1160   28.3330   44.0800 H   0  0  0  0  0  0  0  0  0  0  0  0
   42.6700   24.3480   44.1910 H   0  0  0  0  0  0  0  0  0  0  0  0
   43.1730   24.5270   42.4200 H   0  0  0  0  0  0  0  0  0  0  0  0
   37.5040   24.3640   41.5060 C   0  0  0  0  0  3  0  0  0  0  0  0
   38.3720   25.3360   40.9760 C   0  0  0  0  0  0  0  0  0  0  0  0
   38.1230   25.5800   39.6460 C   0  0  0  0  0  0  0  0  0  0  0  0
   38.7860   26.3350   39.2610 H   0  0  0  0  0  0  0  0  0  0  0  0
   37.1590   24.9630   38.9200 C   0  0  0  0  0  0  0  0  0  0  0  0
   36.8550   25.1450   37.6220 N   0  0  0  0  0  0  0  0  0  0  0  0
   35.8320   24.3100   37.3630 C   0  0  0  0  0  0  0  0  0  0  0  0
   35.3660   24.2290   36.3910 H   0  0  0  0  0  0  0  0  0  0  0  0
   35.5140   23.6360   38.4600 N   0  0  0  0  0  0  0  0  0  0  0  0
   36.3300   24.0240   39.4540 C   0  0  0  0  0  0  0  0  0  0  0  0
   36.5150   23.7220   40.7860 C   0  0  0  0  0  3  0  0  0  0  0  0
   37.3140   25.8010   36.9420 H   0  0  0  0  0  0  0  0  0  0  0  0
  1 24  1  0  0  0  0
  1  2  1  0  0  0  0
  1  3  1  0  0  0  0
  2  4  1  0  0  0  0
  2  3  1  0  0  0  0
  3  6  1  0  0  0  0
  5  2  1  0  0  0  0
  7  3  1  0  0  0  0
  8 13  1  0  0  0  0
  8  1  1  0  0  0  0
  9 15  1  0  0  0  0
  9  8  1  0  0  0  0
 10 11  1  0  0  0  0
 10  9  1  0  0  0  0
 11 12  1  0  0  0  0
 12 20  1  0  0  0  0
 12 13  1  0  0  0  0
 13 21  1  0  0  0  0
 13 22  1  0  0  0  0
 14  8  1  0  0  0  0
 16  9  1  0  0  0  0
 17 10  1  0  0  0  0
 18 10  1  0  0  0  0
 19 12  1  0  0  0  0
 23 28  1  0  0  0  0
 23 30  1  0  0  0  0
 24 23  2  0  0  0  0
 25 26  2  0  0  0  0
 25 24  1  0  0  0  0
 26 27  1  0  0  0  0
 27 29  1  0  0  0  0
 27 28  2  0  0  0  0
 29 31  1  0  0  0  0
 32 29  1  0  0  0  0
 34 33  1  0  0  0  0
 34 25  1  0  0  0  0
 35 34  2  0  0  0  0
 36 35  1  0  0  0  0
 37 42  2  0  0  0  0
 37 35  1  0  0  0  0
 38 37  1  0  0  0  0
 39 38  1  0  0  0  0
 39 41  2  0  0  0  0
 40 39  1  0  0  0  0
 41 42  1  0  0  0  0
 42 43  1  0  0  0  0
 43 33  2  0  0  0  0
 44 38  1  0  0  0  0
M  END
>  <minimizedAffinity>
-5.84294605

$$$$

 OpenBabel03242516153D

 44 48  0  0  0  0  0  0  0  0999 V2000
   37.3350   27.6770   42.2880 C   0  0  0  0  0  0  0  0  0  0  0  0
   37.9680   27.5570   43.6760 C   0  0  0  0  0  0  0  0  0  0  0  0
   36.5430   27.4000   43.4830 C   0  0  0  0  0  0  0  0  0  0  0  0
   38.4090   28.5100   44.0880 H   0  0  0  0  0  0  0  0  0  0  0  0
   38.6240   26.6930   43.8940 H   0  0  0  0  0  0  0  0  0  0  0  0
   35.8880   28.1510   43.9780 H   0  0  0  0  0  0  0  0  0  0  0  0
   36.1260   26.3650   43.6240 H   0  0  0  0  0  0  0  0  0  0  0  0
   37.6980   26.5580   41.3780 C   0  0  0  0  0  0  0  0  0  0  0  0
   37.2480   26.7230   39.9300 C   0  0  0  0  0  0  0  0  0  0  0  0
   37.9130   25.5410   39.2000 C   0  0  0  0  0  0  0  0  0  0  0  0
   37.2170   24.3990   39.5530 O   0  0  0  0  0  0  0  0  0  0  0  0
   37.6230   24.1590   40.8920 C   0  0  0  0  0  0  0  0  0  0  0  0
   37.0590   25.2430   41.8030 C   0  0  0  0  0  0  0  0  0  0  0  0
   38.7910   26.3740   41.3390 H   0  0  0  0  0  0  0  0  0  0  0  0
   36.1750   26.6690   39.7850 H   0  0  0  0  0  0  0  0  0  0  0  0
   37.7500   27.6160   39.5010 H   0  0  0  0  0  0  0  0  0  0  0  0
   38.9920   25.5090   39.4040 H   0  0  0  0  0  0  0  0  0  0  0  0
   37.7190   25.7180   38.1140 H   0  0  0  0  0  0  0  0  0  0  0  0
   38.7360   24.2790   40.8690 H   0  0  0  0  0  0  0  0  0  0  0  0
   37.3680   23.1460   41.2220 H   0  0  0  0  0  0  0  0  0  0  0  0
   37.4790   25.0100   42.8130 H   0  0  0  0  0  0  0  0  0  0  0  0
   35.9670   25.2550   41.7830 H   0  0  0  0  0  0  0  0  0  0  0  0
   36.1010   29.7170   41.4910 C   0  0  0  0  0  0  0  0  0  0  0  0
   37.3110   29.0510   41.7050 C   0  0  0  0  0  0  0  0  0  0  0  0
   38.4800   29.7450   41.3410 C   0  0  0  0  0  0  0  0  0  0  0  0
   38.3730   30.9890   40.8130 N   0  0  0  0  0  0  0  0  0  0  0  0
   37.1820   31.5690   40.6330 C   0  0  0  0  0  0  0  0  0  0  0  0
   36.0620   30.9530   40.9620 N   0  0  0  0  0  0  0  0  0  0  0  0
   37.0560   32.8640   40.0870 N   0  0  0  0  0  0  0  0  0  0  0  0
   35.1830   29.2060   41.7630 H   0  0  0  0  0  0  0  0  0  0  0  0
   36.6210   33.5900   40.7000 H   0  0  0  0  0  0  0  0  0  0  0  0
   37.3950   33.0370   39.1140 H   0  0  0  0  0  0  0  0  0  0  0  0
   40.5290   29.7500   42.5480 C   0  0  0  0  0  3  0  0  0  0  0  0
   39.8260   29.2360   41.4430 C   0  0  0  0  0  0  0  0  0  0  0  0
   40.5830   28.3480   40.7170 C   0  0  0  0  0  0  0  0  0  0  0  0
   40.0260   27.9550   39.8850 H   0  0  0  0  0  0  0  0  0  0  0  0
   41.8590   28.0000   41.0190 C   0  0  0  0  0  0  0  0  0  0  0  0
   42.6620   27.1440   40.3620 N   0  0  0  0  0  0  0  0  0  0  0  0
   43.8230   27.1330   41.0420 C   0  0  0  0  0  0  0  0  0  0  0  0
   44.6730   26.5310   40.7510 H   0  0  0  0  0  0  0  0  0  0  0  0
   43.7420   27.9510   42.0830 N   0  0  0  0  0  0  0  0  0  0  0  0
   42.5210   28.5100   42.0940 C   0  0  0  0  0  0  0  0  0  0  0  0
   41.8280   29.4100   42.8760 C   0  0  0  0  0  3  0  0  0  0  0  0
   42.4390   26.5930   39.4950 H   0  0  0  0  0  0  0  0  0  0  0  0
  1  3  1  0  0  0  0
  1  2  1  0  0  0  0
  2  5  1  0  0  0  0
  2  4  1  0  0  0  0
  3  7  1  0  0  0  0
  3  2  1  0  0  0  0
  3  6  1  0  0  0  0
  8 13  1  0  0  0  0
  8  1  1  0  0  0  0
  9  8  1  0  0  0  0
 10 17  1  0  0  0  0
 10 11  1  0  0  0  0
 10  9  1  0  0  0  0
 11 12  1  0  0  0  0
 12 20  1  0  0  0  0
 12 13  1  0  0  0  0
 13 21  1  0  0  0  0
 14  8  1  0  0  0  0
 15  9  1  0  0  0  0
 16  9  1  0  0  0  0
 18 10  1  0  0  0  0
 19 12  1  0  0  0  0
 22 13  1  0  0  0  0
 23 24  1  0  0  0  0
 23 30  1  0  0  0  0
 24  1  1  0  0  0  0
 25 34  1  0  0  0  0
 25 24  2  0  0  0  0
 26 25  1  0  0  0  0
 27 26  2  0  0  0  0
 27 28  1  0  0  0  0
 28 23  2  0  0  0  0
 29 27  1  0  0  0  0
 29 31  1  0  0  0  0
 32 29  1  0  0  0  0
 33 43  1  0  0  0  0
 34 33  2  0  0  0  0
 35 37  2  0  0  0  0
 35 34  1  0  0  0  0
 36 35  1  0  0  0  0
 37 42  1  0  0  0  0
 38 37  1  0  0  0  0
 38 39  1  0  0  0  0
 39 41  2  0  0  0  0
 40 39  1  0  0  0  0
 41 42  1  0  0  0  0
 42 43  2  0  0  0  0
 44 38  1  0  0  0  0
M  END
>  <minimizedAffinity>
-5.80603409

$$$$

 OpenBabel03242516153D

 44 48  0  0  0  0  0  0  0  0999 V2000
   37.3550   28.6920   37.0280 C   0  0  0  0  0  0  0  0  0  0  0  0
   37.9310   27.2780   37.1270 C   0  0  0  0  0  0  0  0  0  0  0  0
   37.9010   27.9920   35.8690 C   0  0  0  0  0  0  0  0  0  0  0  0
   37.1820   26.4680   37.3670 H   0  0  0  0  0  0  0  0  0  0  0  0
   38.8740   27.1190   37.6840 H   0  0  0  0  0  0  0  0  0  0  0  0
   37.2750   27.5520   35.0620 H   0  0  0  0  0  0  0  0  0  0  0  0
   38.8920   28.3270   35.4570 H   0  0  0  0  0  0  0  0  0  0  0  0
   38.1840   29.7130   37.7210 C   0  0  0  0  0  0  0  0  0  0  0  0
   37.8740   31.1610   37.3580 C   0  0  0  0  0  0  0  0  0  0  0  0
   38.7270   31.9800   38.3450 C   0  0  0  0  0  0  0  0  0  0  0  0
   40.0410   31.8900   37.9210 O   0  0  0  0  0  0  0  0  0  0  0  0
   40.4150   30.5650   38.2680 C   0  0  0  0  0  0  0  0  0  0  0  0
   39.6640   29.5720   37.3890 C   0  0  0  0  0  0  0  0  0  0  0  0
   38.1060   29.6510   38.8260 H   0  0  0  0  0  0  0  0  0  0  0  0
   38.1430   31.4370   36.3450 H   0  0  0  0  0  0  0  0  0  0  0  0
   36.8290   31.3880   37.6610 H   0  0  0  0  0  0  0  0  0  0  0  0
   38.5490   31.6590   39.3800 H   0  0  0  0  0  0  0  0  0  0  0  0
   38.4100   33.0420   38.1980 H   0  0  0  0  0  0  0  0  0  0  0  0
   40.0440   30.4400   39.3170 H   0  0  0  0  0  0  0  0  0  0  0  0
   41.5010   30.4260   38.2420 H   0  0  0  0  0  0  0  0  0  0  0  0
   39.9700   28.5670   37.7740 H   0  0  0  0  0  0  0  0  0  0  0  0
   39.8950   29.7170   36.3320 H   0  0  0  0  0  0  0  0  0  0  0  0
   35.0470   28.9140   36.0580 C   0  0  0  0  0  0  0  0  0  0  0  0
   35.8740   28.7990   37.1790 C   0  0  0  0  0  0  0  0  0  0  0  0
   35.2320   28.7930   38.4310 C   0  0  0  0  0  0  0  0  0  0  0  0
   33.8820   28.8990   38.4830 N   0  0  0  0  0  0  0  0  0  0  0  0
   33.1480   29.0070   37.3700 C   0  0  0  0  0  0  0  0  0  0  0  0
   33.7100   29.0150   36.1760 N   0  0  0  0  0  0  0  0  0  0  0  0
   31.7420   29.1170   37.4090 N   0  0  0  0  0  0  0  0  0  0  0  0
   35.5140   28.9200   35.0790 H   0  0  0  0  0  0  0  0  0  0  0  0
   31.2010   28.3510   36.9470 H   0  0  0  0  0  0  0  0  0  0  0  0
   31.3120   29.9400   37.8880 H   0  0  0  0  0  0  0  0  0  0  0  0
   36.0200   29.9710   40.3420 C   0  0  0  0  0  3  0  0  0  0  0  0
   35.8910   28.7190   39.7130 C   0  0  0  0  0  0  0  0  0  0  0  0
   36.4120   27.7020   40.4770 C   0  0  0  0  0  0  0  0  0  0  0  0
   36.2920   26.7510   39.9880 H   0  0  0  0  0  0  0  0  0  0  0  0
   36.9850   27.8720   41.6930 C   0  0  0  0  0  0  0  0  0  0  0  0
   37.5150   26.9330   42.4980 N   0  0  0  0  0  0  0  0  0  0  0  0
   37.9570   27.5880   43.5870 C   0  0  0  0  0  0  0  0  0  0  0  0
   38.4370   27.0940   44.4200 H   0  0  0  0  0  0  0  0  0  0  0  0
   37.7090   28.8850   43.4630 N   0  0  0  0  0  0  0  0  0  0  0  0
   37.1000   29.0940   42.2840 C   0  0  0  0  0  0  0  0  0  0  0  0
   36.6000   30.1690   41.5800 C   0  0  0  0  0  3  0  0  0  0  0  0
   37.5770   25.8990   42.3220 H   0  0  0  0  0  0  0  0  0  0  0  0
  1  2  1  0  0  0  0
  1 24  1  0  0  0  0
  1  8  1  0  0  0  0
  2  4  1  0  0  0  0
  2  5  1  0  0  0  0
  3  1  1  0  0  0  0
  3  2  1  0  0  0  0
  6  3  1  0  0  0  0
  7  3  1  0  0  0  0
  8 14  1  0  0  0  0
  9 16  1  0  0  0  0
  9  8  1  0  0  0  0
  9 10  1  0  0  0  0
 10 17  1  0  0  0  0
 11 12  1  0  0  0  0
 11 10  1  0  0  0  0
 12 19  1  0  0  0  0
 13  8  1  0  0  0  0
 13 21  1  0  0  0  0
 13 12  1  0  0  0  0
 15  9  1  0  0  0  0
 18 10  1  0  0  0  0
 20 12  1  0  0  0  0
 22 13  1  0  0  0  0
 23 28  2  0  0  0  0
 23 24  1  0  0  0  0
 24 25  2  0  0  0  0
 25 26  1  0  0  0  0
 25 34  1  0  0  0  0
 27 29  1  0  0  0  0
 27 26  2  0  0  0  0
 28 27  1  0  0  0  0
 29 32  1  0  0  0  0
 30 23  1  0  0  0  0
 31 29  1  0  0  0  0
 33 43  1  0  0  0  0
 34 33  2  0  0  0  0
 34 35  1  0  0  0  0
 35 37  2  0  0  0  0
 36 35  1  0  0  0  0
 37 42  1  0  0  0  0
 37 38  1  0  0  0  0
 38 39  1  0  0  0  0
 39 40  1  0  0  0  0
 41 39  2  0  0  0  0
 42 41  1  0  0  0  0
 43 42  2  0  0  0  0
 44 38  1  0  0  0  0
M  END
>  <minimizedAffinity>
-5.67141533

$$$$

 OpenBabel03242516153D

 44 48  0  0  0  0  0  0  0  0999 V2000
   36.1980   29.0810   40.2410 C   0  0  0  0  0  0  0  0  0  0  0  0
   34.7010   29.2400   39.9710 C   0  0  0  0  0  0  0  0  0  0  0  0
   35.5310   28.4060   39.1310 C   0  0  0  0  0  0  0  0  0  0  0  0
   34.3760   30.2710   39.6480 H   0  0  0  0  0  0  0  0  0  0  0  0
   33.9770   28.8070   40.6880 H   0  0  0  0  0  0  0  0  0  0  0  0
   35.6340   28.7160   38.0680 H   0  0  0  0  0  0  0  0  0  0  0  0
   35.3630   27.2960   39.2000 H   0  0  0  0  0  0  0  0  0  0  0  0
   36.4940   28.3220   41.4850 C   0  0  0  0  0  0  0  0  0  0  0  0
   37.5480   28.9440   42.3930 C   0  0  0  0  0  0  0  0  0  0  0  0
   37.5070   28.0700   43.6600 C   0  0  0  0  0  0  0  0  0  0  0  0
   38.1190   26.8690   43.3480 O   0  0  0  0  0  0  0  0  0  0  0  0
   37.1670   26.2100   42.5270 C   0  0  0  0  0  0  0  0  0  0  0  0
   37.0500   26.9350   41.1910 C   0  0  0  0  0  0  0  0  0  0  0  0
   35.5960   28.1690   42.1180 H   0  0  0  0  0  0  0  0  0  0  0  0
   38.5540   28.9310   41.9880 H   0  0  0  0  0  0  0  0  0  0  0  0
   37.1790   29.9330   42.7420 H   0  0  0  0  0  0  0  0  0  0  0  0
   36.4820   27.9820   44.0450 H   0  0  0  0  0  0  0  0  0  0  0  0
   38.1660   28.5880   44.3990 H   0  0  0  0  0  0  0  0  0  0  0  0
   36.1970   26.3400   43.0710 H   0  0  0  0  0  0  0  0  0  0  0  0
   37.3890   25.1430   42.4190 H   0  0  0  0  0  0  0  0  0  0  0  0
   36.2410   26.3890   40.6450 H   0  0  0  0  0  0  0  0  0  0  0  0
   38.0010   26.9440   40.6560 H   0  0  0  0  0  0  0  0  0  0  0  0
   36.6760   31.5400   40.4510 C   0  0  0  0  0  0  0  0  0  0  0  0
   37.0370   30.2830   39.9580 C   0  0  0  0  0  0  0  0  0  0  0  0
   38.2170   30.2260   39.1930 C   0  0  0  0  0  0  0  0  0  0  0  0
   38.9210   31.3650   38.9780 N   0  0  0  0  0  0  0  0  0  0  0  0
   38.5190   32.5380   39.4780 C   0  0  0  0  0  0  0  0  0  0  0  0
   37.4190   32.6340   40.2020 N   0  0  0  0  0  0  0  0  0  0  0  0
   39.2420   33.7300   39.2640 N   0  0  0  0  0  0  0  0  0  0  0  0
   35.7720   31.6130   41.0450 H   0  0  0  0  0  0  0  0  0  0  0  0
   39.6230   34.2050   40.1140 H   0  0  0  0  0  0  0  0  0  0  0  0
   39.3630   34.0790   38.2860 H   0  0  0  0  0  0  0  0  0  0  0  0
   38.3950   28.9290   37.2070 C   0  0  0  0  0  3  0  0  0  0  0  0
   38.7550   29.0450   38.5620 C   0  0  0  0  0  0  0  0  0  0  0  0
   39.5550   28.0060   38.9740 C   0  0  0  0  0  0  0  0  0  0  0  0
   39.8320   28.1180   40.0070 H   0  0  0  0  0  0  0  0  0  0  0  0
   39.9570   26.9850   38.1780 C   0  0  0  0  0  0  0  0  0  0  0  0
   40.7350   25.9370   38.5040 N   0  0  0  0  0  0  0  0  0  0  0  0
   40.8490   25.2000   37.3840 C   0  0  0  0  0  0  0  0  0  0  0  0
   41.4220   24.2850   37.3340 H   0  0  0  0  0  0  0  0  0  0  0  0
   40.1680   25.7700   36.4000 N   0  0  0  0  0  0  0  0  0  0  0  0
   39.5960   26.8930   36.8680 C   0  0  0  0  0  0  0  0  0  0  0  0
   38.7920   27.8990   36.3770 C   0  0  0  0  0  3  0  0  0  0  0  0
   41.1690   25.7270   39.4380 H   0  0  0  0  0  0  0  0  0  0  0  0
  1  8  1  0  0  0  0
  2  1  1  0  0  0  0
  2  5  1  0  0  0  0
  3  7  1  0  0  0  0
  3  2  1  0  0  0  0
  3  1  1  0  0  0  0
  4  2  1  0  0  0  0
  6  3  1  0  0  0  0
  8 14  1  0  0  0  0
  8  9  1  0  0  0  0
  9 16  1  0  0  0  0
  9 10  1  0  0  0  0
 10 17  1  0  0  0  0
 10 18  1  0  0  0  0
 11 10  1  0  0  0  0
 12 19  1  0  0  0  0
 12 11  1  0  0  0  0
 13  8  1  0  0  0  0
 13 12  1  0  0  0  0
 15  9  1  0  0  0  0
 20 12  1  0  0  0  0
 21 13  1  0  0  0  0
 22 13  1  0  0  0  0
 23 30  1  0  0  0  0
 24  1  1  0  0  0  0
 24 23  2  0  0  0  0
 25 24  1  0  0  0  0
 26 25  2  0  0  0  0
 26 27  1  0  0  0  0
 27 28  2  0  0  0  0
 28 23  1  0  0  0  0
 29 27  1  0  0  0  0
 29 31  1  0  0  0  0
 32 29  1  0  0  0  0
 33 34  1  0  0  0  0
 34 35  2  0  0  0  0
 34 25  1  0  0  0  0
 35 36  1  0  0  0  0
 37 38  1  0  0  0  0
 37 35  1  0  0  0  0
 38 44  1  0  0  0  0
 39 38  1  0  0  0  0
 40 39  1  0  0  0  0
 41 42  1  0  0  0  0
 41 39  2  0  0  0  0
 42 37  2  0  0  0  0
 43 42  1  0  0  0  0
 43 33  2  0  0  0  0
M  END
>  <minimizedAffinity>
-5.65594244

$$$$

 OpenBabel03242516153D

 44 48  0  0  0  0  0  0  0  0999 V2000
   37.5930   27.9010   42.1450 C   0  0  0  0  0  0  0  0  0  0  0  0
   37.2530   27.6000   43.6060 C   0  0  0  0  0  0  0  0  0  0  0  0
   36.2160   27.8010   42.6180 C   0  0  0  0  0  0  0  0  0  0  0  0
   37.5340   28.4080   44.3420 H   0  0  0  0  0  0  0  0  0  0  0  0
   37.4800   26.5980   44.0160 H   0  0  0  0  0  0  0  0  0  0  0  0
   35.5490   28.6790   42.7680 H   0  0  0  0  0  0  0  0  0  0  0  0
   35.6130   26.8970   42.3290 H   0  0  0  0  0  0  0  0  0  0  0  0
   38.2070   26.7470   41.4350 C   0  0  0  0  0  0  0  0  0  0  0  0
   39.4740   27.0640   40.6490 C   0  0  0  0  0  0  0  0  0  0  0  0
   39.9810   25.6830   40.1940 C   0  0  0  0  0  0  0  0  0  0  0  0
   39.1490   25.2590   39.1730 O   0  0  0  0  0  0  0  0  0  0  0  0
   37.9490   24.9040   39.8430 C   0  0  0  0  0  0  0  0  0  0  0  0
   37.2740   26.1580   40.3860 C   0  0  0  0  0  0  0  0  0  0  0  0
   38.4710   25.9140   42.1190 H   0  0  0  0  0  0  0  0  0  0  0  0
   39.3160   27.6870   39.7760 H   0  0  0  0  0  0  0  0  0  0  0  0
   40.2550   27.4120   41.3580 H   0  0  0  0  0  0  0  0  0  0  0  0
   40.0610   24.9930   41.0440 H   0  0  0  0  0  0  0  0  0  0  0  0
   40.9840   25.8710   39.7390 H   0  0  0  0  0  0  0  0  0  0  0  0
   38.2910   24.2950   40.7180 H   0  0  0  0  0  0  0  0  0  0  0  0
   37.2900   24.3010   39.2090 H   0  0  0  0  0  0  0  0  0  0  0  0
   36.3830   25.7780   40.9460 H   0  0  0  0  0  0  0  0  0  0  0  0
   37.0150   26.8530   39.5850 H   0  0  0  0  0  0  0  0  0  0  0  0
   39.1020   29.8160   42.7590 C   0  0  0  0  0  0  0  0  0  0  0  0
   38.1730   29.2510   41.8810 C   0  0  0  0  0  0  0  0  0  0  0  0
   37.8250   30.0240   40.7570 C   0  0  0  0  0  0  0  0  0  0  0  0
   38.3930   31.2430   40.5920 N   0  0  0  0  0  0  0  0  0  0  0  0
   39.2760   31.7260   41.4720 C   0  0  0  0  0  0  0  0  0  0  0  0
   39.6300   31.0340   42.5380 N   0  0  0  0  0  0  0  0  0  0  0  0
   39.8760   32.9920   41.3120 N   0  0  0  0  0  0  0  0  0  0  0  0
   39.3890   29.2420   43.6340 H   0  0  0  0  0  0  0  0  0  0  0  0
   40.9160   33.0070   41.2020 H   0  0  0  0  0  0  0  0  0  0  0  0
   39.2690   33.8430   41.3090 H   0  0  0  0  0  0  0  0  0  0  0  0
   37.4560   29.3630   38.5020 C   0  0  0  0  0  3  0  0  0  0  0  0
   36.8650   29.6520   39.7460 C   0  0  0  0  0  0  0  0  0  0  0  0
   35.5000   29.4980   39.7170 C   0  0  0  0  0  0  0  0  0  0  0  0
   35.0660   29.7090   40.6780 H   0  0  0  0  0  0  0  0  0  0  0  0
   34.7940   29.1140   38.6240 C   0  0  0  0  0  0  0  0  0  0  0  0
   33.4640   28.9410   38.5150 N   0  0  0  0  0  0  0  0  0  0  0  0
   33.2450   28.5590   37.2440 C   0  0  0  0  0  0  0  0  0  0  0  0
   32.2610   28.3440   36.8530 H   0  0  0  0  0  0  0  0  0  0  0  0
   34.3960   28.4960   36.5890 N   0  0  0  0  0  0  0  0  0  0  0  0
   35.3870   28.8390   37.4300 C   0  0  0  0  0  0  0  0  0  0  0  0
   36.7580   28.9700   37.3760 C   0  0  0  0  0  3  0  0  0  0  0  0
   32.7370   29.0750   39.2630 H   0  0  0  0  0  0  0  0  0  0  0  0
  1  3  1  0  0  0  0
  1  2  1  0  0  0  0
  2  5  1  0  0  0  0
  2  4  1  0  0  0  0
  3  6  1  0  0  0  0
  3  2  1  0  0  0  0
  7  3  1  0  0  0  0
  8 14  1  0  0  0  0
  8  1  1  0  0  0  0
  9 16  1  0  0  0  0
  9  8  1  0  0  0  0
 10  9  1  0  0  0  0
 10 17  1  0  0  0  0
 11 12  1  0  0  0  0
 11 10  1  0  0  0  0
 12 13  1  0  0  0  0
 12 19  1  0  0  0  0
 13 21  1  0  0  0  0
 13  8  1  0  0  0  0
 15  9  1  0  0  0  0
 18 10  1  0  0  0  0
 20 12  1  0  0  0  0
 22 13  1  0  0  0  0
 23 30  1  0  0  0  0
 24  1  1  0  0  0  0
 24 23  2  0  0  0  0
 25 24  1  0  0  0  0
 26 25  2  0  0  0  0
 26 27  1  0  0  0  0
 27 28  2  0  0  0  0
 28 23  1  0  0  0  0
 29 27  1  0  0  0  0
 31 29  1  0  0  0  0
 32 29  1  0  0  0  0
 33 34  1  0  0  0  0
 34 25  1  0  0  0  0
 35 34  2  0  0  0  0
 35 36  1  0  0  0  0
 37 35  1  0  0  0  0
 38 37  1  0  0  0  0
 38 44  1  0  0  0  0
 39 38  1  0  0  0  0
 40 39  1  0  0  0  0
 41 39  2  0  0  0  0
 41 42  1  0  0  0  0
 42 37  2  0  0  0  0
 43 42  1  0  0  0  0
 43 33  2  0  0  0  0
M  END
>  <minimizedAffinity>
-5.60638285

$$$$

 OpenBabel03242516153D

 44 48  0  0  0  0  0  0  0  0999 V2000
   36.8900   30.1220   40.2480 C   0  0  0  0  0  0  0  0  0  0  0  0
   37.1650   31.6140   40.4550 C   0  0  0  0  0  0  0  0  0  0  0  0
   36.0670   30.9510   41.1230 C   0  0  0  0  0  0  0  0  0  0  0  0
   37.0010   32.2640   39.5470 H   0  0  0  0  0  0  0  0  0  0  0  0
   38.0770   31.9220   40.9990 H   0  0  0  0  0  0  0  0  0  0  0  0
   35.0430   31.2980   40.8620 H   0  0  0  0  0  0  0  0  0  0  0  0
   36.1620   30.8170   42.2360 H   0  0  0  0  0  0  0  0  0  0  0  0
   37.9330   29.2450   40.8430 C   0  0  0  0  0  0  0  0  0  0  0  0
   37.9080   27.7940   40.3770 C   0  0  0  0  0  0  0  0  0  0  0  0
   39.1840   27.1870   40.9890 C   0  0  0  0  0  0  0  0  0  0  0  0
   38.9480   27.0220   42.3430 O   0  0  0  0  0  0  0  0  0  0  0  0
   38.9990   28.3450   42.8560 C   0  0  0  0  0  0  0  0  0  0  0  0
   37.7970   29.1370   42.3560 C   0  0  0  0  0  0  0  0  0  0  0  0
   38.9630   29.6100   40.6490 H   0  0  0  0  0  0  0  0  0  0  0  0
   37.0480   27.2280   40.7180 H   0  0  0  0  0  0  0  0  0  0  0  0
   38.1010   27.7670   39.2830 H   0  0  0  0  0  0  0  0  0  0  0  0
   40.0660   27.7920   40.7420 H   0  0  0  0  0  0  0  0  0  0  0  0
   39.2660   26.1640   40.5470 H   0  0  0  0  0  0  0  0  0  0  0  0
   39.9160   28.7860   42.3890 H   0  0  0  0  0  0  0  0  0  0  0  0
   39.0970   28.3570   43.9460 H   0  0  0  0  0  0  0  0  0  0  0  0
   37.9550   30.1700   42.7530 H   0  0  0  0  0  0  0  0  0  0  0  0
   36.8570   28.6880   42.6830 H   0  0  0  0  0  0  0  0  0  0  0  0
   35.0880   29.1890   38.7650 C   0  0  0  0  0  0  0  0  0  0  0  0
   36.3640   29.7420   38.9040 C   0  0  0  0  0  0  0  0  0  0  0  0
   37.1040   29.9120   37.7190 C   0  0  0  0  0  0  0  0  0  0  0  0
   36.5560   29.5370   36.5380 N   0  0  0  0  0  0  0  0  0  0  0  0
   35.3280   29.0120   36.4750 C   0  0  0  0  0  0  0  0  0  0  0  0
   34.6000   28.8360   37.5620 N   0  0  0  0  0  0  0  0  0  0  0  0
   34.7440   28.6180   35.2520 N   0  0  0  0  0  0  0  0  0  0  0  0
   34.4940   29.0470   39.6620 H   0  0  0  0  0  0  0  0  0  0  0  0
   33.8700   29.1170   34.9690 H   0  0  0  0  0  0  0  0  0  0  0  0
   35.2010   27.8620   34.6930 H   0  0  0  0  0  0  0  0  0  0  0  0
   39.4290   29.4220   37.6120 C   0  0  0  0  0  3  0  0  0  0  0  0
   38.4480   30.4300   37.6340 C   0  0  0  0  0  0  0  0  0  0  0  0
   38.9980   31.6870   37.5530 C   0  0  0  0  0  0  0  0  0  0  0  0
   38.2340   32.4440   37.5580 H   0  0  0  0  0  0  0  0  0  0  0  0
   40.3270   31.9390   37.4630 C   0  0  0  0  0  0  0  0  0  0  0  0
   40.9410   33.1330   37.3810 N   0  0  0  0  0  0  0  0  0  0  0  0
   42.2580   32.8670   37.3120 C   0  0  0  0  0  0  0  0  0  0  0  0
   43.0140   33.6360   37.2370 H   0  0  0  0  0  0  0  0  0  0  0  0
   42.4540   31.5560   37.3480 N   0  0  0  0  0  0  0  0  0  0  0  0
   41.2600   30.9470   37.4440 C   0  0  0  0  0  0  0  0  0  0  0  0
   40.7880   29.6540   37.5210 C   0  0  0  0  0  3  0  0  0  0  0  0
   40.4940   34.0840   37.3730 H   0  0  0  0  0  0  0  0  0  0  0  0
  1  2  1  0  0  0  0
  1  8  1  0  0  0  0
  1  3  1  0  0  0  0
  2  5  1  0  0  0  0
  2  3  1  0  0  0  0
  3  7  1  0  0  0  0
  4  2  1  0  0  0  0
  6  3  1  0  0  0  0
  8 13  1  0  0  0  0
  9 15  1  0  0  0  0
  9  8  1  0  0  0  0
  9 10  1  0  0  0  0
 10 11  1  0  0  0  0
 11 12  1  0  0  0  0
 12 20  1  0  0  0  0
 13 22  1  0  0  0  0
 13 21  1  0  0  0  0
 13 12  1  0  0  0  0
 14  8  1  0  0  0  0
 16  9  1  0  0  0  0
 17 10  1  0  0  0  0
 18 10  1  0  0  0  0
 19 12  1  0  0  0  0
 23 24  1  0  0  0  0
 23 30  1  0  0  0  0
 24  1  1  0  0  0  0
 25 24  2  0  0  0  0
 26 25  1  0  0  0  0
 27 26  2  0  0  0  0
 27 28  1  0  0  0  0
 28 23  2  0  0  0  0
 29 27  1  0  0  0  0
 31 29  1  0  0  0  0
 32 29  1  0  0  0  0
 33 34  1  0  0  0  0
 34 25  1  0  0  0  0
 35 36  1  0  0  0  0
 35 34  2  0  0  0  0
 37 35  1  0  0  0  0
 38 37  1  0  0  0  0
 39 41  2  0  0  0  0
 39 38  1  0  0  0  0
 40 39  1  0  0  0  0
 41 42  1  0  0  0  0
 42 37  2  0  0  0  0
 42 43  1  0  0  0  0
 43 33  2  0  0  0  0
 44 38  1  0  0  0  0
M  END
>  <minimizedAffinity>
-5.60524988

$$$$

 OpenBabel03242516153D

 44 48  0  0  0  0  0  0  0  0999 V2000
   37.9060   27.4890   39.5820 C   0  0  0  0  0  0  0  0  0  0  0  0
   38.6530   26.2660   39.0450 C   0  0  0  0  0  0  0  0  0  0  0  0
   39.2090   27.5970   38.9340 C   0  0  0  0  0  0  0  0  0  0  0  0
   38.1670   25.7520   38.1660 H   0  0  0  0  0  0  0  0  0  0  0  0
   39.0550   25.5250   39.7610 H   0  0  0  0  0  0  0  0  0  0  0  0
   39.3570   27.9900   37.9040 H   0  0  0  0  0  0  0  0  0  0  0  0
   40.1090   27.8210   39.5720 H   0  0  0  0  0  0  0  0  0  0  0  0
   37.8230   27.5220   41.0660 C   0  0  0  0  0  0  0  0  0  0  0  0
   36.4680   27.9290   41.6350 C   0  0  0  0  0  0  0  0  0  0  0  0
   36.6170   27.6920   43.1490 C   0  0  0  0  0  0  0  0  0  0  0  0
   37.4150   28.7070   43.6450 O   0  0  0  0  0  0  0  0  0  0  0  0
   38.7150   28.3680   43.1850 C   0  0  0  0  0  0  0  0  0  0  0  0
   38.7840   28.5360   41.6710 C   0  0  0  0  0  0  0  0  0  0  0  0
   38.0690   26.5450   41.5310 H   0  0  0  0  0  0  0  0  0  0  0  0
   36.2040   28.9670   41.4650 H   0  0  0  0  0  0  0  0  0  0  0  0
   35.7110   27.1790   41.3230 H   0  0  0  0  0  0  0  0  0  0  0  0
   36.9770   26.6750   43.3550 H   0  0  0  0  0  0  0  0  0  0  0  0
   35.5950   27.8450   43.5740 H   0  0  0  0  0  0  0  0  0  0  0  0
   38.8110   27.2760   43.4110 H   0  0  0  0  0  0  0  0  0  0  0  0
   39.4950   28.9240   43.7150 H   0  0  0  0  0  0  0  0  0  0  0  0
   39.8110   28.1890   41.3960 H   0  0  0  0  0  0  0  0  0  0  0  0
   38.5840   29.5670   41.3730 H   0  0  0  0  0  0  0  0  0  0  0  0
   35.7770   26.9210   38.3710 C   0  0  0  0  0  0  0  0  0  0  0  0
   36.6840   27.8850   38.8210 C   0  0  0  0  0  0  0  0  0  0  0  0
   36.3780   29.2230   38.5130 C   0  0  0  0  0  0  0  0  0  0  0  0
   35.2500   29.5000   37.8140 N   0  0  0  0  0  0  0  0  0  0  0  0
   34.4240   28.5290   37.4120 C   0  0  0  0  0  0  0  0  0  0  0  0
   34.6730   27.2610   37.6800 N   0  0  0  0  0  0  0  0  0  0  0  0
   33.2460   28.8020   36.6850 N   0  0  0  0  0  0  0  0  0  0  0  0
   35.9870   25.8810   38.5940 H   0  0  0  0  0  0  0  0  0  0  0  0
   32.3440   28.5300   37.1370 H   0  0  0  0  0  0  0  0  0  0  0  0
   33.3250   29.2560   35.7470 H   0  0  0  0  0  0  0  0  0  0  0  0
   38.1810   30.6440   37.8900 C   0  0  0  0  0  3  0  0  0  0  0  0
   37.1880   30.3700   38.8480 C   0  0  0  0  0  0  0  0  0  0  0  0
   37.2070   31.2730   39.8840 C   0  0  0  0  0  0  0  0  0  0  0  0
   36.4330   31.0570   40.6000 H   0  0  0  0  0  0  0  0  0  0  0  0
   38.0760   32.3100   39.9830 C   0  0  0  0  0  0  0  0  0  0  0  0
   38.1580   33.2310   40.9590 N   0  0  0  0  0  0  0  0  0  0  0  0
   39.1710   34.0460   40.6120 C   0  0  0  0  0  0  0  0  0  0  0  0
   39.4800   34.8930   41.2090 H   0  0  0  0  0  0  0  0  0  0  0  0
   39.6960   33.6450   39.4630 N   0  0  0  0  0  0  0  0  0  0  0  0
   39.0300   32.5560   39.0430 C   0  0  0  0  0  0  0  0  0  0  0  0
   39.0770   31.6930   37.9690 C   0  0  0  0  0  3  0  0  0  0  0  0
   37.5600   33.3080   41.8200 H   0  0  0  0  0  0  0  0  0  0  0  0
  1  8  1  0  0  0  0
  2  1  1  0  0  0  0
  2  5  1  0  0  0  0
  3  2  1  0  0  0  0
  3  7  1  0  0  0  0
  3  1  1  0  0  0  0
  4  2  1  0  0  0  0
  6  3  1  0  0  0  0
  8 14  1  0  0  0  0
  8  9  1  0  0  0  0
  8 13  1  0  0  0  0
  9 10  1  0  0  0  0
 10 17  1  0  0  0  0
 10 18  1  0  0  0  0
 10 11  1  0  0  0  0
 12 19  1  0  0  0  0
 12 11  1  0  0  0  0
 12 20  1  0  0  0  0
 13 12  1  0  0  0  0
 15  9  1  0  0  0  0
 16  9  1  0  0  0  0
 21 13  1  0  0  0  0
 22 13  1  0  0  0  0
 23 30  1  0  0  0  0
 23 24  1  0  0  0  0
 24  1  1  0  0  0  0
 25 24  2  0  0  0  0
 25 34  1  0  0  0  0
 26 25  1  0  0  0  0
 27 28  1  0  0  0  0
 27 26  2  0  0  0  0
 28 23  2  0  0  0  0
 29 31  1  0  0  0  0
 29 27  1  0  0  0  0
 32 29  1  0  0  0  0
 33 43  2  0  0  0  0
 33 34  1  0  0  0  0
 34 35  2  0  0  0  0
 35 37  1  0  0  0  0
 35 36  1  0  0  0  0
 37 38  1  0  0  0  0
 38 44  1  0  0  0  0
 39 38  1  0  0  0  0
 39 40  1  0  0  0  0
 41 39  2  0  0  0  0
 42 41  1  0  0  0  0
 42 37  2  0  0  0  0
 43 42  1  0  0  0  0
M  END
>  <minimizedAffinity>
-5.57924175

$$$$
