
 OpenBabel03252508393D

 44 48  0  0  0  0  0  0  0  0999 V2000
   45.1210   33.9640   40.7290 C   0  0  0  0  0  0  0  0  0  0  0  0
   44.0750   33.6300   39.9190 C   0  0  0  0  0  0  0  0  0  0  0  0
   44.3750   33.1100   38.6880 C   0  0  0  0  0  0  0  0  0  0  0  0
   45.6590   32.9120   38.2360 C   0  0  0  0  0  0  0  0  0  0  0  0
   46.6880   33.2630   39.0850 C   0  0  0  0  0  0  0  0  0  0  0  0
   46.4370   33.7920   40.3380 C   0  0  0  0  0  0  0  0  0  0  0  0
   43.5530   32.8410   38.0390 H   0  0  0  0  0  0  0  0  0  0  0  0
   45.8280   32.5020   37.2640 H   0  0  0  0  0  0  0  0  0  0  0  0
   47.7120   33.1110   38.7340 H   0  0  0  0  0  0  0  0  0  0  0  0
   40.7920   35.2800   40.8060 C   0  0  0  0  0  0  0  0  0  0  0  0
   42.0950   35.1070   40.2940 C   0  0  0  0  0  0  0  0  0  0  0  0
   42.7320   33.8520   40.4320 C   0  0  0  0  0  0  0  0  0  0  0  0
   42.0100   32.9060   41.0620 N   0  0  0  0  0  0  0  0  0  0  0  0
   40.7830   33.0910   41.5370 C   0  0  0  0  0  0  0  0  0  0  0  0
   40.1760   34.2810   41.4080 N   0  0  0  0  0  0  0  0  0  0  0  0
   40.2020   36.5630   40.6400 N   0  0  0  0  0  0  0  0  0  0  0  0
   42.6370   35.9010   39.7930 H   0  0  0  0  0  0  0  0  0  0  0  0
   40.2570   32.2820   42.0370 H   0  0  0  0  0  0  0  0  0  0  0  0
   39.9160   37.0550   39.7510 H   0  0  0  0  0  0  0  0  0  0  0  0
   39.9830   37.1800   41.4520 H   0  0  0  0  0  0  0  0  0  0  0  0
   47.5900   34.1290   41.1470 C   0  0  0  0  0  0  0  0  0  0  0  0
   48.1390   35.3760   40.9130 C   0  0  0  0  0  0  0  0  0  0  0  0
   49.2470   35.8830   41.5870 C   0  0  0  0  0  0  0  0  0  0  0  0
   49.8210   35.0670   42.5500 C   0  0  0  0  0  0  0  0  0  0  0  0
   49.2900   33.8150   42.8030 C   0  0  0  0  0  0  0  0  0  0  0  0
   48.1890   33.3600   42.1060 C   0  0  0  0  0  0  0  0  0  0  0  0
   47.7540   36.0880   40.1740 H   0  0  0  0  0  0  0  0  0  0  0  0
   49.6710   36.8420   41.4090 H   0  0  0  0  0  0  0  0  0  0  0  0
   50.6850   35.4010   43.1100 H   0  0  0  0  0  0  0  0  0  0  0  0
   49.6970   33.1280   43.5480 H   0  0  0  0  0  0  0  0  0  0  0  0
   48.1700   31.0640   41.5270 C   0  0  0  0  0  3  0  0  0  0  0  0
   47.6140   32.0460   42.3540 C   0  0  0  0  0  0  0  0  0  0  0  0
   46.6460   31.6400   43.2480 C   0  0  0  0  0  0  0  0  0  0  0  0
   46.2770   32.4620   43.8460 H   0  0  0  0  0  0  0  0  0  0  0  0
   46.2660   30.3190   43.3000 C   0  0  0  0  0  0  0  0  0  0  0  0
   45.3570   29.7410   44.0880 N   0  0  0  0  0  0  0  0  0  0  0  0
   45.3150   28.4180   43.7900 C   0  0  0  0  0  0  0  0  0  0  0  0
   44.6740   27.6770   44.2610 H   0  0  0  0  0  0  0  0  0  0  0  0
   46.2160   28.2000   42.8030 N   0  0  0  0  0  0  0  0  0  0  0  0
   46.8120   29.3750   42.4910 C   0  0  0  0  0  0  0  0  0  0  0  0
   47.7840   29.7300   41.5800 C   0  0  0  0  0  3  0  0  0  0  0  0
   44.7590   30.1920   44.8230 H   0  0  0  0  0  0  0  0  0  0  0  0
   44.7090   34.9830   43.1110 N   0  0  0  0  0  0  0  0  0  0  0  0
   44.8890   34.5220   42.0450 C   0  0  0  0  0  0  0  0  0  0  0  0
  1 44  1  0  0  0  0
  2 12  1  0  0  0  0
  2  1  2  0  0  0  0
  3  2  1  0  0  0  0
  4  3  2  0  0  0  0
  4  5  1  0  0  0  0
  5  6  2  0  0  0  0
  6  1  1  0  0  0  0
  6 21  1  0  0  0  0
  7  3  1  0  0  0  0
  8  4  1  0  0  0  0
  9  5  1  0  0  0  0
 10 15  1  0  0  0  0
 11 12  1  0  0  0  0
 11 10  2  0  0  0  0
 12 13  2  0  0  0  0
 13 14  1  0  0  0  0
 14 18  1  0  0  0  0
 15 14  2  0  0  0  0
 16 10  1  0  0  0  0
 16 20  1  0  0  0  0
 17 11  1  0  0  0  0
 19 16  1  0  0  0  0
 21 26  1  0  0  0  0
 22 21  2  0  0  0  0
 22 23  1  0  0  0  0
 23 24  2  0  0  0  0
 24 25  1  0  0  0  0
 24 29  1  0  0  0  0
 25 30  1  0  0  0  0
 26 32  1  0  0  0  0
 26 25  2  0  0  0  0
 27 22  1  0  0  0  0
 28 23  1  0  0  0  0
 31 41  2  0  0  0  0
 31 32  1  0  0  0  0
 32 33  2  0  0  0  0
 33 35  1  0  0  0  0
 33 34  1  0  0  0  0
 35 36  1  0  0  0  0
 36 42  1  0  0  0  0
 37 36  1  0  0  0  0
 37 38  1  0  0  0  0
 39 37  2  0  0  0  0
 40 39  1  0  0  0  0
 40 35  2  0  0  0  0
 41 40  1  0  0  0  0
 44 43  3  0  0  0  0
M  END
>  <minimizedAffinity>
-6.12158442

>  <minimizedRMSD>
0.212857828

$$$$
