
 OpenBabel03252505343D

 33 36  0  0  0  0  0  0  0  0999 V2000
   46.4790   34.7360   42.1420 C   0  0  0  0  0  0  0  0  0  0  0  0
   47.7800   35.1590   41.9950 C   0  0  0  0  0  0  0  0  0  0  0  0
   48.5270   34.9580   40.8380 C   0  0  0  0  0  0  0  0  0  0  0  0
   47.9490   34.2990   39.7630 C   0  0  0  0  0  0  0  0  0  0  0  0
   46.6520   33.8800   39.9170 C   0  0  0  0  0  0  0  0  0  0  0  0
   45.9260   34.0870   41.0710 C   0  0  0  0  0  0  0  0  0  0  0  0
   48.2610   35.6770   42.8180 H   0  0  0  0  0  0  0  0  0  0  0  0
   49.5510   35.3180   40.7860 H   0  0  0  0  0  0  0  0  0  0  0  0
   48.5780   34.1760   38.9000 H   0  0  0  0  0  0  0  0  0  0  0  0
   46.2240   33.3630   39.0500 H   0  0  0  0  0  0  0  0  0  0  0  0
   43.6900   34.3360   40.3320 C   0  0  0  0  0  0  0  0  0  0  0  0
   44.5500   33.6110   41.1550 C   0  0  0  0  0  0  0  0  0  0  0  0
   44.0180   32.5890   41.9070 C   0  0  0  0  0  0  0  0  0  0  0  0
   44.7520   32.0840   42.5120 H   0  0  0  0  0  0  0  0  0  0  0  0
   42.6780   32.2930   41.8450 C   0  0  0  0  0  0  0  0  0  0  0  0
   41.9840   31.3440   42.4970 N   0  0  0  0  0  0  0  0  0  0  0  0
   40.7000   31.4540   42.1000 C   0  0  0  0  0  0  0  0  0  0  0  0
   39.8480   30.8660   42.4040 H   0  0  0  0  0  0  0  0  0  0  0  0
   40.6180   32.4750   41.2060 N   0  0  0  0  0  0  0  0  0  0  0  0
   41.8330   33.0050   41.0370 C   0  0  0  0  0  0  0  0  0  0  0  0
   42.3400   34.0420   40.2680 C   0  0  0  0  0  0  0  0  0  0  0  0
   42.3560   30.6530   43.1760 H   0  0  0  0  0  0  0  0  0  0  0  0
   44.4180   36.2570   44.8830 C   0  0  0  0  0  0  0  0  0  0  0  0
   45.0280   36.1110   43.6200 C   0  0  0  0  0  0  0  0  0  0  0  0
   45.8080   34.9960   43.3790 C   0  0  0  0  0  0  0  0  0  0  0  0
   45.9480   34.0890   44.3780 N   0  0  0  0  0  0  0  0  0  0  0  0
   45.3500   34.2530   45.5820 C   0  0  0  0  0  0  0  0  0  0  0  0
   44.5850   35.3430   45.8260 N   0  0  0  0  0  0  0  0  0  0  0  0
   45.5120   33.2780   46.6220 N   0  0  0  0  0  0  0  0  0  0  0  0
   43.8110   37.1400   45.0500 H   0  0  0  0  0  0  0  0  0  0  0  0
   44.9250   36.8230   42.8230 H   0  0  0  0  0  0  0  0  0  0  0  0
   44.7180   33.0750   47.2810 H   0  0  0  0  0  0  0  0  0  0  0  0
   46.3830   32.7100   46.8110 H   0  0  0  0  0  0  0  0  0  0  0  0
  1 25  1  0  0  0  0
  2  1  1  0  0  0  0
  2  7  1  0  0  0  0
  3  2  2  0  0  0  0
  4  5  2  0  0  0  0
  4  3  1  0  0  0  0
  5  6  1  0  0  0  0
  6 12  1  0  0  0  0
  6  1  2  0  0  0  0
  8  3  1  0  0  0  0
  9  4  1  0  0  0  0
 10  5  1  0  0  0  0
 11 12  1  0  0  0  0
 12 13  2  0  0  0  0
 13 14  1  0  0  0  0
 15 13  1  0  0  0  0
 15 16  1  0  0  0  0
 16 22  1  0  0  0  0
 17 18  1  0  0  0  0
 17 16  1  0  0  0  0
 19 17  2  0  0  0  0
 20 19  1  0  0  0  0
 20 15  2  0  0  0  0
 21 11  2  0  0  0  0
 21 20  1  0  0  0  0
 23 30  1  0  0  0  0
 23 28  1  0  0  0  0
 24 23  2  0  0  0  0
 25 24  1  0  0  0  0
 25 26  2  0  0  0  0
 26 27  1  0  0  0  0
 27 28  2  0  0  0  0
 27 29  1  0  0  0  0
 29 33  1  0  0  0  0
 29 32  1  0  0  0  0
 31 24  1  0  0  0  0
M  END
>  <minimizedAffinity>
-7.14370346

>  <minimizedRMSD>
0.664850175

$$$$
