
 OpenBabel03252508173D

 50 55  0  0  1  0  0  0  0  0999 V2000
   46.8920   31.7010   48.2810 C   0  0  1  0  0  0  0  0  0  0  0  0
   46.3000   30.7150   49.2300 C   0  0  0  0  0  0  0  0  0  0  0  0
   47.6360   31.2430   49.4710 C   0  0  1  0  0  0  0  0  0  0  0  0
   46.2510   32.6300   48.2690 H   0  0  0  0  0  0  0  0  0  0  0  0
   46.2560   29.6370   48.9280 H   0  0  0  0  0  0  0  0  0  0  0  0
   45.4740   30.9740   49.9200 H   0  0  0  0  0  0  0  0  0  0  0  0
   47.7240   31.9850   50.2930 H   0  0  0  0  0  0  0  0  0  0  0  0
   48.8730   30.4270   49.2580 C   0  0  2  0  0  0  0  0  0  0  0  0
   49.7050   30.2330   50.5510 C   0  0  0  0  0  0  0  0  0  0  0  0
   50.2130   31.1180   49.4890 C   0  0  1  0  0  0  0  0  0  0  0  0
   48.8580   29.4920   48.6830 H   0  0  0  0  0  0  0  0  0  0  0  0
   49.3440   30.7160   51.4790 H   0  0  0  0  0  0  0  0  0  0  0  0
   50.2320   29.3020   50.7300 H   0  0  0  0  0  0  0  0  0  0  0  0
   50.1560   32.2140   49.6680 H   0  0  0  0  0  0  0  0  0  0  0  0
   51.4450   29.4880   48.0600 C   0  0  0  0  0  3  0  0  0  0  0  0
   51.3990   30.6830   48.7460 C   0  0  0  0  0  0  0  0  0  0  0  0
   52.5600   31.4630   48.6930 C   0  0  0  0  0  0  0  0  0  0  0  0
   52.5060   32.4130   49.2460 H   0  0  0  0  0  0  0  0  0  0  0  0
   53.7070   31.1160   48.0170 C   0  0  0  0  0  0  0  0  0  0  0  0
   54.8850   31.7700   47.8850 N   0  0  0  0  0  0  0  0  0  0  0  0
   55.6360   30.9750   47.1250 C   0  0  0  0  0  0  0  0  0  0  0  0
   56.6400   31.2210   46.8410 H   0  0  0  0  0  0  0  0  0  0  0  0
   54.9540   29.8450   46.7820 N   0  0  0  0  0  0  0  0  0  0  0  0
   53.7310   29.9170   47.3370 C   0  0  0  0  0  0  0  0  0  0  0  0
   52.5930   29.1230   47.3730 C   0  0  0  0  0  3  0  0  0  0  0  0
   55.1600   32.7050   48.2920 H   0  0  0  0  0  0  0  0  0  0  0  0
   47.2220   31.1570   46.9390 C   0  0  0  0  0  0  0  0  0  0  0  0
   48.2030   30.7650   46.7580 H   0  0  0  0  0  0  0  0  0  0  0  0
   46.4860   30.3230   46.7420 H   0  0  0  0  0  0  0  0  0  0  0  0
   46.1090   33.0850   46.1700 C   0  0  0  0  0  3  0  0  0  0  0  0
   46.9330   32.1750   45.8610 C   0  0  0  0  0  3  0  0  0  0  0  0
   44.5310   35.9000   44.3860 C   0  0  0  0  0  0  0  0  0  0  0  0
   45.1570   35.8810   43.1530 C   0  0  0  0  0  0  0  0  0  0  0  0
   46.0970   34.9070   42.9620 C   0  0  0  0  0  0  0  0  0  0  0  0
   46.3670   34.0260   43.9670 N   0  0  0  0  0  0  0  0  0  0  0  0
   45.7400   34.0740   45.1520 C   0  0  0  0  0  0  0  0  0  0  0  0
   44.8300   35.0180   45.3330 N   0  0  0  0  0  0  0  0  0  0  0  0
   43.7840   36.6820   44.5250 H   0  0  0  0  0  0  0  0  0  0  0  0
   44.9780   36.5470   42.3450 H   0  0  0  0  0  0  0  0  0  0  0  0
   46.8390   34.7600   41.7180 C   0  0  0  0  0  0  0  0  0  0  0  0
   48.0440   35.3470   41.4620 C   0  0  0  0  0  0  0  0  0  0  0  0
   48.7380   35.2000   40.2770 C   0  0  0  0  0  0  0  0  0  0  0  0
   48.2120   34.4220   39.2730 C   0  0  0  0  0  0  0  0  0  0  0  0
   47.0040   33.8090   39.4750 C   0  0  0  0  0  0  0  0  0  0  0  0
   46.3630   33.9950   40.6790 C   0  0  0  0  0  0  0  0  0  0  0  0
   48.5010   35.9790   42.2400 H   0  0  0  0  0  0  0  0  0  0  0  0
   49.6910   35.6850   40.1180 H   0  0  0  0  0  0  0  0  0  0  0  0
   48.7120   34.2720   38.3260 H   0  0  0  0  0  0  0  0  0  0  0  0
   46.5770   33.1880   38.6860 H   0  0  0  0  0  0  0  0  0  0  0  0
   45.4000   33.4690   40.7600 H   0  0  0  0  0  0  0  0  0  0  0  0
  1  4  1  1  0  0  0
  1  2  1  0  0  0  0
  1  3  1  0  0  0  0
  2  3  1  0  0  0  0
  2  6  1  0  0  0  0
  3  7  1  1  0  0  0
  5  2  1  0  0  0  0
  8 11  1  6  0  0  0
  8  3  1  0  0  0  0
  8 10  1  0  0  0  0
  8  9  1  0  0  0  0
  9 13  1  0  0  0  0
  9 12  1  0  0  0  0
 10 14  1  1  0  0  0
 10  9  1  0  0  0  0
 15 16  1  0  0  0  0
 16 10  1  0  0  0  0
 17 16  2  0  0  0  0
 17 18  1  0  0  0  0
 19 17  1  0  0  0  0
 20 19  1  0  0  0  0
 20 26  1  0  0  0  0
 21 20  1  0  0  0  0
 22 21  1  0  0  0  0
 23 21  2  0  0  0  0
 23 24  1  0  0  0  0
 24 25  1  0  0  0  0
 24 19  2  0  0  0  0
 25 15  2  0  0  0  0
 27  1  1  0  0  0  0
 28 27  1  0  0  0  0
 29 27  1  0  0  0  0
 31 30  2  0  0  0  0
 31 27  1  0  0  0  0
 32 38  1  0  0  0  0
 32 37  1  0  0  0  0
 33 32  2  0  0  0  0
 34 33  1  0  0  0  0
 34 35  2  0  0  0  0
 35 36  1  0  0  0  0
 36 37  2  0  0  0  0
 36 30  1  0  0  0  0
 39 33  1  0  0  0  0
 40 34  1  0  0  0  0
 41 40  1  0  0  0  0
 41 46  1  0  0  0  0
 42 41  2  0  0  0  0
 43 44  2  0  0  0  0
 43 42  1  0  0  0  0
 44 45  1  0  0  0  0
 45 50  1  0  0  0  0
 45 40  2  0  0  0  0
 47 42  1  0  0  0  0
 48 43  1  0  0  0  0
 49 44  1  0  0  0  0
M  END
>  <minimizedAffinity>
-6.66601658

>  <minimizedRMSD>
0.947264075

$$$$
