
 OpenBabel03242513223D

 37 40  0  0  1  0  0  0  0  0999 V2000
   37.6650   26.0080   41.9200 C   0  0  2  0  0  0  0  0  0  0  0  0
   36.9330   24.8600   41.2360 C   0  0  0  0  0  0  0  0  0  0  0  0
   38.1680   23.9850   40.9930 C   0  0  0  0  0  0  0  0  0  0  0  0
   38.8570   24.0420   42.1910 O   0  0  0  0  0  0  0  0  0  0  0  0
   38.5770   25.2550   42.8070 C   0  0  1  0  0  0  0  0  0  0  0  0
   38.2740   26.4900   41.1150 H   0  0  0  0  0  0  0  0  0  0  0  0
   36.4780   25.1770   40.2810 H   0  0  0  0  0  0  0  0  0  0  0  0
   36.2460   24.3470   41.9290 H   0  0  0  0  0  0  0  0  0  0  0  0
   38.7490   24.3960   40.1470 H   0  0  0  0  0  0  0  0  0  0  0  0
   37.8500   22.9180   40.8250 H   0  0  0  0  0  0  0  0  0  0  0  0
   38.1460   24.9890   43.7970 H   0  0  0  0  0  0  0  0  0  0  0  0
   40.1530   27.2960   43.1380 C   0  0  0  0  0  3  0  0  0  0  0  0
   39.8950   25.9460   43.0320 C   0  0  0  0  0  0  0  0  0  0  0  0
   40.9570   25.0500   43.1410 C   0  0  0  0  0  0  0  0  0  0  0  0
   40.8510   23.9610   43.0700 H   0  0  0  0  0  0  0  0  0  0  0  0
   42.2620   25.4470   43.3500 C   0  0  0  0  0  0  0  0  0  0  0  0
   43.4440   24.8200   43.4880 N   0  0  0  0  0  0  0  0  0  0  0  0
   44.3900   25.7730   43.6740 C   0  0  0  0  0  0  0  0  0  0  0  0
   45.4630   25.6500   43.8220 H   0  0  0  0  0  0  0  0  0  0  0  0
   43.8310   27.0040   43.6550 N   0  0  0  0  0  0  0  0  0  0  0  0
   42.5040   26.8010   43.4530 C   0  0  0  0  0  0  0  0  0  0  0  0
   41.4570   27.6930   43.3470 C   0  0  0  0  0  3  0  0  0  0  0  0
   43.6010   23.7940   43.4580 H   0  0  0  0  0  0  0  0  0  0  0  0
   36.7500   26.9670   42.5920 C   0  0  0  0  0  0  0  0  0  0  0  0
   35.7230   26.5560   42.5460 H   0  0  0  0  0  0  0  0  0  0  0  0
   36.9770   27.0600   43.6760 H   0  0  0  0  0  0  0  0  0  0  0  0
   37.3910   28.5780   40.8490 C   0  0  0  0  0  3  0  0  0  0  0  0
   36.7330   28.3110   41.9600 C   0  0  0  0  0  3  0  0  0  0  0  0
   37.4010   32.2200   40.4100 C   0  0  0  0  0  0  0  0  0  0  0  0
   37.2410   32.3490   38.9970 C   0  0  0  0  0  0  0  0  0  0  0  0
   37.1370   31.1610   38.2640 C   0  0  0  0  0  0  0  0  0  0  0  0
   37.1930   29.9630   38.9200 N   0  0  0  0  0  0  0  0  0  0  0  0
   37.3460   29.8990   40.2690 C   0  0  0  0  0  0  0  0  0  0  0  0
   37.4490   31.0020   41.0000 N   0  0  0  0  0  0  0  0  0  0  0  0
   37.4840   33.1010   41.0120 H   0  0  0  0  0  0  0  0  0  0  0  0
   37.2100   33.3410   38.5850 H   0  0  0  0  0  0  0  0  0  0  0  0
   37.0180   31.2600   37.2120 H   0  0  0  0  0  0  0  0  0  0  0  0
  1  6  1  6  0  0  0
  1 24  1  0  0  0  0
  1  5  1  0  0  0  0
  2  1  1  0  0  0  0
  2  8  1  0  0  0  0
  3  2  1  0  0  0  0
  3  4  1  0  0  0  0
  4  5  1  0  0  0  0
  5 13  1  0  0  0  0
  5 11  1  1  0  0  0
  7  2  1  0  0  0  0
  9  3  1  0  0  0  0
 10  3  1  0  0  0  0
 12 22  1  0  0  0  0
 13 12  2  0  0  0  0
 13 14  1  0  0  0  0
 14 16  2  0  0  0  0
 15 14  1  0  0  0  0
 16 21  1  0  0  0  0
 16 17  1  0  0  0  0
 17 18  1  0  0  0  0
 18 19  1  0  0  0  0
 20 18  2  0  0  0  0
 21 20  1  0  0  0  0
 22 21  2  0  0  0  0
 23 17  1  0  0  0  0
 24 26  1  0  0  0  0
 25 24  1  0  0  0  0
 27 28  2  0  0  0  0
 28 24  1  0  0  0  0
 29 34  1  0  0  0  0
 29 35  1  0  0  0  0
 30 29  2  0  0  0  0
 31 32  2  0  0  0  0
 31 30  1  0  0  0  0
 32 33  1  0  0  0  0
 33 27  1  0  0  0  0
 33 34  2  0  0  0  0
 36 30  1  0  0  0  0
 37 31  1  0  0  0  0
M  END
>  <minimizedAffinity>
-5.90280294

$$$$

 OpenBabel03242513223D

 37 40  0  0  1  0  0  0  0  0999 V2000
   35.6900   28.8160   36.9960 C   0  0  2  0  0  0  0  0  0  0  0  0
   34.4160   29.0050   36.1830 C   0  0  0  0  0  0  0  0  0  0  0  0
   33.4630   28.3650   37.2000 C   0  0  0  0  0  0  0  0  0  0  0  0
   33.8600   28.9020   38.4110 O   0  0  0  0  0  0  0  0  0  0  0  0
   35.2130   29.2070   38.3400 C   0  0  1  0  0  0  0  0  0  0  0  0
   35.8790   27.7130   36.9960 H   0  0  0  0  0  0  0  0  0  0  0  0
   34.4400   28.4250   35.2440 H   0  0  0  0  0  0  0  0  0  0  0  0
   34.1660   30.0720   36.0620 H   0  0  0  0  0  0  0  0  0  0  0  0
   33.5720   27.2660   37.1650 H   0  0  0  0  0  0  0  0  0  0  0  0
   32.4080   28.7040   36.9980 H   0  0  0  0  0  0  0  0  0  0  0  0
   35.2810   30.2960   38.5560 H   0  0  0  0  0  0  0  0  0  0  0  0
   36.3360   27.1530   39.4690 C   0  0  0  0  0  3  0  0  0  0  0  0
   35.8910   28.4570   39.4540 C   0  0  0  0  0  0  0  0  0  0  0  0
   36.0650   29.2380   40.5960 C   0  0  0  0  0  0  0  0  0  0  0  0
   35.7450   30.2840   40.6790 H   0  0  0  0  0  0  0  0  0  0  0  0
   36.6640   28.7690   41.7480 C   0  0  0  0  0  0  0  0  0  0  0  0
   36.9520   29.2850   42.9560 N   0  0  0  0  0  0  0  0  0  0  0  0
   37.5560   28.3110   43.6790 C   0  0  0  0  0  0  0  0  0  0  0  0
   37.9320   28.3540   44.7020 H   0  0  0  0  0  0  0  0  0  0  0  0
   37.6590   27.1760   42.9520 N   0  0  0  0  0  0  0  0  0  0  0  0
   37.1030   27.4610   41.7470 C   0  0  0  0  0  0  0  0  0  0  0  0
   36.9340   26.6840   40.6200 C   0  0  0  0  0  3  0  0  0  0  0  0
   36.7470   30.2520   43.2740 H   0  0  0  0  0  0  0  0  0  0  0  0
   36.8420   29.5900   36.4650 C   0  0  0  0  0  0  0  0  0  0  0  0
   37.7160   28.9120   36.3990 H   0  0  0  0  0  0  0  0  0  0  0  0
   36.6610   29.9300   35.4220 H   0  0  0  0  0  0  0  0  0  0  0  0
   38.3580   30.7840   37.9860 C   0  0  0  0  0  3  0  0  0  0  0  0
   37.2230   30.7450   37.3160 C   0  0  0  0  0  3  0  0  0  0  0  0
   40.1910   33.2760   39.9590 C   0  0  0  0  0  0  0  0  0  0  0  0
   39.1470   34.1610   40.3640 C   0  0  0  0  0  0  0  0  0  0  0  0
   37.8530   33.8480   39.9310 C   0  0  0  0  0  0  0  0  0  0  0  0
   37.6570   32.7370   39.1590 N   0  0  0  0  0  0  0  0  0  0  0  0
   38.6890   31.9280   38.8030 C   0  0  0  0  0  0  0  0  0  0  0  0
   39.9300   32.1900   39.1930 N   0  0  0  0  0  0  0  0  0  0  0  0
   41.1970   33.4740   40.2670 H   0  0  0  0  0  0  0  0  0  0  0  0
   39.4130   35.0060   40.9710 H   0  0  0  0  0  0  0  0  0  0  0  0
   37.0770   34.5090   40.2330 H   0  0  0  0  0  0  0  0  0  0  0  0
  1  6  1  1  0  0  0
  1  5  1  0  0  0  0
  2  1  1  0  0  0  0
  2  3  1  0  0  0  0
  3  4  1  0  0  0  0
  5  4  1  0  0  0  0
  5 11  1  1  0  0  0
  5 13  1  0  0  0  0
  7  2  1  0  0  0  0
  8  2  1  0  0  0  0
  9  3  1  0  0  0  0
 10  3  1  0  0  0  0
 12 22  1  0  0  0  0
 13 12  2  0  0  0  0
 13 14  1  0  0  0  0
 14 15  1  0  0  0  0
 14 16  2  0  0  0  0
 16 17  1  0  0  0  0
 17 23  1  0  0  0  0
 17 18  1  0  0  0  0
 18 19  1  0  0  0  0
 20 18  2  0  0  0  0
 21 16  1  0  0  0  0
 21 20  1  0  0  0  0
 22 21  2  0  0  0  0
 24  1  1  0  0  0  0
 24 28  1  0  0  0  0
 25 24  1  0  0  0  0
 26 24  1  0  0  0  0
 27 33  1  0  0  0  0
 28 27  2  0  0  0  0
 29 35  1  0  0  0  0
 29 30  1  0  0  0  0
 30 36  1  0  0  0  0
 31 37  1  0  0  0  0
 31 30  2  0  0  0  0
 32 31  1  0  0  0  0
 33 32  2  0  0  0  0
 33 34  1  0  0  0  0
 34 29  2  0  0  0  0
M  END
>  <minimizedAffinity>
-5.85904741

$$$$

 OpenBabel03242513223D

 37 40  0  0  1  0  0  0  0  0999 V2000
   35.5880   29.4640   39.4350 C   0  0  2  0  0  0  0  0  0  0  0  0
   35.0040   28.5930   38.3300 C   0  0  0  0  0  0  0  0  0  0  0  0
   35.6510   29.3390   37.1580 C   0  0  0  0  0  0  0  0  0  0  0  0
   36.9560   29.5370   37.5690 O   0  0  0  0  0  0  0  0  0  0  0  0
   36.9790   29.6100   38.9560 C   0  0  1  0  0  0  0  0  0  0  0  0
   35.0740   30.4530   39.3330 H   0  0  0  0  0  0  0  0  0  0  0  0
   33.9030   28.6670   38.2890 H   0  0  0  0  0  0  0  0  0  0  0  0
   35.3970   27.5630   38.3750 H   0  0  0  0  0  0  0  0  0  0  0  0
   35.1100   30.2880   36.9830 H   0  0  0  0  0  0  0  0  0  0  0  0
   35.6690   28.6760   36.2480 H   0  0  0  0  0  0  0  0  0  0  0  0
   37.6680   28.8000   39.2810 H   0  0  0  0  0  0  0  0  0  0  0  0
   36.9880   32.1650   39.4320 C   0  0  0  0  0  3  0  0  0  0  0  0
   37.5970   30.9340   39.3150 C   0  0  0  0  0  0  0  0  0  0  0  0
   38.9680   30.8390   39.5500 C   0  0  0  0  0  0  0  0  0  0  0  0
   39.5390   29.9050   39.4820 H   0  0  0  0  0  0  0  0  0  0  0  0
   39.7520   31.9200   39.8960 C   0  0  0  0  0  0  0  0  0  0  0  0
   41.0540   32.1100   40.1710 N   0  0  0  0  0  0  0  0  0  0  0  0
   41.2240   33.4260   40.4470 C   0  0  0  0  0  0  0  0  0  0  0  0
   42.1390   33.9560   40.7130 H   0  0  0  0  0  0  0  0  0  0  0  0
   40.0470   34.0840   40.3510 N   0  0  0  0  0  0  0  0  0  0  0  0
   39.1280   33.1460   40.0090 C   0  0  0  0  0  0  0  0  0  0  0  0
   37.7720   33.2460   39.7770 C   0  0  0  0  0  3  0  0  0  0  0  0
   41.7940   31.3810   40.1710 H   0  0  0  0  0  0  0  0  0  0  0  0
   35.4260   28.8760   40.7900 C   0  0  0  0  0  0  0  0  0  0  0  0
   35.4720   29.6960   41.5320 H   0  0  0  0  0  0  0  0  0  0  0  0
   34.4190   28.4220   40.9220 H   0  0  0  0  0  0  0  0  0  0  0  0
   36.9520   27.7590   42.3590 C   0  0  0  0  0  3  0  0  0  0  0  0
   36.4770   27.8870   41.1360 C   0  0  0  0  0  3  0  0  0  0  0  0
   39.9480   26.1020   43.6800 C   0  0  0  0  0  0  0  0  0  0  0  0
   39.8430   24.7990   43.1070 C   0  0  0  0  0  0  0  0  0  0  0  0
   38.7330   24.5590   42.2880 C   0  0  0  0  0  0  0  0  0  0  0  0
   37.8250   25.5590   42.0810 N   0  0  0  0  0  0  0  0  0  0  0  0
   37.9750   26.7830   42.6520 C   0  0  0  0  0  0  0  0  0  0  0  0
   39.0130   27.0520   43.4350 N   0  0  0  0  0  0  0  0  0  0  0  0
   40.7800   26.3340   44.3120 H   0  0  0  0  0  0  0  0  0  0  0  0
   40.6140   24.0870   43.3370 H   0  0  0  0  0  0  0  0  0  0  0  0
   38.6570   23.5870   41.8640 H   0  0  0  0  0  0  0  0  0  0  0  0
  1  6  1  6  0  0  0
  1 24  1  0  0  0  0
  2  8  1  0  0  0  0
  2  1  1  0  0  0  0
  3  4  1  0  0  0  0
  3  2  1  0  0  0  0
  4  5  1  0  0  0  0
  5 11  1  1  0  0  0
  5 13  1  0  0  0  0
  5  1  1  0  0  0  0
  7  2  1  0  0  0  0
  9  3  1  0  0  0  0
 10  3  1  0  0  0  0
 12 22  1  0  0  0  0
 13 12  2  0  0  0  0
 13 14  1  0  0  0  0
 14 16  2  0  0  0  0
 15 14  1  0  0  0  0
 16 21  1  0  0  0  0
 16 17  1  0  0  0  0
 17 23  1  0  0  0  0
 17 18  1  0  0  0  0
 18 19  1  0  0  0  0
 20 18  2  0  0  0  0
 21 20  1  0  0  0  0
 22 21  2  0  0  0  0
 24 26  1  0  0  0  0
 24 28  1  0  0  0  0
 24 25  1  0  0  0  0
 27 33  1  0  0  0  0
 28 27  2  0  0  0  0
 29 35  1  0  0  0  0
 30 36  1  0  0  0  0
 30 29  2  0  0  0  0
 31 30  1  0  0  0  0
 32 31  2  0  0  0  0
 32 33  1  0  0  0  0
 33 34  2  0  0  0  0
 34 29  1  0  0  0  0
 37 31  1  0  0  0  0
M  END
>  <minimizedAffinity>
-5.85742378

$$$$

 OpenBabel03242513223D

 37 40  0  0  1  0  0  0  0  0999 V2000
   37.6540   28.9680   42.0210 C   0  0  2  0  0  0  0  0  0  0  0  0
   38.7210   29.7630   42.7620 C   0  0  0  0  0  0  0  0  0  0  0  0
   38.9540   30.8080   41.6650 C   0  0  0  0  0  0  0  0  0  0  0  0
   37.6780   31.1530   41.2590 O   0  0  0  0  0  0  0  0  0  0  0  0
   36.8370   30.0670   41.4650 C   0  0  1  0  0  0  0  0  0  0  0  0
   38.1920   28.4660   41.1780 H   0  0  0  0  0  0  0  0  0  0  0  0
   39.6320   29.1620   42.9370 H   0  0  0  0  0  0  0  0  0  0  0  0
   38.3120   30.2530   43.6600 H   0  0  0  0  0  0  0  0  0  0  0  0
   39.5540   30.3600   40.8520 H   0  0  0  0  0  0  0  0  0  0  0  0
   39.4380   31.7230   42.1090 H   0  0  0  0  0  0  0  0  0  0  0  0
   36.0380   30.4390   42.1430 H   0  0  0  0  0  0  0  0  0  0  0  0
   34.9910   29.1640   39.8740 C   0  0  0  0  0  3  0  0  0  0  0  0
   36.2180   29.7350   40.1350 C   0  0  0  0  0  0  0  0  0  0  0  0
   37.0400   30.0750   39.0610 C   0  0  0  0  0  0  0  0  0  0  0  0
   38.0310   30.5330   39.1680 H   0  0  0  0  0  0  0  0  0  0  0  0
   36.6880   29.8670   37.7430 C   0  0  0  0  0  0  0  0  0  0  0  0
   37.2660   30.0900   36.5510 N   0  0  0  0  0  0  0  0  0  0  0  0
   36.4050   29.6610   35.5950 C   0  0  0  0  0  0  0  0  0  0  0  0
   36.5250   29.6770   34.5110 H   0  0  0  0  0  0  0  0  0  0  0  0
   35.2820   29.1650   36.1600 N   0  0  0  0  0  0  0  0  0  0  0  0
   35.4560   29.2930   37.4990 C   0  0  0  0  0  0  0  0  0  0  0  0
   34.6380   28.9560   38.5570 C   0  0  0  0  0  3  0  0  0  0  0  0
   38.2020   30.5130   36.3910 H   0  0  0  0  0  0  0  0  0  0  0  0
   36.9360   28.0010   42.8920 C   0  0  0  0  0  0  0  0  0  0  0  0
   37.4120   28.0140   43.8920 H   0  0  0  0  0  0  0  0  0  0  0  0
   35.8830   28.3120   43.0690 H   0  0  0  0  0  0  0  0  0  0  0  0
   37.1390   26.3220   41.1090 C   0  0  0  0  0  3  0  0  0  0  0  0
   36.9740   26.6060   42.3860 C   0  0  0  0  0  3  0  0  0  0  0  0
   38.0710   22.8050   40.6330 C   0  0  0  0  0  0  0  0  0  0  0  0
   37.0880   22.3620   39.6980 C   0  0  0  0  0  0  0  0  0  0  0  0
   36.1460   23.3080   39.2780 C   0  0  0  0  0  0  0  0  0  0  0  0
   36.2120   24.5810   39.7710 N   0  0  0  0  0  0  0  0  0  0  0  0
   37.1710   24.9500   40.6600 C   0  0  0  0  0  0  0  0  0  0  0  0
   38.0820   24.0830   41.0840 N   0  0  0  0  0  0  0  0  0  0  0  0
   38.8130   22.1170   40.9830 H   0  0  0  0  0  0  0  0  0  0  0  0
   37.1290   21.3370   39.3770 H   0  0  0  0  0  0  0  0  0  0  0  0
   35.4150   22.9750   38.5830 H   0  0  0  0  0  0  0  0  0  0  0  0
  1  6  1  6  0  0  0
  1  2  1  0  0  0  0
  1 24  1  0  0  0  0
  2  7  1  0  0  0  0
  2  8  1  0  0  0  0
  3 10  1  0  0  0  0
  3  2  1  0  0  0  0
  4  5  1  0  0  0  0
  4  3  1  0  0  0  0
  5  1  1  0  0  0  0
  5 11  1  1  0  0  0
  9  3  1  0  0  0  0
 12 13  1  0  0  0  0
 13  5  1  0  0  0  0
 14 15  1  0  0  0  0
 14 13  2  0  0  0  0
 16 14  1  0  0  0  0
 17 16  1  0  0  0  0
 18 20  2  0  0  0  0
 18 17  1  0  0  0  0
 19 18  1  0  0  0  0
 20 21  1  0  0  0  0
 21 16  2  0  0  0  0
 21 22  1  0  0  0  0
 22 12  2  0  0  0  0
 23 17  1  0  0  0  0
 24 26  1  0  0  0  0
 24 25  1  0  0  0  0
 27 28  2  0  0  0  0
 28 24  1  0  0  0  0
 29 35  1  0  0  0  0
 29 34  1  0  0  0  0
 30 29  2  0  0  0  0
 31 30  1  0  0  0  0
 31 32  2  0  0  0  0
 32 33  1  0  0  0  0
 33 34  2  0  0  0  0
 33 27  1  0  0  0  0
 36 30  1  0  0  0  0
 37 31  1  0  0  0  0
M  END
>  <minimizedAffinity>
-5.59563303

$$$$

 OpenBabel03242513223D

 37 40  0  0  1  0  0  0  0  0999 V2000
   39.5280   31.5530   41.0540 C   0  0  2  0  0  0  0  0  0  0  0  0
   40.4860   32.6710   40.6640 C   0  0  0  0  0  0  0  0  0  0  0  0
   39.7890   33.0480   39.3510 C   0  0  0  0  0  0  0  0  0  0  0  0
   38.4460   33.0720   39.6830 O   0  0  0  0  0  0  0  0  0  0  0  0
   38.2310   32.1830   40.7280 C   0  0  1  0  0  0  0  0  0  0  0  0
   39.7170   30.7320   40.3180 H   0  0  0  0  0  0  0  0  0  0  0  0
   41.5050   32.2900   40.4760 H   0  0  0  0  0  0  0  0  0  0  0  0
   40.4310   33.5170   41.3680 H   0  0  0  0  0  0  0  0  0  0  0  0
   40.0240   32.2930   38.5800 H   0  0  0  0  0  0  0  0  0  0  0  0
   40.0910   34.0900   39.0460 H   0  0  0  0  0  0  0  0  0  0  0  0
   37.7940   32.7940   41.5470 H   0  0  0  0  0  0  0  0  0  0  0  0
   36.2280   30.5490   40.9980 C   0  0  0  0  0  3  0  0  0  0  0  0
   37.1920   31.2010   40.2600 C   0  0  0  0  0  0  0  0  0  0  0  0
   37.2630   30.9590   38.8880 C   0  0  0  0  0  0  0  0  0  0  0  0
   37.9940   31.4290   38.2190 H   0  0  0  0  0  0  0  0  0  0  0  0
   36.4140   30.0950   38.2280 C   0  0  0  0  0  0  0  0  0  0  0  0
   36.2620   29.6860   36.9560 N   0  0  0  0  0  0  0  0  0  0  0  0
   35.2300   28.8080   36.9320 C   0  0  0  0  0  0  0  0  0  0  0  0
   34.8130   28.2670   36.0830 H   0  0  0  0  0  0  0  0  0  0  0  0
   34.7170   28.6470   38.1730 N   0  0  0  0  0  0  0  0  0  0  0  0
   35.4540   29.4500   38.9820 C   0  0  0  0  0  0  0  0  0  0  0  0
   35.3780   29.6860   40.3390 C   0  0  0  0  0  3  0  0  0  0  0  0
   36.8330   29.9880   36.1430 H   0  0  0  0  0  0  0  0  0  0  0  0
   39.6960   31.1040   42.4610 C   0  0  0  0  0  0  0  0  0  0  0  0
   40.5860   31.6110   42.8830 H   0  0  0  0  0  0  0  0  0  0  0  0
   38.8470   31.4310   43.1000 H   0  0  0  0  0  0  0  0  0  0  0  0
   38.8930   28.7900   42.6540 C   0  0  0  0  0  3  0  0  0  0  0  0
   39.8990   29.6390   42.5950 C   0  0  0  0  0  3  0  0  0  0  0  0
   38.6040   25.1410   42.3970 C   0  0  0  0  0  0  0  0  0  0  0  0
   39.7460   24.7010   43.1300 C   0  0  0  0  0  0  0  0  0  0  0  0
   40.5640   25.6950   43.6790 C   0  0  0  0  0  0  0  0  0  0  0  0
   40.2370   27.0090   43.4920 N   0  0  0  0  0  0  0  0  0  0  0  0
   39.1350   27.3720   42.7850 C   0  0  0  0  0  0  0  0  0  0  0  0
   38.3340   26.4610   42.2480 N   0  0  0  0  0  0  0  0  0  0  0  0
   37.9480   24.4170   41.9600 H   0  0  0  0  0  0  0  0  0  0  0  0
   39.9100   23.6420   43.2160 H   0  0  0  0  0  0  0  0  0  0  0  0
   41.4150   25.3640   44.2240 H   0  0  0  0  0  0  0  0  0  0  0  0
  1  6  1  6  0  0  0
  1 24  1  0  0  0  0
  2  1  1  0  0  0  0
  2  8  1  0  0  0  0
  3  4  1  0  0  0  0
  3  2  1  0  0  0  0
  4  5  1  0  0  0  0
  5  1  1  0  0  0  0
  5 11  1  1  0  0  0
  7  2  1  0  0  0  0
  9  3  1  0  0  0  0
 10  3  1  0  0  0  0
 13  5  1  0  0  0  0
 13 12  2  0  0  0  0
 14 13  1  0  0  0  0
 15 14  1  0  0  0  0
 16 14  2  0  0  0  0
 16 21  1  0  0  0  0
 17 16  1  0  0  0  0
 18 17  1  0  0  0  0
 18 20  2  0  0  0  0
 19 18  1  0  0  0  0
 20 21  1  0  0  0  0
 21 22  2  0  0  0  0
 22 12  1  0  0  0  0
 23 17  1  0  0  0  0
 24 28  1  0  0  0  0
 24 25  1  0  0  0  0
 24 26  1  0  0  0  0
 27 33  1  0  0  0  0
 28 27  2  0  0  0  0
 29 30  1  0  0  0  0
 30 36  1  0  0  0  0
 30 31  2  0  0  0  0
 31 37  1  0  0  0  0
 32 31  1  0  0  0  0
 33 32  2  0  0  0  0
 34 29  2  0  0  0  0
 34 33  1  0  0  0  0
 35 29  1  0  0  0  0
M  END
>  <minimizedAffinity>
-5.54684353

$$$$

 OpenBabel03242513223D

 37 40  0  0  1  0  0  0  0  0999 V2000
   37.8180   26.8300   42.9540 C   0  0  2  0  0  0  0  0  0  0  0  0
   39.1500   26.9760   43.6790 C   0  0  0  0  0  0  0  0  0  0  0  0
   39.8400   25.7740   43.0240 C   0  0  0  0  0  0  0  0  0  0  0  0
   39.5130   25.8920   41.6860 O   0  0  0  0  0  0  0  0  0  0  0  0
   38.2890   26.5410   41.5830 C   0  0  1  0  0  0  0  0  0  0  0  0
   37.3560   25.9000   43.3720 H   0  0  0  0  0  0  0  0  0  0  0  0
   39.0420   26.8260   44.7680 H   0  0  0  0  0  0  0  0  0  0  0  0
   39.6700   27.9040   43.3900 H   0  0  0  0  0  0  0  0  0  0  0  0
   39.4570   24.8400   43.4750 H   0  0  0  0  0  0  0  0  0  0  0  0
   40.9570   25.8770   43.1200 H   0  0  0  0  0  0  0  0  0  0  0  0
   38.4860   27.4430   40.9620 H   0  0  0  0  0  0  0  0  0  0  0  0
   36.9060   24.3790   41.1730 C   0  0  0  0  0  3  0  0  0  0  0  0
   37.3710   25.6270   40.8180 C   0  0  0  0  0  0  0  0  0  0  0  0
   36.9700   26.1710   39.5980 C   0  0  0  0  0  0  0  0  0  0  0  0
   37.2860   27.1540   39.2300 H   0  0  0  0  0  0  0  0  0  0  0  0
   36.1270   25.5180   38.7210 C   0  0  0  0  0  0  0  0  0  0  0  0
   35.5950   25.7960   37.5180 N   0  0  0  0  0  0  0  0  0  0  0  0
   34.8280   24.7380   37.1580 C   0  0  0  0  0  0  0  0  0  0  0  0
   34.2410   24.5970   36.2510 H   0  0  0  0  0  0  0  0  0  0  0  0
   34.8610   23.7840   38.1150 N   0  0  0  0  0  0  0  0  0  0  0  0
   35.6700   24.2690   39.0900 C   0  0  0  0  0  0  0  0  0  0  0  0
   36.0630   23.7280   40.2970 C   0  0  0  0  0  3  0  0  0  0  0  0
   35.7460   26.6630   36.9660 H   0  0  0  0  0  0  0  0  0  0  0  0
   36.9390   28.0180   43.1030 C   0  0  0  0  0  0  0  0  0  0  0  0
   35.9640   27.7900   42.6300 H   0  0  0  0  0  0  0  0  0  0  0  0
   36.7020   28.2220   44.1710 H   0  0  0  0  0  0  0  0  0  0  0  0
   36.8430   29.8820   41.5040 C   0  0  0  0  0  3  0  0  0  0  0  0
   37.4830   29.2420   42.4620 C   0  0  0  0  0  3  0  0  0  0  0  0
   37.3290   32.9050   39.4820 C   0  0  0  0  0  0  0  0  0  0  0  0
   38.6410   33.3120   39.8680 C   0  0  0  0  0  0  0  0  0  0  0  0
   39.2950   32.5150   40.8140 C   0  0  0  0  0  0  0  0  0  0  0  0
   38.6610   31.4110   41.3120 N   0  0  0  0  0  0  0  0  0  0  0  0
   37.4090   31.0690   40.9080 C   0  0  0  0  0  0  0  0  0  0  0  0
   36.7550   31.7980   40.0130 N   0  0  0  0  0  0  0  0  0  0  0  0
   36.7890   33.4830   38.7600 H   0  0  0  0  0  0  0  0  0  0  0  0
   39.0450   34.1980   39.4130 H   0  0  0  0  0  0  0  0  0  0  0  0
   40.2720   32.8210   41.1000 H   0  0  0  0  0  0  0  0  0  0  0  0
  1 24  1  0  0  0  0
  1  6  1  1  0  0  0
  1  2  1  0  0  0  0
  2  7  1  0  0  0  0
  3 10  1  0  0  0  0
  3  9  1  0  0  0  0
  3  2  1  0  0  0  0
  4  3  1  0  0  0  0
  5 11  1  6  0  0  0
  5  4  1  0  0  0  0
  5  1  1  0  0  0  0
  8  2  1  0  0  0  0
 13 12  1  0  0  0  0
 13  5  1  0  0  0  0
 14 13  2  0  0  0  0
 15 14  1  0  0  0  0
 16 21  2  0  0  0  0
 16 14  1  0  0  0  0
 17 16  1  0  0  0  0
 18 17  1  0  0  0  0
 18 20  2  0  0  0  0
 19 18  1  0  0  0  0
 20 21  1  0  0  0  0
 21 22  1  0  0  0  0
 22 12  2  0  0  0  0
 23 17  1  0  0  0  0
 24 26  1  0  0  0  0
 25 24  1  0  0  0  0
 27 28  2  0  0  0  0
 28 24  1  0  0  0  0
 29 30  2  0  0  0  0
 29 34  1  0  0  0  0
 30 31  1  0  0  0  0
 31 37  1  0  0  0  0
 31 32  2  0  0  0  0
 33 32  1  0  0  0  0
 33 27  1  0  0  0  0
 34 33  2  0  0  0  0
 35 29  1  0  0  0  0
 36 30  1  0  0  0  0
M  END
>  <minimizedAffinity>
-5.5438242

$$$$

 OpenBabel03242513223D

 37 40  0  0  1  0  0  0  0  0999 V2000
   37.6420   27.5040   41.5220 C   0  0  2  0  0  0  0  0  0  0  0  0
   38.0930   26.5620   42.6310 C   0  0  0  0  0  0  0  0  0  0  0  0
   38.7730   27.6270   43.5000 C   0  0  0  0  0  0  0  0  0  0  0  0
   37.8730   28.6760   43.5050 O   0  0  0  0  0  0  0  0  0  0  0  0
   37.1450   28.6440   42.3230 C   0  0  1  0  0  0  0  0  0  0  0  0
   38.5810   27.8200   41.0040 H   0  0  0  0  0  0  0  0  0  0  0  0
   38.8260   25.8210   42.2650 H   0  0  0  0  0  0  0  0  0  0  0  0
   37.2350   26.1340   43.1750 H   0  0  0  0  0  0  0  0  0  0  0  0
   39.7450   27.9010   43.0500 H   0  0  0  0  0  0  0  0  0  0  0  0
   38.8740   27.2480   44.5550 H   0  0  0  0  0  0  0  0  0  0  0  0
   36.0810   28.5610   42.6350 H   0  0  0  0  0  0  0  0  0  0  0  0
   36.4280   30.7290   40.9460 C   0  0  0  0  0  3  0  0  0  0  0  0
   37.3420   29.9750   41.6510 C   0  0  0  0  0  0  0  0  0  0  0  0
   38.6410   30.4610   41.7960 C   0  0  0  0  0  0  0  0  0  0  0  0
   39.4370   29.9350   42.3370 H   0  0  0  0  0  0  0  0  0  0  0  0
   39.0620   31.6640   41.2660 C   0  0  0  0  0  0  0  0  0  0  0  0
   40.2160   32.3530   41.2520 N   0  0  0  0  0  0  0  0  0  0  0  0
   39.9990   33.4940   40.5540 C   0  0  0  0  0  0  0  0  0  0  0  0
   40.6980   34.3010   40.3300 H   0  0  0  0  0  0  0  0  0  0  0  0
   38.7200   33.5470   40.1190 N   0  0  0  0  0  0  0  0  0  0  0  0
   38.1350   32.4060   40.5630 C   0  0  0  0  0  0  0  0  0  0  0  0
   36.8480   31.9310   40.4170 C   0  0  0  0  0  3  0  0  0  0  0  0
   41.1100   32.0620   41.6940 H   0  0  0  0  0  0  0  0  0  0  0  0
   36.6600   26.8860   40.5940 C   0  0  0  0  0  0  0  0  0  0  0  0
   36.9120   25.8130   40.4870 H   0  0  0  0  0  0  0  0  0  0  0  0
   35.6310   26.9020   41.0150 H   0  0  0  0  0  0  0  0  0  0  0  0
   35.5580   27.8830   38.6370 C   0  0  0  0  0  3  0  0  0  0  0  0
   36.6640   27.4930   39.2380 C   0  0  0  0  0  3  0  0  0  0  0  0
   34.8140   28.7450   35.1490 C   0  0  0  0  0  0  0  0  0  0  0  0
   35.8470   29.6820   34.8480 C   0  0  0  0  0  0  0  0  0  0  0  0
   36.7540   29.9710   35.8740 C   0  0  0  0  0  0  0  0  0  0  0  0
   36.6100   29.3550   37.0860 N   0  0  0  0  0  0  0  0  0  0  0  0
   35.6070   28.4690   37.3180 C   0  0  0  0  0  0  0  0  0  0  0  0
   34.7260   28.1690   36.3720 N   0  0  0  0  0  0  0  0  0  0  0  0
   34.0960   28.4920   34.3950 H   0  0  0  0  0  0  0  0  0  0  0  0
   35.8670   30.1070   33.8610 H   0  0  0  0  0  0  0  0  0  0  0  0
   37.5220   30.6700   35.6480 H   0  0  0  0  0  0  0  0  0  0  0  0
  1  6  1  6  0  0  0
  1  5  1  0  0  0  0
  1  2  1  0  0  0  0
  2  8  1  0  0  0  0
  2  3  1  0  0  0  0
  3  4  1  0  0  0  0
  3 10  1  0  0  0  0
  5 11  1  1  0  0  0
  5  4  1  0  0  0  0
  7  2  1  0  0  0  0
  9  3  1  0  0  0  0
 12 13  1  0  0  0  0
 13 14  2  0  0  0  0
 13  5  1  0  0  0  0
 14 15  1  0  0  0  0
 16 14  1  0  0  0  0
 17 16  1  0  0  0  0
 17 23  1  0  0  0  0
 18 17  1  0  0  0  0
 19 18  1  0  0  0  0
 20 18  2  0  0  0  0
 20 21  1  0  0  0  0
 21 16  2  0  0  0  0
 22 21  1  0  0  0  0
 22 12  2  0  0  0  0
 24 26  1  0  0  0  0
 24  1  1  0  0  0  0
 25 24  1  0  0  0  0
 27 28  2  0  0  0  0
 28 24  1  0  0  0  0
 29 34  1  0  0  0  0
 30 29  2  0  0  0  0
 30 31  1  0  0  0  0
 31 32  2  0  0  0  0
 32 33  1  0  0  0  0
 33 27  1  0  0  0  0
 34 33  2  0  0  0  0
 35 29  1  0  0  0  0
 36 30  1  0  0  0  0
 37 31  1  0  0  0  0
M  END
>  <minimizedAffinity>
-5.45245171

$$$$

 OpenBabel03242513223D

 37 40  0  0  1  0  0  0  0  0999 V2000
   35.2660   27.3970   37.9430 C   0  0  2  0  0  0  0  0  0  0  0  0
   34.1180   26.9740   37.0330 C   0  0  0  0  0  0  0  0  0  0  0  0
   33.3640   28.3080   37.0720 C   0  0  0  0  0  0  0  0  0  0  0  0
   34.3560   29.2570   36.9060 O   0  0  0  0  0  0  0  0  0  0  0  0
   35.5460   28.7480   37.4120 C   0  0  1  0  0  0  0  0  0  0  0  0
   34.8110   27.5040   38.9590 H   0  0  0  0  0  0  0  0  0  0  0  0
   33.5160   26.1650   37.4830 H   0  0  0  0  0  0  0  0  0  0  0  0
   34.4660   26.7760   36.0060 H   0  0  0  0  0  0  0  0  0  0  0  0
   32.8380   28.4050   38.0400 H   0  0  0  0  0  0  0  0  0  0  0  0
   32.6660   28.3760   36.1900 H   0  0  0  0  0  0  0  0  0  0  0  0
   36.2610   28.7720   36.5600 H   0  0  0  0  0  0  0  0  0  0  0  0
   35.6560   29.7960   39.7880 C   0  0  0  0  0  3  0  0  0  0  0  0
   36.0240   29.7130   38.4620 C   0  0  0  0  0  0  0  0  0  0  0  0
   36.9640   30.6180   37.9690 C   0  0  0  0  0  0  0  0  0  0  0  0
   37.3180   30.6310   36.9320 H   0  0  0  0  0  0  0  0  0  0  0  0
   37.5470   31.5990   38.7450 C   0  0  0  0  0  0  0  0  0  0  0  0
   38.4500   32.5730   38.5380 N   0  0  0  0  0  0  0  0  0  0  0  0
   38.6210   33.2260   39.7140 C   0  0  0  0  0  0  0  0  0  0  0  0
   39.2710   34.0720   39.9370 H   0  0  0  0  0  0  0  0  0  0  0  0
   37.8370   32.6840   40.6730 N   0  0  0  0  0  0  0  0  0  0  0  0
   37.1680   31.6690   40.0700 C   0  0  0  0  0  0  0  0  0  0  0  0
   36.2390   30.7760   40.5630 C   0  0  0  0  0  3  0  0  0  0  0  0
   38.9290   32.7850   37.6410 H   0  0  0  0  0  0  0  0  0  0  0  0
   36.4050   26.4430   37.9270 C   0  0  0  0  0  0  0  0  0  0  0  0
   35.9960   25.4140   37.8960 H   0  0  0  0  0  0  0  0  0  0  0  0
   37.0110   26.5430   37.0000 H   0  0  0  0  0  0  0  0  0  0  0  0
   36.8150   26.4750   40.3500 C   0  0  0  0  0  3  0  0  0  0  0  0
   37.2830   26.5500   39.1200 C   0  0  0  0  0  3  0  0  0  0  0  0
   39.3710   25.7680   42.8860 C   0  0  0  0  0  0  0  0  0  0  0  0
   39.3360   26.9540   43.6800 C   0  0  0  0  0  0  0  0  0  0  0  0
   38.4260   27.9440   43.2950 C   0  0  0  0  0  0  0  0  0  0  0  0
   37.6310   27.7330   42.2030 N   0  0  0  0  0  0  0  0  0  0  0  0
   37.7050   26.5830   41.4820 C   0  0  0  0  0  0  0  0  0  0  0  0
   38.5550   25.6200   41.8140 N   0  0  0  0  0  0  0  0  0  0  0  0
   40.0510   24.9830   43.1420 H   0  0  0  0  0  0  0  0  0  0  0  0
   40.0060   27.0150   44.5180 H   0  0  0  0  0  0  0  0  0  0  0  0
   38.4030   28.8260   43.8870 H   0  0  0  0  0  0  0  0  0  0  0  0
  1  6  1  1  0  0  0
  2  3  1  0  0  0  0
  2  7  1  0  0  0  0
  2  1  1  0  0  0  0
  3  9  1  0  0  0  0
  4  3  1  0  0  0  0
  4  5  1  0  0  0  0
  5 11  1  6  0  0  0
  5  1  1  0  0  0  0
  5 13  1  0  0  0  0
  8  2  1  0  0  0  0
 10  3  1  0  0  0  0
 12 22  1  0  0  0  0
 13 12  2  0  0  0  0
 14 13  1  0  0  0  0
 14 16  2  0  0  0  0
 15 14  1  0  0  0  0
 16 21  1  0  0  0  0
 17 16  1  0  0  0  0
 17 18  1  0  0  0  0
 18 19  1  0  0  0  0
 18 20  2  0  0  0  0
 21 22  2  0  0  0  0
 21 20  1  0  0  0  0
 23 17  1  0  0  0  0
 24  1  1  0  0  0  0
 24 28  1  0  0  0  0
 25 24  1  0  0  0  0
 26 24  1  0  0  0  0
 27 33  1  0  0  0  0
 28 27  2  0  0  0  0
 29 35  1  0  0  0  0
 29 30  1  0  0  0  0
 30 36  1  0  0  0  0
 31 30  2  0  0  0  0
 31 37  1  0  0  0  0
 32 31  1  0  0  0  0
 33 34  1  0  0  0  0
 33 32  2  0  0  0  0
 34 29  2  0  0  0  0
M  END
>  <minimizedAffinity>
-5.41934919

$$$$

 OpenBabel03242513223D

 37 40  0  0  1  0  0  0  0  0999 V2000
   33.9260   28.4170   37.2020 C   0  0  2  0  0  0  0  0  0  0  0  0
   33.7110   26.9280   36.9560 C   0  0  0  0  0  0  0  0  0  0  0  0
   35.1880   26.5250   37.0170 C   0  0  0  0  0  0  0  0  0  0  0  0
   35.6740   27.2060   38.1180 O   0  0  0  0  0  0  0  0  0  0  0  0
   34.9300   28.3670   38.2850 C   0  0  1  0  0  0  0  0  0  0  0  0
   34.4240   28.7990   36.2760 H   0  0  0  0  0  0  0  0  0  0  0  0
   33.2880   26.7360   35.9530 H   0  0  0  0  0  0  0  0  0  0  0  0
   33.1630   26.4550   37.7870 H   0  0  0  0  0  0  0  0  0  0  0  0
   35.6890   26.8220   36.0770 H   0  0  0  0  0  0  0  0  0  0  0  0
   35.2730   25.4210   37.2240 H   0  0  0  0  0  0  0  0  0  0  0  0
   34.5030   28.2970   39.3100 H   0  0  0  0  0  0  0  0  0  0  0  0
   36.7340   29.9110   37.2270 C   0  0  0  0  0  3  0  0  0  0  0  0
   35.9000   29.5170   38.2510 C   0  0  0  0  0  0  0  0  0  0  0  0
   35.9110   30.2440   39.4410 C   0  0  0  0  0  0  0  0  0  0  0  0
   35.2850   30.0080   40.3100 H   0  0  0  0  0  0  0  0  0  0  0  0
   36.7190   31.3440   39.6480 C   0  0  0  0  0  0  0  0  0  0  0  0
   36.9270   32.2020   40.6610 N   0  0  0  0  0  0  0  0  0  0  0  0
   37.8650   33.0910   40.2540 C   0  0  0  0  0  0  0  0  0  0  0  0
   38.2910   33.9330   40.8010 H   0  0  0  0  0  0  0  0  0  0  0  0
   38.2630   32.8140   38.9920 N   0  0  0  0  0  0  0  0  0  0  0  0
   37.5480   31.7250   38.6130 C   0  0  0  0  0  0  0  0  0  0  0  0
   37.5410   31.0100   37.4330 C   0  0  0  0  0  3  0  0  0  0  0  0
   36.4550   32.1850   41.5870 H   0  0  0  0  0  0  0  0  0  0  0  0
   32.6690   29.1450   37.5130 C   0  0  0  0  0  0  0  0  0  0  0  0
   31.9720   28.4400   38.0070 H   0  0  0  0  0  0  0  0  0  0  0  0
   32.8370   29.9540   38.2570 H   0  0  0  0  0  0  0  0  0  0  0  0
   31.0600   30.6250   36.3900 C   0  0  0  0  0  3  0  0  0  0  0  0
   31.9890   29.6930   36.3120 C   0  0  0  0  0  3  0  0  0  0  0  0
   28.7000   31.1800   33.6360 C   0  0  0  0  0  0  0  0  0  0  0  0
   29.3500   32.2080   32.8910 C   0  0  0  0  0  0  0  0  0  0  0  0
   30.5800   32.6610   33.3820 C   0  0  0  0  0  0  0  0  0  0  0  0
   31.0870   32.1090   34.5260 N   0  0  0  0  0  0  0  0  0  0  0  0
   30.4250   31.1310   35.1960 C   0  0  0  0  0  0  0  0  0  0  0  0
   29.2560   30.6740   34.7630 N   0  0  0  0  0  0  0  0  0  0  0  0
   27.7570   30.8010   33.2990 H   0  0  0  0  0  0  0  0  0  0  0  0
   28.8620   32.5710   32.0050 H   0  0  0  0  0  0  0  0  0  0  0  0
   31.0620   33.4280   32.8250 H   0  0  0  0  0  0  0  0  0  0  0  0
  1  6  1  6  0  0  0
  1 24  1  0  0  0  0
  1  5  1  0  0  0  0
  2  3  1  0  0  0  0
  2  1  1  0  0  0  0
  2  8  1  0  0  0  0
  3 10  1  0  0  0  0
  3  4  1  0  0  0  0
  4  5  1  0  0  0  0
  5 11  1  1  0  0  0
  7  2  1  0  0  0  0
  9  3  1  0  0  0  0
 12 22  2  0  0  0  0
 12 13  1  0  0  0  0
 13  5  1  0  0  0  0
 13 14  2  0  0  0  0
 14 16  1  0  0  0  0
 14 15  1  0  0  0  0
 16 17  1  0  0  0  0
 17 23  1  0  0  0  0
 18 17  1  0  0  0  0
 18 19  1  0  0  0  0
 20 18  2  0  0  0  0
 21 20  1  0  0  0  0
 21 16  2  0  0  0  0
 22 21  1  0  0  0  0
 24 25  1  0  0  0  0
 24 26  1  0  0  0  0
 28 27  2  0  0  0  0
 28 24  1  0  0  0  0
 29 34  1  0  0  0  0
 30 31  1  0  0  0  0
 30 29  2  0  0  0  0
 31 32  2  0  0  0  0
 32 33  1  0  0  0  0
 33 27  1  0  0  0  0
 34 33  2  0  0  0  0
 35 29  1  0  0  0  0
 36 30  1  0  0  0  0
 37 31  1  0  0  0  0
M  END
>  <minimizedAffinity>
-5.36354208

$$$$
