
 OpenBabel03252508323D

 35 38  0  0  1  0  0  0  0  0999 V2000
   44.2720   34.3920   41.8210 N   0  0  0  0  0  0  0  0  0  0  0  0
   44.3380   33.2700   40.9430 C   0  0  2  0  0  0  0  0  0  0  0  0
   43.8970   33.6200   39.5410 C   0  0  0  0  0  0  0  0  0  0  0  0
   42.6240   34.2720   39.5300 N   0  0  0  0  0  0  0  0  0  0  0  0
   42.4900   35.3310   40.4540 C   0  0  0  0  0  0  0  0  0  0  0  0
   43.7550   35.6120   41.2360 C   0  0  0  0  0  0  0  0  0  0  0  0
   45.4110   32.9660   40.8730 H   0  0  0  0  0  0  0  0  0  0  0  0
   44.6490   34.3250   39.1290 H   0  0  0  0  0  0  0  0  0  0  0  0
   43.8640   32.7390   38.9020 H   0  0  0  0  0  0  0  0  0  0  0  0
   41.8840   33.5510   39.7220 H   0  0  0  0  0  0  0  0  0  0  0  0
   41.6660   35.2440   41.1890 H   0  0  0  0  0  0  0  0  0  0  0  0
   42.2920   36.2640   39.8620 H   0  0  0  0  0  0  0  0  0  0  0  0
   44.5170   35.9030   40.4550 H   0  0  0  0  0  0  0  0  0  0  0  0
   43.5280   36.4140   41.9210 H   0  0  0  0  0  0  0  0  0  0  0  0
   44.0520   30.7860   41.2260 C   0  0  0  0  0  3  0  0  0  0  0  0
   43.5780   32.0800   41.3370 C   0  0  0  0  0  0  0  0  0  0  0  0
   42.2920   32.1030   41.8940 C   0  0  0  0  0  0  0  0  0  0  0  0
   41.8210   33.0870   42.0270 H   0  0  0  0  0  0  0  0  0  0  0  0
   41.5690   31.0080   42.2870 C   0  0  0  0  0  0  0  0  0  0  0  0
   40.3420   30.8990   42.8280 N   0  0  0  0  0  0  0  0  0  0  0  0
   40.1170   29.5870   43.0210 C   0  0  0  0  0  0  0  0  0  0  0  0
   39.1640   29.2540   43.4590 H   0  0  0  0  0  0  0  0  0  0  0  0
   41.1940   28.9080   42.6030 N   0  0  0  0  0  0  0  0  0  0  0  0
   42.1180   29.7600   42.1410 C   0  0  0  0  0  0  0  0  0  0  0  0
   43.3830   29.6410   41.6000 C   0  0  0  0  0  3  0  0  0  0  0  0
   39.6920   31.6990   43.0510 H   0  0  0  0  0  0  0  0  0  0  0  0
   44.3890   35.2550   44.0730 C   0  0  0  0  0  0  0  0  0  0  0  0
   44.7040   34.2500   43.1690 C   0  0  0  0  0  0  0  0  0  0  0  0
   45.4120   33.1690   43.6460 C   0  0  0  0  0  0  0  0  0  0  0  0
   45.7660   33.1270   44.9480 N   0  0  0  0  0  0  0  0  0  0  0  0
   45.4480   34.1140   45.8060 C   0  0  0  0  0  0  0  0  0  0  0  0
   44.7660   35.1620   45.3620 N   0  0  0  0  0  0  0  0  0  0  0  0
   43.8450   36.1630   43.8740 H   0  0  0  0  0  0  0  0  0  0  0  0
   45.6860   32.3720   42.9890 H   0  0  0  0  0  0  0  0  0  0  0  0
   45.8010   33.9380   46.8180 H   0  0  0  0  0  0  0  0  0  0  0  0
  1 28  1  0  0  0  0
  2  7  1  6  0  0  0
  2 16  1  0  0  0  0
  2  1  1  0  0  0  0
  3  2  1  0  0  0  0
  4  3  1  0  0  0  0
  4 10  1  0  0  0  0
  4  5  1  0  0  0  0
  5 11  1  0  0  0  0
  5  6  1  0  0  0  0
  6  1  1  0  0  0  0
  6 14  1  0  0  0  0
  8  3  1  0  0  0  0
  9  3  1  0  0  0  0
 12  5  1  0  0  0  0
 13  6  1  0  0  0  0
 15 16  2  0  0  0  0
 15 25  1  0  0  0  0
 16 17  1  0  0  0  0
 17 18  1  0  0  0  0
 17 19  2  0  0  0  0
 19 20  1  0  0  0  0
 20 21  1  0  0  0  0
 20 26  1  0  0  0  0
 21 22  1  0  0  0  0
 23 21  2  0  0  0  0
 24 19  1  0  0  0  0
 24 23  1  0  0  0  0
 25 24  2  0  0  0  0
 27 32  1  0  0  0  0
 28 29  1  0  0  0  0
 28 27  2  0  0  0  0
 29 30  2  0  0  0  0
 30 31  1  0  0  0  0
 31 35  1  0  0  0  0
 32 31  2  0  0  0  0
 33 27  1  0  0  0  0
 34 29  1  0  0  0  0
M  END
>  <minimizedAffinity>
-4.24207067

>  <minimizedRMSD>
0.613315523

$$$$
