
 OpenBabel03252508173D

 50 55  0  0  1  0  0  0  0  0999 V2000
   45.7640   32.0030   48.0340 C   0  0  1  0  0  0  0  0  0  0  0  0
   45.2390   31.5050   49.3370 C   0  0  0  0  0  0  0  0  0  0  0  0
   46.6740   31.6690   49.1480 C   0  0  1  0  0  0  0  0  0  0  0  0
   45.3650   33.0420   47.8490 H   0  0  0  0  0  0  0  0  0  0  0  0
   44.8800   30.4460   49.4040 H   0  0  0  0  0  0  0  0  0  0  0  0
   44.7010   32.1580   50.0520 H   0  0  0  0  0  0  0  0  0  0  0  0
   47.1360   32.5370   49.6630 H   0  0  0  0  0  0  0  0  0  0  0  0
   47.5990   30.5040   48.9780 C   0  0  2  0  0  0  0  0  0  0  0  0
   48.9470   30.6830   49.7200 C   0  0  0  0  0  0  0  0  0  0  0  0
   48.9150   30.7590   48.2500 C   0  0  1  0  0  0  0  0  0  0  0  0
   47.2520   29.4680   49.0840 H   0  0  0  0  0  0  0  0  0  0  0  0
   49.1170   31.6300   50.2690 H   0  0  0  0  0  0  0  0  0  0  0  0
   49.4430   29.8310   50.1730 H   0  0  0  0  0  0  0  0  0  0  0  0
   49.0140   31.7670   47.7880 H   0  0  0  0  0  0  0  0  0  0  0  0
   50.7500   29.1110   47.8880 C   0  0  0  0  0  3  0  0  0  0  0  0
   49.5570   29.6790   47.4950 C   0  0  0  0  0  0  0  0  0  0  0  0
   48.9890   29.1610   46.3270 C   0  0  0  0  0  0  0  0  0  0  0  0
   48.0370   29.6250   46.0280 H   0  0  0  0  0  0  0  0  0  0  0  0
   49.5360   28.1490   45.5710 C   0  0  0  0  0  0  0  0  0  0  0  0
   49.0960   27.5610   44.4340 N   0  0  0  0  0  0  0  0  0  0  0  0
   50.0170   26.6450   44.1420 C   0  0  0  0  0  0  0  0  0  0  0  0
   49.9500   26.0050   43.2850 H   0  0  0  0  0  0  0  0  0  0  0  0
   51.0180   26.6490   45.0700 N   0  0  0  0  0  0  0  0  0  0  0  0
   50.7300   27.5950   45.9820 C   0  0  0  0  0  0  0  0  0  0  0  0
   51.3150   28.0900   47.1380 C   0  0  0  0  0  3  0  0  0  0  0  0
   48.2170   27.7740   43.8900 H   0  0  0  0  0  0  0  0  0  0  0  0
   45.6020   31.0630   46.8950 C   0  0  0  0  0  0  0  0  0  0  0  0
   46.0320   30.0820   46.9580 H   0  0  0  0  0  0  0  0  0  0  0  0
   44.4910   30.9340   46.7420 H   0  0  0  0  0  0  0  0  0  0  0  0
   46.0590   32.9540   45.5680 C   0  0  0  0  0  3  0  0  0  0  0  0
   46.0880   31.6890   45.6090 C   0  0  0  0  0  3  0  0  0  0  0  0
   46.2840   35.2990   42.7310 C   0  0  0  0  0  0  0  0  0  0  0  0
   47.3400   34.7970   41.9920 C   0  0  0  0  0  0  0  0  0  0  0  0
   47.9440   33.6730   42.4790 C   0  0  0  0  0  0  0  0  0  0  0  0
   47.4920   33.1130   43.6370 N   0  0  0  0  0  0  0  0  0  0  0  0
   46.4630   33.6270   44.3290 C   0  0  0  0  0  0  0  0  0  0  0  0
   45.8810   34.7170   43.8530 N   0  0  0  0  0  0  0  0  0  0  0  0
   45.8100   36.1970   42.3310 H   0  0  0  0  0  0  0  0  0  0  0  0
   47.7240   35.2020   41.0880 H   0  0  0  0  0  0  0  0  0  0  0  0
   49.0670   33.0290   41.8120 C   0  0  0  0  0  0  0  0  0  0  0  0
   50.3390   32.9920   42.3030 C   0  0  0  0  0  0  0  0  0  0  0  0
   51.3980   32.3790   41.6600 C   0  0  0  0  0  0  0  0  0  0  0  0
   51.1900   31.7570   40.4520 C   0  0  0  0  0  0  0  0  0  0  0  0
   49.9320   31.7640   39.9110 C   0  0  0  0  0  0  0  0  0  0  0  0
   48.9200   32.3930   40.6020 C   0  0  0  0  0  0  0  0  0  0  0  0
   50.5490   33.4780   43.2700 H   0  0  0  0  0  0  0  0  0  0  0  0
   52.3900   32.3740   42.0880 H   0  0  0  0  0  0  0  0  0  0  0  0
   51.9810   31.2620   39.9050 H   0  0  0  0  0  0  0  0  0  0  0  0
   49.7560   31.2730   38.9530 H   0  0  0  0  0  0  0  0  0  0  0  0
   47.9420   32.3520   40.1000 H   0  0  0  0  0  0  0  0  0  0  0  0
  1  4  1  6  0  0  0
  1  3  1  0  0  0  0
  1  2  1  0  0  0  0
  2  5  1  0  0  0  0
  2  6  1  0  0  0  0
  3  2  1  0  0  0  0
  3  7  1  1  0  0  0
  8 11  1  6  0  0  0
  8  3  1  0  0  0  0
  8  9  1  0  0  0  0
  9 13  1  0  0  0  0
  9 12  1  0  0  0  0
 10 14  1  6  0  0  0
 10  8  1  0  0  0  0
 10  9  1  0  0  0  0
 16 15  1  0  0  0  0
 16 10  1  0  0  0  0
 17 16  2  0  0  0  0
 18 17  1  0  0  0  0
 19 24  2  0  0  0  0
 19 17  1  0  0  0  0
 20 19  1  0  0  0  0
 21 20  1  0  0  0  0
 21 23  2  0  0  0  0
 22 21  1  0  0  0  0
 23 24  1  0  0  0  0
 24 25  1  0  0  0  0
 25 15  2  0  0  0  0
 26 20  1  0  0  0  0
 27 28  1  0  0  0  0
 27  1  1  0  0  0  0
 29 27  1  0  0  0  0
 30 31  2  0  0  0  0
 31 27  1  0  0  0  0
 32 37  1  0  0  0  0
 33 34  1  0  0  0  0
 33 32  2  0  0  0  0
 34 35  2  0  0  0  0
 35 36  1  0  0  0  0
 36 30  1  0  0  0  0
 37 36  2  0  0  0  0
 38 32  1  0  0  0  0
 39 33  1  0  0  0  0
 40 41  1  0  0  0  0
 40 34  1  0  0  0  0
 41 46  1  0  0  0  0
 42 47  1  0  0  0  0
 42 41  2  0  0  0  0
 43 42  1  0  0  0  0
 44 43  2  0  0  0  0
 44 45  1  0  0  0  0
 45 40  2  0  0  0  0
 48 43  1  0  0  0  0
 49 44  1  0  0  0  0
 50 45  1  0  0  0  0
M  END
>  <minimizedAffinity>
-5.39780569

>  <minimizedRMSD>
2.92070651

$$$$
