
 OpenBabel03252506563D

 41 46  0  0  0  0  0  0  0  0999 V2000
   47.2000   31.4060   45.2890 C   0  0  0  0  0  0  0  0  0  0  0  0
   46.6690   32.6910   45.2890 C   0  0  0  0  0  0  0  0  0  0  0  0
   45.9300   33.1890   46.3360 C   0  0  0  0  0  0  0  0  0  0  0  0
   45.6790   32.4100   47.4580 C   0  0  0  0  0  0  0  0  0  0  0  0
   45.0110   32.5660   48.6410 N   0  0  0  0  0  0  0  0  0  0  0  0
   45.1270   31.4110   49.3480 C   0  0  0  0  0  0  0  0  0  0  0  0
   45.8590   30.5640   48.5990 N   0  0  0  0  0  0  0  0  0  0  0  0
   46.2080   31.1430   47.4450 C   0  0  0  0  0  0  0  0  0  0  0  0
   46.9450   30.6180   46.4240 C   0  0  0  0  0  0  0  0  0  0  0  0
   47.7820   31.0060   44.4690 H   0  0  0  0  0  0  0  0  0  0  0  0
   45.5150   34.1890   46.3410 H   0  0  0  0  0  0  0  0  0  0  0  0
   44.5220   33.4650   48.8730 H   0  0  0  0  0  0  0  0  0  0  0  0
   44.6860   31.2710   50.3270 H   0  0  0  0  0  0  0  0  0  0  0  0
   46.1960   35.2550   42.7000 C   0  0  0  0  0  0  0  0  0  0  0  0
   47.3820   35.1520   41.9540 C   0  0  0  0  0  0  0  0  0  0  0  0
   48.3240   34.2080   42.3450 C   0  0  0  0  0  0  0  0  0  0  0  0
   48.0630   33.4190   43.4400 N   0  0  0  0  0  0  0  0  0  0  0  0
   46.9030   33.5530   44.1320 C   0  0  0  0  0  0  0  0  0  0  0  0
   45.9740   34.4570   43.7770 N   0  0  0  0  0  0  0  0  0  0  0  0
   45.4500   35.9820   42.4130 H   0  0  0  0  0  0  0  0  0  0  0  0
   47.5450   35.7900   41.1040 H   0  0  0  0  0  0  0  0  0  0  0  0
   49.2360   34.1170   41.7860 H   0  0  0  0  0  0  0  0  0  0  0  0
   47.4760   29.2400   46.4990 C   0  0  0  0  0  0  0  0  0  0  0  0
   48.7370   28.9190   46.9910 C   0  0  0  0  0  0  0  0  0  0  0  0
   48.7810   27.5230   46.8600 C   0  0  0  0  0  0  0  0  0  0  0  0
   47.5820   27.0930   46.3130 C   0  0  0  0  0  0  0  0  0  0  0  0
   46.8400   28.1710   46.1180 O   0  0  0  0  0  0  0  0  0  0  0  0
   49.4390   29.6500   47.3630 H   0  0  0  0  0  0  0  0  0  0  0  0
   49.6560   26.9570   47.1640 H   0  0  0  0  0  0  0  0  0  0  0  0
   47.8210   25.0220   44.9590 C   0  0  0  0  0  3  0  0  0  0  0  0
   47.2790   25.6930   46.0350 C   0  0  0  0  0  0  0  0  0  0  0  0
   46.4120   25.0010   46.8850 C   0  0  0  0  0  0  0  0  0  0  0  0
   45.9480   25.4710   47.7540 H   0  0  0  0  0  0  0  0  0  0  0  0
   46.1480   23.6770   46.5910 C   0  0  0  0  0  0  0  0  0  0  0  0
   45.3770   22.7180   47.1760 N   0  0  0  0  0  0  0  0  0  0  0  0
   45.4530   21.5560   46.4980 C   0  0  0  0  0  0  0  0  0  0  0  0
   44.8930   20.7030   46.8450 H   0  0  0  0  0  0  0  0  0  0  0  0
   46.2870   21.7550   45.4510 N   0  0  0  0  0  0  0  0  0  0  0  0
   46.7060   23.0230   45.5020 C   0  0  0  0  0  0  0  0  0  0  0  0
   47.5580   23.7160   44.6730 C   0  0  0  0  0  3  0  0  0  0  0  0
   44.8280   22.9380   48.0410 H   0  0  0  0  0  0  0  0  0  0  0  0
  1  9  1  0  0  0  0
  2  1  2  0  0  0  0
  2  3  1  0  0  0  0
  3 11  1  0  0  0  0
  3  4  2  0  0  0  0
  4  5  1  0  0  0  0
  5 12  1  0  0  0  0
  5  6  1  0  0  0  0
  6 13  1  0  0  0  0
  7  6  2  0  0  0  0
  8  4  1  0  0  0  0
  8  7  1  0  0  0  0
  9 23  1  0  0  0  0
  9  8  2  0  0  0  0
 10  1  1  0  0  0  0
 14 19  1  0  0  0  0
 15 16  1  0  0  0  0
 15 14  2  0  0  0  0
 16 17  2  0  0  0  0
 17 18  1  0  0  0  0
 18  2  1  0  0  0  0
 19 18  2  0  0  0  0
 20 14  1  0  0  0  0
 21 15  1  0  0  0  0
 22 16  1  0  0  0  0
 23 24  2  0  0  0  0
 24 28  1  0  0  0  0
 25 24  1  0  0  0  0
 25 29  1  0  0  0  0
 26 25  2  0  0  0  0
 27 26  1  0  0  0  0
 27 23  1  0  0  0  0
 30 31  1  0  0  0  0
 31 26  1  0  0  0  0
 31 32  2  0  0  0  0
 32 33  1  0  0  0  0
 34 32  1  0  0  0  0
 34 35  1  0  0  0  0
 35 41  1  0  0  0  0
 36 37  1  0  0  0  0
 36 35  1  0  0  0  0
 38 39  1  0  0  0  0
 38 36  2  0  0  0  0
 39 34  2  0  0  0  0
 40 30  2  0  0  0  0
 40 39  1  0  0  0  0
M  END
>  <minimizedAffinity>
-5.43760967

>  <minimizedRMSD>
0.70304656

$$$$
