
 OpenBabel03252506533D

 34 38  0  0  0  0  0  0  0  0999 V2000
   38.0110   29.1890   40.0320 C   0  0  0  0  0  0  0  0  0  0  0  0
   38.6840   29.6310   41.1590 C   0  0  0  0  0  0  0  0  0  0  0  0
   38.7790   30.9750   41.5150 C   0  0  0  0  0  0  0  0  0  0  0  0
   38.1710   31.9420   40.7070 C   0  0  0  0  0  0  0  0  0  0  0  0
   38.0480   33.2850   40.7190 N   0  0  0  0  0  0  0  0  0  0  0  0
   37.3160   33.6630   39.6270 C   0  0  0  0  0  0  0  0  0  0  0  0
   36.9960   32.5370   38.9510 N   0  0  0  0  0  0  0  0  0  0  0  0
   37.5070   31.4660   39.5880 C   0  0  0  0  0  0  0  0  0  0  0  0
   37.3990   30.1420   39.2180 C   0  0  0  0  0  0  0  0  0  0  0  0
   37.9670   28.1330   39.8010 H   0  0  0  0  0  0  0  0  0  0  0  0
   39.3050   31.3080   42.3930 H   0  0  0  0  0  0  0  0  0  0  0  0
   38.4920   33.8460   41.5040 H   0  0  0  0  0  0  0  0  0  0  0  0
   37.1570   34.7290   39.5400 H   0  0  0  0  0  0  0  0  0  0  0  0
   35.3130   29.4460   38.1080 C   0  0  0  0  0  3  0  0  0  0  0  0
   36.6750   29.7430   38.0160 C   0  0  0  0  0  0  0  0  0  0  0  0
   37.3860   29.6750   36.8130 C   0  0  0  0  0  0  0  0  0  0  0  0
   38.4340   29.9090   36.7680 H   0  0  0  0  0  0  0  0  0  0  0  0
   36.6670   29.2960   35.7060 C   0  0  0  0  0  0  0  0  0  0  0  0
   37.1140   29.1580   34.4500 N   0  0  0  0  0  0  0  0  0  0  0  0
   36.0900   28.7700   33.6720 C   0  0  0  0  0  0  0  0  0  0  0  0
   35.8750   28.5190   32.6290 H   0  0  0  0  0  0  0  0  0  0  0  0
   35.0090   28.6700   34.4500 N   0  0  0  0  0  0  0  0  0  0  0  0
   35.3330   28.9890   35.7110 C   0  0  0  0  0  0  0  0  0  0  0  0
   34.7140   29.0790   36.9210 C   0  0  0  0  0  3  0  0  0  0  0  0
   38.0380   29.2780   33.9660 H   0  0  0  0  0  0  0  0  0  0  0  0
   39.2280   26.8190   43.4730 C   0  0  0  0  0  0  0  0  0  0  0  0
   40.6060   26.8590   43.6770 C   0  0  0  0  0  0  0  0  0  0  0  0
   41.3590   27.8590   43.0140 C   0  0  0  0  0  0  0  0  0  0  0  0
   40.6660   28.7300   42.2080 N   0  0  0  0  0  0  0  0  0  0  0  0
   39.3400   28.6570   42.0410 C   0  0  0  0  0  0  0  0  0  0  0  0
   38.6150   27.7090   42.6660 N   0  0  0  0  0  0  0  0  0  0  0  0
   38.6860   26.0370   43.9980 H   0  0  0  0  0  0  0  0  0  0  0  0
   41.1690   26.1830   44.3060 H   0  0  0  0  0  0  0  0  0  0  0  0
   42.4130   27.9560   43.1170 H   0  0  0  0  0  0  0  0  0  0  0  0
  1  2  1  0  0  0  0
  2  3  2  0  0  0  0
  2 30  1  0  0  0  0
  3 11  1  0  0  0  0
  4  5  1  0  0  0  0
  4  3  1  0  0  0  0
  5 12  1  0  0  0  0
  6  5  1  0  0  0  0
  7  8  1  0  0  0  0
  7  6  2  0  0  0  0
  8  4  2  0  0  0  0
  9  8  1  0  0  0  0
  9  1  2  0  0  0  0
 10  1  1  0  0  0  0
 13  6  1  0  0  0  0
 15 14  1  0  0  0  0
 15  9  1  0  0  0  0
 16 15  2  0  0  0  0
 17 16  1  0  0  0  0
 18 23  2  0  0  0  0
 18 16  1  0  0  0  0
 19 18  1  0  0  0  0
 20 22  2  0  0  0  0
 20 19  1  0  0  0  0
 21 20  1  0  0  0  0
 22 23  1  0  0  0  0
 23 24  1  0  0  0  0
 24 14  2  0  0  0  0
 25 19  1  0  0  0  0
 26 27  1  0  0  0  0
 26 32  1  0  0  0  0
 27 33  1  0  0  0  0
 28 34  1  0  0  0  0
 28 27  2  0  0  0  0
 29 28  1  0  0  0  0
 30 29  2  0  0  0  0
 30 31  1  0  0  0  0
 31 26  2  0  0  0  0
M  END
>  <minimizedAffinity>
-6.04727602

$$$$

 OpenBabel03252506533D

 34 38  0  0  0  0  0  0  0  0999 V2000
   36.5980   30.4220   38.7580 C   0  0  0  0  0  0  0  0  0  0  0  0
   35.6590   29.4050   38.7830 C   0  0  0  0  0  0  0  0  0  0  0  0
   35.4460   28.5870   39.8910 C   0  0  0  0  0  0  0  0  0  0  0  0
   36.2100   28.7870   41.0460 C   0  0  0  0  0  0  0  0  0  0  0  0
   36.2950   28.2250   42.2690 N   0  0  0  0  0  0  0  0  0  0  0  0
   37.2620   28.8790   42.9810 C   0  0  0  0  0  0  0  0  0  0  0  0
   37.7650   29.8440   42.1790 N   0  0  0  0  0  0  0  0  0  0  0  0
   37.1410   29.8120   40.9870 C   0  0  0  0  0  0  0  0  0  0  0  0
   37.3670   30.6330   39.9020 C   0  0  0  0  0  0  0  0  0  0  0  0
   36.7230   31.0280   37.8710 H   0  0  0  0  0  0  0  0  0  0  0  0
   34.7130   27.8000   39.9000 H   0  0  0  0  0  0  0  0  0  0  0  0
   35.6580   27.4120   42.5180 H   0  0  0  0  0  0  0  0  0  0  0  0
   37.4120   28.5040   43.9850 H   0  0  0  0  0  0  0  0  0  0  0  0
   37.9930   32.9820   40.3030 C   0  0  0  0  0  3  0  0  0  0  0  0
   38.3740   31.6880   39.9410 C   0  0  0  0  0  0  0  0  0  0  0  0
   39.6910   31.3510   39.6100 C   0  0  0  0  0  0  0  0  0  0  0  0
   39.9600   30.3470   39.3340 H   0  0  0  0  0  0  0  0  0  0  0  0
   40.6070   32.3720   39.6590 C   0  0  0  0  0  0  0  0  0  0  0  0
   41.9190   32.3050   39.3890 N   0  0  0  0  0  0  0  0  0  0  0  0
   42.4520   33.5280   39.5570 C   0  0  0  0  0  0  0  0  0  0  0  0
   43.4150   34.0420   39.4840 H   0  0  0  0  0  0  0  0  0  0  0  0
   41.4670   34.3490   39.9310 N   0  0  0  0  0  0  0  0  0  0  0  0
   40.3170   33.6640   40.0030 C   0  0  0  0  0  0  0  0  0  0  0  0
   39.0130   33.9110   40.3120 C   0  0  0  0  0  3  0  0  0  0  0  0
   42.5860   31.5510   39.0910 H   0  0  0  0  0  0  0  0  0  0  0  0
   32.7490   28.7440   36.6240 C   0  0  0  0  0  0  0  0  0  0  0  0
   33.3230   28.6850   35.3560 C   0  0  0  0  0  0  0  0  0  0  0  0
   34.7220   28.8740   35.2370 C   0  0  0  0  0  0  0  0  0  0  0  0
   35.4210   29.1050   36.3970 N   0  0  0  0  0  0  0  0  0  0  0  0
   34.8310   29.1530   37.5970 C   0  0  0  0  0  0  0  0  0  0  0  0
   33.5010   28.9750   37.7200 N   0  0  0  0  0  0  0  0  0  0  0  0
   31.6750   28.5940   36.6740 H   0  0  0  0  0  0  0  0  0  0  0  0
   32.7900   28.5050   34.4320 H   0  0  0  0  0  0  0  0  0  0  0  0
   35.2350   28.8440   34.3040 H   0  0  0  0  0  0  0  0  0  0  0  0
  1  2  2  0  0  0  0
  1  9  1  0  0  0  0
  2  3  1  0  0  0  0
  3 11  1  0  0  0  0
  3  4  2  0  0  0  0
  4  5  1  0  0  0  0
  5 12  1  0  0  0  0
  5  6  1  0  0  0  0
  6 13  1  0  0  0  0
  7  6  2  0  0  0  0
  8  4  1  0  0  0  0
  8  7  1  0  0  0  0
  9 15  1  0  0  0  0
  9  8  2  0  0  0  0
 10  1  1  0  0  0  0
 14 24  1  0  0  0  0
 15 14  2  0  0  0  0
 16 18  2  0  0  0  0
 16 15  1  0  0  0  0
 17 16  1  0  0  0  0
 18 23  1  0  0  0  0
 19 20  1  0  0  0  0
 19 18  1  0  0  0  0
 20 22  2  0  0  0  0
 21 20  1  0  0  0  0
 22 23  1  0  0  0  0
 23 24  2  0  0  0  0
 25 19  1  0  0  0  0
 26 32  1  0  0  0  0
 26 31  1  0  0  0  0
 27 26  2  0  0  0  0
 28 27  1  0  0  0  0
 28 29  2  0  0  0  0
 29 30  1  0  0  0  0
 30 31  2  0  0  0  0
 30  2  1  0  0  0  0
 33 27  1  0  0  0  0
 34 28  1  0  0  0  0
M  END
>  <minimizedAffinity>
-5.97583389

$$$$

 OpenBabel03252506533D

 34 38  0  0  0  0  0  0  0  0999 V2000
   40.5430   30.5670   41.2410 C   0  0  0  0  0  0  0  0  0  0  0  0
   39.3660   29.9650   41.6530 C   0  0  0  0  0  0  0  0  0  0  0  0
   38.1060   30.5230   41.4430 C   0  0  0  0  0  0  0  0  0  0  0  0
   38.0050   31.7530   40.7830 C   0  0  0  0  0  0  0  0  0  0  0  0
   37.0070   32.5790   40.4080 N   0  0  0  0  0  0  0  0  0  0  0  0
   37.5540   33.6640   39.7800 C   0  0  0  0  0  0  0  0  0  0  0  0
   38.8940   33.4890   39.7770 N   0  0  0  0  0  0  0  0  0  0  0  0
   39.2010   32.3280   40.3850 C   0  0  0  0  0  0  0  0  0  0  0  0
   40.4560   31.7930   40.5820 C   0  0  0  0  0  0  0  0  0  0  0  0
   41.4950   30.0900   41.4300 H   0  0  0  0  0  0  0  0  0  0  0  0
   37.1980   30.0470   41.7670 H   0  0  0  0  0  0  0  0  0  0  0  0
   36.0000   32.3170   40.6240 H   0  0  0  0  0  0  0  0  0  0  0  0
   36.8340   34.3940   39.4370 H   0  0  0  0  0  0  0  0  0  0  0  0
   42.2550   33.4380   40.9460 C   0  0  0  0  0  3  0  0  0  0  0  0
   41.6590   32.4790   40.1230 C   0  0  0  0  0  0  0  0  0  0  0  0
   42.1670   32.1430   38.8630 C   0  0  0  0  0  0  0  0  0  0  0  0
   41.6900   31.4010   38.2470 H   0  0  0  0  0  0  0  0  0  0  0  0
   43.2990   32.8110   38.4690 C   0  0  0  0  0  0  0  0  0  0  0  0
   43.9720   32.6690   37.3180 N   0  0  0  0  0  0  0  0  0  0  0  0
   45.0200   33.5100   37.3290 C   0  0  0  0  0  0  0  0  0  0  0  0
   45.8620   33.8110   36.7000 H   0  0  0  0  0  0  0  0  0  0  0  0
   44.9930   34.1710   38.4890 N   0  0  0  0  0  0  0  0  0  0  0  0
   43.9430   33.7610   39.2140 C   0  0  0  0  0  0  0  0  0  0  0  0
   43.3860   34.0320   40.4280 C   0  0  0  0  0  3  0  0  0  0  0  0
   43.8660   32.0790   36.4560 H   0  0  0  0  0  0  0  0  0  0  0  0
   38.4100   26.6610   42.9710 C   0  0  0  0  0  0  0  0  0  0  0  0
   39.5550   26.2720   43.6640 C   0  0  0  0  0  0  0  0  0  0  0  0
   40.6680   27.1480   43.6800 C   0  0  0  0  0  0  0  0  0  0  0  0
   40.5350   28.3370   43.0030 N   0  0  0  0  0  0  0  0  0  0  0  0
   39.4160   28.6730   42.3500 C   0  0  0  0  0  0  0  0  0  0  0  0
   38.3540   27.8460   42.3280 N   0  0  0  0  0  0  0  0  0  0  0  0
   37.5800   25.9620   42.9820 H   0  0  0  0  0  0  0  0  0  0  0  0
   39.6790   25.3410   44.2010 H   0  0  0  0  0  0  0  0  0  0  0  0
   41.5770   26.9230   44.1850 H   0  0  0  0  0  0  0  0  0  0  0  0
  1 10  1  0  0  0  0
  1  2  1  0  0  0  0
  2 30  1  0  0  0  0
  3  2  2  0  0  0  0
  3 11  1  0  0  0  0
  4  3  1  0  0  0  0
  5 12  1  0  0  0  0
  5  4  1  0  0  0  0
  6  5  1  0  0  0  0
  7  6  2  0  0  0  0
  7  8  1  0  0  0  0
  8  9  1  0  0  0  0
  8  4  2  0  0  0  0
  9  1  2  0  0  0  0
 13  6  1  0  0  0  0
 15  9  1  0  0  0  0
 15 14  2  0  0  0  0
 16 15  1  0  0  0  0
 17 16  1  0  0  0  0
 18 16  2  0  0  0  0
 18 23  1  0  0  0  0
 19 20  1  0  0  0  0
 19 18  1  0  0  0  0
 20 22  2  0  0  0  0
 21 20  1  0  0  0  0
 22 23  1  0  0  0  0
 23 24  2  0  0  0  0
 24 14  1  0  0  0  0
 25 19  1  0  0  0  0
 26 32  1  0  0  0  0
 26 27  1  0  0  0  0
 27 28  2  0  0  0  0
 27 33  1  0  0  0  0
 28 34  1  0  0  0  0
 29 28  1  0  0  0  0
 30 29  2  0  0  0  0
 31 30  1  0  0  0  0
 31 26  2  0  0  0  0
M  END
>  <minimizedAffinity>
-5.9271102

$$$$

 OpenBabel03252506533D

 34 38  0  0  0  0  0  0  0  0999 V2000
   39.2680   29.4320   40.1490 C   0  0  0  0  0  0  0  0  0  0  0  0
   38.0660   29.3310   40.8280 C   0  0  0  0  0  0  0  0  0  0  0  0
   37.1890   30.4010   40.9970 C   0  0  0  0  0  0  0  0  0  0  0  0
   37.5220   31.6490   40.4590 C   0  0  0  0  0  0  0  0  0  0  0  0
   36.9580   32.8730   40.4130 N   0  0  0  0  0  0  0  0  0  0  0  0
   37.7910   33.7100   39.7220 C   0  0  0  0  0  0  0  0  0  0  0  0
   38.8670   32.9820   39.3480 N   0  0  0  0  0  0  0  0  0  0  0  0
   38.7310   31.7150   39.7850 C   0  0  0  0  0  0  0  0  0  0  0  0
   39.6120   30.6700   39.6070 C   0  0  0  0  0  0  0  0  0  0  0  0
   39.9120   28.5690   40.0470 H   0  0  0  0  0  0  0  0  0  0  0  0
   36.2570   30.3120   41.5260 H   0  0  0  0  0  0  0  0  0  0  0  0
   36.0160   33.0340   40.8770 H   0  0  0  0  0  0  0  0  0  0  0  0
   37.4300   34.7240   39.6260 H   0  0  0  0  0  0  0  0  0  0  0  0
   41.8820   31.6160   39.4460 C   0  0  0  0  0  3  0  0  0  0  0  0
   40.8640   30.8440   38.8800 C   0  0  0  0  0  0  0  0  0  0  0  0
   40.9920   30.2220   37.6320 C   0  0  0  0  0  0  0  0  0  0  0  0
   40.1940   29.6320   37.2170 H   0  0  0  0  0  0  0  0  0  0  0  0
   42.1850   30.4100   36.9810 C   0  0  0  0  0  0  0  0  0  0  0  0
   42.5490   29.9230   35.7860 N   0  0  0  0  0  0  0  0  0  0  0  0
   43.7960   30.3440   35.5150 C   0  0  0  0  0  0  0  0  0  0  0  0
   44.5580   30.2650   34.7340 H   0  0  0  0  0  0  0  0  0  0  0  0
   44.2020   31.0910   36.5460 N   0  0  0  0  0  0  0  0  0  0  0  0
   43.2300   31.1490   37.4660 C   0  0  0  0  0  0  0  0  0  0  0  0
   43.0280   31.7220   38.6860 C   0  0  0  0  0  3  0  0  0  0  0  0
   42.0990   29.3200   35.0540 H   0  0  0  0  0  0  0  0  0  0  0  0
   36.6050   26.8170   43.0900 C   0  0  0  0  0  0  0  0  0  0  0  0
   36.9480   25.6180   42.4680 C   0  0  0  0  0  0  0  0  0  0  0  0
   37.6870   25.6690   41.2600 C   0  0  0  0  0  0  0  0  0  0  0  0
   38.0170   26.9150   40.7830 N   0  0  0  0  0  0  0  0  0  0  0  0
   37.6690   28.0430   41.4130 C   0  0  0  0  0  0  0  0  0  0  0  0
   36.9650   28.0050   42.5610 N   0  0  0  0  0  0  0  0  0  0  0  0
   36.0390   26.7360   44.0130 H   0  0  0  0  0  0  0  0  0  0  0  0
   36.6970   24.6290   42.8270 H   0  0  0  0  0  0  0  0  0  0  0  0
   37.9860   24.7990   40.7260 H   0  0  0  0  0  0  0  0  0  0  0  0
  1  2  1  0  0  0  0
  2  3  2  0  0  0  0
  2 30  1  0  0  0  0
  3 11  1  0  0  0  0
  4  3  1  0  0  0  0
  5  4  1  0  0  0  0
  5 12  1  0  0  0  0
  6  5  1  0  0  0  0
  7  6  2  0  0  0  0
  7  8  1  0  0  0  0
  8  4  2  0  0  0  0
  9  8  1  0  0  0  0
  9  1  2  0  0  0  0
 10  1  1  0  0  0  0
 13  6  1  0  0  0  0
 15 14  1  0  0  0  0
 15  9  1  0  0  0  0
 16 15  2  0  0  0  0
 17 16  1  0  0  0  0
 18 23  2  0  0  0  0
 18 16  1  0  0  0  0
 19 18  1  0  0  0  0
 20 19  1  0  0  0  0
 20 22  2  0  0  0  0
 21 20  1  0  0  0  0
 22 23  1  0  0  0  0
 23 24  1  0  0  0  0
 24 14  2  0  0  0  0
 25 19  1  0  0  0  0
 26 32  1  0  0  0  0
 27 33  1  0  0  0  0
 27 26  2  0  0  0  0
 28 27  1  0  0  0  0
 29 28  2  0  0  0  0
 29 30  1  0  0  0  0
 30 31  2  0  0  0  0
 31 26  1  0  0  0  0
 34 28  1  0  0  0  0
M  END
>  <minimizedAffinity>
-5.81138372

$$$$

 OpenBabel03252506533D

 34 38  0  0  0  0  0  0  0  0999 V2000
   36.5510   29.6670   37.6070 C   0  0  0  0  0  0  0  0  0  0  0  0
   35.3000   29.2770   38.0540 C   0  0  0  0  0  0  0  0  0  0  0  0
   34.9890   29.1020   39.4000 C   0  0  0  0  0  0  0  0  0  0  0  0
   35.9760   29.3270   40.3660 C   0  0  0  0  0  0  0  0  0  0  0  0
   36.0570   29.2650   41.7110 N   0  0  0  0  0  0  0  0  0  0  0  0
   37.3270   29.6090   42.0850 C   0  0  0  0  0  0  0  0  0  0  0  0
   38.0170   29.8800   40.9550 N   0  0  0  0  0  0  0  0  0  0  0  0
   37.2160   29.7160   39.8850 C   0  0  0  0  0  0  0  0  0  0  0  0
   37.5450   29.8950   38.5580 C   0  0  0  0  0  0  0  0  0  0  0  0
   36.7400   29.7890   36.5490 H   0  0  0  0  0  0  0  0  0  0  0  0
   34.0130   28.7990   39.7370 H   0  0  0  0  0  0  0  0  0  0  0  0
   35.2020   28.9830   42.2750 H   0  0  0  0  0  0  0  0  0  0  0  0
   37.5000   29.5920   43.1520 H   0  0  0  0  0  0  0  0  0  0  0  0
   39.8440   29.3320   37.8730 C   0  0  0  0  0  3  0  0  0  0  0  0
   38.8840   30.3080   38.1540 C   0  0  0  0  0  0  0  0  0  0  0  0
   39.1510   31.6790   38.0650 C   0  0  0  0  0  0  0  0  0  0  0  0
   38.3950   32.4110   38.2860 H   0  0  0  0  0  0  0  0  0  0  0  0
   40.4220   32.0250   37.6800 C   0  0  0  0  0  0  0  0  0  0  0  0
   40.9200   33.2600   37.5220 N   0  0  0  0  0  0  0  0  0  0  0  0
   42.2040   33.1570   37.1390 C   0  0  0  0  0  0  0  0  0  0  0  0
   43.0560   33.7910   36.8790 H   0  0  0  0  0  0  0  0  0  0  0  0
   42.4980   31.8560   37.0600 N   0  0  0  0  0  0  0  0  0  0  0  0
   41.4180   31.1330   37.3880 C   0  0  0  0  0  0  0  0  0  0  0  0
   41.0800   29.8180   37.4990 C   0  0  0  0  0  3  0  0  0  0  0  0
   40.5490   34.2360   37.6270 H   0  0  0  0  0  0  0  0  0  0  0  0
   31.9590   28.9100   36.5480 C   0  0  0  0  0  0  0  0  0  0  0  0
   32.2590   28.5540   35.2340 C   0  0  0  0  0  0  0  0  0  0  0  0
   33.6200   28.4390   34.8580 C   0  0  0  0  0  0  0  0  0  0  0  0
   34.5590   28.6890   35.8290 N   0  0  0  0  0  0  0  0  0  0  0  0
   34.2280   29.0280   37.0810 C   0  0  0  0  0  0  0  0  0  0  0  0
   32.9370   29.1410   37.4480 N   0  0  0  0  0  0  0  0  0  0  0  0
   30.9050   28.9880   36.7970 H   0  0  0  0  0  0  0  0  0  0  0  0
   31.5350   28.3540   34.4550 H   0  0  0  0  0  0  0  0  0  0  0  0
   33.9300   28.1730   33.8750 H   0  0  0  0  0  0  0  0  0  0  0  0
  1  2  2  0  0  0  0
  1  9  1  0  0  0  0
  2  3  1  0  0  0  0
  3 11  1  0  0  0  0
  3  4  2  0  0  0  0
  4  5  1  0  0  0  0
  5  6  1  0  0  0  0
  5 12  1  0  0  0  0
  6 13  1  0  0  0  0
  7  6  2  0  0  0  0
  8  4  1  0  0  0  0
  8  7  1  0  0  0  0
  9  8  2  0  0  0  0
 10  1  1  0  0  0  0
 14 15  1  0  0  0  0
 15  9  1  0  0  0  0
 16 15  2  0  0  0  0
 16 17  1  0  0  0  0
 18 16  1  0  0  0  0
 19 25  1  0  0  0  0
 19 18  1  0  0  0  0
 20 19  1  0  0  0  0
 21 20  1  0  0  0  0
 22 20  2  0  0  0  0
 22 23  1  0  0  0  0
 23 24  1  0  0  0  0
 23 18  2  0  0  0  0
 24 14  2  0  0  0  0
 26 32  1  0  0  0  0
 26 31  1  0  0  0  0
 27 26  2  0  0  0  0
 28 27  1  0  0  0  0
 28 29  2  0  0  0  0
 29 30  1  0  0  0  0
 30 31  2  0  0  0  0
 30  2  1  0  0  0  0
 33 27  1  0  0  0  0
 34 28  1  0  0  0  0
M  END
>  <minimizedAffinity>
-5.73546696

$$$$

 OpenBabel03252506533D

 34 38  0  0  0  0  0  0  0  0999 V2000
   37.7570   30.0910   39.5880 C   0  0  0  0  0  0  0  0  0  0  0  0
   38.4640   30.8330   40.5190 C   0  0  0  0  0  0  0  0  0  0  0  0
   38.4410   30.5670   41.8860 C   0  0  0  0  0  0  0  0  0  0  0  0
   37.6710   29.5000   42.3630 C   0  0  0  0  0  0  0  0  0  0  0  0
   37.4040   28.9500   43.5650 N   0  0  0  0  0  0  0  0  0  0  0  0
   36.5530   27.8950   43.3810 C   0  0  0  0  0  0  0  0  0  0  0  0
   36.3060   27.8080   42.0550 N   0  0  0  0  0  0  0  0  0  0  0  0
   36.9760   28.7780   41.4050 C   0  0  0  0  0  0  0  0  0  0  0  0
   36.9850   29.0240   40.0480 C   0  0  0  0  0  0  0  0  0  0  0  0
   37.8100   30.3410   38.5360 H   0  0  0  0  0  0  0  0  0  0  0  0
   38.9940   31.1490   42.6020 H   0  0  0  0  0  0  0  0  0  0  0  0
   37.8450   29.3620   44.4400 H   0  0  0  0  0  0  0  0  0  0  0  0
   36.2740   27.3790   44.2890 H   0  0  0  0  0  0  0  0  0  0  0  0
   36.7140   26.9540   38.7400 C   0  0  0  0  0  3  0  0  0  0  0  0
   36.2170   28.2030   39.1190 C   0  0  0  0  0  0  0  0  0  0  0  0
   35.0020   28.7100   38.6450 C   0  0  0  0  0  0  0  0  0  0  0  0
   34.6400   29.6750   38.9520 H   0  0  0  0  0  0  0  0  0  0  0  0
   34.3100   27.9070   37.7740 C   0  0  0  0  0  0  0  0  0  0  0  0
   33.1330   28.1640   37.1850 N   0  0  0  0  0  0  0  0  0  0  0  0
   32.8070   27.1180   36.4070 C   0  0  0  0  0  0  0  0  0  0  0  0
   32.0120   26.7880   35.7320 H   0  0  0  0  0  0  0  0  0  0  0  0
   33.7850   26.2150   36.5160 N   0  0  0  0  0  0  0  0  0  0  0  0
   34.7260   26.6730   37.3520 C   0  0  0  0  0  0  0  0  0  0  0  0
   35.9190   26.2510   37.8590 C   0  0  0  0  0  3  0  0  0  0  0  0
   32.4460   28.9580   37.1970 H   0  0  0  0  0  0  0  0  0  0  0  0
   40.0830   34.1380   40.3680 C   0  0  0  0  0  0  0  0  0  0  0  0
   40.8390   34.0480   39.2000 C   0  0  0  0  0  0  0  0  0  0  0  0
   40.7960   32.8440   38.4560 C   0  0  0  0  0  0  0  0  0  0  0  0
   40.0000   31.8370   38.9450 N   0  0  0  0  0  0  0  0  0  0  0  0
   39.2880   31.9630   40.0720 C   0  0  0  0  0  0  0  0  0  0  0  0
   39.3230   33.1040   40.7870 N   0  0  0  0  0  0  0  0  0  0  0  0
   40.1430   35.0760   40.9100 H   0  0  0  0  0  0  0  0  0  0  0  0
   41.4720   34.8290   38.8000 H   0  0  0  0  0  0  0  0  0  0  0  0
   41.3440   32.6980   37.5560 H   0  0  0  0  0  0  0  0  0  0  0  0
  1  9  2  0  0  0  0
  1  2  1  0  0  0  0
  2  3  2  0  0  0  0
  3  4  1  0  0  0  0
  3 11  1  0  0  0  0
  4  5  1  0  0  0  0
  5 12  1  0  0  0  0
  6  5  1  0  0  0  0
  6 13  1  0  0  0  0
  7  6  2  0  0  0  0
  8  7  1  0  0  0  0
  8  4  2  0  0  0  0
  9  8  1  0  0  0  0
 10  1  1  0  0  0  0
 14 15  1  0  0  0  0
 15  9  1  0  0  0  0
 16 17  1  0  0  0  0
 16 15  2  0  0  0  0
 18 16  1  0  0  0  0
 19 25  1  0  0  0  0
 19 18  1  0  0  0  0
 20 22  2  0  0  0  0
 20 19  1  0  0  0  0
 21 20  1  0  0  0  0
 22 23  1  0  0  0  0
 23 18  2  0  0  0  0
 23 24  1  0  0  0  0
 24 14  2  0  0  0  0
 26 31  1  0  0  0  0
 26 32  1  0  0  0  0
 27 26  2  0  0  0  0
 28 29  2  0  0  0  0
 28 27  1  0  0  0  0
 29 30  1  0  0  0  0
 30  2  1  0  0  0  0
 30 31  2  0  0  0  0
 33 27  1  0  0  0  0
 34 28  1  0  0  0  0
M  END
>  <minimizedAffinity>
-5.72256088

$$$$

 OpenBabel03252506533D

 34 38  0  0  0  0  0  0  0  0999 V2000
   40.5720   30.7120   40.4600 C   0  0  0  0  0  0  0  0  0  0  0  0
   40.3150   31.9270   39.8480 C   0  0  0  0  0  0  0  0  0  0  0  0
   39.0470   32.5010   39.7870 C   0  0  0  0  0  0  0  0  0  0  0  0
   37.9650   31.8300   40.3680 C   0  0  0  0  0  0  0  0  0  0  0  0
   36.6420   32.0530   40.5100 N   0  0  0  0  0  0  0  0  0  0  0  0
   36.0960   31.0010   41.1930 C   0  0  0  0  0  0  0  0  0  0  0  0
   37.0990   30.1370   41.4650 N   0  0  0  0  0  0  0  0  0  0  0  0
   38.2560   30.6180   40.9720 C   0  0  0  0  0  0  0  0  0  0  0  0
   39.5030   30.0330   41.0430 C   0  0  0  0  0  0  0  0  0  0  0  0
   41.5770   30.3120   40.4780 H   0  0  0  0  0  0  0  0  0  0  0  0
   38.8580   33.4460   39.3090 H   0  0  0  0  0  0  0  0  0  0  0  0
   36.2130   32.9400   40.1120 H   0  0  0  0  0  0  0  0  0  0  0  0
   35.0310   31.0800   41.3630 H   0  0  0  0  0  0  0  0  0  0  0  0
   40.3710   28.7100   42.9320 C   0  0  0  0  0  3  0  0  0  0  0  0
   39.7060   28.7490   41.7040 C   0  0  0  0  0  0  0  0  0  0  0  0
   39.2200   27.6000   41.0700 C   0  0  0  0  0  0  0  0  0  0  0  0
   38.7100   27.6550   40.1240 H   0  0  0  0  0  0  0  0  0  0  0  0
   39.4310   26.4120   41.7240 C   0  0  0  0  0  0  0  0  0  0  0  0
   39.0640   25.1850   41.3280 N   0  0  0  0  0  0  0  0  0  0  0  0
   39.4630   24.2990   42.2570 C   0  0  0  0  0  0  0  0  0  0  0  0
   39.4400   23.2240   42.4570 H   0  0  0  0  0  0  0  0  0  0  0  0
   40.0760   24.9820   43.2270 N   0  0  0  0  0  0  0  0  0  0  0  0
   40.0720   26.2880   42.9280 C   0  0  0  0  0  0  0  0  0  0  0  0
   40.5150   27.4520   43.4790 C   0  0  0  0  0  3  0  0  0  0  0  0
   38.5620   24.7840   40.4980 H   0  0  0  0  0  0  0  0  0  0  0  0
   42.3680   33.6990   37.3550 C   0  0  0  0  0  0  0  0  0  0  0  0
   43.4930   34.0620   38.0950 C   0  0  0  0  0  0  0  0  0  0  0  0
   43.5490   33.6970   39.4620 C   0  0  0  0  0  0  0  0  0  0  0  0
   42.4770   33.0010   39.9680 N   0  0  0  0  0  0  0  0  0  0  0  0
   41.4160   32.6720   39.2220 C   0  0  0  0  0  0  0  0  0  0  0  0
   41.3520   33.0150   37.9210 N   0  0  0  0  0  0  0  0  0  0  0  0
   42.3620   33.9980   36.3110 H   0  0  0  0  0  0  0  0  0  0  0  0
   44.3450   34.6090   37.7160 H   0  0  0  0  0  0  0  0  0  0  0  0
   44.3720   33.9360   40.0940 H   0  0  0  0  0  0  0  0  0  0  0  0
  1 10  1  0  0  0  0
  1  9  1  0  0  0  0
  2  1  2  0  0  0  0
  3  2  1  0  0  0  0
  3  4  2  0  0  0  0
  4  5  1  0  0  0  0
  4  8  1  0  0  0  0
  5  6  1  0  0  0  0
  6 13  1  0  0  0  0
  6  7  2  0  0  0  0
  8  9  2  0  0  0  0
  8  7  1  0  0  0  0
  9 15  1  0  0  0  0
 11  3  1  0  0  0  0
 12  5  1  0  0  0  0
 14 24  1  0  0  0  0
 15 14  2  0  0  0  0
 16 15  1  0  0  0  0
 16 18  2  0  0  0  0
 17 16  1  0  0  0  0
 18 23  1  0  0  0  0
 19 18  1  0  0  0  0
 19 20  1  0  0  0  0
 20 21  1  0  0  0  0
 20 22  2  0  0  0  0
 23 22  1  0  0  0  0
 23 24  2  0  0  0  0
 25 19  1  0  0  0  0
 26 31  2  0  0  0  0
 26 27  1  0  0  0  0
 27 28  2  0  0  0  0
 28 29  1  0  0  0  0
 28 34  1  0  0  0  0
 30  2  1  0  0  0  0
 30 29  2  0  0  0  0
 31 30  1  0  0  0  0
 32 26  1  0  0  0  0
 33 27  1  0  0  0  0
M  END
>  <minimizedAffinity>
-5.72135067

$$$$

 OpenBabel03252506533D

 34 38  0  0  0  0  0  0  0  0999 V2000
   39.1130   30.5360   40.3730 C   0  0  0  0  0  0  0  0  0  0  0  0
   39.7830   30.6610   41.5780 C   0  0  0  0  0  0  0  0  0  0  0  0
   39.4180   29.9710   42.7320 C   0  0  0  0  0  0  0  0  0  0  0  0
   38.3220   29.1030   42.6910 C   0  0  0  0  0  0  0  0  0  0  0  0
   37.6860   28.2920   43.5630 N   0  0  0  0  0  0  0  0  0  0  0  0
   36.6500   27.6820   42.9110 C   0  0  0  0  0  0  0  0  0  0  0  0
   36.6610   28.1300   41.6360 N   0  0  0  0  0  0  0  0  0  0  0  0
   37.6730   29.0010   41.4710 C   0  0  0  0  0  0  0  0  0  0  0  0
   38.0180   29.6740   40.3180 C   0  0  0  0  0  0  0  0  0  0  0  0
   39.4380   31.0960   39.5060 H   0  0  0  0  0  0  0  0  0  0  0  0
   39.9460   30.0740   43.6630 H   0  0  0  0  0  0  0  0  0  0  0  0
   38.0330   28.2260   44.5650 H   0  0  0  0  0  0  0  0  0  0  0  0
   36.0710   27.0050   43.5240 H   0  0  0  0  0  0  0  0  0  0  0  0
   35.8770   29.6170   39.1000 C   0  0  0  0  0  3  0  0  0  0  0  0
   37.2690   29.4980   39.0790 C   0  0  0  0  0  0  0  0  0  0  0  0
   37.9860   29.2140   37.9110 C   0  0  0  0  0  0  0  0  0  0  0  0
   39.0580   29.1280   37.9200 H   0  0  0  0  0  0  0  0  0  0  0  0
   37.2430   29.0560   36.7680 C   0  0  0  0  0  0  0  0  0  0  0  0
   37.6920   28.7830   35.5340 N   0  0  0  0  0  0  0  0  0  0  0  0
   36.6380   28.7100   34.7030 C   0  0  0  0  0  0  0  0  0  0  0  0
   36.4110   28.5260   33.6490 H   0  0  0  0  0  0  0  0  0  0  0  0
   35.5390   28.9390   35.4260 N   0  0  0  0  0  0  0  0  0  0  0  0
   35.8800   29.1570   36.7040 C   0  0  0  0  0  0  0  0  0  0  0  0
   35.2550   29.4350   37.8820 C   0  0  0  0  0  3  0  0  0  0  0  0
   38.6330   28.6210   35.0970 H   0  0  0  0  0  0  0  0  0  0  0  0
   42.1240   33.4320   40.9380 C   0  0  0  0  0  0  0  0  0  0  0  0
   43.1180   33.2110   41.8900 C   0  0  0  0  0  0  0  0  0  0  0  0
   42.9860   32.1020   42.7620 C   0  0  0  0  0  0  0  0  0  0  0  0
   41.8730   31.3130   42.6030 N   0  0  0  0  0  0  0  0  0  0  0  0
   40.9410   31.5590   41.6740 C   0  0  0  0  0  0  0  0  0  0  0  0
   41.0570   32.6120   40.8420 N   0  0  0  0  0  0  0  0  0  0  0  0
   42.2610   34.2920   40.2900 H   0  0  0  0  0  0  0  0  0  0  0  0
   44.0000   33.8210   42.0310 H   0  0  0  0  0  0  0  0  0  0  0  0
   43.7010   31.8670   43.5140 H   0  0  0  0  0  0  0  0  0  0  0  0
  1  2  1  0  0  0  0
  2 30  1  0  0  0  0
  2  3  2  0  0  0  0
  3 11  1  0  0  0  0
  4  3  1  0  0  0  0
  4  5  1  0  0  0  0
  5 12  1  0  0  0  0
  6 13  1  0  0  0  0
  6  5  1  0  0  0  0
  7  6  2  0  0  0  0
  8  7  1  0  0  0  0
  8  4  2  0  0  0  0
  9  1  2  0  0  0  0
  9  8  1  0  0  0  0
 10  1  1  0  0  0  0
 15 14  1  0  0  0  0
 15  9  1  0  0  0  0
 16 17  1  0  0  0  0
 16 15  2  0  0  0  0
 18 16  1  0  0  0  0
 19 18  1  0  0  0  0
 20 22  2  0  0  0  0
 20 19  1  0  0  0  0
 21 20  1  0  0  0  0
 22 23  1  0  0  0  0
 23 18  2  0  0  0  0
 23 24  1  0  0  0  0
 24 14  2  0  0  0  0
 25 19  1  0  0  0  0
 26 27  1  0  0  0  0
 27 33  1  0  0  0  0
 27 28  2  0  0  0  0
 28 34  1  0  0  0  0
 29 28  1  0  0  0  0
 30 29  2  0  0  0  0
 31 26  2  0  0  0  0
 31 30  1  0  0  0  0
 32 26  1  0  0  0  0
M  END
>  <minimizedAffinity>
-5.67406559

$$$$

 OpenBabel03252506533D

 34 38  0  0  0  0  0  0  0  0999 V2000
   39.7640   30.4020   41.0200 C   0  0  0  0  0  0  0  0  0  0  0  0
   38.4280   30.0740   41.1720 C   0  0  0  0  0  0  0  0  0  0  0  0
   37.3870   30.9650   40.9140 C   0  0  0  0  0  0  0  0  0  0  0  0
   37.6880   32.2600   40.4790 C   0  0  0  0  0  0  0  0  0  0  0  0
   36.9880   33.3620   40.1400 N   0  0  0  0  0  0  0  0  0  0  0  0
   37.8710   34.3460   39.7880 C   0  0  0  0  0  0  0  0  0  0  0  0
   39.1140   33.8310   39.9150 N   0  0  0  0  0  0  0  0  0  0  0  0
   39.0350   32.5550   40.3370 C   0  0  0  0  0  0  0  0  0  0  0  0
   40.0790   31.6900   40.5870 C   0  0  0  0  0  0  0  0  0  0  0  0
   40.5330   29.6720   41.2350 H   0  0  0  0  0  0  0  0  0  0  0  0
   36.3520   30.7000   41.0350 H   0  0  0  0  0  0  0  0  0  0  0  0
   35.9270   33.3430   40.1810 H   0  0  0  0  0  0  0  0  0  0  0  0
   37.4100   35.2790   39.4960 H   0  0  0  0  0  0  0  0  0  0  0  0
   42.0770   31.9160   39.1630 C   0  0  0  0  0  3  0  0  0  0  0  0
   41.4670   32.0980   40.4070 C   0  0  0  0  0  0  0  0  0  0  0  0
   42.1340   32.6610   41.5010 C   0  0  0  0  0  0  0  0  0  0  0  0
   41.6430   32.7910   42.4490 H   0  0  0  0  0  0  0  0  0  0  0  0
   43.4380   33.0320   41.2900 C   0  0  0  0  0  0  0  0  0  0  0  0
   44.2820   33.5880   42.1710 N   0  0  0  0  0  0  0  0  0  0  0  0
   45.4620   33.7940   41.5610 C   0  0  0  0  0  0  0  0  0  0  0  0
   46.4580   34.1920   41.7720 H   0  0  0  0  0  0  0  0  0  0  0  0
   45.3450   33.3630   40.3020 N   0  0  0  0  0  0  0  0  0  0  0  0
   44.1070   32.8880   40.1040 C   0  0  0  0  0  0  0  0  0  0  0  0
   43.3900   32.3330   39.0880 C   0  0  0  0  0  3  0  0  0  0  0  0
   44.2280   33.8820   43.1770 H   0  0  0  0  0  0  0  0  0  0  0  0
   36.9090   27.3270   43.0980 C   0  0  0  0  0  0  0  0  0  0  0  0
   37.3930   26.1960   42.4410 C   0  0  0  0  0  0  0  0  0  0  0  0
   38.2480   26.3750   41.3260 C   0  0  0  0  0  0  0  0  0  0  0  0
   38.5430   27.6690   40.9680 N   0  0  0  0  0  0  0  0  0  0  0  0
   38.0580   28.7280   41.6270 C   0  0  0  0  0  0  0  0  0  0  0  0
   37.2430   28.5680   42.6880 N   0  0  0  0  0  0  0  0  0  0  0  0
   36.2560   27.1480   43.9470 H   0  0  0  0  0  0  0  0  0  0  0  0
   37.1710   25.1720   42.7080 H   0  0  0  0  0  0  0  0  0  0  0  0
   38.6580   25.5640   40.7730 H   0  0  0  0  0  0  0  0  0  0  0  0
  1  2  1  0  0  0  0
  1 10  1  0  0  0  0
  2 30  1  0  0  0  0
  3 11  1  0  0  0  0
  3  2  2  0  0  0  0
  4  3  1  0  0  0  0
  5 12  1  0  0  0  0
  5  4  1  0  0  0  0
  6  7  2  0  0  0  0
  6  5  1  0  0  0  0
  7  8  1  0  0  0  0
  8  4  2  0  0  0  0
  8  9  1  0  0  0  0
  9  1  2  0  0  0  0
 13  6  1  0  0  0  0
 14 15  1  0  0  0  0
 15  9  1  0  0  0  0
 15 16  2  0  0  0  0
 16 17  1  0  0  0  0
 18 16  1  0  0  0  0
 18 19  1  0  0  0  0
 19 25  1  0  0  0  0
 20 21  1  0  0  0  0
 20 19  1  0  0  0  0
 22 20  2  0  0  0  0
 23 22  1  0  0  0  0
 23 18  2  0  0  0  0
 24 14  2  0  0  0  0
 24 23  1  0  0  0  0
 26 32  1  0  0  0  0
 27 33  1  0  0  0  0
 27 26  2  0  0  0  0
 28 27  1  0  0  0  0
 29 28  2  0  0  0  0
 29 30  1  0  0  0  0
 30 31  2  0  0  0  0
 31 26  1  0  0  0  0
 34 28  1  0  0  0  0
M  END
>  <minimizedAffinity>
-5.57369328

$$$$
