
 OpenBabel03252506113D

 33 36  0  0  0  0  0  0  0  0999 V2000
   37.9040   28.1960   39.8440 F   0  0  0  0  0  0  0  0  0  0  0  0
   37.6010   28.0780   41.1380 C   0  0  0  0  0  0  0  0  0  0  0  0
   37.1990   26.8670   41.6360 C   0  0  0  0  0  0  0  0  0  0  0  0
   36.8730   26.6880   42.9710 C   0  0  0  0  0  0  0  0  0  0  0  0
   36.9430   27.7430   43.8670 C   0  0  0  0  0  0  0  0  0  0  0  0
   37.3540   28.9440   43.3140 C   0  0  0  0  0  0  0  0  0  0  0  0
   37.6850   29.1620   42.0010 C   0  0  0  0  0  0  0  0  0  0  0  0
   36.5490   25.7160   43.3760 H   0  0  0  0  0  0  0  0  0  0  0  0
   36.6980   27.6490   44.9150 H   0  0  0  0  0  0  0  0  0  0  0  0
   37.4380   29.8280   43.9440 H   0  0  0  0  0  0  0  0  0  0  0  0
   37.1330   31.1420   40.7640 C   0  0  0  0  0  3  0  0  0  0  0  0
   38.1080   30.4400   41.4830 C   0  0  0  0  0  0  0  0  0  0  0  0
   39.3390   31.0500   41.6060 C   0  0  0  0  0  0  0  0  0  0  0  0
   40.0690   30.4800   42.1680 H   0  0  0  0  0  0  0  0  0  0  0  0
   39.6040   32.2840   41.0530 C   0  0  0  0  0  0  0  0  0  0  0  0
   40.7220   33.0450   41.0570 N   0  0  0  0  0  0  0  0  0  0  0  0
   40.4370   34.1690   40.3650 C   0  0  0  0  0  0  0  0  0  0  0  0
   41.1130   35.0060   40.1680 H   0  0  0  0  0  0  0  0  0  0  0  0
   39.1560   34.1050   39.9360 N   0  0  0  0  0  0  0  0  0  0  0  0
   38.6040   32.9550   40.3420 C   0  0  0  0  0  0  0  0  0  0  0  0
   37.3590   32.3780   40.1950 C   0  0  0  0  0  3  0  0  0  0  0  0
   41.6410   32.8220   41.5050 H   0  0  0  0  0  0  0  0  0  0  0  0
   37.5890   23.4660   40.3050 C   0  0  0  0  0  0  0  0  0  0  0  0
   36.8870   23.5570   39.0800 C   0  0  0  0  0  0  0  0  0  0  0  0
   36.2900   24.7760   38.7290 C   0  0  0  0  0  0  0  0  0  0  0  0
   36.4320   25.8110   39.6060 N   0  0  0  0  0  0  0  0  0  0  0  0
   37.0980   25.7000   40.7530 C   0  0  0  0  0  0  0  0  0  0  0  0
   37.6740   24.5380   41.1040 N   0  0  0  0  0  0  0  0  0  0  0  0
   36.7910   22.7100   38.3990 H   0  0  0  0  0  0  0  0  0  0  0  0
   35.7430   24.9020   37.8070 H   0  0  0  0  0  0  0  0  0  0  0  0
   38.1920   22.2350   40.6630 N   0  0  0  0  0  0  0  0  0  0  0  0
   37.7480   21.7600   41.5040 H   0  0  0  0  0  0  0  0  0  0  0  0
   39.0000   21.8860   40.1000 H   0  0  0  0  0  0  0  0  0  0  0  0
  1  2  1  0  0  0  0
  2  3  2  0  0  0  0
  2  7  1  0  0  0  0
  3  4  1  0  0  0  0
  4  8  1  0  0  0  0
  4  5  2  0  0  0  0
  5  9  1  0  0  0  0
  6  5  1  0  0  0  0
  6 10  1  0  0  0  0
  7  6  2  0  0  0  0
 11 12  1  0  0  0  0
 12 13  2  0  0  0  0
 12  7  1  0  0  0  0
 13 14  1  0  0  0  0
 15 16  1  0  0  0  0
 15 13  1  0  0  0  0
 16 22  1  0  0  0  0
 17 16  1  0  0  0  0
 18 17  1  0  0  0  0
 19 20  1  0  0  0  0
 19 17  2  0  0  0  0
 20 15  2  0  0  0  0
 21 20  1  0  0  0  0
 21 11  2  0  0  0  0
 23 31  1  0  0  0  0
 23 28  1  0  0  0  0
 24 23  2  0  0  0  0
 25 24  1  0  0  0  0
 25 26  2  0  0  0  0
 26 27  1  0  0  0  0
 27 28  2  0  0  0  0
 27  3  1  0  0  0  0
 29 24  1  0  0  0  0
 30 25  1  0  0  0  0
 31 32  1  0  0  0  0
 33 31  1  0  0  0  0
M  END
>  <minimizedAffinity>
-6.58632898

$$$$

 OpenBabel03252506113D

 33 36  0  0  0  0  0  0  0  0999 V2000
   37.8190   27.9000   39.9190 F   0  0  0  0  0  0  0  0  0  0  0  0
   37.4420   27.7470   41.1900 C   0  0  0  0  0  0  0  0  0  0  0  0
   37.0610   26.5120   41.6440 C   0  0  0  0  0  0  0  0  0  0  0  0
   36.6610   26.2970   42.9520 C   0  0  0  0  0  0  0  0  0  0  0  0
   36.6310   27.3370   43.8670 C   0  0  0  0  0  0  0  0  0  0  0  0
   37.0240   28.5650   43.3580 C   0  0  0  0  0  0  0  0  0  0  0  0
   37.4270   28.8190   42.0730 C   0  0  0  0  0  0  0  0  0  0  0  0
   36.3540   25.3060   43.3220 H   0  0  0  0  0  0  0  0  0  0  0  0
   36.3260   27.2160   44.8960 H   0  0  0  0  0  0  0  0  0  0  0  0
   37.0310   29.4400   44.0060 H   0  0  0  0  0  0  0  0  0  0  0  0
   39.1680   30.4510   41.8300 C   0  0  0  0  0  3  0  0  0  0  0  0
   37.8260   30.1220   41.6010 C   0  0  0  0  0  0  0  0  0  0  0  0
   37.0610   31.0740   40.9610 C   0  0  0  0  0  0  0  0  0  0  0  0
   36.0290   30.7870   40.7990 H   0  0  0  0  0  0  0  0  0  0  0  0
   37.5810   32.2860   40.5640 C   0  0  0  0  0  0  0  0  0  0  0  0
   37.0130   33.3390   39.9320 N   0  0  0  0  0  0  0  0  0  0  0  0
   37.9750   34.2750   39.7830 C   0  0  0  0  0  0  0  0  0  0  0  0
   37.8670   35.2580   39.3130 H   0  0  0  0  0  0  0  0  0  0  0  0
   39.1270   33.8070   40.3160 N   0  0  0  0  0  0  0  0  0  0  0  0
   38.9260   32.5790   40.8090 C   0  0  0  0  0  0  0  0  0  0  0  0
   39.7260   31.6540   41.4490 C   0  0  0  0  0  3  0  0  0  0  0  0
   36.0210   33.4300   39.6140 H   0  0  0  0  0  0  0  0  0  0  0  0
   37.6390   23.1410   40.3070 C   0  0  0  0  0  0  0  0  0  0  0  0
   37.0510   23.2380   39.0240 C   0  0  0  0  0  0  0  0  0  0  0  0
   36.4660   24.4510   38.6360 C   0  0  0  0  0  0  0  0  0  0  0  0
   36.5060   25.4750   39.5370 N   0  0  0  0  0  0  0  0  0  0  0  0
   37.0650   25.3580   40.7390 C   0  0  0  0  0  0  0  0  0  0  0  0
   37.6290   24.2000   41.1260 N   0  0  0  0  0  0  0  0  0  0  0  0
   37.0350   22.4000   38.3250 H   0  0  0  0  0  0  0  0  0  0  0  0
   36.0040   24.5820   37.6690 H   0  0  0  0  0  0  0  0  0  0  0  0
   38.2300   21.9150   40.7020 N   0  0  0  0  0  0  0  0  0  0  0  0
   37.7200   21.4190   41.4920 H   0  0  0  0  0  0  0  0  0  0  0  0
   39.0930   21.5890   40.2110 H   0  0  0  0  0  0  0  0  0  0  0  0
  1  2  1  0  0  0  0
  2  3  2  0  0  0  0
  2  7  1  0  0  0  0
  3  4  1  0  0  0  0
  4  8  1  0  0  0  0
  4  5  2  0  0  0  0
  5  9  1  0  0  0  0
  6  5  1  0  0  0  0
  6 10  1  0  0  0  0
  7  6  2  0  0  0  0
 12 11  1  0  0  0  0
 12  7  1  0  0  0  0
 13 12  2  0  0  0  0
 14 13  1  0  0  0  0
 15 20  2  0  0  0  0
 15 13  1  0  0  0  0
 16 15  1  0  0  0  0
 17 16  1  0  0  0  0
 17 19  2  0  0  0  0
 18 17  1  0  0  0  0
 19 20  1  0  0  0  0
 20 21  1  0  0  0  0
 21 11  2  0  0  0  0
 22 16  1  0  0  0  0
 23 31  1  0  0  0  0
 23 28  1  0  0  0  0
 24 23  2  0  0  0  0
 25 24  1  0  0  0  0
 25 26  2  0  0  0  0
 26 27  1  0  0  0  0
 27 28  2  0  0  0  0
 27  3  1  0  0  0  0
 29 24  1  0  0  0  0
 30 25  1  0  0  0  0
 31 32  1  0  0  0  0
 33 31  1  0  0  0  0
M  END
>  <minimizedAffinity>
-6.55882215

$$$$

 OpenBabel03252506113D

 33 36  0  0  0  0  0  0  0  0999 V2000
   40.4070   29.1360   41.0910 F   0  0  0  0  0  0  0  0  0  0  0  0
   39.4420   28.6700   41.8870 C   0  0  0  0  0  0  0  0  0  0  0  0
   38.1410   29.0420   41.6690 C   0  0  0  0  0  0  0  0  0  0  0  0
   37.1010   28.5890   42.4640 C   0  0  0  0  0  0  0  0  0  0  0  0
   37.3380   27.7300   43.5250 C   0  0  0  0  0  0  0  0  0  0  0  0
   38.6690   27.3850   43.7020 C   0  0  0  0  0  0  0  0  0  0  0  0
   39.7260   27.8100   42.9390 C   0  0  0  0  0  0  0  0  0  0  0  0
   36.0530   28.8850   42.2940 H   0  0  0  0  0  0  0  0  0  0  0  0
   36.5590   27.3510   44.1700 H   0  0  0  0  0  0  0  0  0  0  0  0
   38.9490   26.7140   44.5120 H   0  0  0  0  0  0  0  0  0  0  0  0
   41.9890   28.4710   43.3820 C   0  0  0  0  0  3  0  0  0  0  0  0
   41.0930   27.4160   43.1730 C   0  0  0  0  0  0  0  0  0  0  0  0
   41.6220   26.1430   43.2160 C   0  0  0  0  0  0  0  0  0  0  0  0
   40.9020   25.3500   43.0510 H   0  0  0  0  0  0  0  0  0  0  0  0
   42.9600   25.9130   43.4510 C   0  0  0  0  0  0  0  0  0  0  0  0
   43.6700   24.7650   43.5340 N   0  0  0  0  0  0  0  0  0  0  0  0
   44.9520   25.1100   43.7830 C   0  0  0  0  0  0  0  0  0  0  0  0
   45.8010   24.4310   43.9090 H   0  0  0  0  0  0  0  0  0  0  0  0
   45.0350   26.4580   43.8540 N   0  0  0  0  0  0  0  0  0  0  0  0
   43.8250   26.9930   43.6560 C   0  0  0  0  0  0  0  0  0  0  0  0
   43.3350   28.2830   43.6200 C   0  0  0  0  0  3  0  0  0  0  0  0
   43.3120   23.7870   43.4270 H   0  0  0  0  0  0  0  0  0  0  0  0
   37.2840   32.0920   39.8120 C   0  0  0  0  0  0  0  0  0  0  0  0
   37.1840   31.6020   38.4890 C   0  0  0  0  0  0  0  0  0  0  0  0
   37.4120   30.2390   38.2510 C   0  0  0  0  0  0  0  0  0  0  0  0
   37.7180   29.4640   39.3320 N   0  0  0  0  0  0  0  0  0  0  0  0
   37.8060   29.9500   40.5670 C   0  0  0  0  0  0  0  0  0  0  0  0
   37.5910   31.2550   40.8110 N   0  0  0  0  0  0  0  0  0  0  0  0
   36.9360   32.2480   37.6440 H   0  0  0  0  0  0  0  0  0  0  0  0
   37.3490   29.8100   37.2620 H   0  0  0  0  0  0  0  0  0  0  0  0
   37.0550   33.4690   40.0550 N   0  0  0  0  0  0  0  0  0  0  0  0
   37.9170   34.0070   40.3660 H   0  0  0  0  0  0  0  0  0  0  0  0
   36.0930   33.8530   39.9160 H   0  0  0  0  0  0  0  0  0  0  0  0
  1  2  1  0  0  0  0
  2  7  1  0  0  0  0
  3  2  2  0  0  0  0
  3  4  1  0  0  0  0
  4  5  2  0  0  0  0
  5  6  1  0  0  0  0
  5  9  1  0  0  0  0
  6 10  1  0  0  0  0
  7 12  1  0  0  0  0
  7  6  2  0  0  0  0
  8  4  1  0  0  0  0
 11 21  1  0  0  0  0
 12 13  1  0  0  0  0
 12 11  2  0  0  0  0
 13 15  2  0  0  0  0
 14 13  1  0  0  0  0
 15 16  1  0  0  0  0
 15 20  1  0  0  0  0
 16 17  1  0  0  0  0
 17 19  2  0  0  0  0
 17 18  1  0  0  0  0
 20 19  1  0  0  0  0
 21 20  2  0  0  0  0
 22 16  1  0  0  0  0
 23 31  1  0  0  0  0
 23 28  1  0  0  0  0
 24 23  2  0  0  0  0
 25 24  1  0  0  0  0
 25 26  2  0  0  0  0
 26 27  1  0  0  0  0
 27 28  2  0  0  0  0
 27  3  1  0  0  0  0
 29 24  1  0  0  0  0
 30 25  1  0  0  0  0
 31 32  1  0  0  0  0
 33 31  1  0  0  0  0
M  END
>  <minimizedAffinity>
-6.48972845

$$$$

 OpenBabel03252506113D

 33 36  0  0  0  0  0  0  0  0999 V2000
   38.1390   28.0600   39.7980 F   0  0  0  0  0  0  0  0  0  0  0  0
   37.8520   28.0570   41.1020 C   0  0  0  0  0  0  0  0  0  0  0  0
   37.9590   29.2150   41.8260 C   0  0  0  0  0  0  0  0  0  0  0  0
   37.6740   29.2690   43.1800 C   0  0  0  0  0  0  0  0  0  0  0  0
   37.2630   28.1370   43.8660 C   0  0  0  0  0  0  0  0  0  0  0  0
   37.1720   26.9930   43.0900 C   0  0  0  0  0  0  0  0  0  0  0  0
   37.4430   26.8980   41.7490 C   0  0  0  0  0  0  0  0  0  0  0  0
   37.7590   30.1970   43.7670 H   0  0  0  0  0  0  0  0  0  0  0  0
   37.0300   28.1320   44.9210 H   0  0  0  0  0  0  0  0  0  0  0  0
   36.8560   26.0560   43.5450 H   0  0  0  0  0  0  0  0  0  0  0  0
   36.5730   25.7730   39.8180 C   0  0  0  0  0  3  0  0  0  0  0  0
   37.3280   25.6760   40.9930 C   0  0  0  0  0  0  0  0  0  0  0  0
   37.8640   24.4370   41.2790 C   0  0  0  0  0  0  0  0  0  0  0  0
   38.4420   24.3980   42.1940 H   0  0  0  0  0  0  0  0  0  0  0  0
   37.6700   23.3490   40.4580 C   0  0  0  0  0  0  0  0  0  0  0  0
   38.0990   22.0690   40.5520 N   0  0  0  0  0  0  0  0  0  0  0  0
   37.6210   21.4120   39.4730 C   0  0  0  0  0  0  0  0  0  0  0  0
   37.7740   20.3560   39.2280 H   0  0  0  0  0  0  0  0  0  0  0  0
   36.9040   22.2740   38.7180 N   0  0  0  0  0  0  0  0  0  0  0  0
   36.9090   23.4840   39.2920 C   0  0  0  0  0  0  0  0  0  0  0  0
   36.3550   24.7060   38.9700 C   0  0  0  0  0  3  0  0  0  0  0  0
   38.6890   21.6510   41.3080 H   0  0  0  0  0  0  0  0  0  0  0  0
   37.8590   32.5190   40.2260 C   0  0  0  0  0  0  0  0  0  0  0  0
   39.2300   32.7520   39.9660 C   0  0  0  0  0  0  0  0  0  0  0  0
   40.1670   31.7800   40.3420 C   0  0  0  0  0  0  0  0  0  0  0  0
   39.6840   30.6530   40.9420 N   0  0  0  0  0  0  0  0  0  0  0  0
   38.3880   30.4570   41.1750 C   0  0  0  0  0  0  0  0  0  0  0  0
   37.4780   31.3820   40.8210 N   0  0  0  0  0  0  0  0  0  0  0  0
   39.5860   33.6650   39.4840 H   0  0  0  0  0  0  0  0  0  0  0  0
   41.2250   31.9040   40.1680 H   0  0  0  0  0  0  0  0  0  0  0  0
   36.9110   33.5020   39.8480 N   0  0  0  0  0  0  0  0  0  0  0  0
   36.4280   33.9810   40.6650 H   0  0  0  0  0  0  0  0  0  0  0  0
   36.7530   33.6860   38.8310 H   0  0  0  0  0  0  0  0  0  0  0  0
  1  2  1  0  0  0  0
  2  7  2  0  0  0  0
  2  3  1  0  0  0  0
  3  4  2  0  0  0  0
  4  8  1  0  0  0  0
  4  5  1  0  0  0  0
  5  9  1  0  0  0  0
  6 10  1  0  0  0  0
  6  5  2  0  0  0  0
  7  6  1  0  0  0  0
 11 12  1  0  0  0  0
 12 13  2  0  0  0  0
 12  7  1  0  0  0  0
 13 14  1  0  0  0  0
 15 16  1  0  0  0  0
 15 13  1  0  0  0  0
 16 22  1  0  0  0  0
 17 16  1  0  0  0  0
 18 17  1  0  0  0  0
 19 20  1  0  0  0  0
 19 17  2  0  0  0  0
 20 15  2  0  0  0  0
 21 20  1  0  0  0  0
 21 11  2  0  0  0  0
 23 28  1  0  0  0  0
 24 23  2  0  0  0  0
 24 25  1  0  0  0  0
 25 26  2  0  0  0  0
 26 27  1  0  0  0  0
 27  3  1  0  0  0  0
 28 27  2  0  0  0  0
 29 24  1  0  0  0  0
 30 25  1  0  0  0  0
 31 23  1  0  0  0  0
 31 32  1  0  0  0  0
 33 31  1  0  0  0  0
M  END
>  <minimizedAffinity>
-6.47931862

$$$$

 OpenBabel03252506113D

 33 36  0  0  0  0  0  0  0  0999 V2000
   40.3350   30.5570   40.4340 F   0  0  0  0  0  0  0  0  0  0  0  0
   39.2830   31.3550   40.2350 C   0  0  0  0  0  0  0  0  0  0  0  0
   39.4730   32.6330   39.7800 C   0  0  0  0  0  0  0  0  0  0  0  0
   38.4180   33.5020   39.5570 C   0  0  0  0  0  0  0  0  0  0  0  0
   37.1100   33.1070   39.7870 C   0  0  0  0  0  0  0  0  0  0  0  0
   36.9720   31.8070   40.2460 C   0  0  0  0  0  0  0  0  0  0  0  0
   37.9880   30.9160   40.4790 C   0  0  0  0  0  0  0  0  0  0  0  0
   38.5660   34.5310   39.1910 H   0  0  0  0  0  0  0  0  0  0  0  0
   36.2570   33.7510   39.6260 H   0  0  0  0  0  0  0  0  0  0  0  0
   35.9800   31.4110   40.4540 H   0  0  0  0  0  0  0  0  0  0  0  0
   37.8050   29.4270   42.3500 C   0  0  0  0  0  3  0  0  0  0  0  0
   37.7810   29.5720   40.9580 C   0  0  0  0  0  0  0  0  0  0  0  0
   37.5650   28.4240   40.2240 C   0  0  0  0  0  0  0  0  0  0  0  0
   37.5520   28.5720   39.1510 H   0  0  0  0  0  0  0  0  0  0  0  0
   37.3820   27.1970   40.8210 C   0  0  0  0  0  0  0  0  0  0  0  0
   37.1600   25.9700   40.2950 N   0  0  0  0  0  0  0  0  0  0  0  0
   37.0530   25.1100   41.3310 C   0  0  0  0  0  0  0  0  0  0  0  0
   36.8720   24.0320   41.2720 H   0  0  0  0  0  0  0  0  0  0  0  0
   37.2070   25.7960   42.4860 N   0  0  0  0  0  0  0  0  0  0  0  0
   37.4130   27.0900   42.2150 C   0  0  0  0  0  0  0  0  0  0  0  0
   37.6270   28.2150   42.9860 C   0  0  0  0  0  3  0  0  0  0  0  0
   37.0830   25.7170   39.2830 H   0  0  0  0  0  0  0  0  0  0  0  0
   42.4060   33.9610   38.0140 C   0  0  0  0  0  0  0  0  0  0  0  0
   43.3560   34.0440   39.0590 C   0  0  0  0  0  0  0  0  0  0  0  0
   42.9800   33.6470   40.3490 C   0  0  0  0  0  0  0  0  0  0  0  0
   41.7020   33.1970   40.5130 N   0  0  0  0  0  0  0  0  0  0  0  0
   40.8270   33.1290   39.5120 C   0  0  0  0  0  0  0  0  0  0  0  0
   41.1720   33.5070   38.2690 N   0  0  0  0  0  0  0  0  0  0  0  0
   44.3720   34.4080   38.8970 H   0  0  0  0  0  0  0  0  0  0  0  0
   43.6630   33.6870   41.1850 H   0  0  0  0  0  0  0  0  0  0  0  0
   42.7830   34.3630   36.7080 N   0  0  0  0  0  0  0  0  0  0  0  0
   42.2880   35.2370   36.3600 H   0  0  0  0  0  0  0  0  0  0  0  0
   43.4950   33.8000   36.1920 H   0  0  0  0  0  0  0  0  0  0  0  0
  2  1  1  0  0  0  0
  2  7  1  0  0  0  0
  3  2  2  0  0  0  0
  4  3  1  0  0  0  0
  4  5  2  0  0  0  0
  5  6  1  0  0  0  0
  6 10  1  0  0  0  0
  6  7  2  0  0  0  0
  7 12  1  0  0  0  0
  8  4  1  0  0  0  0
  9  5  1  0  0  0  0
 11 21  1  0  0  0  0
 12 11  2  0  0  0  0
 13 15  2  0  0  0  0
 13 12  1  0  0  0  0
 14 13  1  0  0  0  0
 15 20  1  0  0  0  0
 16 15  1  0  0  0  0
 16 17  1  0  0  0  0
 17 19  2  0  0  0  0
 18 17  1  0  0  0  0
 20 19  1  0  0  0  0
 20 21  2  0  0  0  0
 22 16  1  0  0  0  0
 23 28  2  0  0  0  0
 23 24  1  0  0  0  0
 24 25  2  0  0  0  0
 25 26  1  0  0  0  0
 25 30  1  0  0  0  0
 27  3  1  0  0  0  0
 27 26  2  0  0  0  0
 28 27  1  0  0  0  0
 29 24  1  0  0  0  0
 31 23  1  0  0  0  0
 32 31  1  0  0  0  0
 33 31  1  0  0  0  0
M  END
>  <minimizedAffinity>
-6.419168

$$$$

 OpenBabel03252506113D

 33 36  0  0  0  0  0  0  0  0999 V2000
   32.9100   29.1330   39.4060 F   0  0  0  0  0  0  0  0  0  0  0  0
   33.5190   29.0640   38.2200 C   0  0  0  0  0  0  0  0  0  0  0  0
   32.8050   29.2870   37.0720 C   0  0  0  0  0  0  0  0  0  0  0  0
   33.3870   29.2280   35.8170 C   0  0  0  0  0  0  0  0  0  0  0  0
   34.7340   28.9380   35.6700 C   0  0  0  0  0  0  0  0  0  0  0  0
   35.4100   28.7200   36.8590 C   0  0  0  0  0  0  0  0  0  0  0  0
   34.8730   28.7700   38.1200 C   0  0  0  0  0  0  0  0  0  0  0  0
   32.8170   29.4070   34.8910 H   0  0  0  0  0  0  0  0  0  0  0  0
   35.2290   28.8820   34.7110 H   0  0  0  0  0  0  0  0  0  0  0  0
   36.4730   28.4860   36.8400 H   0  0  0  0  0  0  0  0  0  0  0  0
   36.2020   27.2600   39.4260 C   0  0  0  0  0  3  0  0  0  0  0  0
   35.6300   28.5340   39.3240 C   0  0  0  0  0  0  0  0  0  0  0  0
   35.8590   29.3970   40.3750 C   0  0  0  0  0  0  0  0  0  0  0  0
   35.4040   30.3730   40.2630 H   0  0  0  0  0  0  0  0  0  0  0  0
   36.6090   29.0320   41.4720 C   0  0  0  0  0  0  0  0  0  0  0  0
   36.9490   29.7130   42.5900 N   0  0  0  0  0  0  0  0  0  0  0  0
   37.7000   28.8830   43.3450 C   0  0  0  0  0  0  0  0  0  0  0  0
   38.1450   29.1060   44.3200 H   0  0  0  0  0  0  0  0  0  0  0  0
   37.8240   27.7000   42.7020 N   0  0  0  0  0  0  0  0  0  0  0  0
   37.1650   27.7500   41.5390 C   0  0  0  0  0  0  0  0  0  0  0  0
   36.9580   26.8560   40.5070 C   0  0  0  0  0  3  0  0  0  0  0  0
   36.6890   30.6960   42.8390 H   0  0  0  0  0  0  0  0  0  0  0  0
   29.6270   30.8470   38.0510 C   0  0  0  0  0  0  0  0  0  0  0  0
   28.7040   30.1490   37.2380 C   0  0  0  0  0  0  0  0  0  0  0  0
   29.1800   29.1580   36.3680 C   0  0  0  0  0  0  0  0  0  0  0  0
   30.5250   28.9290   36.3660 N   0  0  0  0  0  0  0  0  0  0  0  0
   31.3740   29.6000   37.1410 C   0  0  0  0  0  0  0  0  0  0  0  0
   30.9320   30.5540   37.9800 N   0  0  0  0  0  0  0  0  0  0  0  0
   27.6330   30.3550   37.2630 H   0  0  0  0  0  0  0  0  0  0  0  0
   28.5210   28.5930   35.7260 H   0  0  0  0  0  0  0  0  0  0  0  0
   29.1490   31.8500   38.9310 N   0  0  0  0  0  0  0  0  0  0  0  0
   29.4530   32.8360   38.6750 H   0  0  0  0  0  0  0  0  0  0  0  0
   28.5510   31.5680   39.7400 H   0  0  0  0  0  0  0  0  0  0  0  0
  2  1  1  0  0  0  0
  3 27  1  0  0  0  0
  3  2  2  0  0  0  0
  4  3  1  0  0  0  0
  5  4  2  0  0  0  0
  5  6  1  0  0  0  0
  6  7  2  0  0  0  0
  7  2  1  0  0  0  0
  7 12  1  0  0  0  0
  8  4  1  0  0  0  0
  9  5  1  0  0  0  0
 10  6  1  0  0  0  0
 11 21  1  0  0  0  0
 12 11  2  0  0  0  0
 12 13  1  0  0  0  0
 13 15  2  0  0  0  0
 14 13  1  0  0  0  0
 15 20  1  0  0  0  0
 15 16  1  0  0  0  0
 16 22  1  0  0  0  0
 16 17  1  0  0  0  0
 17 18  1  0  0  0  0
 19 17  2  0  0  0  0
 20 19  1  0  0  0  0
 21 20  2  0  0  0  0
 23 31  1  0  0  0  0
 24 29  1  0  0  0  0
 24 23  2  0  0  0  0
 25 24  1  0  0  0  0
 26 25  2  0  0  0  0
 26 27  1  0  0  0  0
 27 28  2  0  0  0  0
 28 23  1  0  0  0  0
 30 25  1  0  0  0  0
 31 33  1  0  0  0  0
 32 31  1  0  0  0  0
M  END
>  <minimizedAffinity>
-6.31096601

$$$$

 OpenBabel03252506113D

 33 36  0  0  0  0  0  0  0  0999 V2000
   38.0090   28.1610   39.6330 F   0  0  0  0  0  0  0  0  0  0  0  0
   37.6560   27.9260   40.8990 C   0  0  0  0  0  0  0  0  0  0  0  0
   37.3220   26.6550   41.2870 C   0  0  0  0  0  0  0  0  0  0  0  0
   36.9490   26.3550   42.5870 C   0  0  0  0  0  0  0  0  0  0  0  0
   36.9000   27.3420   43.5590 C   0  0  0  0  0  0  0  0  0  0  0  0
   37.2460   28.6080   43.1140 C   0  0  0  0  0  0  0  0  0  0  0  0
   37.6210   28.9460   41.8400 C   0  0  0  0  0  0  0  0  0  0  0  0
   36.6790   25.3360   42.9050 H   0  0  0  0  0  0  0  0  0  0  0  0
   36.6150   27.1530   44.5840 H   0  0  0  0  0  0  0  0  0  0  0  0
   37.2360   29.4450   43.8100 H   0  0  0  0  0  0  0  0  0  0  0  0
   39.2870   30.6680   41.7260 C   0  0  0  0  0  3  0  0  0  0  0  0
   37.9720   30.2850   41.4360 C   0  0  0  0  0  0  0  0  0  0  0  0
   37.1830   31.2260   40.8080 C   0  0  0  0  0  0  0  0  0  0  0  0
   36.1720   30.8970   40.5980 H   0  0  0  0  0  0  0  0  0  0  0  0
   37.6560   32.4770   40.4790 C   0  0  0  0  0  0  0  0  0  0  0  0
   37.0590   33.5280   39.8710 N   0  0  0  0  0  0  0  0  0  0  0  0
   37.9790   34.5140   39.7950 C   0  0  0  0  0  0  0  0  0  0  0  0
   37.8380   35.5090   39.3620 H   0  0  0  0  0  0  0  0  0  0  0  0
   39.1330   34.0790   40.3500 N   0  0  0  0  0  0  0  0  0  0  0  0
   38.9760   32.8230   40.7850 C   0  0  0  0  0  0  0  0  0  0  0  0
   39.7980   31.9110   41.4150 C   0  0  0  0  0  3  0  0  0  0  0  0
   36.0750   33.5840   39.5210 H   0  0  0  0  0  0  0  0  0  0  0  0
   36.2670   24.2680   38.7040 C   0  0  0  0  0  0  0  0  0  0  0  0
   37.4410   23.4980   38.5300 C   0  0  0  0  0  0  0  0  0  0  0  0
   38.5740   23.8060   39.2960 C   0  0  0  0  0  0  0  0  0  0  0  0
   38.4650   24.8450   40.1750 N   0  0  0  0  0  0  0  0  0  0  0  0
   37.3480   25.5540   40.3190 C   0  0  0  0  0  0  0  0  0  0  0  0
   36.2540   25.2710   39.5910 N   0  0  0  0  0  0  0  0  0  0  0  0
   37.4970   22.6720   37.8190 H   0  0  0  0  0  0  0  0  0  0  0  0
   39.4960   23.2520   39.2060 H   0  0  0  0  0  0  0  0  0  0  0  0
   35.1210   23.9590   37.9300 N   0  0  0  0  0  0  0  0  0  0  0  0
   34.8580   24.7060   37.2220 H   0  0  0  0  0  0  0  0  0  0  0  0
   34.6290   23.0520   38.0970 H   0  0  0  0  0  0  0  0  0  0  0  0
  1  2  1  0  0  0  0
  2  3  2  0  0  0  0
  2  7  1  0  0  0  0
  3  4  1  0  0  0  0
  4  8  1  0  0  0  0
  4  5  2  0  0  0  0
  5  9  1  0  0  0  0
  6  5  1  0  0  0  0
  6 10  1  0  0  0  0
  7  6  2  0  0  0  0
 12 11  1  0  0  0  0
 12  7  1  0  0  0  0
 13 12  2  0  0  0  0
 14 13  1  0  0  0  0
 15 20  2  0  0  0  0
 15 13  1  0  0  0  0
 16 15  1  0  0  0  0
 17 16  1  0  0  0  0
 17 19  2  0  0  0  0
 18 17  1  0  0  0  0
 19 20  1  0  0  0  0
 20 21  1  0  0  0  0
 21 11  2  0  0  0  0
 22 16  1  0  0  0  0
 23 28  1  0  0  0  0
 24 23  2  0  0  0  0
 24 25  1  0  0  0  0
 25 26  2  0  0  0  0
 26 27  1  0  0  0  0
 27  3  1  0  0  0  0
 28 27  2  0  0  0  0
 29 24  1  0  0  0  0
 30 25  1  0  0  0  0
 31 33  1  0  0  0  0
 31 23  1  0  0  0  0
 32 31  1  0  0  0  0
M  END
>  <minimizedAffinity>
-6.10079336

$$$$

 OpenBabel03252506113D

 33 36  0  0  0  0  0  0  0  0999 V2000
   39.4950   28.8850   40.5940 F   0  0  0  0  0  0  0  0  0  0  0  0
   38.2100   29.2390   40.5220 C   0  0  0  0  0  0  0  0  0  0  0  0
   37.2370   28.3480   40.8900 C   0  0  0  0  0  0  0  0  0  0  0  0
   35.8890   28.6630   40.8360 C   0  0  0  0  0  0  0  0  0  0  0  0
   35.4660   29.9090   40.4010 C   0  0  0  0  0  0  0  0  0  0  0  0
   36.4890   30.7720   40.0400 C   0  0  0  0  0  0  0  0  0  0  0  0
   37.8320   30.5000   40.0800 C   0  0  0  0  0  0  0  0  0  0  0  0
   35.1020   27.9510   41.1310 H   0  0  0  0  0  0  0  0  0  0  0  0
   34.4270   30.1980   40.3420 H   0  0  0  0  0  0  0  0  0  0  0  0
   36.2500   31.7730   39.6860 H   0  0  0  0  0  0  0  0  0  0  0  0
   39.1880   32.3900   40.6650 C   0  0  0  0  0  3  0  0  0  0  0  0
   38.8520   31.4420   39.6910 C   0  0  0  0  0  0  0  0  0  0  0  0
   39.5310   31.5250   38.4930 C   0  0  0  0  0  0  0  0  0  0  0  0
   39.2470   30.7770   37.7630 H   0  0  0  0  0  0  0  0  0  0  0  0
   40.4890   32.4860   38.2590 C   0  0  0  0  0  0  0  0  0  0  0  0
   41.2580   32.7370   37.1750 N   0  0  0  0  0  0  0  0  0  0  0  0
   42.0330   33.8010   37.4780 C   0  0  0  0  0  0  0  0  0  0  0  0
   42.7760   34.2770   36.8310 H   0  0  0  0  0  0  0  0  0  0  0  0
   41.7480   34.2040   38.7370 N   0  0  0  0  0  0  0  0  0  0  0  0
   40.7980   33.4170   39.2560 C   0  0  0  0  0  0  0  0  0  0  0  0
   40.1410   33.3690   40.4690 C   0  0  0  0  0  3  0  0  0  0  0  0
   41.2650   32.2190   36.2660 H   0  0  0  0  0  0  0  0  0  0  0  0
   38.8950   25.6400   42.7340 C   0  0  0  0  0  0  0  0  0  0  0  0
   38.2450   24.4980   42.2090 C   0  0  0  0  0  0  0  0  0  0  0  0
   37.2510   24.6700   41.2370 C   0  0  0  0  0  0  0  0  0  0  0  0
   36.9740   25.9500   40.8530 N   0  0  0  0  0  0  0  0  0  0  0  0
   37.6000   27.0080   41.3620 C   0  0  0  0  0  0  0  0  0  0  0  0
   38.5550   26.8590   42.2960 N   0  0  0  0  0  0  0  0  0  0  0  0
   38.4900   23.4860   42.5370 H   0  0  0  0  0  0  0  0  0  0  0  0
   36.7230   23.8350   40.8010 H   0  0  0  0  0  0  0  0  0  0  0  0
   39.9000   25.4680   43.7180 N   0  0  0  0  0  0  0  0  0  0  0  0
   39.6390   25.8430   44.6780 H   0  0  0  0  0  0  0  0  0  0  0  0
   40.7960   25.0030   43.4500 H   0  0  0  0  0  0  0  0  0  0  0  0
  2  1  1  0  0  0  0
  2  3  1  0  0  0  0
  3 27  1  0  0  0  0
  4  3  2  0  0  0  0
  4  8  1  0  0  0  0
  5  4  1  0  0  0  0
  6  7  1  0  0  0  0
  6  5  2  0  0  0  0
  7  2  2  0  0  0  0
  9  5  1  0  0  0  0
 10  6  1  0  0  0  0
 12  7  1  0  0  0  0
 12 11  2  0  0  0  0
 13 12  1  0  0  0  0
 14 13  1  0  0  0  0
 15 13  2  0  0  0  0
 15 20  1  0  0  0  0
 16 17  1  0  0  0  0
 16 15  1  0  0  0  0
 17 19  2  0  0  0  0
 18 17  1  0  0  0  0
 19 20  1  0  0  0  0
 20 21  2  0  0  0  0
 21 11  1  0  0  0  0
 22 16  1  0  0  0  0
 23 31  1  0  0  0  0
 24 29  1  0  0  0  0
 24 23  2  0  0  0  0
 25 24  1  0  0  0  0
 26 25  2  0  0  0  0
 26 27  1  0  0  0  0
 27 28  2  0  0  0  0
 28 23  1  0  0  0  0
 30 25  1  0  0  0  0
 31 32  1  0  0  0  0
 33 31  1  0  0  0  0
M  END
>  <minimizedAffinity>
-5.98434019

$$$$

 OpenBabel03252506113D

 33 36  0  0  0  0  0  0  0  0999 V2000
   40.2220   28.9890   39.2160 F   0  0  0  0  0  0  0  0  0  0  0  0
   39.1870   29.7610   38.8790 C   0  0  0  0  0  0  0  0  0  0  0  0
   39.3990   30.9140   38.1710 C   0  0  0  0  0  0  0  0  0  0  0  0
   38.3620   31.7520   37.7950 C   0  0  0  0  0  0  0  0  0  0  0  0
   37.0500   31.4520   38.1260 C   0  0  0  0  0  0  0  0  0  0  0  0
   36.8900   30.2770   38.8420 C   0  0  0  0  0  0  0  0  0  0  0  0
   37.8870   29.4220   39.2320 C   0  0  0  0  0  0  0  0  0  0  0  0
   38.5270   32.6800   37.2250 H   0  0  0  0  0  0  0  0  0  0  0  0
   36.2110   32.0760   37.8540 H   0  0  0  0  0  0  0  0  0  0  0  0
   35.8930   29.9620   39.1460 H   0  0  0  0  0  0  0  0  0  0  0  0
   37.3150   28.3950   41.3230 C   0  0  0  0  0  3  0  0  0  0  0  0
   37.6570   28.2100   39.9780 C   0  0  0  0  0  0  0  0  0  0  0  0
   37.7320   26.9040   39.5380 C   0  0  0  0  0  0  0  0  0  0  0  0
   37.9980   26.7970   38.4930 H   0  0  0  0  0  0  0  0  0  0  0  0
   37.4840   25.8350   40.3700 C   0  0  0  0  0  0  0  0  0  0  0  0
   37.5010   24.5020   40.1430 N   0  0  0  0  0  0  0  0  0  0  0  0
   37.1820   23.8990   41.3090 C   0  0  0  0  0  0  0  0  0  0  0  0
   37.1030   22.8220   41.4900 H   0  0  0  0  0  0  0  0  0  0  0  0
   36.9690   24.8480   42.2480 N   0  0  0  0  0  0  0  0  0  0  0  0
   37.1450   26.0600   41.7080 C   0  0  0  0  0  0  0  0  0  0  0  0
   37.0610   27.3510   42.1890 C   0  0  0  0  0  3  0  0  0  0  0  0
   37.7190   24.0130   39.2440 H   0  0  0  0  0  0  0  0  0  0  0  0
   42.2780   32.9570   37.1560 C   0  0  0  0  0  0  0  0  0  0  0  0
   43.2990   31.9830   37.0620 C   0  0  0  0  0  0  0  0  0  0  0  0
   42.9910   30.6460   37.3470 C   0  0  0  0  0  0  0  0  0  0  0  0
   41.7020   30.3690   37.7010 N   0  0  0  0  0  0  0  0  0  0  0  0
   40.7580   31.3040   37.7820 C   0  0  0  0  0  0  0  0  0  0  0  0
   41.0400   32.5910   37.5120 N   0  0  0  0  0  0  0  0  0  0  0  0
   44.3220   32.2360   36.7760 H   0  0  0  0  0  0  0  0  0  0  0  0
   43.7300   29.8610   37.2910 H   0  0  0  0  0  0  0  0  0  0  0  0
   42.5870   34.3100   36.8690 N   0  0  0  0  0  0  0  0  0  0  0  0
   42.5360   34.9570   37.7100 H   0  0  0  0  0  0  0  0  0  0  0  0
   42.8370   34.5730   35.8890 H   0  0  0  0  0  0  0  0  0  0  0  0
  2  1  1  0  0  0  0
  2  7  1  0  0  0  0
  3  2  2  0  0  0  0
  4  5  2  0  0  0  0
  4  3  1  0  0  0  0
  5  6  1  0  0  0  0
  6 10  1  0  0  0  0
  6  7  2  0  0  0  0
  7 12  1  0  0  0  0
  8  4  1  0  0  0  0
  9  5  1  0  0  0  0
 11 21  1  0  0  0  0
 12 11  2  0  0  0  0
 13 12  1  0  0  0  0
 13 15  2  0  0  0  0
 14 13  1  0  0  0  0
 15 20  1  0  0  0  0
 16 15  1  0  0  0  0
 16 17  1  0  0  0  0
 17 18  1  0  0  0  0
 17 19  2  0  0  0  0
 20 21  2  0  0  0  0
 20 19  1  0  0  0  0
 22 16  1  0  0  0  0
 23 28  1  0  0  0  0
 24 23  2  0  0  0  0
 24 25  1  0  0  0  0
 25 26  2  0  0  0  0
 26 27  1  0  0  0  0
 27  3  1  0  0  0  0
 28 27  2  0  0  0  0
 29 24  1  0  0  0  0
 30 25  1  0  0  0  0
 31 23  1  0  0  0  0
 31 32  1  0  0  0  0
 33 31  1  0  0  0  0
M  END
>  <minimizedAffinity>
-5.9248023

$$$$
