
 OpenBabel03252506583D

 41 46  0  0  0  0  0  0  0  0999 V2000
   36.9230   25.7070   40.6060 C   0  0  0  0  0  0  0  0  0  0  0  0
   37.3500   24.4150   40.8970 C   0  0  0  0  0  0  0  0  0  0  0  0
   38.2850   24.1440   41.8670 C   0  0  0  0  0  0  0  0  0  0  0  0
   38.8530   25.1710   42.6100 C   0  0  0  0  0  0  0  0  0  0  0  0
   39.7760   25.2710   43.6140 N   0  0  0  0  0  0  0  0  0  0  0  0
   39.9140   26.5850   43.9320 C   0  0  0  0  0  0  0  0  0  0  0  0
   39.0810   27.2730   43.1270 N   0  0  0  0  0  0  0  0  0  0  0  0
   38.4240   26.4400   42.3120 C   0  0  0  0  0  0  0  0  0  0  0  0
   37.4980   26.7460   41.3580 C   0  0  0  0  0  0  0  0  0  0  0  0
   36.1870   25.9300   39.8450 H   0  0  0  0  0  0  0  0  0  0  0  0
   38.6200   23.1400   42.0970 H   0  0  0  0  0  0  0  0  0  0  0  0
   40.2450   24.4190   44.0070 H   0  0  0  0  0  0  0  0  0  0  0  0
   40.5880   26.9390   44.7020 H   0  0  0  0  0  0  0  0  0  0  0  0
   37.0210   21.1980   39.1530 C   0  0  0  0  0  0  0  0  0  0  0  0
   35.6820   21.2210   38.7300 C   0  0  0  0  0  0  0  0  0  0  0  0
   34.9120   22.3340   39.0440 C   0  0  0  0  0  0  0  0  0  0  0  0
   35.4850   23.3630   39.7540 N   0  0  0  0  0  0  0  0  0  0  0  0
   36.7830   23.2980   40.1440 C   0  0  0  0  0  0  0  0  0  0  0  0
   37.5510   22.2350   39.8550 N   0  0  0  0  0  0  0  0  0  0  0  0
   37.6380   20.3420   38.9200 H   0  0  0  0  0  0  0  0  0  0  0  0
   35.2750   20.3940   38.1760 H   0  0  0  0  0  0  0  0  0  0  0  0
   33.8870   22.3670   38.7270 H   0  0  0  0  0  0  0  0  0  0  0  0
   37.0960   28.1460   41.1080 C   0  0  0  0  0  0  0  0  0  0  0  0
   35.7750   28.5700   41.0120 C   0  0  0  0  0  0  0  0  0  0  0  0
   35.9000   29.9460   40.7740 C   0  0  0  0  0  0  0  0  0  0  0  0
   37.2490   30.2670   40.7410 C   0  0  0  0  0  0  0  0  0  0  0  0
   37.9160   29.1440   40.9470 O   0  0  0  0  0  0  0  0  0  0  0  0
   34.9250   27.9100   41.1130 H   0  0  0  0  0  0  0  0  0  0  0  0
   35.0260   30.5780   40.6500 H   0  0  0  0  0  0  0  0  0  0  0  0
   37.0110   32.5780   39.8540 C   0  0  0  0  0  3  0  0  0  0  0  0
   37.7500   31.6180   40.5130 C   0  0  0  0  0  0  0  0  0  0  0  0
   39.0240   31.9610   40.9760 C   0  0  0  0  0  0  0  0  0  0  0  0
   39.6620   31.2510   41.5050 H   0  0  0  0  0  0  0  0  0  0  0  0
   39.4660   33.2470   40.7420 C   0  0  0  0  0  0  0  0  0  0  0  0
   40.6150   33.9180   41.0390 N   0  0  0  0  0  0  0  0  0  0  0  0
   40.5660   35.1860   40.5890 C   0  0  0  0  0  0  0  0  0  0  0  0
   41.4070   35.8390   40.7500 H   0  0  0  0  0  0  0  0  0  0  0  0
   39.3650   35.3530   39.9870 N   0  0  0  0  0  0  0  0  0  0  0  0
   38.7030   34.1960   40.0760 C   0  0  0  0  0  0  0  0  0  0  0  0
   37.4510   33.8460   39.6260 C   0  0  0  0  0  3  0  0  0  0  0  0
   41.3890   33.4340   41.5540 H   0  0  0  0  0  0  0  0  0  0  0  0
  1  2  2  0  0  0  0
  1  9  1  0  0  0  0
  2  3  1  0  0  0  0
  3 11  1  0  0  0  0
  3  4  2  0  0  0  0
  4  5  1  0  0  0  0
  5  6  1  0  0  0  0
  5 12  1  0  0  0  0
  6 13  1  0  0  0  0
  7  6  2  0  0  0  0
  8  4  1  0  0  0  0
  8  7  1  0  0  0  0
  9  8  2  0  0  0  0
 10  1  1  0  0  0  0
 14 19  1  0  0  0  0
 15 16  1  0  0  0  0
 15 14  2  0  0  0  0
 16 17  2  0  0  0  0
 17 18  1  0  0  0  0
 18  2  1  0  0  0  0
 19 18  2  0  0  0  0
 20 14  1  0  0  0  0
 21 15  1  0  0  0  0
 22 16  1  0  0  0  0
 23  9  1  0  0  0  0
 24 23  2  0  0  0  0
 24 28  1  0  0  0  0
 25 24  1  0  0  0  0
 26 25  2  0  0  0  0
 26 27  1  0  0  0  0
 27 23  1  0  0  0  0
 29 25  1  0  0  0  0
 30 31  1  0  0  0  0
 31 26  1  0  0  0  0
 31 32  2  0  0  0  0
 32 33  1  0  0  0  0
 34 32  1  0  0  0  0
 34 35  1  0  0  0  0
 35 41  1  0  0  0  0
 36 37  1  0  0  0  0
 36 35  1  0  0  0  0
 38 39  1  0  0  0  0
 38 36  2  0  0  0  0
 39 34  2  0  0  0  0
 40 30  2  0  0  0  0
 40 39  1  0  0  0  0
M  END
>  <minimizedAffinity>
-7.63200903

$$$$

 OpenBabel03252506583D

 41 46  0  0  0  0  0  0  0  0999 V2000
   36.5940   30.5370   38.8700 C   0  0  0  0  0  0  0  0  0  0  0  0
   35.7070   29.4660   38.8840 C   0  0  0  0  0  0  0  0  0  0  0  0
   35.5650   28.6340   39.9690 C   0  0  0  0  0  0  0  0  0  0  0  0
   36.3180   28.8350   41.1180 C   0  0  0  0  0  0  0  0  0  0  0  0
   36.4380   28.2320   42.3400 N   0  0  0  0  0  0  0  0  0  0  0  0
   37.3720   28.9110   43.0570 C   0  0  0  0  0  0  0  0  0  0  0  0
   37.8120   29.9160   42.2760 N   0  0  0  0  0  0  0  0  0  0  0  0
   37.1910   29.8950   41.0910 C   0  0  0  0  0  0  0  0  0  0  0  0
   37.3570   30.7400   40.0340 C   0  0  0  0  0  0  0  0  0  0  0  0
   36.7120   31.1970   38.0210 H   0  0  0  0  0  0  0  0  0  0  0  0
   34.8750   27.7990   39.9840 H   0  0  0  0  0  0  0  0  0  0  0  0
   35.8630   27.3900   42.5880 H   0  0  0  0  0  0  0  0  0  0  0  0
   37.6560   28.6370   44.0650 H   0  0  0  0  0  0  0  0  0  0  0  0
   32.8310   28.6720   36.7390 C   0  0  0  0  0  0  0  0  0  0  0  0
   33.3890   28.7390   35.4520 C   0  0  0  0  0  0  0  0  0  0  0  0
   34.7380   29.0510   35.3340 C   0  0  0  0  0  0  0  0  0  0  0  0
   35.4700   29.2850   36.4750 N   0  0  0  0  0  0  0  0  0  0  0  0
   34.8900   29.2110   37.6990 C   0  0  0  0  0  0  0  0  0  0  0  0
   33.5880   28.9100   37.8430 N   0  0  0  0  0  0  0  0  0  0  0  0
   31.7840   28.4300   36.8520 H   0  0  0  0  0  0  0  0  0  0  0  0
   32.7790   28.5480   34.5860 H   0  0  0  0  0  0  0  0  0  0  0  0
   35.1790   29.1060   34.3580 H   0  0  0  0  0  0  0  0  0  0  0  0
   38.3220   31.8570   40.0960 C   0  0  0  0  0  0  0  0  0  0  0  0
   37.9560   33.1990   40.1410 C   0  0  0  0  0  0  0  0  0  0  0  0
   39.1900   33.8620   40.1910 C   0  0  0  0  0  0  0  0  0  0  0  0
   40.2020   32.9140   40.1740 C   0  0  0  0  0  0  0  0  0  0  0  0
   39.6160   31.7300   40.1160 O   0  0  0  0  0  0  0  0  0  0  0  0
   36.9300   33.5400   40.1350 H   0  0  0  0  0  0  0  0  0  0  0  0
   39.2450   34.9460   40.2350 H   0  0  0  0  0  0  0  0  0  0  0  0
   42.3830   33.0980   41.3540 C   0  0  0  0  0  3  0  0  0  0  0  0
   41.6210   33.2490   40.2140 C   0  0  0  0  0  0  0  0  0  0  0  0
   42.2390   33.7430   39.0610 C   0  0  0  0  0  0  0  0  0  0  0  0
   41.6960   33.8870   38.1260 H   0  0  0  0  0  0  0  0  0  0  0  0
   43.5820   34.0490   39.1360 C   0  0  0  0  0  0  0  0  0  0  0  0
   44.4890   34.5360   38.2420 N   0  0  0  0  0  0  0  0  0  0  0  0
   45.7050   34.6660   38.8070 C   0  0  0  0  0  0  0  0  0  0  0  0
   46.5260   35.0410   38.2190 H   0  0  0  0  0  0  0  0  0  0  0  0
   45.5960   34.2570   40.0930 N   0  0  0  0  0  0  0  0  0  0  0  0
   44.3280   33.8880   40.2950 C   0  0  0  0  0  0  0  0  0  0  0  0
   43.7080   33.4020   41.4230 C   0  0  0  0  0  3  0  0  0  0  0  0
   44.1960   34.7550   37.2600 H   0  0  0  0  0  0  0  0  0  0  0  0
  1  2  2  0  0  0  0
  1  9  1  0  0  0  0
  2  3  1  0  0  0  0
  3 11  1  0  0  0  0
  3  4  2  0  0  0  0
  4  5  1  0  0  0  0
  5 12  1  0  0  0  0
  5  6  1  0  0  0  0
  6 13  1  0  0  0  0
  7  6  2  0  0  0  0
  8  4  1  0  0  0  0
  8  7  1  0  0  0  0
  9 23  1  0  0  0  0
  9  8  2  0  0  0  0
 10  1  1  0  0  0  0
 14 20  1  0  0  0  0
 14 19  1  0  0  0  0
 15 14  2  0  0  0  0
 16 15  1  0  0  0  0
 16 17  2  0  0  0  0
 17 18  1  0  0  0  0
 18 19  2  0  0  0  0
 18  2  1  0  0  0  0
 21 15  1  0  0  0  0
 22 16  1  0  0  0  0
 23 27  1  0  0  0  0
 23 24  2  0  0  0  0
 24 25  1  0  0  0  0
 25 29  1  0  0  0  0
 26 25  2  0  0  0  0
 26 31  1  0  0  0  0
 27 26  1  0  0  0  0
 28 24  1  0  0  0  0
 30 40  1  0  0  0  0
 31 30  2  0  0  0  0
 32 34  2  0  0  0  0
 32 31  1  0  0  0  0
 33 32  1  0  0  0  0
 34 39  1  0  0  0  0
 35 36  1  0  0  0  0
 35 34  1  0  0  0  0
 36 38  2  0  0  0  0
 37 36  1  0  0  0  0
 38 39  1  0  0  0  0
 39 40  2  0  0  0  0
 41 35  1  0  0  0  0
M  END
>  <minimizedAffinity>
-6.97350788

$$$$

 OpenBabel03252506583D

 41 46  0  0  0  0  0  0  0  0999 V2000
   41.0280   32.0720   41.2630 C   0  0  0  0  0  0  0  0  0  0  0  0
   41.4050   33.2970   40.7210 C   0  0  0  0  0  0  0  0  0  0  0  0
   40.5190   34.1260   40.0750 C   0  0  0  0  0  0  0  0  0  0  0  0
   39.1850   33.7660   39.9350 C   0  0  0  0  0  0  0  0  0  0  0  0
   38.0650   34.3170   39.3760 N   0  0  0  0  0  0  0  0  0  0  0  0
   37.0300   33.4570   39.5670 C   0  0  0  0  0  0  0  0  0  0  0  0
   37.5200   32.3960   40.2370 N   0  0  0  0  0  0  0  0  0  0  0  0
   38.8270   32.5550   40.4740 C   0  0  0  0  0  0  0  0  0  0  0  0
   39.6780   31.7080   41.1210 C   0  0  0  0  0  0  0  0  0  0  0  0
   41.7180   31.4130   41.7730 H   0  0  0  0  0  0  0  0  0  0  0  0
   40.8080   35.0800   39.6510 H   0  0  0  0  0  0  0  0  0  0  0  0
   38.1010   35.2510   38.9000 H   0  0  0  0  0  0  0  0  0  0  0  0
   36.0250   33.6570   39.2180 H   0  0  0  0  0  0  0  0  0  0  0  0
   44.4530   34.9430   41.9470 C   0  0  0  0  0  0  0  0  0  0  0  0
   45.4210   34.5030   41.0310 C   0  0  0  0  0  0  0  0  0  0  0  0
   45.0210   33.6520   40.0070 C   0  0  0  0  0  0  0  0  0  0  0  0
   43.7010   33.2750   39.9320 N   0  0  0  0  0  0  0  0  0  0  0  0
   42.7970   33.7240   40.8400 C   0  0  0  0  0  0  0  0  0  0  0  0
   43.1560   34.5470   41.8400 N   0  0  0  0  0  0  0  0  0  0  0  0
   44.7430   35.6050   42.7500 H   0  0  0  0  0  0  0  0  0  0  0  0
   46.4440   34.8230   41.1270 H   0  0  0  0  0  0  0  0  0  0  0  0
   45.7490   33.3070   39.2990 H   0  0  0  0  0  0  0  0  0  0  0  0
   39.2010   30.4220   41.6710 C   0  0  0  0  0  0  0  0  0  0  0  0
   39.2510   30.0870   43.0200 C   0  0  0  0  0  0  0  0  0  0  0  0
   38.6980   28.7990   43.0470 C   0  0  0  0  0  0  0  0  0  0  0  0
   38.3540   28.4390   41.7530 C   0  0  0  0  0  0  0  0  0  0  0  0
   38.6810   29.4550   40.9720 O   0  0  0  0  0  0  0  0  0  0  0  0
   39.6460   30.7400   43.7850 H   0  0  0  0  0  0  0  0  0  0  0  0
   38.5950   28.2500   43.9780 H   0  0  0  0  0  0  0  0  0  0  0  0
   37.6440   26.1230   42.3120 C   0  0  0  0  0  3  0  0  0  0  0  0
   37.7490   27.1570   41.4060 C   0  0  0  0  0  0  0  0  0  0  0  0
   37.2570   26.9620   40.1130 C   0  0  0  0  0  0  0  0  0  0  0  0
   37.3070   27.7370   39.3470 H   0  0  0  0  0  0  0  0  0  0  0  0
   36.6920   25.7360   39.8210 C   0  0  0  0  0  0  0  0  0  0  0  0
   36.1250   25.2030   38.7020 N   0  0  0  0  0  0  0  0  0  0  0  0
   35.7110   23.9410   38.9230 C   0  0  0  0  0  0  0  0  0  0  0  0
   35.2420   23.3880   38.1260 H   0  0  0  0  0  0  0  0  0  0  0  0
   36.0100   23.6390   40.2090 N   0  0  0  0  0  0  0  0  0  0  0  0
   36.5970   24.7100   40.7500 C   0  0  0  0  0  0  0  0  0  0  0  0
   37.0860   24.9150   42.0200 C   0  0  0  0  0  3  0  0  0  0  0  0
   36.0590   25.7700   37.8230 H   0  0  0  0  0  0  0  0  0  0  0  0
  1 10  1  0  0  0  0
  2 18  1  0  0  0  0
  2  1  2  0  0  0  0
  3  2  1  0  0  0  0
  4  3  2  0  0  0  0
  4  8  1  0  0  0  0
  5  6  1  0  0  0  0
  5  4  1  0  0  0  0
  6  7  2  0  0  0  0
  7  8  1  0  0  0  0
  8  9  2  0  0  0  0
  9  1  1  0  0  0  0
  9 23  1  0  0  0  0
 11  3  1  0  0  0  0
 12  5  1  0  0  0  0
 13  6  1  0  0  0  0
 14 20  1  0  0  0  0
 15 21  1  0  0  0  0
 15 14  2  0  0  0  0
 16 15  1  0  0  0  0
 17 16  2  0  0  0  0
 17 18  1  0  0  0  0
 18 19  2  0  0  0  0
 19 14  1  0  0  0  0
 22 16  1  0  0  0  0
 23 24  2  0  0  0  0
 24 25  1  0  0  0  0
 24 28  1  0  0  0  0
 25 29  1  0  0  0  0
 26 25  2  0  0  0  0
 27 23  1  0  0  0  0
 27 26  1  0  0  0  0
 31 26  1  0  0  0  0
 31 30  2  0  0  0  0
 32 31  1  0  0  0  0
 33 32  1  0  0  0  0
 34 32  2  0  0  0  0
 34 39  1  0  0  0  0
 35 36  1  0  0  0  0
 35 34  1  0  0  0  0
 36 38  2  0  0  0  0
 37 36  1  0  0  0  0
 38 39  1  0  0  0  0
 39 40  2  0  0  0  0
 40 30  1  0  0  0  0
 41 35  1  0  0  0  0
M  END
>  <minimizedAffinity>
-6.86329412

$$$$

 OpenBabel03252506583D

 41 46  0  0  0  0  0  0  0  0999 V2000
   41.3330   32.1090   38.4340 C   0  0  0  0  0  0  0  0  0  0  0  0
   42.3110   33.0810   38.2440 C   0  0  0  0  0  0  0  0  0  0  0  0
   42.1560   34.3800   38.6660 C   0  0  0  0  0  0  0  0  0  0  0  0
   40.9930   34.7820   39.3100 C   0  0  0  0  0  0  0  0  0  0  0  0
   40.5110   35.9440   39.8450 N   0  0  0  0  0  0  0  0  0  0  0  0
   39.2730   35.6960   40.3480 C   0  0  0  0  0  0  0  0  0  0  0  0
   39.0100   34.3950   40.1190 N   0  0  0  0  0  0  0  0  0  0  0  0
   40.0370   33.8140   39.4900 C   0  0  0  0  0  0  0  0  0  0  0  0
   40.1570   32.5170   39.0860 C   0  0  0  0  0  0  0  0  0  0  0  0
   41.4470   31.0840   38.1060 H   0  0  0  0  0  0  0  0  0  0  0  0
   42.9150   35.1400   38.5200 H   0  0  0  0  0  0  0  0  0  0  0  0
   41.0760   36.8280   39.8210 H   0  0  0  0  0  0  0  0  0  0  0  0
   38.6680   36.4540   40.8310 H   0  0  0  0  0  0  0  0  0  0  0  0
   45.7660   33.1900   36.9990 C   0  0  0  0  0  0  0  0  0  0  0  0
   45.8710   31.9790   36.2970 C   0  0  0  0  0  0  0  0  0  0  0  0
   44.7610   31.1430   36.2570 C   0  0  0  0  0  0  0  0  0  0  0  0
   43.6110   31.5300   36.9040 N   0  0  0  0  0  0  0  0  0  0  0  0
   43.5540   32.7100   37.5720 C   0  0  0  0  0  0  0  0  0  0  0  0
   44.6110   33.5380   37.6270 N   0  0  0  0  0  0  0  0  0  0  0  0
   46.6170   33.8550   37.0420 H   0  0  0  0  0  0  0  0  0  0  0  0
   46.7900   31.7150   35.8040 H   0  0  0  0  0  0  0  0  0  0  0  0
   44.8250   30.2140   35.7250 H   0  0  0  0  0  0  0  0  0  0  0  0
   39.0720   31.5420   39.3240 C   0  0  0  0  0  0  0  0  0  0  0  0
   37.7790   31.6810   38.8300 C   0  0  0  0  0  0  0  0  0  0  0  0
   37.1310   30.5340   39.3100 C   0  0  0  0  0  0  0  0  0  0  0  0
   38.0400   29.7880   40.0450 C   0  0  0  0  0  0  0  0  0  0  0  0
   39.1870   30.4460   40.0160 O   0  0  0  0  0  0  0  0  0  0  0  0
   37.4550   32.5180   38.2270 H   0  0  0  0  0  0  0  0  0  0  0  0
   36.0850   30.3450   39.0910 H   0  0  0  0  0  0  0  0  0  0  0  0
   37.5600   28.4170   42.0620 C   0  0  0  0  0  3  0  0  0  0  0  0
   37.7080   28.5260   40.6950 C   0  0  0  0  0  0  0  0  0  0  0  0
   37.5320   27.3800   39.9130 C   0  0  0  0  0  0  0  0  0  0  0  0
   37.6340   27.3950   38.8270 H   0  0  0  0  0  0  0  0  0  0  0  0
   37.2190   26.2030   40.5630 C   0  0  0  0  0  0  0  0  0  0  0  0
   36.9810   24.9290   40.1420 N   0  0  0  0  0  0  0  0  0  0  0  0
   36.7120   24.1170   41.1810 C   0  0  0  0  0  0  0  0  0  0  0  0
   36.5030   23.0750   41.0020 H   0  0  0  0  0  0  0  0  0  0  0  0
   36.7720   24.8700   42.3050 N   0  0  0  0  0  0  0  0  0  0  0  0
   37.0750   26.1190   41.9410 C   0  0  0  0  0  0  0  0  0  0  0  0
   37.2510   27.2530   42.6990 C   0  0  0  0  0  3  0  0  0  0  0  0
   37.0240   24.6950   39.1210 H   0  0  0  0  0  0  0  0  0  0  0  0
  1  9  1  0  0  0  0
  2  1  2  0  0  0  0
  2  3  1  0  0  0  0
  3  4  2  0  0  0  0
  4  8  1  0  0  0  0
  4  5  1  0  0  0  0
  5  6  1  0  0  0  0
  6 13  1  0  0  0  0
  7  6  2  0  0  0  0
  8  7  1  0  0  0  0
  9 23  1  0  0  0  0
  9  8  2  0  0  0  0
 10  1  1  0  0  0  0
 11  3  1  0  0  0  0
 12  5  1  0  0  0  0
 14 20  1  0  0  0  0
 14 19  1  0  0  0  0
 15 14  2  0  0  0  0
 16 15  1  0  0  0  0
 16 17  2  0  0  0  0
 17 18  1  0  0  0  0
 18 19  2  0  0  0  0
 18  2  1  0  0  0  0
 21 15  1  0  0  0  0
 22 16  1  0  0  0  0
 23 27  1  0  0  0  0
 24 25  1  0  0  0  0
 24 23  2  0  0  0  0
 25 26  2  0  0  0  0
 26 31  1  0  0  0  0
 27 26  1  0  0  0  0
 28 24  1  0  0  0  0
 29 25  1  0  0  0  0
 30 40  1  0  0  0  0
 31 30  2  0  0  0  0
 32 34  2  0  0  0  0
 32 31  1  0  0  0  0
 33 32  1  0  0  0  0
 34 39  1  0  0  0  0
 35 34  1  0  0  0  0
 35 36  1  0  0  0  0
 36 38  2  0  0  0  0
 37 36  1  0  0  0  0
 39 38  1  0  0  0  0
 39 40  2  0  0  0  0
 41 35  1  0  0  0  0
M  END
>  <minimizedAffinity>
-6.8207283

$$$$

 OpenBabel03252506583D

 41 46  0  0  0  0  0  0  0  0999 V2000
   41.6850   32.8260   40.6630 C   0  0  0  0  0  0  0  0  0  0  0  0
   41.8560   34.1920   40.8640 C   0  0  0  0  0  0  0  0  0  0  0  0
   40.8550   35.1060   40.6350 C   0  0  0  0  0  0  0  0  0  0  0  0
   39.6080   34.6920   40.1840 C   0  0  0  0  0  0  0  0  0  0  0  0
   38.4240   35.2950   39.8610 N   0  0  0  0  0  0  0  0  0  0  0  0
   37.5500   34.3290   39.4720 C   0  0  0  0  0  0  0  0  0  0  0  0
   38.2010   33.1530   39.5590 N   0  0  0  0  0  0  0  0  0  0  0  0
   39.4540   33.3420   39.9890 C   0  0  0  0  0  0  0  0  0  0  0  0
   40.4230   32.4080   40.2060 C   0  0  0  0  0  0  0  0  0  0  0  0
   42.4670   32.0990   40.8410 H   0  0  0  0  0  0  0  0  0  0  0  0
   40.9830   36.1700   40.7910 H   0  0  0  0  0  0  0  0  0  0  0  0
   38.3070   36.3350   39.9330 H   0  0  0  0  0  0  0  0  0  0  0  0
   36.5340   34.5410   39.1630 H   0  0  0  0  0  0  0  0  0  0  0  0
   45.4780   34.7160   41.1890 C   0  0  0  0  0  0  0  0  0  0  0  0
   45.5560   35.6200   42.2600 C   0  0  0  0  0  0  0  0  0  0  0  0
   44.3720   36.0360   42.8580 C   0  0  0  0  0  0  0  0  0  0  0  0
   43.1780   35.5520   42.3790 N   0  0  0  0  0  0  0  0  0  0  0  0
   43.1490   34.6800   41.3390 C   0  0  0  0  0  0  0  0  0  0  0  0
   44.2770   34.2600   40.7430 N   0  0  0  0  0  0  0  0  0  0  0  0
   46.3860   34.3790   40.7100 H   0  0  0  0  0  0  0  0  0  0  0  0
   46.5130   35.9730   42.6030 H   0  0  0  0  0  0  0  0  0  0  0  0
   44.4150   36.7270   43.6780 H   0  0  0  0  0  0  0  0  0  0  0  0
   40.1650   30.9730   39.9690 C   0  0  0  0  0  0  0  0  0  0  0  0
   40.6790   30.2580   38.8910 C   0  0  0  0  0  0  0  0  0  0  0  0
   40.1670   28.9680   39.0940 C   0  0  0  0  0  0  0  0  0  0  0  0
   39.3960   28.9750   40.2470 C   0  0  0  0  0  0  0  0  0  0  0  0
   39.4330   30.2080   40.7250 O   0  0  0  0  0  0  0  0  0  0  0  0
   41.3140   30.6920   38.1330 H   0  0  0  0  0  0  0  0  0  0  0  0
   40.3930   28.1590   38.4070 H   0  0  0  0  0  0  0  0  0  0  0  0
   38.2800   27.7070   42.0710 C   0  0  0  0  0  3  0  0  0  0  0  0
   38.7070   27.7980   40.7620 C   0  0  0  0  0  0  0  0  0  0  0  0
   38.4660   26.7180   39.9080 C   0  0  0  0  0  0  0  0  0  0  0  0
   38.7760   26.7230   38.8620 H   0  0  0  0  0  0  0  0  0  0  0  0
   37.8110   25.6210   40.4300 C   0  0  0  0  0  0  0  0  0  0  0  0
   37.4170   24.4240   39.9110 N   0  0  0  0  0  0  0  0  0  0  0  0
   36.7990   23.6720   40.8420 C   0  0  0  0  0  0  0  0  0  0  0  0
   36.4320   22.6950   40.5770 H   0  0  0  0  0  0  0  0  0  0  0  0
   36.7870   24.3860   41.9920 N   0  0  0  0  0  0  0  0  0  0  0  0
   37.3910   25.5530   41.7510 C   0  0  0  0  0  0  0  0  0  0  0  0
   37.6340   26.6220   42.5820 C   0  0  0  0  0  3  0  0  0  0  0  0
   37.6090   24.1960   38.9060 H   0  0  0  0  0  0  0  0  0  0  0  0
  1 10  1  0  0  0  0
  1  2  1  0  0  0  0
  2 18  1  0  0  0  0
  3 11  1  0  0  0  0
  3  2  2  0  0  0  0
  4  3  1  0  0  0  0
  5 12  1  0  0  0  0
  5  4  1  0  0  0  0
  6  7  2  0  0  0  0
  6  5  1  0  0  0  0
  7  8  1  0  0  0  0
  8  4  2  0  0  0  0
  8  9  1  0  0  0  0
  9  1  2  0  0  0  0
 13  6  1  0  0  0  0
 14 15  1  0  0  0  0
 15 21  1  0  0  0  0
 15 16  2  0  0  0  0
 16 22  1  0  0  0  0
 17 16  1  0  0  0  0
 18 17  2  0  0  0  0
 19 14  2  0  0  0  0
 19 18  1  0  0  0  0
 20 14  1  0  0  0  0
 23  9  1  0  0  0  0
 23 27  1  0  0  0  0
 24 25  1  0  0  0  0
 24 23  2  0  0  0  0
 25 26  2  0  0  0  0
 26 27  1  0  0  0  0
 26 31  1  0  0  0  0
 28 24  1  0  0  0  0
 29 25  1  0  0  0  0
 30 40  1  0  0  0  0
 31 30  2  0  0  0  0
 32 34  2  0  0  0  0
 32 31  1  0  0  0  0
 33 32  1  0  0  0  0
 34 39  1  0  0  0  0
 35 34  1  0  0  0  0
 35 36  1  0  0  0  0
 36 38  2  0  0  0  0
 37 36  1  0  0  0  0
 39 38  1  0  0  0  0
 39 40  2  0  0  0  0
 41 35  1  0  0  0  0
M  END
>  <minimizedAffinity>
-6.74274206

$$$$

 OpenBabel03252506583D

 41 46  0  0  0  0  0  0  0  0999 V2000
   39.3320   30.3310   41.6050 C   0  0  0  0  0  0  0  0  0  0  0  0
   40.2850   31.3430   41.6700 C   0  0  0  0  0  0  0  0  0  0  0  0
   41.5070   31.1720   42.2740 C   0  0  0  0  0  0  0  0  0  0  0  0
   41.8460   29.9560   42.8550 C   0  0  0  0  0  0  0  0  0  0  0  0
   42.9280   29.4450   43.5180 N   0  0  0  0  0  0  0  0  0  0  0  0
   42.6490   28.1570   43.8510 C   0  0  0  0  0  0  0  0  0  0  0  0
   41.4100   27.8930   43.3930 N   0  0  0  0  0  0  0  0  0  0  0  0
   40.8970   28.9670   42.7840 C   0  0  0  0  0  0  0  0  0  0  0  0
   39.6760   29.1010   42.1930 C   0  0  0  0  0  0  0  0  0  0  0  0
   38.3670   30.4560   41.1310 H   0  0  0  0  0  0  0  0  0  0  0  0
   42.2520   31.9560   42.3270 H   0  0  0  0  0  0  0  0  0  0  0  0
   43.7830   30.0280   43.6920 H   0  0  0  0  0  0  0  0  0  0  0  0
   43.3450   27.5210   44.3850 H   0  0  0  0  0  0  0  0  0  0  0  0
   38.4180   34.2000   40.3090 C   0  0  0  0  0  0  0  0  0  0  0  0
   39.4460   35.0870   39.9510 C   0  0  0  0  0  0  0  0  0  0  0  0
   40.7600   34.6980   40.1780 C   0  0  0  0  0  0  0  0  0  0  0  0
   41.0030   33.4670   40.7420 N   0  0  0  0  0  0  0  0  0  0  0  0
   39.9790   32.6410   41.0740 C   0  0  0  0  0  0  0  0  0  0  0  0
   38.6980   32.9910   40.8650 N   0  0  0  0  0  0  0  0  0  0  0  0
   37.3890   34.4830   40.1410 H   0  0  0  0  0  0  0  0  0  0  0  0
   39.2100   36.0410   39.5120 H   0  0  0  0  0  0  0  0  0  0  0  0
   41.5570   35.3640   39.9100 H   0  0  0  0  0  0  0  0  0  0  0  0
   38.7160   27.9780   42.1640 C   0  0  0  0  0  0  0  0  0  0  0  0
   37.6390   27.8530   43.0360 C   0  0  0  0  0  0  0  0  0  0  0  0
   37.0370   26.6550   42.6250 C   0  0  0  0  0  0  0  0  0  0  0  0
   37.7620   26.1380   41.5620 C   0  0  0  0  0  0  0  0  0  0  0  0
   38.7580   26.9780   41.3330 O   0  0  0  0  0  0  0  0  0  0  0  0
   37.4100   28.5690   43.8110 H   0  0  0  0  0  0  0  0  0  0  0  0
   36.1500   26.2720   43.1200 H   0  0  0  0  0  0  0  0  0  0  0  0
   36.4080   24.8180   39.9480 C   0  0  0  0  0  3  0  0  0  0  0  0
   37.4200   24.8940   40.8820 C   0  0  0  0  0  0  0  0  0  0  0  0
   38.1370   23.7320   41.1820 C   0  0  0  0  0  0  0  0  0  0  0  0
   38.9490   23.7210   41.9100 H   0  0  0  0  0  0  0  0  0  0  0  0
   37.7850   22.5730   40.5190 C   0  0  0  0  0  0  0  0  0  0  0  0
   38.2480   21.2920   40.5530 N   0  0  0  0  0  0  0  0  0  0  0  0
   37.5620   20.5070   39.7010 C   0  0  0  0  0  0  0  0  0  0  0  0
   37.8160   19.4630   39.6180 H   0  0  0  0  0  0  0  0  0  0  0  0
   36.6330   21.2850   39.0960 N   0  0  0  0  0  0  0  0  0  0  0  0
   36.7630   22.5220   39.5820 C   0  0  0  0  0  0  0  0  0  0  0  0
   36.0640   23.6720   39.2960 C   0  0  0  0  0  3  0  0  0  0  0  0
   39.0390   21.0340   41.1890 H   0  0  0  0  0  0  0  0  0  0  0  0
  1  2  2  0  0  0  0
  1  9  1  0  0  0  0
  2  3  1  0  0  0  0
  3 11  1  0  0  0  0
  3  4  2  0  0  0  0
  4  5  1  0  0  0  0
  5 12  1  0  0  0  0
  5  6  1  0  0  0  0
  6 13  1  0  0  0  0
  7  6  2  0  0  0  0
  8  4  1  0  0  0  0
  8  7  1  0  0  0  0
  9  8  2  0  0  0  0
 10  1  1  0  0  0  0
 14 19  1  0  0  0  0
 15 16  1  0  0  0  0
 15 14  2  0  0  0  0
 16 17  2  0  0  0  0
 17 18  1  0  0  0  0
 18  2  1  0  0  0  0
 19 18  2  0  0  0  0
 20 14  1  0  0  0  0
 21 15  1  0  0  0  0
 22 16  1  0  0  0  0
 23  9  1  0  0  0  0
 23 24  2  0  0  0  0
 24 28  1  0  0  0  0
 25 24  1  0  0  0  0
 25 29  1  0  0  0  0
 26 25  2  0  0  0  0
 27 26  1  0  0  0  0
 27 23  1  0  0  0  0
 30 31  1  0  0  0  0
 31 32  2  0  0  0  0
 31 26  1  0  0  0  0
 32 33  1  0  0  0  0
 34 35  1  0  0  0  0
 34 32  1  0  0  0  0
 35 41  1  0  0  0  0
 36 35  1  0  0  0  0
 37 36  1  0  0  0  0
 38 39  1  0  0  0  0
 38 36  2  0  0  0  0
 39 34  2  0  0  0  0
 40 39  1  0  0  0  0
 40 30  2  0  0  0  0
M  END
>  <minimizedAffinity>
-6.71681404

$$$$

 OpenBabel03252506583D

 41 46  0  0  0  0  0  0  0  0999 V2000
   37.0660   26.7530   40.2140 C   0  0  0  0  0  0  0  0  0  0  0  0
   36.7380   25.4530   39.8410 C   0  0  0  0  0  0  0  0  0  0  0  0
   37.2860   24.3470   40.4450 C   0  0  0  0  0  0  0  0  0  0  0  0
   38.2100   24.4870   41.4730 C   0  0  0  0  0  0  0  0  0  0  0  0
   38.9350   23.6460   42.2720 N   0  0  0  0  0  0  0  0  0  0  0  0
   39.6870   24.4050   43.1110 C   0  0  0  0  0  0  0  0  0  0  0  0
   39.4200   25.6930   42.8220 N   0  0  0  0  0  0  0  0  0  0  0  0
   38.5270   25.7740   41.8300 C   0  0  0  0  0  0  0  0  0  0  0  0
   38.0020   26.8930   41.2540 C   0  0  0  0  0  0  0  0  0  0  0  0
   36.6390   27.6290   39.7450 H   0  0  0  0  0  0  0  0  0  0  0  0
   37.0330   23.3340   40.1580 H   0  0  0  0  0  0  0  0  0  0  0  0
   38.8550   22.6040   42.1760 H   0  0  0  0  0  0  0  0  0  0  0  0
   40.3560   23.9810   43.8510 H   0  0  0  0  0  0  0  0  0  0  0  0
   34.3340   23.8490   37.5720 C   0  0  0  0  0  0  0  0  0  0  0  0
   33.9550   24.9110   36.7350 C   0  0  0  0  0  0  0  0  0  0  0  0
   34.5260   26.1580   36.9570 C   0  0  0  0  0  0  0  0  0  0  0  0
   35.4320   26.3050   37.9800 N   0  0  0  0  0  0  0  0  0  0  0  0
   35.7690   25.2500   38.7660 C   0  0  0  0  0  0  0  0  0  0  0  0
   35.2340   24.0330   38.5740 N   0  0  0  0  0  0  0  0  0  0  0  0
   33.9030   22.8700   37.4170 H   0  0  0  0  0  0  0  0  0  0  0  0
   33.2430   24.7510   35.9460 H   0  0  0  0  0  0  0  0  0  0  0  0
   34.2470   26.9810   36.3260 H   0  0  0  0  0  0  0  0  0  0  0  0
   38.4020   28.2420   41.7060 C   0  0  0  0  0  0  0  0  0  0  0  0
   38.3350   28.6700   43.0280 C   0  0  0  0  0  0  0  0  0  0  0  0
   38.8100   29.9870   42.9590 C   0  0  0  0  0  0  0  0  0  0  0  0
   39.1290   30.2730   41.6400 C   0  0  0  0  0  0  0  0  0  0  0  0
   38.8610   29.1850   40.9370 O   0  0  0  0  0  0  0  0  0  0  0  0
   37.9830   28.0510   43.8410 H   0  0  0  0  0  0  0  0  0  0  0  0
   38.8820   30.6070   43.8470 H   0  0  0  0  0  0  0  0  0  0  0  0
   40.9940   31.7600   40.9380 C   0  0  0  0  0  3  0  0  0  0  0  0
   39.6540   31.5600   41.1980 C   0  0  0  0  0  0  0  0  0  0  0  0
   38.7760   32.6350   41.0300 C   0  0  0  0  0  0  0  0  0  0  0  0
   37.7050   32.5470   41.2170 H   0  0  0  0  0  0  0  0  0  0  0  0
   39.3080   33.8370   40.6110 C   0  0  0  0  0  0  0  0  0  0  0  0
   38.7740   35.0630   40.3470 N   0  0  0  0  0  0  0  0  0  0  0  0
   39.7260   35.9330   39.9580 C   0  0  0  0  0  0  0  0  0  0  0  0
   39.4520   36.9460   39.7150 H   0  0  0  0  0  0  0  0  0  0  0  0
   40.9050   35.2680   39.9650 N   0  0  0  0  0  0  0  0  0  0  0  0
   40.6610   34.0140   40.3560 C   0  0  0  0  0  0  0  0  0  0  0  0
   41.5150   32.9480   40.5250 C   0  0  0  0  0  3  0  0  0  0  0  0
   37.7450   35.2240   40.4580 H   0  0  0  0  0  0  0  0  0  0  0  0
  1  9  1  0  0  0  0
  2  1  2  0  0  0  0
  2  3  1  0  0  0  0
  3  4  2  0  0  0  0
  4  8  1  0  0  0  0
  4  5  1  0  0  0  0
  5  6  1  0  0  0  0
  6 13  1  0  0  0  0
  7  6  2  0  0  0  0
  8  7  1  0  0  0  0
  9 23  1  0  0  0  0
  9  8  2  0  0  0  0
 10  1  1  0  0  0  0
 11  3  1  0  0  0  0
 12  5  1  0  0  0  0
 14 19  1  0  0  0  0
 15 16  1  0  0  0  0
 15 14  2  0  0  0  0
 16 17  2  0  0  0  0
 17 18  1  0  0  0  0
 18  2  1  0  0  0  0
 19 18  2  0  0  0  0
 20 14  1  0  0  0  0
 21 15  1  0  0  0  0
 22 16  1  0  0  0  0
 23 24  2  0  0  0  0
 24 28  1  0  0  0  0
 25 24  1  0  0  0  0
 25 29  1  0  0  0  0
 26 25  2  0  0  0  0
 27 26  1  0  0  0  0
 27 23  1  0  0  0  0
 30 31  1  0  0  0  0
 31 26  1  0  0  0  0
 32 31  2  0  0  0  0
 32 33  1  0  0  0  0
 34 32  1  0  0  0  0
 35 41  1  0  0  0  0
 35 34  1  0  0  0  0
 36 38  2  0  0  0  0
 36 35  1  0  0  0  0
 37 36  1  0  0  0  0
 38 39  1  0  0  0  0
 39 40  1  0  0  0  0
 39 34  2  0  0  0  0
 40 30  2  0  0  0  0
M  END
>  <minimizedAffinity>
-6.71307421

$$$$

 OpenBabel03252506583D

 41 46  0  0  0  0  0  0  0  0999 V2000
   39.6550   28.0490   42.5600 C   0  0  0  0  0  0  0  0  0  0  0  0
   40.5470   27.2170   43.2300 C   0  0  0  0  0  0  0  0  0  0  0  0
   40.3460   25.8630   43.3570 C   0  0  0  0  0  0  0  0  0  0  0  0
   39.2200   25.2610   42.8110 C   0  0  0  0  0  0  0  0  0  0  0  0
   38.7110   23.9930   42.7440 N   0  0  0  0  0  0  0  0  0  0  0  0
   37.5410   24.0430   42.0550 C   0  0  0  0  0  0  0  0  0  0  0  0
   37.3440   25.3290   41.7080 N   0  0  0  0  0  0  0  0  0  0  0  0
   38.3480   26.0930   42.1540 C   0  0  0  0  0  0  0  0  0  0  0  0
   38.5160   27.4380   42.0080 C   0  0  0  0  0  0  0  0  0  0  0  0
   39.8060   29.1150   42.4550 H   0  0  0  0  0  0  0  0  0  0  0  0
   41.0380   25.2120   43.8770 H   0  0  0  0  0  0  0  0  0  0  0  0
   39.2140   23.1830   43.1840 H   0  0  0  0  0  0  0  0  0  0  0  0
   36.9330   23.1680   41.8600 H   0  0  0  0  0  0  0  0  0  0  0  0
   43.2940   29.5450   43.9630 C   0  0  0  0  0  0  0  0  0  0  0  0
   44.0080   28.8620   44.9610 C   0  0  0  0  0  0  0  0  0  0  0  0
   43.5440   27.6170   45.3670 C   0  0  0  0  0  0  0  0  0  0  0  0
   42.4090   27.1060   44.7830 N   0  0  0  0  0  0  0  0  0  0  0  0
   41.7490   27.8010   43.8230 C   0  0  0  0  0  0  0  0  0  0  0  0
   42.1750   29.0060   43.4100 N   0  0  0  0  0  0  0  0  0  0  0  0
   43.6380   30.5140   43.6320 H   0  0  0  0  0  0  0  0  0  0  0  0
   44.8920   29.3000   45.3900 H   0  0  0  0  0  0  0  0  0  0  0  0
   44.0780   27.0820   46.1280 H   0  0  0  0  0  0  0  0  0  0  0  0
   37.5220   28.2560   41.2820 C   0  0  0  0  0  0  0  0  0  0  0  0
   37.0120   29.4600   41.7540 C   0  0  0  0  0  0  0  0  0  0  0  0
   36.1250   29.8480   40.7400 C   0  0  0  0  0  0  0  0  0  0  0  0
   36.1480   28.8860   39.7410 C   0  0  0  0  0  0  0  0  0  0  0  0
   37.0050   27.9550   40.1260 O   0  0  0  0  0  0  0  0  0  0  0  0
   37.2990   29.9040   42.6960 H   0  0  0  0  0  0  0  0  0  0  0  0
   35.5560   30.7700   40.8120 H   0  0  0  0  0  0  0  0  0  0  0  0
   35.9050   29.1360   37.2800 C   0  0  0  0  0  3  0  0  0  0  0  0
   35.3430   28.9650   38.5280 C   0  0  0  0  0  0  0  0  0  0  0  0
   33.9520   28.8640   38.6220 C   0  0  0  0  0  0  0  0  0  0  0  0
   33.4420   28.7280   39.5770 H   0  0  0  0  0  0  0  0  0  0  0  0
   33.2230   28.9430   37.4530 C   0  0  0  0  0  0  0  0  0  0  0  0
   31.8910   28.8870   37.1680 N   0  0  0  0  0  0  0  0  0  0  0  0
   31.6730   29.0160   35.8450 C   0  0  0  0  0  0  0  0  0  0  0  0
   30.6640   28.9910   35.4680 H   0  0  0  0  0  0  0  0  0  0  0  0
   32.8810   29.1580   35.2500 N   0  0  0  0  0  0  0  0  0  0  0  0
   33.8120   29.1160   36.2080 C   0  0  0  0  0  0  0  0  0  0  0  0
   35.1820   29.2140   36.1280 C   0  0  0  0  0  3  0  0  0  0  0  0
   31.1920   28.7580   37.9380 H   0  0  0  0  0  0  0  0  0  0  0  0
  1  2  1  0  0  0  0
  2  3  2  0  0  0  0
  2 18  1  0  0  0  0
  3 11  1  0  0  0  0
  4  3  1  0  0  0  0
  5  4  1  0  0  0  0
  5 12  1  0  0  0  0
  6  5  1  0  0  0  0
  7  6  2  0  0  0  0
  7  8  1  0  0  0  0
  8  4  2  0  0  0  0
  9  8  1  0  0  0  0
  9  1  2  0  0  0  0
 10  1  1  0  0  0  0
 13  6  1  0  0  0  0
 14 15  1  0  0  0  0
 15 16  2  0  0  0  0
 15 21  1  0  0  0  0
 16 22  1  0  0  0  0
 17 16  1  0  0  0  0
 18 17  2  0  0  0  0
 19 18  1  0  0  0  0
 19 14  2  0  0  0  0
 20 14  1  0  0  0  0
 23 24  2  0  0  0  0
 23  9  1  0  0  0  0
 24 28  1  0  0  0  0
 25 29  1  0  0  0  0
 25 24  1  0  0  0  0
 26 27  1  0  0  0  0
 26 25  2  0  0  0  0
 27 23  1  0  0  0  0
 30 31  1  0  0  0  0
 31 32  2  0  0  0  0
 31 26  1  0  0  0  0
 32 33  1  0  0  0  0
 34 32  1  0  0  0  0
 35 34  1  0  0  0  0
 35 41  1  0  0  0  0
 36 35  1  0  0  0  0
 37 36  1  0  0  0  0
 38 36  2  0  0  0  0
 38 39  1  0  0  0  0
 39 34  2  0  0  0  0
 40 39  1  0  0  0  0
 40 30  2  0  0  0  0
M  END
>  <minimizedAffinity>
-6.61141491

$$$$

 OpenBabel03252506583D

 41 46  0  0  0  0  0  0  0  0999 V2000
   33.2940   29.1620   37.6680 C   0  0  0  0  0  0  0  0  0  0  0  0
   32.6000   28.4020   36.7330 C   0  0  0  0  0  0  0  0  0  0  0  0
   33.0340   27.1670   36.3110 C   0  0  0  0  0  0  0  0  0  0  0  0
   34.2080   26.6200   36.8130 C   0  0  0  0  0  0  0  0  0  0  0  0
   34.9170   25.4650   36.6310 N   0  0  0  0  0  0  0  0  0  0  0  0
   36.0160   25.5140   37.4300 C   0  0  0  0  0  0  0  0  0  0  0  0
   35.9700   26.6870   38.0890 N   0  0  0  0  0  0  0  0  0  0  0  0
   34.8830   27.3810   37.7340 C   0  0  0  0  0  0  0  0  0  0  0  0
   34.4820   28.6080   38.1750 C   0  0  0  0  0  0  0  0  0  0  0  0
   32.9600   30.1340   38.0060 H   0  0  0  0  0  0  0  0  0  0  0  0
   32.4970   26.5720   35.5830 H   0  0  0  0  0  0  0  0  0  0  0  0
   34.5880   24.7260   35.9630 H   0  0  0  0  0  0  0  0  0  0  0  0
   36.7480   24.7170   37.4750 H   0  0  0  0  0  0  0  0  0  0  0  0
   29.9060   30.7210   35.8030 C   0  0  0  0  0  0  0  0  0  0  0  0
   29.0170   29.8860   35.1080 C   0  0  0  0  0  0  0  0  0  0  0  0
   29.3480   28.5440   34.9680 C   0  0  0  0  0  0  0  0  0  0  0  0
   30.5270   28.0880   35.5100 N   0  0  0  0  0  0  0  0  0  0  0  0
   31.3580   28.9310   36.1730 C   0  0  0  0  0  0  0  0  0  0  0  0
   31.0630   30.2330   36.3240 N   0  0  0  0  0  0  0  0  0  0  0  0
   29.6680   31.7680   35.9240 H   0  0  0  0  0  0  0  0  0  0  0  0
   28.1050   30.2850   34.7010 H   0  0  0  0  0  0  0  0  0  0  0  0
   28.6790   27.8920   34.4400 H   0  0  0  0  0  0  0  0  0  0  0  0
   35.2760   29.3550   39.1730 C   0  0  0  0  0  0  0  0  0  0  0  0
   35.1960   29.1460   40.5460 C   0  0  0  0  0  0  0  0  0  0  0  0
   36.1150   30.0700   41.0620 C   0  0  0  0  0  0  0  0  0  0  0  0
   36.6820   30.7660   40.0040 C   0  0  0  0  0  0  0  0  0  0  0  0
   36.1370   30.2910   38.8970 O   0  0  0  0  0  0  0  0  0  0  0  0
   34.5440   28.4150   41.0030 H   0  0  0  0  0  0  0  0  0  0  0  0
   36.2880   30.1550   42.1300 H   0  0  0  0  0  0  0  0  0  0  0  0
   38.9380   31.5550   40.6910 C   0  0  0  0  0  3  0  0  0  0  0  0
   37.6850   31.8110   40.1730 C   0  0  0  0  0  0  0  0  0  0  0  0
   37.3750   33.1220   39.8010 C   0  0  0  0  0  0  0  0  0  0  0  0
   36.4040   33.3950   39.3840 H   0  0  0  0  0  0  0  0  0  0  0  0
   38.3480   34.0850   39.9750 C   0  0  0  0  0  0  0  0  0  0  0  0
   38.4020   35.4250   39.7310 N   0  0  0  0  0  0  0  0  0  0  0  0
   39.6000   35.9330   40.0790 C   0  0  0  0  0  0  0  0  0  0  0  0
   39.7900   36.9850   39.9430 H   0  0  0  0  0  0  0  0  0  0  0  0
   40.3470   34.9100   40.5580 N   0  0  0  0  0  0  0  0  0  0  0  0
   39.6020   33.8030   40.4980 C   0  0  0  0  0  0  0  0  0  0  0  0
   39.8950   32.5080   40.8620 C   0  0  0  0  0  3  0  0  0  0  0  0
   37.5730   35.9210   39.3240 H   0  0  0  0  0  0  0  0  0  0  0  0
  1 10  1  0  0  0  0
  1  9  1  0  0  0  0
  2  1  2  0  0  0  0
  3  2  1  0  0  0  0
  3  4  2  0  0  0  0
  4  8  1  0  0  0  0
  5  4  1  0  0  0  0
  5  6  1  0  0  0  0
  6 13  1  0  0  0  0
  6  7  2  0  0  0  0
  8  7  1  0  0  0  0
  8  9  2  0  0  0  0
  9 23  1  0  0  0  0
 11  3  1  0  0  0  0
 12  5  1  0  0  0  0
 14 20  1  0  0  0  0
 14 19  1  0  0  0  0
 15 14  2  0  0  0  0
 16 15  1  0  0  0  0
 16 17  2  0  0  0  0
 17 18  1  0  0  0  0
 18 19  2  0  0  0  0
 18  2  1  0  0  0  0
 21 15  1  0  0  0  0
 22 16  1  0  0  0  0
 23 24  2  0  0  0  0
 24 28  1  0  0  0  0
 24 25  1  0  0  0  0
 25 29  1  0  0  0  0
 26 31  1  0  0  0  0
 26 25  2  0  0  0  0
 27 23  1  0  0  0  0
 27 26  1  0  0  0  0
 30 40  1  0  0  0  0
 31 30  2  0  0  0  0
 32 34  2  0  0  0  0
 32 31  1  0  0  0  0
 33 32  1  0  0  0  0
 34 39  1  0  0  0  0
 35 34  1  0  0  0  0
 35 36  1  0  0  0  0
 36 38  2  0  0  0  0
 37 36  1  0  0  0  0
 39 38  1  0  0  0  0
 39 40  2  0  0  0  0
 41 35  1  0  0  0  0
M  END
>  <minimizedAffinity>
-6.52591038

$$$$
