
 OpenBabel03252508333D

 35 38  0  0  1  0  0  0  0  0999 V2000
   44.3080   34.3650   41.9070 N   0  0  0  0  0  0  0  0  0  0  0  0
   44.3530   33.2690   40.9950 C   0  0  2  0  0  0  0  0  0  0  0  0
   43.9070   33.6680   39.6080 C   0  0  0  0  0  0  0  0  0  0  0  0
   42.6430   34.3360   39.6260 N   0  0  0  0  0  0  0  0  0  0  0  0
   42.5300   35.3680   40.5820 C   0  0  0  0  0  0  0  0  0  0  0  0
   43.8040   35.6090   41.3620 C   0  0  0  0  0  0  0  0  0  0  0  0
   45.4220   32.9540   40.9080 H   0  0  0  0  0  0  0  0  0  0  0  0
   44.6650   34.3740   39.2120 H   0  0  0  0  0  0  0  0  0  0  0  0
   43.8580   32.8070   38.9430 H   0  0  0  0  0  0  0  0  0  0  0  0
   41.8950   33.6190   39.8020 H   0  0  0  0  0  0  0  0  0  0  0  0
   41.7090   35.2700   41.3210 H   0  0  0  0  0  0  0  0  0  0  0  0
   42.3400   36.3210   40.0200 H   0  0  0  0  0  0  0  0  0  0  0  0
   44.5640   35.9130   40.5850 H   0  0  0  0  0  0  0  0  0  0  0  0
   43.5930   36.3930   42.0730 H   0  0  0  0  0  0  0  0  0  0  0  0
   44.0380   30.7830   41.2110 C   0  0  0  0  0  3  0  0  0  0  0  0
   43.5810   32.0790   41.3600 C   0  0  0  0  0  0  0  0  0  0  0  0
   42.2970   32.1010   41.9240 C   0  0  0  0  0  0  0  0  0  0  0  0
   41.8380   33.0870   42.0860 H   0  0  0  0  0  0  0  0  0  0  0  0
   41.5620   31.0060   42.2900 C   0  0  0  0  0  0  0  0  0  0  0  0
   40.3370   30.8960   42.8320 N   0  0  0  0  0  0  0  0  0  0  0  0
   40.0970   29.5830   42.9900 C   0  0  0  0  0  0  0  0  0  0  0  0
   39.1420   29.2480   43.4220 H   0  0  0  0  0  0  0  0  0  0  0  0
   41.1640   28.9010   42.5490 N   0  0  0  0  0  0  0  0  0  0  0  0
   42.0950   29.7540   42.1050 C   0  0  0  0  0  0  0  0  0  0  0  0
   43.3560   29.6350   41.5560 C   0  0  0  0  0  3  0  0  0  0  0  0
   39.6970   31.6980   43.0810 H   0  0  0  0  0  0  0  0  0  0  0  0
   44.4580   35.1620   44.1820 C   0  0  0  0  0  0  0  0  0  0  0  0
   44.7480   34.1780   43.2470 C   0  0  0  0  0  0  0  0  0  0  0  0
   45.4410   33.0710   43.6870 C   0  0  0  0  0  0  0  0  0  0  0  0
   45.8040   32.9860   44.9850 N   0  0  0  0  0  0  0  0  0  0  0  0
   45.5110   33.9540   45.8730 C   0  0  0  0  0  0  0  0  0  0  0  0
   44.8440   35.0260   45.4640 N   0  0  0  0  0  0  0  0  0  0  0  0
   43.9290   36.0840   44.0130 H   0  0  0  0  0  0  0  0  0  0  0  0
   45.6960   32.2890   43.0050 H   0  0  0  0  0  0  0  0  0  0  0  0
   45.8680   33.7420   46.8760 H   0  0  0  0  0  0  0  0  0  0  0  0
  1 28  1  0  0  0  0
  2  7  1  6  0  0  0
  2 16  1  0  0  0  0
  2  1  1  0  0  0  0
  3  4  1  0  0  0  0
  3  2  1  0  0  0  0
  4 10  1  0  0  0  0
  4  5  1  0  0  0  0
  5 11  1  0  0  0  0
  5  6  1  0  0  0  0
  6  1  1  0  0  0  0
  6 14  1  0  0  0  0
  8  3  1  0  0  0  0
  9  3  1  0  0  0  0
 12  5  1  0  0  0  0
 13  6  1  0  0  0  0
 15 16  2  0  0  0  0
 15 25  1  0  0  0  0
 16 17  1  0  0  0  0
 17 18  1  0  0  0  0
 17 19  2  0  0  0  0
 19 20  1  0  0  0  0
 20 21  1  0  0  0  0
 20 26  1  0  0  0  0
 21 22  1  0  0  0  0
 23 21  2  0  0  0  0
 24 19  1  0  0  0  0
 24 23  1  0  0  0  0
 25 24  2  0  0  0  0
 27 32  1  0  0  0  0
 28 29  1  0  0  0  0
 28 27  2  0  0  0  0
 29 30  2  0  0  0  0
 30 31  1  0  0  0  0
 31 35  1  0  0  0  0
 32 31  2  0  0  0  0
 33 27  1  0  0  0  0
 34 29  1  0  0  0  0
M  END
>  <minimizedAffinity>
-4.22621965

>  <minimizedRMSD>
0.220896736

$$$$
