
 OpenBabel03242511013D

 49 53  0  0  0  0  0  0  0  0999 V2000
   44.4430   25.6790   48.1060 C   0  0  0  0  0  0  0  0  0  0  0  0
   44.2980   25.2190   49.1030 H   0  0  0  0  0  0  0  0  0  0  0  0
   45.4150   25.3530   47.7480 H   0  0  0  0  0  0  0  0  0  0  0  0
   44.9230   23.1170   46.6930 Cl  0  0  0  0  0  0  0  0  0  0  0  0
   43.5020   24.1340   46.4810 C   0  0  0  0  0  0  0  0  0  0  0  0
   43.3430   25.3190   47.1730 C   0  0  0  0  0  0  0  0  0  0  0  0
   42.2300   26.1150   47.0070 C   0  0  0  0  0  0  0  0  0  0  0  0
   41.2280   25.7110   46.1070 C   0  0  0  0  0  0  0  0  0  0  0  0
   41.4000   24.5230   45.4200 C   0  0  0  0  0  0  0  0  0  0  0  0
   42.5260   23.7300   45.5980 C   0  0  0  0  0  0  0  0  0  0  0  0
   42.1220   27.0300   47.5510 H   0  0  0  0  0  0  0  0  0  0  0  0
   40.3580   26.3410   45.9820 H   0  0  0  0  0  0  0  0  0  0  0  0
   40.6310   24.1980   44.7190 H   0  0  0  0  0  0  0  0  0  0  0  0
   43.3230   22.2800   43.6570 C   0  0  0  0  0  0  0  0  0  0  0  0
   42.6300   22.4900   44.8330 C   0  0  0  0  0  0  0  0  0  0  0  0
   41.9290   21.4150   45.3960 C   0  0  0  0  0  0  0  0  0  0  0  0
   41.3570   21.5120   46.3310 H   0  0  0  0  0  0  0  0  0  0  0  0
   41.9190   20.1560   44.8000 C   0  0  0  0  0  0  0  0  0  0  0  0
   41.3560   18.9730   45.0980 N   0  0  0  0  0  0  0  0  0  0  0  0
   41.6910   18.0820   44.1470 C   0  0  0  0  0  0  0  0  0  0  0  0
   41.4360   17.0190   44.0240 H   0  0  0  0  0  0  0  0  0  0  0  0
   42.4640   18.7030   43.2490 N   0  0  0  0  0  0  0  0  0  0  0  0
   42.6240   19.9880   43.6250 C   0  0  0  0  0  0  0  0  0  0  0  0
   43.3200   21.0390   43.0590 C   0  0  0  0  0  0  0  0  0  0  0  0
   40.7630   18.7590   45.9120 H   0  0  0  0  0  0  0  0  0  0  0  0
   45.4450   27.9370   47.6580 C   0  0  0  0  0  0  0  0  0  0  0  0
   44.5710   27.1660   48.2470 C   0  0  0  0  0  0  0  0  0  0  0  0
   45.6580   31.5590   47.0630 C   0  0  0  0  0  0  0  0  0  0  0  0
   45.4240   32.0190   48.3680 C   0  0  0  0  0  0  0  0  0  0  0  0
   45.1980   31.1810   49.4430 C   0  0  0  0  0  0  0  0  0  0  0  0
   45.2070   29.8300   49.1930 C   0  0  0  0  0  0  0  0  0  0  0  0
   45.4380   29.3690   47.9000 C   0  0  0  0  0  0  0  0  0  0  0  0
   45.6510   30.2300   46.9040 N   0  0  0  0  0  0  0  0  0  0  0  0
   45.4170   33.0880   48.5630 H   0  0  0  0  0  0  0  0  0  0  0  0
   45.0260   31.6120   50.4170 H   0  0  0  0  0  0  0  0  0  0  0  0
   45.0280   29.1910   50.0460 H   0  0  0  0  0  0  0  0  0  0  0  0
   44.7580   36.5980   43.8650 C   0  0  0  0  0  0  0  0  0  0  0  0
   45.6530   36.3210   42.8170 C   0  0  0  0  0  0  0  0  0  0  0  0
   46.3080   35.0880   42.8370 C   0  0  0  0  0  0  0  0  0  0  0  0
   46.0730   34.2020   43.8450 N   0  0  0  0  0  0  0  0  0  0  0  0
   45.1920   34.5270   44.8370 C   0  0  0  0  0  0  0  0  0  0  0  0
   44.5410   35.7220   44.8420 N   0  0  0  0  0  0  0  0  0  0  0  0
   45.8870   32.5230   45.9930 C   0  0  0  0  0  0  0  0  0  0  0  0
   46.8860   32.3450   45.2410 O   0  0  0  0  0  0  0  0  0  0  0  0
   44.9500   33.5940   45.8910 N   0  0  0  0  0  0  0  0  0  0  0  0
   44.1980   37.5170   43.9530 H   0  0  0  0  0  0  0  0  0  0  0  0
   45.7860   37.0690   42.0590 H   0  0  0  0  0  0  0  0  0  0  0  0
   46.9970   34.8630   42.0380 H   0  0  0  0  0  0  0  0  0  0  0  0
   44.1290   33.7350   46.5140 H   0  0  0  0  0  0  0  0  0  0  0  0
  1 27  1  0  0  0  0
  1  2  1  0  0  0  0
  3  1  1  0  0  0  0
  5  4  1  0  0  0  0
  5  6  1  0  0  0  0
  6  1  1  0  0  0  0
  7  6  2  0  0  0  0
  7 11  1  0  0  0  0
  8  7  1  0  0  0  0
  9 10  1  0  0  0  0
  9  8  2  0  0  0  0
 10  5  2  0  0  0  0
 12  8  1  0  0  0  0
 13  9  1  0  0  0  0
 14 15  1  0  0  0  0
 15 16  2  0  0  0  0
 15 10  1  0  0  0  0
 16 17  1  0  0  0  0
 18 19  1  0  0  0  0
 18 16  1  0  0  0  0
 19 25  1  0  0  0  0
 20 19  1  0  0  0  0
 21 20  1  0  0  0  0
 22 23  1  0  0  0  0
 22 20  2  0  0  0  0
 23 18  2  0  0  0  0
 24 23  1  0  0  0  0
 24 14  2  0  0  0  0
 26 32  1  0  0  0  0
 26 27  2  0  0  0  0
 28 29  1  0  0  0  0
 29 34  1  0  0  0  0
 29 30  2  0  0  0  0
 30 35  1  0  0  0  0
 31 30  1  0  0  0  0
 31 36  1  0  0  0  0
 32 31  2  0  0  0  0
 33 28  2  0  0  0  0
 33 32  1  0  0  0  0
 37 46  1  0  0  0  0
 37 42  1  0  0  0  0
 38 39  1  0  0  0  0
 38 37  2  0  0  0  0
 39 40  2  0  0  0  0
 40 41  1  0  0  0  0
 41 42  2  0  0  0  0
 41 45  1  0  0  0  0
 43 28  1  0  0  0  0
 44 43  2  0  0  0  0
 45 43  1  0  0  0  0
 45 49  1  0  0  0  0
 47 38  1  0  0  0  0
 48 39  1  0  0  0  0
M  END
>  <minimizedAffinity>
-6.35615921

>  <minimizedRMSD>
1.03337979

$$$$
