
 OpenBabel03242516003D

 31 34  0  0  0  0  0  0  0  0999 V2000
   44.9740   33.0390   41.0880 Cl  0  0  0  0  0  0  0  0  0  0  0  0
   46.4610   33.9470   40.9030 C   0  0  0  0  0  0  0  0  0  0  0  0
   46.9140   34.7660   41.8910 C   0  0  0  0  0  0  0  0  0  0  0  0
   48.0870   35.4290   41.6430 C   0  0  0  0  0  0  0  0  0  0  0  0
   48.7900   35.3020   40.4830 C   0  0  0  0  0  0  0  0  0  0  0  0
   48.3240   34.4710   39.4880 C   0  0  0  0  0  0  0  0  0  0  0  0
   47.1440   33.7930   39.7170 C   0  0  0  0  0  0  0  0  0  0  0  0
   48.4710   36.0910   42.4210 H   0  0  0  0  0  0  0  0  0  0  0  0
   49.7070   35.8620   40.3690 H   0  0  0  0  0  0  0  0  0  0  0  0
   48.9010   34.4000   38.5990 H   0  0  0  0  0  0  0  0  0  0  0  0
   46.7160   31.5510   38.6320 C   0  0  0  0  0  3  0  0  0  0  0  0
   46.7040   32.9310   38.6270 C   0  0  0  0  0  0  0  0  0  0  0  0
   46.2240   33.5400   37.4620 C   0  0  0  0  0  0  0  0  0  0  0  0
   46.1650   34.6250   37.3350 H   0  0  0  0  0  0  0  0  0  0  0  0
   45.7860   32.8260   36.3780 C   0  0  0  0  0  0  0  0  0  0  0  0
   45.2860   33.0950   35.1580 N   0  0  0  0  0  0  0  0  0  0  0  0
   45.0110   31.9890   34.4670 C   0  0  0  0  0  0  0  0  0  0  0  0
   44.6110   31.8030   33.4880 H   0  0  0  0  0  0  0  0  0  0  0  0
   45.3460   30.9380   35.2710 N   0  0  0  0  0  0  0  0  0  0  0  0
   45.8130   31.4500   36.4230 C   0  0  0  0  0  0  0  0  0  0  0  0
   46.2790   30.8150   37.5520 C   0  0  0  0  0  3  0  0  0  0  0  0
   45.1240   34.0540   34.7790 H   0  0  0  0  0  0  0  0  0  0  0  0
   44.4800   35.9850   44.5310 C   0  0  0  0  0  0  0  0  0  0  0  0
   45.2120   35.8990   43.3400 C   0  0  0  0  0  0  0  0  0  0  0  0
   46.1450   34.8800   43.1110 C   0  0  0  0  0  0  0  0  0  0  0  0
   46.2880   33.9890   44.1260 N   0  0  0  0  0  0  0  0  0  0  0  0
   45.5770   34.0840   45.2670 C   0  0  0  0  0  0  0  0  0  0  0  0
   44.6880   35.0590   45.4780 N   0  0  0  0  0  0  0  0  0  0  0  0
   43.7890   36.8220   44.5800 H   0  0  0  0  0  0  0  0  0  0  0  0
   45.0960   36.6070   42.5370 H   0  0  0  0  0  0  0  0  0  0  0  0
   45.7340   33.3330   46.0570 H   0  0  0  0  0  0  0  0  0  0  0  0
  2  1  1  0  0  0  0
  2  3  1  0  0  0  0
  3 25  1  0  0  0  0
  4  3  2  0  0  0  0
  4  8  1  0  0  0  0
  5  4  1  0  0  0  0
  6  7  1  0  0  0  0
  6  5  2  0  0  0  0
  7  2  2  0  0  0  0
  9  5  1  0  0  0  0
 10  6  1  0  0  0  0
 12 11  1  0  0  0  0
 12  7  1  0  0  0  0
 13 12  2  0  0  0  0
 14 13  1  0  0  0  0
 15 20  2  0  0  0  0
 15 13  1  0  0  0  0
 16 15  1  0  0  0  0
 17 16  1  0  0  0  0
 17 19  2  0  0  0  0
 18 17  1  0  0  0  0
 19 20  1  0  0  0  0
 20 21  1  0  0  0  0
 21 11  2  0  0  0  0
 22 16  1  0  0  0  0
 23 29  1  0  0  0  0
 23 28  1  0  0  0  0
 24 23  2  0  0  0  0
 25 24  1  0  0  0  0
 25 26  2  0  0  0  0
 26 27  1  0  0  0  0
 27 28  2  0  0  0  0
 27 31  1  0  0  0  0
 30 24  1  0  0  0  0
M  END
>  <minimizedAffinity>
-6.47914219

>  <minimizedRMSD>
0.422924072

$$$$
