
 OpenBabel03252504503D

 27 29  0  0  0  0  0  0  0  0999 V2000
   37.5710   26.5850   40.6710 C   0  0  0  0  0  0  0  0  0  0  0  0
   37.1480   26.1690   41.9500 C   0  0  0  0  0  0  0  0  0  0  0  0
   36.9370   27.1560   42.9160 C   0  0  0  0  0  0  0  0  0  0  0  0
   37.1540   28.4520   42.5630 N   0  0  0  0  0  0  0  0  0  0  0  0
   37.5570   28.8020   41.3350 C   0  0  0  0  0  0  0  0  0  0  0  0
   37.7690   27.8650   40.3730 N   0  0  0  0  0  0  0  0  0  0  0  0
   37.7370   25.8270   39.9140 H   0  0  0  0  0  0  0  0  0  0  0  0
   36.6170   26.8740   43.8970 H   0  0  0  0  0  0  0  0  0  0  0  0
   36.7880   30.8890   40.2880 C   0  0  0  0  0  3  0  0  0  0  0  0
   37.7860   30.2130   40.9720 C   0  0  0  0  0  0  0  0  0  0  0  0
   38.9810   30.8560   41.3070 C   0  0  0  0  0  0  0  0  0  0  0  0
   39.7230   30.2610   41.8450 H   0  0  0  0  0  0  0  0  0  0  0  0
   39.1460   32.1810   40.9410 C   0  0  0  0  0  0  0  0  0  0  0  0
   40.2000   32.9910   41.1570 N   0  0  0  0  0  0  0  0  0  0  0  0
   39.8620   34.1610   40.6130 C   0  0  0  0  0  0  0  0  0  0  0  0
   40.4520   35.0790   40.5790 H   0  0  0  0  0  0  0  0  0  0  0  0
   38.6420   34.0680   40.0830 N   0  0  0  0  0  0  0  0  0  0  0  0
   38.1350   32.8300   40.2610 C   0  0  0  0  0  0  0  0  0  0  0  0
   36.9460   32.2240   39.9170 C   0  0  0  0  0  3  0  0  0  0  0  0
   41.1010   32.7720   41.6430 H   0  0  0  0  0  0  0  0  0  0  0  0
   36.9500   24.7430   42.2070 C   0  0  0  0  0  0  0  0  0  0  0  0
   37.7990   24.2330   42.6680 H   0  0  0  0  0  0  0  0  0  0  0  0
   36.0650   24.6050   42.8560 H   0  0  0  0  0  0  0  0  0  0  0  0
   36.5840   24.0780   40.8720 C   0  0  0  0  0  0  0  0  0  0  0  0
   37.5470   23.7120   40.4410 H   0  0  0  0  0  0  0  0  0  0  0  0
   35.8940   23.2440   41.0650 H   0  0  0  0  0  0  0  0  0  0  0  0
   36.0680   24.8260   40.2700 H   0  0  0  0  0  0  0  0  0  0  0  0
  1  2  1  0  0  0  0
  2 21  1  0  0  0  0
  2  3  2  0  0  0  0
  3  8  1  0  0  0  0
  4  3  1  0  0  0  0
  5  4  2  0  0  0  0
  6  1  2  0  0  0  0
  6  5  1  0  0  0  0
  7  1  1  0  0  0  0
  9 10  1  0  0  0  0
 10 11  2  0  0  0  0
 10  5  1  0  0  0  0
 11 12  1  0  0  0  0
 13 14  1  0  0  0  0
 13 11  1  0  0  0  0
 14 20  1  0  0  0  0
 15 14  1  0  0  0  0
 16 15  1  0  0  0  0
 17 18  1  0  0  0  0
 17 15  2  0  0  0  0
 18 13  2  0  0  0  0
 19 18  1  0  0  0  0
 19  9  2  0  0  0  0
 21 22  1  0  0  0  0
 21 23  1  0  0  0  0
 24 26  1  0  0  0  0
 24 21  1  0  0  0  0
 25 24  1  0  0  0  0
 27 24  1  0  0  0  0
M  END
>  <minimizedAffinity>
-5.17924595

$$$$

 OpenBabel03252504503D

 27 29  0  0  0  0  0  0  0  0999 V2000
   37.9570   26.3090   40.8220 C   0  0  0  0  0  0  0  0  0  0  0  0
   37.2660   25.8580   41.9650 C   0  0  0  0  0  0  0  0  0  0  0  0
   36.9020   26.8090   42.9200 C   0  0  0  0  0  0  0  0  0  0  0  0
   37.2370   28.1080   42.6890 N   0  0  0  0  0  0  0  0  0  0  0  0
   37.8950   28.4920   41.5890 C   0  0  0  0  0  0  0  0  0  0  0  0
   38.2620   27.5900   40.6410 N   0  0  0  0  0  0  0  0  0  0  0  0
   38.2430   25.5790   40.0740 H   0  0  0  0  0  0  0  0  0  0  0  0
   36.3770   26.5000   43.8000 H   0  0  0  0  0  0  0  0  0  0  0  0
   39.4950   30.3500   41.7680 C   0  0  0  0  0  3  0  0  0  0  0  0
   38.2490   29.9050   41.3560 C   0  0  0  0  0  0  0  0  0  0  0  0
   37.3510   30.7780   40.7360 C   0  0  0  0  0  0  0  0  0  0  0  0
   36.3870   30.3580   40.4380 H   0  0  0  0  0  0  0  0  0  0  0  0
   37.7330   32.0950   40.5420 C   0  0  0  0  0  0  0  0  0  0  0  0
   37.0390   33.0990   39.9730 N   0  0  0  0  0  0  0  0  0  0  0  0
   37.8460   34.1600   40.0290 C   0  0  0  0  0  0  0  0  0  0  0  0
   37.6480   35.1720   39.6700 H   0  0  0  0  0  0  0  0  0  0  0  0
   38.9940   33.8140   40.6130 N   0  0  0  0  0  0  0  0  0  0  0  0
   38.9810   32.5100   40.9620 C   0  0  0  0  0  0  0  0  0  0  0  0
   39.8880   31.6740   41.5760 C   0  0  0  0  0  3  0  0  0  0  0  0
   36.0740   33.0760   39.5670 H   0  0  0  0  0  0  0  0  0  0  0  0
   36.9630   24.4340   42.0990 C   0  0  0  0  0  0  0  0  0  0  0  0
   37.7750   23.8230   42.5000 H   0  0  0  0  0  0  0  0  0  0  0  0
   36.0760   24.3050   42.7470 H   0  0  0  0  0  0  0  0  0  0  0  0
   36.5350   23.9190   40.7170 C   0  0  0  0  0  0  0  0  0  0  0  0
   37.4640   23.5220   40.2400 H   0  0  0  0  0  0  0  0  0  0  0  0
   35.7860   23.1240   40.8470 H   0  0  0  0  0  0  0  0  0  0  0  0
   36.0720   24.7530   40.1910 H   0  0  0  0  0  0  0  0  0  0  0  0
  1  2  1  0  0  0  0
  2 21  1  0  0  0  0
  2  3  2  0  0  0  0
  3  8  1  0  0  0  0
  4  3  1  0  0  0  0
  5  4  2  0  0  0  0
  6  1  2  0  0  0  0
  6  5  1  0  0  0  0
  7  1  1  0  0  0  0
 10  5  1  0  0  0  0
 10  9  2  0  0  0  0
 11 10  1  0  0  0  0
 12 11  1  0  0  0  0
 13 11  2  0  0  0  0
 13 18  1  0  0  0  0
 14 15  1  0  0  0  0
 14 13  1  0  0  0  0
 15 17  2  0  0  0  0
 16 15  1  0  0  0  0
 17 18  1  0  0  0  0
 18 19  2  0  0  0  0
 19  9  1  0  0  0  0
 20 14  1  0  0  0  0
 21 22  1  0  0  0  0
 21 23  1  0  0  0  0
 24 26  1  0  0  0  0
 24 21  1  0  0  0  0
 25 24  1  0  0  0  0
 27 24  1  0  0  0  0
M  END
>  <minimizedAffinity>
-5.16807413

$$$$

 OpenBabel03252504503D

 27 29  0  0  0  0  0  0  0  0999 V2000
   36.4750   31.2010   40.6550 C   0  0  0  0  0  0  0  0  0  0  0  0
   37.5110   31.9510   40.0640 C   0  0  0  0  0  0  0  0  0  0  0  0
   38.7460   31.3220   39.8860 C   0  0  0  0  0  0  0  0  0  0  0  0
   38.8700   30.0310   40.2940 N   0  0  0  0  0  0  0  0  0  0  0  0
   37.8580   29.3560   40.8520 C   0  0  0  0  0  0  0  0  0  0  0  0
   36.6440   29.9400   41.0370 N   0  0  0  0  0  0  0  0  0  0  0  0
   35.5120   31.6790   40.7970 H   0  0  0  0  0  0  0  0  0  0  0  0
   39.5550   31.8640   39.4410 H   0  0  0  0  0  0  0  0  0  0  0  0
   36.9810   27.0660   41.0300 C   0  0  0  0  0  3  0  0  0  0  0  0
   38.0120   27.9550   41.2880 C   0  0  0  0  0  0  0  0  0  0  0  0
   39.1690   27.5310   41.9480 C   0  0  0  0  0  0  0  0  0  0  0  0
   39.9400   28.2860   42.1180 H   0  0  0  0  0  0  0  0  0  0  0  0
   39.2630   26.2060   42.3360 C   0  0  0  0  0  0  0  0  0  0  0  0
   40.2720   25.5840   42.9760 N   0  0  0  0  0  0  0  0  0  0  0  0
   39.8740   24.3180   43.1140 C   0  0  0  0  0  0  0  0  0  0  0  0
   40.4130   23.4940   43.5850 H   0  0  0  0  0  0  0  0  0  0  0  0
   38.6610   24.1730   42.5770 N   0  0  0  0  0  0  0  0  0  0  0  0
   38.2210   25.3420   42.0650 C   0  0  0  0  0  0  0  0  0  0  0  0
   37.0680   25.7290   41.4170 C   0  0  0  0  0  3  0  0  0  0  0  0
   41.1820   25.9850   43.3040 H   0  0  0  0  0  0  0  0  0  0  0  0
   37.2540   33.3340   39.6670 C   0  0  0  0  0  0  0  0  0  0  0  0
   37.0040   33.4750   38.6130 H   0  0  0  0  0  0  0  0  0  0  0  0
   36.4320   33.7480   40.2790 H   0  0  0  0  0  0  0  0  0  0  0  0
   38.4940   34.1610   40.0390 C   0  0  0  0  0  0  0  0  0  0  0  0
   39.1350   34.1760   39.1240 H   0  0  0  0  0  0  0  0  0  0  0  0
   38.1770   35.1770   40.3180 H   0  0  0  0  0  0  0  0  0  0  0  0
   38.9480   33.6860   40.9080 H   0  0  0  0  0  0  0  0  0  0  0  0
  1  7  1  0  0  0  0
  1  6  1  0  0  0  0
  2  1  2  0  0  0  0
  3  2  1  0  0  0  0
  3  4  2  0  0  0  0
  4  5  1  0  0  0  0
  5  6  2  0  0  0  0
  5 10  1  0  0  0  0
  8  3  1  0  0  0  0
  9 10  2  0  0  0  0
  9 19  1  0  0  0  0
 10 11  1  0  0  0  0
 11 12  1  0  0  0  0
 11 13  2  0  0  0  0
 13 14  1  0  0  0  0
 14 15  1  0  0  0  0
 14 20  1  0  0  0  0
 15 16  1  0  0  0  0
 17 15  2  0  0  0  0
 18 13  1  0  0  0  0
 18 17  1  0  0  0  0
 19 18  2  0  0  0  0
 21 24  1  0  0  0  0
 21  2  1  0  0  0  0
 21 23  1  0  0  0  0
 22 21  1  0  0  0  0
 24 26  1  0  0  0  0
 24 27  1  0  0  0  0
 25 24  1  0  0  0  0
M  END
>  <minimizedAffinity>
-4.62773561

$$$$

 OpenBabel03252504503D

 27 29  0  0  0  0  0  0  0  0999 V2000
   33.5680   29.3000   35.1370 C   0  0  0  0  0  0  0  0  0  0  0  0
   32.2470   29.7250   35.3820 C   0  0  0  0  0  0  0  0  0  0  0  0
   31.7930   29.7000   36.7040 C   0  0  0  0  0  0  0  0  0  0  0  0
   32.6520   29.2690   37.6660 N   0  0  0  0  0  0  0  0  0  0  0  0
   33.9000   28.8730   37.3870 C   0  0  0  0  0  0  0  0  0  0  0  0
   34.3710   28.8860   36.1110 N   0  0  0  0  0  0  0  0  0  0  0  0
   33.9300   29.3160   34.1150 H   0  0  0  0  0  0  0  0  0  0  0  0
   30.7950   30.0160   36.9240 H   0  0  0  0  0  0  0  0  0  0  0  0
   35.5330   27.2410   38.2320 C   0  0  0  0  0  3  0  0  0  0  0  0
   34.8170   28.4080   38.4450 C   0  0  0  0  0  0  0  0  0  0  0  0
   34.9620   29.1250   39.6360 C   0  0  0  0  0  0  0  0  0  0  0  0
   34.3650   30.0350   39.7350 H   0  0  0  0  0  0  0  0  0  0  0  0
   35.8340   28.6450   40.5970 C   0  0  0  0  0  0  0  0  0  0  0  0
   36.1300   29.1650   41.8040 N   0  0  0  0  0  0  0  0  0  0  0  0
   37.0220   28.3300   42.3380 C   0  0  0  0  0  0  0  0  0  0  0  0
   37.5080   28.4030   43.3130 H   0  0  0  0  0  0  0  0  0  0  0  0
   37.2630   27.3330   41.4850 N   0  0  0  0  0  0  0  0  0  0  0  0
   36.5360   27.4800   40.3580 C   0  0  0  0  0  0  0  0  0  0  0  0
   36.4160   26.7510   39.1950 C   0  0  0  0  0  3  0  0  0  0  0  0
   35.7520   30.0350   42.2490 H   0  0  0  0  0  0  0  0  0  0  0  0
   31.4190   30.1670   34.2610 C   0  0  0  0  0  0  0  0  0  0  0  0
   31.7460   29.8220   33.2780 H   0  0  0  0  0  0  0  0  0  0  0  0
   30.3760   29.8350   34.4190 H   0  0  0  0  0  0  0  0  0  0  0  0
   31.3680   31.7020   34.3010 C   0  0  0  0  0  0  0  0  0  0  0  0
   32.1930   32.0500   33.6330 H   0  0  0  0  0  0  0  0  0  0  0  0
   30.3890   32.0370   33.9290 H   0  0  0  0  0  0  0  0  0  0  0  0
   31.4670   32.0010   35.3440 H   0  0  0  0  0  0  0  0  0  0  0  0
  1  2  2  0  0  0  0
  1  6  1  0  0  0  0
  2  3  1  0  0  0  0
  3  8  1  0  0  0  0
  3  4  2  0  0  0  0
  5  4  1  0  0  0  0
  5 10  1  0  0  0  0
  6  5  2  0  0  0  0
  7  1  1  0  0  0  0
  9 10  2  0  0  0  0
  9 19  1  0  0  0  0
 10 11  1  0  0  0  0
 11 12  1  0  0  0  0
 11 13  2  0  0  0  0
 13 14  1  0  0  0  0
 14 20  1  0  0  0  0
 14 15  1  0  0  0  0
 15 16  1  0  0  0  0
 17 15  2  0  0  0  0
 18 13  1  0  0  0  0
 18 17  1  0  0  0  0
 19 18  2  0  0  0  0
 21 24  1  0  0  0  0
 21 23  1  0  0  0  0
 21  2  1  0  0  0  0
 22 21  1  0  0  0  0
 24 27  1  0  0  0  0
 25 24  1  0  0  0  0
 26 24  1  0  0  0  0
M  END
>  <minimizedAffinity>
-4.46480608

$$$$

 OpenBabel03252504503D

 27 29  0  0  0  0  0  0  0  0999 V2000
   35.1000   29.0760   36.2520 C   0  0  0  0  0  0  0  0  0  0  0  0
   33.6960   28.9620   36.1980 C   0  0  0  0  0  0  0  0  0  0  0  0
   33.0020   28.9160   37.4100 C   0  0  0  0  0  0  0  0  0  0  0  0
   33.7230   28.9840   38.5620 N   0  0  0  0  0  0  0  0  0  0  0  0
   35.0580   29.0910   38.5660 C   0  0  0  0  0  0  0  0  0  0  0  0
   35.7610   29.1390   37.4030 N   0  0  0  0  0  0  0  0  0  0  0  0
   35.6480   29.1130   35.3170 H   0  0  0  0  0  0  0  0  0  0  0  0
   31.9360   28.8290   37.4040 H   0  0  0  0  0  0  0  0  0  0  0  0
   36.2130   30.4080   40.2910 C   0  0  0  0  0  3  0  0  0  0  0  0
   35.8220   29.1630   39.8260 C   0  0  0  0  0  0  0  0  0  0  0  0
   36.1450   28.0040   40.5370 C   0  0  0  0  0  0  0  0  0  0  0  0
   35.8040   27.0580   40.1110 H   0  0  0  0  0  0  0  0  0  0  0  0
   36.8650   28.1270   41.7130 C   0  0  0  0  0  0  0  0  0  0  0  0
   37.2820   27.1590   42.5520 N   0  0  0  0  0  0  0  0  0  0  0  0
   37.9270   27.7960   43.5300 C   0  0  0  0  0  0  0  0  0  0  0  0
   38.4140   27.3610   44.4050 H   0  0  0  0  0  0  0  0  0  0  0  0
   37.9040   29.1090   43.2960 N   0  0  0  0  0  0  0  0  0  0  0  0
   37.2410   29.3800   42.1530 C   0  0  0  0  0  0  0  0  0  0  0  0
   36.9370   30.5410   41.4750 C   0  0  0  0  0  3  0  0  0  0  0  0
   37.1420   26.1240   42.4740 H   0  0  0  0  0  0  0  0  0  0  0  0
   33.0350   28.8980   34.8950 C   0  0  0  0  0  0  0  0  0  0  0  0
   33.7070   28.8530   34.0360 H   0  0  0  0  0  0  0  0  0  0  0  0
   32.3670   28.0180   34.8640 H   0  0  0  0  0  0  0  0  0  0  0  0
   32.1070   30.1170   34.7870 C   0  0  0  0  0  0  0  0  0  0  0  0
   32.7050   30.9100   34.2760 H   0  0  0  0  0  0  0  0  0  0  0  0
   31.2230   29.8430   34.1930 H   0  0  0  0  0  0  0  0  0  0  0  0
   31.7850   30.3680   35.7980 H   0  0  0  0  0  0  0  0  0  0  0  0
  1  6  1  0  0  0  0
  2  1  2  0  0  0  0
  2  3  1  0  0  0  0
  3  4  2  0  0  0  0
  4  5  1  0  0  0  0
  5 10  1  0  0  0  0
  6  5  2  0  0  0  0
  7  1  1  0  0  0  0
  8  3  1  0  0  0  0
  9 19  1  0  0  0  0
 10  9  2  0  0  0  0
 10 11  1  0  0  0  0
 11 13  2  0  0  0  0
 12 11  1  0  0  0  0
 13 18  1  0  0  0  0
 13 14  1  0  0  0  0
 14 15  1  0  0  0  0
 15 16  1  0  0  0  0
 17 15  2  0  0  0  0
 18 17  1  0  0  0  0
 19 18  2  0  0  0  0
 20 14  1  0  0  0  0
 21  2  1  0  0  0  0
 22 21  1  0  0  0  0
 23 21  1  0  0  0  0
 24 21  1  0  0  0  0
 24 27  1  0  0  0  0
 25 24  1  0  0  0  0
 26 24  1  0  0  0  0
M  END
>  <minimizedAffinity>
-4.44090557

$$$$

 OpenBabel03252504503D

 27 29  0  0  0  0  0  0  0  0999 V2000
   40.5970   31.7980   40.9430 C   0  0  0  0  0  0  0  0  0  0  0  0
   39.7760   32.8880   40.5870 C   0  0  0  0  0  0  0  0  0  0  0  0
   38.3930   32.6890   40.6000 C   0  0  0  0  0  0  0  0  0  0  0  0
   37.9270   31.4600   40.9520 N   0  0  0  0  0  0  0  0  0  0  0  0
   38.7440   30.4530   41.2830 C   0  0  0  0  0  0  0  0  0  0  0  0
   40.0940   30.6150   41.2810 N   0  0  0  0  0  0  0  0  0  0  0  0
   41.6710   31.9420   40.9370 H   0  0  0  0  0  0  0  0  0  0  0  0
   37.7420   33.4950   40.3340 H   0  0  0  0  0  0  0  0  0  0  0  0
   37.6300   28.9830   42.9090 C   0  0  0  0  0  3  0  0  0  0  0  0
   38.2200   29.1270   41.6630 C   0  0  0  0  0  0  0  0  0  0  0  0
   38.3140   28.0400   40.7900 C   0  0  0  0  0  0  0  0  0  0  0  0
   38.7920   28.2270   39.8250 H   0  0  0  0  0  0  0  0  0  0  0  0
   37.8070   26.8170   41.1960 C   0  0  0  0  0  0  0  0  0  0  0  0
   37.7880   25.6480   40.5280 N   0  0  0  0  0  0  0  0  0  0  0  0
   37.1920   24.7830   41.3500 C   0  0  0  0  0  0  0  0  0  0  0  0
   36.9850   23.7260   41.1740 H   0  0  0  0  0  0  0  0  0  0  0  0
   36.8580   25.4050   42.4820 N   0  0  0  0  0  0  0  0  0  0  0  0
   37.2240   26.7030   42.4420 C   0  0  0  0  0  0  0  0  0  0  0  0
   37.1160   27.7560   43.3250 C   0  0  0  0  0  3  0  0  0  0  0  0
   38.1560   25.4390   39.5700 H   0  0  0  0  0  0  0  0  0  0  0  0
   40.3970   34.1610   40.2260 C   0  0  0  0  0  0  0  0  0  0  0  0
   39.9080   34.7010   39.4130 H   0  0  0  0  0  0  0  0  0  0  0  0
   40.4300   34.8200   41.1130 H   0  0  0  0  0  0  0  0  0  0  0  0
   41.8650   33.8770   39.8760 C   0  0  0  0  0  0  0  0  0  0  0  0
   41.8890   33.7250   38.7690 H   0  0  0  0  0  0  0  0  0  0  0  0
   42.4770   34.7420   40.1690 H   0  0  0  0  0  0  0  0  0  0  0  0
   42.1760   33.0140   40.4630 H   0  0  0  0  0  0  0  0  0  0  0  0
  1  6  1  0  0  0  0
  2  3  1  0  0  0  0
  2  1  2  0  0  0  0
  3  4  2  0  0  0  0
  4  5  1  0  0  0  0
  5 10  1  0  0  0  0
  6  5  2  0  0  0  0
  7  1  1  0  0  0  0
  8  3  1  0  0  0  0
  9 19  1  0  0  0  0
 10  9  2  0  0  0  0
 11 13  2  0  0  0  0
 11 10  1  0  0  0  0
 12 11  1  0  0  0  0
 13 18  1  0  0  0  0
 14 13  1  0  0  0  0
 14 15  1  0  0  0  0
 15 17  2  0  0  0  0
 16 15  1  0  0  0  0
 18 17  1  0  0  0  0
 18 19  2  0  0  0  0
 20 14  1  0  0  0  0
 21  2  1  0  0  0  0
 21 23  1  0  0  0  0
 22 21  1  0  0  0  0
 24 26  1  0  0  0  0
 24 21  1  0  0  0  0
 24 27  1  0  0  0  0
 25 24  1  0  0  0  0
M  END
>  <minimizedAffinity>
-4.30064201

$$$$

 OpenBabel03252504503D

 27 29  0  0  0  0  0  0  0  0999 V2000
   39.0240   30.3740   40.4320 C   0  0  0  0  0  0  0  0  0  0  0  0
   37.9060   31.1920   40.6930 C   0  0  0  0  0  0  0  0  0  0  0  0
   36.7080   30.5610   41.0410 C   0  0  0  0  0  0  0  0  0  0  0  0
   36.6970   29.2020   41.1030 N   0  0  0  0  0  0  0  0  0  0  0  0
   37.7840   28.4640   40.8460 C   0  0  0  0  0  0  0  0  0  0  0  0
   38.9640   29.0490   40.5070 N   0  0  0  0  0  0  0  0  0  0  0  0
   39.9580   30.8540   40.1620 H   0  0  0  0  0  0  0  0  0  0  0  0
   35.8400   31.1520   41.2450 H   0  0  0  0  0  0  0  0  0  0  0  0
   37.0970   26.3980   41.9860 C   0  0  0  0  0  3  0  0  0  0  0  0
   37.7520   26.9910   40.9190 C   0  0  0  0  0  0  0  0  0  0  0  0
   38.3680   26.2090   39.9380 C   0  0  0  0  0  0  0  0  0  0  0  0
   38.8660   26.7450   39.1270 H   0  0  0  0  0  0  0  0  0  0  0  0
   38.3090   24.8310   40.0550 C   0  0  0  0  0  0  0  0  0  0  0  0
   38.8240   23.8920   39.2370 N   0  0  0  0  0  0  0  0  0  0  0  0
   38.4920   22.7250   39.7900 C   0  0  0  0  0  0  0  0  0  0  0  0
   38.7260   21.7220   39.4280 H   0  0  0  0  0  0  0  0  0  0  0  0
   37.7970   22.9440   40.9080 N   0  0  0  0  0  0  0  0  0  0  0  0
   37.6490   24.2670   41.1280 C   0  0  0  0  0  0  0  0  0  0  0  0
   37.0320   25.0100   42.1110 C   0  0  0  0  0  3  0  0  0  0  0  0
   39.3700   24.0260   38.3540 H   0  0  0  0  0  0  0  0  0  0  0  0
   38.0440   32.6440   40.5930 C   0  0  0  0  0  0  0  0  0  0  0  0
   37.7380   33.2010   41.4810 H   0  0  0  0  0  0  0  0  0  0  0  0
   39.0950   32.9000   40.3640 H   0  0  0  0  0  0  0  0  0  0  0  0
   37.2380   33.1020   39.3680 C   0  0  0  0  0  0  0  0  0  0  0  0
   36.2270   33.3760   39.7560 H   0  0  0  0  0  0  0  0  0  0  0  0
   37.7380   33.9700   38.9150 H   0  0  0  0  0  0  0  0  0  0  0  0
   37.2460   32.2810   38.6520 H   0  0  0  0  0  0  0  0  0  0  0  0
  1  6  2  0  0  0  0
  1  2  1  0  0  0  0
  2  3  2  0  0  0  0
  3  4  1  0  0  0  0
  3  8  1  0  0  0  0
  5 10  1  0  0  0  0
  5  4  2  0  0  0  0
  6  5  1  0  0  0  0
  7  1  1  0  0  0  0
  9 19  1  0  0  0  0
 10  9  2  0  0  0  0
 11 13  2  0  0  0  0
 11 10  1  0  0  0  0
 12 11  1  0  0  0  0
 13 18  1  0  0  0  0
 14 15  1  0  0  0  0
 14 13  1  0  0  0  0
 15 17  2  0  0  0  0
 16 15  1  0  0  0  0
 17 18  1  0  0  0  0
 18 19  2  0  0  0  0
 20 14  1  0  0  0  0
 21  2  1  0  0  0  0
 21 22  1  0  0  0  0
 23 21  1  0  0  0  0
 24 25  1  0  0  0  0
 24 21  1  0  0  0  0
 26 24  1  0  0  0  0
 27 24  1  0  0  0  0
M  END
>  <minimizedAffinity>
-4.29910421

$$$$

 OpenBabel03252504503D

 27 29  0  0  0  0  0  0  0  0999 V2000
   39.2260   27.0190   42.8720 C   0  0  0  0  0  0  0  0  0  0  0  0
   37.9470   27.6100   42.8520 C   0  0  0  0  0  0  0  0  0  0  0  0
   37.8770   29.0050   42.8540 C   0  0  0  0  0  0  0  0  0  0  0  0
   39.0450   29.7030   42.8760 N   0  0  0  0  0  0  0  0  0  0  0  0
   40.2400   29.1000   42.8950 C   0  0  0  0  0  0  0  0  0  0  0  0
   40.3400   27.7440   42.8920 N   0  0  0  0  0  0  0  0  0  0  0  0
   39.2920   25.9370   42.8690 H   0  0  0  0  0  0  0  0  0  0  0  0
   36.9210   29.4860   42.8400 H   0  0  0  0  0  0  0  0  0  0  0  0
   42.6730   29.2130   43.2250 C   0  0  0  0  0  3  0  0  0  0  0  0
   41.4950   29.8740   42.9190 C   0  0  0  0  0  0  0  0  0  0  0  0
   41.4990   31.2440   42.6390 C   0  0  0  0  0  0  0  0  0  0  0  0
   40.5330   31.6990   42.4070 H   0  0  0  0  0  0  0  0  0  0  0  0
   42.7040   31.9240   42.6760 C   0  0  0  0  0  0  0  0  0  0  0  0
   42.9430   33.2290   42.4440 N   0  0  0  0  0  0  0  0  0  0  0  0
   44.2590   33.3790   42.6030 C   0  0  0  0  0  0  0  0  0  0  0  0
   44.8460   34.2940   42.5020 H   0  0  0  0  0  0  0  0  0  0  0  0
   44.8040   32.2040   42.9230 N   0  0  0  0  0  0  0  0  0  0  0  0
   43.8630   31.2400   42.9840 C   0  0  0  0  0  0  0  0  0  0  0  0
   43.8910   29.8900   43.2630 C   0  0  0  0  0  3  0  0  0  0  0  0
   42.2610   33.9820   42.1910 H   0  0  0  0  0  0  0  0  0  0  0  0
   36.7640   26.7510   42.8290 C   0  0  0  0  0  0  0  0  0  0  0  0
   36.3320   26.5310   43.8080 H   0  0  0  0  0  0  0  0  0  0  0  0
   35.9830   27.2150   42.1990 H   0  0  0  0  0  0  0  0  0  0  0  0
   37.1500   25.4500   42.1090 C   0  0  0  0  0  0  0  0  0  0  0  0
   37.4650   24.7410   42.9120 H   0  0  0  0  0  0  0  0  0  0  0  0
   36.2740   25.0690   41.5640 H   0  0  0  0  0  0  0  0  0  0  0  0
   37.9280   25.7000   41.3880 H   0  0  0  0  0  0  0  0  0  0  0  0
  1  6  1  0  0  0  0
  2  3  1  0  0  0  0
  2  1  2  0  0  0  0
  3  4  2  0  0  0  0
  4  5  1  0  0  0  0
  5 10  1  0  0  0  0
  6  5  2  0  0  0  0
  7  1  1  0  0  0  0
  8  3  1  0  0  0  0
  9 19  1  0  0  0  0
 10  9  2  0  0  0  0
 11 13  2  0  0  0  0
 11 10  1  0  0  0  0
 12 11  1  0  0  0  0
 13 18  1  0  0  0  0
 14 15  1  0  0  0  0
 14 13  1  0  0  0  0
 15 17  2  0  0  0  0
 16 15  1  0  0  0  0
 17 18  1  0  0  0  0
 18 19  2  0  0  0  0
 20 14  1  0  0  0  0
 21  2  1  0  0  0  0
 21 22  1  0  0  0  0
 23 21  1  0  0  0  0
 24 21  1  0  0  0  0
 24 25  1  0  0  0  0
 26 24  1  0  0  0  0
 27 24  1  0  0  0  0
M  END
>  <minimizedAffinity>
-4.29469872

$$$$

 OpenBabel03252504503D

 27 29  0  0  0  0  0  0  0  0999 V2000
   41.5400   32.0990   40.8410 C   0  0  0  0  0  0  0  0  0  0  0  0
   41.6680   33.4890   40.6480 C   0  0  0  0  0  0  0  0  0  0  0  0
   40.6030   34.1610   40.0420 C   0  0  0  0  0  0  0  0  0  0  0  0
   39.5140   33.4330   39.6770 N   0  0  0  0  0  0  0  0  0  0  0  0
   39.4350   32.1120   39.8790 C   0  0  0  0  0  0  0  0  0  0  0  0
   40.4540   31.4310   40.4670 N   0  0  0  0  0  0  0  0  0  0  0  0
   42.3610   31.5690   41.3100 H   0  0  0  0  0  0  0  0  0  0  0  0
   40.6690   35.2170   39.8800 H   0  0  0  0  0  0  0  0  0  0  0  0
   38.0800   31.0310   38.1360 C   0  0  0  0  0  3  0  0  0  0  0  0
   38.2440   31.3400   39.4770 C   0  0  0  0  0  0  0  0  0  0  0  0
   37.3010   30.9280   40.4230 C   0  0  0  0  0  0  0  0  0  0  0  0
   37.4950   31.2080   41.4610 H   0  0  0  0  0  0  0  0  0  0  0  0
   36.2010   30.2070   39.9920 C   0  0  0  0  0  0  0  0  0  0  0  0
   35.1790   29.7130   40.7180 N   0  0  0  0  0  0  0  0  0  0  0  0
   34.3860   29.1010   39.8370 C   0  0  0  0  0  0  0  0  0  0  0  0
   33.4490   28.5750   40.0310 H   0  0  0  0  0  0  0  0  0  0  0  0
   34.9060   29.2190   38.6140 N   0  0  0  0  0  0  0  0  0  0  0  0
   36.0630   29.9130   38.6500 C   0  0  0  0  0  0  0  0  0  0  0  0
   36.9750   30.3040   37.6940 C   0  0  0  0  0  3  0  0  0  0  0  0
   35.0200   29.7820   41.7500 H   0  0  0  0  0  0  0  0  0  0  0  0
   42.8920   34.1610   41.0840 C   0  0  0  0  0  0  0  0  0  0  0  0
   43.6500   34.2910   40.3090 H   0  0  0  0  0  0  0  0  0  0  0  0
   42.6400   35.1550   41.4970 H   0  0  0  0  0  0  0  0  0  0  0  0
   43.4630   33.3610   42.2650 C   0  0  0  0  0  0  0  0  0  0  0  0
   44.1940   32.6440   41.8200 H   0  0  0  0  0  0  0  0  0  0  0  0
   43.9600   34.0550   42.9590 H   0  0  0  0  0  0  0  0  0  0  0  0
   42.6210   32.8970   42.7770 H   0  0  0  0  0  0  0  0  0  0  0  0
  1  7  1  0  0  0  0
  2  1  1  0  0  0  0
  2 21  1  0  0  0  0
  3  2  2  0  0  0  0
  4  5  2  0  0  0  0
  4  3  1  0  0  0  0
  5  6  1  0  0  0  0
  6  1  2  0  0  0  0
  8  3  1  0  0  0  0
  9 10  1  0  0  0  0
 10  5  1  0  0  0  0
 10 11  2  0  0  0  0
 11 12  1  0  0  0  0
 13 11  1  0  0  0  0
 13 14  1  0  0  0  0
 14 20  1  0  0  0  0
 15 16  1  0  0  0  0
 15 14  1  0  0  0  0
 17 18  1  0  0  0  0
 17 15  2  0  0  0  0
 18 13  2  0  0  0  0
 19  9  2  0  0  0  0
 19 18  1  0  0  0  0
 21 23  1  0  0  0  0
 21 24  1  0  0  0  0
 22 21  1  0  0  0  0
 24 27  1  0  0  0  0
 24 26  1  0  0  0  0
 25 24  1  0  0  0  0
M  END
>  <minimizedAffinity>
-4.25968933

$$$$
