
 OpenBabel03242514453D

 24 26  0  0  0  0  0  0  0  0999 V2000
   37.6960   27.4430   40.9070 C   0  0  0  0  0  0  0  0  0  0  0  0
   37.5680   28.5420   41.7540 C   0  0  0  0  0  0  0  0  0  0  0  0
   37.0960   28.3080   43.0700 C   0  0  0  0  0  0  0  0  0  0  0  0
   36.8030   27.0310   43.4080 N   0  0  0  0  0  0  0  0  0  0  0  0
   36.9450   25.9940   42.5490 C   0  0  0  0  0  0  0  0  0  0  0  0
   37.3960   26.2060   41.2830 N   0  0  0  0  0  0  0  0  0  0  0  0
   36.9620   29.0780   43.7950 H   0  0  0  0  0  0  0  0  0  0  0  0
   36.7100   24.9790   42.8230 H   0  0  0  0  0  0  0  0  0  0  0  0
   39.1710   30.3210   41.7700 C   0  0  0  0  0  3  0  0  0  0  0  0
   37.8800   29.9240   41.4010 C   0  0  0  0  0  0  0  0  0  0  0  0
   37.0890   30.8640   40.7710 C   0  0  0  0  0  0  0  0  0  0  0  0
   36.1150   30.4950   40.5160 H   0  0  0  0  0  0  0  0  0  0  0  0
   37.5990   32.1250   40.5360 C   0  0  0  0  0  0  0  0  0  0  0  0
   36.9600   33.1570   39.9320 N   0  0  0  0  0  0  0  0  0  0  0  0
   37.8690   34.1610   39.9430 C   0  0  0  0  0  0  0  0  0  0  0  0
   37.7320   35.1660   39.5450 H   0  0  0  0  0  0  0  0  0  0  0  0
   39.0060   33.7790   40.5180 N   0  0  0  0  0  0  0  0  0  0  0  0
   38.8700   32.5000   40.9040 C   0  0  0  0  0  0  0  0  0  0  0  0
   39.6690   31.5760   41.5320 C   0  0  0  0  0  3  0  0  0  0  0  0
   35.9870   33.1720   39.5480 H   0  0  0  0  0  0  0  0  0  0  0  0
   38.1940   27.7170   39.5260 C   0  0  0  0  0  0  0  0  0  0  0  0
   37.9140   28.7190   39.1470 H   0  0  0  0  0  0  0  0  0  0  0  0
   39.2720   27.5000   39.5230 H   0  0  0  0  0  0  0  0  0  0  0  0
   37.7510   26.9270   38.8500 H   0  0  0  0  0  0  0  0  0  0  0  0
  1  6  2  0  0  0  0
  1  2  1  0  0  0  0
  2  3  2  0  0  0  0
  3  4  1  0  0  0  0
  3  7  1  0  0  0  0
  5  8  1  0  0  0  0
  5  4  2  0  0  0  0
  6  5  1  0  0  0  0
 10  2  1  0  0  0  0
 10  9  2  0  0  0  0
 11 10  1  0  0  0  0
 12 11  1  0  0  0  0
 13 11  2  0  0  0  0
 13 18  1  0  0  0  0
 14 15  1  0  0  0  0
 14 13  1  0  0  0  0
 15 17  2  0  0  0  0
 16 15  1  0  0  0  0
 17 18  1  0  0  0  0
 18 19  2  0  0  0  0
 19  9  1  0  0  0  0
 20 14  1  0  0  0  0
 21  1  1  0  0  0  0
 22 21  1  0  0  0  0
 23 21  1  0  0  0  0
 24 21  1  0  0  0  0
M  END
>  <minimizedAffinity>
-4.77552128

$$$$

 OpenBabel03242514453D

 24 26  0  0  0  0  0  0  0  0999 V2000
   37.4590   27.6040   42.5530 C   0  0  0  0  0  0  0  0  0  0  0  0
   37.5730   28.0880   41.2510 C   0  0  0  0  0  0  0  0  0  0  0  0
   37.3840   27.1690   40.1880 C   0  0  0  0  0  0  0  0  0  0  0  0
   37.1070   25.8860   40.5170 N   0  0  0  0  0  0  0  0  0  0  0  0
   37.0060   25.4630   41.7990 C   0  0  0  0  0  0  0  0  0  0  0  0
   37.1850   26.3350   42.8280 N   0  0  0  0  0  0  0  0  0  0  0  0
   37.4500   27.4360   39.1580 H   0  0  0  0  0  0  0  0  0  0  0  0
   36.7840   24.4400   42.0550 H   0  0  0  0  0  0  0  0  0  0  0  0
   39.2280   29.7000   40.6210 C   0  0  0  0  0  3  0  0  0  0  0  0
   37.8720   29.4690   40.8840 C   0  0  0  0  0  0  0  0  0  0  0  0
   37.0160   30.5470   40.7670 C   0  0  0  0  0  0  0  0  0  0  0  0
   35.9950   30.3010   40.9820 H   0  0  0  0  0  0  0  0  0  0  0  0
   37.5270   31.7760   40.4020 C   0  0  0  0  0  0  0  0  0  0  0  0
   36.8280   32.9270   40.2420 N   0  0  0  0  0  0  0  0  0  0  0  0
   37.7670   33.8360   39.8860 C   0  0  0  0  0  0  0  0  0  0  0  0
   37.6000   34.8900   39.6670 H   0  0  0  0  0  0  0  0  0  0  0  0
   38.9760   33.2860   39.8260 N   0  0  0  0  0  0  0  0  0  0  0  0
   38.8620   31.9870   40.1460 C   0  0  0  0  0  0  0  0  0  0  0  0
   39.7260   30.9250   40.2580 C   0  0  0  0  0  3  0  0  0  0  0  0
   35.8010   33.0760   40.3670 H   0  0  0  0  0  0  0  0  0  0  0  0
   37.6630   28.5930   43.6540 C   0  0  0  0  0  0  0  0  0  0  0  0
   38.3650   29.4060   43.3900 H   0  0  0  0  0  0  0  0  0  0  0  0
   36.6650   28.9230   43.9800 H   0  0  0  0  0  0  0  0  0  0  0  0
   38.0690   28.0230   44.5410 H   0  0  0  0  0  0  0  0  0  0  0  0
  1  6  1  0  0  0  0
  1 21  1  0  0  0  0
  2  1  2  0  0  0  0
  3  4  2  0  0  0  0
  3  2  1  0  0  0  0
  4  5  1  0  0  0  0
  5  8  1  0  0  0  0
  5  6  2  0  0  0  0
  7  3  1  0  0  0  0
  9 10  1  0  0  0  0
 10  2  1  0  0  0  0
 11 10  2  0  0  0  0
 11 12  1  0  0  0  0
 13 11  1  0  0  0  0
 14 20  1  0  0  0  0
 14 13  1  0  0  0  0
 15 14  1  0  0  0  0
 16 15  1  0  0  0  0
 17 15  2  0  0  0  0
 17 18  1  0  0  0  0
 18 19  1  0  0  0  0
 18 13  2  0  0  0  0
 19  9  2  0  0  0  0
 21 23  1  0  0  0  0
 21 24  1  0  0  0  0
 22 21  1  0  0  0  0
M  END
>  <minimizedAffinity>
-4.73417377

$$$$

 OpenBabel03242514453D

 24 26  0  0  0  0  0  0  0  0999 V2000
   36.9090   26.5180   42.3960 C   0  0  0  0  0  0  0  0  0  0  0  0
   37.2010   27.1650   41.1960 C   0  0  0  0  0  0  0  0  0  0  0  0
   37.3880   26.3600   40.0440 C   0  0  0  0  0  0  0  0  0  0  0  0
   37.2690   25.0210   40.1940 N   0  0  0  0  0  0  0  0  0  0  0  0
   36.9830   24.4380   41.3820 C   0  0  0  0  0  0  0  0  0  0  0  0
   36.8020   25.1990   42.4950 N   0  0  0  0  0  0  0  0  0  0  0  0
   37.6150   26.7540   39.0790 H   0  0  0  0  0  0  0  0  0  0  0  0
   36.8890   23.3710   41.4950 H   0  0  0  0  0  0  0  0  0  0  0  0
   36.1440   29.2380   40.6340 C   0  0  0  0  0  3  0  0  0  0  0  0
   37.3330   28.6080   41.0220 C   0  0  0  0  0  0  0  0  0  0  0  0
   38.4450   29.4100   41.1840 C   0  0  0  0  0  0  0  0  0  0  0  0
   39.3190   28.8650   41.4820 H   0  0  0  0  0  0  0  0  0  0  0  0
   38.3350   30.7680   40.9620 C   0  0  0  0  0  0  0  0  0  0  0  0
   39.3230   31.6880   41.0770 N   0  0  0  0  0  0  0  0  0  0  0  0
   38.7220   32.8600   40.7580 C   0  0  0  0  0  0  0  0  0  0  0  0
   39.1890   33.8440   40.7340 H   0  0  0  0  0  0  0  0  0  0  0  0
   37.4380   32.6800   40.4640 N   0  0  0  0  0  0  0  0  0  0  0  0
   37.1600   31.3720   40.5820 C   0  0  0  0  0  0  0  0  0  0  0  0
   36.0440   30.5880   40.4160 C   0  0  0  0  0  3  0  0  0  0  0  0
   40.3210   31.5290   41.3490 H   0  0  0  0  0  0  0  0  0  0  0  0
   36.7180   27.3880   43.5950 C   0  0  0  0  0  0  0  0  0  0  0  0
   37.3130   28.3210   43.5620 H   0  0  0  0  0  0  0  0  0  0  0  0
   35.6350   27.5280   43.7220 H   0  0  0  0  0  0  0  0  0  0  0  0
   37.0260   26.7820   44.4980 H   0  0  0  0  0  0  0  0  0  0  0  0
  1  6  1  0  0  0  0
  1 21  1  0  0  0  0
  2  1  2  0  0  0  0
  3  4  2  0  0  0  0
  3  2  1  0  0  0  0
  4  5  1  0  0  0  0
  5  8  1  0  0  0  0
  5  6  2  0  0  0  0
  7  3  1  0  0  0  0
  9 10  1  0  0  0  0
 10 11  2  0  0  0  0
 10  2  1  0  0  0  0
 11 12  1  0  0  0  0
 13 14  1  0  0  0  0
 13 11  1  0  0  0  0
 14 20  1  0  0  0  0
 15 14  1  0  0  0  0
 16 15  1  0  0  0  0
 17 18  1  0  0  0  0
 17 15  2  0  0  0  0
 18 13  2  0  0  0  0
 19 18  1  0  0  0  0
 19  9  2  0  0  0  0
 21 23  1  0  0  0  0
 21 24  1  0  0  0  0
 22 21  1  0  0  0  0
M  END
>  <minimizedAffinity>
-4.62627745

$$$$

 OpenBabel03242514453D

 24 26  0  0  0  0  0  0  0  0999 V2000
   37.1350   30.9370   40.6250 C   0  0  0  0  0  0  0  0  0  0  0  0
   37.9920   30.0410   41.2610 C   0  0  0  0  0  0  0  0  0  0  0  0
   39.2280   30.5410   41.7430 C   0  0  0  0  0  0  0  0  0  0  0  0
   39.4850   31.8550   41.5510 N   0  0  0  0  0  0  0  0  0  0  0  0
   38.6190   32.6880   40.9270 C   0  0  0  0  0  0  0  0  0  0  0  0
   37.4300   32.2200   40.4580 N   0  0  0  0  0  0  0  0  0  0  0  0
   39.9530   29.9410   42.2440 H   0  0  0  0  0  0  0  0  0  0  0  0
   38.8290   33.7340   40.7760 H   0  0  0  0  0  0  0  0  0  0  0  0
   37.1640   28.3360   42.7250 C   0  0  0  0  0  3  0  0  0  0  0  0
   37.7260   28.6210   41.4740 C   0  0  0  0  0  0  0  0  0  0  0  0
   37.9530   27.5530   40.6290 C   0  0  0  0  0  0  0  0  0  0  0  0
   38.3840   27.8410   39.6900 H   0  0  0  0  0  0  0  0  0  0  0  0
   37.6190   26.2810   41.0460 C   0  0  0  0  0  0  0  0  0  0  0  0
   37.7740   25.1320   40.3430 N   0  0  0  0  0  0  0  0  0  0  0  0
   37.3040   24.1700   41.1740 C   0  0  0  0  0  0  0  0  0  0  0  0
   37.2590   23.1010   40.9690 H   0  0  0  0  0  0  0  0  0  0  0  0
   36.8820   24.6880   42.3240 N   0  0  0  0  0  0  0  0  0  0  0  0
   37.0660   26.0170   42.2780 C   0  0  0  0  0  0  0  0  0  0  0  0
   36.8350   27.0680   43.1310 C   0  0  0  0  0  3  0  0  0  0  0  0
   38.1660   25.0170   39.3800 H   0  0  0  0  0  0  0  0  0  0  0  0
   35.8410   30.3850   40.1240 C   0  0  0  0  0  0  0  0  0  0  0  0
   35.9020   29.3200   39.8260 H   0  0  0  0  0  0  0  0  0  0  0  0
   35.0780   30.6150   40.8830 H   0  0  0  0  0  0  0  0  0  0  0  0
   35.5380   31.0050   39.2300 H   0  0  0  0  0  0  0  0  0  0  0  0
  1  2  1  0  0  0  0
  2 10  1  0  0  0  0
  2  3  2  0  0  0  0
  3  7  1  0  0  0  0
  4  3  1  0  0  0  0
  5  4  2  0  0  0  0
  6  1  2  0  0  0  0
  6  5  1  0  0  0  0
  8  5  1  0  0  0  0
  9 19  1  0  0  0  0
 10  9  2  0  0  0  0
 11 13  2  0  0  0  0
 11 10  1  0  0  0  0
 12 11  1  0  0  0  0
 13 18  1  0  0  0  0
 14 13  1  0  0  0  0
 14 15  1  0  0  0  0
 15 17  2  0  0  0  0
 16 15  1  0  0  0  0
 18 17  1  0  0  0  0
 18 19  2  0  0  0  0
 20 14  1  0  0  0  0
 21  1  1  0  0  0  0
 21 23  1  0  0  0  0
 22 21  1  0  0  0  0
 24 21  1  0  0  0  0
M  END
>  <minimizedAffinity>
-4.60590649

$$$$

 OpenBabel03242514453D

 24 26  0  0  0  0  0  0  0  0999 V2000
   36.1810   29.0270   37.0050 C   0  0  0  0  0  0  0  0  0  0  0  0
   35.4400   28.6540   38.1250 C   0  0  0  0  0  0  0  0  0  0  0  0
   34.0350   28.5410   37.9770 C   0  0  0  0  0  0  0  0  0  0  0  0
   33.5140   28.8040   36.7570 N   0  0  0  0  0  0  0  0  0  0  0  0
   34.2760   29.1620   35.6960 C   0  0  0  0  0  0  0  0  0  0  0  0
   35.6250   29.2750   35.8250 N   0  0  0  0  0  0  0  0  0  0  0  0
   33.3780   28.2630   38.7700 H   0  0  0  0  0  0  0  0  0  0  0  0
   33.8560   29.3700   34.7260 H   0  0  0  0  0  0  0  0  0  0  0  0
   36.4130   27.0430   39.6060 C   0  0  0  0  0  3  0  0  0  0  0  0
   35.9900   28.3690   39.4470 C   0  0  0  0  0  0  0  0  0  0  0  0
   36.1420   29.2110   40.5310 C   0  0  0  0  0  0  0  0  0  0  0  0
   35.7990   30.2100   40.3410 H   0  0  0  0  0  0  0  0  0  0  0  0
   36.6930   28.7180   41.6960 C   0  0  0  0  0  0  0  0  0  0  0  0
   36.9110   29.4070   42.8420 N   0  0  0  0  0  0  0  0  0  0  0  0
   37.4610   28.4930   43.6780 C   0  0  0  0  0  0  0  0  0  0  0  0
   37.7800   28.6620   44.7060 H   0  0  0  0  0  0  0  0  0  0  0  0
   37.5790   27.3080   43.0880 N   0  0  0  0  0  0  0  0  0  0  0  0
   37.1040   27.4130   41.8360 C   0  0  0  0  0  0  0  0  0  0  0  0
   36.9600   26.5620   40.7680 C   0  0  0  0  0  3  0  0  0  0  0  0
   36.7010   30.4140   43.0360 H   0  0  0  0  0  0  0  0  0  0  0  0
   37.6590   29.1400   37.1870 C   0  0  0  0  0  0  0  0  0  0  0  0
   37.9540   29.4400   38.2110 H   0  0  0  0  0  0  0  0  0  0  0  0
   38.1010   28.1990   36.8290 H   0  0  0  0  0  0  0  0  0  0  0  0
   38.0260   29.9160   36.4520 H   0  0  0  0  0  0  0  0  0  0  0  0
  1 21  1  0  0  0  0
  1  2  1  0  0  0  0
  2 10  1  0  0  0  0
  3  2  2  0  0  0  0
  3  7  1  0  0  0  0
  4  3  1  0  0  0  0
  5  6  1  0  0  0  0
  5  4  2  0  0  0  0
  6  1  2  0  0  0  0
  8  5  1  0  0  0  0
  9 19  1  0  0  0  0
 10  9  2  0  0  0  0
 10 11  1  0  0  0  0
 11 13  2  0  0  0  0
 12 11  1  0  0  0  0
 13 18  1  0  0  0  0
 13 14  1  0  0  0  0
 14 20  1  0  0  0  0
 14 15  1  0  0  0  0
 15 16  1  0  0  0  0
 17 15  2  0  0  0  0
 18 17  1  0  0  0  0
 19 18  2  0  0  0  0
 21 22  1  0  0  0  0
 23 21  1  0  0  0  0
 24 21  1  0  0  0  0
M  END
>  <minimizedAffinity>
-4.56112242

$$$$

 OpenBabel03242514453D

 24 26  0  0  0  0  0  0  0  0999 V2000
   36.3200   30.0560   38.0510 C   0  0  0  0  0  0  0  0  0  0  0  0
   36.6240   30.5240   39.3280 C   0  0  0  0  0  0  0  0  0  0  0  0
   35.7980   30.0970   40.3990 C   0  0  0  0  0  0  0  0  0  0  0  0
   34.7740   29.2650   40.1010 N   0  0  0  0  0  0  0  0  0  0  0  0
   34.5190   28.8360   38.8420 C   0  0  0  0  0  0  0  0  0  0  0  0
   35.3030   29.2390   37.8060 N   0  0  0  0  0  0  0  0  0  0  0  0
   35.9430   30.3960   41.4120 H   0  0  0  0  0  0  0  0  0  0  0  0
   33.7020   28.1730   38.6110 H   0  0  0  0  0  0  0  0  0  0  0  0
   37.3600   32.7740   39.6880 C   0  0  0  0  0  3  0  0  0  0  0  0
   37.7250   31.4220   39.6620 C   0  0  0  0  0  0  0  0  0  0  0  0
   39.0430   31.1210   39.9450 C   0  0  0  0  0  0  0  0  0  0  0  0
   39.2530   30.0700   39.9080 H   0  0  0  0  0  0  0  0  0  0  0  0
   39.9200   32.1450   40.2370 C   0  0  0  0  0  0  0  0  0  0  0  0
   41.2360   32.0220   40.5360 N   0  0  0  0  0  0  0  0  0  0  0  0
   41.6500   33.2960   40.7390 C   0  0  0  0  0  0  0  0  0  0  0  0
   42.6570   33.6180   41.0020 H   0  0  0  0  0  0  0  0  0  0  0  0
   40.6520   34.1600   40.5770 N   0  0  0  0  0  0  0  0  0  0  0  0
   39.5460   33.4690   40.2600 C   0  0  0  0  0  0  0  0  0  0  0  0
   38.2390   33.7850   39.9790 C   0  0  0  0  0  3  0  0  0  0  0  0
   41.8020   31.1440   40.5950 H   0  0  0  0  0  0  0  0  0  0  0  0
   37.2040   30.5220   36.9410 C   0  0  0  0  0  0  0  0  0  0  0  0
   37.6300   31.5290   37.1100 H   0  0  0  0  0  0  0  0  0  0  0  0
   37.9420   29.7260   36.7610 H   0  0  0  0  0  0  0  0  0  0  0  0
   36.5770   30.5360   36.0000 H   0  0  0  0  0  0  0  0  0  0  0  0
  1  2  1  0  0  0  0
  2 10  1  0  0  0  0
  2  3  2  0  0  0  0
  3  7  1  0  0  0  0
  4  3  1  0  0  0  0
  5  4  2  0  0  0  0
  6  1  2  0  0  0  0
  6  5  1  0  0  0  0
  8  5  1  0  0  0  0
  9 19  1  0  0  0  0
 10  9  2  0  0  0  0
 10 11  1  0  0  0  0
 11 13  2  0  0  0  0
 12 11  1  0  0  0  0
 13 18  1  0  0  0  0
 13 14  1  0  0  0  0
 14 20  1  0  0  0  0
 14 15  1  0  0  0  0
 15 16  1  0  0  0  0
 17 15  2  0  0  0  0
 18 17  1  0  0  0  0
 19 18  2  0  0  0  0
 21 22  1  0  0  0  0
 21  1  1  0  0  0  0
 23 21  1  0  0  0  0
 24 21  1  0  0  0  0
M  END
>  <minimizedAffinity>
-4.54358768

$$$$

 OpenBabel03242514453D

 24 26  0  0  0  0  0  0  0  0999 V2000
   36.8960   29.7970   41.3930 C   0  0  0  0  0  0  0  0  0  0  0  0
   36.4250   28.7150   40.6510 C   0  0  0  0  0  0  0  0  0  0  0  0
   36.7550   27.4120   41.1050 C   0  0  0  0  0  0  0  0  0  0  0  0
   37.5040   27.3150   42.2270 N   0  0  0  0  0  0  0  0  0  0  0  0
   37.9390   28.3980   42.9150 C   0  0  0  0  0  0  0  0  0  0  0  0
   37.6300   29.6530   42.4900 N   0  0  0  0  0  0  0  0  0  0  0  0
   36.4450   26.5190   40.6110 H   0  0  0  0  0  0  0  0  0  0  0  0
   38.5350   28.3140   43.8080 H   0  0  0  0  0  0  0  0  0  0  0  0
   36.3690   28.7850   38.2580 C   0  0  0  0  0  3  0  0  0  0  0  0
   35.6170   28.8070   39.4390 C   0  0  0  0  0  0  0  0  0  0  0  0
   34.2460   28.9110   39.3100 C   0  0  0  0  0  0  0  0  0  0  0  0
   33.7320   28.9220   40.2510 H   0  0  0  0  0  0  0  0  0  0  0  0
   33.6920   28.9850   38.0470 C   0  0  0  0  0  0  0  0  0  0  0  0
   32.3750   29.0900   37.7470 N   0  0  0  0  0  0  0  0  0  0  0  0
   32.3460   29.1290   36.3930 C   0  0  0  0  0  0  0  0  0  0  0  0
   31.4600   29.2110   35.7640 H   0  0  0  0  0  0  0  0  0  0  0  0
   33.5710   29.0530   35.8810 N   0  0  0  0  0  0  0  0  0  0  0  0
   34.4450   28.9620   36.8960 C   0  0  0  0  0  0  0  0  0  0  0  0
   35.8100   28.8590   37.0090 C   0  0  0  0  0  3  0  0  0  0  0  0
   31.5670   29.1310   38.4100 H   0  0  0  0  0  0  0  0  0  0  0  0
   36.5360   31.1570   40.8940 C   0  0  0  0  0  0  0  0  0  0  0  0
   36.4210   31.2060   39.7940 H   0  0  0  0  0  0  0  0  0  0  0  0
   35.6620   31.4910   41.4710 H   0  0  0  0  0  0  0  0  0  0  0  0
   37.3630   31.8580   41.2130 H   0  0  0  0  0  0  0  0  0  0  0  0
  1  6  1  0  0  0  0
  2  3  1  0  0  0  0
  2  1  2  0  0  0  0
  3  4  2  0  0  0  0
  4  5  1  0  0  0  0
  5  8  1  0  0  0  0
  6  5  2  0  0  0  0
  7  3  1  0  0  0  0
  9 10  1  0  0  0  0
 10  2  1  0  0  0  0
 11 10  2  0  0  0  0
 11 12  1  0  0  0  0
 13 11  1  0  0  0  0
 14 13  1  0  0  0  0
 14 20  1  0  0  0  0
 15 14  1  0  0  0  0
 16 15  1  0  0  0  0
 17 15  2  0  0  0  0
 17 18  1  0  0  0  0
 18 19  1  0  0  0  0
 18 13  2  0  0  0  0
 19  9  2  0  0  0  0
 21 24  1  0  0  0  0
 21  1  1  0  0  0  0
 21 23  1  0  0  0  0
 22 21  1  0  0  0  0
M  END
>  <minimizedAffinity>
-4.46842384

$$$$

 OpenBabel03242514453D

 24 26  0  0  0  0  0  0  0  0999 V2000
   38.2440   26.8690   42.0290 C   0  0  0  0  0  0  0  0  0  0  0  0
   38.9160   28.0890   41.9840 C   0  0  0  0  0  0  0  0  0  0  0  0
   40.0220   28.2630   42.8540 C   0  0  0  0  0  0  0  0  0  0  0  0
   40.3450   27.2300   43.6650 N   0  0  0  0  0  0  0  0  0  0  0  0
   39.6620   26.0610   43.6710 C   0  0  0  0  0  0  0  0  0  0  0  0
   38.5980   25.8820   42.8420 N   0  0  0  0  0  0  0  0  0  0  0  0
   40.6030   29.1570   42.8980 H   0  0  0  0  0  0  0  0  0  0  0  0
   39.9240   25.2410   44.3190 H   0  0  0  0  0  0  0  0  0  0  0  0
   39.0440   29.0660   39.8020 C   0  0  0  0  0  3  0  0  0  0  0  0
   38.5770   29.2110   41.1140 C   0  0  0  0  0  0  0  0  0  0  0  0
   37.8780   30.3650   41.4090 C   0  0  0  0  0  0  0  0  0  0  0  0
   37.5500   30.4110   42.4290 H   0  0  0  0  0  0  0  0  0  0  0  0
   37.6740   31.3010   40.4160 C   0  0  0  0  0  0  0  0  0  0  0  0
   37.0120   32.4780   40.5380 N   0  0  0  0  0  0  0  0  0  0  0  0
   37.0860   33.0280   39.3020 C   0  0  0  0  0  0  0  0  0  0  0  0
   36.6690   33.9860   38.9910 H   0  0  0  0  0  0  0  0  0  0  0  0
   37.7520   32.2420   38.4610 N   0  0  0  0  0  0  0  0  0  0  0  0
   38.1380   31.1440   39.1310 C   0  0  0  0  0  0  0  0  0  0  0  0
   38.8360   30.0020   38.8220 C   0  0  0  0  0  3  0  0  0  0  0  0
   36.5510   32.8700   41.3910 H   0  0  0  0  0  0  0  0  0  0  0  0
   37.0820   26.7110   41.1040 C   0  0  0  0  0  0  0  0  0  0  0  0
   36.5570   27.6620   40.8910 H   0  0  0  0  0  0  0  0  0  0  0  0
   37.4460   26.1690   40.2190 H   0  0  0  0  0  0  0  0  0  0  0  0
   36.3630   25.9900   41.5940 H   0  0  0  0  0  0  0  0  0  0  0  0
  1  6  1  0  0  0  0
  2  1  2  0  0  0  0
  2  3  1  0  0  0  0
  3  7  1  0  0  0  0
  3  4  2  0  0  0  0
  4  5  1  0  0  0  0
  5  8  1  0  0  0  0
  6  5  2  0  0  0  0
  9 10  1  0  0  0  0
 10 11  2  0  0  0  0
 10  2  1  0  0  0  0
 11 12  1  0  0  0  0
 13 14  1  0  0  0  0
 13 11  1  0  0  0  0
 14 20  1  0  0  0  0
 15 14  1  0  0  0  0
 16 15  1  0  0  0  0
 17 18  1  0  0  0  0
 17 15  2  0  0  0  0
 18 13  2  0  0  0  0
 19 18  1  0  0  0  0
 19  9  2  0  0  0  0
 21 24  1  0  0  0  0
 21  1  1  0  0  0  0
 22 21  1  0  0  0  0
 23 21  1  0  0  0  0
M  END
>  <minimizedAffinity>
-4.43648243

$$$$

 OpenBabel03242514453D

 24 26  0  0  0  0  0  0  0  0999 V2000
   35.3150   28.9950   38.7000 C   0  0  0  0  0  0  0  0  0  0  0  0
   36.2590   29.7790   38.0400 C   0  0  0  0  0  0  0  0  0  0  0  0
   36.3350   29.6690   36.6280 C   0  0  0  0  0  0  0  0  0  0  0  0
   35.4830   28.8100   36.0250 N   0  0  0  0  0  0  0  0  0  0  0  0
   34.5800   28.0690   36.7100 C   0  0  0  0  0  0  0  0  0  0  0  0
   34.4980   28.1640   38.0640 N   0  0  0  0  0  0  0  0  0  0  0  0
   37.0210   30.2230   36.0290 H   0  0  0  0  0  0  0  0  0  0  0  0
   33.9030   27.3860   36.2230 H   0  0  0  0  0  0  0  0  0  0  0  0
   38.4970   30.2280   38.7630 C   0  0  0  0  0  3  0  0  0  0  0  0
   37.1840   30.7090   38.6800 C   0  0  0  0  0  0  0  0  0  0  0  0
   36.9400   31.9640   39.2010 C   0  0  0  0  0  0  0  0  0  0  0  0
   35.9170   32.2700   39.1050 H   0  0  0  0  0  0  0  0  0  0  0  0
   37.9810   32.6730   39.7660 C   0  0  0  0  0  0  0  0  0  0  0  0
   37.9120   33.9090   40.3180 N   0  0  0  0  0  0  0  0  0  0  0  0
   39.1790   34.1610   40.7260 C   0  0  0  0  0  0  0  0  0  0  0  0
   39.5350   35.0630   41.2220 H   0  0  0  0  0  0  0  0  0  0  0  0
   39.9880   33.1440   40.4450 N   0  0  0  0  0  0  0  0  0  0  0  0
   39.2660   32.1880   39.8400 C   0  0  0  0  0  0  0  0  0  0  0  0
   39.5250   30.9400   39.3270 C   0  0  0  0  0  3  0  0  0  0  0  0
   37.0710   34.5260   40.4080 H   0  0  0  0  0  0  0  0  0  0  0  0
   35.2560   29.1280   40.1860 C   0  0  0  0  0  0  0  0  0  0  0  0
   36.2320   29.3800   40.6450 H   0  0  0  0  0  0  0  0  0  0  0  0
   34.4370   29.8260   40.4160 H   0  0  0  0  0  0  0  0  0  0  0  0
   34.8980   28.1370   40.5950 H   0  0  0  0  0  0  0  0  0  0  0  0
  1 21  1  0  0  0  0
  2 10  1  0  0  0  0
  2  1  2  0  0  0  0
  3  2  1  0  0  0  0
  4  3  2  0  0  0  0
  4  5  1  0  0  0  0
  5  6  2  0  0  0  0
  6  1  1  0  0  0  0
  7  3  1  0  0  0  0
  8  5  1  0  0  0  0
  9 19  1  0  0  0  0
 10  9  2  0  0  0  0
 10 11  1  0  0  0  0
 11 13  2  0  0  0  0
 12 11  1  0  0  0  0
 13 18  1  0  0  0  0
 13 14  1  0  0  0  0
 14 20  1  0  0  0  0
 14 15  1  0  0  0  0
 15 16  1  0  0  0  0
 17 15  2  0  0  0  0
 18 17  1  0  0  0  0
 19 18  2  0  0  0  0
 21 23  1  0  0  0  0
 21 24  1  0  0  0  0
 21 22  1  0  0  0  0
M  END
>  <minimizedAffinity>
-4.41097832

$$$$
