
 OpenBabel03252505213D

 31 34  0  0  0  0  0  0  0  0999 V2000
   45.1120   32.5390   44.8620 F   0  0  0  0  0  0  0  0  0  0  0  0
   46.0540   32.2450   43.9370 C   0  0  0  0  0  0  0  0  0  0  0  0
   46.1950   33.0800   42.8570 C   0  0  0  0  0  0  0  0  0  0  0  0
   47.1460   32.7720   41.9310 C   0  0  0  0  0  0  0  0  0  0  0  0
   47.9440   31.6590   42.0700 C   0  0  0  0  0  0  0  0  0  0  0  0
   47.8130   30.8100   43.1510 C   0  0  0  0  0  0  0  0  0  0  0  0
   46.8320   31.1320   44.1010 C   0  0  0  0  0  0  0  0  0  0  0  0
   47.3060   33.3980   41.0510 H   0  0  0  0  0  0  0  0  0  0  0  0
   48.7090   31.4130   41.3260 H   0  0  0  0  0  0  0  0  0  0  0  0
   48.4500   29.9530   43.2300 H   0  0  0  0  0  0  0  0  0  0  0  0
   47.3200   30.4040   46.4540 C   0  0  0  0  0  3  0  0  0  0  0  0
   46.7280   30.2220   45.2130 C   0  0  0  0  0  0  0  0  0  0  0  0
   45.9780   29.0540   45.0640 C   0  0  0  0  0  0  0  0  0  0  0  0
   45.4720   28.8240   44.1150 H   0  0  0  0  0  0  0  0  0  0  0  0
   45.8000   28.1030   46.0470 C   0  0  0  0  0  0  0  0  0  0  0  0
   45.1390   26.9450   46.1100 N   0  0  0  0  0  0  0  0  0  0  0  0
   45.3180   26.4270   47.3540 C   0  0  0  0  0  0  0  0  0  0  0  0
   44.8610   25.4810   47.6160 H   0  0  0  0  0  0  0  0  0  0  0  0
   46.0930   27.2750   48.0520 N   0  0  0  0  0  0  0  0  0  0  0  0
   46.4190   28.3430   47.2690 C   0  0  0  0  0  0  0  0  0  0  0  0
   47.1820   29.4850   47.4900 C   0  0  0  0  0  3  0  0  0  0  0  0
   44.5750   26.5160   45.3180 H   0  0  0  0  0  0  0  0  0  0  0  0
   44.1290   35.9770   43.7200 C   0  0  0  0  0  0  0  0  0  0  0  0
   43.7270   36.4690   42.4640 C   0  0  0  0  0  0  0  0  0  0  0  0
   44.1900   35.7740   41.3290 C   0  0  0  0  0  0  0  0  0  0  0  0
   44.9840   34.6860   41.5080 N   0  0  0  0  0  0  0  0  0  0  0  0
   45.3420   34.2510   42.7270 C   0  0  0  0  0  0  0  0  0  0  0  0
   44.9130   34.8970   43.8160 N   0  0  0  0  0  0  0  0  0  0  0  0
   43.7560   36.5320   44.5630 H   0  0  0  0  0  0  0  0  0  0  0  0
   43.1000   37.3240   42.2780 H   0  0  0  0  0  0  0  0  0  0  0  0
   43.9680   36.0290   40.3000 H   0  0  0  0  0  0  0  0  0  0  0  0
  2  7  1  0  0  0  0
  2  1  1  0  0  0  0
  3  2  2  0  0  0  0
  4  5  2  0  0  0  0
  4  3  1  0  0  0  0
  5  6  1  0  0  0  0
  6 10  1  0  0  0  0
  6  7  2  0  0  0  0
  7 12  1  0  0  0  0
  8  4  1  0  0  0  0
  9  5  1  0  0  0  0
 11 21  1  0  0  0  0
 12 11  2  0  0  0  0
 13 12  1  0  0  0  0
 13 15  2  0  0  0  0
 14 13  1  0  0  0  0
 15 16  1  0  0  0  0
 15 20  1  0  0  0  0
 16 17  1  0  0  0  0
 17 18  1  0  0  0  0
 17 19  2  0  0  0  0
 20 21  2  0  0  0  0
 20 19  1  0  0  0  0
 22 16  1  0  0  0  0
 23 28  1  0  0  0  0
 23 29  1  0  0  0  0
 24 23  2  0  0  0  0
 25 26  2  0  0  0  0
 25 24  1  0  0  0  0
 26 27  1  0  0  0  0
 27  3  1  0  0  0  0
 27 28  2  0  0  0  0
 30 24  1  0  0  0  0
 31 25  1  0  0  0  0
M  END
>  <minimizedAffinity>
-2.61306977

>  <minimizedRMSD>
5.32668877

$$$$
