
 OpenBabel03252508173D

 50 55  0  0  1  0  0  0  0  0999 V2000
   46.7560   31.5530   48.2220 C   0  0  1  0  0  0  0  0  0  0  0  0
   46.4090   30.4710   49.1860 C   0  0  0  0  0  0  0  0  0  0  0  0
   47.5890   31.2930   49.4130 C   0  0  1  0  0  0  0  0  0  0  0  0
   45.9200   32.3110   48.2020 H   0  0  0  0  0  0  0  0  0  0  0  0
   46.6110   29.4070   48.8980 H   0  0  0  0  0  0  0  0  0  0  0  0
   45.5480   30.5430   49.8790 H   0  0  0  0  0  0  0  0  0  0  0  0
   47.5090   32.0470   50.2250 H   0  0  0  0  0  0  0  0  0  0  0  0
   48.9800   30.7780   49.2020 C   0  0  2  0  0  0  0  0  0  0  0  0
   49.5920   30.1390   50.4740 C   0  0  0  0  0  0  0  0  0  0  0  0
   50.0970   31.4400   50.0020 C   0  0  1  0  0  0  0  0  0  0  0  0
   49.2490   30.1820   48.3210 H   0  0  0  0  0  0  0  0  0  0  0  0
   48.9850   30.1410   51.4000 H   0  0  0  0  0  0  0  0  0  0  0  0
   50.2500   29.2810   50.3950 H   0  0  0  0  0  0  0  0  0  0  0  0
   49.7970   32.3430   50.5780 H   0  0  0  0  0  0  0  0  0  0  0  0
   52.3870   32.4170   49.8760 C   0  0  0  0  0  3  0  0  0  0  0  0
   51.4570   31.4890   49.4590 C   0  0  0  0  0  0  0  0  0  0  0  0
   51.8900   30.5870   48.4810 C   0  0  0  0  0  0  0  0  0  0  0  0
   51.1350   29.8530   48.1600 H   0  0  0  0  0  0  0  0  0  0  0  0
   53.1500   30.5750   47.9270 C   0  0  0  0  0  0  0  0  0  0  0  0
   53.6920   29.7690   46.9840 N   0  0  0  0  0  0  0  0  0  0  0  0
   54.9400   30.2080   46.8330 C   0  0  0  0  0  0  0  0  0  0  0  0
   55.6330   29.7650   46.1450 H   0  0  0  0  0  0  0  0  0  0  0  0
   55.1860   31.2660   47.6580 N   0  0  0  0  0  0  0  0  0  0  0  0
   54.0640   31.5130   48.3580 C   0  0  0  0  0  0  0  0  0  0  0  0
   53.6620   32.4200   49.3290 C   0  0  0  0  0  3  0  0  0  0  0  0
   53.2360   28.9660   46.4750 H   0  0  0  0  0  0  0  0  0  0  0  0
   47.1980   31.0810   46.8840 C   0  0  0  0  0  0  0  0  0  0  0  0
   48.2060   30.7420   46.7530 H   0  0  0  0  0  0  0  0  0  0  0  0
   46.5160   30.2240   46.6070 H   0  0  0  0  0  0  0  0  0  0  0  0
   46.0910   33.0230   46.1420 C   0  0  0  0  0  3  0  0  0  0  0  0
   46.9310   32.1280   45.8290 C   0  0  0  0  0  3  0  0  0  0  0  0
   44.5710   35.9040   44.4150 C   0  0  0  0  0  0  0  0  0  0  0  0
   45.1970   35.8970   43.1820 C   0  0  0  0  0  0  0  0  0  0  0  0
   46.1160   34.9090   42.9720 C   0  0  0  0  0  0  0  0  0  0  0  0
   46.3680   34.0020   43.9580 N   0  0  0  0  0  0  0  0  0  0  0  0
   45.7410   34.0390   45.1450 C   0  0  0  0  0  0  0  0  0  0  0  0
   44.8510   34.9980   45.3440 N   0  0  0  0  0  0  0  0  0  0  0  0
   43.8390   36.6980   44.5710 H   0  0  0  0  0  0  0  0  0  0  0  0
   45.0310   36.5830   42.3880 H   0  0  0  0  0  0  0  0  0  0  0  0
   46.8550   34.7710   41.7250 C   0  0  0  0  0  0  0  0  0  0  0  0
   48.0580   35.3640   41.4690 C   0  0  0  0  0  0  0  0  0  0  0  0
   48.7490   35.2270   40.2810 C   0  0  0  0  0  0  0  0  0  0  0  0
   48.2230   34.4520   39.2740 C   0  0  0  0  0  0  0  0  0  0  0  0
   47.0180   33.8340   39.4760 C   0  0  0  0  0  0  0  0  0  0  0  0
   46.3790   34.0110   40.6830 C   0  0  0  0  0  0  0  0  0  0  0  0
   48.5150   35.9930   42.2500 H   0  0  0  0  0  0  0  0  0  0  0  0
   49.7000   35.7150   40.1230 H   0  0  0  0  0  0  0  0  0  0  0  0
   48.7210   34.3100   38.3240 H   0  0  0  0  0  0  0  0  0  0  0  0
   46.5910   33.2170   38.6840 H   0  0  0  0  0  0  0  0  0  0  0  0
   45.4180   33.4810   40.7630 H   0  0  0  0  0  0  0  0  0  0  0  0
  1  4  1  1  0  0  0
  1  2  1  0  0  0  0
  1  3  1  0  0  0  0
  2  3  1  0  0  0  0
  2  6  1  0  0  0  0
  3  7  1  1  0  0  0
  5  2  1  0  0  0  0
  8 11  1  6  0  0  0
  8  3  1  0  0  0  0
  8 10  1  0  0  0  0
  8  9  1  0  0  0  0
  9 12  1  0  0  0  0
 10  9  1  0  0  0  0
 10 14  1  1  0  0  0
 13  9  1  0  0  0  0
 16 15  1  0  0  0  0
 16 10  1  0  0  0  0
 17 16  2  0  0  0  0
 18 17  1  0  0  0  0
 19 24  2  0  0  0  0
 19 17  1  0  0  0  0
 20 19  1  0  0  0  0
 21 20  1  0  0  0  0
 21 23  2  0  0  0  0
 22 21  1  0  0  0  0
 23 24  1  0  0  0  0
 24 25  1  0  0  0  0
 25 15  2  0  0  0  0
 26 20  1  0  0  0  0
 27  1  1  0  0  0  0
 28 27  1  0  0  0  0
 29 27  1  0  0  0  0
 31 30  2  0  0  0  0
 31 27  1  0  0  0  0
 32 38  1  0  0  0  0
 32 37  1  0  0  0  0
 33 32  2  0  0  0  0
 34 33  1  0  0  0  0
 34 35  2  0  0  0  0
 35 36  1  0  0  0  0
 36 37  2  0  0  0  0
 36 30  1  0  0  0  0
 39 33  1  0  0  0  0
 40 34  1  0  0  0  0
 41 40  1  0  0  0  0
 41 46  1  0  0  0  0
 42 41  2  0  0  0  0
 43 44  2  0  0  0  0
 43 42  1  0  0  0  0
 44 45  1  0  0  0  0
 45 50  1  0  0  0  0
 45 40  2  0  0  0  0
 47 42  1  0  0  0  0
 48 43  1  0  0  0  0
 49 44  1  0  0  0  0
M  END
>  <minimizedAffinity>
-6.74044418

>  <minimizedRMSD>
1.07168925

$$$$
