
 OpenBabel03252508393D

 44 48  0  0  0  0  0  0  0  0999 V2000
   45.1210   33.9640   40.7280 C   0  0  0  0  0  0  0  0  0  0  0  0
   44.0750   33.6290   39.9180 C   0  0  0  0  0  0  0  0  0  0  0  0
   44.3750   33.1100   38.6870 C   0  0  0  0  0  0  0  0  0  0  0  0
   45.6600   32.9120   38.2350 C   0  0  0  0  0  0  0  0  0  0  0  0
   46.6880   33.2630   39.0840 C   0  0  0  0  0  0  0  0  0  0  0  0
   46.4370   33.7920   40.3380 C   0  0  0  0  0  0  0  0  0  0  0  0
   43.5530   32.8400   38.0380 H   0  0  0  0  0  0  0  0  0  0  0  0
   45.8280   32.5020   37.2640 H   0  0  0  0  0  0  0  0  0  0  0  0
   47.7120   33.1110   38.7330 H   0  0  0  0  0  0  0  0  0  0  0  0
   40.7920   35.2800   40.8060 C   0  0  0  0  0  0  0  0  0  0  0  0
   42.0950   35.1070   40.2940 C   0  0  0  0  0  0  0  0  0  0  0  0
   42.7320   33.8510   40.4310 C   0  0  0  0  0  0  0  0  0  0  0  0
   42.0100   32.9060   41.0610 N   0  0  0  0  0  0  0  0  0  0  0  0
   40.7820   33.0910   41.5360 C   0  0  0  0  0  0  0  0  0  0  0  0
   40.1760   34.2810   41.4070 N   0  0  0  0  0  0  0  0  0  0  0  0
   40.2030   36.5630   40.6390 N   0  0  0  0  0  0  0  0  0  0  0  0
   42.6370   35.9020   39.7930 H   0  0  0  0  0  0  0  0  0  0  0  0
   40.2560   32.2820   42.0350 H   0  0  0  0  0  0  0  0  0  0  0  0
   39.9170   37.0560   39.7510 H   0  0  0  0  0  0  0  0  0  0  0  0
   39.9830   37.1800   41.4520 H   0  0  0  0  0  0  0  0  0  0  0  0
   47.5900   34.1290   41.1470 C   0  0  0  0  0  0  0  0  0  0  0  0
   48.1390   35.3770   40.9120 C   0  0  0  0  0  0  0  0  0  0  0  0
   49.2470   35.8830   41.5860 C   0  0  0  0  0  0  0  0  0  0  0  0
   49.8210   35.0670   42.5490 C   0  0  0  0  0  0  0  0  0  0  0  0
   49.2900   33.8160   42.8030 C   0  0  0  0  0  0  0  0  0  0  0  0
   48.1890   33.3610   42.1060 C   0  0  0  0  0  0  0  0  0  0  0  0
   47.7550   36.0880   40.1730 H   0  0  0  0  0  0  0  0  0  0  0  0
   49.6710   36.8420   41.4080 H   0  0  0  0  0  0  0  0  0  0  0  0
   50.6840   35.4010   43.1090 H   0  0  0  0  0  0  0  0  0  0  0  0
   49.6970   33.1290   43.5480 H   0  0  0  0  0  0  0  0  0  0  0  0
   48.1710   31.0640   41.5270 C   0  0  0  0  0  3  0  0  0  0  0  0
   47.6140   32.0460   42.3540 C   0  0  0  0  0  0  0  0  0  0  0  0
   46.6460   31.6410   43.2480 C   0  0  0  0  0  0  0  0  0  0  0  0
   46.2750   32.4630   43.8450 H   0  0  0  0  0  0  0  0  0  0  0  0
   46.2650   30.3190   43.3000 C   0  0  0  0  0  0  0  0  0  0  0  0
   45.3560   29.7420   44.0880 N   0  0  0  0  0  0  0  0  0  0  0  0
   45.3140   28.4180   43.7900 C   0  0  0  0  0  0  0  0  0  0  0  0
   44.6730   27.6780   44.2620 H   0  0  0  0  0  0  0  0  0  0  0  0
   46.2160   28.2000   42.8040 N   0  0  0  0  0  0  0  0  0  0  0  0
   46.8120   29.3750   42.4920 C   0  0  0  0  0  0  0  0  0  0  0  0
   47.7850   29.7300   41.5810 C   0  0  0  0  0  3  0  0  0  0  0  0
   44.7580   30.1940   44.8220 H   0  0  0  0  0  0  0  0  0  0  0  0
   44.7090   34.9840   43.1100 N   0  0  0  0  0  0  0  0  0  0  0  0
   44.8890   34.5220   42.0440 C   0  0  0  0  0  0  0  0  0  0  0  0
  1 44  1  0  0  0  0
  2 12  1  0  0  0  0
  2  1  2  0  0  0  0
  3  2  1  0  0  0  0
  4  3  2  0  0  0  0
  4  5  1  0  0  0  0
  5  6  2  0  0  0  0
  6  1  1  0  0  0  0
  6 21  1  0  0  0  0
  7  3  1  0  0  0  0
  8  4  1  0  0  0  0
  9  5  1  0  0  0  0
 10 15  1  0  0  0  0
 11 12  1  0  0  0  0
 11 10  2  0  0  0  0
 12 13  2  0  0  0  0
 13 14  1  0  0  0  0
 14 18  1  0  0  0  0
 15 14  2  0  0  0  0
 16 10  1  0  0  0  0
 16 20  1  0  0  0  0
 17 11  1  0  0  0  0
 19 16  1  0  0  0  0
 21 26  1  0  0  0  0
 22 21  2  0  0  0  0
 22 23  1  0  0  0  0
 23 24  2  0  0  0  0
 24 25  1  0  0  0  0
 24 29  1  0  0  0  0
 25 30  1  0  0  0  0
 26 32  1  0  0  0  0
 26 25  2  0  0  0  0
 27 22  1  0  0  0  0
 28 23  1  0  0  0  0
 31 41  2  0  0  0  0
 31 32  1  0  0  0  0
 32 33  2  0  0  0  0
 33 35  1  0  0  0  0
 33 34  1  0  0  0  0
 35 36  1  0  0  0  0
 36 42  1  0  0  0  0
 37 36  1  0  0  0  0
 37 38  1  0  0  0  0
 39 37  2  0  0  0  0
 40 39  1  0  0  0  0
 40 35  2  0  0  0  0
 41 40  1  0  0  0  0
 44 43  3  0  0  0  0
M  END
>  <minimizedAffinity>
-6.12165308

>  <minimizedRMSD>
0.303942978

$$$$
