
 OpenBabel03252506563D

 41 46  0  0  0  0  0  0  0  0999 V2000
   47.1430   31.3320   45.1510 C   0  0  0  0  0  0  0  0  0  0  0  0
   46.8310   32.6870   45.1700 C   0  0  0  0  0  0  0  0  0  0  0  0
   46.2690   33.3040   46.2620 C   0  0  0  0  0  0  0  0  0  0  0  0
   45.9840   32.5820   47.4140 C   0  0  0  0  0  0  0  0  0  0  0  0
   45.4470   32.8510   48.6430 N   0  0  0  0  0  0  0  0  0  0  0  0
   45.4290   31.6960   49.3590 C   0  0  0  0  0  0  0  0  0  0  0  0
   45.9500   30.7370   48.5700 N   0  0  0  0  0  0  0  0  0  0  0  0
   46.2970   31.2460   47.3820 C   0  0  0  0  0  0  0  0  0  0  0  0
   46.8550   30.6020   46.3170 C   0  0  0  0  0  0  0  0  0  0  0  0
   47.5860   30.8390   44.2960 H   0  0  0  0  0  0  0  0  0  0  0  0
   46.0240   34.3590   46.2810 H   0  0  0  0  0  0  0  0  0  0  0  0
   45.1310   33.8190   48.8960 H   0  0  0  0  0  0  0  0  0  0  0  0
   45.0500   31.6350   50.3710 H   0  0  0  0  0  0  0  0  0  0  0  0
   46.4920   35.1760   42.4880 C   0  0  0  0  0  0  0  0  0  0  0  0
   47.6710   34.9860   41.7500 C   0  0  0  0  0  0  0  0  0  0  0  0
   48.5640   34.0100   42.1770 C   0  0  0  0  0  0  0  0  0  0  0  0
   48.2620   33.2750   43.2990 N   0  0  0  0  0  0  0  0  0  0  0  0
   47.1100   33.4930   43.9830 C   0  0  0  0  0  0  0  0  0  0  0  0
   46.2290   34.4290   43.5930 N   0  0  0  0  0  0  0  0  0  0  0  0
   45.7840   35.9290   42.1730 H   0  0  0  0  0  0  0  0  0  0  0  0
   47.8680   35.5840   40.8780 H   0  0  0  0  0  0  0  0  0  0  0  0
   49.4700   33.8520   41.6250 H   0  0  0  0  0  0  0  0  0  0  0  0
   47.1580   29.1570   46.3740 C   0  0  0  0  0  0  0  0  0  0  0  0
   48.4460   28.6340   46.4200 C   0  0  0  0  0  0  0  0  0  0  0  0
   48.2250   27.2500   46.4640 C   0  0  0  0  0  0  0  0  0  0  0  0
   46.8580   27.0200   46.4420 C   0  0  0  0  0  0  0  0  0  0  0  0
   46.2710   28.2050   46.3880 O   0  0  0  0  0  0  0  0  0  0  0  0
   49.3400   29.2410   46.4180 H   0  0  0  0  0  0  0  0  0  0  0  0
   49.0530   26.5480   46.5060 H   0  0  0  0  0  0  0  0  0  0  0  0
   46.4530   24.8240   47.5340 C   0  0  0  0  0  3  0  0  0  0  0  0
   46.2630   25.6890   46.4760 C   0  0  0  0  0  0  0  0  0  0  0  0
   45.4730   25.2650   45.4040 C   0  0  0  0  0  0  0  0  0  0  0  0
   45.2810   25.8980   44.5360 H   0  0  0  0  0  0  0  0  0  0  0  0
   44.9270   23.9980   45.4720 C   0  0  0  0  0  0  0  0  0  0  0  0
   44.1300   23.2710   44.6390 N   0  0  0  0  0  0  0  0  0  0  0  0
   43.8630   22.0590   45.1620 C   0  0  0  0  0  0  0  0  0  0  0  0
   43.2410   21.3700   44.6140 H   0  0  0  0  0  0  0  0  0  0  0  0
   44.4950   21.9880   46.3580 N   0  0  0  0  0  0  0  0  0  0  0  0
   45.1330   23.1460   46.5460 C   0  0  0  0  0  0  0  0  0  0  0  0
   45.9140   23.5750   47.5970 C   0  0  0  0  0  3  0  0  0  0  0  0
   43.8110   23.6770   43.7280 H   0  0  0  0  0  0  0  0  0  0  0  0
  1  2  2  0  0  0  0
  1  9  1  0  0  0  0
  2  3  1  0  0  0  0
  3 11  1  0  0  0  0
  3  4  2  0  0  0  0
  4  5  1  0  0  0  0
  5 12  1  0  0  0  0
  5  6  1  0  0  0  0
  6 13  1  0  0  0  0
  7  6  2  0  0  0  0
  8  4  1  0  0  0  0
  8  7  1  0  0  0  0
  9 23  1  0  0  0  0
  9  8  2  0  0  0  0
 10  1  1  0  0  0  0
 14 19  1  0  0  0  0
 15 16  1  0  0  0  0
 15 14  2  0  0  0  0
 16 17  2  0  0  0  0
 17 18  1  0  0  0  0
 18  2  1  0  0  0  0
 19 18  2  0  0  0  0
 20 14  1  0  0  0  0
 21 15  1  0  0  0  0
 22 16  1  0  0  0  0
 23 27  1  0  0  0  0
 23 24  2  0  0  0  0
 24 25  1  0  0  0  0
 25 29  1  0  0  0  0
 26 25  2  0  0  0  0
 26 31  1  0  0  0  0
 27 26  1  0  0  0  0
 28 24  1  0  0  0  0
 30 40  1  0  0  0  0
 31 30  2  0  0  0  0
 32 34  2  0  0  0  0
 32 31  1  0  0  0  0
 33 32  1  0  0  0  0
 34 39  1  0  0  0  0
 35 36  1  0  0  0  0
 35 34  1  0  0  0  0
 36 38  2  0  0  0  0
 37 36  1  0  0  0  0
 38 39  1  0  0  0  0
 39 40  2  0  0  0  0
 41 35  1  0  0  0  0
M  END
>  <minimizedAffinity>
-5.66563559

>  <minimizedRMSD>
0.423719049

$$$$
