
 OpenBabel03242516003D

 31 34  0  0  0  0  0  0  0  0999 V2000
   44.9740   33.0380   41.0890 Cl  0  0  0  0  0  0  0  0  0  0  0  0
   46.4610   33.9470   40.9040 C   0  0  0  0  0  0  0  0  0  0  0  0
   46.9140   34.7660   41.8920 C   0  0  0  0  0  0  0  0  0  0  0  0
   48.0870   35.4290   41.6430 C   0  0  0  0  0  0  0  0  0  0  0  0
   48.7890   35.3030   40.4830 C   0  0  0  0  0  0  0  0  0  0  0  0
   48.3240   34.4720   39.4880 C   0  0  0  0  0  0  0  0  0  0  0  0
   47.1440   33.7930   39.7180 C   0  0  0  0  0  0  0  0  0  0  0  0
   48.4710   36.0920   42.4210 H   0  0  0  0  0  0  0  0  0  0  0  0
   49.7060   35.8630   40.3690 H   0  0  0  0  0  0  0  0  0  0  0  0
   48.9000   34.4010   38.5990 H   0  0  0  0  0  0  0  0  0  0  0  0
   46.7150   31.5520   38.6330 C   0  0  0  0  0  3  0  0  0  0  0  0
   46.7040   32.9310   38.6270 C   0  0  0  0  0  0  0  0  0  0  0  0
   46.2250   33.5400   37.4620 C   0  0  0  0  0  0  0  0  0  0  0  0
   46.1670   34.6240   37.3340 H   0  0  0  0  0  0  0  0  0  0  0  0
   45.7870   32.8260   36.3770 C   0  0  0  0  0  0  0  0  0  0  0  0
   45.2870   33.0950   35.1580 N   0  0  0  0  0  0  0  0  0  0  0  0
   45.0120   31.9890   34.4670 C   0  0  0  0  0  0  0  0  0  0  0  0
   44.6130   31.8020   33.4890 H   0  0  0  0  0  0  0  0  0  0  0  0
   45.3460   30.9380   35.2720 N   0  0  0  0  0  0  0  0  0  0  0  0
   45.8140   31.4500   36.4230 C   0  0  0  0  0  0  0  0  0  0  0  0
   46.2780   30.8140   37.5530 C   0  0  0  0  0  3  0  0  0  0  0  0
   45.1260   34.0530   34.7770 H   0  0  0  0  0  0  0  0  0  0  0  0
   44.4810   35.9830   44.5320 C   0  0  0  0  0  0  0  0  0  0  0  0
   45.2120   35.8970   43.3410 C   0  0  0  0  0  0  0  0  0  0  0  0
   46.1460   34.8790   43.1120 C   0  0  0  0  0  0  0  0  0  0  0  0
   46.2890   33.9880   44.1270 N   0  0  0  0  0  0  0  0  0  0  0  0
   45.5790   34.0830   45.2680 C   0  0  0  0  0  0  0  0  0  0  0  0
   44.6890   35.0570   45.4790 N   0  0  0  0  0  0  0  0  0  0  0  0
   43.7890   36.8200   44.5810 H   0  0  0  0  0  0  0  0  0  0  0  0
   45.0950   36.6050   42.5380 H   0  0  0  0  0  0  0  0  0  0  0  0
   45.7360   33.3320   46.0580 H   0  0  0  0  0  0  0  0  0  0  0  0
  2  1  1  0  0  0  0
  2  3  1  0  0  0  0
  3 25  1  0  0  0  0
  4  3  2  0  0  0  0
  4  8  1  0  0  0  0
  5  4  1  0  0  0  0
  6  7  1  0  0  0  0
  6  5  2  0  0  0  0
  7  2  2  0  0  0  0
  9  5  1  0  0  0  0
 10  6  1  0  0  0  0
 12 11  1  0  0  0  0
 12  7  1  0  0  0  0
 13 12  2  0  0  0  0
 14 13  1  0  0  0  0
 15 20  2  0  0  0  0
 15 13  1  0  0  0  0
 16 15  1  0  0  0  0
 17 16  1  0  0  0  0
 17 19  2  0  0  0  0
 18 17  1  0  0  0  0
 19 20  1  0  0  0  0
 20 21  1  0  0  0  0
 21 11  2  0  0  0  0
 22 16  1  0  0  0  0
 23 29  1  0  0  0  0
 23 28  1  0  0  0  0
 24 23  2  0  0  0  0
 25 24  1  0  0  0  0
 25 26  2  0  0  0  0
 26 27  1  0  0  0  0
 27 28  2  0  0  0  0
 27 31  1  0  0  0  0
 30 24  1  0  0  0  0
M  END
>  <minimizedAffinity>
-6.47744322

>  <minimizedRMSD>
0.362770319

$$$$
