
 OpenBabel03242518253D

 48 53  0  0  1  0  0  0  0  0999 V2000
   46.9220   30.4090   44.9120 C   0  0  0  0  0  0  0  0  0  0  0  0
   46.4360   31.6520   45.1710 C   0  0  0  0  0  0  0  0  0  0  0  0
   46.7170   32.2490   46.3870 C   0  0  0  0  0  0  0  0  0  0  0  0
   47.4900   31.5530   47.3080 C   0  0  0  0  0  0  0  0  0  0  0  0
   47.9840   30.2860   47.0400 C   0  0  0  0  0  0  0  0  0  0  0  0
   47.6970   29.6980   45.8220 C   0  0  0  0  0  0  0  0  0  0  0  0
   48.7110   29.8690   48.1500 O   0  0  0  0  0  0  0  0  0  0  0  0
   48.4210   30.7630   49.2220 C   0  0  2  0  0  0  0  0  0  0  0  0
   47.9200   31.9150   48.5980 O   0  0  0  0  0  0  0  0  0  0  0  0
   46.7310   29.9040   43.9830 H   0  0  0  0  0  0  0  0  0  0  0  0
   46.3160   33.2310   46.5570 H   0  0  0  0  0  0  0  0  0  0  0  0
   48.0790   28.7120   45.6080 H   0  0  0  0  0  0  0  0  0  0  0  0
   47.6140   30.3410   49.8530 H   0  0  0  0  0  0  0  0  0  0  0  0
   50.3430   32.2180   49.7720 C   0  0  0  0  0  0  0  0  0  0  0  0
   49.6520   31.0320   50.0060 C   0  0  0  0  0  0  0  0  0  0  0  0
   50.1600   30.1750   50.9630 C   0  0  0  0  0  0  0  0  0  0  0  0
   49.6190   29.2430   51.1510 H   0  0  0  0  0  0  0  0  0  0  0  0
   51.3100   30.4960   51.6520 C   0  0  0  0  0  0  0  0  0  0  0  0
   52.0030   29.8440   52.6190 N   0  0  0  0  0  0  0  0  0  0  0  0
   53.0800   30.5840   52.9760 C   0  0  0  0  0  0  0  0  0  0  0  0
   53.8030   30.2840   53.7380 H   0  0  0  0  0  0  0  0  0  0  0  0
   53.0620   31.7160   52.2230 N   0  0  0  0  0  0  0  0  0  0  0  0
   51.9930   31.6640   51.4210 C   0  0  0  0  0  0  0  0  0  0  0  0
   51.4970   32.5370   50.4630 C   0  0  0  0  0  0  0  0  0  0  0  0
   51.7800   28.9140   53.0530 H   0  0  0  0  0  0  0  0  0  0  0  0
   44.8300   34.3320   43.2050 C   0  0  0  0  0  0  0  0  0  0  0  0
   44.0860   33.6160   42.2610 C   0  0  0  0  0  0  0  0  0  0  0  0
   44.1520   32.2320   42.3200 C   0  0  0  0  0  0  0  0  0  0  0  0
   44.9130   31.6110   43.2610 N   0  0  0  0  0  0  0  0  0  0  0  0
   45.6180   32.3490   44.1580 C   0  0  0  0  0  0  0  0  0  0  0  0
   45.5810   33.7030   44.1370 N   0  0  0  0  0  0  0  0  0  0  0  0
   44.8640   35.4040   43.2680 H   0  0  0  0  0  0  0  0  0  0  0  0
   43.5810   31.6970   41.5930 H   0  0  0  0  0  0  0  0  0  0  0  0
   43.3450   34.3800   41.3450 N   0  0  0  0  0  0  0  0  0  0  0  0
   43.2350   33.8730   39.9940 C   0  0  0  0  0  0  0  0  0  0  0  0
   42.5310   34.7840   39.0610 C   0  0  0  0  0  0  0  0  0  0  0  0
   41.2900   35.2490   39.6050 N   0  0  0  0  0  0  0  0  0  0  0  0
   41.2570   35.5640   40.9770 C   0  0  0  0  0  0  0  0  0  0  0  0
   42.6700   35.6120   41.5610 C   0  0  0  0  0  0  0  0  0  0  0  0
   42.6550   32.9100   40.0700 H   0  0  0  0  0  0  0  0  0  0  0  0
   44.2260   33.5810   39.6310 H   0  0  0  0  0  0  0  0  0  0  0  0
   43.1840   35.6930   38.9080 H   0  0  0  0  0  0  0  0  0  0  0  0
   42.3630   34.2790   38.1120 H   0  0  0  0  0  0  0  0  0  0  0  0
   40.8070   35.9220   38.9760 H   0  0  0  0  0  0  0  0  0  0  0  0
   40.8790   36.6180   41.0760 H   0  0  0  0  0  0  0  0  0  0  0  0
   40.6120   34.9350   41.5960 H   0  0  0  0  0  0  0  0  0  0  0  0
   43.2250   36.4930   41.1800 H   0  0  0  0  0  0  0  0  0  0  0  0
   42.5470   35.7780   42.6490 H   0  0  0  0  0  0  0  0  0  0  0  0
  1  2  2  0  0  0  0
  1  6  1  0  0  0  0
  2  3  1  0  0  0  0
  3 11  1  0  0  0  0
  3  4  2  0  0  0  0
  4  9  1  0  0  0  0
  5  4  1  0  0  0  0
  5  7  1  0  0  0  0
  6  5  2  0  0  0  0
  7  8  1  0  0  0  0
  8 13  1  1  0  0  0
  8 15  1  0  0  0  0
  9  8  1  0  0  0  0
 10  1  1  0  0  0  0
 12  6  1  0  0  0  0
 14 15  2  0  0  0  0
 14 24  1  0  0  0  0
 15 16  1  0  0  0  0
 16 17  1  0  0  0  0
 16 18  2  0  0  0  0
 18 19  1  0  0  0  0
 19 20  1  0  0  0  0
 19 25  1  0  0  0  0
 20 21  1  0  0  0  0
 22 20  2  0  0  0  0
 23 18  1  0  0  0  0
 23 22  1  0  0  0  0
 24 23  2  0  0  0  0
 26 32  1  0  0  0  0
 26 31  1  0  0  0  0
 27 28  1  0  0  0  0
 27 26  2  0  0  0  0
 28 29  2  0  0  0  0
 29 30  1  0  0  0  0
 30  2  1  0  0  0  0
 31 30  2  0  0  0  0
 33 28  1  0  0  0  0
 34 39  1  0  0  0  0
 34 27  1  0  0  0  0
 35 40  1  0  0  0  0
 35 34  1  0  0  0  0
 36 37  1  0  0  0  0
 36 35  1  0  0  0  0
 37 38  1  0  0  0  0
 38 45  1  0  0  0  0
 38 39  1  0  0  0  0
 38 46  1  0  0  0  0
 39 48  1  0  0  0  0
 41 35  1  0  0  0  0
 42 36  1  0  0  0  0
 43 36  1  0  0  0  0
 44 37  1  0  0  0  0
 47 39  1  0  0  0  0
M  END
>  <minimizedAffinity>
-6.70120716

>  <minimizedRMSD>
1.25836754

$$$$
