
 OpenBabel03252508333D

 35 38  0  0  1  0  0  0  0  0999 V2000
   44.3700   34.3400   41.7180 N   0  0  0  0  0  0  0  0  0  0  0  0
   44.1520   33.3720   40.6920 C   0  0  2  0  0  0  0  0  0  0  0  0
   43.4000   33.9520   39.5170 C   0  0  0  0  0  0  0  0  0  0  0  0
   42.2050   34.6200   39.9260 N   0  0  0  0  0  0  0  0  0  0  0  0
   42.3650   35.5190   41.0020 C   0  0  0  0  0  0  0  0  0  0  0  0
   43.7970   35.6480   41.4720 C   0  0  0  0  0  0  0  0  0  0  0  0
   45.1560   33.0640   40.3080 H   0  0  0  0  0  0  0  0  0  0  0  0
   44.0680   34.6990   39.0390 H   0  0  0  0  0  0  0  0  0  0  0  0
   43.1600   33.1860   38.7810 H   0  0  0  0  0  0  0  0  0  0  0  0
   41.4940   33.8910   40.1870 H   0  0  0  0  0  0  0  0  0  0  0  0
   41.7430   35.3310   41.9000 H   0  0  0  0  0  0  0  0  0  0  0  0
   42.0810   36.5390   40.6270 H   0  0  0  0  0  0  0  0  0  0  0  0
   44.3590   36.0460   40.5780 H   0  0  0  0  0  0  0  0  0  0  0  0
   43.7940   36.3340   42.3050 H   0  0  0  0  0  0  0  0  0  0  0  0
   43.7060   30.9010   40.5490 C   0  0  0  0  0  3  0  0  0  0  0  0
   43.4460   32.1490   41.0820 C   0  0  0  0  0  0  0  0  0  0  0  0
   42.4360   32.0860   42.0530 C   0  0  0  0  0  0  0  0  0  0  0  0
   42.1510   33.0290   42.5430 H   0  0  0  0  0  0  0  0  0  0  0  0
   41.7740   30.9540   42.4480 C   0  0  0  0  0  0  0  0  0  0  0  0
   40.8000   30.7640   43.3570 N   0  0  0  0  0  0  0  0  0  0  0  0
   40.5110   29.4510   43.3480 C   0  0  0  0  0  0  0  0  0  0  0  0
   39.7340   29.0570   44.0210 H   0  0  0  0  0  0  0  0  0  0  0  0
   41.2990   28.8500   42.4450 N   0  0  0  0  0  0  0  0  0  0  0  0
   42.0980   29.7550   41.8660 C   0  0  0  0  0  0  0  0  0  0  0  0
   43.0820   29.7220   40.8980 C   0  0  0  0  0  3  0  0  0  0  0  0
   40.3590   31.5120   43.9560 H   0  0  0  0  0  0  0  0  0  0  0  0
   44.7770   34.5640   44.0870 C   0  0  0  0  0  0  0  0  0  0  0  0
   45.1120   33.9760   42.8750 C   0  0  0  0  0  0  0  0  0  0  0  0
   46.1450   33.0640   42.8780 C   0  0  0  0  0  0  0  0  0  0  0  0
   46.7790   32.7810   44.0360 N   0  0  0  0  0  0  0  0  0  0  0  0
   46.4350   33.3630   45.2000 C   0  0  0  0  0  0  0  0  0  0  0  0
   45.4430   34.2440   45.2120 N   0  0  0  0  0  0  0  0  0  0  0  0
   44.0030   35.2900   44.2660 H   0  0  0  0  0  0  0  0  0  0  0  0
   46.4470   32.5890   41.9700 H   0  0  0  0  0  0  0  0  0  0  0  0
   47.0360   33.0340   46.0420 H   0  0  0  0  0  0  0  0  0  0  0  0
  1 28  1  0  0  0  0
  2  7  1  6  0  0  0
  2 16  1  0  0  0  0
  2  1  1  0  0  0  0
  3  4  1  0  0  0  0
  3  2  1  0  0  0  0
  4 10  1  0  0  0  0
  4  5  1  0  0  0  0
  5  6  1  0  0  0  0
  5 11  1  0  0  0  0
  6  1  1  0  0  0  0
  6 14  1  0  0  0  0
  8  3  1  0  0  0  0
  9  3  1  0  0  0  0
 12  5  1  0  0  0  0
 13  6  1  0  0  0  0
 15 25  2  0  0  0  0
 15 16  1  0  0  0  0
 16 17  2  0  0  0  0
 17 19  1  0  0  0  0
 17 18  1  0  0  0  0
 19 20  1  0  0  0  0
 20 26  1  0  0  0  0
 21 20  1  0  0  0  0
 21 22  1  0  0  0  0
 23 21  2  0  0  0  0
 24 23  1  0  0  0  0
 24 19  2  0  0  0  0
 25 24  1  0  0  0  0
 27 33  1  0  0  0  0
 27 32  1  0  0  0  0
 28 29  1  0  0  0  0
 28 27  2  0  0  0  0
 29 30  2  0  0  0  0
 30 31  1  0  0  0  0
 31 32  2  0  0  0  0
 31 35  1  0  0  0  0
 34 29  1  0  0  0  0
M  END
>  <minimizedAffinity>
-4.07828331

>  <minimizedRMSD>
0.702982366

$$$$
