
 OpenBabel03252506563D

 41 46  0  0  0  0  0  0  0  0999 V2000
   47.3370   31.4220   45.1850 C   0  0  0  0  0  0  0  0  0  0  0  0
   46.8800   32.7350   45.1410 C   0  0  0  0  0  0  0  0  0  0  0  0
   46.2030   33.3200   46.1850 C   0  0  0  0  0  0  0  0  0  0  0  0
   45.9420   32.6070   47.3480 C   0  0  0  0  0  0  0  0  0  0  0  0
   45.3200   32.8540   48.5400 N   0  0  0  0  0  0  0  0  0  0  0  0
   45.3910   31.7260   49.2950 C   0  0  0  0  0  0  0  0  0  0  0  0
   46.0510   30.8060   48.5660 N   0  0  0  0  0  0  0  0  0  0  0  0
   46.3980   31.3120   47.3770 C   0  0  0  0  0  0  0  0  0  0  0  0
   47.0730   30.7010   46.3620 C   0  0  0  0  0  0  0  0  0  0  0  0
   47.8720   30.9540   44.3690 H   0  0  0  0  0  0  0  0  0  0  0  0
   45.8460   34.3420   46.1550 H   0  0  0  0  0  0  0  0  0  0  0  0
   44.8900   33.7890   48.7440 H   0  0  0  0  0  0  0  0  0  0  0  0
   44.9720   31.6550   50.2920 H   0  0  0  0  0  0  0  0  0  0  0  0
   46.4590   35.1800   42.4310 C   0  0  0  0  0  0  0  0  0  0  0  0
   47.6330   35.0020   41.6810 C   0  0  0  0  0  0  0  0  0  0  0  0
   48.5500   34.0510   42.1100 C   0  0  0  0  0  0  0  0  0  0  0  0
   48.2770   33.3250   43.2450 N   0  0  0  0  0  0  0  0  0  0  0  0
   47.1290   33.5300   43.9400 C   0  0  0  0  0  0  0  0  0  0  0  0
   46.2240   34.4430   43.5490 N   0  0  0  0  0  0  0  0  0  0  0  0
   45.7320   35.9140   42.1140 H   0  0  0  0  0  0  0  0  0  0  0  0
   47.8060   35.5920   40.7980 H   0  0  0  0  0  0  0  0  0  0  0  0
   49.4520   33.9030   41.5480 H   0  0  0  0  0  0  0  0  0  0  0  0
   47.5260   29.3000   46.4840 C   0  0  0  0  0  0  0  0  0  0  0  0
   48.8420   28.9280   46.7380 C   0  0  0  0  0  0  0  0  0  0  0  0
   48.7760   27.5270   46.7640 C   0  0  0  0  0  0  0  0  0  0  0  0
   47.4650   27.1430   46.5310 C   0  0  0  0  0  0  0  0  0  0  0  0
   46.7630   28.2520   46.3700 O   0  0  0  0  0  0  0  0  0  0  0  0
   49.6500   29.6340   46.8690 H   0  0  0  0  0  0  0  0  0  0  0  0
   49.6620   26.9260   46.9450 H   0  0  0  0  0  0  0  0  0  0  0  0
   45.7600   25.3900   46.0830 C   0  0  0  0  0  3  0  0  0  0  0  0
   47.0290   25.7520   46.4880 C   0  0  0  0  0  0  0  0  0  0  0  0
   47.9200   24.7440   46.8680 C   0  0  0  0  0  0  0  0  0  0  0  0
   48.9370   24.9600   47.1980 H   0  0  0  0  0  0  0  0  0  0  0  0
   47.4720   23.4390   46.8150 C   0  0  0  0  0  0  0  0  0  0  0  0
   48.0430   22.2350   47.1000 N   0  0  0  0  0  0  0  0  0  0  0  0
   47.1780   21.2260   46.8820 C   0  0  0  0  0  0  0  0  0  0  0  0
   47.4900   20.2110   47.0660 H   0  0  0  0  0  0  0  0  0  0  0  0
   46.0200   21.7750   46.4460 N   0  0  0  0  0  0  0  0  0  0  0  0
   46.1910   23.0990   46.4030 C   0  0  0  0  0  0  0  0  0  0  0  0
   45.3230   24.1000   46.0310 C   0  0  0  0  0  3  0  0  0  0  0  0
   49.0320   22.1890   47.4410 H   0  0  0  0  0  0  0  0  0  0  0  0
  1  9  1  0  0  0  0
  2  1  2  0  0  0  0
  2  3  1  0  0  0  0
  3  4  2  0  0  0  0
  4  8  1  0  0  0  0
  4  5  1  0  0  0  0
  5 12  1  0  0  0  0
  5  6  1  0  0  0  0
  6 13  1  0  0  0  0
  7  6  2  0  0  0  0
  8  7  1  0  0  0  0
  9 23  1  0  0  0  0
  9  8  2  0  0  0  0
 10  1  1  0  0  0  0
 11  3  1  0  0  0  0
 14 19  1  0  0  0  0
 15 16  1  0  0  0  0
 15 14  2  0  0  0  0
 16 17  2  0  0  0  0
 17 18  1  0  0  0  0
 18  2  1  0  0  0  0
 19 18  2  0  0  0  0
 20 14  1  0  0  0  0
 21 15  1  0  0  0  0
 22 16  1  0  0  0  0
 23 24  2  0  0  0  0
 24 25  1  0  0  0  0
 24 28  1  0  0  0  0
 25 29  1  0  0  0  0
 26 25  2  0  0  0  0
 27 23  1  0  0  0  0
 27 26  1  0  0  0  0
 30 31  1  0  0  0  0
 31 26  1  0  0  0  0
 31 32  2  0  0  0  0
 32 33  1  0  0  0  0
 34 32  1  0  0  0  0
 34 35  1  0  0  0  0
 35 41  1  0  0  0  0
 36 37  1  0  0  0  0
 36 35  1  0  0  0  0
 38 36  2  0  0  0  0
 39 38  1  0  0  0  0
 39 34  2  0  0  0  0
 40 30  2  0  0  0  0
 40 39  1  0  0  0  0
M  END
>  <minimizedAffinity>
-5.57949686

>  <minimizedRMSD>
0.283930331

$$$$
