
 OpenBabel03242514443D

 24 26  0  0  0  0  0  0  0  0999 V2000
   45.2070   35.2310   43.9600 C   0  0  0  0  0  0  0  0  0  0  0  0
   46.1690   34.3480   43.4710 C   0  0  0  0  0  0  0  0  0  0  0  0
   46.6670   33.3610   44.3590 C   0  0  0  0  0  0  0  0  0  0  0  0
   46.1720   33.3480   45.6170 N   0  0  0  0  0  0  0  0  0  0  0  0
   45.2360   34.2280   46.0460 C   0  0  0  0  0  0  0  0  0  0  0  0
   44.7500   35.1800   45.2050 N   0  0  0  0  0  0  0  0  0  0  0  0
   47.4030   32.6390   44.0850 H   0  0  0  0  0  0  0  0  0  0  0  0
   44.8450   34.2130   47.0500 H   0  0  0  0  0  0  0  0  0  0  0  0
   47.9100   35.0650   41.9930 C   0  0  0  0  0  0  0  0  0  0  0  0
   46.7110   34.3520   42.1160 C   0  0  0  0  0  0  0  0  0  0  0  0
   46.2090   33.7630   40.9730 C   0  0  0  0  0  0  0  0  0  0  0  0
   45.2900   33.2340   41.1380 H   0  0  0  0  0  0  0  0  0  0  0  0
   46.9000   33.8990   39.7860 C   0  0  0  0  0  0  0  0  0  0  0  0
   46.5470   33.3870   38.5810 N   0  0  0  0  0  0  0  0  0  0  0  0
   47.5340   33.7940   37.7470 C   0  0  0  0  0  0  0  0  0  0  0  0
   47.6120   33.5810   36.6810 H   0  0  0  0  0  0  0  0  0  0  0  0
   48.4460   34.5150   38.3920 N   0  0  0  0  0  0  0  0  0  0  0  0
   48.0770   34.6020   39.6800 C   0  0  0  0  0  0  0  0  0  0  0  0
   48.5890   35.1950   40.8080 C   0  0  0  0  0  0  0  0  0  0  0  0
   45.7050   32.8100   38.3510 H   0  0  0  0  0  0  0  0  0  0  0  0
   44.6990   36.2620   43.0070 C   0  0  0  0  0  0  0  0  0  0  0  0
   45.4480   36.5700   42.2510 H   0  0  0  0  0  0  0  0  0  0  0  0
   43.7510   35.8830   42.5980 H   0  0  0  0  0  0  0  0  0  0  0  0
   44.3970   37.1620   43.6200 H   0  0  0  0  0  0  0  0  0  0  0  0
  1  6  1  0  0  0  0
  2  1  2  0  0  0  0
  2  3  1  0  0  0  0
  3  4  2  0  0  0  0
  4  5  1  0  0  0  0
  5  8  1  0  0  0  0
  6  5  2  0  0  0  0
  7  3  1  0  0  0  0
  9 10  1  0  0  0  0
 10  2  1  0  0  0  0
 11 12  1  0  0  0  0
 11 10  2  0  0  0  0
 13 11  1  0  0  0  0
 14 13  1  0  0  0  0
 15 17  2  0  0  0  0
 15 14  1  0  0  0  0
 16 15  1  0  0  0  0
 17 18  1  0  0  0  0
 18 13  2  0  0  0  0
 18 19  1  0  0  0  0
 19  9  2  0  0  0  0
 20 14  1  0  0  0  0
 21 24  1  0  0  0  0
 21  1  1  0  0  0  0
 22 21  1  0  0  0  0
 23 21  1  0  0  0  0
M  END
>  <minimizedAffinity>
-5.39729929

>  <minimizedRMSD>
1.68844903

$$$$
