
 OpenBabel03242523043D

 35 38  0  0  0  0  0  0  0  0999 V2000
   42.9310   33.0080   40.7010 C   0  0  0  0  0  0  0  0  0  0  0  0
   41.8590   32.1300   40.7480 C   0  0  0  0  0  0  0  0  0  0  0  0
   41.6600   31.4510   41.9200 C   0  0  0  0  0  0  0  0  0  0  0  0
   42.5100   31.6570   42.9770 N   0  0  0  0  0  0  0  0  0  0  0  0
   43.5400   32.5190   42.8890 C   0  0  0  0  0  0  0  0  0  0  0  0
   43.7420   33.1840   41.7610 N   0  0  0  0  0  0  0  0  0  0  0  0
   43.2390   33.6170   39.8730 H   0  0  0  0  0  0  0  0  0  0  0  0
   44.2260   32.6930   43.7250 H   0  0  0  0  0  0  0  0  0  0  0  0
   41.0650   31.9530   39.6120 N   0  0  0  0  0  0  0  0  0  0  0  0
   39.7960   32.5800   39.4750 C   0  0  0  0  0  0  0  0  0  0  0  0
   39.0530   32.0490   38.2360 C   0  0  0  0  0  0  0  0  0  0  0  0
   39.8620   32.2570   37.0810 N   0  0  0  0  0  0  0  0  0  0  0  0
   41.2110   31.8540   37.1720 C   0  0  0  0  0  0  0  0  0  0  0  0
   41.4670   31.1120   38.4780 C   0  0  0  0  0  0  0  0  0  0  0  0
   39.9210   33.6300   39.1870 H   0  0  0  0  0  0  0  0  0  0  0  0
   39.1370   32.3090   40.2870 H   0  0  0  0  0  0  0  0  0  0  0  0
   38.1090   32.6020   38.1310 H   0  0  0  0  0  0  0  0  0  0  0  0
   38.8230   30.9780   38.3330 H   0  0  0  0  0  0  0  0  0  0  0  0
   39.7030   33.1570   36.5940 H   0  0  0  0  0  0  0  0  0  0  0  0
   41.4090   31.1110   36.3780 H   0  0  0  0  0  0  0  0  0  0  0  0
   41.9390   32.6620   37.0710 H   0  0  0  0  0  0  0  0  0  0  0  0
   42.5510   30.9200   38.4620 H   0  0  0  0  0  0  0  0  0  0  0  0
   40.9240   30.1470   38.5210 H   0  0  0  0  0  0  0  0  0  0  0  0
   41.2560   29.1890   42.4640 C   0  0  0  0  0  3  0  0  0  0  0  0
   40.6970   30.4800   42.2840 C   0  0  0  0  0  0  0  0  0  0  0  0
   39.3470   30.4340   42.5870 C   0  0  0  0  0  0  0  0  0  0  0  0
   38.9190   31.4450   42.4690 H   0  0  0  0  0  0  0  0  0  0  0  0
   38.6120   29.3540   42.9980 C   0  0  0  0  0  0  0  0  0  0  0  0
   37.3140   29.2900   43.2920 N   0  0  0  0  0  0  0  0  0  0  0  0
   37.1290   27.9860   43.6360 C   0  0  0  0  0  0  0  0  0  0  0  0
   36.2320   27.4810   43.9480 H   0  0  0  0  0  0  0  0  0  0  0  0
   38.3010   27.3030   43.5420 N   0  0  0  0  0  0  0  0  0  0  0  0
   39.2520   28.1460   43.1400 C   0  0  0  0  0  0  0  0  0  0  0  0
   40.5890   28.0300   42.8780 C   0  0  0  0  0  3  0  0  0  0  0  0
   36.5840   30.0250   43.2790 H   0  0  0  0  0  0  0  0  0  0  0  0
  1  2  2  0  0  0  0
  1  6  1  0  0  0  0
  2  3  1  0  0  0  0
  3 25  1  0  0  0  0
  3  4  2  0  0  0  0
  5  4  1  0  0  0  0
  5  8  1  0  0  0  0
  6  5  2  0  0  0  0
  7  1  1  0  0  0  0
  9  2  1  0  0  0  0
 10  9  1  0  0  0  0
 10 16  1  0  0  0  0
 11 18  1  0  0  0  0
 11 10  1  0  0  0  0
 12 13  1  0  0  0  0
 12 11  1  0  0  0  0
 13 14  1  0  0  0  0
 14 23  1  0  0  0  0
 14  9  1  0  0  0  0
 15 10  1  0  0  0  0
 17 11  1  0  0  0  0
 19 12  1  0  0  0  0
 20 13  1  0  0  0  0
 21 13  1  0  0  0  0
 22 14  1  0  0  0  0
 24 34  1  0  0  0  0
 25 24  2  0  0  0  0
 25 26  1  0  0  0  0
 26 28  2  0  0  0  0
 27 26  1  0  0  0  0
 28 33  1  0  0  0  0
 28 29  1  0  0  0  0
 29 30  1  0  0  0  0
 30 31  1  0  0  0  0
 32 30  2  0  0  0  0
 33 32  1  0  0  0  0
 34 33  2  0  0  0  0
 35 29  1  0  0  0  0
M  END
>  <minimizedAffinity>
-5.83300686

$$$$

 OpenBabel03242523043D

 35 38  0  0  0  0  0  0  0  0999 V2000
   38.2800   29.6770   42.6870 C   0  0  0  0  0  0  0  0  0  0  0  0
   37.6510   29.7650   41.4540 C   0  0  0  0  0  0  0  0  0  0  0  0
   36.6750   28.8440   41.1850 C   0  0  0  0  0  0  0  0  0  0  0  0
   36.3660   27.8880   42.1200 N   0  0  0  0  0  0  0  0  0  0  0  0
   37.0030   27.8380   43.3060 C   0  0  0  0  0  0  0  0  0  0  0  0
   37.9480   28.7250   43.5790 N   0  0  0  0  0  0  0  0  0  0  0  0
   39.0630   30.3060   43.0650 H   0  0  0  0  0  0  0  0  0  0  0  0
   36.7660   27.0810   44.0600 H   0  0  0  0  0  0  0  0  0  0  0  0
   38.0530   30.7470   40.5460 N   0  0  0  0  0  0  0  0  0  0  0  0
   39.1890   30.5770   39.7060 C   0  0  0  0  0  0  0  0  0  0  0  0
   39.5250   31.8840   38.9670 C   0  0  0  0  0  0  0  0  0  0  0  0
   38.3860   32.3050   38.2200 N   0  0  0  0  0  0  0  0  0  0  0  0
   37.1510   32.3200   38.9030 C   0  0  0  0  0  0  0  0  0  0  0  0
   37.3500   32.0260   40.3840 C   0  0  0  0  0  0  0  0  0  0  0  0
   38.9370   29.9360   38.8540 H   0  0  0  0  0  0  0  0  0  0  0  0
   40.0800   30.3920   40.2880 H   0  0  0  0  0  0  0  0  0  0  0  0
   40.3650   31.6930   38.2840 H   0  0  0  0  0  0  0  0  0  0  0  0
   39.8170   32.6790   39.6670 H   0  0  0  0  0  0  0  0  0  0  0  0
   38.3470   31.9510   37.2470 H   0  0  0  0  0  0  0  0  0  0  0  0
   36.7440   33.3470   38.8680 H   0  0  0  0  0  0  0  0  0  0  0  0
   36.3970   31.6410   38.5010 H   0  0  0  0  0  0  0  0  0  0  0  0
   36.3240   31.9930   40.7840 H   0  0  0  0  0  0  0  0  0  0  0  0
   37.9170   32.8290   40.8960 H   0  0  0  0  0  0  0  0  0  0  0  0
   36.3900   27.6340   39.1770 C   0  0  0  0  0  3  0  0  0  0  0  0
   35.8770   28.6400   40.0350 C   0  0  0  0  0  0  0  0  0  0  0  0
   34.6750   29.1000   39.5230 C   0  0  0  0  0  0  0  0  0  0  0  0
   34.2650   29.8660   40.2040 H   0  0  0  0  0  0  0  0  0  0  0  0
   34.0350   28.6940   38.3820 C   0  0  0  0  0  0  0  0  0  0  0  0
   32.8820   29.1260   37.8740 N   0  0  0  0  0  0  0  0  0  0  0  0
   32.7330   28.3810   36.7440 C   0  0  0  0  0  0  0  0  0  0  0  0
   31.9410   28.3930   36.0160 H   0  0  0  0  0  0  0  0  0  0  0  0
   33.7850   27.5320   36.5980 N   0  0  0  0  0  0  0  0  0  0  0  0
   34.6190   27.7120   37.6210 C   0  0  0  0  0  0  0  0  0  0  0  0
   35.8110   27.1550   37.9970 C   0  0  0  0  0  3  0  0  0  0  0  0
   32.2220   29.8470   38.2170 H   0  0  0  0  0  0  0  0  0  0  0  0
  1  7  1  0  0  0  0
  1  6  1  0  0  0  0
  2  1  2  0  0  0  0
  3  2  1  0  0  0  0
  3  4  2  0  0  0  0
  4  5  1  0  0  0  0
  5  6  2  0  0  0  0
  5  8  1  0  0  0  0
  9  2  1  0  0  0  0
 10 16  1  0  0  0  0
 10  9  1  0  0  0  0
 11 18  1  0  0  0  0
 11 10  1  0  0  0  0
 12 13  1  0  0  0  0
 12 11  1  0  0  0  0
 13 14  1  0  0  0  0
 14  9  1  0  0  0  0
 14 22  1  0  0  0  0
 14 23  1  0  0  0  0
 15 10  1  0  0  0  0
 17 11  1  0  0  0  0
 19 12  1  0  0  0  0
 20 13  1  0  0  0  0
 21 13  1  0  0  0  0
 24 25  1  0  0  0  0
 25  3  1  0  0  0  0
 26 25  2  0  0  0  0
 26 27  1  0  0  0  0
 28 26  1  0  0  0  0
 29 35  1  0  0  0  0
 29 28  1  0  0  0  0
 30 29  1  0  0  0  0
 31 30  1  0  0  0  0
 32 30  2  0  0  0  0
 32 33  1  0  0  0  0
 33 34  1  0  0  0  0
 33 28  2  0  0  0  0
 34 24  2  0  0  0  0
M  END
>  <minimizedAffinity>
-5.48970366

$$$$

 OpenBabel03242523043D

 35 38  0  0  0  0  0  0  0  0999 V2000
   37.7550   29.4150   42.5900 C   0  0  0  0  0  0  0  0  0  0  0  0
   37.5560   29.7650   41.2630 C   0  0  0  0  0  0  0  0  0  0  0  0
   37.0040   28.8170   40.4440 C   0  0  0  0  0  0  0  0  0  0  0  0
   36.6800   27.5840   40.9530 N   0  0  0  0  0  0  0  0  0  0  0  0
   36.8900   27.2860   42.2490 C   0  0  0  0  0  0  0  0  0  0  0  0
   37.4210   28.1950   43.0530 N   0  0  0  0  0  0  0  0  0  0  0  0
   38.1750   30.0220   43.3680 H   0  0  0  0  0  0  0  0  0  0  0  0
   36.6350   26.3070   42.6680 H   0  0  0  0  0  0  0  0  0  0  0  0
   37.9500   31.0290   40.8190 N   0  0  0  0  0  0  0  0  0  0  0  0
   39.3180   31.4150   40.7590 C   0  0  0  0  0  0  0  0  0  0  0  0
   39.4530   32.9140   40.4410 C   0  0  0  0  0  0  0  0  0  0  0  0
   38.7800   33.1950   39.2160 N   0  0  0  0  0  0  0  0  0  0  0  0
   37.4730   32.6820   39.0800 C   0  0  0  0  0  0  0  0  0  0  0  0
   36.9980   32.0590   40.3860 C   0  0  0  0  0  0  0  0  0  0  0  0
   39.7930   30.9880   39.8680 H   0  0  0  0  0  0  0  0  0  0  0  0
   39.7910   31.3280   41.7260 H   0  0  0  0  0  0  0  0  0  0  0  0
   40.5200   33.1560   40.3410 H   0  0  0  0  0  0  0  0  0  0  0  0
   39.0260   33.5350   41.2430 H   0  0  0  0  0  0  0  0  0  0  0  0
   39.3720   33.1250   38.3680 H   0  0  0  0  0  0  0  0  0  0  0  0
   36.7820   33.5270   38.8990 H   0  0  0  0  0  0  0  0  0  0  0  0
   37.3450   31.9590   38.2710 H   0  0  0  0  0  0  0  0  0  0  0  0
   36.0120   31.6370   40.1320 H   0  0  0  0  0  0  0  0  0  0  0  0
   36.8770   32.8150   41.1880 H   0  0  0  0  0  0  0  0  0  0  0  0
   35.3180   28.9830   38.7980 C   0  0  0  0  0  3  0  0  0  0  0  0
   36.7040   28.8390   39.0610 C   0  0  0  0  0  0  0  0  0  0  0  0
   37.3930   28.8260   37.8600 C   0  0  0  0  0  0  0  0  0  0  0  0
   38.4740   28.7380   38.0670 H   0  0  0  0  0  0  0  0  0  0  0  0
   36.8800   28.9310   36.5940 C   0  0  0  0  0  0  0  0  0  0  0  0
   37.5250   28.9190   35.4290 N   0  0  0  0  0  0  0  0  0  0  0  0
   36.5290   29.0550   34.5110 C   0  0  0  0  0  0  0  0  0  0  0  0
   36.5880   29.0960   33.4380 H   0  0  0  0  0  0  0  0  0  0  0  0
   35.3240   29.1420   35.1350 N   0  0  0  0  0  0  0  0  0  0  0  0
   35.5210   29.0660   36.4500 C   0  0  0  0  0  0  0  0  0  0  0  0
   34.7030   29.0970   37.5460 C   0  0  0  0  0  3  0  0  0  0  0  0
   38.5370   28.8320   35.2190 H   0  0  0  0  0  0  0  0  0  0  0  0
  1  6  1  0  0  0  0
  1  7  1  0  0  0  0
  2  1  2  0  0  0  0
  3  4  2  0  0  0  0
  3  2  1  0  0  0  0
  4  5  1  0  0  0  0
  5  8  1  0  0  0  0
  5  6  2  0  0  0  0
  9  2  1  0  0  0  0
 10  9  1  0  0  0  0
 10 16  1  0  0  0  0
 11 10  1  0  0  0  0
 11 18  1  0  0  0  0
 12 11  1  0  0  0  0
 13 12  1  0  0  0  0
 13 14  1  0  0  0  0
 14  9  1  0  0  0  0
 14 23  1  0  0  0  0
 15 10  1  0  0  0  0
 17 11  1  0  0  0  0
 19 12  1  0  0  0  0
 20 13  1  0  0  0  0
 21 13  1  0  0  0  0
 22 14  1  0  0  0  0
 24 25  1  0  0  0  0
 25  3  1  0  0  0  0
 26 27  1  0  0  0  0
 26 25  2  0  0  0  0
 28 26  1  0  0  0  0
 29 28  1  0  0  0  0
 30 32  2  0  0  0  0
 30 29  1  0  0  0  0
 31 30  1  0  0  0  0
 32 33  1  0  0  0  0
 33 28  2  0  0  0  0
 33 34  1  0  0  0  0
 34 24  2  0  0  0  0
 35 29  1  0  0  0  0
M  END
>  <minimizedAffinity>
-5.36722898

$$$$

 OpenBabel03242523043D

 35 38  0  0  0  0  0  0  0  0999 V2000
   39.2060   32.3900   41.2930 C   0  0  0  0  0  0  0  0  0  0  0  0
   38.5510   31.2720   40.8020 C   0  0  0  0  0  0  0  0  0  0  0  0
   37.5680   31.4820   39.8730 C   0  0  0  0  0  0  0  0  0  0  0  0
   37.2710   32.7620   39.4760 N   0  0  0  0  0  0  0  0  0  0  0  0
   37.9320   33.8210   39.9790 C   0  0  0  0  0  0  0  0  0  0  0  0
   38.8880   33.6310   40.8770 N   0  0  0  0  0  0  0  0  0  0  0  0
   39.9940   32.4170   42.0210 H   0  0  0  0  0  0  0  0  0  0  0  0
   37.7060   34.8470   39.6710 H   0  0  0  0  0  0  0  0  0  0  0  0
   38.8910   30.0070   41.2890 N   0  0  0  0  0  0  0  0  0  0  0  0
   38.5100   29.5720   42.5880 C   0  0  0  0  0  0  0  0  0  0  0  0
   39.1900   28.2380   42.9430 C   0  0  0  0  0  0  0  0  0  0  0  0
   38.8590   27.2670   41.9530 N   0  0  0  0  0  0  0  0  0  0  0  0
   39.0070   27.6610   40.6060 C   0  0  0  0  0  0  0  0  0  0  0  0
   39.6660   29.0310   40.5120 C   0  0  0  0  0  0  0  0  0  0  0  0
   37.4600   29.2570   42.5890 H   0  0  0  0  0  0  0  0  0  0  0  0
   38.8810   30.2430   43.3490 H   0  0  0  0  0  0  0  0  0  0  0  0
   38.8210   27.9070   43.9230 H   0  0  0  0  0  0  0  0  0  0  0  0
   40.2830   28.3460   42.9980 H   0  0  0  0  0  0  0  0  0  0  0  0
   38.0120   26.7070   42.1580 H   0  0  0  0  0  0  0  0  0  0  0  0
   39.7170   26.9690   40.1140 H   0  0  0  0  0  0  0  0  0  0  0  0
   38.0820   27.6670   40.0250 H   0  0  0  0  0  0  0  0  0  0  0  0
   39.6560   29.2530   39.4330 H   0  0  0  0  0  0  0  0  0  0  0  0
   40.7130   29.0150   40.8740 H   0  0  0  0  0  0  0  0  0  0  0  0
   35.7010   30.0480   40.0570 C   0  0  0  0  0  3  0  0  0  0  0  0
   36.7040   30.5810   39.2080 C   0  0  0  0  0  0  0  0  0  0  0  0
   36.5060   30.1060   37.9220 C   0  0  0  0  0  0  0  0  0  0  0  0
   37.2730   30.5400   37.2580 H   0  0  0  0  0  0  0  0  0  0  0  0
   35.5250   29.2590   37.4790 C   0  0  0  0  0  0  0  0  0  0  0  0
   35.3200   28.7910   36.2490 N   0  0  0  0  0  0  0  0  0  0  0  0
   34.2180   28.0030   36.3870 C   0  0  0  0  0  0  0  0  0  0  0  0
   33.6940   27.4230   35.6480 H   0  0  0  0  0  0  0  0  0  0  0  0
   33.7920   28.0130   37.6780 N   0  0  0  0  0  0  0  0  0  0  0  0
   34.6010   28.8000   38.3860 C   0  0  0  0  0  0  0  0  0  0  0  0
   34.6630   29.1810   39.6980 C   0  0  0  0  0  3  0  0  0  0  0  0
   35.8420   28.9570   35.3690 H   0  0  0  0  0  0  0  0  0  0  0  0
  1  7  1  0  0  0  0
  2  9  1  0  0  0  0
  2  1  2  0  0  0  0
  3  2  1  0  0  0  0
  4  3  2  0  0  0  0
  4  5  1  0  0  0  0
  5  6  2  0  0  0  0
  6  1  1  0  0  0  0
  8  5  1  0  0  0  0
  9 10  1  0  0  0  0
 10 15  1  0  0  0  0
 10 11  1  0  0  0  0
 10 16  1  0  0  0  0
 11 18  1  0  0  0  0
 11 17  1  0  0  0  0
 12 19  1  0  0  0  0
 12 11  1  0  0  0  0
 13 12  1  0  0  0  0
 14 13  1  0  0  0  0
 14 23  1  0  0  0  0
 14  9  1  0  0  0  0
 20 13  1  0  0  0  0
 21 13  1  0  0  0  0
 22 14  1  0  0  0  0
 25  3  1  0  0  0  0
 25 24  2  0  0  0  0
 26 25  1  0  0  0  0
 27 26  1  0  0  0  0
 28 26  2  0  0  0  0
 28 33  1  0  0  0  0
 29 30  1  0  0  0  0
 29 28  1  0  0  0  0
 30 32  2  0  0  0  0
 31 30  1  0  0  0  0
 32 33  1  0  0  0  0
 33 34  2  0  0  0  0
 34 24  1  0  0  0  0
 35 29  1  0  0  0  0
M  END
>  <minimizedAffinity>
-5.15892506

$$$$

 OpenBabel03242523043D

 35 38  0  0  0  0  0  0  0  0999 V2000
   37.3650   26.0310   40.8330 C   0  0  0  0  0  0  0  0  0  0  0  0
   37.6910   27.2940   40.3610 C   0  0  0  0  0  0  0  0  0  0  0  0
   37.6190   28.3310   41.2510 C   0  0  0  0  0  0  0  0  0  0  0  0
   37.2330   28.0890   42.5460 N   0  0  0  0  0  0  0  0  0  0  0  0
   36.9260   26.8470   42.9640 C   0  0  0  0  0  0  0  0  0  0  0  0
   36.9930   25.8340   42.1120 N   0  0  0  0  0  0  0  0  0  0  0  0
   37.3620   25.1110   40.2830 H   0  0  0  0  0  0  0  0  0  0  0  0
   36.6170   26.6400   43.9940 H   0  0  0  0  0  0  0  0  0  0  0  0
   38.0380   27.4560   39.0180 N   0  0  0  0  0  0  0  0  0  0  0  0
   37.0690   27.4020   37.9770 C   0  0  0  0  0  0  0  0  0  0  0  0
   37.7460   27.3990   36.5960 C   0  0  0  0  0  0  0  0  0  0  0  0
   38.5710   28.5560   36.4770 N   0  0  0  0  0  0  0  0  0  0  0  0
   39.4400   28.8280   37.5550 C   0  0  0  0  0  0  0  0  0  0  0  0
   39.4160   27.6910   38.5690 C   0  0  0  0  0  0  0  0  0  0  0  0
   36.5220   28.3500   37.9190 H   0  0  0  0  0  0  0  0  0  0  0  0
   36.5370   26.4620   37.9880 H   0  0  0  0  0  0  0  0  0  0  0  0
   36.9660   27.4210   35.8230 H   0  0  0  0  0  0  0  0  0  0  0  0
   38.3590   26.4980   36.4500 H   0  0  0  0  0  0  0  0  0  0  0  0
   38.1030   29.3850   36.0690 H   0  0  0  0  0  0  0  0  0  0  0  0
   40.4780   28.8470   37.1720 H   0  0  0  0  0  0  0  0  0  0  0  0
   39.2500   29.7710   38.0710 H   0  0  0  0  0  0  0  0  0  0  0  0
   40.0660   28.0510   39.3820 H   0  0  0  0  0  0  0  0  0  0  0  0
   39.8350   26.7530   38.1520 H   0  0  0  0  0  0  0  0  0  0  0  0
   39.1420   30.1160   41.5180 C   0  0  0  0  0  3  0  0  0  0  0  0
   37.8500   29.7170   41.0900 C   0  0  0  0  0  0  0  0  0  0  0  0
   37.1900   30.8140   40.5620 C   0  0  0  0  0  0  0  0  0  0  0  0
   36.1940   30.4970   40.2070 H   0  0  0  0  0  0  0  0  0  0  0  0
   37.6520   32.0990   40.4440 C   0  0  0  0  0  0  0  0  0  0  0  0
   37.0320   33.1650   39.9410 N   0  0  0  0  0  0  0  0  0  0  0  0
   37.9510   34.1600   40.0760 C   0  0  0  0  0  0  0  0  0  0  0  0
   37.8810   35.1990   39.8020 H   0  0  0  0  0  0  0  0  0  0  0  0
   39.0850   33.6790   40.6500 N   0  0  0  0  0  0  0  0  0  0  0  0
   38.9200   32.3790   40.8910 C   0  0  0  0  0  0  0  0  0  0  0  0
   39.6990   31.3980   41.4400 C   0  0  0  0  0  3  0  0  0  0  0  0
   36.0840   33.2640   39.5330 H   0  0  0  0  0  0  0  0  0  0  0  0
  1  6  1  0  0  0  0
  2  1  2  0  0  0  0
  2  3  1  0  0  0  0
  3  4  2  0  0  0  0
  4  5  1  0  0  0  0
  5  8  1  0  0  0  0
  6  5  2  0  0  0  0
  7  1  1  0  0  0  0
  9  2  1  0  0  0  0
 10 16  1  0  0  0  0
 10  9  1  0  0  0  0
 11 10  1  0  0  0  0
 12 11  1  0  0  0  0
 12 13  1  0  0  0  0
 13 21  1  0  0  0  0
 13 14  1  0  0  0  0
 14  9  1  0  0  0  0
 14 22  1  0  0  0  0
 15 10  1  0  0  0  0
 17 11  1  0  0  0  0
 18 11  1  0  0  0  0
 19 12  1  0  0  0  0
 20 13  1  0  0  0  0
 23 14  1  0  0  0  0
 25  3  1  0  0  0  0
 25 24  2  0  0  0  0
 26 25  1  0  0  0  0
 27 26  1  0  0  0  0
 28 26  2  0  0  0  0
 28 33  1  0  0  0  0
 29 30  1  0  0  0  0
 29 28  1  0  0  0  0
 30 32  2  0  0  0  0
 31 30  1  0  0  0  0
 32 33  1  0  0  0  0
 33 34  2  0  0  0  0
 34 24  1  0  0  0  0
 35 29  1  0  0  0  0
M  END
>  <minimizedAffinity>
-5.12891626

$$$$

 OpenBabel03242523043D

 35 38  0  0  0  0  0  0  0  0999 V2000
   41.3720   32.5330   41.0970 C   0  0  0  0  0  0  0  0  0  0  0  0
   40.3780   31.5670   41.0580 C   0  0  0  0  0  0  0  0  0  0  0  0
   40.4820   30.5280   41.9430 C   0  0  0  0  0  0  0  0  0  0  0  0
   41.5430   30.4810   42.8130 N   0  0  0  0  0  0  0  0  0  0  0  0
   42.4860   31.4410   42.8180 C   0  0  0  0  0  0  0  0  0  0  0  0
   42.3960   32.4520   41.9680 N   0  0  0  0  0  0  0  0  0  0  0  0
   41.4550   33.4080   40.4820 H   0  0  0  0  0  0  0  0  0  0  0  0
   43.3370   31.4150   43.5070 H   0  0  0  0  0  0  0  0  0  0  0  0
   39.3540   31.6730   40.1140 N   0  0  0  0  0  0  0  0  0  0  0  0
   38.2610   32.5680   40.2850 C   0  0  0  0  0  0  0  0  0  0  0  0
   37.1830   32.3290   39.2140 C   0  0  0  0  0  0  0  0  0  0  0  0
   37.7690   32.4670   37.9210 N   0  0  0  0  0  0  0  0  0  0  0  0
   38.9800   31.7780   37.6990 C   0  0  0  0  0  0  0  0  0  0  0  0
   39.3150   30.8780   38.8810 C   0  0  0  0  0  0  0  0  0  0  0  0
   38.5630   33.5890   40.0270 H   0  0  0  0  0  0  0  0  0  0  0  0
   37.7340   32.3690   41.2070 H   0  0  0  0  0  0  0  0  0  0  0  0
   36.3900   33.0790   39.3420 H   0  0  0  0  0  0  0  0  0  0  0  0
   36.7370   31.3280   39.3070 H   0  0  0  0  0  0  0  0  0  0  0  0
   37.7260   33.4230   37.5240 H   0  0  0  0  0  0  0  0  0  0  0  0
   38.8380   31.0880   36.8460 H   0  0  0  0  0  0  0  0  0  0  0  0
   39.8380   32.4160   37.4800 H   0  0  0  0  0  0  0  0  0  0  0  0
   40.3000   30.4600   38.6210 H   0  0  0  0  0  0  0  0  0  0  0  0
   38.5850   30.0510   38.9950 H   0  0  0  0  0  0  0  0  0  0  0  0
   38.5850   29.6230   43.0200 C   0  0  0  0  0  3  0  0  0  0  0  0
   39.6720   29.3850   42.1410 C   0  0  0  0  0  0  0  0  0  0  0  0
   39.5910   28.0880   41.6620 C   0  0  0  0  0  0  0  0  0  0  0  0
   40.4230   27.9130   40.9590 H   0  0  0  0  0  0  0  0  0  0  0  0
   38.6440   27.1410   41.9510 C   0  0  0  0  0  0  0  0  0  0  0  0
   38.5500   25.8910   41.5030 N   0  0  0  0  0  0  0  0  0  0  0  0
   37.4290   25.4170   42.1120 C   0  0  0  0  0  0  0  0  0  0  0  0
   36.9700   24.4460   42.0420 H   0  0  0  0  0  0  0  0  0  0  0  0
   36.8820   26.3770   42.9040 N   0  0  0  0  0  0  0  0  0  0  0  0
   37.6320   27.4750   42.8180 C   0  0  0  0  0  0  0  0  0  0  0  0
   37.5740   28.7230   43.3750 C   0  0  0  0  0  3  0  0  0  0  0  0
   39.1560   25.3620   40.8480 H   0  0  0  0  0  0  0  0  0  0  0  0
  1  6  1  0  0  0  0
  2  1  2  0  0  0  0
  2  3  1  0  0  0  0
  3 25  1  0  0  0  0
  3  4  2  0  0  0  0
  4  5  1  0  0  0  0
  5  8  1  0  0  0  0
  6  5  2  0  0  0  0
  7  1  1  0  0  0  0
  9 10  1  0  0  0  0
  9  2  1  0  0  0  0
 10 16  1  0  0  0  0
 11 18  1  0  0  0  0
 11 17  1  0  0  0  0
 11 10  1  0  0  0  0
 12 11  1  0  0  0  0
 13 12  1  0  0  0  0
 13 14  1  0  0  0  0
 14 23  1  0  0  0  0
 14  9  1  0  0  0  0
 15 10  1  0  0  0  0
 19 12  1  0  0  0  0
 20 13  1  0  0  0  0
 21 13  1  0  0  0  0
 22 14  1  0  0  0  0
 24 34  1  0  0  0  0
 25 24  2  0  0  0  0
 26 28  2  0  0  0  0
 26 25  1  0  0  0  0
 27 26  1  0  0  0  0
 28 33  1  0  0  0  0
 29 28  1  0  0  0  0
 29 30  1  0  0  0  0
 30 32  2  0  0  0  0
 31 30  1  0  0  0  0
 33 32  1  0  0  0  0
 33 34  2  0  0  0  0
 35 29  1  0  0  0  0
M  END
>  <minimizedAffinity>
-5.11462212

$$$$

 OpenBabel03242523043D

 35 38  0  0  0  0  0  0  0  0999 V2000
   36.4160   25.6890   39.5670 C   0  0  0  0  0  0  0  0  0  0  0  0
   36.9320   26.8840   40.0430 C   0  0  0  0  0  0  0  0  0  0  0  0
   36.8250   27.9790   39.2280 C   0  0  0  0  0  0  0  0  0  0  0  0
   36.2300   27.8540   37.9970 N   0  0  0  0  0  0  0  0  0  0  0  0
   35.7410   26.6730   37.5740 C   0  0  0  0  0  0  0  0  0  0  0  0
   35.8360   25.6070   38.3540 N   0  0  0  0  0  0  0  0  0  0  0  0
   36.4130   24.7370   40.0620 H   0  0  0  0  0  0  0  0  0  0  0  0
   35.2630   26.5590   36.5950 H   0  0  0  0  0  0  0  0  0  0  0  0
   37.5560   26.9140   41.2920 N   0  0  0  0  0  0  0  0  0  0  0  0
   38.8870   26.4500   41.4820 C   0  0  0  0  0  0  0  0  0  0  0  0
   39.2440   26.4010   42.9780 C   0  0  0  0  0  0  0  0  0  0  0  0
   39.0610   27.6960   43.5450 N   0  0  0  0  0  0  0  0  0  0  0  0
   37.8440   28.3480   43.2540 C   0  0  0  0  0  0  0  0  0  0  0  0
   36.8980   27.4180   42.5040 C   0  0  0  0  0  0  0  0  0  0  0  0
   39.6040   27.2050   41.1390 H   0  0  0  0  0  0  0  0  0  0  0  0
   38.9890   25.4200   41.1740 H   0  0  0  0  0  0  0  0  0  0  0  0
   40.2960   26.1000   43.0770 H   0  0  0  0  0  0  0  0  0  0  0  0
   38.6190   25.6750   43.5170 H   0  0  0  0  0  0  0  0  0  0  0  0
   39.9010   28.3030   43.5280 H   0  0  0  0  0  0  0  0  0  0  0  0
   37.3290   28.5710   44.2080 H   0  0  0  0  0  0  0  0  0  0  0  0
   37.9450   29.2810   42.6970 H   0  0  0  0  0  0  0  0  0  0  0  0
   36.0300   28.0570   42.2750 H   0  0  0  0  0  0  0  0  0  0  0  0
   36.5700   26.5650   43.1310 H   0  0  0  0  0  0  0  0  0  0  0  0
   38.6080   29.5070   38.9800 C   0  0  0  0  0  3  0  0  0  0  0  0
   37.2660   29.3130   39.3930 C   0  0  0  0  0  0  0  0  0  0  0  0
   36.7350   30.5290   39.7900 C   0  0  0  0  0  0  0  0  0  0  0  0
   35.6830   30.3800   40.0890 H   0  0  0  0  0  0  0  0  0  0  0  0
   37.3510   31.7520   39.8050 C   0  0  0  0  0  0  0  0  0  0  0  0
   36.8580   32.9300   40.1830 N   0  0  0  0  0  0  0  0  0  0  0  0
   37.8980   33.7880   39.9900 C   0  0  0  0  0  0  0  0  0  0  0  0
   37.9520   34.8480   40.1640 H   0  0  0  0  0  0  0  0  0  0  0  0
   38.9780   33.1160   39.5090 N   0  0  0  0  0  0  0  0  0  0  0  0
   38.6560   31.8300   39.3830 C   0  0  0  0  0  0  0  0  0  0  0  0
   39.3200   30.7120   38.9590 C   0  0  0  0  0  3  0  0  0  0  0  0
   35.9200   33.1840   40.5420 H   0  0  0  0  0  0  0  0  0  0  0  0
  1  2  1  0  0  0  0
  1  7  1  0  0  0  0
  2  9  1  0  0  0  0
  3 25  1  0  0  0  0
  3  2  2  0  0  0  0
  4  3  1  0  0  0  0
  5  4  2  0  0  0  0
  5  6  1  0  0  0  0
  6  1  2  0  0  0  0
  8  5  1  0  0  0  0
  9 10  1  0  0  0  0
  9 14  1  0  0  0  0
 10 11  1  0  0  0  0
 11 17  1  0  0  0  0
 11 18  1  0  0  0  0
 11 12  1  0  0  0  0
 13 12  1  0  0  0  0
 13 20  1  0  0  0  0
 14 23  1  0  0  0  0
 14 13  1  0  0  0  0
 15 10  1  0  0  0  0
 16 10  1  0  0  0  0
 19 12  1  0  0  0  0
 21 13  1  0  0  0  0
 22 14  1  0  0  0  0
 24 25  1  0  0  0  0
 25 26  2  0  0  0  0
 26 28  1  0  0  0  0
 26 27  1  0  0  0  0
 28 29  1  0  0  0  0
 29 35  1  0  0  0  0
 30 31  1  0  0  0  0
 30 29  1  0  0  0  0
 32 30  2  0  0  0  0
 33 32  1  0  0  0  0
 33 28  2  0  0  0  0
 34 24  2  0  0  0  0
 34 33  1  0  0  0  0
M  END
>  <minimizedAffinity>
-5.08565187

$$$$

 OpenBabel03242523043D

 35 38  0  0  0  0  0  0  0  0999 V2000
   38.8060   30.6020   41.6680 C   0  0  0  0  0  0  0  0  0  0  0  0
   38.1790   29.8180   40.7120 C   0  0  0  0  0  0  0  0  0  0  0  0
   37.9780   30.3780   39.4800 C   0  0  0  0  0  0  0  0  0  0  0  0
   38.3900   31.6660   39.2440 N   0  0  0  0  0  0  0  0  0  0  0  0
   38.9960   32.3930   40.2010 C   0  0  0  0  0  0  0  0  0  0  0  0
   39.1980   31.8610   41.3970 N   0  0  0  0  0  0  0  0  0  0  0  0
   39.0410   30.3320   42.6800 H   0  0  0  0  0  0  0  0  0  0  0  0
   39.3300   33.4210   40.0260 H   0  0  0  0  0  0  0  0  0  0  0  0
   37.7580   28.5290   41.0480 N   0  0  0  0  0  0  0  0  0  0  0  0
   38.5060   27.3730   40.6890 C   0  0  0  0  0  0  0  0  0  0  0  0
   37.7140   26.0900   40.9950 C   0  0  0  0  0  0  0  0  0  0  0  0
   37.3660   26.0730   42.3770 N   0  0  0  0  0  0  0  0  0  0  0  0
   36.7950   27.2530   42.9010 C   0  0  0  0  0  0  0  0  0  0  0  0
   36.5200   28.2590   41.7900 C   0  0  0  0  0  0  0  0  0  0  0  0
   39.3520   27.2420   41.3730 H   0  0  0  0  0  0  0  0  0  0  0  0
   38.6510   27.3190   39.6200 H   0  0  0  0  0  0  0  0  0  0  0  0
   38.3490   25.2240   40.7630 H   0  0  0  0  0  0  0  0  0  0  0  0
   36.8000   26.0270   40.3870 H   0  0  0  0  0  0  0  0  0  0  0  0
   38.0540   25.6060   42.9950 H   0  0  0  0  0  0  0  0  0  0  0  0
   35.7990   27.0060   43.3150 H   0  0  0  0  0  0  0  0  0  0  0  0
   37.3790   27.7370   43.6860 H   0  0  0  0  0  0  0  0  0  0  0  0
   36.1520   29.1470   42.3270 H   0  0  0  0  0  0  0  0  0  0  0  0
   35.7380   27.9030   41.0900 H   0  0  0  0  0  0  0  0  0  0  0  0
   35.9510   29.7280   38.4580 C   0  0  0  0  0  3  0  0  0  0  0  0
   37.3540   29.8730   38.3150 C   0  0  0  0  0  0  0  0  0  0  0  0
   37.7140   29.5320   37.0220 C   0  0  0  0  0  0  0  0  0  0  0  0
   38.8030   29.6670   36.9050 H   0  0  0  0  0  0  0  0  0  0  0  0
   36.8990   29.1150   36.0020 C   0  0  0  0  0  0  0  0  0  0  0  0
   37.2260   28.7820   34.7550 N   0  0  0  0  0  0  0  0  0  0  0  0
   36.0330   28.4530   34.1900 C   0  0  0  0  0  0  0  0  0  0  0  0
   35.8180   28.1220   33.1880 H   0  0  0  0  0  0  0  0  0  0  0  0
   35.0280   28.5910   35.0960 N   0  0  0  0  0  0  0  0  0  0  0  0
   35.5510   29.0090   36.2480 C   0  0  0  0  0  0  0  0  0  0  0  0
   35.0400   29.3120   37.4800 C   0  0  0  0  0  3  0  0  0  0  0  0
   38.1480   28.7640   34.2830 H   0  0  0  0  0  0  0  0  0  0  0  0
  1  7  1  0  0  0  0
  2  9  1  0  0  0  0
  2  1  2  0  0  0  0
  3  2  1  0  0  0  0
  4  3  2  0  0  0  0
  4  5  1  0  0  0  0
  5  6  2  0  0  0  0
  6  1  1  0  0  0  0
  8  5  1  0  0  0  0
  9 14  1  0  0  0  0
 10 11  1  0  0  0  0
 10  9  1  0  0  0  0
 10 15  1  0  0  0  0
 11 12  1  0  0  0  0
 12 13  1  0  0  0  0
 12 19  1  0  0  0  0
 13 20  1  0  0  0  0
 13 21  1  0  0  0  0
 14 22  1  0  0  0  0
 14 13  1  0  0  0  0
 16 10  1  0  0  0  0
 17 11  1  0  0  0  0
 18 11  1  0  0  0  0
 23 14  1  0  0  0  0
 25 24  1  0  0  0  0
 25  3  1  0  0  0  0
 26 25  2  0  0  0  0
 27 26  1  0  0  0  0
 28 33  2  0  0  0  0
 28 26  1  0  0  0  0
 29 28  1  0  0  0  0
 30 29  1  0  0  0  0
 30 32  2  0  0  0  0
 31 30  1  0  0  0  0
 32 33  1  0  0  0  0
 33 34  1  0  0  0  0
 34 24  2  0  0  0  0
 35 29  1  0  0  0  0
M  END
>  <minimizedAffinity>
-5.0816741

$$$$

 OpenBabel03242523043D

 35 38  0  0  0  0  0  0  0  0999 V2000
   38.7130   31.4650   41.3420 C   0  0  0  0  0  0  0  0  0  0  0  0
   38.0000   30.5020   40.6430 C   0  0  0  0  0  0  0  0  0  0  0  0
   37.2900   30.9220   39.5510 C   0  0  0  0  0  0  0  0  0  0  0  0
   37.3060   32.2490   39.2000 N   0  0  0  0  0  0  0  0  0  0  0  0
   38.0120   33.1520   39.9070 C   0  0  0  0  0  0  0  0  0  0  0  0
   38.7050   32.7570   40.9650 N   0  0  0  0  0  0  0  0  0  0  0  0
   39.3180   31.3210   42.2160 H   0  0  0  0  0  0  0  0  0  0  0  0
   38.0330   34.2130   39.6370 H   0  0  0  0  0  0  0  0  0  0  0  0
   38.0090   29.1800   41.0920 N   0  0  0  0  0  0  0  0  0  0  0  0
   38.9440   28.2240   40.6050 C   0  0  0  0  0  0  0  0  0  0  0  0
   38.5960   26.8110   41.1050 C   0  0  0  0  0  0  0  0  0  0  0  0
   38.5540   26.8160   42.5300 N   0  0  0  0  0  0  0  0  0  0  0  0
   37.8130   27.8510   43.1380 C   0  0  0  0  0  0  0  0  0  0  0  0
   37.0630   28.6660   42.0910 C   0  0  0  0  0  0  0  0  0  0  0  0
   39.9160   28.3640   41.0920 H   0  0  0  0  0  0  0  0  0  0  0  0
   38.8780   28.1250   39.5320 H   0  0  0  0  0  0  0  0  0  0  0  0
   39.3750   26.1170   40.7600 H   0  0  0  0  0  0  0  0  0  0  0  0
   37.6260   26.4730   40.7120 H   0  0  0  0  0  0  0  0  0  0  0  0
   39.4510   26.5860   42.9930 H   0  0  0  0  0  0  0  0  0  0  0  0
   37.0230   27.3960   43.7640 H   0  0  0  0  0  0  0  0  0  0  0  0
   38.3970   28.5260   43.7660 H   0  0  0  0  0  0  0  0  0  0  0  0
   36.5930   29.4730   42.6750 H   0  0  0  0  0  0  0  0  0  0  0  0
   36.2760   28.0720   41.5860 H   0  0  0  0  0  0  0  0  0  0  0  0
   36.9270   30.2360   37.3210 C   0  0  0  0  0  3  0  0  0  0  0  0
   36.4510   30.2180   38.6560 C   0  0  0  0  0  0  0  0  0  0  0  0
   35.3060   29.4410   38.7170 C   0  0  0  0  0  0  0  0  0  0  0  0
   34.9500   29.4080   39.7620 H   0  0  0  0  0  0  0  0  0  0  0  0
   34.6850   28.7750   37.6940 C   0  0  0  0  0  0  0  0  0  0  0  0
   33.5840   28.0250   37.7330 N   0  0  0  0  0  0  0  0  0  0  0  0
   33.4300   27.6190   36.4430 C   0  0  0  0  0  0  0  0  0  0  0  0
   32.6690   26.9930   36.0090 H   0  0  0  0  0  0  0  0  0  0  0  0
   34.4250   28.1260   35.6680 N   0  0  0  0  0  0  0  0  0  0  0  0
   35.2290   28.8590   36.4360 C   0  0  0  0  0  0  0  0  0  0  0  0
   36.3640   29.5900   36.2140 C   0  0  0  0  0  3  0  0  0  0  0  0
   32.9630   27.7800   38.5260 H   0  0  0  0  0  0  0  0  0  0  0  0
  1  7  1  0  0  0  0
  2  9  1  0  0  0  0
  2  1  2  0  0  0  0
  3  2  1  0  0  0  0
  4  3  2  0  0  0  0
  4  5  1  0  0  0  0
  5  6  2  0  0  0  0
  6  1  1  0  0  0  0
  8  5  1  0  0  0  0
  9 14  1  0  0  0  0
 10 15  1  0  0  0  0
 10  9  1  0  0  0  0
 10 11  1  0  0  0  0
 11 12  1  0  0  0  0
 12 19  1  0  0  0  0
 12 13  1  0  0  0  0
 13 20  1  0  0  0  0
 13 21  1  0  0  0  0
 14 22  1  0  0  0  0
 14 13  1  0  0  0  0
 16 10  1  0  0  0  0
 17 11  1  0  0  0  0
 18 11  1  0  0  0  0
 23 14  1  0  0  0  0
 24 25  1  0  0  0  0
 25 26  2  0  0  0  0
 25  3  1  0  0  0  0
 26 27  1  0  0  0  0
 28 29  1  0  0  0  0
 28 26  1  0  0  0  0
 29 35  1  0  0  0  0
 30 29  1  0  0  0  0
 31 30  1  0  0  0  0
 32 33  1  0  0  0  0
 32 30  2  0  0  0  0
 33 28  2  0  0  0  0
 34 33  1  0  0  0  0
 34 24  2  0  0  0  0
M  END
>  <minimizedAffinity>
-4.9785738

$$$$
