
 OpenBabel03242523063D

 48 53  0  0  1  0  0  0  0  0999 V2000
   46.4990   32.0980   45.5920 C   0  0  0  0  0  0  0  0  0  0  0  0
   46.7280   32.7800   44.3770 C   0  0  0  0  0  0  0  0  0  0  0  0
   47.6610   32.1040   43.6110 C   0  0  0  0  0  0  0  0  0  0  0  0
   48.2940   30.9470   43.9450 C   0  0  0  0  0  0  0  0  0  0  0  0
   48.0120   30.3510   45.1590 C   0  0  0  0  0  0  0  0  0  0  0  0
   47.1040   30.9250   45.9990 C   0  0  0  0  0  0  0  0  0  0  0  0
   48.8100   29.2260   45.2020 O   0  0  0  0  0  0  0  0  0  0  0  0
   49.5810   29.1250   44.0250 C   0  0  2  0  0  0  0  0  0  0  0  0
   49.2270   30.2400   43.2020 O   0  0  0  0  0  0  0  0  0  0  0  0
   45.8090   32.3510   46.4260 H   0  0  0  0  0  0  0  0  0  0  0  0
   47.8380   32.6020   42.7130 H   0  0  0  0  0  0  0  0  0  0  0  0
   46.9580   30.3900   46.8970 H   0  0  0  0  0  0  0  0  0  0  0  0
   50.6570   29.1830   44.2010 H   0  0  0  0  0  0  0  0  0  0  0  0
   49.4550   27.7460   42.0340 C   0  0  0  0  0  0  0  0  0  0  0  0
   49.1950   27.8280   43.3970 C   0  0  0  0  0  0  0  0  0  0  0  0
   48.6210   26.7730   44.0980 C   0  0  0  0  0  0  0  0  0  0  0  0
   48.4500   26.9210   45.1670 H   0  0  0  0  0  0  0  0  0  0  0  0
   48.2930   25.5990   43.4320 C   0  0  0  0  0  0  0  0  0  0  0  0
   47.7400   24.4700   43.8920 N   0  0  0  0  0  0  0  0  0  0  0  0
   47.6370   23.6450   42.8360 C   0  0  0  0  0  0  0  0  0  0  0  0
   47.2190   22.6410   42.9020 H   0  0  0  0  0  0  0  0  0  0  0  0
   48.1300   24.2890   41.7420 N   0  0  0  0  0  0  0  0  0  0  0  0
   48.5500   25.5230   42.0940 C   0  0  0  0  0  0  0  0  0  0  0  0
   49.1200   26.5600   41.3780 C   0  0  0  0  0  0  0  0  0  0  0  0
   47.4330   24.2290   44.8690 H   0  0  0  0  0  0  0  0  0  0  0  0
   45.1130   36.0320   43.4950 C   0  0  0  0  0  0  0  0  0  0  0  0
   45.9040   34.9110   43.2680 C   0  0  0  0  0  0  0  0  0  0  0  0
   46.0180   33.9900   44.2760 C   0  0  0  0  0  0  0  0  0  0  0  0
   45.3560   34.2100   45.4540 N   0  0  0  0  0  0  0  0  0  0  0  0
   44.5960   35.3050   45.6460 C   0  0  0  0  0  0  0  0  0  0  0  0
   44.4780   36.1990   44.6780 N   0  0  0  0  0  0  0  0  0  0  0  0
   45.0050   36.7730   42.7150 H   0  0  0  0  0  0  0  0  0  0  0  0
   44.0440   35.5490   46.5430 H   0  0  0  0  0  0  0  0  0  0  0  0
   46.5510   34.8020   42.0390 N   0  0  0  0  0  0  0  0  0  0  0  0
   47.8690   35.2650   41.8270 C   0  0  0  0  0  0  0  0  0  0  0  0
   48.4560   34.9190   40.4830 C   0  0  0  0  0  0  0  0  0  0  0  0
   48.1600   33.6410   39.9950 N   0  0  0  0  0  0  0  0  0  0  0  0
   46.8590   33.1900   40.2060 C   0  0  0  0  0  0  0  0  0  0  0  0
   45.9810   34.2330   40.8670 C   0  0  0  0  0  0  0  0  0  0  0  0
   47.8690   36.3750   41.9000 H   0  0  0  0  0  0  0  0  0  0  0  0
   48.5870   34.9530   42.6290 H   0  0  0  0  0  0  0  0  0  0  0  0
   48.1460   35.6920   39.7250 H   0  0  0  0  0  0  0  0  0  0  0  0
   49.5600   35.0260   40.5580 H   0  0  0  0  0  0  0  0  0  0  0  0
   48.5730   33.5280   39.0650 H   0  0  0  0  0  0  0  0  0  0  0  0
   46.3760   33.0200   39.1980 H   0  0  0  0  0  0  0  0  0  0  0  0
   46.7360   32.2130   40.7250 H   0  0  0  0  0  0  0  0  0  0  0  0
   44.9650   33.8370   41.0540 H   0  0  0  0  0  0  0  0  0  0  0  0
   45.8660   35.0470   40.1100 H   0  0  0  0  0  0  0  0  0  0  0  0
  1  6  1  0  0  0  0
  1 10  1  0  0  0  0
  2  1  2  0  0  0  0
  3  4  2  0  0  0  0
  3  2  1  0  0  0  0
  4  5  1  0  0  0  0
  5  7  1  0  0  0  0
  5  6  2  0  0  0  0
  6 12  1  0  0  0  0
  8 13  1  1  0  0  0
  8  7  1  0  0  0  0
  9  4  1  0  0  0  0
  9  8  1  0  0  0  0
 11  3  1  0  0  0  0
 14 15  1  0  0  0  0
 15  8  1  0  0  0  0
 15 16  2  0  0  0  0
 16 17  1  0  0  0  0
 18 19  1  0  0  0  0
 18 16  1  0  0  0  0
 19 25  1  0  0  0  0
 20 21  1  0  0  0  0
 20 19  1  0  0  0  0
 22 23  1  0  0  0  0
 22 20  2  0  0  0  0
 23 18  2  0  0  0  0
 24 14  2  0  0  0  0
 24 23  1  0  0  0  0
 26 31  1  0  0  0  0
 27 26  2  0  0  0  0
 27 28  1  0  0  0  0
 28  2  1  0  0  0  0
 28 29  2  0  0  0  0
 29 30  1  0  0  0  0
 30 33  1  0  0  0  0
 31 30  2  0  0  0  0
 32 26  1  0  0  0  0
 34 27  1  0  0  0  0
 35 40  1  0  0  0  0
 35 34  1  0  0  0  0
 35 41  1  0  0  0  0
 36 43  1  0  0  0  0
 36 35  1  0  0  0  0
 37 38  1  0  0  0  0
 37 36  1  0  0  0  0
 38 46  1  0  0  0  0
 38 39  1  0  0  0  0
 39 47  1  0  0  0  0
 39 34  1  0  0  0  0
 42 36  1  0  0  0  0
 44 37  1  0  0  0  0
 45 38  1  0  0  0  0
 48 39  1  0  0  0  0
M  END
>  <minimizedAffinity>
-4.89756107

>  <minimizedRMSD>
0.743432701

$$$$
