
 OpenBabel03252506573D

 41 46  0  0  0  0  0  0  0  0999 V2000
   47.0050   31.2900   45.0830 C   0  0  0  0  0  0  0  0  0  0  0  0
   46.7740   32.6610   45.1560 C   0  0  0  0  0  0  0  0  0  0  0  0
   46.2720   33.2690   46.2810 C   0  0  0  0  0  0  0  0  0  0  0  0
   45.9680   32.5240   47.4130 C   0  0  0  0  0  0  0  0  0  0  0  0
   45.4720   32.7790   48.6620 N   0  0  0  0  0  0  0  0  0  0  0  0
   45.3990   31.6020   49.3370 C   0  0  0  0  0  0  0  0  0  0  0  0
   45.8470   30.6430   48.5040 N   0  0  0  0  0  0  0  0  0  0  0  0
   46.1990   31.1730   47.3270 C   0  0  0  0  0  0  0  0  0  0  0  0
   46.6970   30.5370   46.2280 C   0  0  0  0  0  0  0  0  0  0  0  0
   47.4010   30.8030   44.2010 H   0  0  0  0  0  0  0  0  0  0  0  0
   46.0910   34.3350   46.3420 H   0  0  0  0  0  0  0  0  0  0  0  0
   45.2190   33.7540   48.9550 H   0  0  0  0  0  0  0  0  0  0  0  0
   45.0370   31.5270   50.3550 H   0  0  0  0  0  0  0  0  0  0  0  0
   46.4890   35.2030   42.5190 C   0  0  0  0  0  0  0  0  0  0  0  0
   47.6840   35.0300   41.8030 C   0  0  0  0  0  0  0  0  0  0  0  0
   48.5700   34.0470   42.2290 C   0  0  0  0  0  0  0  0  0  0  0  0
   48.2450   33.2890   43.3290 N   0  0  0  0  0  0  0  0  0  0  0  0
   47.0780   33.4910   43.9920 C   0  0  0  0  0  0  0  0  0  0  0  0
   46.2030   34.4330   43.6020 N   0  0  0  0  0  0  0  0  0  0  0  0
   45.7860   35.9610   42.2040 H   0  0  0  0  0  0  0  0  0  0  0  0
   47.8980   35.6460   40.9470 H   0  0  0  0  0  0  0  0  0  0  0  0
   49.4880   33.9020   41.6940 H   0  0  0  0  0  0  0  0  0  0  0  0
   46.9140   29.0750   46.2280 C   0  0  0  0  0  0  0  0  0  0  0  0
   48.0860   28.4640   46.6610 C   0  0  0  0  0  0  0  0  0  0  0  0
   47.8200   27.1000   46.4730 C   0  0  0  0  0  0  0  0  0  0  0  0
   46.5420   26.9670   45.9530 C   0  0  0  0  0  0  0  0  0  0  0  0
   46.0500   28.1890   45.8280 O   0  0  0  0  0  0  0  0  0  0  0  0
   48.9420   29.0070   47.0370 H   0  0  0  0  0  0  0  0  0  0  0  0
   48.5570   26.3430   46.7230 H   0  0  0  0  0  0  0  0  0  0  0  0
   45.3260   25.4370   44.4160 C   0  0  0  0  0  3  0  0  0  0  0  0
   45.9320   25.6820   45.6300 C   0  0  0  0  0  0  0  0  0  0  0  0
   45.9580   24.6560   46.5800 C   0  0  0  0  0  0  0  0  0  0  0  0
   46.4210   24.7820   47.5600 H   0  0  0  0  0  0  0  0  0  0  0  0
   45.3720   23.4530   46.2390 C   0  0  0  0  0  0  0  0  0  0  0  0
   45.2120   22.2670   46.8900 N   0  0  0  0  0  0  0  0  0  0  0  0
   44.5580   21.3770   46.1200 C   0  0  0  0  0  0  0  0  0  0  0  0
   44.3570   20.3890   46.5020 H   0  0  0  0  0  0  0  0  0  0  0  0
   44.2830   21.9890   44.9430 N   0  0  0  0  0  0  0  0  0  0  0  0
   44.7690   23.2310   45.0110 C   0  0  0  0  0  0  0  0  0  0  0  0
   44.7490   24.2490   44.0840 C   0  0  0  0  0  3  0  0  0  0  0  0
   45.5800   22.1450   47.8640 H   0  0  0  0  0  0  0  0  0  0  0  0
  1  2  2  0  0  0  0
  1  9  1  0  0  0  0
  2  3  1  0  0  0  0
  3 11  1  0  0  0  0
  3  4  2  0  0  0  0
  4  5  1  0  0  0  0
  5 12  1  0  0  0  0
  5  6  1  0  0  0  0
  6 13  1  0  0  0  0
  7  6  2  0  0  0  0
  8  4  1  0  0  0  0
  8  7  1  0  0  0  0
  9  8  2  0  0  0  0
 10  1  1  0  0  0  0
 14 19  1  0  0  0  0
 15 16  1  0  0  0  0
 15 14  2  0  0  0  0
 16 17  2  0  0  0  0
 17 18  1  0  0  0  0
 18  2  1  0  0  0  0
 19 18  2  0  0  0  0
 20 14  1  0  0  0  0
 21 15  1  0  0  0  0
 22 16  1  0  0  0  0
 23  9  1  0  0  0  0
 23 24  2  0  0  0  0
 24 28  1  0  0  0  0
 25 24  1  0  0  0  0
 25 29  1  0  0  0  0
 26 25  2  0  0  0  0
 27 26  1  0  0  0  0
 27 23  1  0  0  0  0
 30 31  1  0  0  0  0
 31 26  1  0  0  0  0
 31 32  2  0  0  0  0
 32 33  1  0  0  0  0
 34 32  1  0  0  0  0
 34 35  1  0  0  0  0
 35 41  1  0  0  0  0
 36 37  1  0  0  0  0
 36 35  1  0  0  0  0
 38 39  1  0  0  0  0
 38 36  2  0  0  0  0
 39 34  2  0  0  0  0
 40 30  2  0  0  0  0
 40 39  1  0  0  0  0
M  END
>  <minimizedAffinity>
-5.6449337

>  <minimizedRMSD>
0.907784283

$$$$
