
 OpenBabel03252508413D

 44 48  0  0  0  0  0  0  0  0999 V2000
   38.5140   30.1470   37.6100 C   0  0  0  0  0  0  0  0  0  0  0  0
   39.8770   30.1310   37.6770 C   0  0  0  0  0  0  0  0  0  0  0  0
   40.5100   28.9730   37.3130 C   0  0  0  0  0  0  0  0  0  0  0  0
   39.8500   27.8420   36.8910 C   0  0  0  0  0  0  0  0  0  0  0  0
   38.4730   27.8990   36.8380 C   0  0  0  0  0  0  0  0  0  0  0  0
   37.7860   29.0460   37.1950 C   0  0  0  0  0  0  0  0  0  0  0  0
   41.5910   28.9510   37.3620 H   0  0  0  0  0  0  0  0  0  0  0  0
   40.4020   26.9690   36.6200 H   0  0  0  0  0  0  0  0  0  0  0  0
   37.9390   27.0060   36.5040 H   0  0  0  0  0  0  0  0  0  0  0  0
   41.8510   33.3550   37.6940 C   0  0  0  0  0  0  0  0  0  0  0  0
   41.2220   32.1870   37.2160 C   0  0  0  0  0  0  0  0  0  0  0  0
   40.5400   31.3460   38.1270 C   0  0  0  0  0  0  0  0  0  0  0  0
   40.5570   31.7530   39.4100 N   0  0  0  0  0  0  0  0  0  0  0  0
   41.1580   32.8590   39.8380 C   0  0  0  0  0  0  0  0  0  0  0  0
   41.8050   33.6580   38.9760 N   0  0  0  0  0  0  0  0  0  0  0  0
   42.5220   34.1600   36.7330 N   0  0  0  0  0  0  0  0  0  0  0  0
   41.2360   31.9000   36.1700 H   0  0  0  0  0  0  0  0  0  0  0  0
   41.1320   33.1280   40.8900 H   0  0  0  0  0  0  0  0  0  0  0  0
   42.1200   34.7090   35.9250 H   0  0  0  0  0  0  0  0  0  0  0  0
   43.5570   34.2890   36.7450 H   0  0  0  0  0  0  0  0  0  0  0  0
   36.3420   28.9970   37.1040 C   0  0  0  0  0  0  0  0  0  0  0  0
   35.8140   29.2570   35.8530 C   0  0  0  0  0  0  0  0  0  0  0  0
   34.4520   29.2570   35.5630 C   0  0  0  0  0  0  0  0  0  0  0  0
   33.5890   28.9750   36.6120 C   0  0  0  0  0  0  0  0  0  0  0  0
   34.0930   28.7100   37.8720 C   0  0  0  0  0  0  0  0  0  0  0  0
   35.4530   28.7230   38.1060 C   0  0  0  0  0  0  0  0  0  0  0  0
   36.4150   29.4890   34.9680 H   0  0  0  0  0  0  0  0  0  0  0  0
   34.0420   29.4570   34.6030 H   0  0  0  0  0  0  0  0  0  0  0  0
   32.5180   28.9590   36.4530 H   0  0  0  0  0  0  0  0  0  0  0  0
   33.4640   28.4820   38.7360 H   0  0  0  0  0  0  0  0  0  0  0  0
   36.3910   27.1120   39.5660 C   0  0  0  0  0  3  0  0  0  0  0  0
   36.0060   28.4490   39.4250 C   0  0  0  0  0  0  0  0  0  0  0  0
   36.2010   29.2780   40.5090 C   0  0  0  0  0  0  0  0  0  0  0  0
   35.8770   30.2900   40.3100 H   0  0  0  0  0  0  0  0  0  0  0  0
   36.7530   28.7800   41.6670 C   0  0  0  0  0  0  0  0  0  0  0  0
   37.0180   29.4170   42.8100 N   0  0  0  0  0  0  0  0  0  0  0  0
   37.5610   28.5260   43.6770 C   0  0  0  0  0  0  0  0  0  0  0  0
   37.8840   28.7410   44.6930 H   0  0  0  0  0  0  0  0  0  0  0  0
   37.6230   27.3330   43.0430 N   0  0  0  0  0  0  0  0  0  0  0  0
   37.1230   27.4780   41.7920 C   0  0  0  0  0  0  0  0  0  0  0  0
   36.9480   26.6100   40.7360 C   0  0  0  0  0  3  0  0  0  0  0  0
   36.8520   30.4270   43.0370 H   0  0  0  0  0  0  0  0  0  0  0  0
   37.1540   32.2870   38.2840 N   0  0  0  0  0  0  0  0  0  0  0  0
   37.7690   31.3320   37.9800 C   0  0  0  0  0  0  0  0  0  0  0  0
  1  2  1  0  0  0  0
  1 44  1  0  0  0  0
  2 12  1  0  0  0  0
  3  7  1  0  0  0  0
  3  2  2  0  0  0  0
  4  3  1  0  0  0  0
  5  4  2  0  0  0  0
  5  6  1  0  0  0  0
  6  1  2  0  0  0  0
  8  4  1  0  0  0  0
  9  5  1  0  0  0  0
 10 15  1  0  0  0  0
 11 10  2  0  0  0  0
 11 12  1  0  0  0  0
 12 13  2  0  0  0  0
 13 14  1  0  0  0  0
 14 18  1  0  0  0  0
 15 14  2  0  0  0  0
 16 20  1  0  0  0  0
 16 10  1  0  0  0  0
 17 11  1  0  0  0  0
 19 16  1  0  0  0  0
 21  6  1  0  0  0  0
 21 26  1  0  0  0  0
 22 21  2  0  0  0  0
 23 22  1  0  0  0  0
 23 24  2  0  0  0  0
 24 25  1  0  0  0  0
 25 26  2  0  0  0  0
 25 30  1  0  0  0  0
 26 32  1  0  0  0  0
 27 22  1  0  0  0  0
 28 23  1  0  0  0  0
 29 24  1  0  0  0  0
 31 41  1  0  0  0  0
 32 31  2  0  0  0  0
 32 33  1  0  0  0  0
 33 35  2  0  0  0  0
 34 33  1  0  0  0  0
 35 40  1  0  0  0  0
 35 36  1  0  0  0  0
 36 42  1  0  0  0  0
 36 37  1  0  0  0  0
 37 38  1  0  0  0  0
 39 37  2  0  0  0  0
 40 39  1  0  0  0  0
 41 40  2  0  0  0  0
 44 43  3  0  0  0  0
M  END
>  <minimizedAffinity>
-7.49437571

$$$$

 OpenBabel03252508413D

 44 48  0  0  0  0  0  0  0  0999 V2000
   38.8100   27.2230   41.4700 C   0  0  0  0  0  0  0  0  0  0  0  0
   39.2880   27.4920   42.7190 C   0  0  0  0  0  0  0  0  0  0  0  0
   38.3760   27.8400   43.6800 C   0  0  0  0  0  0  0  0  0  0  0  0
   37.0230   27.9310   43.4490 C   0  0  0  0  0  0  0  0  0  0  0  0
   36.5800   27.6520   42.1730 C   0  0  0  0  0  0  0  0  0  0  0  0
   37.4620   27.2960   41.1680 C   0  0  0  0  0  0  0  0  0  0  0  0
   38.7460   28.0540   44.6730 H   0  0  0  0  0  0  0  0  0  0  0  0
   36.3620   28.2090   44.2410 H   0  0  0  0  0  0  0  0  0  0  0  0
   35.5070   27.7230   41.9800 H   0  0  0  0  0  0  0  0  0  0  0  0
   42.7320   26.0680   43.3550 C   0  0  0  0  0  0  0  0  0  0  0  0
   41.3370   26.1290   43.1600 C   0  0  0  0  0  0  0  0  0  0  0  0
   40.7250   27.3830   42.9250 C   0  0  0  0  0  0  0  0  0  0  0  0
   41.5610   28.4380   42.9090 N   0  0  0  0  0  0  0  0  0  0  0  0
   42.8740   28.3570   43.0950 C   0  0  0  0  0  0  0  0  0  0  0  0
   43.4570   27.1690   43.3180 N   0  0  0  0  0  0  0  0  0  0  0  0
   43.2910   24.7820   43.5880 N   0  0  0  0  0  0  0  0  0  0  0  0
   40.7040   25.2490   43.1830 H   0  0  0  0  0  0  0  0  0  0  0  0
   43.4910   29.2500   43.0690 H   0  0  0  0  0  0  0  0  0  0  0  0
   43.3470   23.9510   42.9390 H   0  0  0  0  0  0  0  0  0  0  0  0
   43.7320   24.5280   44.4980 H   0  0  0  0  0  0  0  0  0  0  0  0
   36.8910   27.0270   39.8650 C   0  0  0  0  0  0  0  0  0  0  0  0
   36.4490   25.7320   39.6640 C   0  0  0  0  0  0  0  0  0  0  0  0
   35.8710   25.2780   38.4810 C   0  0  0  0  0  0  0  0  0  0  0  0
   35.7410   26.2000   37.4530 C   0  0  0  0  0  0  0  0  0  0  0  0
   36.1750   27.5010   37.6300 C   0  0  0  0  0  0  0  0  0  0  0  0
   36.7410   27.9000   38.8240 C   0  0  0  0  0  0  0  0  0  0  0  0
   36.5100   24.9380   40.4150 H   0  0  0  0  0  0  0  0  0  0  0  0
   35.5300   24.2830   38.3230 H   0  0  0  0  0  0  0  0  0  0  0  0
   35.3000   25.9100   36.5080 H   0  0  0  0  0  0  0  0  0  0  0  0
   36.0990   28.2700   36.8590 H   0  0  0  0  0  0  0  0  0  0  0  0
   38.4580   29.4870   38.4480 C   0  0  0  0  0  3  0  0  0  0  0  0
   37.2070   29.2640   39.0320 C   0  0  0  0  0  0  0  0  0  0  0  0
   36.6210   30.3250   39.6890 C   0  0  0  0  0  0  0  0  0  0  0  0
   35.6590   30.0620   40.1070 H   0  0  0  0  0  0  0  0  0  0  0  0
   37.2660   31.5390   39.7510 C   0  0  0  0  0  0  0  0  0  0  0  0
   36.8650   32.6710   40.3340 N   0  0  0  0  0  0  0  0  0  0  0  0
   37.8240   33.6110   40.1390 C   0  0  0  0  0  0  0  0  0  0  0  0
   37.7910   34.6380   40.4940 H   0  0  0  0  0  0  0  0  0  0  0  0
   38.8180   33.0330   39.4260 N   0  0  0  0  0  0  0  0  0  0  0  0
   38.4820   31.7440   39.1790 C   0  0  0  0  0  0  0  0  0  0  0  0
   39.1090   30.7130   38.5100 C   0  0  0  0  0  3  0  0  0  0  0  0
   35.9740   32.8450   40.8590 H   0  0  0  0  0  0  0  0  0  0  0  0
   40.4290   26.5410   39.5220 N   0  0  0  0  0  0  0  0  0  0  0  0
   39.7090   26.8500   40.3980 C   0  0  0  0  0  0  0  0  0  0  0  0
  1  2  1  0  0  0  0
  2 12  1  0  0  0  0
  2  3  2  0  0  0  0
  3  7  1  0  0  0  0
  4  3  1  0  0  0  0
  4  8  1  0  0  0  0
  5  4  2  0  0  0  0
  6  1  2  0  0  0  0
  6  5  1  0  0  0  0
  9  5  1  0  0  0  0
 10 16  1  0  0  0  0
 11 17  1  0  0  0  0
 11 10  2  0  0  0  0
 12 11  1  0  0  0  0
 13 12  2  0  0  0  0
 13 14  1  0  0  0  0
 14 15  2  0  0  0  0
 15 10  1  0  0  0  0
 16 20  1  0  0  0  0
 18 14  1  0  0  0  0
 19 16  1  0  0  0  0
 21  6  1  0  0  0  0
 22 21  1  0  0  0  0
 22 27  1  0  0  0  0
 23 22  2  0  0  0  0
 24 25  2  0  0  0  0
 24 23  1  0  0  0  0
 25 26  1  0  0  0  0
 26 32  1  0  0  0  0
 26 21  2  0  0  0  0
 28 23  1  0  0  0  0
 29 24  1  0  0  0  0
 30 25  1  0  0  0  0
 31 41  2  0  0  0  0
 31 32  1  0  0  0  0
 32 33  2  0  0  0  0
 33 35  1  0  0  0  0
 33 34  1  0  0  0  0
 35 36  1  0  0  0  0
 36 42  1  0  0  0  0
 37 36  1  0  0  0  0
 37 38  1  0  0  0  0
 39 37  2  0  0  0  0
 40 39  1  0  0  0  0
 40 35  2  0  0  0  0
 41 40  1  0  0  0  0
 43 44  3  0  0  0  0
 44  1  1  0  0  0  0
M  END
>  <minimizedAffinity>
-7.08519506

$$$$

 OpenBabel03252508413D

 44 48  0  0  0  0  0  0  0  0999 V2000
   38.1940   29.4110   40.1640 C   0  0  0  0  0  0  0  0  0  0  0  0
   38.2640   30.7710   40.2480 C   0  0  0  0  0  0  0  0  0  0  0  0
   37.1270   31.4360   40.6230 C   0  0  0  0  0  0  0  0  0  0  0  0
   35.9370   30.8090   40.9130 C   0  0  0  0  0  0  0  0  0  0  0  0
   35.9090   29.4330   40.8150 C   0  0  0  0  0  0  0  0  0  0  0  0
   37.0310   28.7160   40.4410 C   0  0  0  0  0  0  0  0  0  0  0  0
   37.1720   32.5140   40.6930 H   0  0  0  0  0  0  0  0  0  0  0  0
   35.0840   31.3840   41.2000 H   0  0  0  0  0  0  0  0  0  0  0  0
   34.9670   28.9260   41.0430 H   0  0  0  0  0  0  0  0  0  0  0  0
   41.0360   32.5540   38.3970 C   0  0  0  0  0  0  0  0  0  0  0  0
   39.7860   31.9550   38.6590 C   0  0  0  0  0  0  0  0  0  0  0  0
   39.5390   31.3980   39.9350 C   0  0  0  0  0  0  0  0  0  0  0  0
   40.5560   31.4950   40.8120 N   0  0  0  0  0  0  0  0  0  0  0  0
   41.7270   32.0630   40.5430 C   0  0  0  0  0  0  0  0  0  0  0  0
   41.9640   32.5920   39.3330 N   0  0  0  0  0  0  0  0  0  0  0  0
   41.2280   33.0960   37.0970 N   0  0  0  0  0  0  0  0  0  0  0  0
   38.9960   31.9020   37.9180 H   0  0  0  0  0  0  0  0  0  0  0  0
   42.5050   32.1060   41.2990 H   0  0  0  0  0  0  0  0  0  0  0  0
   40.7420   33.9120   36.6360 H   0  0  0  0  0  0  0  0  0  0  0  0
   41.9250   32.6990   36.4300 H   0  0  0  0  0  0  0  0  0  0  0  0
   36.8910   27.2760   40.3670 C   0  0  0  0  0  0  0  0  0  0  0  0
   37.1260   26.5940   41.5470 C   0  0  0  0  0  0  0  0  0  0  0  0
   37.0410   25.2110   41.6800 C   0  0  0  0  0  0  0  0  0  0  0  0
   36.6980   24.4920   40.5450 C   0  0  0  0  0  0  0  0  0  0  0  0
   36.4570   25.1520   39.3540 C   0  0  0  0  0  0  0  0  0  0  0  0
   36.5540   26.5270   39.2750 C   0  0  0  0  0  0  0  0  0  0  0  0
   37.4020   27.0750   42.4910 H   0  0  0  0  0  0  0  0  0  0  0  0
   37.2220   24.6820   42.5850 H   0  0  0  0  0  0  0  0  0  0  0  0
   36.6150   23.4130   40.5810 H   0  0  0  0  0  0  0  0  0  0  0  0
   36.1830   24.6420   38.4280 H   0  0  0  0  0  0  0  0  0  0  0  0
   34.9640   27.6120   37.8960 C   0  0  0  0  0  3  0  0  0  0  0  0
   36.3070   27.2420   38.0320 C   0  0  0  0  0  0  0  0  0  0  0  0
   37.1630   27.5980   37.0120 C   0  0  0  0  0  0  0  0  0  0  0  0
   38.1760   27.2740   37.2010 H   0  0  0  0  0  0  0  0  0  0  0  0
   36.6860   28.2860   35.9200 C   0  0  0  0  0  0  0  0  0  0  0  0
   37.3510   28.7140   34.8440 N   0  0  0  0  0  0  0  0  0  0  0  0
   36.4730   29.3470   34.0250 C   0  0  0  0  0  0  0  0  0  0  0  0
   36.7100   29.8060   33.0690 H   0  0  0  0  0  0  0  0  0  0  0  0
   35.2590   29.2980   34.6210 N   0  0  0  0  0  0  0  0  0  0  0  0
   35.3790   28.6400   35.7990 C   0  0  0  0  0  0  0  0  0  0  0  0
   34.4830   28.3070   36.7940 C   0  0  0  0  0  3  0  0  0  0  0  0
   38.3720   28.6030   34.6320 H   0  0  0  0  0  0  0  0  0  0  0  0
   40.2850   27.9930   39.4540 N   0  0  0  0  0  0  0  0  0  0  0  0
   39.3520   28.6340   39.7720 C   0  0  0  0  0  0  0  0  0  0  0  0
  1  2  2  0  0  0  0
  1  6  1  0  0  0  0
  2  3  1  0  0  0  0
  3  7  1  0  0  0  0
  3  4  2  0  0  0  0
  4  8  1  0  0  0  0
  5  4  1  0  0  0  0
  5  9  1  0  0  0  0
  6  5  2  0  0  0  0
 10 11  2  0  0  0  0
 10 15  1  0  0  0  0
 11 12  1  0  0  0  0
 12  2  1  0  0  0  0
 12 13  2  0  0  0  0
 14 13  1  0  0  0  0
 14 18  1  0  0  0  0
 15 14  2  0  0  0  0
 16 10  1  0  0  0  0
 17 11  1  0  0  0  0
 19 16  1  0  0  0  0
 20 16  1  0  0  0  0
 21  6  1  0  0  0  0
 21 22  1  0  0  0  0
 22 23  2  0  0  0  0
 22 27  1  0  0  0  0
 23 28  1  0  0  0  0
 24 29  1  0  0  0  0
 24 23  1  0  0  0  0
 25 24  2  0  0  0  0
 26 25  1  0  0  0  0
 26 21  2  0  0  0  0
 30 25  1  0  0  0  0
 31 32  1  0  0  0  0
 32 26  1  0  0  0  0
 33 34  1  0  0  0  0
 33 32  2  0  0  0  0
 35 33  1  0  0  0  0
 36 35  1  0  0  0  0
 37 39  2  0  0  0  0
 37 36  1  0  0  0  0
 38 37  1  0  0  0  0
 39 40  1  0  0  0  0
 40 35  2  0  0  0  0
 40 41  1  0  0  0  0
 41 31  2  0  0  0  0
 42 36  1  0  0  0  0
 43 44  3  0  0  0  0
 44  1  1  0  0  0  0
M  END
>  <minimizedAffinity>
-6.75014114

$$$$

 OpenBabel03252508413D

 44 48  0  0  0  0  0  0  0  0999 V2000
   38.2070   28.1190   40.9940 C   0  0  0  0  0  0  0  0  0  0  0  0
   38.2650   29.2060   41.8160 C   0  0  0  0  0  0  0  0  0  0  0  0
   37.9860   29.0060   43.1410 C   0  0  0  0  0  0  0  0  0  0  0  0
   37.6550   27.7820   43.6760 C   0  0  0  0  0  0  0  0  0  0  0  0
   37.6070   26.7090   42.8100 C   0  0  0  0  0  0  0  0  0  0  0  0
   37.8800   26.8590   41.4630 C   0  0  0  0  0  0  0  0  0  0  0  0
   38.0310   29.8620   43.8020 H   0  0  0  0  0  0  0  0  0  0  0  0
   37.4480   27.6920   44.7200 H   0  0  0  0  0  0  0  0  0  0  0  0
   37.3430   25.7320   43.2260 H   0  0  0  0  0  0  0  0  0  0  0  0
   38.0130   32.6390   40.2540 C   0  0  0  0  0  0  0  0  0  0  0  0
   37.6250   31.4130   40.8330 C   0  0  0  0  0  0  0  0  0  0  0  0
   38.6200   30.4830   41.2150 C   0  0  0  0  0  0  0  0  0  0  0  0
   39.8890   30.8680   40.9810 N   0  0  0  0  0  0  0  0  0  0  0  0
   40.2310   32.0290   40.4340 C   0  0  0  0  0  0  0  0  0  0  0  0
   39.2890   32.9140   40.0700 N   0  0  0  0  0  0  0  0  0  0  0  0
   36.9700   33.5340   39.8900 N   0  0  0  0  0  0  0  0  0  0  0  0
   36.5880   31.1470   41.0010 H   0  0  0  0  0  0  0  0  0  0  0  0
   41.2770   32.2770   40.2730 H   0  0  0  0  0  0  0  0  0  0  0  0
   36.2830   34.0450   40.5070 H   0  0  0  0  0  0  0  0  0  0  0  0
   36.7790   33.7840   38.8950 H   0  0  0  0  0  0  0  0  0  0  0  0
   37.7980   25.6670   40.6440 C   0  0  0  0  0  0  0  0  0  0  0  0
   36.5500   25.3930   40.1150 C   0  0  0  0  0  0  0  0  0  0  0  0
   36.2680   24.2970   39.3040 C   0  0  0  0  0  0  0  0  0  0  0  0
   37.3210   23.4390   39.0220 C   0  0  0  0  0  0  0  0  0  0  0  0
   38.5780   23.6920   39.5390 C   0  0  0  0  0  0  0  0  0  0  0  0
   38.8040   24.7950   40.3390 C   0  0  0  0  0  0  0  0  0  0  0  0
   35.6620   26.0110   40.2820 H   0  0  0  0  0  0  0  0  0  0  0  0
   35.3100   24.0820   38.8960 H   0  0  0  0  0  0  0  0  0  0  0  0
   37.1680   22.5680   38.3980 H   0  0  0  0  0  0  0  0  0  0  0  0
   39.4450   23.0550   39.3530 H   0  0  0  0  0  0  0  0  0  0  0  0
   40.9460   25.7400   39.9790 C   0  0  0  0  0  3  0  0  0  0  0  0
   40.1190   25.0800   40.8950 C   0  0  0  0  0  0  0  0  0  0  0  0
   40.6480   24.8120   42.1390 C   0  0  0  0  0  0  0  0  0  0  0  0
   39.9420   24.3030   42.7790 H   0  0  0  0  0  0  0  0  0  0  0  0
   41.9380   25.1890   42.4360 C   0  0  0  0  0  0  0  0  0  0  0  0
   42.6190   25.0190   43.5710 N   0  0  0  0  0  0  0  0  0  0  0  0
   43.8570   25.5510   43.4070 C   0  0  0  0  0  0  0  0  0  0  0  0
   44.6470   25.5700   44.1550 H   0  0  0  0  0  0  0  0  0  0  0  0
   43.9190   26.0490   42.1510 N   0  0  0  0  0  0  0  0  0  0  0  0
   42.7320   25.8290   41.5370 C   0  0  0  0  0  0  0  0  0  0  0  0
   42.2480   26.1200   40.2790 C   0  0  0  0  0  3  0  0  0  0  0  0
   42.2930   24.5620   44.4570 H   0  0  0  0  0  0  0  0  0  0  0  0
   38.7130   28.3370   38.4290 N   0  0  0  0  0  0  0  0  0  0  0  0
   38.4850   28.2460   39.5780 C   0  0  0  0  0  0  0  0  0  0  0  0
  1  6  2  0  0  0  0
  1  2  1  0  0  0  0
  2  3  2  0  0  0  0
  3  4  1  0  0  0  0
  3  7  1  0  0  0  0
  4  8  1  0  0  0  0
  5  9  1  0  0  0  0
  5  4  2  0  0  0  0
  6  5  1  0  0  0  0
 10 11  1  0  0  0  0
 11 17  1  0  0  0  0
 11 12  2  0  0  0  0
 12  2  1  0  0  0  0
 13 12  1  0  0  0  0
 14 13  2  0  0  0  0
 15 10  2  0  0  0  0
 15 14  1  0  0  0  0
 16 10  1  0  0  0  0
 16 19  1  0  0  0  0
 18 14  1  0  0  0  0
 20 16  1  0  0  0  0
 21  6  1  0  0  0  0
 22 27  1  0  0  0  0
 22 21  2  0  0  0  0
 23 22  1  0  0  0  0
 24 23  2  0  0  0  0
 24 25  1  0  0  0  0
 25 26  2  0  0  0  0
 26 21  1  0  0  0  0
 26 32  1  0  0  0  0
 28 23  1  0  0  0  0
 29 24  1  0  0  0  0
 30 25  1  0  0  0  0
 31 41  2  0  0  0  0
 31 32  1  0  0  0  0
 32 33  2  0  0  0  0
 33 35  1  0  0  0  0
 33 34  1  0  0  0  0
 35 36  1  0  0  0  0
 36 42  1  0  0  0  0
 37 36  1  0  0  0  0
 37 38  1  0  0  0  0
 39 37  2  0  0  0  0
 40 39  1  0  0  0  0
 40 35  2  0  0  0  0
 41 40  1  0  0  0  0
 43 44  3  0  0  0  0
 44  1  1  0  0  0  0
M  END
>  <minimizedAffinity>
-6.74300241

$$$$

 OpenBabel03252508413D

 44 48  0  0  0  0  0  0  0  0999 V2000
   39.3960   31.0950   40.3750 C   0  0  0  0  0  0  0  0  0  0  0  0
   39.7610   32.2820   39.8090 C   0  0  0  0  0  0  0  0  0  0  0  0
   38.7800   33.2210   39.6340 C   0  0  0  0  0  0  0  0  0  0  0  0
   37.4660   33.0300   39.9950 C   0  0  0  0  0  0  0  0  0  0  0  0
   37.1390   31.8160   40.5640 C   0  0  0  0  0  0  0  0  0  0  0  0
   38.0940   30.8350   40.7620 C   0  0  0  0  0  0  0  0  0  0  0  0
   39.0590   34.1660   39.1870 H   0  0  0  0  0  0  0  0  0  0  0  0
   36.7480   33.8030   39.8320 H   0  0  0  0  0  0  0  0  0  0  0  0
   36.0970   31.6540   40.8530 H   0  0  0  0  0  0  0  0  0  0  0  0
   42.9930   32.2450   37.8490 C   0  0  0  0  0  0  0  0  0  0  0  0
   41.6300   32.0660   38.1640 C   0  0  0  0  0  0  0  0  0  0  0  0
   41.1590   32.4480   39.4420 C   0  0  0  0  0  0  0  0  0  0  0  0
   42.0880   32.9640   40.2680 N   0  0  0  0  0  0  0  0  0  0  0  0
   43.3690   33.1240   39.9500 C   0  0  0  0  0  0  0  0  0  0  0  0
   43.8180   32.7610   38.7380 N   0  0  0  0  0  0  0  0  0  0  0  0
   43.4090   31.8420   36.5510 N   0  0  0  0  0  0  0  0  0  0  0  0
   40.9180   31.6450   37.4630 H   0  0  0  0  0  0  0  0  0  0  0  0
   44.0670   33.5470   40.6660 H   0  0  0  0  0  0  0  0  0  0  0  0
   43.1420   32.2400   35.6110 H   0  0  0  0  0  0  0  0  0  0  0  0
   44.0720   31.0490   36.4040 H   0  0  0  0  0  0  0  0  0  0  0  0
   37.6420   29.5980   41.3640 C   0  0  0  0  0  0  0  0  0  0  0  0
   37.8890   29.4690   42.7190 C   0  0  0  0  0  0  0  0  0  0  0  0
   37.5310   28.3580   43.4770 C   0  0  0  0  0  0  0  0  0  0  0  0
   36.8880   27.3250   42.8100 C   0  0  0  0  0  0  0  0  0  0  0  0
   36.6300   27.4300   41.4560 C   0  0  0  0  0  0  0  0  0  0  0  0
   37.0050   28.5550   40.7500 C   0  0  0  0  0  0  0  0  0  0  0  0
   38.3890   30.2300   43.3270 H   0  0  0  0  0  0  0  0  0  0  0  0
   37.7200   28.2560   44.5190 H   0  0  0  0  0  0  0  0  0  0  0  0
   36.5840   26.4330   43.3420 H   0  0  0  0  0  0  0  0  0  0  0  0
   36.1280   26.6520   40.8770 H   0  0  0  0  0  0  0  0  0  0  0  0
   35.4030   28.9830   39.0590 C   0  0  0  0  0  3  0  0  0  0  0  0
   36.7450   28.6870   39.3240 C   0  0  0  0  0  0  0  0  0  0  0  0
   37.5890   28.5710   38.2400 C   0  0  0  0  0  0  0  0  0  0  0  0
   38.6020   28.3420   38.5370 H   0  0  0  0  0  0  0  0  0  0  0  0
   37.1010   28.7440   36.9650 C   0  0  0  0  0  0  0  0  0  0  0  0
   37.7540   28.6720   35.8020 N   0  0  0  0  0  0  0  0  0  0  0  0
   36.8680   28.9150   34.8020 C   0  0  0  0  0  0  0  0  0  0  0  0
   37.0950   28.9280   33.7390 H   0  0  0  0  0  0  0  0  0  0  0  0
   35.6630   29.1360   35.3760 N   0  0  0  0  0  0  0  0  0  0  0  0
   35.7950   29.0320   36.7200 C   0  0  0  0  0  0  0  0  0  0  0  0
   34.9120   29.1580   37.7720 C   0  0  0  0  0  3  0  0  0  0  0  0
   38.7700   28.4690   35.6460 H   0  0  0  0  0  0  0  0  0  0  0  0
   41.1640   29.1950   40.7570 N   0  0  0  0  0  0  0  0  0  0  0  0
   40.3730   30.0480   40.5930 C   0  0  0  0  0  0  0  0  0  0  0  0
  1 44  1  0  0  0  0
  1  6  1  0  0  0  0
  2  1  2  0  0  0  0
  3  2  1  0  0  0  0
  3  4  2  0  0  0  0
  4  5  1  0  0  0  0
  5  6  2  0  0  0  0
  5  9  1  0  0  0  0
  6 21  1  0  0  0  0
  7  3  1  0  0  0  0
  8  4  1  0  0  0  0
 10 11  2  0  0  0  0
 10 15  1  0  0  0  0
 11 12  1  0  0  0  0
 12  2  1  0  0  0  0
 12 13  2  0  0  0  0
 14 13  1  0  0  0  0
 14 18  1  0  0  0  0
 15 14  2  0  0  0  0
 16 10  1  0  0  0  0
 17 11  1  0  0  0  0
 19 16  1  0  0  0  0
 20 16  1  0  0  0  0
 21 22  1  0  0  0  0
 22 27  1  0  0  0  0
 22 23  2  0  0  0  0
 23 28  1  0  0  0  0
 24 29  1  0  0  0  0
 24 23  1  0  0  0  0
 25 24  2  0  0  0  0
 26 21  2  0  0  0  0
 26 25  1  0  0  0  0
 30 25  1  0  0  0  0
 31 32  1  0  0  0  0
 32 26  1  0  0  0  0
 33 34  1  0  0  0  0
 33 32  2  0  0  0  0
 35 33  1  0  0  0  0
 36 35  1  0  0  0  0
 37 39  2  0  0  0  0
 37 36  1  0  0  0  0
 38 37  1  0  0  0  0
 39 40  1  0  0  0  0
 40 35  2  0  0  0  0
 40 41  1  0  0  0  0
 41 31  2  0  0  0  0
 42 36  1  0  0  0  0
 44 43  3  0  0  0  0
M  END
>  <minimizedAffinity>
-6.71900606

$$$$

 OpenBabel03252508413D

 44 48  0  0  0  0  0  0  0  0999 V2000
   38.5090   30.3960   38.8180 C   0  0  0  0  0  0  0  0  0  0  0  0
   39.1080   31.4840   39.3850 C   0  0  0  0  0  0  0  0  0  0  0  0
   38.3650   32.2190   40.2700 C   0  0  0  0  0  0  0  0  0  0  0  0
   37.0660   31.9190   40.6100 C   0  0  0  0  0  0  0  0  0  0  0  0
   36.4980   30.8120   40.0140 C   0  0  0  0  0  0  0  0  0  0  0  0
   37.2070   30.0370   39.1140 C   0  0  0  0  0  0  0  0  0  0  0  0
   38.8310   33.0820   40.7250 H   0  0  0  0  0  0  0  0  0  0  0  0
   36.5400   32.5330   41.3080 H   0  0  0  0  0  0  0  0  0  0  0  0
   35.4660   30.5660   40.2770 H   0  0  0  0  0  0  0  0  0  0  0  0
   42.1310   33.0170   37.7130 C   0  0  0  0  0  0  0  0  0  0  0  0
   40.7850   32.7740   38.0550 C   0  0  0  0  0  0  0  0  0  0  0  0
   40.4830   31.7680   39.0020 C   0  0  0  0  0  0  0  0  0  0  0  0
   41.5460   31.1130   39.5050 N   0  0  0  0  0  0  0  0  0  0  0  0
   42.8070   31.3590   39.1680 C   0  0  0  0  0  0  0  0  0  0  0  0
   43.0970   32.3130   38.2690 N   0  0  0  0  0  0  0  0  0  0  0  0
   42.3740   34.0400   36.7550 N   0  0  0  0  0  0  0  0  0  0  0  0
   39.9610   33.3300   37.6210 H   0  0  0  0  0  0  0  0  0  0  0  0
   43.6190   30.7910   39.6140 H   0  0  0  0  0  0  0  0  0  0  0  0
   42.2080   35.0790   36.8310 H   0  0  0  0  0  0  0  0  0  0  0  0
   42.7730   33.8310   35.8130 H   0  0  0  0  0  0  0  0  0  0  0  0
   36.5140   28.8990   38.5460 C   0  0  0  0  0  0  0  0  0  0  0  0
   35.7410   29.1680   37.4310 C   0  0  0  0  0  0  0  0  0  0  0  0
   35.0010   28.2100   36.7430 C   0  0  0  0  0  0  0  0  0  0  0  0
   35.0570   26.9110   37.2240 C   0  0  0  0  0  0  0  0  0  0  0  0
   35.8230   26.6170   38.3370 C   0  0  0  0  0  0  0  0  0  0  0  0
   36.5390   27.6050   38.9830 C   0  0  0  0  0  0  0  0  0  0  0  0
   35.6360   30.1600   36.9810 H   0  0  0  0  0  0  0  0  0  0  0  0
   34.4050   28.4130   35.8850 H   0  0  0  0  0  0  0  0  0  0  0  0
   34.5040   26.1190   36.7350 H   0  0  0  0  0  0  0  0  0  0  0  0
   35.9060   25.6140   38.7630 H   0  0  0  0  0  0  0  0  0  0  0  0
   36.6260   27.4630   41.3460 C   0  0  0  0  0  3  0  0  0  0  0  0
   37.3500   27.3180   40.1570 C   0  0  0  0  0  0  0  0  0  0  0  0
   38.6710   26.9380   40.2690 C   0  0  0  0  0  0  0  0  0  0  0  0
   39.1510   26.8510   39.3040 H   0  0  0  0  0  0  0  0  0  0  0  0
   39.2230   26.7200   41.5100 C   0  0  0  0  0  0  0  0  0  0  0  0
   40.4690   26.3510   41.8180 N   0  0  0  0  0  0  0  0  0  0  0  0
   40.5620   26.2560   43.1690 C   0  0  0  0  0  0  0  0  0  0  0  0
   41.4500   25.9750   43.7290 H   0  0  0  0  0  0  0  0  0  0  0  0
   39.3490   26.5730   43.6790 N   0  0  0  0  0  0  0  0  0  0  0  0
   38.5090   26.8640   42.6570 C   0  0  0  0  0  0  0  0  0  0  0  0
   37.1850   27.2420   42.5980 C   0  0  0  0  0  3  0  0  0  0  0  0
   41.2650   26.1580   41.1630 H   0  0  0  0  0  0  0  0  0  0  0  0
   39.7970   28.8890   37.1000 N   0  0  0  0  0  0  0  0  0  0  0  0
   39.2250   29.5680   37.8700 C   0  0  0  0  0  0  0  0  0  0  0  0
  1  6  2  0  0  0  0
  1  2  1  0  0  0  0
  2  3  2  0  0  0  0
  3  4  1  0  0  0  0
  3  7  1  0  0  0  0
  4  8  1  0  0  0  0
  5  9  1  0  0  0  0
  5  4  2  0  0  0  0
  6  5  1  0  0  0  0
 10 11  2  0  0  0  0
 10 15  1  0  0  0  0
 11 12  1  0  0  0  0
 12  2  1  0  0  0  0
 12 13  2  0  0  0  0
 14 13  1  0  0  0  0
 14 18  1  0  0  0  0
 15 14  2  0  0  0  0
 16 19  1  0  0  0  0
 16 10  1  0  0  0  0
 17 11  1  0  0  0  0
 20 16  1  0  0  0  0
 21 26  1  0  0  0  0
 21  6  1  0  0  0  0
 22 21  2  0  0  0  0
 23 24  2  0  0  0  0
 23 22  1  0  0  0  0
 24 25  1  0  0  0  0
 25 30  1  0  0  0  0
 25 26  2  0  0  0  0
 26 32  1  0  0  0  0
 27 22  1  0  0  0  0
 28 23  1  0  0  0  0
 29 24  1  0  0  0  0
 31 41  1  0  0  0  0
 32 33  1  0  0  0  0
 32 31  2  0  0  0  0
 33 35  2  0  0  0  0
 34 33  1  0  0  0  0
 35 36  1  0  0  0  0
 35 40  1  0  0  0  0
 36 37  1  0  0  0  0
 37 39  2  0  0  0  0
 37 38  1  0  0  0  0
 40 39  1  0  0  0  0
 41 40  2  0  0  0  0
 42 36  1  0  0  0  0
 43 44  3  0  0  0  0
 44  1  1  0  0  0  0
M  END
>  <minimizedAffinity>
-6.53828239

$$$$

 OpenBabel03252508413D

 44 48  0  0  0  0  0  0  0  0999 V2000
   36.7320   27.7980   39.1100 C   0  0  0  0  0  0  0  0  0  0  0  0
   35.6990   28.2620   38.3500 C   0  0  0  0  0  0  0  0  0  0  0  0
   34.7390   29.0060   38.9820 C   0  0  0  0  0  0  0  0  0  0  0  0
   34.7640   29.3020   40.3250 C   0  0  0  0  0  0  0  0  0  0  0  0
   35.8260   28.8130   41.0590 C   0  0  0  0  0  0  0  0  0  0  0  0
   36.8210   28.0570   40.4660 C   0  0  0  0  0  0  0  0  0  0  0  0
   33.9160   29.3800   38.3870 H   0  0  0  0  0  0  0  0  0  0  0  0
   33.9840   29.8880   40.7600 H   0  0  0  0  0  0  0  0  0  0  0  0
   35.8540   29.0420   42.1270 H   0  0  0  0  0  0  0  0  0  0  0  0
   36.2890   28.4340   34.6200 C   0  0  0  0  0  0  0  0  0  0  0  0
   36.3030   28.7940   35.9840 C   0  0  0  0  0  0  0  0  0  0  0  0
   35.7070   27.9310   36.9330 C   0  0  0  0  0  0  0  0  0  0  0  0
   35.1630   26.8080   36.4280 N   0  0  0  0  0  0  0  0  0  0  0  0
   35.1610   26.4890   35.1380 C   0  0  0  0  0  0  0  0  0  0  0  0
   35.7260   27.3060   34.2350 N   0  0  0  0  0  0  0  0  0  0  0  0
   36.9020   29.3400   33.7120 N   0  0  0  0  0  0  0  0  0  0  0  0
   36.7550   29.7120   36.3420 H   0  0  0  0  0  0  0  0  0  0  0  0
   34.7030   25.5640   34.7990 H   0  0  0  0  0  0  0  0  0  0  0  0
   37.9170   29.6150   33.6270 H   0  0  0  0  0  0  0  0  0  0  0  0
   36.3530   29.8540   32.9890 H   0  0  0  0  0  0  0  0  0  0  0  0
   37.8870   27.5910   41.3290 C   0  0  0  0  0  0  0  0  0  0  0  0
   37.7310   26.3130   41.8330 C   0  0  0  0  0  0  0  0  0  0  0  0
   38.6440   25.6880   42.6770 C   0  0  0  0  0  0  0  0  0  0  0  0
   39.7760   26.4120   43.0220 C   0  0  0  0  0  0  0  0  0  0  0  0
   39.9550   27.6920   42.5310 C   0  0  0  0  0  0  0  0  0  0  0  0
   39.0180   28.2660   41.6960 C   0  0  0  0  0  0  0  0  0  0  0  0
   36.8730   25.6680   41.6160 H   0  0  0  0  0  0  0  0  0  0  0  0
   38.5270   24.7050   43.0660 H   0  0  0  0  0  0  0  0  0  0  0  0
   40.5240   25.9840   43.6750 H   0  0  0  0  0  0  0  0  0  0  0  0
   40.8230   28.3110   42.7660 H   0  0  0  0  0  0  0  0  0  0  0  0
   39.8580   29.6170   39.9410 C   0  0  0  0  0  3  0  0  0  0  0  0
   39.1850   29.6130   41.1680 C   0  0  0  0  0  0  0  0  0  0  0  0
   38.7920   30.8330   41.6740 C   0  0  0  0  0  0  0  0  0  0  0  0
   38.2800   30.7350   42.6210 H   0  0  0  0  0  0  0  0  0  0  0  0
   39.0670   31.9890   40.9780 C   0  0  0  0  0  0  0  0  0  0  0  0
   38.7710   33.2500   41.3010 N   0  0  0  0  0  0  0  0  0  0  0  0
   39.2350   34.0600   40.3160 C   0  0  0  0  0  0  0  0  0  0  0  0
   39.1480   35.1440   40.2880 H   0  0  0  0  0  0  0  0  0  0  0  0
   39.8200   33.2700   39.3860 N   0  0  0  0  0  0  0  0  0  0  0  0
   39.7220   31.9800   39.7870 C   0  0  0  0  0  0  0  0  0  0  0  0
   40.1340   30.7840   39.2400 C   0  0  0  0  0  3  0  0  0  0  0  0
   38.2680   33.5960   42.1540 H   0  0  0  0  0  0  0  0  0  0  0  0
   38.6520   26.3630   38.0420 N   0  0  0  0  0  0  0  0  0  0  0  0
   37.7870   27.0010   38.5180 C   0  0  0  0  0  0  0  0  0  0  0  0
  1  6  1  0  0  0  0
  2  3  1  0  0  0  0
  2  1  2  0  0  0  0
  3  4  2  0  0  0  0
  4  8  1  0  0  0  0
  4  5  1  0  0  0  0
  5  9  1  0  0  0  0
  6  5  2  0  0  0  0
  6 21  1  0  0  0  0
  7  3  1  0  0  0  0
 10 11  1  0  0  0  0
 11 17  1  0  0  0  0
 11 12  2  0  0  0  0
 12  2  1  0  0  0  0
 13 12  1  0  0  0  0
 14 13  2  0  0  0  0
 15 10  2  0  0  0  0
 15 14  1  0  0  0  0
 16 10  1  0  0  0  0
 18 14  1  0  0  0  0
 19 16  1  0  0  0  0
 20 16  1  0  0  0  0
 21 26  2  0  0  0  0
 21 22  1  0  0  0  0
 22 23  2  0  0  0  0
 23 24  1  0  0  0  0
 23 28  1  0  0  0  0
 24 29  1  0  0  0  0
 25 30  1  0  0  0  0
 25 24  2  0  0  0  0
 26 25  1  0  0  0  0
 27 22  1  0  0  0  0
 31 32  1  0  0  0  0
 32 33  2  0  0  0  0
 32 26  1  0  0  0  0
 33 34  1  0  0  0  0
 35 36  1  0  0  0  0
 35 33  1  0  0  0  0
 36 42  1  0  0  0  0
 37 36  1  0  0  0  0
 38 37  1  0  0  0  0
 39 40  1  0  0  0  0
 39 37  2  0  0  0  0
 40 35  2  0  0  0  0
 41 40  1  0  0  0  0
 41 31  2  0  0  0  0
 43 44  3  0  0  0  0
 44  1  1  0  0  0  0
M  END
>  <minimizedAffinity>
-6.42343855

$$$$

 OpenBabel03252508413D

 44 48  0  0  0  0  0  0  0  0999 V2000
   36.4950   27.2880   39.0690 C   0  0  0  0  0  0  0  0  0  0  0  0
   35.6320   28.1030   38.3960 C   0  0  0  0  0  0  0  0  0  0  0  0
   34.9360   29.0240   39.1320 C   0  0  0  0  0  0  0  0  0  0  0  0
   35.0630   29.1650   40.4950 C   0  0  0  0  0  0  0  0  0  0  0  0
   35.9460   28.3210   41.1370 C   0  0  0  0  0  0  0  0  0  0  0  0
   36.6720   27.3740   40.4380 C   0  0  0  0  0  0  0  0  0  0  0  0
   34.2500   29.6760   38.6080 H   0  0  0  0  0  0  0  0  0  0  0  0
   34.4910   29.9040   41.0130 H   0  0  0  0  0  0  0  0  0  0  0  0
   36.0520   28.4250   42.2200 H   0  0  0  0  0  0  0  0  0  0  0  0
   36.1700   28.4990   34.6760 C   0  0  0  0  0  0  0  0  0  0  0  0
   36.3030   28.7030   36.0650 C   0  0  0  0  0  0  0  0  0  0  0  0
   35.5270   27.9260   36.9560 C   0  0  0  0  0  0  0  0  0  0  0  0
   34.7040   27.0330   36.3740 N   0  0  0  0  0  0  0  0  0  0  0  0
   34.5950   26.8570   35.0610 C   0  0  0  0  0  0  0  0  0  0  0  0
   35.3300   27.5940   34.2140 N   0  0  0  0  0  0  0  0  0  0  0  0
   36.9750   29.3090   33.8290 N   0  0  0  0  0  0  0  0  0  0  0  0
   36.9810   29.4370   36.4860 H   0  0  0  0  0  0  0  0  0  0  0  0
   33.9090   26.1170   34.6590 H   0  0  0  0  0  0  0  0  0  0  0  0
   38.0250   29.3280   33.7240 H   0  0  0  0  0  0  0  0  0  0  0  0
   36.5600   30.0160   33.1830 H   0  0  0  0  0  0  0  0  0  0  0  0
   37.5680   26.5390   41.2110 C   0  0  0  0  0  0  0  0  0  0  0  0
   37.1100   25.2610   41.4770 C   0  0  0  0  0  0  0  0  0  0  0  0
   37.8230   24.3100   42.2010 C   0  0  0  0  0  0  0  0  0  0  0  0
   39.0690   24.6900   42.6780 C   0  0  0  0  0  0  0  0  0  0  0  0
   39.5490   25.9620   42.4250 C   0  0  0  0  0  0  0  0  0  0  0  0
   38.8010   26.8680   41.6990 C   0  0  0  0  0  0  0  0  0  0  0  0
   36.1430   24.8730   41.1420 H   0  0  0  0  0  0  0  0  0  0  0  0
   37.4740   23.3270   42.4080 H   0  0  0  0  0  0  0  0  0  0  0  0
   39.6740   23.9980   43.2490 H   0  0  0  0  0  0  0  0  0  0  0  0
   40.5210   26.3190   42.7730 H   0  0  0  0  0  0  0  0  0  0  0  0
   39.2150   29.0400   42.5480 C   0  0  0  0  0  3  0  0  0  0  0  0
   39.2850   28.2130   41.4220 C   0  0  0  0  0  0  0  0  0  0  0  0
   39.7850   28.7690   40.2640 C   0  0  0  0  0  0  0  0  0  0  0  0
   39.8040   28.0600   39.4480 H   0  0  0  0  0  0  0  0  0  0  0  0
   40.1890   30.0850   40.2490 C   0  0  0  0  0  0  0  0  0  0  0  0
   40.6930   30.7930   39.2370 N   0  0  0  0  0  0  0  0  0  0  0  0
   40.9480   32.0500   39.6830 C   0  0  0  0  0  0  0  0  0  0  0  0
   41.3640   32.8630   39.0950 H   0  0  0  0  0  0  0  0  0  0  0  0
   40.5890   32.0940   40.9870 N   0  0  0  0  0  0  0  0  0  0  0  0
   40.1150   30.8780   41.3500 C   0  0  0  0  0  0  0  0  0  0  0  0
   39.6230   30.3680   42.5320 C   0  0  0  0  0  3  0  0  0  0  0  0
   40.8780   30.4740   38.2550 H   0  0  0  0  0  0  0  0  0  0  0  0
   37.9020   25.4730   37.8000 N   0  0  0  0  0  0  0  0  0  0  0  0
   37.2670   26.2850   38.3640 C   0  0  0  0  0  0  0  0  0  0  0  0
  1  6  1  0  0  0  0
  2  1  2  0  0  0  0
  2  3  1  0  0  0  0
  3  4  2  0  0  0  0
  4  8  1  0  0  0  0
  4  5  1  0  0  0  0
  5  9  1  0  0  0  0
  6  5  2  0  0  0  0
  6 21  1  0  0  0  0
  7  3  1  0  0  0  0
 10 11  1  0  0  0  0
 11 17  1  0  0  0  0
 11 12  2  0  0  0  0
 12  2  1  0  0  0  0
 13 12  1  0  0  0  0
 14 13  2  0  0  0  0
 15 10  2  0  0  0  0
 15 14  1  0  0  0  0
 16 10  1  0  0  0  0
 18 14  1  0  0  0  0
 19 16  1  0  0  0  0
 20 16  1  0  0  0  0
 21 22  2  0  0  0  0
 21 26  1  0  0  0  0
 22 23  1  0  0  0  0
 23 28  1  0  0  0  0
 23 24  2  0  0  0  0
 24 29  1  0  0  0  0
 25 24  1  0  0  0  0
 25 30  1  0  0  0  0
 26 25  2  0  0  0  0
 27 22  1  0  0  0  0
 32 26  1  0  0  0  0
 32 31  2  0  0  0  0
 33 32  1  0  0  0  0
 34 33  1  0  0  0  0
 35 33  2  0  0  0  0
 35 40  1  0  0  0  0
 36 37  1  0  0  0  0
 36 35  1  0  0  0  0
 37 39  2  0  0  0  0
 38 37  1  0  0  0  0
 39 40  1  0  0  0  0
 40 41  2  0  0  0  0
 41 31  1  0  0  0  0
 42 36  1  0  0  0  0
 43 44  3  0  0  0  0
 44  1  1  0  0  0  0
M  END
>  <minimizedAffinity>
-6.37078571

$$$$

 OpenBabel03252508413D

 44 48  0  0  0  0  0  0  0  0999 V2000
   39.1040   27.8360   38.7460 C   0  0  0  0  0  0  0  0  0  0  0  0
   39.3190   28.0670   37.4190 C   0  0  0  0  0  0  0  0  0  0  0  0
   38.2180   28.2780   36.6320 C   0  0  0  0  0  0  0  0  0  0  0  0
   36.9270   28.2670   37.1080 C   0  0  0  0  0  0  0  0  0  0  0  0
   36.7530   28.0290   38.4550 C   0  0  0  0  0  0  0  0  0  0  0  0
   37.8330   27.8100   39.2920 C   0  0  0  0  0  0  0  0  0  0  0  0
   38.3780   28.4640   35.5790 H   0  0  0  0  0  0  0  0  0  0  0  0
   36.1100   28.4390   36.4420 H   0  0  0  0  0  0  0  0  0  0  0  0
   35.7310   28.0170   38.8420 H   0  0  0  0  0  0  0  0  0  0  0  0
   42.7600   29.2420   36.3850 C   0  0  0  0  0  0  0  0  0  0  0  0
   41.4260   29.2810   36.8400 C   0  0  0  0  0  0  0  0  0  0  0  0
   40.6980   28.0730   36.9540 C   0  0  0  0  0  0  0  0  0  0  0  0
   41.3700   26.9610   36.6040 N   0  0  0  0  0  0  0  0  0  0  0  0
   42.6290   26.9470   36.1770 C   0  0  0  0  0  0  0  0  0  0  0  0
   43.3210   28.0920   36.0680 N   0  0  0  0  0  0  0  0  0  0  0  0
   43.4410   30.4860   36.2890 N   0  0  0  0  0  0  0  0  0  0  0  0
   40.9260   30.2050   37.1100 H   0  0  0  0  0  0  0  0  0  0  0  0
   43.1110   26.0110   35.9110 H   0  0  0  0  0  0  0  0  0  0  0  0
   43.7250   31.1520   37.0570 H   0  0  0  0  0  0  0  0  0  0  0  0
   43.7460   30.8810   35.3730 H   0  0  0  0  0  0  0  0  0  0  0  0
   37.5380   27.5670   40.6890 C   0  0  0  0  0  0  0  0  0  0  0  0
   37.2570   26.2540   41.0180 C   0  0  0  0  0  0  0  0  0  0  0  0
   36.9500   25.8190   42.3050 C   0  0  0  0  0  0  0  0  0  0  0  0
   36.9300   26.7820   43.3030 C   0  0  0  0  0  0  0  0  0  0  0  0
   37.2070   28.1020   42.9980 C   0  0  0  0  0  0  0  0  0  0  0  0
   37.5060   28.4800   41.7050 C   0  0  0  0  0  0  0  0  0  0  0  0
   37.2500   25.4280   40.3000 H   0  0  0  0  0  0  0  0  0  0  0  0
   36.7340   24.8100   42.5620 H   0  0  0  0  0  0  0  0  0  0  0  0
   36.6980   26.5100   44.3250 H   0  0  0  0  0  0  0  0  0  0  0  0
   37.2060   28.9040   43.7400 H   0  0  0  0  0  0  0  0  0  0  0  0
   39.0910   30.2400   41.7480 C   0  0  0  0  0  3  0  0  0  0  0  0
   37.7990   29.8640   41.3610 C   0  0  0  0  0  0  0  0  0  0  0  0
   37.0280   30.8190   40.7330 C   0  0  0  0  0  0  0  0  0  0  0  0
   36.0500   30.4420   40.4700 H   0  0  0  0  0  0  0  0  0  0  0  0
   37.5360   32.0790   40.5130 C   0  0  0  0  0  0  0  0  0  0  0  0
   36.9490   33.1270   39.9280 N   0  0  0  0  0  0  0  0  0  0  0  0
   37.8290   34.1610   39.9300 C   0  0  0  0  0  0  0  0  0  0  0  0
   37.6470   35.1530   39.5230 H   0  0  0  0  0  0  0  0  0  0  0  0
   38.9620   33.7250   40.5260 N   0  0  0  0  0  0  0  0  0  0  0  0
   38.7920   32.4330   40.8930 C   0  0  0  0  0  0  0  0  0  0  0  0
   39.6020   31.5120   41.5240 C   0  0  0  0  0  3  0  0  0  0  0  0
   35.9830   33.1820   39.5240 H   0  0  0  0  0  0  0  0  0  0  0  0
   41.1150   27.3980   40.3740 N   0  0  0  0  0  0  0  0  0  0  0  0
   40.2150   27.6010   39.6460 C   0  0  0  0  0  0  0  0  0  0  0  0
  1  6  1  0  0  0  0
  1 44  1  0  0  0  0
  2  1  2  0  0  0  0
  3  4  2  0  0  0  0
  3  2  1  0  0  0  0
  4  5  1  0  0  0  0
  5  9  1  0  0  0  0
  5  6  2  0  0  0  0
  6 21  1  0  0  0  0
  7  3  1  0  0  0  0
  8  4  1  0  0  0  0
 10 11  1  0  0  0  0
 11 12  2  0  0  0  0
 11 17  1  0  0  0  0
 12  2  1  0  0  0  0
 13 12  1  0  0  0  0
 14 13  2  0  0  0  0
 15 14  1  0  0  0  0
 15 10  2  0  0  0  0
 16 10  1  0  0  0  0
 16 19  1  0  0  0  0
 18 14  1  0  0  0  0
 20 16  1  0  0  0  0
 21 22  2  0  0  0  0
 21 26  1  0  0  0  0
 22 23  1  0  0  0  0
 23 28  1  0  0  0  0
 23 24  2  0  0  0  0
 24 29  1  0  0  0  0
 25 24  1  0  0  0  0
 25 30  1  0  0  0  0
 26 25  2  0  0  0  0
 27 22  1  0  0  0  0
 32 26  1  0  0  0  0
 32 31  2  0  0  0  0
 33 32  1  0  0  0  0
 34 33  1  0  0  0  0
 35 33  2  0  0  0  0
 35 40  1  0  0  0  0
 36 37  1  0  0  0  0
 36 35  1  0  0  0  0
 37 39  2  0  0  0  0
 38 37  1  0  0  0  0
 39 40  1  0  0  0  0
 40 41  2  0  0  0  0
 41 31  1  0  0  0  0
 42 36  1  0  0  0  0
 44 43  3  0  0  0  0
M  END
>  <minimizedAffinity>
-6.33607626

$$$$
