
 OpenBabel03242521363D

 47 53  0  0  0  0  0  0  0  0999 V2000
   47.5920   31.3860   45.5730 C   0  0  0  0  0  0  0  0  0  0  0  0
   46.5300   31.6750   44.7480 C   0  0  0  0  0  0  0  0  0  0  0  0
   45.3690   30.9280   44.8200 C   0  0  0  0  0  0  0  0  0  0  0  0
   45.2890   29.8930   45.7280 C   0  0  0  0  0  0  0  0  0  0  0  0
   44.2390   29.0800   45.9210 N   0  0  0  0  0  0  0  0  0  0  0  0
   44.6300   28.2290   46.9080 C   0  0  0  0  0  0  0  0  0  0  0  0
   45.8990   28.5290   47.3020 N   0  0  0  0  0  0  0  0  0  0  0  0
   46.3360   29.5760   46.5720 C   0  0  0  0  0  0  0  0  0  0  0  0
   47.4800   30.3460   46.4670 C   0  0  0  0  0  0  0  0  0  0  0  0
   48.5140   31.9330   45.5570 H   0  0  0  0  0  0  0  0  0  0  0  0
   44.5500   31.1810   44.1580 H   0  0  0  0  0  0  0  0  0  0  0  0
   43.3210   29.0500   45.4650 H   0  0  0  0  0  0  0  0  0  0  0  0
   44.0220   27.4270   47.3220 H   0  0  0  0  0  0  0  0  0  0  0  0
   49.6240   29.1210   47.0980 C   0  0  0  0  0  0  0  0  0  0  0  0
   48.5870   30.0100   47.3600 C   0  0  0  0  0  0  0  0  0  0  0  0
   48.5810   30.6620   48.5960 C   0  0  0  0  0  0  0  0  0  0  0  0
   47.7830   31.3730   48.8470 H   0  0  0  0  0  0  0  0  0  0  0  0
   49.5540   30.4590   49.5600 C   0  0  0  0  0  0  0  0  0  0  0  0
   49.7070   30.9910   50.7890 N   0  0  0  0  0  0  0  0  0  0  0  0
   50.8450   30.4200   51.2750 C   0  0  0  0  0  0  0  0  0  0  0  0
   51.2690   30.6300   52.2660 H   0  0  0  0  0  0  0  0  0  0  0  0
   51.3770   29.5570   50.3650 N   0  0  0  0  0  0  0  0  0  0  0  0
   50.5700   29.5680   49.2650 C   0  0  0  0  0  0  0  0  0  0  0  0
   50.6020   28.9080   48.0470 C   0  0  0  0  0  0  0  0  0  0  0  0
   49.1190   31.6840   51.2970 H   0  0  0  0  0  0  0  0  0  0  0  0
   47.9050   34.4310   42.7510 C   0  0  0  0  0  0  0  0  0  0  0  0
   46.7770   34.8120   42.0050 C   0  0  0  0  0  0  0  0  0  0  0  0
   45.5770   34.1510   42.1750 C   0  0  0  0  0  0  0  0  0  0  0  0
   45.5200   33.1350   43.0710 N   0  0  0  0  0  0  0  0  0  0  0  0
   46.6240   32.7670   43.7950 C   0  0  0  0  0  0  0  0  0  0  0  0
   47.7960   33.4260   43.6180 N   0  0  0  0  0  0  0  0  0  0  0  0
   48.8260   34.9590   42.6030 H   0  0  0  0  0  0  0  0  0  0  0  0
   46.7720   35.6030   41.2900 H   0  0  0  0  0  0  0  0  0  0  0  0
   44.2210   33.9710   40.1860 C   0  0  0  0  0  0  0  0  0  0  0  0
   44.3580   34.4690   41.4530 C   0  0  0  0  0  0  0  0  0  0  0  0
   43.3370   35.2410   41.9740 C   0  0  0  0  0  0  0  0  0  0  0  0
   42.1830   35.5320   41.2700 C   0  0  0  0  0  0  0  0  0  0  0  0
   41.0810   36.2430   41.5590 N   0  0  0  0  0  0  0  0  0  0  0  0
   40.2470   36.2010   40.4880 C   0  0  0  0  0  0  0  0  0  0  0  0
   40.8620   35.4470   39.5280 N   0  0  0  0  0  0  0  0  0  0  0  0
   42.0430   35.0310   39.9890 C   0  0  0  0  0  0  0  0  0  0  0  0
   43.0570   34.2570   39.4570 C   0  0  0  0  0  0  0  0  0  0  0  0
   44.9710   33.3620   39.7080 H   0  0  0  0  0  0  0  0  0  0  0  0
   43.4610   35.6270   42.9820 H   0  0  0  0  0  0  0  0  0  0  0  0
   40.9330   36.7320   42.4730 H   0  0  0  0  0  0  0  0  0  0  0  0
   39.2950   36.7220   40.5300 H   0  0  0  0  0  0  0  0  0  0  0  0
   42.9320   33.8760   38.4590 H   0  0  0  0  0  0  0  0  0  0  0  0
  1  9  1  0  0  0  0
  2  3  1  0  0  0  0
  2  1  2  0  0  0  0
  3  4  2  0  0  0  0
  4  5  1  0  0  0  0
  4  8  1  0  0  0  0
  5  6  1  0  0  0  0
  6  7  2  0  0  0  0
  6 13  1  0  0  0  0
  8  7  1  0  0  0  0
  9  8  2  0  0  0  0
  9 15  1  0  0  0  0
 10  1  1  0  0  0  0
 11  3  1  0  0  0  0
 12  5  1  0  0  0  0
 14 15  2  0  0  0  0
 14 24  1  0  0  0  0
 15 16  1  0  0  0  0
 16 17  1  0  0  0  0
 16 18  2  0  0  0  0
 18 19  1  0  0  0  0
 19 20  1  0  0  0  0
 19 25  1  0  0  0  0
 20 21  1  0  0  0  0
 22 20  2  0  0  0  0
 23 18  1  0  0  0  0
 23 22  1  0  0  0  0
 24 23  2  0  0  0  0
 26 31  1  0  0  0  0
 27 28  1  0  0  0  0
 27 26  2  0  0  0  0
 28 29  2  0  0  0  0
 29 30  1  0  0  0  0
 30  2  1  0  0  0  0
 31 30  2  0  0  0  0
 32 26  1  0  0  0  0
 33 27  1  0  0  0  0
 34 35  1  0  0  0  0
 35 36  2  0  0  0  0
 35 28  1  0  0  0  0
 36 44  1  0  0  0  0
 37 38  1  0  0  0  0
 37 36  1  0  0  0  0
 38 45  1  0  0  0  0
 39 46  1  0  0  0  0
 39 38  1  0  0  0  0
 40 41  1  0  0  0  0
 40 39  2  0  0  0  0
 41 37  2  0  0  0  0
 42 41  1  0  0  0  0
 42 34  2  0  0  0  0
 43 34  1  0  0  0  0
 47 42  1  0  0  0  0
M  END
>  <minimizedAffinity>
-7.35181761

>  <minimizedRMSD>
5.15892458

$$$$
