
 OpenBabel03252502333D

 27 29  0  0  0  0  0  0  0  0999 V2000
   35.8760   29.0550   39.7230 C   0  0  0  0  0  0  0  0  0  0  0  0
   36.8120   30.0350   39.3270 C   0  0  0  0  0  0  0  0  0  0  0  0
   37.9400   30.2250   40.1430 C   0  0  0  0  0  0  0  0  0  0  0  0
   38.0560   29.4590   41.2540 N   0  0  0  0  0  0  0  0  0  0  0  0
   37.1430   28.5290   41.6070 C   0  0  0  0  0  0  0  0  0  0  0  0
   36.0630   28.3310   40.8460 N   0  0  0  0  0  0  0  0  0  0  0  0
   36.6950   30.6230   38.4470 H   0  0  0  0  0  0  0  0  0  0  0  0
   39.5450   31.8500   40.9260 C   0  0  0  0  0  3  0  0  0  0  0  0
   38.9790   31.2000   39.8500 C   0  0  0  0  0  0  0  0  0  0  0  0
   39.4010   31.4850   38.5710 C   0  0  0  0  0  0  0  0  0  0  0  0
   38.9790   30.9970   37.7260 H   0  0  0  0  0  0  0  0  0  0  0  0
   40.3940   32.4290   38.4060 C   0  0  0  0  0  0  0  0  0  0  0  0
   40.9640   32.8680   37.2520 N   0  0  0  0  0  0  0  0  0  0  0  0
   41.8860   33.7940   37.6410 C   0  0  0  0  0  0  0  0  0  0  0  0
   42.4700   34.2830   36.8690 H   0  0  0  0  0  0  0  0  0  0  0  0
   41.8780   33.9140   38.9790 N   0  0  0  0  0  0  0  0  0  0  0  0
   40.9670   33.0830   39.4750 C   0  0  0  0  0  0  0  0  0  0  0  0
   40.5450   32.7990   40.7610 C   0  0  0  0  0  3  0  0  0  0  0  0
   40.7220   32.5420   36.2810 H   0  0  0  0  0  0  0  0  0  0  0  0
   34.6940   28.8680   38.8480 C   0  0  0  0  0  0  0  0  0  0  0  0
   33.5200   29.1420   39.5080 F   0  0  0  0  0  0  0  0  0  0  0  0
   34.8290   29.6780   37.7270 F   0  0  0  0  0  0  0  0  0  0  0  0
   34.6850   27.5520   38.3590 F   0  0  0  0  0  0  0  0  0  0  0  0
   37.3320   27.7250   42.8370 C   0  0  0  0  0  0  0  0  0  0  0  0
   36.1510   27.5450   43.5020 F   0  0  0  0  0  0  0  0  0  0  0  0
   38.2720   28.3420   43.6800 F   0  0  0  0  0  0  0  0  0  0  0  0
   37.8610   26.4820   42.5660 F   0  0  0  0  0  0  0  0  0  0  0  0
  1  6  1  0  0  0  0
  2  1  2  0  0  0  0
  2  3  1  0  0  0  0
  3  4  2  0  0  0  0
  4  5  1  0  0  0  0
  5 24  1  0  0  0  0
  6  5  2  0  0  0  0
  7  2  1  0  0  0  0
  9  3  1  0  0  0  0
  9  8  2  0  0  0  0
 10  9  1  0  0  0  0
 11 10  1  0  0  0  0
 12 10  2  0  0  0  0
 12 17  1  0  0  0  0
 13 14  1  0  0  0  0
 13 12  1  0  0  0  0
 14 16  2  0  0  0  0
 15 14  1  0  0  0  0
 16 17  1  0  0  0  0
 17 18  2  0  0  0  0
 18  8  1  0  0  0  0
 19 13  1  0  0  0  0
 20 21  1  0  0  0  0
 20  1  1  0  0  0  0
 22 20  1  0  0  0  0
 23 20  1  0  0  0  0
 24 25  1  0  0  0  0
 24 26  1  0  0  0  0
 27 24  1  0  0  0  0
M  END
>  <minimizedAffinity>
-5.99722815

$$$$

 OpenBabel03252502333D

 27 29  0  0  0  0  0  0  0  0999 V2000
   37.0420   28.1640   41.7230 C   0  0  0  0  0  0  0  0  0  0  0  0
   38.1170   29.0520   41.4990 C   0  0  0  0  0  0  0  0  0  0  0  0
   38.0490   29.8840   40.3690 C   0  0  0  0  0  0  0  0  0  0  0  0
   36.9600   29.7810   39.5690 N   0  0  0  0  0  0  0  0  0  0  0  0
   35.9480   28.9210   39.8100 C   0  0  0  0  0  0  0  0  0  0  0  0
   35.9910   28.1200   40.8790 N   0  0  0  0  0  0  0  0  0  0  0  0
   38.9600   29.1120   42.1450 H   0  0  0  0  0  0  0  0  0  0  0  0
   39.8780   31.3040   41.0540 C   0  0  0  0  0  3  0  0  0  0  0  0
   39.0870   30.8430   40.0230 C   0  0  0  0  0  0  0  0  0  0  0  0
   39.2960   31.2910   38.7380 C   0  0  0  0  0  0  0  0  0  0  0  0
   38.6980   30.9490   37.9280 H   0  0  0  0  0  0  0  0  0  0  0  0
   40.3090   32.2020   38.5210 C   0  0  0  0  0  0  0  0  0  0  0  0
   40.6960   32.7780   37.3520 N   0  0  0  0  0  0  0  0  0  0  0  0
   41.7350   33.5950   37.6850 C   0  0  0  0  0  0  0  0  0  0  0  0
   42.2070   34.1640   36.8910 H   0  0  0  0  0  0  0  0  0  0  0  0
   41.9710   33.5200   39.0050 N   0  0  0  0  0  0  0  0  0  0  0  0
   41.1060   32.6680   39.5440 C   0  0  0  0  0  0  0  0  0  0  0  0
   40.8980   32.2200   40.8360 C   0  0  0  0  0  3  0  0  0  0  0  0
   40.2640   32.6060   36.4070 H   0  0  0  0  0  0  0  0  0  0  0  0
   37.1320   27.2960   42.9220 C   0  0  0  0  0  0  0  0  0  0  0  0
   38.2420   27.5820   43.6790 F   0  0  0  0  0  0  0  0  0  0  0  0
   35.9720   27.4420   43.6730 F   0  0  0  0  0  0  0  0  0  0  0  0
   37.1490   25.9510   42.5180 F   0  0  0  0  0  0  0  0  0  0  0  0
   34.7850   28.8590   38.8930 C   0  0  0  0  0  0  0  0  0  0  0  0
   33.6260   29.1990   39.5330 F   0  0  0  0  0  0  0  0  0  0  0  0
   34.6720   27.5720   38.3400 F   0  0  0  0  0  0  0  0  0  0  0  0
   34.9350   29.6980   37.8100 F   0  0  0  0  0  0  0  0  0  0  0  0
  1 20  1  0  0  0  0
  2  1  1  0  0  0  0
  2  7  1  0  0  0  0
  3  2  2  0  0  0  0
  4  5  2  0  0  0  0
  4  3  1  0  0  0  0
  5  6  1  0  0  0  0
  6  1  2  0  0  0  0
  9  3  1  0  0  0  0
  9  8  2  0  0  0  0
 10  9  1  0  0  0  0
 11 10  1  0  0  0  0
 12 10  2  0  0  0  0
 12 17  1  0  0  0  0
 13 14  1  0  0  0  0
 13 12  1  0  0  0  0
 14 16  2  0  0  0  0
 15 14  1  0  0  0  0
 16 17  1  0  0  0  0
 17 18  2  0  0  0  0
 18  8  1  0  0  0  0
 19 13  1  0  0  0  0
 20 22  1  0  0  0  0
 20 21  1  0  0  0  0
 23 20  1  0  0  0  0
 24 25  1  0  0  0  0
 24  5  1  0  0  0  0
 26 24  1  0  0  0  0
 27 24  1  0  0  0  0
M  END
>  <minimizedAffinity>
-5.96368504

$$$$

 OpenBabel03252502333D

 27 29  0  0  0  0  0  0  0  0999 V2000
   38.1060   30.2600   41.2140 C   0  0  0  0  0  0  0  0  0  0  0  0
   37.3510   30.2820   40.0210 C   0  0  0  0  0  0  0  0  0  0  0  0
   36.4400   29.2340   39.8080 C   0  0  0  0  0  0  0  0  0  0  0  0
   36.3440   28.2730   40.7580 N   0  0  0  0  0  0  0  0  0  0  0  0
   37.0800   28.2790   41.8890 C   0  0  0  0  0  0  0  0  0  0  0  0
   37.9530   29.2660   42.1120 N   0  0  0  0  0  0  0  0  0  0  0  0
   37.4460   31.0520   39.2910 H   0  0  0  0  0  0  0  0  0  0  0  0
   36.2270   29.2860   37.4030 C   0  0  0  0  0  3  0  0  0  0  0  0
   35.6020   29.1370   38.6230 C   0  0  0  0  0  0  0  0  0  0  0  0
   34.2450   28.9080   38.6800 C   0  0  0  0  0  0  0  0  0  0  0  0
   33.7420   28.7900   39.6090 H   0  0  0  0  0  0  0  0  0  0  0  0
   33.5450   28.8340   37.4940 C   0  0  0  0  0  0  0  0  0  0  0  0
   32.2160   28.6190   37.3050 N   0  0  0  0  0  0  0  0  0  0  0  0
   32.0410   28.6370   35.9540 C   0  0  0  0  0  0  0  0  0  0  0  0
   31.0380   28.4830   35.5700 H   0  0  0  0  0  0  0  0  0  0  0  0
   33.2170   28.8560   35.3420 N   0  0  0  0  0  0  0  0  0  0  0  0
   34.1600   28.9810   36.2690 C   0  0  0  0  0  0  0  0  0  0  0  0
   35.5230   29.2110   36.2090 C   0  0  0  0  0  3  0  0  0  0  0  0
   31.5010   28.4720   38.0640 H   0  0  0  0  0  0  0  0  0  0  0  0
   39.0600   31.3760   41.4210 C   0  0  0  0  0  0  0  0  0  0  0  0
   39.5630   31.3880   42.6990 F   0  0  0  0  0  0  0  0  0  0  0  0
   40.0860   31.2710   40.4900 F   0  0  0  0  0  0  0  0  0  0  0  0
   38.4180   32.5920   41.1360 F   0  0  0  0  0  0  0  0  0  0  0  0
   36.9260   27.1950   42.8880 C   0  0  0  0  0  0  0  0  0  0  0  0
   35.8300   27.3970   43.6790 F   0  0  0  0  0  0  0  0  0  0  0  0
   38.0830   27.0990   43.6800 F   0  0  0  0  0  0  0  0  0  0  0  0
   36.8000   25.9590   42.2930 F   0  0  0  0  0  0  0  0  0  0  0  0
  1 20  1  0  0  0  0
  1  6  1  0  0  0  0
  2  1  2  0  0  0  0
  3  2  1  0  0  0  0
  3  4  2  0  0  0  0
  4  5  1  0  0  0  0
  5  6  2  0  0  0  0
  5 24  1  0  0  0  0
  7  2  1  0  0  0  0
  8  9  1  0  0  0  0
  9 10  2  0  0  0  0
  9  3  1  0  0  0  0
 10 11  1  0  0  0  0
 12 10  1  0  0  0  0
 13 12  1  0  0  0  0
 13 19  1  0  0  0  0
 14 13  1  0  0  0  0
 15 14  1  0  0  0  0
 16 14  2  0  0  0  0
 16 17  1  0  0  0  0
 17 12  2  0  0  0  0
 18 17  1  0  0  0  0
 18  8  2  0  0  0  0
 20 21  1  0  0  0  0
 22 20  1  0  0  0  0
 23 20  1  0  0  0  0
 24 25  1  0  0  0  0
 24 26  1  0  0  0  0
 27 24  1  0  0  0  0
M  END
>  <minimizedAffinity>
-5.85928488

$$$$

 OpenBabel03252502333D

 27 29  0  0  0  0  0  0  0  0999 V2000
   37.1720   28.2810   41.8690 C   0  0  0  0  0  0  0  0  0  0  0  0
   36.3220   28.1280   40.7530 C   0  0  0  0  0  0  0  0  0  0  0  0
   36.3570   29.1260   39.7660 C   0  0  0  0  0  0  0  0  0  0  0  0
   37.2010   30.1710   39.9480 N   0  0  0  0  0  0  0  0  0  0  0  0
   38.0020   30.2890   41.0280 C   0  0  0  0  0  0  0  0  0  0  0  0
   37.9860   29.3510   41.9790 N   0  0  0  0  0  0  0  0  0  0  0  0
   35.6680   27.2960   40.6350 H   0  0  0  0  0  0  0  0  0  0  0  0
   36.1810   29.2600   37.3610 C   0  0  0  0  0  3  0  0  0  0  0  0
   35.5340   29.0900   38.5670 C   0  0  0  0  0  0  0  0  0  0  0  0
   34.1710   28.8980   38.5970 C   0  0  0  0  0  0  0  0  0  0  0  0
   33.6510   28.7650   39.5150 H   0  0  0  0  0  0  0  0  0  0  0  0
   33.4870   28.8820   37.3990 C   0  0  0  0  0  0  0  0  0  0  0  0
   32.1550   28.7100   37.1850 N   0  0  0  0  0  0  0  0  0  0  0  0
   32.0010   28.7770   35.8330 C   0  0  0  0  0  0  0  0  0  0  0  0
   31.0000   28.6630   35.4310 H   0  0  0  0  0  0  0  0  0  0  0  0
   33.1920   28.9810   35.2460 N   0  0  0  0  0  0  0  0  0  0  0  0
   34.1240   29.0490   36.1890 C   0  0  0  0  0  0  0  0  0  0  0  0
   35.4930   29.2430   36.1550 C   0  0  0  0  0  3  0  0  0  0  0  0
   31.4250   28.5590   37.9290 H   0  0  0  0  0  0  0  0  0  0  0  0
   37.1220   27.2150   42.8990 C   0  0  0  0  0  0  0  0  0  0  0  0
   38.2520   27.2050   43.6800 F   0  0  0  0  0  0  0  0  0  0  0  0
   35.9860   27.3950   43.6800 F   0  0  0  0  0  0  0  0  0  0  0  0
   36.9500   25.9720   42.2690 F   0  0  0  0  0  0  0  0  0  0  0  0
   38.9030   31.4580   41.1650 C   0  0  0  0  0  0  0  0  0  0  0  0
   38.2190   32.6350   41.0320 F   0  0  0  0  0  0  0  0  0  0  0  0
   39.9350   31.3890   40.2150 F   0  0  0  0  0  0  0  0  0  0  0  0
   39.5450   31.4760   42.3850 F   0  0  0  0  0  0  0  0  0  0  0  0
  1  6  1  0  0  0  0
  1 20  1  0  0  0  0
  2  1  2  0  0  0  0
  3  4  2  0  0  0  0
  3  2  1  0  0  0  0
  4  5  1  0  0  0  0
  5 24  1  0  0  0  0
  5  6  2  0  0  0  0
  7  2  1  0  0  0  0
  8  9  1  0  0  0  0
  9 10  2  0  0  0  0
  9  3  1  0  0  0  0
 10 11  1  0  0  0  0
 12 10  1  0  0  0  0
 13 12  1  0  0  0  0
 13 19  1  0  0  0  0
 14 13  1  0  0  0  0
 15 14  1  0  0  0  0
 16 14  2  0  0  0  0
 16 17  1  0  0  0  0
 17 12  2  0  0  0  0
 18 17  1  0  0  0  0
 18  8  2  0  0  0  0
 20 21  1  0  0  0  0
 20 22  1  0  0  0  0
 23 20  1  0  0  0  0
 24 27  1  0  0  0  0
 25 24  1  0  0  0  0
 26 24  1  0  0  0  0
M  END
>  <minimizedAffinity>
-5.84265947

$$$$

 OpenBabel03252502333D

 27 29  0  0  0  0  0  0  0  0999 V2000
   37.5410   31.5750   40.1850 C   0  0  0  0  0  0  0  0  0  0  0  0
   36.8090   31.1930   39.0400 C   0  0  0  0  0  0  0  0  0  0  0  0
   36.2360   29.9110   39.0310 C   0  0  0  0  0  0  0  0  0  0  0  0
   36.4230   29.1240   40.1180 N   0  0  0  0  0  0  0  0  0  0  0  0
   37.1300   29.5170   41.1990 C   0  0  0  0  0  0  0  0  0  0  0  0
   37.6830   30.7330   41.2290 N   0  0  0  0  0  0  0  0  0  0  0  0
   36.6770   31.8330   38.1990 H   0  0  0  0  0  0  0  0  0  0  0  0
   36.0320   29.4750   36.6650 C   0  0  0  0  0  3  0  0  0  0  0  0
   35.4580   29.3940   37.9160 C   0  0  0  0  0  0  0  0  0  0  0  0
   34.2050   28.8440   38.0660 C   0  0  0  0  0  0  0  0  0  0  0  0
   33.7430   28.7710   39.0210 H   0  0  0  0  0  0  0  0  0  0  0  0
   33.5540   28.3840   36.9400 C   0  0  0  0  0  0  0  0  0  0  0  0
   32.3250   27.8090   36.8460 N   0  0  0  0  0  0  0  0  0  0  0  0
   32.1590   27.5410   35.5200 C   0  0  0  0  0  0  0  0  0  0  0  0
   31.2320   27.0720   35.2100 H   0  0  0  0  0  0  0  0  0  0  0  0
   33.2440   27.9370   34.8330 N   0  0  0  0  0  0  0  0  0  0  0  0
   34.1190   28.4600   35.6860 C   0  0  0  0  0  0  0  0  0  0  0  0
   35.3770   29.0120   35.5310 C   0  0  0  0  0  3  0  0  0  0  0  0
   31.6670   27.6250   37.6460 H   0  0  0  0  0  0  0  0  0  0  0  0
   38.1360   32.9330   40.1760 C   0  0  0  0  0  0  0  0  0  0  0  0
   38.6920   33.2560   41.3900 F   0  0  0  0  0  0  0  0  0  0  0  0
   39.0870   33.0030   39.1650 F   0  0  0  0  0  0  0  0  0  0  0  0
   37.1480   33.8670   39.8250 F   0  0  0  0  0  0  0  0  0  0  0  0
   37.2960   28.6060   42.3560 C   0  0  0  0  0  0  0  0  0  0  0  0
   37.6460   29.2920   43.4860 F   0  0  0  0  0  0  0  0  0  0  0  0
   38.2620   27.6280   42.0660 F   0  0  0  0  0  0  0  0  0  0  0  0
   36.1450   27.8980   42.6260 F   0  0  0  0  0  0  0  0  0  0  0  0
  1  6  1  0  0  0  0
  2  1  2  0  0  0  0
  3  2  1  0  0  0  0
  3  4  2  0  0  0  0
  4  5  1  0  0  0  0
  5  6  2  0  0  0  0
  5 24  1  0  0  0  0
  7  2  1  0  0  0  0
  8  9  1  0  0  0  0
  9 10  2  0  0  0  0
  9  3  1  0  0  0  0
 10 11  1  0  0  0  0
 12 10  1  0  0  0  0
 13 12  1  0  0  0  0
 13 19  1  0  0  0  0
 14 13  1  0  0  0  0
 15 14  1  0  0  0  0
 16 14  2  0  0  0  0
 16 17  1  0  0  0  0
 17 12  2  0  0  0  0
 18 17  1  0  0  0  0
 18  8  2  0  0  0  0
 20  1  1  0  0  0  0
 20 21  1  0  0  0  0
 22 20  1  0  0  0  0
 23 20  1  0  0  0  0
 24 27  1  0  0  0  0
 24 25  1  0  0  0  0
 26 24  1  0  0  0  0
M  END
>  <minimizedAffinity>
-5.77374125

$$$$

 OpenBabel03252502333D

 27 29  0  0  0  0  0  0  0  0999 V2000
   37.1710   28.1770   41.6450 C   0  0  0  0  0  0  0  0  0  0  0  0
   38.2080   29.1170   41.4580 C   0  0  0  0  0  0  0  0  0  0  0  0
   38.1080   29.9860   40.3590 C   0  0  0  0  0  0  0  0  0  0  0  0
   37.0270   29.8670   39.5510 N   0  0  0  0  0  0  0  0  0  0  0  0
   36.0520   28.9570   39.7560 C   0  0  0  0  0  0  0  0  0  0  0  0
   36.1260   28.1200   40.7950 N   0  0  0  0  0  0  0  0  0  0  0  0
   39.0460   29.1890   42.1110 H   0  0  0  0  0  0  0  0  0  0  0  0
   39.3370   31.2640   38.7200 C   0  0  0  0  0  3  0  0  0  0  0  0
   39.1050   31.0000   40.0530 C   0  0  0  0  0  0  0  0  0  0  0  0
   39.8040   31.6830   41.0230 C   0  0  0  0  0  0  0  0  0  0  0  0
   39.6420   31.4960   42.0570 H   0  0  0  0  0  0  0  0  0  0  0  0
   40.7290   32.6240   40.6220 C   0  0  0  0  0  0  0  0  0  0  0  0
   41.5260   33.4120   41.3910 N   0  0  0  0  0  0  0  0  0  0  0  0
   42.2460   34.1600   40.5080 C   0  0  0  0  0  0  0  0  0  0  0  0
   42.9590   34.8720   40.9090 H   0  0  0  0  0  0  0  0  0  0  0  0
   41.9010   33.8400   39.2490 N   0  0  0  0  0  0  0  0  0  0  0  0
   40.9670   32.8960   39.2920 C   0  0  0  0  0  0  0  0  0  0  0  0
   40.2670   32.2120   38.3150 C   0  0  0  0  0  3  0  0  0  0  0  0
   41.5570   33.4190   42.4430 H   0  0  0  0  0  0  0  0  0  0  0  0
   37.2930   27.2700   42.8120 C   0  0  0  0  0  0  0  0  0  0  0  0
   37.3540   25.9520   42.4310 F   0  0  0  0  0  0  0  0  0  0  0  0
   38.4210   27.6240   43.5420 F   0  0  0  0  0  0  0  0  0  0  0  0
   36.2070   27.4800   43.6760 F   0  0  0  0  0  0  0  0  0  0  0  0
   34.8960   28.8790   38.8310 C   0  0  0  0  0  0  0  0  0  0  0  0
   35.0750   29.6820   37.7390 F   0  0  0  0  0  0  0  0  0  0  0  0
   33.7140   29.2350   39.5030 F   0  0  0  0  0  0  0  0  0  0  0  0
   34.6770   27.5940   38.3840 F   0  0  0  0  0  0  0  0  0  0  0  0
  1 20  1  0  0  0  0
  2  1  1  0  0  0  0
  2  7  1  0  0  0  0
  3  2  2  0  0  0  0
  4  5  2  0  0  0  0
  4  3  1  0  0  0  0
  5  6  1  0  0  0  0
  6  1  2  0  0  0  0
  8  9  1  0  0  0  0
  9  3  1  0  0  0  0
  9 10  2  0  0  0  0
 10 11  1  0  0  0  0
 12 10  1  0  0  0  0
 12 13  1  0  0  0  0
 13 19  1  0  0  0  0
 14 15  1  0  0  0  0
 14 13  1  0  0  0  0
 16 17  1  0  0  0  0
 16 14  2  0  0  0  0
 17 12  2  0  0  0  0
 18  8  2  0  0  0  0
 18 17  1  0  0  0  0
 20 22  1  0  0  0  0
 20 23  1  0  0  0  0
 21 20  1  0  0  0  0
 24 26  1  0  0  0  0
 24  5  1  0  0  0  0
 25 24  1  0  0  0  0
 27 24  1  0  0  0  0
M  END
>  <minimizedAffinity>
-5.67156601

$$$$

 OpenBabel03252502333D

 27 29  0  0  0  0  0  0  0  0999 V2000
   37.4400   26.0260   41.3660 C   0  0  0  0  0  0  0  0  0  0  0  0
   36.8980   26.3860   40.1130 C   0  0  0  0  0  0  0  0  0  0  0  0
   37.1820   27.6730   39.6270 C   0  0  0  0  0  0  0  0  0  0  0  0
   37.9550   28.4840   40.3890 N   0  0  0  0  0  0  0  0  0  0  0  0
   38.4590   28.1100   41.5840 C   0  0  0  0  0  0  0  0  0  0  0  0
   38.2020   26.8910   42.0670 N   0  0  0  0  0  0  0  0  0  0  0  0
   36.2940   25.7280   39.5350 H   0  0  0  0  0  0  0  0  0  0  0  0
   35.3950   28.6500   38.3300 C   0  0  0  0  0  3  0  0  0  0  0  0
   36.6870   28.1690   38.3520 C   0  0  0  0  0  0  0  0  0  0  0  0
   37.4450   28.1730   37.2030 C   0  0  0  0  0  0  0  0  0  0  0  0
   38.4430   27.8070   37.1970 H   0  0  0  0  0  0  0  0  0  0  0  0
   36.8760   28.6670   36.0470 C   0  0  0  0  0  0  0  0  0  0  0  0
   37.4260   28.7700   34.8080 N   0  0  0  0  0  0  0  0  0  0  0  0
   36.4510   29.3210   34.0310 C   0  0  0  0  0  0  0  0  0  0  0  0
   36.6760   29.4970   32.9850 H   0  0  0  0  0  0  0  0  0  0  0  0
   35.3500   29.5450   34.7680 N   0  0  0  0  0  0  0  0  0  0  0  0
   35.5860   29.1510   36.0150 C   0  0  0  0  0  0  0  0  0  0  0  0
   34.8220   29.1480   37.1670 C   0  0  0  0  0  3  0  0  0  0  0  0
   38.4010   28.4770   34.5390 H   0  0  0  0  0  0  0  0  0  0  0  0
   37.1310   24.6630   41.8610 C   0  0  0  0  0  0  0  0  0  0  0  0
   36.6190   23.8620   40.8690 F   0  0  0  0  0  0  0  0  0  0  0  0
   38.2840   24.1050   42.3990 F   0  0  0  0  0  0  0  0  0  0  0  0
   36.2260   24.7550   42.9310 F   0  0  0  0  0  0  0  0  0  0  0  0
   39.2980   29.0470   42.3680 C   0  0  0  0  0  0  0  0  0  0  0  0
   38.5320   29.9040   43.1090 F   0  0  0  0  0  0  0  0  0  0  0  0
   40.1430   29.7730   41.5110 F   0  0  0  0  0  0  0  0  0  0  0  0
   40.1490   28.3850   43.2270 F   0  0  0  0  0  0  0  0  0  0  0  0
  1 20  1  0  0  0  0
  1  6  1  0  0  0  0
  2  1  2  0  0  0  0
  3  2  1  0  0  0  0
  3  4  2  0  0  0  0
  4  5  1  0  0  0  0
  5  6  2  0  0  0  0
  5 24  1  0  0  0  0
  7  2  1  0  0  0  0
  8  9  1  0  0  0  0
  9  3  1  0  0  0  0
 10  9  2  0  0  0  0
 11 10  1  0  0  0  0
 12 10  1  0  0  0  0
 13 12  1  0  0  0  0
 14 16  2  0  0  0  0
 14 13  1  0  0  0  0
 15 14  1  0  0  0  0
 16 17  1  0  0  0  0
 17 12  2  0  0  0  0
 17 18  1  0  0  0  0
 18  8  2  0  0  0  0
 19 13  1  0  0  0  0
 20 22  1  0  0  0  0
 20 23  1  0  0  0  0
 21 20  1  0  0  0  0
 24 25  1  0  0  0  0
 24 27  1  0  0  0  0
 26 24  1  0  0  0  0
M  END
>  <minimizedAffinity>
-5.6163435

$$$$

 OpenBabel03252502333D

 27 29  0  0  0  0  0  0  0  0999 V2000
   36.2270   28.6340   39.5700 C   0  0  0  0  0  0  0  0  0  0  0  0
   37.1150   29.7250   39.4540 C   0  0  0  0  0  0  0  0  0  0  0  0
   37.9850   29.9730   40.5280 C   0  0  0  0  0  0  0  0  0  0  0  0
   37.9160   29.1520   41.6050 N   0  0  0  0  0  0  0  0  0  0  0  0
   37.0540   28.1170   41.6860 C   0  0  0  0  0  0  0  0  0  0  0  0
   36.2180   27.8620   40.6760 N   0  0  0  0  0  0  0  0  0  0  0  0
   37.1490   30.3530   38.5950 H   0  0  0  0  0  0  0  0  0  0  0  0
   38.6910   32.1300   39.7040 C   0  0  0  0  0  3  0  0  0  0  0  0
   38.9490   31.0630   40.5370 C   0  0  0  0  0  0  0  0  0  0  0  0
   40.0770   31.0600   41.3270 C   0  0  0  0  0  0  0  0  0  0  0  0
   40.2970   30.2480   41.9760 H   0  0  0  0  0  0  0  0  0  0  0  0
   40.9260   32.1460   41.2560 C   0  0  0  0  0  0  0  0  0  0  0  0
   42.0840   32.3620   41.9340 N   0  0  0  0  0  0  0  0  0  0  0  0
   42.5270   33.5770   41.5030 C   0  0  0  0  0  0  0  0  0  0  0  0
   43.4540   33.9560   41.9200 H   0  0  0  0  0  0  0  0  0  0  0  0
   41.6720   34.0810   40.5980 N   0  0  0  0  0  0  0  0  0  0  0  0
   40.6760   33.2180   40.4280 C   0  0  0  0  0  0  0  0  0  0  0  0
   39.5440   33.2230   39.6340 C   0  0  0  0  0  3  0  0  0  0  0  0
   42.5190   31.7100   42.6370 H   0  0  0  0  0  0  0  0  0  0  0  0
   35.3180   28.3880   38.4250 C   0  0  0  0  0  0  0  0  0  0  0  0
   35.6860   29.1100   37.3150 F   0  0  0  0  0  0  0  0  0  0  0  0
   35.3040   27.0270   38.1440 F   0  0  0  0  0  0  0  0  0  0  0  0
   34.0030   28.7060   38.8010 F   0  0  0  0  0  0  0  0  0  0  0  0
   37.0300   27.2580   42.8940 C   0  0  0  0  0  0  0  0  0  0  0  0
   38.1290   27.4690   43.6800 F   0  0  0  0  0  0  0  0  0  0  0  0
   36.9550   25.9040   42.5240 F   0  0  0  0  0  0  0  0  0  0  0  0
   35.9080   27.4780   43.6630 F   0  0  0  0  0  0  0  0  0  0  0  0
  1  6  1  0  0  0  0
  2  1  2  0  0  0  0
  2  3  1  0  0  0  0
  3  9  1  0  0  0  0
  3  4  2  0  0  0  0
  4  5  1  0  0  0  0
  5 24  1  0  0  0  0
  6  5  2  0  0  0  0
  7  2  1  0  0  0  0
  8  9  1  0  0  0  0
  9 10  2  0  0  0  0
 10 11  1  0  0  0  0
 12 10  1  0  0  0  0
 12 13  1  0  0  0  0
 13 19  1  0  0  0  0
 14 15  1  0  0  0  0
 14 13  1  0  0  0  0
 16 14  2  0  0  0  0
 17 16  1  0  0  0  0
 17 12  2  0  0  0  0
 18  8  2  0  0  0  0
 18 17  1  0  0  0  0
 20 23  1  0  0  0  0
 20  1  1  0  0  0  0
 21 20  1  0  0  0  0
 22 20  1  0  0  0  0
 24 27  1  0  0  0  0
 24 25  1  0  0  0  0
 26 24  1  0  0  0  0
M  END
>  <minimizedAffinity>
-5.55201483

$$$$

 OpenBabel03252502333D

 27 29  0  0  0  0  0  0  0  0999 V2000
   38.1600   25.9460   41.7450 C   0  0  0  0  0  0  0  0  0  0  0  0
   37.7370   27.2270   41.3280 C   0  0  0  0  0  0  0  0  0  0  0  0
   38.6670   28.2770   41.4060 C   0  0  0  0  0  0  0  0  0  0  0  0
   39.9060   27.9940   41.8760 N   0  0  0  0  0  0  0  0  0  0  0  0
   40.2810   26.7580   42.2680 C   0  0  0  0  0  0  0  0  0  0  0  0
   39.4130   25.7440   42.2020 N   0  0  0  0  0  0  0  0  0  0  0  0
   36.7570   27.4200   40.9610 H   0  0  0  0  0  0  0  0  0  0  0  0
   37.2430   29.8270   40.2240 C   0  0  0  0  0  3  0  0  0  0  0  0
   38.3610   29.6420   41.0090 C   0  0  0  0  0  0  0  0  0  0  0  0
   39.1310   30.7220   41.3800 C   0  0  0  0  0  0  0  0  0  0  0  0
   39.9970   30.6030   41.9850 H   0  0  0  0  0  0  0  0  0  0  0  0
   38.7500   31.9750   40.9460 C   0  0  0  0  0  0  0  0  0  0  0  0
   39.3470   33.1730   41.1850 N   0  0  0  0  0  0  0  0  0  0  0  0
   38.5760   34.0900   40.5350 C   0  0  0  0  0  0  0  0  0  0  0  0
   38.8730   35.1320   40.5910 H   0  0  0  0  0  0  0  0  0  0  0  0
   37.5500   33.4750   39.9240 N   0  0  0  0  0  0  0  0  0  0  0  0
   37.6340   32.1710   40.1630 C   0  0  0  0  0  0  0  0  0  0  0  0
   36.8590   31.0880   39.7880 C   0  0  0  0  0  3  0  0  0  0  0  0
   40.2190   33.3250   41.7550 H   0  0  0  0  0  0  0  0  0  0  0  0
   37.1650   24.8510   41.6520 C   0  0  0  0  0  0  0  0  0  0  0  0
   36.3130   24.8410   42.7310 F   0  0  0  0  0  0  0  0  0  0  0  0
   36.4540   24.9850   40.4660 F   0  0  0  0  0  0  0  0  0  0  0  0
   37.8380   23.6230   41.5490 F   0  0  0  0  0  0  0  0  0  0  0  0
   41.6530   26.5170   42.7740 C   0  0  0  0  0  0  0  0  0  0  0  0
   41.6800   25.4910   43.6770 F   0  0  0  0  0  0  0  0  0  0  0  0
   42.1660   27.6880   43.3570 F   0  0  0  0  0  0  0  0  0  0  0  0
   42.5320   26.2130   41.7570 F   0  0  0  0  0  0  0  0  0  0  0  0
  1  6  1  0  0  0  0
  2  3  1  0  0  0  0
  2  1  2  0  0  0  0
  3  4  2  0  0  0  0
  4  5  1  0  0  0  0
  5 24  1  0  0  0  0
  6  5  2  0  0  0  0
  7  2  1  0  0  0  0
  8  9  1  0  0  0  0
  9 10  2  0  0  0  0
  9  3  1  0  0  0  0
 10 11  1  0  0  0  0
 12 13  1  0  0  0  0
 12 10  1  0  0  0  0
 13 19  1  0  0  0  0
 14 15  1  0  0  0  0
 14 13  1  0  0  0  0
 16 17  1  0  0  0  0
 16 14  2  0  0  0  0
 17 12  2  0  0  0  0
 18 17  1  0  0  0  0
 18  8  2  0  0  0  0
 20  1  1  0  0  0  0
 20 21  1  0  0  0  0
 22 20  1  0  0  0  0
 23 20  1  0  0  0  0
 24 26  1  0  0  0  0
 24 25  1  0  0  0  0
 27 24  1  0  0  0  0
M  END
>  <minimizedAffinity>
-5.4268465

$$$$
