
 OpenBabel03252507283D

 46 50  0  0  1  0  0  0  0  0999 V2000
   47.0670   34.2920   43.3830 C   0  0  2  0  0  0  0  0  0  0  0  0
   47.3610   32.9540   43.8720 C   0  0  0  0  0  0  0  0  0  0  0  0
   46.7700   32.7290   45.2260 C   0  0  0  0  0  0  0  0  0  0  0  0
   45.4350   33.3360   45.4910 C   0  0  0  0  0  0  0  0  0  0  0  0
   45.3000   34.7030   44.9300 C   0  0  0  0  0  0  0  0  0  0  0  0
   45.6440   34.6670   43.4400 C   0  0  2  0  0  0  0  0  0  0  0  0
   47.5650   34.9830   44.1690 H   0  0  0  0  0  0  0  0  0  0  0  0
   48.5070   32.9560   44.0820 H   0  0  0  0  0  0  0  0  0  0  0  0
   47.2510   32.0760   43.2650 H   0  0  0  0  0  0  0  0  0  0  0  0
   47.4960   32.9960   46.0560 H   0  0  0  0  0  0  0  0  0  0  0  0
   46.6410   31.6110   45.3650 H   0  0  0  0  0  0  0  0  0  0  0  0
   45.3620   33.4430   46.6040 H   0  0  0  0  0  0  0  0  0  0  0  0
   44.6370   32.6200   45.2310 H   0  0  0  0  0  0  0  0  0  0  0  0
   44.3980   35.2370   45.1560 H   0  0  0  0  0  0  0  0  0  0  0  0
   46.1380   35.3100   45.3820 H   0  0  0  0  0  0  0  0  0  0  0  0
   45.5180   35.8000   43.2250 H   0  0  0  0  0  0  0  0  0  0  0  0
   43.6980   34.7120   42.0780 C   0  0  0  0  0  3  0  0  0  0  0  0
   44.6110   33.9070   42.7950 C   0  0  0  0  0  0  0  0  0  0  0  0
   44.2650   32.6020   42.6860 C   0  0  0  0  0  0  0  0  0  0  0  0
   44.9210   31.9380   43.2170 H   0  0  0  0  0  0  0  0  0  0  0  0
   43.2110   32.0330   42.0090 C   0  0  0  0  0  0  0  0  0  0  0  0
   42.8330   30.7510   41.8760 N   0  0  0  0  0  0  0  0  0  0  0  0
   41.7180   30.8250   41.0920 C   0  0  0  0  0  0  0  0  0  0  0  0
   41.1390   29.9580   40.7770 H   0  0  0  0  0  0  0  0  0  0  0  0
   41.4430   32.0950   40.7710 N   0  0  0  0  0  0  0  0  0  0  0  0
   42.3760   32.8800   41.3420 C   0  0  0  0  0  0  0  0  0  0  0  0
   42.6000   34.2160   41.3640 C   0  0  0  0  0  3  0  0  0  0  0  0
   43.3110   29.9250   42.2920 H   0  0  0  0  0  0  0  0  0  0  0  0
   47.7300   34.7100   42.1430 C   0  0  0  0  0  0  0  0  0  0  0  0
   48.6290   35.7630   42.2140 C   0  0  0  0  0  0  0  0  0  0  0  0
   49.2460   36.1650   41.0130 C   0  0  0  0  0  0  0  0  0  0  0  0
   48.9170   35.4910   39.8560 N   0  0  0  0  0  0  0  0  0  0  0  0
   48.0430   34.4840   39.8620 C   0  0  0  0  0  0  0  0  0  0  0  0
   47.4620   34.1010   40.9850 N   0  0  0  0  0  0  0  0  0  0  0  0
   48.9750   36.3620   43.0300 H   0  0  0  0  0  0  0  0  0  0  0  0
   49.9490   36.9520   40.9200 H   0  0  0  0  0  0  0  0  0  0  0  0
   47.7410   33.8110   38.5980 C   0  0  0  0  0  0  0  0  0  0  0  0
   48.6020   33.9260   37.5250 C   0  0  0  0  0  0  0  0  0  0  0  0
   48.4120   33.3330   36.2980 C   0  0  0  0  0  0  0  0  0  0  0  0
   47.2360   32.5760   36.2160 C   0  0  0  0  0  0  0  0  0  0  0  0
   46.3560   32.4460   37.2770 C   0  0  0  0  0  0  0  0  0  0  0  0
   46.6040   33.0650   38.4790 N   0  0  0  0  0  0  0  0  0  0  0  0
   49.4890   34.5290   37.6720 H   0  0  0  0  0  0  0  0  0  0  0  0
   49.1100   33.4570   35.5100 H   0  0  0  0  0  0  0  0  0  0  0  0
   47.0420   32.0850   35.2570 H   0  0  0  0  0  0  0  0  0  0  0  0
   45.4870   31.8440   37.1070 H   0  0  0  0  0  0  0  0  0  0  0  0
  1  6  1  0  0  0  0
  1  2  1  0  0  0  0
  1  7  1  1  0  0  0
  2  8  1  0  0  0  0
  2  3  1  0  0  0  0
  3 11  1  0  0  0  0
  3  4  1  0  0  0  0
  3 10  1  0  0  0  0
  4 12  1  0  0  0  0
  5 14  1  0  0  0  0
  5 15  1  0  0  0  0
  5  4  1  0  0  0  0
  6 16  1  6  0  0  0
  6  5  1  0  0  0  0
  9  2  1  0  0  0  0
 13  4  1  0  0  0  0
 17 18  1  0  0  0  0
 18  6  1  0  0  0  0
 19 18  2  0  0  0  0
 19 20  1  0  0  0  0
 21 19  1  0  0  0  0
 22 21  1  0  0  0  0
 22 28  1  0  0  0  0
 23 22  1  0  0  0  0
 24 23  1  0  0  0  0
 25 23  2  0  0  0  0
 25 26  1  0  0  0  0
 26 27  1  0  0  0  0
 26 21  2  0  0  0  0
 27 17  2  0  0  0  0
 29 30  1  0  0  0  0
 29  1  1  0  0  0  0
 30 35  1  0  0  0  0
 31 30  2  0  0  0  0
 32 33  2  0  0  0  0
 32 31  1  0  0  0  0
 33 34  1  0  0  0  0
 34 29  2  0  0  0  0
 36 31  1  0  0  0  0
 37 33  1  0  0  0  0
 38 43  1  0  0  0  0
 38 37  2  0  0  0  0
 39 38  1  0  0  0  0
 40 39  2  0  0  0  0
 40 41  1  0  0  0  0
 41 42  2  0  0  0  0
 42 37  1  0  0  0  0
 44 39  1  0  0  0  0
 45 40  1  0  0  0  0
 46 41  1  0  0  0  0
M  END
>  <minimizedAffinity>
-5.63365746

>  <minimizedRMSD>
5.05676794

$$$$
