
 OpenBabel03252506563D

 41 46  0  0  0  0  0  0  0  0999 V2000
   47.4110   31.4070   45.1760 C   0  0  0  0  0  0  0  0  0  0  0  0
   46.9160   32.7030   45.0650 C   0  0  0  0  0  0  0  0  0  0  0  0
   46.2140   33.3170   46.0740 C   0  0  0  0  0  0  0  0  0  0  0  0
   45.9650   32.6540   47.2690 C   0  0  0  0  0  0  0  0  0  0  0  0
   45.3270   32.9390   48.4440 N   0  0  0  0  0  0  0  0  0  0  0  0
   45.4260   31.8520   49.2540 C   0  0  0  0  0  0  0  0  0  0  0  0
   46.1180   30.9180   48.5740 N   0  0  0  0  0  0  0  0  0  0  0  0
   46.4590   31.3760   47.3650 C   0  0  0  0  0  0  0  0  0  0  0  0
   47.1590   30.7370   46.3850 C   0  0  0  0  0  0  0  0  0  0  0  0
   47.9650   30.9160   44.3860 H   0  0  0  0  0  0  0  0  0  0  0  0
   45.8270   34.3250   45.9930 H   0  0  0  0  0  0  0  0  0  0  0  0
   44.8680   33.8700   48.5990 H   0  0  0  0  0  0  0  0  0  0  0  0
   45.0020   31.8180   50.2500 H   0  0  0  0  0  0  0  0  0  0  0  0
   46.5730   35.1670   42.3610 C   0  0  0  0  0  0  0  0  0  0  0  0
   47.6230   34.8140   41.4980 C   0  0  0  0  0  0  0  0  0  0  0  0
   48.4310   33.7400   41.8500 C   0  0  0  0  0  0  0  0  0  0  0  0
   48.1760   33.0700   43.0230 N   0  0  0  0  0  0  0  0  0  0  0  0
   47.1500   33.4450   43.8280 C   0  0  0  0  0  0  0  0  0  0  0  0
   46.3520   34.4790   43.5130 N   0  0  0  0  0  0  0  0  0  0  0  0
   45.9310   35.9980   42.1060 H   0  0  0  0  0  0  0  0  0  0  0  0
   47.7860   35.3660   40.5890 H   0  0  0  0  0  0  0  0  0  0  0  0
   49.2380   33.4580   41.2010 H   0  0  0  0  0  0  0  0  0  0  0  0
   47.6530   29.3570   46.5780 C   0  0  0  0  0  0  0  0  0  0  0  0
   48.7320   28.8140   45.8880 C   0  0  0  0  0  0  0  0  0  0  0  0
   48.8140   27.5120   46.4030 C   0  0  0  0  0  0  0  0  0  0  0  0
   47.8110   27.3470   47.3470 C   0  0  0  0  0  0  0  0  0  0  0  0
   47.1480   28.4900   47.4060 O   0  0  0  0  0  0  0  0  0  0  0  0
   49.3030   29.3550   45.1480 H   0  0  0  0  0  0  0  0  0  0  0  0
   49.5730   26.8170   46.0580 H   0  0  0  0  0  0  0  0  0  0  0  0
   46.4030   25.4210   48.0490 C   0  0  0  0  0  0  0  0  0  0  0  0
   47.5990   26.1090   48.0880 C   0  0  0  0  0  0  0  0  0  0  0  0
   48.6370   25.5930   48.8690 C   0  0  0  0  0  0  0  0  0  0  0  0
   49.6080   26.0840   48.9450 H   0  0  0  0  0  0  0  0  0  0  0  0
   48.4000   24.4200   49.5560 C   0  0  0  0  0  0  0  0  0  0  0  0
   49.1530   23.6470   50.3890 N   0  0  0  0  0  0  0  0  0  0  0  0
   48.4580   22.5760   50.8160 C   0  0  0  0  0  0  0  0  0  0  0  0
   48.9250   21.8710   51.4850 H   0  0  0  0  0  0  0  0  0  0  0  0
   47.2280   22.6440   50.2560 N   0  0  0  0  0  0  0  0  0  0  0  0
   47.1880   23.7460   49.5010 C   0  0  0  0  0  0  0  0  0  0  0  0
   46.1740   24.2640   48.7290 C   0  0  0  0  0  0  0  0  0  0  0  0
   50.1380   23.9220   50.6160 H   0  0  0  0  0  0  0  0  0  0  0  0
  1  9  1  0  0  0  0
  2  1  2  0  0  0  0
  2  3  1  0  0  0  0
  3  4  2  0  0  0  0
  4  8  1  0  0  0  0
  4  5  1  0  0  0  0
  5 12  1  0  0  0  0
  5  6  1  0  0  0  0
  6 13  1  0  0  0  0
  7  6  2  0  0  0  0
  8  7  1  0  0  0  0
  9 23  1  0  0  0  0
  9  8  2  0  0  0  0
 10  1  1  0  0  0  0
 11  3  1  0  0  0  0
 14 19  1  0  0  0  0
 15 16  1  0  0  0  0
 15 14  2  0  0  0  0
 16 17  2  0  0  0  0
 17 18  1  0  0  0  0
 18  2  1  0  0  0  0
 19 18  2  0  0  0  0
 20 14  1  0  0  0  0
 21 15  1  0  0  0  0
 22 16  1  0  0  0  0
 23 27  1  0  0  0  0
 24 25  1  0  0  0  0
 24 23  2  0  0  0  0
 25 26  2  0  0  0  0
 26 27  1  0  0  0  0
 26 31  1  0  0  0  0
 28 24  1  0  0  0  0
 29 25  1  0  0  0  0
 30 31  2  0  0  0  0
 30 40  1  0  0  0  0
 31 32  1  0  0  0  0
 32 33  1  0  0  0  0
 32 34  2  0  0  0  0
 34 35  1  0  0  0  0
 35 41  1  0  0  0  0
 35 36  1  0  0  0  0
 36 37  1  0  0  0  0
 38 36  2  0  0  0  0
 39 34  1  0  0  0  0
 39 38  1  0  0  0  0
 40 39  2  0  0  0  0
M  END
>  <minimizedAffinity>
-6.442307

>  <minimizedRMSD>
1.90933645

$$$$
