
 OpenBabel03242522503D

 29 31  0  0  0  0  0  0  0  0999 V2000
   47.6380   32.3140   48.2630 O   0  0  0  0  0  0  0  0  0  0  0  0
   45.7030   30.6670   47.7180 O   0  0  0  0  0  0  0  0  0  0  0  0
   46.0100   32.0510   48.3490 P   0  0  1  0  0  0  0  0  0  0  0  0
   45.4500   31.9380   49.9330 O   0  0  0  0  0  0  0  0  0  0  0  0
   45.7980   32.7150   50.4500 H   0  0  0  0  0  0  0  0  0  0  0  0
   45.1250   33.2090   47.5000 O   0  0  0  0  0  0  0  0  0  0  0  0
   46.9620   33.2900   44.3640 C   0  0  0  0  0  0  0  0  0  0  0  0
   46.5370   32.9090   45.6510 C   0  0  0  0  0  0  0  0  0  0  0  0
   45.5120   33.6090   46.2390 C   0  0  0  0  0  0  0  0  0  0  0  0
   44.9590   34.6360   45.5450 N   0  0  0  0  0  0  0  0  0  0  0  0
   45.3740   34.9860   44.3230 C   0  0  0  0  0  0  0  0  0  0  0  0
   46.3710   34.3220   43.7270 N   0  0  0  0  0  0  0  0  0  0  0  0
   47.7580   32.8050   43.8160 H   0  0  0  0  0  0  0  0  0  0  0  0
   47.0970   32.0850   46.0070 H   0  0  0  0  0  0  0  0  0  0  0  0
   44.8290   35.8340   43.8960 H   0  0  0  0  0  0  0  0  0  0  0  0
   48.7120   31.6490   48.7230 C   0  0  0  0  0  0  0  0  0  0  0  0
   49.5440   32.4330   49.3900 O   0  0  0  0  0  0  0  0  0  0  0  0
   50.7260   30.2580   48.9910 C   0  0  0  0  0  3  0  0  0  0  0  0
   49.3820   30.3080   48.7830 C   0  0  0  0  0  0  0  0  0  0  0  0
   48.7250   29.1000   48.6230 C   0  0  0  0  0  0  0  0  0  0  0  0
   47.6540   29.2070   48.4610 H   0  0  0  0  0  0  0  0  0  0  0  0
   49.2630   27.8410   48.6470 C   0  0  0  0  0  0  0  0  0  0  0  0
   48.7560   26.6120   48.5090 N   0  0  0  0  0  0  0  0  0  0  0  0
   49.8540   25.8130   48.6430 C   0  0  0  0  0  0  0  0  0  0  0  0
   49.8410   24.7180   48.5890 H   0  0  0  0  0  0  0  0  0  0  0  0
   50.9720   26.5390   48.8510 N   0  0  0  0  0  0  0  0  0  0  0  0
   50.6190   27.8560   48.8590 C   0  0  0  0  0  0  0  0  0  0  0  0
   51.3480   29.0020   49.0270 C   0  0  0  0  0  3  0  0  0  0  0  0
   47.7670   26.3320   48.3420 H   0  0  0  0  0  0  0  0  0  0  0  0
  1  3  1  0  0  0  0
  1 16  1  0  0  0  0
  3  2  2  6  0  0  0
  3  4  1  0  0  0  0
  4  5  1  0  0  0  0
  6  3  1  0  0  0  0
  7  8  1  0  0  0  0
  8 14  1  0  0  0  0
  8  9  2  0  0  0  0
  9  6  1  0  0  0  0
 10  9  1  0  0  0  0
 11 10  2  0  0  0  0
 12 11  1  0  0  0  0
 12  7  2  0  0  0  0
 13  7  1  0  0  0  0
 15 11  1  0  0  0  0
 16 19  1  0  0  0  0
 16 17  2  0  0  0  0
 18 28  1  0  0  0  0
 19 18  2  0  0  0  0
 20 22  2  0  0  0  0
 20 19  1  0  0  0  0
 21 20  1  0  0  0  0
 22 27  1  0  0  0  0
 23 24  1  0  0  0  0
 23 22  1  0  0  0  0
 24 26  2  0  0  0  0
 25 24  1  0  0  0  0
 26 27  1  0  0  0  0
 27 28  2  0  0  0  0
 29 23  1  0  0  0  0
M  END
>  <minimizedAffinity>
-4.69984055

>  <minimizedRMSD>
0.575824857

$$$$
