
 OpenBabel03242522503D

 29 31  0  0  0  0  0  0  0  0999 V2000
   47.6170   32.2770   48.3300 O   0  0  0  0  0  0  0  0  0  0  0  0
   45.6950   30.6370   47.7210 O   0  0  0  0  0  0  0  0  0  0  0  0
   45.9870   32.0110   48.3800 P   0  0  1  0  0  0  0  0  0  0  0  0
   45.3970   31.8710   49.9510 O   0  0  0  0  0  0  0  0  0  0  0  0
   45.7330   32.6400   50.4870 H   0  0  0  0  0  0  0  0  0  0  0  0
   45.1180   33.1810   47.5320 O   0  0  0  0  0  0  0  0  0  0  0  0
   46.9720   33.2600   44.4070 C   0  0  0  0  0  0  0  0  0  0  0  0
   46.5410   32.8800   45.6920 C   0  0  0  0  0  0  0  0  0  0  0  0
   45.5130   33.5810   46.2740 C   0  0  0  0  0  0  0  0  0  0  0  0
   44.9630   34.6070   45.5750 N   0  0  0  0  0  0  0  0  0  0  0  0
   45.3850   34.9560   44.3550 C   0  0  0  0  0  0  0  0  0  0  0  0
   46.3850   34.2910   43.7660 N   0  0  0  0  0  0  0  0  0  0  0  0
   47.7720   32.7740   43.8640 H   0  0  0  0  0  0  0  0  0  0  0  0
   47.0980   32.0560   46.0520 H   0  0  0  0  0  0  0  0  0  0  0  0
   44.8430   35.8030   43.9250 H   0  0  0  0  0  0  0  0  0  0  0  0
   48.6720   31.6920   48.9240 C   0  0  0  0  0  0  0  0  0  0  0  0
   49.5640   32.5730   49.3500 O   0  0  0  0  0  0  0  0  0  0  0  0
   49.2040   29.3380   48.4350 C   0  0  0  0  0  3  0  0  0  0  0  0
   49.2770   30.3760   49.3130 C   0  0  0  0  0  0  0  0  0  0  0  0
   49.8980   30.1310   50.5260 C   0  0  0  0  0  0  0  0  0  0  0  0
   49.9240   30.9990   51.1830 H   0  0  0  0  0  0  0  0  0  0  0  0
   50.4570   28.9600   50.9620 C   0  0  0  0  0  0  0  0  0  0  0  0
   51.0780   28.5900   52.0880 N   0  0  0  0  0  0  0  0  0  0  0  0
   51.3780   27.2810   51.8530 C   0  0  0  0  0  0  0  0  0  0  0  0
   51.8990   26.6220   52.5580 H   0  0  0  0  0  0  0  0  0  0  0  0
   50.9530   26.8860   50.6340 N   0  0  0  0  0  0  0  0  0  0  0  0
   50.3530   27.9540   50.0350 C   0  0  0  0  0  0  0  0  0  0  0  0
   49.7560   28.1070   48.8130 C   0  0  0  0  0  3  0  0  0  0  0  0
   51.2810   29.1610   52.9350 H   0  0  0  0  0  0  0  0  0  0  0  0
  1  3  1  0  0  0  0
  1 16  1  0  0  0  0
  3  2  2  6  0  0  0
  3  4  1  0  0  0  0
  4  5  1  0  0  0  0
  6  3  1  0  0  0  0
  7  8  1  0  0  0  0
  8 14  1  0  0  0  0
  8  9  2  0  0  0  0
  9  6  1  0  0  0  0
 10  9  1  0  0  0  0
 11 10  2  0  0  0  0
 12 11  1  0  0  0  0
 12  7  2  0  0  0  0
 13  7  1  0  0  0  0
 15 11  1  0  0  0  0
 16 19  1  0  0  0  0
 16 17  2  0  0  0  0
 18 28  2  0  0  0  0
 18 19  1  0  0  0  0
 19 20  2  0  0  0  0
 20 22  1  0  0  0  0
 20 21  1  0  0  0  0
 22 23  1  0  0  0  0
 23 29  1  0  0  0  0
 24 23  1  0  0  0  0
 24 25  1  0  0  0  0
 26 24  2  0  0  0  0
 27 26  1  0  0  0  0
 27 22  2  0  0  0  0
 28 27  1  0  0  0  0
M  END
>  <minimizedAffinity>
-5.57500219

>  <minimizedRMSD>
1.94438434

$$$$
