
 OpenBabel03242522503D

 29 31  0  0  0  0  0  0  0  0999 V2000
   47.6160   32.2740   48.3230 O   0  0  0  0  0  0  0  0  0  0  0  0
   45.6880   30.6400   47.7180 O   0  0  0  0  0  0  0  0  0  0  0  0
   45.9850   32.0130   48.3770 P   0  0  1  0  0  0  0  0  0  0  0  0
   45.3980   31.8750   49.9490 O   0  0  0  0  0  0  0  0  0  0  0  0
   45.7380   32.6430   50.4840 H   0  0  0  0  0  0  0  0  0  0  0  0
   45.1180   33.1860   47.5310 O   0  0  0  0  0  0  0  0  0  0  0  0
   46.9700   33.2640   44.4050 C   0  0  0  0  0  0  0  0  0  0  0  0
   46.5390   32.8850   45.6900 C   0  0  0  0  0  0  0  0  0  0  0  0
   45.5110   33.5850   46.2720 C   0  0  0  0  0  0  0  0  0  0  0  0
   44.9610   34.6100   45.5740 N   0  0  0  0  0  0  0  0  0  0  0  0
   45.3820   34.9600   44.3530 C   0  0  0  0  0  0  0  0  0  0  0  0
   46.3820   34.2950   43.7630 N   0  0  0  0  0  0  0  0  0  0  0  0
   47.7700   32.7790   43.8610 H   0  0  0  0  0  0  0  0  0  0  0  0
   47.0980   32.0610   46.0500 H   0  0  0  0  0  0  0  0  0  0  0  0
   44.8390   35.8060   43.9220 H   0  0  0  0  0  0  0  0  0  0  0  0
   48.6700   31.6910   48.9210 C   0  0  0  0  0  0  0  0  0  0  0  0
   49.5590   32.5730   49.3490 O   0  0  0  0  0  0  0  0  0  0  0  0
   49.2040   29.3370   48.4340 C   0  0  0  0  0  3  0  0  0  0  0  0
   49.2760   30.3760   49.3120 C   0  0  0  0  0  0  0  0  0  0  0  0
   49.8970   30.1330   50.5250 C   0  0  0  0  0  0  0  0  0  0  0  0
   49.9210   31.0010   51.1800 H   0  0  0  0  0  0  0  0  0  0  0  0
   50.4560   28.9630   50.9630 C   0  0  0  0  0  0  0  0  0  0  0  0
   51.0760   28.5960   52.0900 N   0  0  0  0  0  0  0  0  0  0  0  0
   51.3770   27.2860   51.8570 C   0  0  0  0  0  0  0  0  0  0  0  0
   51.9000   26.6290   52.5630 H   0  0  0  0  0  0  0  0  0  0  0  0
   50.9540   26.8880   50.6380 N   0  0  0  0  0  0  0  0  0  0  0  0
   50.3530   27.9560   50.0370 C   0  0  0  0  0  0  0  0  0  0  0  0
   49.7570   28.1060   48.8150 C   0  0  0  0  0  3  0  0  0  0  0  0
   51.2790   29.1680   52.9360 H   0  0  0  0  0  0  0  0  0  0  0  0
  1  3  1  0  0  0  0
  1 16  1  0  0  0  0
  3  2  2  6  0  0  0
  3  4  1  0  0  0  0
  4  5  1  0  0  0  0
  6  3  1  0  0  0  0
  7  8  1  0  0  0  0
  8 14  1  0  0  0  0
  8  9  2  0  0  0  0
  9  6  1  0  0  0  0
 10  9  1  0  0  0  0
 11 10  2  0  0  0  0
 12 11  1  0  0  0  0
 12  7  2  0  0  0  0
 13  7  1  0  0  0  0
 15 11  1  0  0  0  0
 16 19  1  0  0  0  0
 16 17  2  0  0  0  0
 18 28  2  0  0  0  0
 18 19  1  0  0  0  0
 19 20  2  0  0  0  0
 20 22  1  0  0  0  0
 20 21  1  0  0  0  0
 22 23  1  0  0  0  0
 23 29  1  0  0  0  0
 24 23  1  0  0  0  0
 24 25  1  0  0  0  0
 26 24  2  0  0  0  0
 27 26  1  0  0  0  0
 27 22  2  0  0  0  0
 28 27  1  0  0  0  0
M  END
>  <minimizedAffinity>
-5.57296371

>  <minimizedRMSD>
1.81037891

$$$$
