
 OpenBabel03242522503D

 29 31  0  0  0  0  0  0  0  0999 V2000
   47.7390   32.1570   48.4220 O   0  0  0  0  0  0  0  0  0  0  0  0
   45.8390   30.4520   47.9360 O   0  0  0  0  0  0  0  0  0  0  0  0
   46.1100   31.8840   48.4670 P   0  0  1  0  0  0  0  0  0  0  0  0
   45.4910   31.8900   50.0330 O   0  0  0  0  0  0  0  0  0  0  0  0
   45.8130   32.7080   50.5000 H   0  0  0  0  0  0  0  0  0  0  0  0
   45.2510   32.9620   47.4960 O   0  0  0  0  0  0  0  0  0  0  0  0
   47.1990   32.8320   44.4310 C   0  0  0  0  0  0  0  0  0  0  0  0
   46.7110   32.5230   45.7140 C   0  0  0  0  0  0  0  0  0  0  0  0
   45.7020   33.2950   46.2380 C   0  0  0  0  0  0  0  0  0  0  0  0
   45.2260   34.3190   45.4860 N   0  0  0  0  0  0  0  0  0  0  0  0
   45.7020   34.6020   44.2680 C   0  0  0  0  0  0  0  0  0  0  0  0
   46.6840   33.8660   43.7350 N   0  0  0  0  0  0  0  0  0  0  0  0
   47.9900   32.2880   43.9320 H   0  0  0  0  0  0  0  0  0  0  0  0
   47.2150   31.6860   46.1210 H   0  0  0  0  0  0  0  0  0  0  0  0
   45.2160   35.4570   43.7900 H   0  0  0  0  0  0  0  0  0  0  0  0
   48.7930   31.5900   49.0340 C   0  0  0  0  0  0  0  0  0  0  0  0
   49.7110   32.4770   49.3860 O   0  0  0  0  0  0  0  0  0  0  0  0
   49.9990   30.2470   50.7090 C   0  0  0  0  0  3  0  0  0  0  0  0
   49.3790   30.2890   49.4990 C   0  0  0  0  0  0  0  0  0  0  0  0
   49.3490   29.1140   48.7670 C   0  0  0  0  0  0  0  0  0  0  0  0
   48.8380   29.2130   47.8090 H   0  0  0  0  0  0  0  0  0  0  0  0
   49.8710   27.8970   49.1090 C   0  0  0  0  0  0  0  0  0  0  0  0
   49.9130   26.7020   48.5090 N   0  0  0  0  0  0  0  0  0  0  0  0
   50.5890   25.9330   49.4110 C   0  0  0  0  0  0  0  0  0  0  0  0
   50.8260   24.8720   49.2750 H   0  0  0  0  0  0  0  0  0  0  0  0
   50.9350   26.6420   50.5060 N   0  0  0  0  0  0  0  0  0  0  0  0
   50.4830   27.9180   50.3380 C   0  0  0  0  0  0  0  0  0  0  0  0
   50.5590   29.0320   51.1270 C   0  0  0  0  0  3  0  0  0  0  0  0
   49.5260   26.4260   47.5830 H   0  0  0  0  0  0  0  0  0  0  0  0
  1  3  1  0  0  0  0
  1 16  1  0  0  0  0
  3  2  2  6  0  0  0
  3  4  1  0  0  0  0
  4  5  1  0  0  0  0
  6  3  1  0  0  0  0
  7  8  1  0  0  0  0
  8 14  1  0  0  0  0
  8  9  2  0  0  0  0
  9  6  1  0  0  0  0
 10  9  1  0  0  0  0
 11 10  2  0  0  0  0
 12 11  1  0  0  0  0
 12  7  2  0  0  0  0
 13  7  1  0  0  0  0
 15 11  1  0  0  0  0
 16 17  2  0  0  0  0
 16 19  1  0  0  0  0
 18 28  1  0  0  0  0
 19 18  2  0  0  0  0
 20 22  2  0  0  0  0
 20 19  1  0  0  0  0
 21 20  1  0  0  0  0
 22 27  1  0  0  0  0
 23 22  1  0  0  0  0
 23 24  1  0  0  0  0
 24 26  2  0  0  0  0
 25 24  1  0  0  0  0
 27 26  1  0  0  0  0
 27 28  2  0  0  0  0
 29 23  1  0  0  0  0
M  END
>  <minimizedAffinity>
-5.21859741

>  <minimizedRMSD>
1.49554491

$$$$
