
 OpenBabel03242519413D

 32 34  0  0  0  0  0  0  0  0999 V2000
   48.0300   32.8890   41.7070 O   0  0  0  0  0  0  0  0  0  0  0  0
   47.1600   34.0970   41.2680 P   0  0  2  0  0  0  0  0  0  0  0  0
   45.5730   33.8710   41.8790 O   0  0  0  0  0  0  0  0  0  0  0  0
   44.3940   35.9100   44.6600 C   0  0  0  0  0  0  0  0  0  0  0  0
   44.6690   35.4890   43.3410 C   0  0  0  0  0  0  0  0  0  0  0  0
   45.3140   34.2540   43.1800 C   0  0  0  0  0  0  0  0  0  0  0  0
   45.6300   33.5450   44.2790 N   0  0  0  0  0  0  0  0  0  0  0  0
   45.3510   33.9790   45.5290 C   0  0  0  0  0  0  0  0  0  0  0  0
   44.7380   35.1520   45.7300 N   0  0  0  0  0  0  0  0  0  0  0  0
   43.8990   36.8620   44.7560 H   0  0  0  0  0  0  0  0  0  0  0  0
   44.3830   36.1150   42.5270 H   0  0  0  0  0  0  0  0  0  0  0  0
   45.6520   33.3240   46.3530 H   0  0  0  0  0  0  0  0  0  0  0  0
   47.0780   34.1740   39.6120 O   0  0  0  0  0  0  0  0  0  0  0  0
   46.8110   33.1820   38.7140 C   0  0  0  0  0  0  0  0  0  0  0  0
   46.9060   33.5050   37.3940 O   0  0  0  0  0  0  0  0  0  0  0  0
   47.2530   30.7790   38.9730 C   0  0  0  0  0  3  0  0  0  0  0  0
   46.4310   31.7450   38.5070 C   0  0  0  0  0  0  0  0  0  0  0  0
   45.2600   31.3130   37.8900 C   0  0  0  0  0  0  0  0  0  0  0  0
   44.6340   32.1580   37.5320 H   0  0  0  0  0  0  0  0  0  0  0  0
   44.8000   30.0490   37.6790 C   0  0  0  0  0  0  0  0  0  0  0  0
   43.7110   29.5240   37.1100 N   0  0  0  0  0  0  0  0  0  0  0  0
   43.9180   28.1810   37.2580 C   0  0  0  0  0  0  0  0  0  0  0  0
   43.1960   27.4390   36.8910 H   0  0  0  0  0  0  0  0  0  0  0  0
   45.0920   27.9320   37.8930 N   0  0  0  0  0  0  0  0  0  0  0  0
   45.6710   29.1130   38.1710 C   0  0  0  0  0  0  0  0  0  0  0  0
   46.8390   29.4480   38.7880 C   0  0  0  0  0  3  0  0  0  0  0  0
   42.9220   30.0300   36.6740 H   0  0  0  0  0  0  0  0  0  0  0  0
   47.8210   35.4380   41.9830 O   0  0  0  0  0  0  0  0  0  0  0  0
   49.0570   35.7710   41.4480 C   0  0  0  0  0  0  0  0  0  0  0  0
   49.4560   37.0530   41.7900 F   0  0  0  0  0  0  0  0  0  0  0  0
   49.9830   34.8310   41.7730 F   0  0  0  0  0  0  0  0  0  0  0  0
   48.8960   35.7680   40.0670 F   0  0  0  0  0  0  0  0  0  0  0  0
  2  1  2  1  0  0  0
  2  3  1  0  0  0  0
  2 28  1  0  0  0  0
  3  6  1  0  0  0  0
  4 10  1  0  0  0  0
  4  9  1  0  0  0  0
  5  4  2  0  0  0  0
  6  5  1  0  0  0  0
  6  7  2  0  0  0  0
  7  8  1  0  0  0  0
  8  9  2  0  0  0  0
  8 12  1  0  0  0  0
 11  5  1  0  0  0  0
 13  2  1  0  0  0  0
 14 13  1  0  0  0  0
 15 14  2  0  0  0  0
 17 14  1  0  0  0  0
 17 16  2  0  0  0  0
 18 17  1  0  0  0  0
 19 18  1  0  0  0  0
 20 18  2  0  0  0  0
 20 25  1  0  0  0  0
 21 22  1  0  0  0  0
 21 20  1  0  0  0  0
 22 24  2  0  0  0  0
 23 22  1  0  0  0  0
 24 25  1  0  0  0  0
 25 26  2  0  0  0  0
 26 16  1  0  0  0  0
 27 21  1  0  0  0  0
 29 31  1  0  0  0  0
 29 30  1  0  0  0  0
 29 28  1  0  0  0  0
 32 29  1  0  0  0  0
M  END
>  <minimizedAffinity>
-4.88482714

>  <minimizedRMSD>
0.300074041

$$$$
