
 OpenBabel03242519413D

 32 34  0  0  0  0  0  0  0  0999 V2000
   47.8660   32.7140   41.4770 O   0  0  0  0  0  0  0  0  0  0  0  0
   46.9060   33.8860   41.1420 P   0  0  2  0  0  0  0  0  0  0  0  0
   45.4020   33.5910   41.9130 O   0  0  0  0  0  0  0  0  0  0  0  0
   44.3810   35.8410   44.5920 C   0  0  0  0  0  0  0  0  0  0  0  0
   44.5800   35.3190   43.2950 C   0  0  0  0  0  0  0  0  0  0  0  0
   45.2190   34.0740   43.1930 C   0  0  0  0  0  0  0  0  0  0  0  0
   45.6030   33.4530   44.3230 N   0  0  0  0  0  0  0  0  0  0  0  0
   45.3970   33.9840   45.5500 C   0  0  0  0  0  0  0  0  0  0  0  0
   44.7910   35.1680   45.6950 N   0  0  0  0  0  0  0  0  0  0  0  0
   43.8890   36.7970   44.6430 H   0  0  0  0  0  0  0  0  0  0  0  0
   44.2430   35.8790   42.4540 H   0  0  0  0  0  0  0  0  0  0  0  0
   45.7490   33.3950   46.4030 H   0  0  0  0  0  0  0  0  0  0  0  0
   46.6500   33.9670   39.5050 O   0  0  0  0  0  0  0  0  0  0  0  0
   47.1010   33.1390   38.5180 C   0  0  0  0  0  0  0  0  0  0  0  0
   46.2260   32.8380   37.5180 O   0  0  0  0  0  0  0  0  0  0  0  0
   47.9900   31.2890   37.1670 C   0  0  0  0  0  3  0  0  0  0  0  0
   48.2510   32.3380   37.9790 C   0  0  0  0  0  0  0  0  0  0  0  0
   49.5940   32.6110   38.2190 C   0  0  0  0  0  0  0  0  0  0  0  0
   49.7320   33.4840   38.8930 H   0  0  0  0  0  0  0  0  0  0  0  0
   50.7090   31.9810   37.7600 C   0  0  0  0  0  0  0  0  0  0  0  0
   52.0240   32.1530   37.9230 N   0  0  0  0  0  0  0  0  0  0  0  0
   52.5490   31.1470   37.1610 C   0  0  0  0  0  0  0  0  0  0  0  0
   53.6340   30.9940   37.0690 H   0  0  0  0  0  0  0  0  0  0  0  0
   51.5710   30.4120   36.5750 N   0  0  0  0  0  0  0  0  0  0  0  0
   50.3860   30.9290   36.9450 C   0  0  0  0  0  0  0  0  0  0  0  0
   49.0980   30.5910   36.6560 C   0  0  0  0  0  3  0  0  0  0  0  0
   52.5010   32.8750   38.4880 H   0  0  0  0  0  0  0  0  0  0  0  0
   47.5820   35.2510   41.7960 O   0  0  0  0  0  0  0  0  0  0  0  0
   48.8510   35.5080   41.2960 C   0  0  0  0  0  0  0  0  0  0  0  0
   49.3560   36.7230   41.7290 F   0  0  0  0  0  0  0  0  0  0  0  0
   49.6850   34.4690   41.5620 F   0  0  0  0  0  0  0  0  0  0  0  0
   48.7090   35.6140   39.9170 F   0  0  0  0  0  0  0  0  0  0  0  0
  2  1  2  1  0  0  0
  2 28  1  0  0  0  0
  2  3  1  0  0  0  0
  3  6  1  0  0  0  0
  4 10  1  0  0  0  0
  4  9  1  0  0  0  0
  5  4  2  0  0  0  0
  6  5  1  0  0  0  0
  6  7  2  0  0  0  0
  7  8  1  0  0  0  0
  8  9  2  0  0  0  0
  8 12  1  0  0  0  0
 11  5  1  0  0  0  0
 13  2  1  0  0  0  0
 14 13  1  0  0  0  0
 15 14  2  0  0  0  0
 16 17  1  0  0  0  0
 17 18  2  0  0  0  0
 17 14  1  0  0  0  0
 18 19  1  0  0  0  0
 20 21  1  0  0  0  0
 20 18  1  0  0  0  0
 21 27  1  0  0  0  0
 22 21  1  0  0  0  0
 23 22  1  0  0  0  0
 24 25  1  0  0  0  0
 24 22  2  0  0  0  0
 25 20  2  0  0  0  0
 26 25  1  0  0  0  0
 26 16  2  0  0  0  0
 29 31  1  0  0  0  0
 29 30  1  0  0  0  0
 29 28  1  0  0  0  0
 32 29  1  0  0  0  0
M  END
>  <minimizedAffinity>
-5.54977608

>  <minimizedRMSD>
2.96529603

$$$$
