
 OpenBabel03242519413D

 32 34  0  0  0  0  0  0  0  0999 V2000
   48.0010   32.8870   41.7760 O   0  0  0  0  0  0  0  0  0  0  0  0
   47.1480   34.0900   41.2930 P   0  0  2  0  0  0  0  0  0  0  0  0
   45.5530   33.8970   41.8950 O   0  0  0  0  0  0  0  0  0  0  0  0
   44.3900   35.9280   44.6890 C   0  0  0  0  0  0  0  0  0  0  0  0
   44.6620   35.5130   43.3670 C   0  0  0  0  0  0  0  0  0  0  0  0
   45.2970   34.2740   43.1980 C   0  0  0  0  0  0  0  0  0  0  0  0
   45.6070   33.5550   44.2910 N   0  0  0  0  0  0  0  0  0  0  0  0
   45.3320   33.9830   45.5450 C   0  0  0  0  0  0  0  0  0  0  0  0
   44.7270   35.1590   45.7540 N   0  0  0  0  0  0  0  0  0  0  0  0
   43.9030   36.8820   44.7920 H   0  0  0  0  0  0  0  0  0  0  0  0
   44.3800   36.1470   42.5570 H   0  0  0  0  0  0  0  0  0  0  0  0
   45.6270   33.3200   46.3650 H   0  0  0  0  0  0  0  0  0  0  0  0
   47.0840   34.1190   39.6350 O   0  0  0  0  0  0  0  0  0  0  0  0
   46.5210   33.2200   38.7770 C   0  0  0  0  0  0  0  0  0  0  0  0
   46.7640   33.4000   37.4490 O   0  0  0  0  0  0  0  0  0  0  0  0
   45.9110   31.1620   37.5810 C   0  0  0  0  0  3  0  0  0  0  0  0
   45.6760   31.9880   38.6260 C   0  0  0  0  0  0  0  0  0  0  0  0
   44.6740   31.5970   39.5080 C   0  0  0  0  0  0  0  0  0  0  0  0
   44.5360   32.3200   40.3390 H   0  0  0  0  0  0  0  0  0  0  0  0
   43.8760   30.4930   39.4870 C   0  0  0  0  0  0  0  0  0  0  0  0
   42.8980   30.0230   40.2680 N   0  0  0  0  0  0  0  0  0  0  0  0
   42.5510   28.8610   39.6370 C   0  0  0  0  0  0  0  0  0  0  0  0
   41.7560   28.2070   40.0220 H   0  0  0  0  0  0  0  0  0  0  0  0
   43.3030   28.6620   38.5240 N   0  0  0  0  0  0  0  0  0  0  0  0
   44.1560   29.6940   38.4110 C   0  0  0  0  0  0  0  0  0  0  0  0
   45.1210   30.0020   37.4980 C   0  0  0  0  0  3  0  0  0  0  0  0
   42.5170   30.4500   41.1280 H   0  0  0  0  0  0  0  0  0  0  0  0
   47.8160   35.4450   41.9750 O   0  0  0  0  0  0  0  0  0  0  0  0
   49.0520   35.7600   41.4310 C   0  0  0  0  0  0  0  0  0  0  0  0
   49.4720   37.0360   41.7710 F   0  0  0  0  0  0  0  0  0  0  0  0
   49.9670   34.8060   41.7460 F   0  0  0  0  0  0  0  0  0  0  0  0
   48.8790   35.7620   40.0520 F   0  0  0  0  0  0  0  0  0  0  0  0
  2  1  2  1  0  0  0
  2  3  1  0  0  0  0
  2 28  1  0  0  0  0
  3  6  1  0  0  0  0
  4 10  1  0  0  0  0
  4  9  1  0  0  0  0
  5  4  2  0  0  0  0
  6  5  1  0  0  0  0
  6  7  2  0  0  0  0
  7  8  1  0  0  0  0
  8  9  2  0  0  0  0
  8 12  1  0  0  0  0
 11  5  1  0  0  0  0
 13  2  1  0  0  0  0
 14 13  1  0  0  0  0
 15 14  2  0  0  0  0
 16 17  1  0  0  0  0
 17 14  1  0  0  0  0
 17 18  2  0  0  0  0
 18 19  1  0  0  0  0
 20 18  1  0  0  0  0
 20 21  1  0  0  0  0
 21 27  1  0  0  0  0
 22 23  1  0  0  0  0
 22 21  1  0  0  0  0
 24 22  2  0  0  0  0
 25 24  1  0  0  0  0
 25 20  2  0  0  0  0
 26 16  2  0  0  0  0
 26 25  1  0  0  0  0
 29 31  1  0  0  0  0
 29 30  1  0  0  0  0
 29 28  1  0  0  0  0
 32 29  1  0  0  0  0
M  END
>  <minimizedAffinity>
-4.93928051

>  <minimizedRMSD>
1.52307236

$$$$
