
 OpenBabel03242519413D

 32 34  0  0  0  0  0  0  0  0999 V2000
   48.0500   32.9050   41.9350 O   0  0  0  0  0  0  0  0  0  0  0  0
   47.1980   34.0720   41.3690 P   0  0  2  0  0  0  0  0  0  0  0  0
   45.5890   33.8920   41.9380 O   0  0  0  0  0  0  0  0  0  0  0  0
   44.3660   35.9590   44.6790 C   0  0  0  0  0  0  0  0  0  0  0  0
   44.6650   35.5270   43.3680 C   0  0  0  0  0  0  0  0  0  0  0  0
   45.3070   34.2870   43.2300 C   0  0  0  0  0  0  0  0  0  0  0  0
   45.5970   33.5850   44.3400 N   0  0  0  0  0  0  0  0  0  0  0  0
   45.2950   34.0300   45.5810 C   0  0  0  0  0  0  0  0  0  0  0  0
   44.6840   35.2080   45.7610 N   0  0  0  0  0  0  0  0  0  0  0  0
   43.8740   36.9140   44.7570 H   0  0  0  0  0  0  0  0  0  0  0  0
   44.3980   36.1480   42.5440 H   0  0  0  0  0  0  0  0  0  0  0  0
   45.5750   33.3800   46.4170 H   0  0  0  0  0  0  0  0  0  0  0  0
   47.1770   34.0150   39.7110 O   0  0  0  0  0  0  0  0  0  0  0  0
   46.3530   33.3130   38.8810 C   0  0  0  0  0  0  0  0  0  0  0  0
   46.6730   33.3060   37.5560 O   0  0  0  0  0  0  0  0  0  0  0  0
   44.2500   32.6970   37.7700 C   0  0  0  0  0  3  0  0  0  0  0  0
   45.1330   32.4460   38.7610 C   0  0  0  0  0  0  0  0  0  0  0  0
   44.8480   31.3570   39.5810 C   0  0  0  0  0  0  0  0  0  0  0  0
   45.6150   31.2110   40.3710 H   0  0  0  0  0  0  0  0  0  0  0  0
   43.8010   30.4880   39.5440 C   0  0  0  0  0  0  0  0  0  0  0  0
   43.4290   29.4270   40.2660 N   0  0  0  0  0  0  0  0  0  0  0  0
   42.2670   29.0460   39.6560 C   0  0  0  0  0  0  0  0  0  0  0  0
   41.6840   28.1830   40.0060 H   0  0  0  0  0  0  0  0  0  0  0  0
   41.9710   29.8610   38.6110 N   0  0  0  0  0  0  0  0  0  0  0  0
   42.9390   30.7890   38.5230 C   0  0  0  0  0  0  0  0  0  0  0  0
   43.1420   31.8360   37.6730 C   0  0  0  0  0  3  0  0  0  0  0  0
   43.9180   29.0160   41.0790 H   0  0  0  0  0  0  0  0  0  0  0  0
   47.8330   35.4670   41.9970 O   0  0  0  0  0  0  0  0  0  0  0  0
   49.0650   35.7880   41.4440 C   0  0  0  0  0  0  0  0  0  0  0  0
   49.4830   37.0640   41.7830 F   0  0  0  0  0  0  0  0  0  0  0  0
   49.9850   34.8360   41.7500 F   0  0  0  0  0  0  0  0  0  0  0  0
   48.8800   35.7920   40.0660 F   0  0  0  0  0  0  0  0  0  0  0  0
  2  1  2  1  0  0  0
  2  3  1  0  0  0  0
  2 28  1  0  0  0  0
  3  6  1  0  0  0  0
  4 10  1  0  0  0  0
  4  9  1  0  0  0  0
  5  4  2  0  0  0  0
  6  5  1  0  0  0  0
  6  7  2  0  0  0  0
  7  8  1  0  0  0  0
  8  9  2  0  0  0  0
  8 12  1  0  0  0  0
 11  5  1  0  0  0  0
 13  2  1  0  0  0  0
 14 13  1  0  0  0  0
 15 14  2  0  0  0  0
 16 17  1  0  0  0  0
 17 14  1  0  0  0  0
 17 18  2  0  0  0  0
 18 19  1  0  0  0  0
 20 18  1  0  0  0  0
 20 21  1  0  0  0  0
 21 27  1  0  0  0  0
 22 23  1  0  0  0  0
 22 21  1  0  0  0  0
 24 22  2  0  0  0  0
 25 24  1  0  0  0  0
 25 20  2  0  0  0  0
 26 16  2  0  0  0  0
 26 25  1  0  0  0  0
 29 31  1  0  0  0  0
 29 30  1  0  0  0  0
 29 28  1  0  0  0  0
 32 29  1  0  0  0  0
M  END
>  <minimizedAffinity>
-5.07451105

>  <minimizedRMSD>
2.18420148

$$$$
