
 OpenBabel03242519413D

 32 34  0  0  0  0  0  0  0  0999 V2000
   48.0130   32.8980   41.8090 O   0  0  0  0  0  0  0  0  0  0  0  0
   47.1550   34.0890   41.3050 P   0  0  2  0  0  0  0  0  0  0  0  0
   45.5590   33.8970   41.9020 O   0  0  0  0  0  0  0  0  0  0  0  0
   44.3890   35.9290   44.6930 C   0  0  0  0  0  0  0  0  0  0  0  0
   44.6640   35.5140   43.3710 C   0  0  0  0  0  0  0  0  0  0  0  0
   45.3000   34.2750   43.2050 C   0  0  0  0  0  0  0  0  0  0  0  0
   45.6080   33.5570   44.3000 N   0  0  0  0  0  0  0  0  0  0  0  0
   45.3290   33.9860   45.5520 C   0  0  0  0  0  0  0  0  0  0  0  0
   44.7240   35.1620   45.7590 N   0  0  0  0  0  0  0  0  0  0  0  0
   43.9010   36.8840   44.7930 H   0  0  0  0  0  0  0  0  0  0  0  0
   44.3840   36.1470   42.5610 H   0  0  0  0  0  0  0  0  0  0  0  0
   45.6230   33.3240   46.3730 H   0  0  0  0  0  0  0  0  0  0  0  0
   47.0980   34.0930   39.6460 O   0  0  0  0  0  0  0  0  0  0  0  0
   46.5340   33.1840   38.8000 C   0  0  0  0  0  0  0  0  0  0  0  0
   46.7200   33.3870   37.4650 O   0  0  0  0  0  0  0  0  0  0  0  0
   46.0810   31.0230   37.7220 C   0  0  0  0  0  3  0  0  0  0  0  0
   45.7280   31.9250   38.6650 C   0  0  0  0  0  0  0  0  0  0  0  0
   44.6440   31.5840   39.4690 C   0  0  0  0  0  0  0  0  0  0  0  0
   44.4110   32.3690   40.2190 H   0  0  0  0  0  0  0  0  0  0  0  0
   43.8680   30.4660   39.4590 C   0  0  0  0  0  0  0  0  0  0  0  0
   42.8210   30.0370   40.1700 N   0  0  0  0  0  0  0  0  0  0  0  0
   42.5570   28.8220   39.6060 C   0  0  0  0  0  0  0  0  0  0  0  0
   41.7370   28.1830   39.9610 H   0  0  0  0  0  0  0  0  0  0  0  0
   43.4250   28.5490   38.5970 N   0  0  0  0  0  0  0  0  0  0  0  0
   44.2710   29.5880   38.4880 C   0  0  0  0  0  0  0  0  0  0  0  0
   45.3210   29.8420   37.6560 C   0  0  0  0  0  3  0  0  0  0  0  0
   42.3470   30.5240   40.9490 H   0  0  0  0  0  0  0  0  0  0  0  0
   47.8130   35.4570   41.9690 O   0  0  0  0  0  0  0  0  0  0  0  0
   49.0520   35.7690   41.4280 C   0  0  0  0  0  0  0  0  0  0  0  0
   49.4790   37.0400   41.7760 F   0  0  0  0  0  0  0  0  0  0  0  0
   49.9610   34.8080   41.7390 F   0  0  0  0  0  0  0  0  0  0  0  0
   48.8810   35.7800   40.0490 F   0  0  0  0  0  0  0  0  0  0  0  0
  2  1  2  1  0  0  0
  2  3  1  0  0  0  0
  2 28  1  0  0  0  0
  3  6  1  0  0  0  0
  4 10  1  0  0  0  0
  4  9  1  0  0  0  0
  5  4  2  0  0  0  0
  6  5  1  0  0  0  0
  6  7  2  0  0  0  0
  7  8  1  0  0  0  0
  8  9  2  0  0  0  0
  8 12  1  0  0  0  0
 11  5  1  0  0  0  0
 13  2  1  0  0  0  0
 14 13  1  0  0  0  0
 15 14  2  0  0  0  0
 16 17  1  0  0  0  0
 17 14  1  0  0  0  0
 17 18  2  0  0  0  0
 18 19  1  0  0  0  0
 20 18  1  0  0  0  0
 20 21  1  0  0  0  0
 21 27  1  0  0  0  0
 22 23  1  0  0  0  0
 22 21  1  0  0  0  0
 24 22  2  0  0  0  0
 25 24  1  0  0  0  0
 25 20  2  0  0  0  0
 26 16  2  0  0  0  0
 26 25  1  0  0  0  0
 29 31  1  0  0  0  0
 29 30  1  0  0  0  0
 29 28  1  0  0  0  0
 32 29  1  0  0  0  0
M  END
>  <minimizedAffinity>
-4.92760706

>  <minimizedRMSD>
1.02126849

$$$$
