
 OpenBabel03242519413D

 32 34  0  0  0  0  0  0  0  0999 V2000
   48.1560   32.7420   41.7860 O   0  0  0  0  0  0  0  0  0  0  0  0
   47.1220   33.8130   41.3470 P   0  0  2  0  0  0  0  0  0  0  0  0
   45.6180   33.4470   42.0870 O   0  0  0  0  0  0  0  0  0  0  0  0
   44.3620   35.8800   44.4930 C   0  0  0  0  0  0  0  0  0  0  0  0
   44.6650   35.2600   43.2610 C   0  0  0  0  0  0  0  0  0  0  0  0
   45.3330   34.0270   43.3070 C   0  0  0  0  0  0  0  0  0  0  0  0
   45.6430   33.5080   44.5080 N   0  0  0  0  0  0  0  0  0  0  0  0
   45.3380   34.1300   45.6690 C   0  0  0  0  0  0  0  0  0  0  0  0
   44.7020   35.3080   45.6740 N   0  0  0  0  0  0  0  0  0  0  0  0
   43.8500   36.8250   44.4300 H   0  0  0  0  0  0  0  0  0  0  0  0
   44.3800   35.7440   42.3540 H   0  0  0  0  0  0  0  0  0  0  0  0
   45.6360   33.6200   46.5910 H   0  0  0  0  0  0  0  0  0  0  0  0
   46.9200   33.7750   39.7000 O   0  0  0  0  0  0  0  0  0  0  0  0
   45.8710   33.2990   38.9700 C   0  0  0  0  0  0  0  0  0  0  0  0
   46.1720   32.6310   37.8210 O   0  0  0  0  0  0  0  0  0  0  0  0
   43.5910   34.0920   39.4320 C   0  0  0  0  0  3  0  0  0  0  0  0
   44.3800   33.1570   38.8580 C   0  0  0  0  0  0  0  0  0  0  0  0
   43.7270   32.1410   38.1660 C   0  0  0  0  0  0  0  0  0  0  0  0
   44.4370   31.4100   37.7220 H   0  0  0  0  0  0  0  0  0  0  0  0
   42.3960   31.9320   37.9710 C   0  0  0  0  0  0  0  0  0  0  0  0
   41.6700   31.0080   37.3370 N   0  0  0  0  0  0  0  0  0  0  0  0
   40.3910   31.4360   37.5580 C   0  0  0  0  0  0  0  0  0  0  0  0
   39.5210   30.8910   37.1650 H   0  0  0  0  0  0  0  0  0  0  0  0
   40.3730   32.5730   38.2990 N   0  0  0  0  0  0  0  0  0  0  0  0
   41.6470   32.9070   38.5730 C   0  0  0  0  0  0  0  0  0  0  0  0
   42.2030   33.9390   39.2710 C   0  0  0  0  0  3  0  0  0  0  0  0
   42.0130   30.1850   36.8160 H   0  0  0  0  0  0  0  0  0  0  0  0
   47.6670   35.2630   41.9350 O   0  0  0  0  0  0  0  0  0  0  0  0
   48.9070   35.6140   41.4190 C   0  0  0  0  0  0  0  0  0  0  0  0
   49.2920   36.8930   41.7870 F   0  0  0  0  0  0  0  0  0  0  0  0
   49.8360   34.6760   41.7360 F   0  0  0  0  0  0  0  0  0  0  0  0
   48.7590   35.6350   40.0370 F   0  0  0  0  0  0  0  0  0  0  0  0
  2  1  2  1  0  0  0
  2 28  1  0  0  0  0
  2  3  1  0  0  0  0
  3  6  1  0  0  0  0
  4  9  1  0  0  0  0
  5  6  1  0  0  0  0
  5  4  2  0  0  0  0
  6  7  2  0  0  0  0
  7  8  1  0  0  0  0
  8  9  2  0  0  0  0
  8 12  1  0  0  0  0
 10  4  1  0  0  0  0
 11  5  1  0  0  0  0
 13  2  1  0  0  0  0
 14 13  1  0  0  0  0
 15 14  2  0  0  0  0
 17 14  1  0  0  0  0
 17 16  2  0  0  0  0
 18 17  1  0  0  0  0
 19 18  1  0  0  0  0
 20 18  2  0  0  0  0
 20 25  1  0  0  0  0
 21 22  1  0  0  0  0
 21 20  1  0  0  0  0
 22 24  2  0  0  0  0
 23 22  1  0  0  0  0
 24 25  1  0  0  0  0
 25 26  2  0  0  0  0
 26 16  1  0  0  0  0
 27 21  1  0  0  0  0
 29 31  1  0  0  0  0
 29 30  1  0  0  0  0
 29 28  1  0  0  0  0
 32 29  1  0  0  0  0
M  END
>  <minimizedAffinity>
-5.57007885

>  <minimizedRMSD>
3.28019977

$$$$
