
 OpenBabel03242515023D

 40 43  0  0  0  0  0  0  0  0999 V2000
   38.8930   32.8250   39.8200 C   0  0  0  0  0  0  0  0  0  0  0  0
   39.6180   32.1550   38.8350 C   0  0  0  0  0  0  0  0  0  0  0  0
   40.7810   32.7740   38.3360 C   0  0  0  0  0  0  0  0  0  0  0  0
   41.1370   33.9770   38.8310 N   0  0  0  0  0  0  0  0  0  0  0  0
   40.4210   34.6010   39.7840 C   0  0  0  0  0  0  0  0  0  0  0  0
   39.3140   34.0290   40.2690 N   0  0  0  0  0  0  0  0  0  0  0  0
   39.3530   31.1870   38.4230 H   0  0  0  0  0  0  0  0  0  0  0  0
   41.3760   32.3120   37.5830 H   0  0  0  0  0  0  0  0  0  0  0  0
   40.8930   35.8880   40.3010 C   0  0  0  0  0  0  0  0  0  0  0  0
   40.4370   36.9280   39.7100 O   0  0  0  0  0  0  0  0  0  0  0  0
   41.9750   36.9400   42.4170 C   0  0  0  0  0  3  0  0  0  0  0  0
   41.8400   35.9980   41.4370 C   0  0  0  0  0  0  0  0  0  0  0  0
   42.7550   34.9380   41.4600 C   0  0  0  0  0  0  0  0  0  0  0  0
   42.7660   34.1170   40.7490 H   0  0  0  0  0  0  0  0  0  0  0  0
   43.7670   34.8020   42.4060 C   0  0  0  0  0  0  0  0  0  0  0  0
   44.7640   33.9320   42.6740 N   0  0  0  0  0  0  0  0  0  0  0  0
   45.4490   34.3490   43.7620 C   0  0  0  0  0  0  0  0  0  0  0  0
   46.3060   33.7870   44.1570 H   0  0  0  0  0  0  0  0  0  0  0  0
   44.8930   35.4990   44.2040 N   0  0  0  0  0  0  0  0  0  0  0  0
   43.8670   35.7750   43.3770 C   0  0  0  0  0  0  0  0  0  0  0  0
   42.9690   36.8200   43.3590 C   0  0  0  0  0  3  0  0  0  0  0  0
   44.9340   33.0720   42.0830 H   0  0  0  0  0  0  0  0  0  0  0  0
   37.4120   32.0070   40.4110 S   0  0  0  0  0  0  0  0  0  0  0  0
   37.6450   30.2570   40.6730 C   0  0  0  0  0  0  0  0  0  0  0  0
   38.6980   29.9970   40.4470 H   0  0  0  0  0  0  0  0  0  0  0  0
   36.9380   29.6930   39.9930 H   0  0  0  0  0  0  0  0  0  0  0  0
   37.3130   29.8040   42.0610 C   0  0  0  0  0  0  0  0  0  0  0  0
   37.2100   30.6890   42.7600 H   0  0  0  0  0  0  0  0  0  0  0  0
   36.3420   29.2750   42.1080 H   0  0  0  0  0  0  0  0  0  0  0  0
   36.4230   27.2850   43.5540 Cl  0  0  0  0  0  0  0  0  0  0  0  0
   38.0760   27.7350   43.3060 C   0  0  0  0  0  0  0  0  0  0  0  0
   38.3560   28.9160   42.6100 C   0  0  0  0  0  0  0  0  0  0  0  0
   39.7010   29.2150   42.4550 C   0  0  0  0  0  0  0  0  0  0  0  0
   40.7820   28.4740   42.9100 C   0  0  0  0  0  0  0  0  0  0  0  0
   40.4630   27.3100   43.5930 C   0  0  0  0  0  0  0  0  0  0  0  0
   41.7470   26.2800   44.2240 Cl  0  0  0  0  0  0  0  0  0  0  0  0
   39.1370   26.9590   43.7820 C   0  0  0  0  0  0  0  0  0  0  0  0
   39.9560   30.1270   41.9190 H   0  0  0  0  0  0  0  0  0  0  0  0
   41.7910   28.7890   42.7420 H   0  0  0  0  0  0  0  0  0  0  0  0
   38.8500   26.0590   44.3090 H   0  0  0  0  0  0  0  0  0  0  0  0
  1  6  1  0  0  0  0
  1 23  1  0  0  0  0
  2  1  2  0  0  0  0
  3  4  2  0  0  0  0
  3  2  1  0  0  0  0
  4  5  1  0  0  0  0
  5  6  2  0  0  0  0
  5  9  1  0  0  0  0
  7  2  1  0  0  0  0
  8  3  1  0  0  0  0
  9 12  1  0  0  0  0
 10  9  2  0  0  0  0
 11 21  1  0  0  0  0
 12 13  1  0  0  0  0
 12 11  2  0  0  0  0
 13 15  2  0  0  0  0
 14 13  1  0  0  0  0
 15 16  1  0  0  0  0
 15 20  1  0  0  0  0
 16 17  1  0  0  0  0
 17 18  1  0  0  0  0
 17 19  2  0  0  0  0
 20 19  1  0  0  0  0
 21 20  2  0  0  0  0
 22 16  1  0  0  0  0
 23 24  1  0  0  0  0
 24 27  1  0  0  0  0
 25 24  1  0  0  0  0
 26 24  1  0  0  0  0
 27 29  1  0  0  0  0
 27 32  1  0  0  0  0
 27 28  1  0  0  0  0
 31 30  1  0  0  0  0
 31 37  1  0  0  0  0
 32 31  2  0  0  0  0
 33 32  1  0  0  0  0
 33 34  2  0  0  0  0
 34 35  1  0  0  0  0
 35 37  2  0  0  0  0
 35 36  1  0  0  0  0
 37 40  1  0  0  0  0
 38 33  1  0  0  0  0
 39 34  1  0  0  0  0
M  END
>  <minimizedAffinity>
-7.25346661

$$$$

 OpenBabel03242515023D

 40 43  0  0  0  0  0  0  0  0999 V2000
   39.0030   31.4140   41.1870 C   0  0  0  0  0  0  0  0  0  0  0  0
   37.7270   31.6800   40.6920 C   0  0  0  0  0  0  0  0  0  0  0  0
   37.5450   32.8540   39.9350 C   0  0  0  0  0  0  0  0  0  0  0  0
   38.6060   33.6600   39.7250 N   0  0  0  0  0  0  0  0  0  0  0  0
   39.8270   33.3780   40.2120 C   0  0  0  0  0  0  0  0  0  0  0  0
   40.0190   32.2690   40.9330 N   0  0  0  0  0  0  0  0  0  0  0  0
   36.8600   31.0470   40.8460 H   0  0  0  0  0  0  0  0  0  0  0  0
   36.5940   33.1120   39.5310 H   0  0  0  0  0  0  0  0  0  0  0  0
   40.9400   34.2820   39.9080 C   0  0  0  0  0  0  0  0  0  0  0  0
   41.3190   34.3110   38.6850 O   0  0  0  0  0  0  0  0  0  0  0  0
   41.2860   36.3490   41.4450 C   0  0  0  0  0  3  0  0  0  0  0  0
   41.5980   35.1200   40.9390 C   0  0  0  0  0  0  0  0  0  0  0  0
   42.7550   34.5130   41.4460 C   0  0  0  0  0  0  0  0  0  0  0  0
   43.1230   33.5370   41.1420 H   0  0  0  0  0  0  0  0  0  0  0  0
   43.5780   35.0860   42.4110 C   0  0  0  0  0  0  0  0  0  0  0  0
   44.7150   34.7640   43.0640 N   0  0  0  0  0  0  0  0  0  0  0  0
   45.0490   35.7620   43.9110 C   0  0  0  0  0  0  0  0  0  0  0  0
   45.9440   35.7080   44.5460 H   0  0  0  0  0  0  0  0  0  0  0  0
   44.1230   36.7420   43.8070 N   0  0  0  0  0  0  0  0  0  0  0  0
   43.2260   36.3290   42.8920 C   0  0  0  0  0  0  0  0  0  0  0  0
   42.0890   36.9300   42.3980 C   0  0  0  0  0  3  0  0  0  0  0  0
   45.2230   33.8520   42.8930 H   0  0  0  0  0  0  0  0  0  0  0  0
   39.1830   29.9180   42.1580 S   0  0  0  0  0  0  0  0  0  0  0  0
   37.6200   29.2650   42.7200 C   0  0  0  0  0  0  0  0  0  0  0  0
   37.0310   28.9360   41.8400 H   0  0  0  0  0  0  0  0  0  0  0  0
   37.0720   30.0770   43.2870 H   0  0  0  0  0  0  0  0  0  0  0  0
   37.7510   28.1230   43.6790 C   0  0  0  0  0  0  0  0  0  0  0  0
   38.6260   28.2840   44.3790 H   0  0  0  0  0  0  0  0  0  0  0  0
   36.8630   28.0210   44.3320 H   0  0  0  0  0  0  0  0  0  0  0  0
   40.4350   26.7040   44.0630 Cl  0  0  0  0  0  0  0  0  0  0  0  0
   39.1460   26.0970   43.0780 C   0  0  0  0  0  0  0  0  0  0  0  0
   37.9660   26.8420   42.9780 C   0  0  0  0  0  0  0  0  0  0  0  0
   36.9820   26.2980   42.1680 C   0  0  0  0  0  0  0  0  0  0  0  0
   37.0430   25.1080   41.4590 C   0  0  0  0  0  0  0  0  0  0  0  0
   38.2280   24.3980   41.5850 C   0  0  0  0  0  0  0  0  0  0  0  0
   38.4330   22.8690   40.7320 Cl  0  0  0  0  0  0  0  0  0  0  0  0
   39.2490   24.8920   42.3780 C   0  0  0  0  0  0  0  0  0  0  0  0
   36.0490   26.8510   42.0670 H   0  0  0  0  0  0  0  0  0  0  0  0
   36.2260   24.7680   40.8550 H   0  0  0  0  0  0  0  0  0  0  0  0
   40.1870   24.3660   42.5010 H   0  0  0  0  0  0  0  0  0  0  0  0
  1 23  1  0  0  0  0
  2  7  1  0  0  0  0
  2  1  2  0  0  0  0
  3  2  1  0  0  0  0
  4  3  2  0  0  0  0
  4  5  1  0  0  0  0
  5  6  2  0  0  0  0
  6  1  1  0  0  0  0
  8  3  1  0  0  0  0
  9  5  1  0  0  0  0
  9 12  1  0  0  0  0
 10  9  2  0  0  0  0
 11 21  1  0  0  0  0
 12 11  2  0  0  0  0
 12 13  1  0  0  0  0
 13 15  2  0  0  0  0
 14 13  1  0  0  0  0
 15 20  1  0  0  0  0
 15 16  1  0  0  0  0
 16 17  1  0  0  0  0
 17 18  1  0  0  0  0
 19 17  2  0  0  0  0
 20 19  1  0  0  0  0
 21 20  2  0  0  0  0
 22 16  1  0  0  0  0
 23 24  1  0  0  0  0
 24 26  1  0  0  0  0
 24 27  1  0  0  0  0
 25 24  1  0  0  0  0
 27 29  1  0  0  0  0
 27 28  1  0  0  0  0
 31 30  1  0  0  0  0
 32 31  1  0  0  0  0
 32 27  1  0  0  0  0
 33 32  2  0  0  0  0
 34 35  2  0  0  0  0
 34 33  1  0  0  0  0
 35 37  1  0  0  0  0
 36 35  1  0  0  0  0
 37 40  1  0  0  0  0
 37 31  2  0  0  0  0
 38 33  1  0  0  0  0
 39 34  1  0  0  0  0
M  END
>  <minimizedAffinity>
-7.25322485

$$$$

 OpenBabel03242515023D

 40 43  0  0  0  0  0  0  0  0999 V2000
   39.1810   31.9180   40.5310 C   0  0  0  0  0  0  0  0  0  0  0  0
   37.8800   32.3670   40.3070 C   0  0  0  0  0  0  0  0  0  0  0  0
   37.6970   33.7290   39.9970 C   0  0  0  0  0  0  0  0  0  0  0  0
   38.7800   34.5290   39.9320 N   0  0  0  0  0  0  0  0  0  0  0  0
   40.0250   34.0700   40.1490 C   0  0  0  0  0  0  0  0  0  0  0  0
   40.2190   32.7810   40.4450 N   0  0  0  0  0  0  0  0  0  0  0  0
   36.9950   31.7420   40.3520 H   0  0  0  0  0  0  0  0  0  0  0  0
   36.7280   34.1320   39.8170 H   0  0  0  0  0  0  0  0  0  0  0  0
   41.1570   34.9920   40.0210 C   0  0  0  0  0  0  0  0  0  0  0  0
   41.5050   35.2860   38.8240 O   0  0  0  0  0  0  0  0  0  0  0  0
   41.6460   36.6940   41.9240 C   0  0  0  0  0  3  0  0  0  0  0  0
   41.8650   35.5620   41.1930 C   0  0  0  0  0  0  0  0  0  0  0  0
   42.9620   34.7760   41.5730 C   0  0  0  0  0  0  0  0  0  0  0  0
   43.2540   33.8500   41.0890 H   0  0  0  0  0  0  0  0  0  0  0  0
   43.8140   35.0860   42.6290 C   0  0  0  0  0  0  0  0  0  0  0  0
   44.9110   34.5530   43.2080 N   0  0  0  0  0  0  0  0  0  0  0  0
   45.3120   35.3410   44.2290 C   0  0  0  0  0  0  0  0  0  0  0  0
   46.1910   35.0930   44.8410 H   0  0  0  0  0  0  0  0  0  0  0  0
   44.4710   36.3950   44.3150 N   0  0  0  0  0  0  0  0  0  0  0  0
   43.5560   36.2390   43.3390 C   0  0  0  0  0  0  0  0  0  0  0  0
   42.4790   37.0150   42.9690 C   0  0  0  0  0  3  0  0  0  0  0  0
   45.3460   33.6520   42.8650 H   0  0  0  0  0  0  0  0  0  0  0  0
   39.3640   30.1820   40.9380 S   0  0  0  0  0  0  0  0  0  0  0  0
   39.3670   29.8810   42.6980 C   0  0  0  0  0  0  0  0  0  0  0  0
   39.4910   30.8460   43.2280 H   0  0  0  0  0  0  0  0  0  0  0  0
   40.2200   29.1780   42.9420 H   0  0  0  0  0  0  0  0  0  0  0  0
   38.1300   29.2000   43.1970 C   0  0  0  0  0  0  0  0  0  0  0  0
   38.1160   29.1710   44.3280 H   0  0  0  0  0  0  0  0  0  0  0  0
   37.2090   29.7370   42.9020 H   0  0  0  0  0  0  0  0  0  0  0  0
   35.8580   28.4960   41.2710 Cl  0  0  0  0  0  0  0  0  0  0  0  0
   37.0500   27.3670   41.8240 C   0  0  0  0  0  0  0  0  0  0  0  0
   38.0370   27.8100   42.7100 C   0  0  0  0  0  0  0  0  0  0  0  0
   38.9520   26.8500   43.1130 C   0  0  0  0  0  0  0  0  0  0  0  0
   38.9910   25.5160   42.7350 C   0  0  0  0  0  0  0  0  0  0  0  0
   37.9960   25.1170   41.8550 C   0  0  0  0  0  0  0  0  0  0  0  0
   37.9330   23.4460   41.2980 Cl  0  0  0  0  0  0  0  0  0  0  0  0
   37.0520   26.0300   41.4170 C   0  0  0  0  0  0  0  0  0  0  0  0
   39.7360   27.1590   43.8040 H   0  0  0  0  0  0  0  0  0  0  0  0
   39.7410   24.8470   43.1030 H   0  0  0  0  0  0  0  0  0  0  0  0
   36.2610   25.7550   40.7310 H   0  0  0  0  0  0  0  0  0  0  0  0
  1 23  1  0  0  0  0
  2  7  1  0  0  0  0
  2  1  2  0  0  0  0
  3  2  1  0  0  0  0
  4  3  2  0  0  0  0
  4  5  1  0  0  0  0
  5  6  2  0  0  0  0
  6  1  1  0  0  0  0
  8  3  1  0  0  0  0
  9  5  1  0  0  0  0
  9 12  1  0  0  0  0
 10  9  2  0  0  0  0
 11 21  1  0  0  0  0
 12 13  1  0  0  0  0
 12 11  2  0  0  0  0
 13 15  2  0  0  0  0
 14 13  1  0  0  0  0
 15 16  1  0  0  0  0
 15 20  1  0  0  0  0
 16 17  1  0  0  0  0
 17 19  2  0  0  0  0
 17 18  1  0  0  0  0
 20 19  1  0  0  0  0
 21 20  2  0  0  0  0
 22 16  1  0  0  0  0
 23 24  1  0  0  0  0
 24 26  1  0  0  0  0
 24 27  1  0  0  0  0
 24 25  1  0  0  0  0
 27 28  1  0  0  0  0
 29 27  1  0  0  0  0
 30 31  1  0  0  0  0
 31 32  1  0  0  0  0
 32 33  2  0  0  0  0
 32 27  1  0  0  0  0
 33 38  1  0  0  0  0
 34 39  1  0  0  0  0
 34 33  1  0  0  0  0
 35 34  2  0  0  0  0
 36 35  1  0  0  0  0
 37 31  2  0  0  0  0
 37 35  1  0  0  0  0
 40 37  1  0  0  0  0
M  END
>  <minimizedAffinity>
-7.22371817

$$$$

 OpenBabel03242515023D

 40 43  0  0  0  0  0  0  0  0999 V2000
   39.1940   33.4020   40.3970 C   0  0  0  0  0  0  0  0  0  0  0  0
   38.5010   34.5950   40.1930 C   0  0  0  0  0  0  0  0  0  0  0  0
   39.2540   35.7630   39.9610 C   0  0  0  0  0  0  0  0  0  0  0  0
   40.5990   35.6740   39.9490 N   0  0  0  0  0  0  0  0  0  0  0  0
   41.2430   34.5100   40.1460 C   0  0  0  0  0  0  0  0  0  0  0  0
   40.5460   33.3910   40.3670 N   0  0  0  0  0  0  0  0  0  0  0  0
   37.4210   34.6900   40.1960 H   0  0  0  0  0  0  0  0  0  0  0  0
   38.7820   36.7040   39.7990 H   0  0  0  0  0  0  0  0  0  0  0  0
   42.7070   34.4850   40.0780 C   0  0  0  0  0  0  0  0  0  0  0  0
   43.2070   34.0810   38.9700 O   0  0  0  0  0  0  0  0  0  0  0  0
   44.8890   34.6650   41.4780 C   0  0  0  0  0  3  0  0  0  0  0  0
   43.5700   34.9000   41.2090 C   0  0  0  0  0  0  0  0  0  0  0  0
   42.8630   35.6470   42.1600 C   0  0  0  0  0  0  0  0  0  0  0  0
   41.8140   35.9150   42.0780 H   0  0  0  0  0  0  0  0  0  0  0  0
   43.4230   36.1470   43.3320 C   0  0  0  0  0  0  0  0  0  0  0  0
   43.0140   36.8660   44.4000 N   0  0  0  0  0  0  0  0  0  0  0  0
   44.0470   37.0410   45.2510 C   0  0  0  0  0  0  0  0  0  0  0  0
   43.9360   37.6000   46.1900 H   0  0  0  0  0  0  0  0  0  0  0  0
   45.1370   36.4300   44.7350 N   0  0  0  0  0  0  0  0  0  0  0  0
   44.7560   35.8860   43.5640 C   0  0  0  0  0  0  0  0  0  0  0  0
   45.4560   35.1510   42.6320 C   0  0  0  0  0  3  0  0  0  0  0  0
   42.0180   37.2100   44.4970 H   0  0  0  0  0  0  0  0  0  0  0  0
   38.1960   31.9450   40.7040 S   0  0  0  0  0  0  0  0  0  0  0  0
   39.1620   30.5440   41.2430 C   0  0  0  0  0  0  0  0  0  0  0  0
   40.2360   30.8150   41.2080 H   0  0  0  0  0  0  0  0  0  0  0  0
   38.9460   29.6720   40.5560 H   0  0  0  0  0  0  0  0  0  0  0  0
   38.8180   30.0660   42.6190 C   0  0  0  0  0  0  0  0  0  0  0  0
   39.4830   30.5560   43.3930 H   0  0  0  0  0  0  0  0  0  0  0  0
   37.7830   30.3300   42.9080 H   0  0  0  0  0  0  0  0  0  0  0  0
   36.4250   28.2830   41.9420 Cl  0  0  0  0  0  0  0  0  0  0  0  0
   37.9650   27.6870   42.4600 C   0  0  0  0  0  0  0  0  0  0  0  0
   38.9820   28.6050   42.7470 C   0  0  0  0  0  0  0  0  0  0  0  0
   40.1850   28.0550   43.1620 C   0  0  0  0  0  0  0  0  0  0  0  0
   40.4810   26.7090   43.3190 C   0  0  0  0  0  0  0  0  0  0  0  0
   39.4480   25.8320   43.0250 C   0  0  0  0  0  0  0  0  0  0  0  0
   39.6970   24.0940   43.1860 Cl  0  0  0  0  0  0  0  0  0  0  0  0
   38.2230   26.3210   42.6070 C   0  0  0  0  0  0  0  0  0  0  0  0
   40.9990   28.7400   43.3930 H   0  0  0  0  0  0  0  0  0  0  0  0
   41.4450   26.3790   43.6480 H   0  0  0  0  0  0  0  0  0  0  0  0
   37.3940   25.6670   42.3680 H   0  0  0  0  0  0  0  0  0  0  0  0
  1 23  1  0  0  0  0
  2  7  1  0  0  0  0
  2  1  2  0  0  0  0
  3  2  1  0  0  0  0
  4  3  2  0  0  0  0
  4  5  1  0  0  0  0
  5  6  2  0  0  0  0
  6  1  1  0  0  0  0
  8  3  1  0  0  0  0
  9  5  1  0  0  0  0
  9 12  1  0  0  0  0
 10  9  2  0  0  0  0
 11 21  1  0  0  0  0
 12 11  2  0  0  0  0
 12 13  1  0  0  0  0
 13 15  2  0  0  0  0
 14 13  1  0  0  0  0
 15 20  1  0  0  0  0
 15 16  1  0  0  0  0
 16 22  1  0  0  0  0
 16 17  1  0  0  0  0
 17 18  1  0  0  0  0
 19 17  2  0  0  0  0
 20 19  1  0  0  0  0
 21 20  2  0  0  0  0
 23 24  1  0  0  0  0
 24 27  1  0  0  0  0
 25 24  1  0  0  0  0
 26 24  1  0  0  0  0
 27 32  1  0  0  0  0
 27 29  1  0  0  0  0
 27 28  1  0  0  0  0
 30 31  1  0  0  0  0
 31 37  2  0  0  0  0
 31 32  1  0  0  0  0
 32 33  2  0  0  0  0
 33 34  1  0  0  0  0
 33 38  1  0  0  0  0
 34 39  1  0  0  0  0
 35 36  1  0  0  0  0
 35 34  2  0  0  0  0
 37 35  1  0  0  0  0
 40 37  1  0  0  0  0
M  END
>  <minimizedAffinity>
-7.13664913

$$$$

 OpenBabel03242515023D

 40 43  0  0  0  0  0  0  0  0999 V2000
   38.6130   30.7960   38.4590 C   0  0  0  0  0  0  0  0  0  0  0  0
   37.4410   31.2440   39.0670 C   0  0  0  0  0  0  0  0  0  0  0  0
   37.4530   32.5210   39.6610 C   0  0  0  0  0  0  0  0  0  0  0  0
   38.5890   33.2460   39.6150 N   0  0  0  0  0  0  0  0  0  0  0  0
   39.7060   32.7910   39.0200 C   0  0  0  0  0  0  0  0  0  0  0  0
   39.7140   31.5810   38.4510 N   0  0  0  0  0  0  0  0  0  0  0  0
   36.5150   30.6810   39.1140 H   0  0  0  0  0  0  0  0  0  0  0  0
   36.5890   32.9180   40.1410 H   0  0  0  0  0  0  0  0  0  0  0  0
   40.8910   33.6530   38.9760 C   0  0  0  0  0  0  0  0  0  0  0  0
   41.7150   33.4200   38.0230 O   0  0  0  0  0  0  0  0  0  0  0  0
   40.5470   35.9520   40.1380 C   0  0  0  0  0  3  0  0  0  0  0  0
   41.1360   34.7320   39.9620 C   0  0  0  0  0  0  0  0  0  0  0  0
   42.1800   34.4100   40.8400 C   0  0  0  0  0  0  0  0  0  0  0  0
   42.7350   33.4780   40.8220 H   0  0  0  0  0  0  0  0  0  0  0  0
   42.6330   35.2510   41.8530 C   0  0  0  0  0  0  0  0  0  0  0  0
   43.5820   35.2250   42.8130 N   0  0  0  0  0  0  0  0  0  0  0  0
   43.5470   36.3780   43.5150 C   0  0  0  0  0  0  0  0  0  0  0  0
   44.2370   36.5700   44.3480 H   0  0  0  0  0  0  0  0  0  0  0  0
   42.5690   37.1610   43.0080 N   0  0  0  0  0  0  0  0  0  0  0  0
   42.0110   36.4720   41.9940 C   0  0  0  0  0  0  0  0  0  0  0  0
   40.9830   36.7930   41.1340 C   0  0  0  0  0  3  0  0  0  0  0  0
   44.2270   34.3970   42.9440 H   0  0  0  0  0  0  0  0  0  0  0  0
   38.5550   29.1590   37.7310 S   0  0  0  0  0  0  0  0  0  0  0  0
   37.8980   27.9290   38.8440 C   0  0  0  0  0  0  0  0  0  0  0  0
   37.5890   27.0410   38.2570 H   0  0  0  0  0  0  0  0  0  0  0  0
   37.0140   28.3740   39.3920 H   0  0  0  0  0  0  0  0  0  0  0  0
   38.8590   27.5040   39.9110 C   0  0  0  0  0  0  0  0  0  0  0  0
   39.1120   26.4050   39.8100 H   0  0  0  0  0  0  0  0  0  0  0  0
   39.8250   28.0390   39.8420 H   0  0  0  0  0  0  0  0  0  0  0  0
   39.9220   29.8530   41.5590 Cl  0  0  0  0  0  0  0  0  0  0  0  0
   38.7020   28.7540   42.1080 C   0  0  0  0  0  0  0  0  0  0  0  0
   38.3020   27.7130   41.2620 C   0  0  0  0  0  0  0  0  0  0  0  0
   37.3270   26.8700   41.7710 C   0  0  0  0  0  0  0  0  0  0  0  0
   36.7130   26.9500   43.0120 C   0  0  0  0  0  0  0  0  0  0  0  0
   37.1360   27.9950   43.8200 C   0  0  0  0  0  0  0  0  0  0  0  0
   36.4350   28.2060   45.4230 Cl  0  0  0  0  0  0  0  0  0  0  0  0
   38.1090   28.8700   43.3680 C   0  0  0  0  0  0  0  0  0  0  0  0
   36.9910   26.0490   41.1390 H   0  0  0  0  0  0  0  0  0  0  0  0
   35.9660   26.2470   43.3180 H   0  0  0  0  0  0  0  0  0  0  0  0
   38.4630   29.6970   43.9700 H   0  0  0  0  0  0  0  0  0  0  0  0
  1  2  1  0  0  0  0
  2  7  1  0  0  0  0
  2  3  2  0  0  0  0
  3  8  1  0  0  0  0
  4  3  1  0  0  0  0
  5  4  2  0  0  0  0
  6  1  2  0  0  0  0
  6  5  1  0  0  0  0
  9  5  1  0  0  0  0
  9 12  1  0  0  0  0
 10  9  2  0  0  0  0
 11 21  1  0  0  0  0
 12 11  2  0  0  0  0
 12 13  1  0  0  0  0
 13 15  2  0  0  0  0
 14 13  1  0  0  0  0
 15 20  1  0  0  0  0
 15 16  1  0  0  0  0
 16 22  1  0  0  0  0
 16 17  1  0  0  0  0
 17 18  1  0  0  0  0
 19 17  2  0  0  0  0
 20 19  1  0  0  0  0
 21 20  2  0  0  0  0
 23  1  1  0  0  0  0
 23 24  1  0  0  0  0
 24 26  1  0  0  0  0
 24 27  1  0  0  0  0
 25 24  1  0  0  0  0
 27 32  1  0  0  0  0
 28 27  1  0  0  0  0
 29 27  1  0  0  0  0
 30 31  1  0  0  0  0
 31 37  1  0  0  0  0
 32 33  1  0  0  0  0
 32 31  2  0  0  0  0
 33 34  2  0  0  0  0
 34 39  1  0  0  0  0
 34 35  1  0  0  0  0
 35 36  1  0  0  0  0
 37 35  2  0  0  0  0
 37 40  1  0  0  0  0
 38 33  1  0  0  0  0
M  END
>  <minimizedAffinity>
-7.08399582

$$$$

 OpenBabel03242515023D

 40 43  0  0  0  0  0  0  0  0999 V2000
   37.9230   31.5920   40.9700 C   0  0  0  0  0  0  0  0  0  0  0  0
   36.8150   31.5540   40.1240 C   0  0  0  0  0  0  0  0  0  0  0  0
   35.9810   30.4210   40.1800 C   0  0  0  0  0  0  0  0  0  0  0  0
   36.2900   29.4320   41.0420 N   0  0  0  0  0  0  0  0  0  0  0  0
   37.3630   29.4940   41.8500 C   0  0  0  0  0  0  0  0  0  0  0  0
   38.1670   30.5620   41.8110 N   0  0  0  0  0  0  0  0  0  0  0  0
   36.5460   32.3380   39.4240 H   0  0  0  0  0  0  0  0  0  0  0  0
   35.1210   30.3340   39.5580 H   0  0  0  0  0  0  0  0  0  0  0  0
   37.6110   28.3980   42.7900 C   0  0  0  0  0  0  0  0  0  0  0  0
   37.3370   28.6420   44.0180 O   0  0  0  0  0  0  0  0  0  0  0  0
   39.4110   26.5690   42.3750 C   0  0  0  0  0  3  0  0  0  0  0  0
   38.1450   27.0810   42.3650 C   0  0  0  0  0  0  0  0  0  0  0  0
   37.1400   26.2520   41.8490 C   0  0  0  0  0  0  0  0  0  0  0  0
   36.0910   26.5230   41.7830 H   0  0  0  0  0  0  0  0  0  0  0  0
   37.3640   24.9690   41.3590 C   0  0  0  0  0  0  0  0  0  0  0  0
   36.6330   23.9730   40.8140 N   0  0  0  0  0  0  0  0  0  0  0  0
   37.4370   22.9290   40.5200 C   0  0  0  0  0  0  0  0  0  0  0  0
   37.0470   22.0070   40.0670 H   0  0  0  0  0  0  0  0  0  0  0  0
   38.7020   23.2470   40.8750 N   0  0  0  0  0  0  0  0  0  0  0  0
   38.6560   24.4920   41.3870 C   0  0  0  0  0  0  0  0  0  0  0  0
   39.6480   25.3030   41.8940 C   0  0  0  0  0  3  0  0  0  0  0  0
   35.5890   24.0590   40.6650 H   0  0  0  0  0  0  0  0  0  0  0  0
   38.9650   33.0460   40.8520 S   0  0  0  0  0  0  0  0  0  0  0  0
   40.3010   32.8470   39.6850 C   0  0  0  0  0  0  0  0  0  0  0  0
   39.9300   32.2800   38.8080 H   0  0  0  0  0  0  0  0  0  0  0  0
   41.1450   32.2910   40.1930 H   0  0  0  0  0  0  0  0  0  0  0  0
   40.8950   34.1410   39.2200 C   0  0  0  0  0  0  0  0  0  0  0  0
   41.6970   33.9580   38.4420 H   0  0  0  0  0  0  0  0  0  0  0  0
   40.1470   34.7920   38.7280 H   0  0  0  0  0  0  0  0  0  0  0  0
   39.6190   36.7970   40.0460 Cl  0  0  0  0  0  0  0  0  0  0  0  0
   41.0160   36.1120   40.8060 C   0  0  0  0  0  0  0  0  0  0  0  0
   41.5090   34.8910   40.3320 C   0  0  0  0  0  0  0  0  0  0  0  0
   42.6320   34.4070   40.9850 C   0  0  0  0  0  0  0  0  0  0  0  0
   43.3070   34.9970   42.0430 C   0  0  0  0  0  0  0  0  0  0  0  0
   42.7870   36.2050   42.4830 C   0  0  0  0  0  0  0  0  0  0  0  0
   43.5540   37.0590   43.8210 Cl  0  0  0  0  0  0  0  0  0  0  0  0
   41.6670   36.7410   41.8700 C   0  0  0  0  0  0  0  0  0  0  0  0
   43.0440   33.4580   40.6430 H   0  0  0  0  0  0  0  0  0  0  0  0
   44.1720   34.5450   42.4830 H   0  0  0  0  0  0  0  0  0  0  0  0
   41.2320   37.6800   42.1860 H   0  0  0  0  0  0  0  0  0  0  0  0
  1  6  1  0  0  0  0
  2  3  1  0  0  0  0
  2  1  2  0  0  0  0
  3  4  2  0  0  0  0
  4  5  1  0  0  0  0
  5  9  1  0  0  0  0
  6  5  2  0  0  0  0
  7  2  1  0  0  0  0
  8  3  1  0  0  0  0
  9 10  2  0  0  0  0
 12 11  1  0  0  0  0
 12  9  1  0  0  0  0
 13 12  2  0  0  0  0
 14 13  1  0  0  0  0
 15 20  2  0  0  0  0
 15 13  1  0  0  0  0
 16 15  1  0  0  0  0
 17 16  1  0  0  0  0
 17 19  2  0  0  0  0
 18 17  1  0  0  0  0
 19 20  1  0  0  0  0
 20 21  1  0  0  0  0
 21 11  2  0  0  0  0
 22 16  1  0  0  0  0
 23  1  1  0  0  0  0
 24 26  1  0  0  0  0
 24 23  1  0  0  0  0
 25 24  1  0  0  0  0
 27 24  1  0  0  0  0
 27 32  1  0  0  0  0
 28 27  1  0  0  0  0
 29 27  1  0  0  0  0
 30 31  1  0  0  0  0
 31 37  1  0  0  0  0
 32 31  2  0  0  0  0
 32 33  1  0  0  0  0
 33 34  2  0  0  0  0
 34 35  1  0  0  0  0
 34 39  1  0  0  0  0
 35 36  1  0  0  0  0
 37 40  1  0  0  0  0
 37 35  2  0  0  0  0
 38 33  1  0  0  0  0
M  END
>  <minimizedAffinity>
-6.96235991

$$$$

 OpenBabel03242515023D

 40 43  0  0  0  0  0  0  0  0999 V2000
   39.8050   32.4480   39.4650 C   0  0  0  0  0  0  0  0  0  0  0  0
   38.4250   32.5520   39.6330 C   0  0  0  0  0  0  0  0  0  0  0  0
   37.9010   33.7970   40.0300 C   0  0  0  0  0  0  0  0  0  0  0  0
   38.7520   34.8240   40.2280 N   0  0  0  0  0  0  0  0  0  0  0  0
   40.0800   34.6980   40.0550 C   0  0  0  0  0  0  0  0  0  0  0  0
   40.5950   33.5230   39.6790 N   0  0  0  0  0  0  0  0  0  0  0  0
   37.7210   31.7410   39.4780 H   0  0  0  0  0  0  0  0  0  0  0  0
   36.8550   33.9390   40.1770 H   0  0  0  0  0  0  0  0  0  0  0  0
   40.9380   35.8700   40.2490 C   0  0  0  0  0  0  0  0  0  0  0  0
   40.8600   36.7750   39.3460 O   0  0  0  0  0  0  0  0  0  0  0  0
   41.8810   36.9350   42.4250 C   0  0  0  0  0  3  0  0  0  0  0  0
   41.8440   36.0170   41.4140 C   0  0  0  0  0  0  0  0  0  0  0  0
   42.8380   35.0300   41.4300 C   0  0  0  0  0  0  0  0  0  0  0  0
   42.9300   34.2360   40.6960 H   0  0  0  0  0  0  0  0  0  0  0  0
   43.8340   34.9420   42.3990 C   0  0  0  0  0  0  0  0  0  0  0  0
   44.8890   34.1440   42.6680 N   0  0  0  0  0  0  0  0  0  0  0  0
   45.5120   34.5770   43.7860 C   0  0  0  0  0  0  0  0  0  0  0  0
   46.4000   34.0710   44.1870 H   0  0  0  0  0  0  0  0  0  0  0  0
   44.8580   35.6670   44.2460 N   0  0  0  0  0  0  0  0  0  0  0  0
   43.8340   35.8890   43.4000 C   0  0  0  0  0  0  0  0  0  0  0  0
   42.8580   36.8620   43.3890 C   0  0  0  0  0  3  0  0  0  0  0  0
   45.1400   33.3190   42.0560 H   0  0  0  0  0  0  0  0  0  0  0  0
   40.4270   30.8400   38.9750 S   0  0  0  0  0  0  0  0  0  0  0  0
   41.3260   30.0180   40.2800 C   0  0  0  0  0  0  0  0  0  0  0  0
   42.4110   30.1970   40.1370 H   0  0  0  0  0  0  0  0  0  0  0  0
   41.0930   28.9120   40.2370 H   0  0  0  0  0  0  0  0  0  0  0  0
   40.9320   30.4590   41.6560 C   0  0  0  0  0  0  0  0  0  0  0  0
   41.8050   30.3720   42.3710 H   0  0  0  0  0  0  0  0  0  0  0  0
   40.6300   31.5230   41.6840 H   0  0  0  0  0  0  0  0  0  0  0  0
   41.6340   27.8580   43.1080 Cl  0  0  0  0  0  0  0  0  0  0  0  0
   40.0190   28.4400   42.8820 C   0  0  0  0  0  0  0  0  0  0  0  0
   39.8260   29.6430   42.1950 C   0  0  0  0  0  0  0  0  0  0  0  0
   38.5070   30.0430   42.0470 C   0  0  0  0  0  0  0  0  0  0  0  0
   37.3750   29.3850   42.5040 C   0  0  0  0  0  0  0  0  0  0  0  0
   37.6080   28.1970   43.1800 C   0  0  0  0  0  0  0  0  0  0  0  0
   36.2530   27.2630   43.8110 Cl  0  0  0  0  0  0  0  0  0  0  0  0
   38.9040   27.7440   43.3590 C   0  0  0  0  0  0  0  0  0  0  0  0
   38.3190   30.9760   41.5170 H   0  0  0  0  0  0  0  0  0  0  0  0
   36.3910   29.7740   42.3390 H   0  0  0  0  0  0  0  0  0  0  0  0
   39.1250   26.8230   43.8810 H   0  0  0  0  0  0  0  0  0  0  0  0
  1  2  2  0  0  0  0
  1  6  1  0  0  0  0
  2  3  1  0  0  0  0
  3  8  1  0  0  0  0
  3  4  2  0  0  0  0
  5  4  1  0  0  0  0
  5  9  1  0  0  0  0
  6  5  2  0  0  0  0
  7  2  1  0  0  0  0
  9 12  1  0  0  0  0
 10  9  2  0  0  0  0
 11 21  1  0  0  0  0
 12 13  1  0  0  0  0
 12 11  2  0  0  0  0
 13 15  2  0  0  0  0
 14 13  1  0  0  0  0
 15 16  1  0  0  0  0
 15 20  1  0  0  0  0
 16 17  1  0  0  0  0
 17 18  1  0  0  0  0
 17 19  2  0  0  0  0
 20 19  1  0  0  0  0
 21 20  2  0  0  0  0
 22 16  1  0  0  0  0
 23  1  1  0  0  0  0
 23 24  1  0  0  0  0
 24 27  1  0  0  0  0
 25 24  1  0  0  0  0
 26 24  1  0  0  0  0
 27 29  1  0  0  0  0
 27 32  1  0  0  0  0
 27 28  1  0  0  0  0
 31 30  1  0  0  0  0
 31 37  1  0  0  0  0
 32 31  2  0  0  0  0
 33 32  1  0  0  0  0
 33 34  2  0  0  0  0
 34 35  1  0  0  0  0
 35 37  2  0  0  0  0
 35 36  1  0  0  0  0
 37 40  1  0  0  0  0
 38 33  1  0  0  0  0
 39 34  1  0  0  0  0
M  END
>  <minimizedAffinity>
-6.95451117

$$$$

 OpenBabel03242515023D

 40 43  0  0  0  0  0  0  0  0999 V2000
   42.2490   32.7770   40.9850 C   0  0  0  0  0  0  0  0  0  0  0  0
   43.0230   33.6460   40.2160 C   0  0  0  0  0  0  0  0  0  0  0  0
   42.3580   34.4960   39.3110 C   0  0  0  0  0  0  0  0  0  0  0  0
   41.0130   34.4300   39.2300 N   0  0  0  0  0  0  0  0  0  0  0  0
   40.2900   33.5840   39.9850 C   0  0  0  0  0  0  0  0  0  0  0  0
   40.9040   32.7700   40.8500 N   0  0  0  0  0  0  0  0  0  0  0  0
   44.1040   33.7180   40.2660 H   0  0  0  0  0  0  0  0  0  0  0  0
   42.8940   35.1800   38.6970 H   0  0  0  0  0  0  0  0  0  0  0  0
   38.8290   33.5990   39.8700 C   0  0  0  0  0  0  0  0  0  0  0  0
   38.2540   34.6950   40.1980 O   0  0  0  0  0  0  0  0  0  0  0  0
   38.0130   31.7830   38.1990 C   0  0  0  0  0  3  0  0  0  0  0  0
   38.0490   32.4280   39.4020 C   0  0  0  0  0  0  0  0  0  0  0  0
   37.1940   31.9380   40.3980 C   0  0  0  0  0  0  0  0  0  0  0  0
   37.1190   32.3460   41.4020 H   0  0  0  0  0  0  0  0  0  0  0  0
   36.3340   30.8570   40.2250 C   0  0  0  0  0  0  0  0  0  0  0  0
   35.4240   30.1850   40.9620 N   0  0  0  0  0  0  0  0  0  0  0  0
   34.8820   29.1950   40.2210 C   0  0  0  0  0  0  0  0  0  0  0  0
   34.1160   28.5200   40.6260 H   0  0  0  0  0  0  0  0  0  0  0  0
   35.4430   29.2230   38.9910 N   0  0  0  0  0  0  0  0  0  0  0  0
   36.3290   30.2370   38.9950 C   0  0  0  0  0  0  0  0  0  0  0  0
   37.1680   30.7150   38.0110 C   0  0  0  0  0  3  0  0  0  0  0  0
   35.2100   30.4460   41.9650 H   0  0  0  0  0  0  0  0  0  0  0  0
   43.1390   31.7030   42.1100 S   0  0  0  0  0  0  0  0  0  0  0  0
   42.0560   30.6760   43.0900 C   0  0  0  0  0  0  0  0  0  0  0  0
   41.0800   31.1890   43.2020 H   0  0  0  0  0  0  0  0  0  0  0  0
   42.5380   30.5050   44.1000 H   0  0  0  0  0  0  0  0  0  0  0  0
   41.8340   29.3120   42.5150 C   0  0  0  0  0  0  0  0  0  0  0  0
   41.9240   29.3310   41.3870 H   0  0  0  0  0  0  0  0  0  0  0  0
   42.5910   28.5830   42.8610 H   0  0  0  0  0  0  0  0  0  0  0  0
   41.6350   26.4810   43.6610 Cl  0  0  0  0  0  0  0  0  0  0  0  0
   40.2740   27.5160   43.3850 C   0  0  0  0  0  0  0  0  0  0  0  0
   40.4950   28.7900   42.8500 C   0  0  0  0  0  0  0  0  0  0  0  0
   39.3590   29.5590   42.6510 C   0  0  0  0  0  0  0  0  0  0  0  0
   38.0460   29.2030   42.9240 C   0  0  0  0  0  0  0  0  0  0  0  0
   37.8700   27.9340   43.4530 C   0  0  0  0  0  0  0  0  0  0  0  0
   36.2500   27.3600   43.8430 Cl  0  0  0  0  0  0  0  0  0  0  0  0
   38.9660   27.1170   43.6740 C   0  0  0  0  0  0  0  0  0  0  0  0
   39.4920   30.5570   42.2360 H   0  0  0  0  0  0  0  0  0  0  0  0
   37.2300   29.8700   42.7340 H   0  0  0  0  0  0  0  0  0  0  0  0
   38.8680   26.1210   44.0860 H   0  0  0  0  0  0  0  0  0  0  0  0
  1 23  1  0  0  0  0
  2  7  1  0  0  0  0
  2  1  2  0  0  0  0
  3  2  1  0  0  0  0
  4  3  2  0  0  0  0
  4  5  1  0  0  0  0
  5  6  2  0  0  0  0
  6  1  1  0  0  0  0
  8  3  1  0  0  0  0
  9  5  1  0  0  0  0
  9 10  2  0  0  0  0
 11 12  1  0  0  0  0
 12  9  1  0  0  0  0
 12 13  2  0  0  0  0
 13 14  1  0  0  0  0
 15 13  1  0  0  0  0
 15 16  1  0  0  0  0
 16 22  1  0  0  0  0
 17 18  1  0  0  0  0
 17 16  1  0  0  0  0
 19 20  1  0  0  0  0
 19 17  2  0  0  0  0
 20 15  2  0  0  0  0
 21 11  2  0  0  0  0
 21 20  1  0  0  0  0
 23 24  1  0  0  0  0
 24 25  1  0  0  0  0
 24 26  1  0  0  0  0
 27 32  1  0  0  0  0
 27 29  1  0  0  0  0
 27 24  1  0  0  0  0
 28 27  1  0  0  0  0
 31 30  1  0  0  0  0
 31 37  1  0  0  0  0
 32 31  2  0  0  0  0
 33 32  1  0  0  0  0
 33 34  2  0  0  0  0
 34 35  1  0  0  0  0
 35 37  2  0  0  0  0
 35 36  1  0  0  0  0
 37 40  1  0  0  0  0
 38 33  1  0  0  0  0
 39 34  1  0  0  0  0
M  END
>  <minimizedAffinity>
-6.89367676

$$$$

 OpenBabel03242515023D

 40 43  0  0  0  0  0  0  0  0999 V2000
   37.2500   32.2130   39.0540 C   0  0  0  0  0  0  0  0  0  0  0  0
   37.8300   31.8730   37.8330 C   0  0  0  0  0  0  0  0  0  0  0  0
   37.6670   30.5530   37.3700 C   0  0  0  0  0  0  0  0  0  0  0  0
   36.9630   29.6850   38.1240 N   0  0  0  0  0  0  0  0  0  0  0  0
   36.4100   30.0400   39.2980 C   0  0  0  0  0  0  0  0  0  0  0  0
   36.5550   31.2880   39.7540 N   0  0  0  0  0  0  0  0  0  0  0  0
   38.3980   32.5540   37.2080 H   0  0  0  0  0  0  0  0  0  0  0  0
   38.0880   30.2330   36.4450 H   0  0  0  0  0  0  0  0  0  0  0  0
   35.6250   29.0520   40.0420 C   0  0  0  0  0  0  0  0  0  0  0  0
   34.3530   29.1490   39.9290 O   0  0  0  0  0  0  0  0  0  0  0  0
   36.5570   27.9590   42.2090 C   0  0  0  0  0  3  0  0  0  0  0  0
   36.2470   27.9970   40.8790 C   0  0  0  0  0  0  0  0  0  0  0  0
   36.5780   26.8620   40.1280 C   0  0  0  0  0  0  0  0  0  0  0  0
   36.3870   26.7480   39.0660 H   0  0  0  0  0  0  0  0  0  0  0  0
   37.1900   25.7290   40.6570 C   0  0  0  0  0  0  0  0  0  0  0  0
   37.6220   24.5320   40.2050 N   0  0  0  0  0  0  0  0  0  0  0  0
   38.1590   23.8290   41.2260 C   0  0  0  0  0  0  0  0  0  0  0  0
   38.5740   22.8220   41.0810 H   0  0  0  0  0  0  0  0  0  0  0  0
   38.0780   24.5750   42.3500 N   0  0  0  0  0  0  0  0  0  0  0  0
   37.4860   25.7330   42.0030 C   0  0  0  0  0  0  0  0  0  0  0  0
   37.1630   26.8480   42.7460 C   0  0  0  0  0  3  0  0  0  0  0  0
   37.5270   24.2470   39.1910 H   0  0  0  0  0  0  0  0  0  0  0  0
   37.4980   33.8990   39.6100 S   0  0  0  0  0  0  0  0  0  0  0  0
   38.9700   34.0920   40.6000 C   0  0  0  0  0  0  0  0  0  0  0  0
   39.2490   33.1070   41.0250 H   0  0  0  0  0  0  0  0  0  0  0  0
   38.7560   34.8380   41.4240 H   0  0  0  0  0  0  0  0  0  0  0  0
   40.1370   34.6520   39.8470 C   0  0  0  0  0  0  0  0  0  0  0  0
   40.5730   33.8760   39.1460 H   0  0  0  0  0  0  0  0  0  0  0  0
   39.8490   35.5050   39.2030 H   0  0  0  0  0  0  0  0  0  0  0  0
   42.5610   32.8190   40.2050 Cl  0  0  0  0  0  0  0  0  0  0  0  0
   42.3730   34.3470   40.9960 C   0  0  0  0  0  0  0  0  0  0  0  0
   41.2130   35.0930   40.7550 C   0  0  0  0  0  0  0  0  0  0  0  0
   41.1290   36.3020   41.4280 C   0  0  0  0  0  0  0  0  0  0  0  0
   42.0610   36.8420   42.3010 C   0  0  0  0  0  0  0  0  0  0  0  0
   43.1960   36.0740   42.5130 C   0  0  0  0  0  0  0  0  0  0  0  0
   44.4570   36.6480   43.6030 Cl  0  0  0  0  0  0  0  0  0  0  0  0
   43.3370   34.8560   41.8710 C   0  0  0  0  0  0  0  0  0  0  0  0
   40.2400   36.9090   41.2640 H   0  0  0  0  0  0  0  0  0  0  0  0
   41.9060   37.7890   42.7770 H   0  0  0  0  0  0  0  0  0  0  0  0
   44.2090   34.2290   42.0110 H   0  0  0  0  0  0  0  0  0  0  0  0
  1 23  1  0  0  0  0
  1  6  1  0  0  0  0
  2  1  2  0  0  0  0
  3  2  1  0  0  0  0
  3  4  2  0  0  0  0
  4  5  1  0  0  0  0
  5  6  2  0  0  0  0
  5  9  1  0  0  0  0
  7  2  1  0  0  0  0
  8  3  1  0  0  0  0
  9 12  1  0  0  0  0
 10  9  2  0  0  0  0
 11 21  1  0  0  0  0
 12 11  2  0  0  0  0
 13 15  2  0  0  0  0
 13 12  1  0  0  0  0
 14 13  1  0  0  0  0
 15 20  1  0  0  0  0
 16 15  1  0  0  0  0
 16 17  1  0  0  0  0
 17 19  2  0  0  0  0
 18 17  1  0  0  0  0
 20 19  1  0  0  0  0
 20 21  2  0  0  0  0
 22 16  1  0  0  0  0
 23 24  1  0  0  0  0
 24 25  1  0  0  0  0
 24 26  1  0  0  0  0
 27 24  1  0  0  0  0
 27 32  1  0  0  0  0
 28 27  1  0  0  0  0
 29 27  1  0  0  0  0
 30 31  1  0  0  0  0
 31 37  1  0  0  0  0
 32 31  2  0  0  0  0
 32 33  1  0  0  0  0
 33 34  2  0  0  0  0
 34 35  1  0  0  0  0
 34 39  1  0  0  0  0
 35 36  1  0  0  0  0
 37 40  1  0  0  0  0
 37 35  2  0  0  0  0
 38 33  1  0  0  0  0
M  END
>  <minimizedAffinity>
-6.86909151

$$$$
