
 OpenBabel03242519413D

 32 34  0  0  0  0  0  0  0  0999 V2000
   48.0570   32.8490   41.4930 O   0  0  0  0  0  0  0  0  0  0  0  0
   47.1060   34.0340   41.1790 P   0  0  2  0  0  0  0  0  0  0  0  0
   45.5740   33.6970   41.8750 O   0  0  0  0  0  0  0  0  0  0  0  0
   44.4110   35.8370   44.5870 C   0  0  0  0  0  0  0  0  0  0  0  0
   44.6690   35.3630   43.2810 C   0  0  0  0  0  0  0  0  0  0  0  0
   45.3330   34.1330   43.1630 C   0  0  0  0  0  0  0  0  0  0  0  0
   45.6810   33.4780   44.2850 N   0  0  0  0  0  0  0  0  0  0  0  0
   45.4170   33.9620   45.5200 C   0  0  0  0  0  0  0  0  0  0  0  0
   44.7870   35.1320   45.6820 N   0  0  0  0  0  0  0  0  0  0  0  0
   43.9010   36.7830   44.6500 H   0  0  0  0  0  0  0  0  0  0  0  0
   44.3570   35.9480   42.4470 H   0  0  0  0  0  0  0  0  0  0  0  0
   45.7440   33.3490   46.3660 H   0  0  0  0  0  0  0  0  0  0  0  0
   46.9130   34.1960   39.5390 O   0  0  0  0  0  0  0  0  0  0  0  0
   47.2290   33.3190   38.5420 C   0  0  0  0  0  0  0  0  0  0  0  0
   48.5520   33.1600   38.2580 O   0  0  0  0  0  0  0  0  0  0  0  0
   46.8880   31.0200   37.7450 C   0  0  0  0  0  3  0  0  0  0  0  0
   46.7210   32.3420   37.5220 C   0  0  0  0  0  0  0  0  0  0  0  0
   46.0450   32.6900   36.3550 C   0  0  0  0  0  0  0  0  0  0  0  0
   45.9450   33.7910   36.2380 H   0  0  0  0  0  0  0  0  0  0  0  0
   45.5140   31.8970   35.3840 C   0  0  0  0  0  0  0  0  0  0  0  0
   44.8570   32.1160   34.2420 N   0  0  0  0  0  0  0  0  0  0  0  0
   44.6320   30.8500   33.7830 C   0  0  0  0  0  0  0  0  0  0  0  0
   44.1000   30.6600   32.8400 H   0  0  0  0  0  0  0  0  0  0  0  0
   45.1440   29.9200   34.6310 N   0  0  0  0  0  0  0  0  0  0  0  0
   45.7120   30.5710   35.6610 C   0  0  0  0  0  0  0  0  0  0  0  0
   46.3630   30.1420   36.7810 C   0  0  0  0  0  3  0  0  0  0  0  0
   44.5950   33.0270   33.8310 H   0  0  0  0  0  0  0  0  0  0  0  0
   47.7500   35.3660   41.9260 O   0  0  0  0  0  0  0  0  0  0  0  0
   48.9980   35.7060   41.4230 C   0  0  0  0  0  0  0  0  0  0  0  0
   49.3960   36.9760   41.8070 F   0  0  0  0  0  0  0  0  0  0  0  0
   49.9130   34.7530   41.7390 F   0  0  0  0  0  0  0  0  0  0  0  0
   48.8610   35.7430   40.0400 F   0  0  0  0  0  0  0  0  0  0  0  0
  2  1  2  1  0  0  0
  2  3  1  0  0  0  0
  2 28  1  0  0  0  0
  3  6  1  0  0  0  0
  4 10  1  0  0  0  0
  4  9  1  0  0  0  0
  5  4  2  0  0  0  0
  6  5  1  0  0  0  0
  6  7  2  0  0  0  0
  7  8  1  0  0  0  0
  8  9  2  0  0  0  0
  8 12  1  0  0  0  0
 11  5  1  0  0  0  0
 13  2  1  0  0  0  0
 14 13  1  0  0  0  0
 15 14  2  0  0  0  0
 17 16  1  0  0  0  0
 17 14  1  0  0  0  0
 18 17  2  0  0  0  0
 19 18  1  0  0  0  0
 20 25  2  0  0  0  0
 20 18  1  0  0  0  0
 21 20  1  0  0  0  0
 22 21  1  0  0  0  0
 22 24  2  0  0  0  0
 23 22  1  0  0  0  0
 24 25  1  0  0  0  0
 25 26  1  0  0  0  0
 26 16  2  0  0  0  0
 27 21  1  0  0  0  0
 29 31  1  0  0  0  0
 29 30  1  0  0  0  0
 29 28  1  0  0  0  0
 32 29  1  0  0  0  0
M  END
>  <minimizedAffinity>
-5.85208416

>  <minimizedRMSD>
2.10696602

$$$$
