
 OpenBabel03242519413D

 32 34  0  0  0  0  0  0  0  0999 V2000
   47.9680   32.7750   41.9350 O   0  0  0  0  0  0  0  0  0  0  0  0
   47.0340   33.8770   41.3670 P   0  0  2  0  0  0  0  0  0  0  0  0
   45.4720   33.6610   42.0420 O   0  0  0  0  0  0  0  0  0  0  0  0
   44.3710   35.9270   44.6760 C   0  0  0  0  0  0  0  0  0  0  0  0
   44.6200   35.4030   43.3880 C   0  0  0  0  0  0  0  0  0  0  0  0
   45.2380   34.1460   43.3130 C   0  0  0  0  0  0  0  0  0  0  0  0
   45.5530   33.5140   44.4580 N   0  0  0  0  0  0  0  0  0  0  0  0
   45.2990   34.0460   45.6750 C   0  0  0  0  0  0  0  0  0  0  0  0
   44.7120   35.2430   45.7950 N   0  0  0  0  0  0  0  0  0  0  0  0
   43.8960   36.8930   44.7060 H   0  0  0  0  0  0  0  0  0  0  0  0
   44.3360   35.9730   42.5330 H   0  0  0  0  0  0  0  0  0  0  0  0
   45.5970   33.4480   46.5430 H   0  0  0  0  0  0  0  0  0  0  0  0
   46.9180   33.7350   39.7180 O   0  0  0  0  0  0  0  0  0  0  0  0
   45.9440   33.1440   38.9680 C   0  0  0  0  0  0  0  0  0  0  0  0
   46.3530   32.3440   37.9450 O   0  0  0  0  0  0  0  0  0  0  0  0
   43.9530   31.7080   38.8590 C   0  0  0  0  0  3  0  0  0  0  0  0
   44.4700   32.9510   38.7510 C   0  0  0  0  0  0  0  0  0  0  0  0
   43.5660   33.9730   38.4740 C   0  0  0  0  0  0  0  0  0  0  0  0
   44.0610   34.9650   38.3980 H   0  0  0  0  0  0  0  0  0  0  0  0
   42.2190   33.9190   38.2910 C   0  0  0  0  0  0  0  0  0  0  0  0
   41.2670   34.8190   38.0250 N   0  0  0  0  0  0  0  0  0  0  0  0
   40.1380   34.0490   37.9800 C   0  0  0  0  0  0  0  0  0  0  0  0
   39.1490   34.4820   37.7770 H   0  0  0  0  0  0  0  0  0  0  0  0
   40.4240   32.7420   38.2110 N   0  0  0  0  0  0  0  0  0  0  0  0
   41.7490   32.6390   38.4120 C   0  0  0  0  0  0  0  0  0  0  0  0
   42.5640   31.5790   38.6820 C   0  0  0  0  0  3  0  0  0  0  0  0
   41.3810   35.8380   37.8930 H   0  0  0  0  0  0  0  0  0  0  0  0
   47.6450   35.3270   41.8870 O   0  0  0  0  0  0  0  0  0  0  0  0
   48.8990   35.5970   41.3580 C   0  0  0  0  0  0  0  0  0  0  0  0
   49.3780   36.8400   41.7360 F   0  0  0  0  0  0  0  0  0  0  0  0
   49.7640   34.5910   41.6490 F   0  0  0  0  0  0  0  0  0  0  0  0
   48.7340   35.6470   39.9780 F   0  0  0  0  0  0  0  0  0  0  0  0
  2 28  1  0  0  0  0
  2  1  2  1  0  0  0
  2  3  1  0  0  0  0
  3  6  1  0  0  0  0
  4 10  1  0  0  0  0
  4  9  1  0  0  0  0
  5  4  2  0  0  0  0
  6  5  1  0  0  0  0
  6  7  2  0  0  0  0
  7  8  1  0  0  0  0
  8  9  2  0  0  0  0
  8 12  1  0  0  0  0
 11  5  1  0  0  0  0
 13  2  1  0  0  0  0
 14 13  1  0  0  0  0
 15 14  2  0  0  0  0
 17 16  1  0  0  0  0
 17 14  1  0  0  0  0
 18 17  2  0  0  0  0
 19 18  1  0  0  0  0
 20 25  2  0  0  0  0
 20 18  1  0  0  0  0
 21 20  1  0  0  0  0
 22 21  1  0  0  0  0
 22 24  2  0  0  0  0
 23 22  1  0  0  0  0
 24 25  1  0  0  0  0
 25 26  1  0  0  0  0
 26 16  2  0  0  0  0
 27 21  1  0  0  0  0
 29 31  1  0  0  0  0
 29 30  1  0  0  0  0
 29 28  1  0  0  0  0
 32 29  1  0  0  0  0
M  END
>  <minimizedAffinity>
-5.75785494

>  <minimizedRMSD>
3.09797454

$$$$
