
 OpenBabel03242520003D

 33 36  0  0  1  0  0  0  0  0999 V2000
   44.6810   33.0310   41.1820 Br  0  0  0  0  0  0  0  0  0  0  0  0
   46.3310   33.9610   40.9880 C   0  0  0  0  0  0  0  0  0  0  0  0
   46.8440   34.7550   41.9860 C   0  0  0  0  0  0  0  0  0  0  0  0
   48.0520   35.4120   41.7460 C   0  0  0  0  0  0  0  0  0  0  0  0
   48.7320   35.2890   40.5520 C   0  0  0  0  0  0  0  0  0  0  0  0
   48.2140   34.4820   39.5360 C   0  0  0  0  0  0  0  0  0  0  0  0
   47.0190   33.8490   39.8110 C   0  0  0  0  0  0  0  0  0  0  0  0
   48.3880   36.0160   42.5770 H   0  0  0  0  0  0  0  0  0  0  0  0
   49.6740   35.8310   40.4290 H   0  0  0  0  0  0  0  0  0  0  0  0
   48.7390   34.3770   38.5980 H   0  0  0  0  0  0  0  0  0  0  0  0
   44.5080   35.8850   44.7310 C   0  0  0  0  0  0  0  0  0  0  0  0
   45.1940   35.8470   43.5020 C   0  0  0  0  0  0  0  0  0  0  0  0
   46.1020   34.8500   43.2380 C   0  0  0  0  0  0  0  0  0  0  0  0
   46.2660   33.9370   44.2450 N   0  0  0  0  0  0  0  0  0  0  0  0
   45.6130   33.9790   45.4070 C   0  0  0  0  0  0  0  0  0  0  0  0
   44.7440   34.9420   45.6450 N   0  0  0  0  0  0  0  0  0  0  0  0
   43.8230   36.6990   44.8420 H   0  0  0  0  0  0  0  0  0  0  0  0
   45.0390   36.5780   42.7400 H   0  0  0  0  0  0  0  0  0  0  0  0
   45.9040   33.1560   46.0450 H   0  0  0  0  0  0  0  0  0  0  0  0
   46.5230   32.9980   38.7560 C   0  0  2  0  0  0  0  0  0  0  0  0
   45.5650   33.3770   37.9830 O   0  0  0  0  0  0  0  0  0  0  0  0
   47.6890   30.8400   39.1670 C   0  0  0  0  0  0  0  0  0  0  0  0
   46.9400   31.6590   38.3590 C   0  0  0  0  0  0  0  0  0  0  0  0
   46.5920   31.1090   37.1320 C   0  0  0  0  0  0  0  0  0  0  0  0
   45.9860   31.6790   36.4100 H   0  0  0  0  0  0  0  0  0  0  0  0
   46.9380   29.8490   36.6950 C   0  0  0  0  0  0  0  0  0  0  0  0
   46.7070   29.1500   35.5720 N   0  0  0  0  0  0  0  0  0  0  0  0
   47.3000   27.9590   35.7120 C   0  0  0  0  0  0  0  0  0  0  0  0
   47.2420   27.2180   34.9110 H   0  0  0  0  0  0  0  0  0  0  0  0
   47.9040   27.8900   36.9070 N   0  0  0  0  0  0  0  0  0  0  0  0
   47.6910   29.0550   37.5330 C   0  0  0  0  0  0  0  0  0  0  0  0
   48.0500   29.5600   38.7420 C   0  0  0  0  0  0  0  0  0  0  0  0
   46.1540   29.5040   34.7470 H   0  0  0  0  0  0  0  0  0  0  0  0
  2  1  1  0  0  0  0
  2  3  1  0  0  0  0
  3 13  1  0  0  0  0
  4  3  2  0  0  0  0
  4  8  1  0  0  0  0
  5  4  1  0  0  0  0
  6  7  1  0  0  0  0
  6  5  2  0  0  0  0
  7  2  2  0  0  0  0
  9  5  1  0  0  0  0
 10  6  1  0  0  0  0
 11 17  1  0  0  0  0
 11 16  1  0  0  0  0
 12 11  2  0  0  0  0
 13 12  1  0  0  0  0
 13 14  2  0  0  0  0
 14 15  1  0  0  0  0
 15 16  2  0  0  0  0
 15 19  1  0  0  0  0
 18 12  1  0  0  0  0
 20 21  1  1  0  0  0
 20  7  1  0  0  0  0
 23 20  1  0  0  0  0
 23 22  2  0  0  0  0
 24 23  1  0  0  0  0
 25 24  1  0  0  0  0
 26 24  2  0  0  0  0
 26 31  1  0  0  0  0
 27 28  1  0  0  0  0
 27 26  1  0  0  0  0
 28 30  2  0  0  0  0
 29 28  1  0  0  0  0
 30 31  1  0  0  0  0
 31 32  2  0  0  0  0
 32 22  1  0  0  0  0
 33 27  1  0  0  0  0
M  END
>  <minimizedAffinity>
-5.29151106

>  <minimizedRMSD>
2.15234375

$$$$
