
 OpenBabel03252508003D

 32 35  0  0  1  0  0  0  0  0999 V2000
   46.6280   34.8350   43.1530 C   0  0  0  0  0  0  0  0  0  0  0  0
   45.5620   35.7750   43.2760 C   0  0  0  0  0  0  0  0  0  0  0  0
   44.6650   35.6060   44.3390 C   0  0  0  0  0  0  0  0  0  0  0  0
   44.8680   34.5630   45.1780 N   0  0  0  0  0  0  0  0  0  0  0  0
   45.9160   33.6920   45.0030 C   0  0  0  0  0  0  0  0  0  0  0  0
   46.7880   33.8110   44.0140 N   0  0  0  0  0  0  0  0  0  0  0  0
   45.4480   36.5910   42.5750 H   0  0  0  0  0  0  0  0  0  0  0  0
   43.8440   36.2910   44.4710 H   0  0  0  0  0  0  0  0  0  0  0  0
   46.0870   32.5700   45.9800 C   0  0  1  0  0  0  0  0  0  0  0  0
   46.8240   32.8330   47.2750 C   0  0  0  0  0  0  0  0  0  0  0  0
   45.3240   32.7310   47.2350 C   0  0  1  0  0  0  0  0  0  0  0  0
   46.2430   31.5560   45.5660 H   0  0  0  0  0  0  0  0  0  0  0  0
   47.3210   33.8350   47.2910 H   0  0  0  0  0  0  0  0  0  0  0  0
   47.4240   32.0210   47.6910 H   0  0  0  0  0  0  0  0  0  0  0  0
   44.8830   31.8970   47.7850 H   0  0  0  0  0  0  0  0  0  0  0  0
   44.6840   34.0170   47.5290 N   0  0  0  0  0  0  0  0  0  0  0  0
   45.0380   34.3200   48.4860 H   0  0  0  0  0  0  0  0  0  0  0  0
   43.6620   33.9070   47.6440 H   0  0  0  0  0  0  0  0  0  0  0  0
   47.5060   35.0790   42.0500 C   0  0  0  0  0  0  0  0  0  0  0  0
   48.5210   35.8560   42.1100 O   0  0  0  0  0  0  0  0  0  0  0  0
   46.2580   33.7200   40.3740 C   0  0  0  0  0  3  0  0  0  0  0  0
   47.3540   34.4800   40.7280 C   0  0  0  0  0  0  0  0  0  0  0  0
   48.3210   34.6490   39.7510 C   0  0  0  0  0  0  0  0  0  0  0  0
   49.1980   35.2210   39.9420 H   0  0  0  0  0  0  0  0  0  0  0  0
   48.1930   34.0820   38.4790 C   0  0  0  0  0  0  0  0  0  0  0  0
   48.9670   34.0910   37.3680 N   0  0  0  0  0  0  0  0  0  0  0  0
   48.3780   33.3780   36.3920 C   0  0  0  0  0  0  0  0  0  0  0  0
   48.6910   33.1620   35.3780 H   0  0  0  0  0  0  0  0  0  0  0  0
   47.1990   32.9030   36.8910 N   0  0  0  0  0  0  0  0  0  0  0  0
   47.0780   33.3270   38.1610 C   0  0  0  0  0  0  0  0  0  0  0  0
   46.0920   33.1430   39.1290 C   0  0  0  0  0  3  0  0  0  0  0  0
   49.8920   34.5790   37.2730 H   0  0  0  0  0  0  0  0  0  0  0  0
  1  2  2  0  0  0  0
  1  6  1  0  0  0  0
  2  3  1  0  0  0  0
  3  8  1  0  0  0  0
  3  4  2  0  0  0  0
  5  4  1  0  0  0  0
  5  9  1  0  0  0  0
  6  5  2  0  0  0  0
  7  2  1  0  0  0  0
  9 12  1  6  0  0  0
  9 11  1  0  0  0  0
  9 10  1  0  0  0  0
 10 13  1  0  0  0  0
 10 14  1  0  0  0  0
 11 10  1  0  0  0  0
 11 16  1  0  0  0  0
 11 15  1  1  0  0  0
 16 18  1  0  0  0  0
 16 17  1  0  0  0  0
 19 20  2  0  0  0  0
 19  1  1  0  0  0  0
 21 22  1  0  0  0  0
 22 19  1  0  0  0  0
 23 24  1  0  0  0  0
 23 22  2  0  0  0  0
 25 23  1  0  0  0  0
 26 25  1  0  0  0  0
 27 29  2  0  0  0  0
 27 26  1  0  0  0  0
 28 27  1  0  0  0  0
 29 30  1  0  0  0  0
 30 25  2  0  0  0  0
 30 31  1  0  0  0  0
 31 21  2  0  0  0  0
 32 26  1  0  0  0  0
M  END
>  <minimizedAffinity>
-6.55172014

>  <minimizedRMSD>
1.50793612

$$$$
