
 OpenBabel03242510523D

 25 27  0  0  0  0  0  0  0  0999 V2000
   30.8730   30.0800   36.4600 C   0  0  0  0  0  0  0  0  0  0  0  0
   31.4770   30.0780   35.1730 C   0  0  0  0  0  0  0  0  0  0  0  0
   32.8100   29.6320   35.0660 C   0  0  0  0  0  0  0  0  0  0  0  0
   33.4300   29.2290   36.2130 N   0  0  0  0  0  0  0  0  0  0  0  0
   32.8340   29.2420   37.4130 C   0  0  0  0  0  0  0  0  0  0  0  0
   31.5560   29.6690   37.5250 N   0  0  0  0  0  0  0  0  0  0  0  0
   34.9710   28.6920   38.4080 C   0  0  0  0  0  0  0  0  0  0  0  0
   35.6170   28.9550   37.3550 O   0  0  0  0  0  0  0  0  0  0  0  0
   33.5670   28.8020   38.5470 N   0  0  0  0  0  0  0  0  0  0  0  0
   29.8560   30.4070   36.6250 H   0  0  0  0  0  0  0  0  0  0  0  0
   30.8820   30.4220   34.3370 H   0  0  0  0  0  0  0  0  0  0  0  0
   33.2580   29.6340   34.0930 H   0  0  0  0  0  0  0  0  0  0  0  0
   33.0250   28.5890   39.4070 H   0  0  0  0  0  0  0  0  0  0  0  0
   36.4340   27.0390   39.6020 C   0  0  0  0  0  3  0  0  0  0  0  0
   35.7680   28.2450   39.5440 C   0  0  0  0  0  0  0  0  0  0  0  0
   35.9330   29.0000   40.6910 C   0  0  0  0  0  0  0  0  0  0  0  0
   35.4450   29.9800   40.7540 H   0  0  0  0  0  0  0  0  0  0  0  0
   36.6710   28.6380   41.7990 C   0  0  0  0  0  0  0  0  0  0  0  0
   36.9250   29.2420   42.9650 N   0  0  0  0  0  0  0  0  0  0  0  0
   37.7140   28.4160   43.6790 C   0  0  0  0  0  0  0  0  0  0  0  0
   38.1480   28.5160   44.6670 H   0  0  0  0  0  0  0  0  0  0  0  0
   37.9390   27.3000   42.9370 N   0  0  0  0  0  0  0  0  0  0  0  0
   37.3030   27.4190   41.7750 C   0  0  0  0  0  0  0  0  0  0  0  0
   37.1880   26.6060   40.6690 C   0  0  0  0  0  3  0  0  0  0  0  0
   36.5970   30.1740   43.2990 H   0  0  0  0  0  0  0  0  0  0  0  0
  1 10  1  0  0  0  0
  1  6  1  0  0  0  0
  2  1  2  0  0  0  0
  3  2  1  0  0  0  0
  3  4  2  0  0  0  0
  4  5  1  0  0  0  0
  5  6  2  0  0  0  0
  5  9  1  0  0  0  0
  7  9  1  0  0  0  0
  7 15  1  0  0  0  0
  8  7  2  0  0  0  0
  9 13  1  0  0  0  0
 11  2  1  0  0  0  0
 12  3  1  0  0  0  0
 14 24  1  0  0  0  0
 15 14  2  0  0  0  0
 15 16  1  0  0  0  0
 16 17  1  0  0  0  0
 16 18  2  0  0  0  0
 18 19  1  0  0  0  0
 19 25  1  0  0  0  0
 19 20  1  0  0  0  0
 20 21  1  0  0  0  0
 22 20  2  0  0  0  0
 23 18  1  0  0  0  0
 23 22  1  0  0  0  0
 24 23  2  0  0  0  0
M  END
>  <minimizedAffinity>
-5.0619688

$$$$

 OpenBabel03242510523D

 25 27  0  0  0  0  0  0  0  0999 V2000
   38.6480   24.0510   40.5500 C   0  0  0  0  0  0  0  0  0  0  0  0
   37.6880   23.6730   41.5290 C   0  0  0  0  0  0  0  0  0  0  0  0
   36.9050   24.6870   42.1170 C   0  0  0  0  0  0  0  0  0  0  0  0
   37.1240   25.9680   41.7000 N   0  0  0  0  0  0  0  0  0  0  0  0
   38.0360   26.2930   40.7740 C   0  0  0  0  0  0  0  0  0  0  0  0
   38.7920   25.3270   40.2060 N   0  0  0  0  0  0  0  0  0  0  0  0
   37.6120   28.6250   41.2680 C   0  0  0  0  0  0  0  0  0  0  0  0
   36.9770   28.3650   42.3290 O   0  0  0  0  0  0  0  0  0  0  0  0
   38.1870   27.6580   40.4100 N   0  0  0  0  0  0  0  0  0  0  0  0
   39.2860   23.3330   40.0550 H   0  0  0  0  0  0  0  0  0  0  0  0
   37.6070   22.6220   41.7770 H   0  0  0  0  0  0  0  0  0  0  0  0
   36.1840   24.3960   42.8530 H   0  0  0  0  0  0  0  0  0  0  0  0
   38.7100   27.8590   39.5350 H   0  0  0  0  0  0  0  0  0  0  0  0
   36.7620   30.7850   40.3140 C   0  0  0  0  0  3  0  0  0  0  0  0
   37.7400   30.0390   40.9370 C   0  0  0  0  0  0  0  0  0  0  0  0
   38.8740   30.7780   41.2210 C   0  0  0  0  0  0  0  0  0  0  0  0
   39.7170   30.2840   41.7170 H   0  0  0  0  0  0  0  0  0  0  0  0
   39.0600   32.1150   40.9360 C   0  0  0  0  0  0  0  0  0  0  0  0
   40.0770   32.9600   41.1400 N   0  0  0  0  0  0  0  0  0  0  0  0
   39.7030   34.1600   40.6530 C   0  0  0  0  0  0  0  0  0  0  0  0
   40.2220   35.1100   40.6150 H   0  0  0  0  0  0  0  0  0  0  0  0
   38.4480   34.0380   40.1480 N   0  0  0  0  0  0  0  0  0  0  0  0
   38.0360   32.7850   40.3130 C   0  0  0  0  0  0  0  0  0  0  0  0
   36.8710   32.1200   39.9960 C   0  0  0  0  0  3  0  0  0  0  0  0
   40.9990   32.7700   41.5870 H   0  0  0  0  0  0  0  0  0  0  0  0
  1  2  1  0  0  0  0
  2 11  1  0  0  0  0
  2  3  2  0  0  0  0
  3 12  1  0  0  0  0
  4  3  1  0  0  0  0
  5  4  2  0  0  0  0
  6  1  2  0  0  0  0
  6  5  1  0  0  0  0
  7  8  2  0  0  0  0
  9  5  1  0  0  0  0
  9  7  1  0  0  0  0
 10  1  1  0  0  0  0
 13  9  1  0  0  0  0
 14 15  1  0  0  0  0
 15 16  2  0  0  0  0
 15  7  1  0  0  0  0
 16 17  1  0  0  0  0
 18 19  1  0  0  0  0
 18 16  1  0  0  0  0
 19 25  1  0  0  0  0
 20 19  1  0  0  0  0
 21 20  1  0  0  0  0
 22 23  1  0  0  0  0
 22 20  2  0  0  0  0
 23 18  2  0  0  0  0
 24 23  1  0  0  0  0
 24 14  2  0  0  0  0
M  END
>  <minimizedAffinity>
-5.01504993

$$$$

 OpenBabel03242510523D

 25 27  0  0  0  0  0  0  0  0999 V2000
   38.7480   23.8350   40.3180 C   0  0  0  0  0  0  0  0  0  0  0  0
   37.7020   23.4690   41.2090 C   0  0  0  0  0  0  0  0  0  0  0  0
   37.0000   24.4990   41.8670 C   0  0  0  0  0  0  0  0  0  0  0  0
   37.3750   25.7830   41.6000 N   0  0  0  0  0  0  0  0  0  0  0  0
   38.3660   26.0980   40.7540 C   0  0  0  0  0  0  0  0  0  0  0  0
   39.0440   25.1160   40.1190 N   0  0  0  0  0  0  0  0  0  0  0  0
   38.1640   28.4000   41.4750 C   0  0  0  0  0  0  0  0  0  0  0  0
   37.4490   28.1050   42.4750 O   0  0  0  0  0  0  0  0  0  0  0  0
   38.6790   27.4670   40.5440 N   0  0  0  0  0  0  0  0  0  0  0  0
   39.3320   23.1050   39.7760 H   0  0  0  0  0  0  0  0  0  0  0  0
   37.4980   22.4140   41.3390 H   0  0  0  0  0  0  0  0  0  0  0  0
   36.2140   24.2160   42.5370 H   0  0  0  0  0  0  0  0  0  0  0  0
   39.2670   27.6970   39.7190 H   0  0  0  0  0  0  0  0  0  0  0  0
   39.6250   30.4260   41.7130 C   0  0  0  0  0  3  0  0  0  0  0  0
   38.4580   29.8170   41.3030 C   0  0  0  0  0  0  0  0  0  0  0  0
   37.5780   30.7010   40.7040 C   0  0  0  0  0  0  0  0  0  0  0  0
   36.6160   30.3240   40.3400 H   0  0  0  0  0  0  0  0  0  0  0  0
   37.7930   32.0500   40.5110 C   0  0  0  0  0  0  0  0  0  0  0  0
   37.0590   33.0220   39.9600 N   0  0  0  0  0  0  0  0  0  0  0  0
   37.7750   34.1610   40.0450 C   0  0  0  0  0  0  0  0  0  0  0  0
   37.5530   35.1710   39.7230 H   0  0  0  0  0  0  0  0  0  0  0  0
   38.9540   33.8730   40.6540 N   0  0  0  0  0  0  0  0  0  0  0  0
   38.9830   32.5770   40.9490 C   0  0  0  0  0  0  0  0  0  0  0  0
   39.9140   31.7630   41.5570 C   0  0  0  0  0  3  0  0  0  0  0  0
   36.1090   32.9570   39.5340 H   0  0  0  0  0  0  0  0  0  0  0  0
  1  2  1  0  0  0  0
  2 11  1  0  0  0  0
  2  3  2  0  0  0  0
  3 12  1  0  0  0  0
  4  3  1  0  0  0  0
  5  4  2  0  0  0  0
  6  1  2  0  0  0  0
  6  5  1  0  0  0  0
  7  8  2  0  0  0  0
  9  5  1  0  0  0  0
  9  7  1  0  0  0  0
 10  1  1  0  0  0  0
 13  9  1  0  0  0  0
 15  7  1  0  0  0  0
 15 14  2  0  0  0  0
 16 15  1  0  0  0  0
 17 16  1  0  0  0  0
 18 16  2  0  0  0  0
 18 23  1  0  0  0  0
 19 20  1  0  0  0  0
 19 18  1  0  0  0  0
 20 22  2  0  0  0  0
 21 20  1  0  0  0  0
 22 23  1  0  0  0  0
 23 24  2  0  0  0  0
 24 14  1  0  0  0  0
 25 19  1  0  0  0  0
M  END
>  <minimizedAffinity>
-4.97145844

$$$$

 OpenBabel03242510523D

 25 27  0  0  0  0  0  0  0  0999 V2000
   44.7840   30.3710   35.0020 C   0  0  0  0  0  0  0  0  0  0  0  0
   45.6350   31.2690   35.7020 C   0  0  0  0  0  0  0  0  0  0  0  0
   45.1130   31.9400   36.8250 C   0  0  0  0  0  0  0  0  0  0  0  0
   43.8170   31.6780   37.1640 N   0  0  0  0  0  0  0  0  0  0  0  0
   43.0380   30.8250   36.4840 C   0  0  0  0  0  0  0  0  0  0  0  0
   43.5320   30.1780   35.4050 N   0  0  0  0  0  0  0  0  0  0  0  0
   41.1660   31.5640   37.8300 C   0  0  0  0  0  0  0  0  0  0  0  0
   41.7860   32.5670   38.2820 O   0  0  0  0  0  0  0  0  0  0  0  0
   41.7010   30.6220   36.9190 N   0  0  0  0  0  0  0  0  0  0  0  0
   45.1110   29.8190   34.1310 H   0  0  0  0  0  0  0  0  0  0  0  0
   46.6470   31.3940   35.3350 H   0  0  0  0  0  0  0  0  0  0  0  0
   45.7590   32.6150   37.3480 H   0  0  0  0  0  0  0  0  0  0  0  0
   41.2020   29.7930   36.5420 H   0  0  0  0  0  0  0  0  0  0  0  0
   38.6740   31.5930   37.5310 C   0  0  0  0  0  3  0  0  0  0  0  0
   39.7980   31.3990   38.3060 C   0  0  0  0  0  0  0  0  0  0  0  0
   39.4920   31.0270   39.6020 C   0  0  0  0  0  0  0  0  0  0  0  0
   40.3120   30.8460   40.3080 H   0  0  0  0  0  0  0  0  0  0  0  0
   38.2240   30.8540   40.1170 C   0  0  0  0  0  0  0  0  0  0  0  0
   37.7670   30.5040   41.3240 N   0  0  0  0  0  0  0  0  0  0  0  0
   36.4210   30.4940   41.2550 C   0  0  0  0  0  0  0  0  0  0  0  0
   35.6680   30.2670   42.0000 H   0  0  0  0  0  0  0  0  0  0  0  0
   36.0610   30.8420   39.9920 N   0  0  0  0  0  0  0  0  0  0  0  0
   37.1590   31.0680   39.2770 C   0  0  0  0  0  0  0  0  0  0  0  0
   37.3780   31.4410   37.9690 C   0  0  0  0  0  3  0  0  0  0  0  0
   38.3120   30.2730   42.1830 H   0  0  0  0  0  0  0  0  0  0  0  0
  1  6  2  0  0  0  0
  1  2  1  0  0  0  0
  2  3  2  0  0  0  0
  3  4  1  0  0  0  0
  3 12  1  0  0  0  0
  5  9  1  0  0  0  0
  5  4  2  0  0  0  0
  6  5  1  0  0  0  0
  7  8  2  0  0  0  0
  7 15  1  0  0  0  0
  9  7  1  0  0  0  0
 10  1  1  0  0  0  0
 11  2  1  0  0  0  0
 13  9  1  0  0  0  0
 14 24  2  0  0  0  0
 14 15  1  0  0  0  0
 15 16  2  0  0  0  0
 16 18  1  0  0  0  0
 16 17  1  0  0  0  0
 18 19  1  0  0  0  0
 19 25  1  0  0  0  0
 20 19  1  0  0  0  0
 20 21  1  0  0  0  0
 22 20  2  0  0  0  0
 23 22  1  0  0  0  0
 23 18  2  0  0  0  0
 24 23  1  0  0  0  0
M  END
>  <minimizedAffinity>
-4.60027122

$$$$

 OpenBabel03242510523D

 25 27  0  0  0  0  0  0  0  0999 V2000
   40.7850   33.0540   39.3520 C   0  0  0  0  0  0  0  0  0  0  0  0
   39.8160   34.0360   39.6970 C   0  0  0  0  0  0  0  0  0  0  0  0
   38.6420   33.6100   40.3490 C   0  0  0  0  0  0  0  0  0  0  0  0
   38.5170   32.2750   40.6050 N   0  0  0  0  0  0  0  0  0  0  0  0
   39.4470   31.3730   40.2670 C   0  0  0  0  0  0  0  0  0  0  0  0
   40.5770   31.7730   39.6410 N   0  0  0  0  0  0  0  0  0  0  0  0
   37.9010   29.6290   40.9210 C   0  0  0  0  0  0  0  0  0  0  0  0
   36.9130   30.4160   40.9710 O   0  0  0  0  0  0  0  0  0  0  0  0
   39.2210   30.0050   40.5780 N   0  0  0  0  0  0  0  0  0  0  0  0
   41.7100   33.3010   38.8510 H   0  0  0  0  0  0  0  0  0  0  0  0
   40.0300   35.0660   39.4400 H   0  0  0  0  0  0  0  0  0  0  0  0
   37.9170   34.3550   40.6060 H   0  0  0  0  0  0  0  0  0  0  0  0
   40.0400   29.3680   40.5340 H   0  0  0  0  0  0  0  0  0  0  0  0
   36.8980   27.8260   42.3510 C   0  0  0  0  0  3  0  0  0  0  0  0
   37.6180   28.2360   41.2490 C   0  0  0  0  0  0  0  0  0  0  0  0
   38.0530   27.1780   40.4730 C   0  0  0  0  0  0  0  0  0  0  0  0
   38.6370   27.3890   39.5690 H   0  0  0  0  0  0  0  0  0  0  0  0
   37.8210   25.8420   40.7240 C   0  0  0  0  0  0  0  0  0  0  0  0
   38.1660   24.7180   40.0860 N   0  0  0  0  0  0  0  0  0  0  0  0
   37.6630   23.6860   40.7920 C   0  0  0  0  0  0  0  0  0  0  0  0
   37.7090   22.6170   40.6280 H   0  0  0  0  0  0  0  0  0  0  0  0
   37.0080   24.1920   41.8690 N   0  0  0  0  0  0  0  0  0  0  0  0
   37.0950   25.5190   41.8440 C   0  0  0  0  0  0  0  0  0  0  0  0
   36.6250   26.5160   42.6710 C   0  0  0  0  0  3  0  0  0  0  0  0
   38.7170   24.6140   39.2070 H   0  0  0  0  0  0  0  0  0  0  0  0
  1  6  2  0  0  0  0
  1  2  1  0  0  0  0
  2  3  2  0  0  0  0
  3  4  1  0  0  0  0
  3 12  1  0  0  0  0
  5  9  1  0  0  0  0
  5  4  2  0  0  0  0
  6  5  1  0  0  0  0
  7  8  2  0  0  0  0
  7 15  1  0  0  0  0
  9  7  1  0  0  0  0
 10  1  1  0  0  0  0
 11  2  1  0  0  0  0
 13  9  1  0  0  0  0
 14 24  1  0  0  0  0
 15 14  2  0  0  0  0
 16 18  2  0  0  0  0
 16 15  1  0  0  0  0
 17 16  1  0  0  0  0
 18 23  1  0  0  0  0
 19 18  1  0  0  0  0
 19 20  1  0  0  0  0
 20 22  2  0  0  0  0
 21 20  1  0  0  0  0
 23 22  1  0  0  0  0
 23 24  2  0  0  0  0
 25 19  1  0  0  0  0
M  END
>  <minimizedAffinity>
-4.55136776

$$$$

 OpenBabel03242510523D

 25 27  0  0  0  0  0  0  0  0999 V2000
   39.7120   27.7880   43.2990 C   0  0  0  0  0  0  0  0  0  0  0  0
   39.4820   26.4120   43.5760 C   0  0  0  0  0  0  0  0  0  0  0  0
   38.7390   25.6620   42.6420 C   0  0  0  0  0  0  0  0  0  0  0  0
   38.2900   26.3140   41.5300 N   0  0  0  0  0  0  0  0  0  0  0  0
   38.5230   27.6130   41.2970 C   0  0  0  0  0  0  0  0  0  0  0  0
   39.2340   28.3400   42.1880 N   0  0  0  0  0  0  0  0  0  0  0  0
   37.0160   27.4770   39.4070 C   0  0  0  0  0  0  0  0  0  0  0  0
   36.5510   26.3560   39.7590 O   0  0  0  0  0  0  0  0  0  0  0  0
   38.0110   28.1980   40.1080 N   0  0  0  0  0  0  0  0  0  0  0  0
   40.2710   28.4290   43.9660 H   0  0  0  0  0  0  0  0  0  0  0  0
   39.8900   26.0080   44.4940 H   0  0  0  0  0  0  0  0  0  0  0  0
   38.5700   24.6270   42.8570 H   0  0  0  0  0  0  0  0  0  0  0  0
   38.4010   29.1190   39.8280 H   0  0  0  0  0  0  0  0  0  0  0  0
   35.1710   28.5120   38.0570 C   0  0  0  0  0  3  0  0  0  0  0  0
   36.4590   28.0350   38.1810 C   0  0  0  0  0  0  0  0  0  0  0  0
   37.1810   28.1410   37.0060 C   0  0  0  0  0  0  0  0  0  0  0  0
   38.2200   27.7900   36.9910 H   0  0  0  0  0  0  0  0  0  0  0  0
   36.7170   28.6570   35.8150 C   0  0  0  0  0  0  0  0  0  0  0  0
   37.2770   28.8260   34.6120 N   0  0  0  0  0  0  0  0  0  0  0  0
   36.3460   29.3840   33.8120 C   0  0  0  0  0  0  0  0  0  0  0  0
   36.3830   29.6830   32.7720 H   0  0  0  0  0  0  0  0  0  0  0  0
   35.2120   29.5530   34.5410 N   0  0  0  0  0  0  0  0  0  0  0  0
   35.4210   29.1100   35.7760 C   0  0  0  0  0  0  0  0  0  0  0  0
   34.6340   29.0400   36.9050 C   0  0  0  0  0  3  0  0  0  0  0  0
   38.2450   28.5870   34.3070 H   0  0  0  0  0  0  0  0  0  0  0  0
  1  2  1  0  0  0  0
  1 10  1  0  0  0  0
  2 11  1  0  0  0  0
  3 12  1  0  0  0  0
  3  2  2  0  0  0  0
  4  3  1  0  0  0  0
  5  4  2  0  0  0  0
  5  6  1  0  0  0  0
  6  1  2  0  0  0  0
  7  8  2  0  0  0  0
  7  9  1  0  0  0  0
  9  5  1  0  0  0  0
 13  9  1  0  0  0  0
 14 15  1  0  0  0  0
 15  7  1  0  0  0  0
 16 15  2  0  0  0  0
 17 16  1  0  0  0  0
 18 16  1  0  0  0  0
 19 18  1  0  0  0  0
 20 22  2  0  0  0  0
 20 19  1  0  0  0  0
 21 20  1  0  0  0  0
 22 23  1  0  0  0  0
 23 18  2  0  0  0  0
 23 24  1  0  0  0  0
 24 14  2  0  0  0  0
 25 19  1  0  0  0  0
M  END
>  <minimizedAffinity>
-4.52525187

$$$$

 OpenBabel03242510523D

 25 27  0  0  0  0  0  0  0  0999 V2000
   37.4300   31.9540   38.0750 C   0  0  0  0  0  0  0  0  0  0  0  0
   37.2630   32.6990   39.2740 C   0  0  0  0  0  0  0  0  0  0  0  0
   37.2340   31.9950   40.4950 C   0  0  0  0  0  0  0  0  0  0  0  0
   37.3700   30.6380   40.4380 N   0  0  0  0  0  0  0  0  0  0  0  0
   37.5260   29.9630   39.2920 C   0  0  0  0  0  0  0  0  0  0  0  0
   37.5540   30.6310   38.1170 N   0  0  0  0  0  0  0  0  0  0  0  0
   37.2910   27.9060   40.5460 C   0  0  0  0  0  0  0  0  0  0  0  0
   36.8540   28.4930   41.5770 O   0  0  0  0  0  0  0  0  0  0  0  0
   37.6580   28.5500   39.3410 N   0  0  0  0  0  0  0  0  0  0  0  0
   37.4620   32.4200   37.1000 H   0  0  0  0  0  0  0  0  0  0  0  0
   37.1650   33.7740   39.1900 H   0  0  0  0  0  0  0  0  0  0  0  0
   37.1080   32.5630   41.3940 H   0  0  0  0  0  0  0  0  0  0  0  0
   38.0180   28.0780   38.4880 H   0  0  0  0  0  0  0  0  0  0  0  0
   37.0860   25.7240   41.7700 C   0  0  0  0  0  3  0  0  0  0  0  0
   37.4090   26.4560   40.6470 C   0  0  0  0  0  0  0  0  0  0  0  0
   37.8640   25.6650   39.6080 C   0  0  0  0  0  0  0  0  0  0  0  0
   38.1500   26.1440   38.6640 H   0  0  0  0  0  0  0  0  0  0  0  0
   38.0000   24.2930   39.6360 C   0  0  0  0  0  0  0  0  0  0  0  0
   38.4180   23.3970   38.7340 N   0  0  0  0  0  0  0  0  0  0  0  0
   38.3410   22.1820   39.3130 C   0  0  0  0  0  0  0  0  0  0  0  0
   38.5800   21.1950   38.9370 H   0  0  0  0  0  0  0  0  0  0  0  0
   37.8720   22.3460   40.5770 N   0  0  0  0  0  0  0  0  0  0  0  0
   37.6570   23.6400   40.7940 C   0  0  0  0  0  0  0  0  0  0  0  0
   37.1940   24.3560   41.8760 C   0  0  0  0  0  3  0  0  0  0  0  0
   38.7480   23.5620   37.7590 H   0  0  0  0  0  0  0  0  0  0  0  0
  1  6  2  0  0  0  0
  1  2  1  0  0  0  0
  2  3  2  0  0  0  0
  3 12  1  0  0  0  0
  4  3  1  0  0  0  0
  5  9  1  0  0  0  0
  5  4  2  0  0  0  0
  6  5  1  0  0  0  0
  7 15  1  0  0  0  0
  7  8  2  0  0  0  0
  9  7  1  0  0  0  0
 10  1  1  0  0  0  0
 11  2  1  0  0  0  0
 13  9  1  0  0  0  0
 14 24  1  0  0  0  0
 15 14  2  0  0  0  0
 16 18  2  0  0  0  0
 16 15  1  0  0  0  0
 17 16  1  0  0  0  0
 18 23  1  0  0  0  0
 19 20  1  0  0  0  0
 19 18  1  0  0  0  0
 20 22  2  0  0  0  0
 21 20  1  0  0  0  0
 22 23  1  0  0  0  0
 23 24  2  0  0  0  0
 25 19  1  0  0  0  0
M  END
>  <minimizedAffinity>
-4.52473307

$$$$

 OpenBabel03242510523D

 25 27  0  0  0  0  0  0  0  0999 V2000
   39.3490   24.5580   42.8640 C   0  0  0  0  0  0  0  0  0  0  0  0
   40.0480   25.5440   43.6110 C   0  0  0  0  0  0  0  0  0  0  0  0
   39.9540   26.8860   43.1900 C   0  0  0  0  0  0  0  0  0  0  0  0
   39.1930   27.1450   42.0870 N   0  0  0  0  0  0  0  0  0  0  0  0
   38.5450   26.1930   41.4030 C   0  0  0  0  0  0  0  0  0  0  0  0
   38.6300   24.9030   41.8000 N   0  0  0  0  0  0  0  0  0  0  0  0
   38.0040   27.8550   39.7280 C   0  0  0  0  0  0  0  0  0  0  0  0
   38.8340   28.6940   40.1810 O   0  0  0  0  0  0  0  0  0  0  0  0
   37.7790   26.5660   40.2670 N   0  0  0  0  0  0  0  0  0  0  0  0
   39.3710   23.5080   43.1220 H   0  0  0  0  0  0  0  0  0  0  0  0
   40.6200   25.2150   44.4690 H   0  0  0  0  0  0  0  0  0  0  0  0
   40.4830   27.6240   43.7580 H   0  0  0  0  0  0  0  0  0  0  0  0
   37.0990   25.8690   39.9040 H   0  0  0  0  0  0  0  0  0  0  0  0
   35.9340   28.7180   38.6030 C   0  0  0  0  0  3  0  0  0  0  0  0
   37.2420   28.2860   38.5620 C   0  0  0  0  0  0  0  0  0  0  0  0
   37.7680   28.2990   37.2830 C   0  0  0  0  0  0  0  0  0  0  0  0
   38.8050   27.9740   37.1340 H   0  0  0  0  0  0  0  0  0  0  0  0
   37.1050   28.6930   36.1400 C   0  0  0  0  0  0  0  0  0  0  0  0
   37.4630   28.7630   34.8530 N   0  0  0  0  0  0  0  0  0  0  0  0
   36.3990   29.2230   34.1660 C   0  0  0  0  0  0  0  0  0  0  0  0
   36.2620   29.4260   33.1110 H   0  0  0  0  0  0  0  0  0  0  0  0
   35.3860   29.4320   35.0470 N   0  0  0  0  0  0  0  0  0  0  0  0
   35.8030   29.1090   36.2680 C   0  0  0  0  0  0  0  0  0  0  0  0
   35.2040   29.1260   37.5090 C   0  0  0  0  0  3  0  0  0  0  0  0
   38.3810   28.5200   34.4200 H   0  0  0  0  0  0  0  0  0  0  0  0
  1 10  1  0  0  0  0
  1  2  1  0  0  0  0
  2 11  1  0  0  0  0
  3  2  2  0  0  0  0
  3 12  1  0  0  0  0
  4  3  1  0  0  0  0
  5  6  1  0  0  0  0
  5  4  2  0  0  0  0
  6  1  2  0  0  0  0
  7  8  2  0  0  0  0
  7  9  1  0  0  0  0
  9  5  1  0  0  0  0
 13  9  1  0  0  0  0
 15 14  1  0  0  0  0
 15  7  1  0  0  0  0
 16 15  2  0  0  0  0
 17 16  1  0  0  0  0
 18 23  2  0  0  0  0
 18 16  1  0  0  0  0
 19 18  1  0  0  0  0
 20 19  1  0  0  0  0
 20 22  2  0  0  0  0
 21 20  1  0  0  0  0
 22 23  1  0  0  0  0
 23 24  1  0  0  0  0
 24 14  2  0  0  0  0
 25 19  1  0  0  0  0
M  END
>  <minimizedAffinity>
-4.47646904

$$$$

 OpenBabel03242510523D

 25 27  0  0  0  0  0  0  0  0999 V2000
   41.7930   32.9190   37.3130 C   0  0  0  0  0  0  0  0  0  0  0  0
   41.8420   34.1180   38.0750 C   0  0  0  0  0  0  0  0  0  0  0  0
   41.2970   34.1010   39.3750 C   0  0  0  0  0  0  0  0  0  0  0  0
   40.7580   32.9260   39.8130 N   0  0  0  0  0  0  0  0  0  0  0  0
   40.7270   31.8110   39.0700 C   0  0  0  0  0  0  0  0  0  0  0  0
   41.2470   31.8190   37.8220 N   0  0  0  0  0  0  0  0  0  0  0  0
   39.3380   30.7940   40.7720 C   0  0  0  0  0  0  0  0  0  0  0  0
   39.1020   31.8940   41.3470 O   0  0  0  0  0  0  0  0  0  0  0  0
   40.1430   30.6380   39.6190 N   0  0  0  0  0  0  0  0  0  0  0  0
   42.1890   32.8520   36.3090 H   0  0  0  0  0  0  0  0  0  0  0  0
   42.2960   34.9880   37.6180 H   0  0  0  0  0  0  0  0  0  0  0  0
   41.3370   35.0080   39.9440 H   0  0  0  0  0  0  0  0  0  0  0  0
   40.3450   29.7390   39.1380 H   0  0  0  0  0  0  0  0  0  0  0  0
   38.2900   29.5480   42.6820 C   0  0  0  0  0  3  0  0  0  0  0  0
   38.7160   29.6200   41.3730 C   0  0  0  0  0  0  0  0  0  0  0  0
   38.4930   28.4470   40.6750 C   0  0  0  0  0  0  0  0  0  0  0  0
   38.7940   28.3920   39.6220 H   0  0  0  0  0  0  0  0  0  0  0  0
   37.9110   27.3030   41.1800 C   0  0  0  0  0  0  0  0  0  0  0  0
   37.6290   26.1090   40.6480 N   0  0  0  0  0  0  0  0  0  0  0  0
   37.0560   25.3650   41.6150 C   0  0  0  0  0  0  0  0  0  0  0  0
   36.6800   24.3500   41.6080 H   0  0  0  0  0  0  0  0  0  0  0  0
   36.9920   26.1180   42.7440 N   0  0  0  0  0  0  0  0  0  0  0  0
   37.5150   27.3150   42.4950 C   0  0  0  0  0  0  0  0  0  0  0  0
   37.7030   28.4450   43.2600 C   0  0  0  0  0  3  0  0  0  0  0  0
   37.8010   25.7740   39.6750 H   0  0  0  0  0  0  0  0  0  0  0  0
  1  6  2  0  0  0  0
  1  2  1  0  0  0  0
  2  3  2  0  0  0  0
  3  4  1  0  0  0  0
  3 12  1  0  0  0  0
  5  9  1  0  0  0  0
  5  4  2  0  0  0  0
  6  5  1  0  0  0  0
  7  8  2  0  0  0  0
  7 15  1  0  0  0  0
  9  7  1  0  0  0  0
 10  1  1  0  0  0  0
 11  2  1  0  0  0  0
 13  9  1  0  0  0  0
 14 24  1  0  0  0  0
 15 14  2  0  0  0  0
 16 18  2  0  0  0  0
 16 15  1  0  0  0  0
 17 16  1  0  0  0  0
 18 23  1  0  0  0  0
 19 18  1  0  0  0  0
 19 20  1  0  0  0  0
 20 22  2  0  0  0  0
 21 20  1  0  0  0  0
 23 22  1  0  0  0  0
 23 24  2  0  0  0  0
 25 19  1  0  0  0  0
M  END
>  <minimizedAffinity>
-4.46840096

$$$$
