
 OpenBabel03252508003D

 32 35  0  0  1  0  0  0  0  0999 V2000
   46.6610   34.7740   43.1590 C   0  0  0  0  0  0  0  0  0  0  0  0
   45.5780   35.6870   43.3260 C   0  0  0  0  0  0  0  0  0  0  0  0
   44.7080   35.4730   44.4050 C   0  0  0  0  0  0  0  0  0  0  0  0
   44.9530   34.4170   45.2150 N   0  0  0  0  0  0  0  0  0  0  0  0
   46.0160   33.5740   44.9970 C   0  0  0  0  0  0  0  0  0  0  0  0
   46.8630   33.7350   43.9920 N   0  0  0  0  0  0  0  0  0  0  0  0
   45.4310   36.5160   42.6470 H   0  0  0  0  0  0  0  0  0  0  0  0
   43.8760   36.1370   44.5700 H   0  0  0  0  0  0  0  0  0  0  0  0
   46.2340   32.4340   45.9440 C   0  0  1  0  0  0  0  0  0  0  0  0
   46.9860   32.6860   47.2310 C   0  0  0  0  0  0  0  0  0  0  0  0
   45.4890   32.5450   47.2150 C   0  0  1  0  0  0  0  0  0  0  0  0
   46.4080   31.4340   45.5030 H   0  0  0  0  0  0  0  0  0  0  0  0
   47.4570   33.7000   47.2630 H   0  0  0  0  0  0  0  0  0  0  0  0
   47.6150   31.8800   47.6170 H   0  0  0  0  0  0  0  0  0  0  0  0
   45.0790   31.6870   47.7520 H   0  0  0  0  0  0  0  0  0  0  0  0
   44.8210   33.8070   47.5500 N   0  0  0  0  0  0  0  0  0  0  0  0
   45.1840   34.0960   48.5080 H   0  0  0  0  0  0  0  0  0  0  0  0
   43.8050   33.6670   47.6800 H   0  0  0  0  0  0  0  0  0  0  0  0
   47.5090   35.0640   42.0430 C   0  0  0  0  0  0  0  0  0  0  0  0
   48.4930   35.8800   42.0920 O   0  0  0  0  0  0  0  0  0  0  0  0
   46.2610   33.7130   40.3590 C   0  0  0  0  0  3  0  0  0  0  0  0
   47.3580   34.4690   40.7180 C   0  0  0  0  0  0  0  0  0  0  0  0
   48.3270   34.6400   39.7430 C   0  0  0  0  0  0  0  0  0  0  0  0
   49.2050   35.2100   39.9390 H   0  0  0  0  0  0  0  0  0  0  0  0
   48.1990   34.0800   38.4690 C   0  0  0  0  0  0  0  0  0  0  0  0
   48.9760   34.0910   37.3580 N   0  0  0  0  0  0  0  0  0  0  0  0
   48.3870   33.3820   36.3800 C   0  0  0  0  0  0  0  0  0  0  0  0
   48.7010   33.1700   35.3640 H   0  0  0  0  0  0  0  0  0  0  0  0
   47.2060   32.9090   36.8750 N   0  0  0  0  0  0  0  0  0  0  0  0
   47.0830   33.3280   38.1470 C   0  0  0  0  0  0  0  0  0  0  0  0
   46.0960   33.1410   39.1120 C   0  0  0  0  0  3  0  0  0  0  0  0
   49.9010   34.5780   37.2680 H   0  0  0  0  0  0  0  0  0  0  0  0
  1  2  2  0  0  0  0
  1  6  1  0  0  0  0
  2  3  1  0  0  0  0
  3  8  1  0  0  0  0
  3  4  2  0  0  0  0
  5  4  1  0  0  0  0
  5  9  1  0  0  0  0
  6  5  2  0  0  0  0
  7  2  1  0  0  0  0
  9 12  1  6  0  0  0
  9 11  1  0  0  0  0
  9 10  1  0  0  0  0
 10 13  1  0  0  0  0
 10 14  1  0  0  0  0
 11 10  1  0  0  0  0
 11 16  1  0  0  0  0
 11 15  1  1  0  0  0
 16 18  1  0  0  0  0
 16 17  1  0  0  0  0
 19 20  2  0  0  0  0
 19  1  1  0  0  0  0
 21 22  1  0  0  0  0
 22 19  1  0  0  0  0
 23 24  1  0  0  0  0
 23 22  2  0  0  0  0
 25 23  1  0  0  0  0
 26 25  1  0  0  0  0
 27 29  2  0  0  0  0
 27 26  1  0  0  0  0
 28 27  1  0  0  0  0
 29 30  1  0  0  0  0
 30 25  2  0  0  0  0
 30 31  1  0  0  0  0
 31 21  2  0  0  0  0
 32 26  1  0  0  0  0
M  END
>  <minimizedAffinity>
-6.55653763

>  <minimizedRMSD>
1.38570511

$$$$
