
 OpenBabel03242517003D

 35 38  0  0  0  0  0  0  0  0999 V2000
   46.7030   34.7880   41.9960 C   0  0  0  0  0  0  0  0  0  0  0  0
   47.9670   35.3780   41.9330 C   0  0  0  0  0  0  0  0  0  0  0  0
   48.7120   35.2360   40.7760 C   0  0  0  0  0  0  0  0  0  0  0  0
   48.1940   34.5190   39.7170 C   0  0  0  0  0  0  0  0  0  0  0  0
   46.9660   33.9300   39.7390 C   0  0  0  0  0  0  0  0  0  0  0  0
   46.2330   34.0920   40.9290 C   0  0  0  0  0  0  0  0  0  0  0  0
   48.3550   35.9380   42.7810 H   0  0  0  0  0  0  0  0  0  0  0  0
   49.6820   35.7150   40.7900 H   0  0  0  0  0  0  0  0  0  0  0  0
   48.7930   34.4200   38.8200 H   0  0  0  0  0  0  0  0  0  0  0  0
   46.5490   33.3660   38.9150 H   0  0  0  0  0  0  0  0  0  0  0  0
   44.5000   36.0980   44.7690 C   0  0  0  0  0  0  0  0  0  0  0  0
   45.1610   36.0470   43.5130 C   0  0  0  0  0  0  0  0  0  0  0  0
   45.9660   34.9700   43.2370 C   0  0  0  0  0  0  0  0  0  0  0  0
   46.0860   33.9970   44.2000 N   0  0  0  0  0  0  0  0  0  0  0  0
   45.4550   34.0530   45.3890 C   0  0  0  0  0  0  0  0  0  0  0  0
   44.6480   35.1240   45.6750 N   0  0  0  0  0  0  0  0  0  0  0  0
   43.8690   36.9570   44.9640 H   0  0  0  0  0  0  0  0  0  0  0  0
   45.0570   36.8210   42.7650 H   0  0  0  0  0  0  0  0  0  0  0  0
   45.6360   33.2180   46.0580 H   0  0  0  0  0  0  0  0  0  0  0  0
   43.6150   33.9360   40.8290 C   0  0  0  0  0  0  0  0  0  0  0  0
   43.2810   35.0190   40.2960 O   0  0  0  0  0  0  0  0  0  0  0  0
   44.9460   33.5280   41.0860 N   0  0  0  0  0  0  0  0  0  0  0  0
   45.2100   32.6010   41.4900 H   0  0  0  0  0  0  0  0  0  0  0  0
   41.2500   33.3940   40.8210 C   0  0  0  0  0  3  0  0  0  0  0  0
   42.5250   33.0460   41.2060 C   0  0  0  0  0  0  0  0  0  0  0  0
   42.6310   31.8710   41.9170 C   0  0  0  0  0  0  0  0  0  0  0  0
   43.6160   31.5720   42.2330 H   0  0  0  0  0  0  0  0  0  0  0  0
   41.5600   31.0740   42.2420 C   0  0  0  0  0  0  0  0  0  0  0  0
   41.4460   29.9160   42.9120 N   0  0  0  0  0  0  0  0  0  0  0  0
   40.1380   29.5590   42.9410 C   0  0  0  0  0  0  0  0  0  0  0  0
   39.6390   28.7190   43.3710 H   0  0  0  0  0  0  0  0  0  0  0  0
   39.4130   30.4980   42.2830 N   0  0  0  0  0  0  0  0  0  0  0  0
   40.2870   31.4280   41.8530 C   0  0  0  0  0  0  0  0  0  0  0  0
   40.1400   32.5980   41.1380 C   0  0  0  0  0  3  0  0  0  0  0  0
   42.1950   29.3500   43.3530 H   0  0  0  0  0  0  0  0  0  0  0  0
  1 13  1  0  0  0  0
  2  1  1  0  0  0  0
  2  7  1  0  0  0  0
  3  8  1  0  0  0  0
  3  2  2  0  0  0  0
  4  5  2  0  0  0  0
  4  3  1  0  0  0  0
  5  6  1  0  0  0  0
  6 22  1  0  0  0  0
  6  1  2  0  0  0  0
  9  4  1  0  0  0  0
 10  5  1  0  0  0  0
 11 17  1  0  0  0  0
 11 16  1  0  0  0  0
 12 11  2  0  0  0  0
 13 12  1  0  0  0  0
 13 14  2  0  0  0  0
 14 15  1  0  0  0  0
 15 16  2  0  0  0  0
 15 19  1  0  0  0  0
 18 12  1  0  0  0  0
 20 22  1  0  0  0  0
 20 25  1  0  0  0  0
 21 20  2  0  0  0  0
 22 23  1  0  0  0  0
 24 34  2  0  0  0  0
 24 25  1  0  0  0  0
 25 26  2  0  0  0  0
 26 27  1  0  0  0  0
 26 28  1  0  0  0  0
 28 29  1  0  0  0  0
 29 30  1  0  0  0  0
 29 35  1  0  0  0  0
 30 31  1  0  0  0  0
 32 30  2  0  0  0  0
 33 28  2  0  0  0  0
 33 32  1  0  0  0  0
 34 33  1  0  0  0  0
M  END
>  <minimizedAffinity>
-6.70912695

>  <minimizedRMSD>
0.975682855

$$$$
