
 OpenBabel03252508003D

 32 35  0  0  1  0  0  0  0  0999 V2000
   47.6900   30.8580   44.8430 C   0  0  0  0  0  0  0  0  0  0  0  0
   47.4310   32.1000   44.1890 C   0  0  0  0  0  0  0  0  0  0  0  0
   46.4500   32.9330   44.7420 C   0  0  0  0  0  0  0  0  0  0  0  0
   45.8130   32.5070   45.8580 N   0  0  0  0  0  0  0  0  0  0  0  0
   46.1100   31.2980   46.4390 C   0  0  0  0  0  0  0  0  0  0  0  0
   47.0280   30.4770   45.9530 N   0  0  0  0  0  0  0  0  0  0  0  0
   47.9720   32.3890   43.2990 H   0  0  0  0  0  0  0  0  0  0  0  0
   46.2200   33.8800   44.2830 H   0  0  0  0  0  0  0  0  0  0  0  0
   45.3750   30.8980   47.6810 C   0  0  1  0  0  0  0  0  0  0  0  0
   45.8380   31.4450   49.0130 C   0  0  0  0  0  0  0  0  0  0  0  0
   44.6200   31.9940   48.3230 C   0  0  1  0  0  0  0  0  0  0  0  0
   44.9770   29.8670   47.7260 H   0  0  0  0  0  0  0  0  0  0  0  0
   46.8180   31.9810   48.9410 H   0  0  0  0  0  0  0  0  0  0  0  0
   45.7360   30.8010   49.8890 H   0  0  0  0  0  0  0  0  0  0  0  0
   43.6680   31.8510   48.8390 H   0  0  0  0  0  0  0  0  0  0  0  0
   44.8270   33.3740   47.8700 N   0  0  0  0  0  0  0  0  0  0  0  0
   45.0860   33.9400   48.7340 H   0  0  0  0  0  0  0  0  0  0  0  0
   43.9440   33.7910   47.5310 H   0  0  0  0  0  0  0  0  0  0  0  0
   48.7100   30.0670   44.2250 C   0  0  0  0  0  0  0  0  0  0  0  0
   49.2710   29.0660   44.7900 O   0  0  0  0  0  0  0  0  0  0  0  0
   48.5140   30.0270   41.7390 C   0  0  0  0  0  3  0  0  0  0  0  0
   49.2350   30.3040   42.8840 C   0  0  0  0  0  0  0  0  0  0  0  0
   50.5040   30.8280   42.6940 C   0  0  0  0  0  0  0  0  0  0  0  0
   51.1250   31.0690   43.5250 H   0  0  0  0  0  0  0  0  0  0  0  0
   51.0220   31.0610   41.4180 C   0  0  0  0  0  0  0  0  0  0  0  0
   52.2000   31.5510   40.9610 N   0  0  0  0  0  0  0  0  0  0  0  0
   52.1980   31.5730   39.6170 C   0  0  0  0  0  0  0  0  0  0  0  0
   52.9510   31.8920   38.9070 H   0  0  0  0  0  0  0  0  0  0  0  0
   50.9910   31.0840   39.2050 N   0  0  0  0  0  0  0  0  0  0  0  0
   50.2690   30.7700   40.2940 C   0  0  0  0  0  0  0  0  0  0  0  0
   48.9900   30.2430   40.4620 C   0  0  0  0  0  3  0  0  0  0  0  0
   53.0000   31.8700   41.5600 H   0  0  0  0  0  0  0  0  0  0  0  0
  1  6  1  0  0  0  0
  2  3  1  0  0  0  0
  2  1  2  0  0  0  0
  3  4  2  0  0  0  0
  4  5  1  0  0  0  0
  5  9  1  0  0  0  0
  6  5  2  0  0  0  0
  7  2  1  0  0  0  0
  8  3  1  0  0  0  0
  9 12  1  1  0  0  0
  9 11  1  0  0  0  0
  9 10  1  0  0  0  0
 10 14  1  0  0  0  0
 11 15  1  1  0  0  0
 11 10  1  0  0  0  0
 13 10  1  0  0  0  0
 16 11  1  0  0  0  0
 16 17  1  0  0  0  0
 18 16  1  0  0  0  0
 19 20  2  0  0  0  0
 19  1  1  0  0  0  0
 21 22  1  0  0  0  0
 22 19  1  0  0  0  0
 23 22  2  0  0  0  0
 23 24  1  0  0  0  0
 25 23  1  0  0  0  0
 26 25  1  0  0  0  0
 26 32  1  0  0  0  0
 27 26  1  0  0  0  0
 28 27  1  0  0  0  0
 29 27  2  0  0  0  0
 29 30  1  0  0  0  0
 30 31  1  0  0  0  0
 30 25  2  0  0  0  0
 31 21  2  0  0  0  0
M  END
>  <minimizedAffinity>
-4.2374382

>  <minimizedRMSD>
5.41334629

$$$$
