
 OpenBabel03252508003D

 32 35  0  0  1  0  0  0  0  0999 V2000
   46.6600   34.7540   43.0740 C   0  0  0  0  0  0  0  0  0  0  0  0
   45.6060   35.6980   43.2550 C   0  0  0  0  0  0  0  0  0  0  0  0
   44.7520   35.5170   44.3520 C   0  0  0  0  0  0  0  0  0  0  0  0
   44.9840   34.4600   45.1660 N   0  0  0  0  0  0  0  0  0  0  0  0
   46.0180   33.5870   44.9350 C   0  0  0  0  0  0  0  0  0  0  0  0
   46.8500   33.7160   43.9130 N   0  0  0  0  0  0  0  0  0  0  0  0
   45.4690   36.5240   42.5720 H   0  0  0  0  0  0  0  0  0  0  0  0
   43.9420   36.2050   44.5280 H   0  0  0  0  0  0  0  0  0  0  0  0
   46.2230   32.4490   45.8870 C   0  0  1  0  0  0  0  0  0  0  0  0
   46.9760   32.6990   47.1750 C   0  0  0  0  0  0  0  0  0  0  0  0
   45.4770   32.5730   47.1570 C   0  0  1  0  0  0  0  0  0  0  0  0
   46.3880   31.4460   45.4520 H   0  0  0  0  0  0  0  0  0  0  0  0
   47.4570   33.7090   47.2030 H   0  0  0  0  0  0  0  0  0  0  0  0
   47.5950   31.8890   47.5660 H   0  0  0  0  0  0  0  0  0  0  0  0
   45.0580   31.7220   47.6970 H   0  0  0  0  0  0  0  0  0  0  0  0
   44.8210   33.8430   47.4860 N   0  0  0  0  0  0  0  0  0  0  0  0
   45.1860   34.1340   48.4430 H   0  0  0  0  0  0  0  0  0  0  0  0
   43.8030   33.7140   47.6140 H   0  0  0  0  0  0  0  0  0  0  0  0
   47.4940   35.0100   41.9400 C   0  0  0  0  0  0  0  0  0  0  0  0
   48.5110   35.7870   41.9680 O   0  0  0  0  0  0  0  0  0  0  0  0
   48.2060   34.5520   39.5950 C   0  0  0  0  0  3  0  0  0  0  0  0
   47.2900   34.4240   40.6190 C   0  0  0  0  0  0  0  0  0  0  0  0
   46.1460   33.6980   40.3270 C   0  0  0  0  0  0  0  0  0  0  0  0
   45.3900   33.5530   41.0630 H   0  0  0  0  0  0  0  0  0  0  0  0
   45.9350   33.1300   39.0690 C   0  0  0  0  0  0  0  0  0  0  0  0
   44.9320   32.3930   38.5310 N   0  0  0  0  0  0  0  0  0  0  0  0
   45.2200   32.0890   37.2530 C   0  0  0  0  0  0  0  0  0  0  0  0
   44.6690   31.5230   36.5130 H   0  0  0  0  0  0  0  0  0  0  0  0
   46.4340   32.6450   36.9680 N   0  0  0  0  0  0  0  0  0  0  0  0
   46.8770   33.2800   38.0660 C   0  0  0  0  0  0  0  0  0  0  0  0
   48.0350   34.0070   38.3380 C   0  0  0  0  0  3  0  0  0  0  0  0
   44.0580   32.0980   39.0310 H   0  0  0  0  0  0  0  0  0  0  0  0
  1  2  2  0  0  0  0
  1  6  1  0  0  0  0
  2  3  1  0  0  0  0
  3  8  1  0  0  0  0
  3  4  2  0  0  0  0
  5  4  1  0  0  0  0
  5  9  1  0  0  0  0
  6  5  2  0  0  0  0
  7  2  1  0  0  0  0
  9 12  1  6  0  0  0
  9 11  1  0  0  0  0
  9 10  1  0  0  0  0
 10 13  1  0  0  0  0
 10 14  1  0  0  0  0
 11 10  1  0  0  0  0
 11 16  1  0  0  0  0
 11 15  1  1  0  0  0
 16 18  1  0  0  0  0
 16 17  1  0  0  0  0
 19 20  2  0  0  0  0
 19  1  1  0  0  0  0
 21 22  1  0  0  0  0
 22 19  1  0  0  0  0
 23 22  2  0  0  0  0
 23 24  1  0  0  0  0
 25 23  1  0  0  0  0
 26 32  1  0  0  0  0
 26 25  1  0  0  0  0
 27 26  1  0  0  0  0
 28 27  1  0  0  0  0
 29 27  2  0  0  0  0
 29 30  1  0  0  0  0
 30 31  1  0  0  0  0
 30 25  2  0  0  0  0
 31 21  2  0  0  0  0
M  END
>  <minimizedAffinity>
-6.21707678

>  <minimizedRMSD>
1.16026151

$$$$
