
 OpenBabel03252501333D

 27 29  0  0  0  0  0  0  0  0999 V2000
   38.5480   29.8730   41.2960 C   0  0  0  0  0  0  0  0  0  0  0  0
   38.9030   30.6840   42.2140 O   0  0  0  0  0  0  0  0  0  0  0  0
   38.6530   30.4450   39.9810 N   0  0  0  0  0  0  0  0  0  0  0  0
   38.4040   29.8890   39.1720 H   0  0  0  0  0  0  0  0  0  0  0  0
   37.3330   28.3630   42.7000 C   0  0  0  0  0  3  0  0  0  0  0  0
   38.0970   28.5390   41.5720 C   0  0  0  0  0  0  0  0  0  0  0  0
   38.4480   27.5240   40.7100 C   0  0  0  0  0  0  0  0  0  0  0  0
   39.0370   27.6230   39.8300 H   0  0  0  0  0  0  0  0  0  0  0  0
   37.9590   26.2640   41.0690 C   0  0  0  0  0  0  0  0  0  0  0  0
   38.1240   25.0650   40.4380 N   0  0  0  0  0  0  0  0  0  0  0  0
   37.4870   24.1010   41.1190 C   0  0  0  0  0  0  0  0  0  0  0  0
   37.4600   23.0510   40.8290 H   0  0  0  0  0  0  0  0  0  0  0  0
   36.9180   24.6950   42.1860 N   0  0  0  0  0  0  0  0  0  0  0  0
   37.1770   26.0050   42.1980 C   0  0  0  0  0  0  0  0  0  0  0  0
   36.8670   27.0900   43.0200 C   0  0  0  0  0  3  0  0  0  0  0  0
   38.6690   24.9220   39.5480 H   0  0  0  0  0  0  0  0  0  0  0  0
   39.1310   31.8060   40.1130 C   0  0  0  0  0  0  0  0  0  0  0  0
   38.3310   32.9120   40.3360 C   0  0  0  0  0  0  0  0  0  0  0  0
   38.9690   34.1320   40.4320 C   0  0  0  0  0  0  0  0  0  0  0  0
   40.3060   34.1600   40.3050 N   0  0  0  0  0  0  0  0  0  0  0  0
   41.0580   33.0740   40.0890 C   0  0  0  0  0  0  0  0  0  0  0  0
   40.4660   31.8580   39.9880 N   0  0  0  0  0  0  0  0  0  0  0  0
   38.3310   34.9890   40.6070 H   0  0  0  0  0  0  0  0  0  0  0  0
   42.1230   33.2490   40.0070 H   0  0  0  0  0  0  0  0  0  0  0  0
   36.9330   32.6750   40.4420 N   0  0  0  0  0  0  0  0  0  0  0  0
   36.2590   32.9540   41.1820 H   0  0  0  0  0  0  0  0  0  0  0  0
   36.5260   32.1270   39.6340 H   0  0  0  0  0  0  0  0  0  0  0  0
  1  6  1  0  0  0  0
  1  2  2  0  0  0  0
  3 17  1  0  0  0  0
  3  1  1  0  0  0  0
  4  3  1  0  0  0  0
  5 15  1  0  0  0  0
  6  5  2  0  0  0  0
  7  9  2  0  0  0  0
  7  6  1  0  0  0  0
  8  7  1  0  0  0  0
  9 14  1  0  0  0  0
 10  9  1  0  0  0  0
 10 11  1  0  0  0  0
 11 13  2  0  0  0  0
 12 11  1  0  0  0  0
 13 14  1  0  0  0  0
 14 15  2  0  0  0  0
 16 10  1  0  0  0  0
 17 18  1  0  0  0  0
 18 19  2  0  0  0  0
 18 25  1  0  0  0  0
 19 23  1  0  0  0  0
 20 19  1  0  0  0  0
 21 20  2  0  0  0  0
 22 21  1  0  0  0  0
 22 17  2  0  0  0  0
 24 21  1  0  0  0  0
 25 26  1  0  0  0  0
 27 25  1  0  0  0  0
M  END
>  <minimizedAffinity>
-5.34029293

$$$$

 OpenBabel03252501333D

 27 29  0  0  0  0  0  0  0  0999 V2000
   38.5990   31.1540   39.0840 C   0  0  0  0  0  0  0  0  0  0  0  0
   38.6130   29.8810   39.1180 O   0  0  0  0  0  0  0  0  0  0  0  0
   37.2660   31.6930   39.0630 N   0  0  0  0  0  0  0  0  0  0  0  0
   37.1320   32.6970   39.0440 H   0  0  0  0  0  0  0  0  0  0  0  0
   40.2760   32.3680   40.2860 C   0  0  0  0  0  3  0  0  0  0  0  0
   39.7980   31.9420   39.0700 C   0  0  0  0  0  0  0  0  0  0  0  0
   40.3970   32.2260   37.8630 C   0  0  0  0  0  0  0  0  0  0  0  0
   40.0570   31.9150   36.9040 H   0  0  0  0  0  0  0  0  0  0  0  0
   41.5580   33.0000   37.9590 C   0  0  0  0  0  0  0  0  0  0  0  0
   42.3780   33.4490   36.9650 N   0  0  0  0  0  0  0  0  0  0  0  0
   43.3850   34.1610   37.4920 C   0  0  0  0  0  0  0  0  0  0  0  0
   44.1800   34.6310   36.9150 H   0  0  0  0  0  0  0  0  0  0  0  0
   43.2000   34.1600   38.8270 N   0  0  0  0  0  0  0  0  0  0  0  0
   42.1050   33.4700   39.1570 C   0  0  0  0  0  0  0  0  0  0  0  0
   41.4360   33.1370   40.3350 C   0  0  0  0  0  3  0  0  0  0  0  0
   42.2380   33.2630   35.9380 H   0  0  0  0  0  0  0  0  0  0  0  0
   36.3280   30.5900   39.0750 C   0  0  0  0  0  0  0  0  0  0  0  0
   35.6100   30.1690   40.1800 C   0  0  0  0  0  0  0  0  0  0  0  0
   34.7610   29.0950   39.9980 C   0  0  0  0  0  0  0  0  0  0  0  0
   34.6930   28.5420   38.7760 N   0  0  0  0  0  0  0  0  0  0  0  0
   35.4000   28.9680   37.7230 C   0  0  0  0  0  0  0  0  0  0  0  0
   36.2440   30.0200   37.8630 N   0  0  0  0  0  0  0  0  0  0  0  0
   34.2050   28.7770   40.8700 H   0  0  0  0  0  0  0  0  0  0  0  0
   35.2430   28.4250   36.8000 H   0  0  0  0  0  0  0  0  0  0  0  0
   35.8210   30.8870   41.3880 N   0  0  0  0  0  0  0  0  0  0  0  0
   35.1390   31.3340   42.0320 H   0  0  0  0  0  0  0  0  0  0  0  0
   36.8380   30.9740   41.6650 H   0  0  0  0  0  0  0  0  0  0  0  0
  1  2  2  0  0  0  0
  3 17  1  0  0  0  0
  3  1  1  0  0  0  0
  4  3  1  0  0  0  0
  5 15  1  0  0  0  0
  6  1  1  0  0  0  0
  6  5  2  0  0  0  0
  7  9  2  0  0  0  0
  7  6  1  0  0  0  0
  8  7  1  0  0  0  0
  9 14  1  0  0  0  0
 10 11  1  0  0  0  0
 10  9  1  0  0  0  0
 11 13  2  0  0  0  0
 12 11  1  0  0  0  0
 13 14  1  0  0  0  0
 14 15  2  0  0  0  0
 16 10  1  0  0  0  0
 17 18  1  0  0  0  0
 18 25  1  0  0  0  0
 19 18  2  0  0  0  0
 19 23  1  0  0  0  0
 20 19  1  0  0  0  0
 21 22  1  0  0  0  0
 21 20  2  0  0  0  0
 22 17  2  0  0  0  0
 24 21  1  0  0  0  0
 25 27  1  0  0  0  0
 25 26  1  0  0  0  0
M  END
>  <minimizedAffinity>
-5.17189932

$$$$

 OpenBabel03252501333D

 27 29  0  0  0  0  0  0  0  0999 V2000
   37.6920   29.5500   41.1480 C   0  0  0  0  0  0  0  0  0  0  0  0
   36.9620   30.4310   41.7100 O   0  0  0  0  0  0  0  0  0  0  0  0
   38.6200   30.1170   40.2080 N   0  0  0  0  0  0  0  0  0  0  0  0
   39.2580   29.5110   39.7060 H   0  0  0  0  0  0  0  0  0  0  0  0
   36.9060   27.8070   42.5870 C   0  0  0  0  0  3  0  0  0  0  0  0
   37.5800   28.1500   41.4400 C   0  0  0  0  0  0  0  0  0  0  0  0
   38.1430   27.2400   40.5730 C   0  0  0  0  0  0  0  0  0  0  0  0
   38.6710   27.4670   39.6790 H   0  0  0  0  0  0  0  0  0  0  0  0
   37.9780   25.9020   40.9490 C   0  0  0  0  0  0  0  0  0  0  0  0
   38.4100   24.7720   40.3190 N   0  0  0  0  0  0  0  0  0  0  0  0
   38.0380   23.6900   41.0190 C   0  0  0  0  0  0  0  0  0  0  0  0
   38.2560   22.6610   40.7340 H   0  0  0  0  0  0  0  0  0  0  0  0
   37.3680   24.1410   42.0980 N   0  0  0  0  0  0  0  0  0  0  0  0
   37.3060   25.4750   42.0990 C   0  0  0  0  0  0  0  0  0  0  0  0
   36.7650   26.4620   42.9230 C   0  0  0  0  0  3  0  0  0  0  0  0
   38.9530   24.7540   39.4170 H   0  0  0  0  0  0  0  0  0  0  0  0
   38.4240   31.5520   40.1820 C   0  0  0  0  0  0  0  0  0  0  0  0
   39.0770   32.4590   40.9980 C   0  0  0  0  0  0  0  0  0  0  0  0
   38.7570   33.7910   40.8280 C   0  0  0  0  0  0  0  0  0  0  0  0
   37.8470   34.1100   39.8940 N   0  0  0  0  0  0  0  0  0  0  0  0
   37.2280   33.2110   39.1170 C   0  0  0  0  0  0  0  0  0  0  0  0
   37.5160   31.8940   39.2550 N   0  0  0  0  0  0  0  0  0  0  0  0
   39.2760   34.4890   41.4720 H   0  0  0  0  0  0  0  0  0  0  0  0
   36.5160   33.6150   38.4080 H   0  0  0  0  0  0  0  0  0  0  0  0
   40.0100   31.9220   41.9260 N   0  0  0  0  0  0  0  0  0  0  0  0
   41.0040   32.1690   42.0980 H   0  0  0  0  0  0  0  0  0  0  0  0
   39.6180   31.1510   42.5340 H   0  0  0  0  0  0  0  0  0  0  0  0
  1  6  1  0  0  0  0
  1  2  2  0  0  0  0
  3  1  1  0  0  0  0
  4  3  1  0  0  0  0
  5 15  1  0  0  0  0
  6  5  2  0  0  0  0
  7  9  2  0  0  0  0
  7  6  1  0  0  0  0
  8  7  1  0  0  0  0
  9 14  1  0  0  0  0
 10  9  1  0  0  0  0
 10 11  1  0  0  0  0
 11 13  2  0  0  0  0
 12 11  1  0  0  0  0
 13 14  1  0  0  0  0
 14 15  2  0  0  0  0
 16 10  1  0  0  0  0
 17  3  1  0  0  0  0
 17 18  1  0  0  0  0
 18 25  1  0  0  0  0
 19 18  2  0  0  0  0
 19 23  1  0  0  0  0
 20 19  1  0  0  0  0
 21 22  1  0  0  0  0
 21 20  2  0  0  0  0
 22 17  2  0  0  0  0
 24 21  1  0  0  0  0
 25 26  1  0  0  0  0
 25 27  1  0  0  0  0
M  END
>  <minimizedAffinity>
-5.12649298

$$$$

 OpenBabel03252501333D

 27 29  0  0  0  0  0  0  0  0999 V2000
   38.6910   31.2440   39.8020 C   0  0  0  0  0  0  0  0  0  0  0  0
   38.6360   29.9920   40.0330 O   0  0  0  0  0  0  0  0  0  0  0  0
   37.4620   31.7610   39.2640 N   0  0  0  0  0  0  0  0  0  0  0  0
   37.3870   32.7480   39.0480 H   0  0  0  0  0  0  0  0  0  0  0  0
   40.2330   32.9320   39.0950 C   0  0  0  0  0  3  0  0  0  0  0  0
   39.8630   32.0290   40.0620 C   0  0  0  0  0  0  0  0  0  0  0  0
   40.5440   31.8410   41.2450 C   0  0  0  0  0  0  0  0  0  0  0  0
   40.2880   31.1530   42.0150 H   0  0  0  0  0  0  0  0  0  0  0  0
   41.6710   32.6540   41.4010 C   0  0  0  0  0  0  0  0  0  0  0  0
   42.5520   32.7160   42.4410 N   0  0  0  0  0  0  0  0  0  0  0  0
   43.4940   33.6360   42.1870 C   0  0  0  0  0  0  0  0  0  0  0  0
   44.3160   33.8830   42.8570 H   0  0  0  0  0  0  0  0  0  0  0  0
   43.2060   34.1580   40.9780 N   0  0  0  0  0  0  0  0  0  0  0  0
   42.1100   33.5950   40.4630 C   0  0  0  0  0  0  0  0  0  0  0  0
   41.3630   33.7220   39.2910 C   0  0  0  0  0  3  0  0  0  0  0  0
   42.4970   32.1270   43.3130 H   0  0  0  0  0  0  0  0  0  0  0  0
   36.5230   30.6670   39.1360 C   0  0  0  0  0  0  0  0  0  0  0  0
   35.6870   30.2150   40.1410 C   0  0  0  0  0  0  0  0  0  0  0  0
   34.8570   29.1560   39.8310 C   0  0  0  0  0  0  0  0  0  0  0  0
   34.9190   28.6450   38.5900 N   0  0  0  0  0  0  0  0  0  0  0  0
   35.7400   29.1000   37.6350 C   0  0  0  0  0  0  0  0  0  0  0  0
   36.5680   30.1390   37.9020 N   0  0  0  0  0  0  0  0  0  0  0  0
   34.2080   28.8130   40.6260 H   0  0  0  0  0  0  0  0  0  0  0  0
   35.6800   28.5890   36.6830 H   0  0  0  0  0  0  0  0  0  0  0  0
   35.7690   30.8910   41.3880 N   0  0  0  0  0  0  0  0  0  0  0  0
   35.0230   31.3220   41.9690 H   0  0  0  0  0  0  0  0  0  0  0  0
   36.7500   30.9590   41.7770 H   0  0  0  0  0  0  0  0  0  0  0  0
  1  2  2  0  0  0  0
  1  6  1  0  0  0  0
  3  1  1  0  0  0  0
  4  3  1  0  0  0  0
  5 15  2  0  0  0  0
  5  6  1  0  0  0  0
  6  7  2  0  0  0  0
  7  9  1  0  0  0  0
  7  8  1  0  0  0  0
  9 10  1  0  0  0  0
 10 16  1  0  0  0  0
 11 10  1  0  0  0  0
 11 12  1  0  0  0  0
 13 11  2  0  0  0  0
 14 13  1  0  0  0  0
 14  9  2  0  0  0  0
 15 14  1  0  0  0  0
 17  3  1  0  0  0  0
 17 18  1  0  0  0  0
 18 25  1  0  0  0  0
 19 18  2  0  0  0  0
 19 23  1  0  0  0  0
 20 19  1  0  0  0  0
 21 22  1  0  0  0  0
 21 20  2  0  0  0  0
 22 17  2  0  0  0  0
 24 21  1  0  0  0  0
 25 27  1  0  0  0  0
 25 26  1  0  0  0  0
M  END
>  <minimizedAffinity>
-5.08857632

$$$$

 OpenBabel03252501333D

 27 29  0  0  0  0  0  0  0  0999 V2000
   37.9220   28.3810   40.4760 C   0  0  0  0  0  0  0  0  0  0  0  0
   38.6710   29.1280   41.1860 O   0  0  0  0  0  0  0  0  0  0  0  0
   37.1970   29.1170   39.4760 N   0  0  0  0  0  0  0  0  0  0  0  0
   36.5740   28.6250   38.8460 H   0  0  0  0  0  0  0  0  0  0  0  0
   37.2360   26.5340   41.8340 C   0  0  0  0  0  3  0  0  0  0  0  0
   37.8310   26.9630   40.6720 C   0  0  0  0  0  0  0  0  0  0  0  0
   38.3350   26.1210   39.7050 C   0  0  0  0  0  0  0  0  0  0  0  0
   38.8020   26.4160   38.7960 H   0  0  0  0  0  0  0  0  0  0  0  0
   38.1970   24.7600   39.9930 C   0  0  0  0  0  0  0  0  0  0  0  0
   38.5860   23.6800   39.2540 N   0  0  0  0  0  0  0  0  0  0  0  0
   38.2630   22.5480   39.8970 C   0  0  0  0  0  0  0  0  0  0  0  0
   38.4620   21.5440   39.5240 H   0  0  0  0  0  0  0  0  0  0  0  0
   37.6670   22.9160   41.0480 N   0  0  0  0  0  0  0  0  0  0  0  0
   37.6050   24.2460   41.1510 C   0  0  0  0  0  0  0  0  0  0  0  0
   37.1200   25.1680   42.0790 C   0  0  0  0  0  3  0  0  0  0  0  0
   39.0670   23.7310   38.3190 H   0  0  0  0  0  0  0  0  0  0  0  0
   37.5440   30.5170   39.5980 C   0  0  0  0  0  0  0  0  0  0  0  0
   36.9020   31.4260   40.4200 C   0  0  0  0  0  0  0  0  0  0  0  0
   37.3760   32.7230   40.4020 C   0  0  0  0  0  0  0  0  0  0  0  0
   38.4130   33.0070   39.5980 N   0  0  0  0  0  0  0  0  0  0  0  0
   39.0160   32.1080   38.8110 C   0  0  0  0  0  0  0  0  0  0  0  0
   38.5790   30.8250   38.8020 N   0  0  0  0  0  0  0  0  0  0  0  0
   36.8660   33.4240   41.0500 H   0  0  0  0  0  0  0  0  0  0  0  0
   39.8400   32.4820   38.2160 H   0  0  0  0  0  0  0  0  0  0  0  0
   35.8220   30.9290   41.1980 N   0  0  0  0  0  0  0  0  0  0  0  0
   35.6440   30.9940   42.2200 H   0  0  0  0  0  0  0  0  0  0  0  0
   35.0890   30.4130   40.6370 H   0  0  0  0  0  0  0  0  0  0  0  0
  1  6  1  0  0  0  0
  1  2  2  0  0  0  0
  3 17  1  0  0  0  0
  3  1  1  0  0  0  0
  4  3  1  0  0  0  0
  5 15  1  0  0  0  0
  6  5  2  0  0  0  0
  7  9  2  0  0  0  0
  7  6  1  0  0  0  0
  8  7  1  0  0  0  0
  9 14  1  0  0  0  0
 10 11  1  0  0  0  0
 10  9  1  0  0  0  0
 11 13  2  0  0  0  0
 12 11  1  0  0  0  0
 13 14  1  0  0  0  0
 14 15  2  0  0  0  0
 16 10  1  0  0  0  0
 17 18  1  0  0  0  0
 18 25  1  0  0  0  0
 19 18  2  0  0  0  0
 19 23  1  0  0  0  0
 20 19  1  0  0  0  0
 21 20  2  0  0  0  0
 22 21  1  0  0  0  0
 22 17  2  0  0  0  0
 24 21  1  0  0  0  0
 25 26  1  0  0  0  0
 27 25  1  0  0  0  0
M  END
>  <minimizedAffinity>
-4.91815996

$$$$

 OpenBabel03252501333D

 27 29  0  0  0  0  0  0  0  0999 V2000
   39.4170   31.8430   39.5500 C   0  0  0  0  0  0  0  0  0  0  0  0
   40.5190   31.2080   39.6370 O   0  0  0  0  0  0  0  0  0  0  0  0
   39.6060   33.2510   39.3290 N   0  0  0  0  0  0  0  0  0  0  0  0
   38.7990   33.8560   39.2360 H   0  0  0  0  0  0  0  0  0  0  0  0
   37.5270   31.2460   40.8920 C   0  0  0  0  0  3  0  0  0  0  0  0
   38.1400   31.1980   39.6630 C   0  0  0  0  0  0  0  0  0  0  0  0
   37.6060   30.5770   38.5560 C   0  0  0  0  0  0  0  0  0  0  0  0
   38.0500   30.5190   37.5920 H   0  0  0  0  0  0  0  0  0  0  0  0
   36.3600   29.9800   38.7720 C   0  0  0  0  0  0  0  0  0  0  0  0
   35.5710   29.2930   37.8960 N   0  0  0  0  0  0  0  0  0  0  0  0
   34.4520   28.8860   38.5120 C   0  0  0  0  0  0  0  0  0  0  0  0
   33.6530   28.3170   38.0370 H   0  0  0  0  0  0  0  0  0  0  0  0
   34.5350   29.3180   39.7860 N   0  0  0  0  0  0  0  0  0  0  0  0
   35.6740   29.9860   39.9910 C   0  0  0  0  0  0  0  0  0  0  0  0
   36.2860   30.6370   41.0620 C   0  0  0  0  0  3  0  0  0  0  0  0
   35.8080   29.1120   36.8860 H   0  0  0  0  0  0  0  0  0  0  0  0
   41.0280   33.5190   39.2850 C   0  0  0  0  0  0  0  0  0  0  0  0
   41.8210   33.4220   38.1550 C   0  0  0  0  0  0  0  0  0  0  0  0
   43.1610   33.7180   38.3080 C   0  0  0  0  0  0  0  0  0  0  0  0
   43.5960   34.0750   39.5270 N   0  0  0  0  0  0  0  0  0  0  0  0
   42.8070   34.1600   40.6060 C   0  0  0  0  0  0  0  0  0  0  0  0
   41.4860   33.8780   40.4950 N   0  0  0  0  0  0  0  0  0  0  0  0
   43.7690   33.6380   37.4160 H   0  0  0  0  0  0  0  0  0  0  0  0
   43.2970   34.4600   41.5230 H   0  0  0  0  0  0  0  0  0  0  0  0
   41.1710   33.0280   36.9540 N   0  0  0  0  0  0  0  0  0  0  0  0
   41.1660   33.4740   36.0160 H   0  0  0  0  0  0  0  0  0  0  0  0
   40.6070   32.1380   37.0420 H   0  0  0  0  0  0  0  0  0  0  0  0
  1  2  2  0  0  0  0
  1  6  1  0  0  0  0
  3  1  1  0  0  0  0
  4  3  1  0  0  0  0
  5 15  1  0  0  0  0
  6  5  2  0  0  0  0
  7  9  2  0  0  0  0
  7  6  1  0  0  0  0
  8  7  1  0  0  0  0
  9 14  1  0  0  0  0
 10 11  1  0  0  0  0
 10  9  1  0  0  0  0
 11 13  2  0  0  0  0
 12 11  1  0  0  0  0
 13 14  1  0  0  0  0
 14 15  2  0  0  0  0
 16 10  1  0  0  0  0
 17  3  1  0  0  0  0
 17 22  1  0  0  0  0
 18 19  1  0  0  0  0
 18 17  2  0  0  0  0
 19 20  2  0  0  0  0
 20 21  1  0  0  0  0
 21 24  1  0  0  0  0
 22 21  2  0  0  0  0
 23 19  1  0  0  0  0
 25 27  1  0  0  0  0
 25 18  1  0  0  0  0
 26 25  1  0  0  0  0
M  END
>  <minimizedAffinity>
-4.88532257

$$$$

 OpenBabel03252501333D

 27 29  0  0  0  0  0  0  0  0999 V2000
   37.8820   28.3650   40.5740 C   0  0  0  0  0  0  0  0  0  0  0  0
   38.7810   27.6010   40.0920 O   0  0  0  0  0  0  0  0  0  0  0  0
   36.9240   27.6540   41.3750 N   0  0  0  0  0  0  0  0  0  0  0  0
   36.1660   28.1610   41.8160 H   0  0  0  0  0  0  0  0  0  0  0  0
   37.0120   30.2200   39.3370 C   0  0  0  0  0  3  0  0  0  0  0  0
   37.8530   29.7790   40.3290 C   0  0  0  0  0  0  0  0  0  0  0  0
   38.6560   30.6040   41.0850 C   0  0  0  0  0  0  0  0  0  0  0  0
   39.3190   30.2990   41.8590 H   0  0  0  0  0  0  0  0  0  0  0  0
   38.5530   31.9620   40.7680 C   0  0  0  0  0  0  0  0  0  0  0  0
   39.2040   33.0270   41.3200 N   0  0  0  0  0  0  0  0  0  0  0  0
   38.8130   34.1610   40.7200 C   0  0  0  0  0  0  0  0  0  0  0  0
   39.1790   35.1550   40.9740 H   0  0  0  0  0  0  0  0  0  0  0  0
   37.9110   33.8090   39.7830 N   0  0  0  0  0  0  0  0  0  0  0  0
   37.7210   32.4870   39.7740 C   0  0  0  0  0  0  0  0  0  0  0  0
   36.9410   31.5820   39.0540 C   0  0  0  0  0  3  0  0  0  0  0  0
   39.9060   32.9650   42.1020 H   0  0  0  0  0  0  0  0  0  0  0  0
   37.2800   26.2510   41.3760 C   0  0  0  0  0  0  0  0  0  0  0  0
   38.1980   25.6640   42.2290 C   0  0  0  0  0  0  0  0  0  0  0  0
   38.4080   24.3080   42.0790 C   0  0  0  0  0  0  0  0  0  0  0  0
   37.7150   23.6610   41.1280 N   0  0  0  0  0  0  0  0  0  0  0  0
   36.8320   24.2530   40.3130 C   0  0  0  0  0  0  0  0  0  0  0  0
   36.6000   25.5830   40.4310 N   0  0  0  0  0  0  0  0  0  0  0  0
   39.1270   23.8620   42.7530 H   0  0  0  0  0  0  0  0  0  0  0  0
   36.3490   23.6050   39.5940 H   0  0  0  0  0  0  0  0  0  0  0  0
   38.8280   26.5210   43.1720 N   0  0  0  0  0  0  0  0  0  0  0  0
   38.9180   26.4340   44.2030 H   0  0  0  0  0  0  0  0  0  0  0  0
   39.2740   27.3790   42.7440 H   0  0  0  0  0  0  0  0  0  0  0  0
  1  3  1  0  0  0  0
  2  1  2  0  0  0  0
  3 17  1  0  0  0  0
  3  4  1  0  0  0  0
  5  6  1  0  0  0  0
  6  1  1  0  0  0  0
  6  7  2  0  0  0  0
  7  8  1  0  0  0  0
  9  7  1  0  0  0  0
  9 10  1  0  0  0  0
 10 16  1  0  0  0  0
 11 12  1  0  0  0  0
 11 10  1  0  0  0  0
 13 11  2  0  0  0  0
 14 13  1  0  0  0  0
 14  9  2  0  0  0  0
 15  5  2  0  0  0  0
 15 14  1  0  0  0  0
 17 18  1  0  0  0  0
 18 25  1  0  0  0  0
 19 18  2  0  0  0  0
 19 23  1  0  0  0  0
 20 19  1  0  0  0  0
 21 22  1  0  0  0  0
 21 20  2  0  0  0  0
 22 17  2  0  0  0  0
 24 21  1  0  0  0  0
 25 26  1  0  0  0  0
 27 25  1  0  0  0  0
M  END
>  <minimizedAffinity>
-4.83381844

$$$$

 OpenBabel03252501333D

 27 29  0  0  0  0  0  0  0  0999 V2000
   40.1570   30.8900   40.0430 C   0  0  0  0  0  0  0  0  0  0  0  0
   41.3290   30.6000   39.6350 O   0  0  0  0  0  0  0  0  0  0  0  0
   39.8040   32.2590   39.7840 N   0  0  0  0  0  0  0  0  0  0  0  0
   38.8910   32.6020   40.0590 H   0  0  0  0  0  0  0  0  0  0  0  0
   38.6160   30.3650   41.7970 C   0  0  0  0  0  3  0  0  0  0  0  0
   39.3030   29.9350   40.6880 C   0  0  0  0  0  0  0  0  0  0  0  0
   39.2180   28.6600   40.1730 C   0  0  0  0  0  0  0  0  0  0  0  0
   39.7340   28.2920   39.3190 H   0  0  0  0  0  0  0  0  0  0  0  0
   38.3600   27.8070   40.8740 C   0  0  0  0  0  0  0  0  0  0  0  0
   38.0560   26.5000   40.6290 N   0  0  0  0  0  0  0  0  0  0  0  0
   37.1850   26.0550   41.5470 C   0  0  0  0  0  0  0  0  0  0  0  0
   36.7790   25.0440   41.5790 H   0  0  0  0  0  0  0  0  0  0  0  0
   36.9380   27.0880   42.3770 N   0  0  0  0  0  0  0  0  0  0  0  0
   37.6280   28.1710   42.0090 C   0  0  0  0  0  0  0  0  0  0  0  0
   37.7720   29.4820   42.4660 C   0  0  0  0  0  3  0  0  0  0  0  0
   38.4470   25.9280   39.8360 H   0  0  0  0  0  0  0  0  0  0  0  0
   40.9240   32.9040   39.1320 C   0  0  0  0  0  0  0  0  0  0  0  0
   41.1310   32.9470   37.7640 C   0  0  0  0  0  0  0  0  0  0  0  0
   42.2600   33.6100   37.3270 C   0  0  0  0  0  0  0  0  0  0  0  0
   43.0680   34.1610   38.2480 N   0  0  0  0  0  0  0  0  0  0  0  0
   42.8450   34.1040   39.5670 C   0  0  0  0  0  0  0  0  0  0  0  0
   41.7470   33.4620   40.0340 N   0  0  0  0  0  0  0  0  0  0  0  0
   42.4100   33.6370   36.2550 H   0  0  0  0  0  0  0  0  0  0  0  0
   43.5840   34.5930   40.1890 H   0  0  0  0  0  0  0  0  0  0  0  0
   40.1580   32.3040   36.9530 N   0  0  0  0  0  0  0  0  0  0  0  0
   39.6170   32.6610   36.1410 H   0  0  0  0  0  0  0  0  0  0  0  0
   39.9620   31.3020   37.2280 H   0  0  0  0  0  0  0  0  0  0  0  0
  1  6  1  0  0  0  0
  2  1  2  0  0  0  0
  3  1  1  0  0  0  0
  3  4  1  0  0  0  0
  5 15  1  0  0  0  0
  6  5  2  0  0  0  0
  7  6  1  0  0  0  0
  7  9  2  0  0  0  0
  8  7  1  0  0  0  0
  9 14  1  0  0  0  0
 10  9  1  0  0  0  0
 10 11  1  0  0  0  0
 11 12  1  0  0  0  0
 11 13  2  0  0  0  0
 14 13  1  0  0  0  0
 14 15  2  0  0  0  0
 16 10  1  0  0  0  0
 17  3  1  0  0  0  0
 17 22  1  0  0  0  0
 18 17  2  0  0  0  0
 19 18  1  0  0  0  0
 19 20  2  0  0  0  0
 20 21  1  0  0  0  0
 21 22  2  0  0  0  0
 21 24  1  0  0  0  0
 23 19  1  0  0  0  0
 25 27  1  0  0  0  0
 25 18  1  0  0  0  0
 26 25  1  0  0  0  0
M  END
>  <minimizedAffinity>
-4.81439543

$$$$

 OpenBabel03252501333D

 27 29  0  0  0  0  0  0  0  0999 V2000
   36.3470   29.4490   39.2070 C   0  0  0  0  0  0  0  0  0  0  0  0
   37.4540   28.8280   39.3220 O   0  0  0  0  0  0  0  0  0  0  0  0
   36.1090   30.3620   40.2930 N   0  0  0  0  0  0  0  0  0  0  0  0
   35.2610   30.9170   40.3030 H   0  0  0  0  0  0  0  0  0  0  0  0
   35.9870   29.3550   36.8430 C   0  0  0  0  0  3  0  0  0  0  0  0
   35.4530   29.2430   38.1040 C   0  0  0  0  0  0  0  0  0  0  0  0
   34.1320   28.9490   38.3610 C   0  0  0  0  0  0  0  0  0  0  0  0
   33.6840   28.8540   39.3200 H   0  0  0  0  0  0  0  0  0  0  0  0
   33.3470   28.7660   37.2180 C   0  0  0  0  0  0  0  0  0  0  0  0
   32.0180   28.4690   37.1250 N   0  0  0  0  0  0  0  0  0  0  0  0
   31.6600   28.3810   35.8360 C   0  0  0  0  0  0  0  0  0  0  0  0
   30.6540   28.1530   35.4850 H   0  0  0  0  0  0  0  0  0  0  0  0
   32.7690   28.6240   35.1100 N   0  0  0  0  0  0  0  0  0  0  0  0
   33.8170   28.8630   35.9040 C   0  0  0  0  0  0  0  0  0  0  0  0
   35.1680   29.1650   35.7330 C   0  0  0  0  0  3  0  0  0  0  0  0
   31.3730   28.3290   37.9450 H   0  0  0  0  0  0  0  0  0  0  0  0
   37.2260   30.2810   41.2100 C   0  0  0  0  0  0  0  0  0  0  0  0
   37.3490   29.3570   42.2330 C   0  0  0  0  0  0  0  0  0  0  0  0
   38.4890   29.4360   43.0080 C   0  0  0  0  0  0  0  0  0  0  0  0
   39.3880   30.3910   42.7180 N   0  0  0  0  0  0  0  0  0  0  0  0
   39.2440   31.2740   41.7220 C   0  0  0  0  0  0  0  0  0  0  0  0
   38.1380   31.2280   40.9400 N   0  0  0  0  0  0  0  0  0  0  0  0
   38.5730   28.7070   43.8040 H   0  0  0  0  0  0  0  0  0  0  0  0
   40.0490   31.9880   41.6070 H   0  0  0  0  0  0  0  0  0  0  0  0
   36.2880   28.4230   42.3780 N   0  0  0  0  0  0  0  0  0  0  0  0
   36.3090   27.3860   42.4290 H   0  0  0  0  0  0  0  0  0  0  0  0
   35.3300   28.8660   42.4440 H   0  0  0  0  0  0  0  0  0  0  0  0
  1  2  2  0  0  0  0
  1  3  1  0  0  0  0
  3  4  1  0  0  0  0
  3 17  1  0  0  0  0
  5  6  1  0  0  0  0
  6  7  2  0  0  0  0
  6  1  1  0  0  0  0
  7  8  1  0  0  0  0
  9  7  1  0  0  0  0
 10  9  1  0  0  0  0
 10 16  1  0  0  0  0
 11 10  1  0  0  0  0
 12 11  1  0  0  0  0
 13 11  2  0  0  0  0
 13 14  1  0  0  0  0
 14  9  2  0  0  0  0
 15 14  1  0  0  0  0
 15  5  2  0  0  0  0
 17 18  1  0  0  0  0
 18 25  1  0  0  0  0
 18 19  2  0  0  0  0
 19 23  1  0  0  0  0
 20 19  1  0  0  0  0
 21 20  2  0  0  0  0
 22 17  2  0  0  0  0
 22 21  1  0  0  0  0
 24 21  1  0  0  0  0
 25 26  1  0  0  0  0
 25 27  1  0  0  0  0
M  END
>  <minimizedAffinity>
-4.80856609

$$$$
