
 OpenBabel03252507593D

 32 35  0  0  1  0  0  0  0  0999 V2000
   46.6620   34.7520   43.0730 C   0  0  0  0  0  0  0  0  0  0  0  0
   45.6070   35.6960   43.2530 C   0  0  0  0  0  0  0  0  0  0  0  0
   44.7530   35.5160   44.3500 C   0  0  0  0  0  0  0  0  0  0  0  0
   44.9850   34.4600   45.1650 N   0  0  0  0  0  0  0  0  0  0  0  0
   46.0200   33.5860   44.9340 C   0  0  0  0  0  0  0  0  0  0  0  0
   46.8520   33.7150   43.9120 N   0  0  0  0  0  0  0  0  0  0  0  0
   45.4700   36.5220   42.5690 H   0  0  0  0  0  0  0  0  0  0  0  0
   43.9430   36.2030   44.5250 H   0  0  0  0  0  0  0  0  0  0  0  0
   46.2250   32.4490   45.8870 C   0  0  1  0  0  0  0  0  0  0  0  0
   46.9770   32.7000   47.1750 C   0  0  0  0  0  0  0  0  0  0  0  0
   45.4790   32.5730   47.1560 C   0  0  1  0  0  0  0  0  0  0  0  0
   46.3910   31.4450   45.4520 H   0  0  0  0  0  0  0  0  0  0  0  0
   47.4580   33.7100   47.2030 H   0  0  0  0  0  0  0  0  0  0  0  0
   47.5970   31.8900   47.5670 H   0  0  0  0  0  0  0  0  0  0  0  0
   45.0600   31.7220   47.6970 H   0  0  0  0  0  0  0  0  0  0  0  0
   44.8220   33.8430   47.4840 N   0  0  0  0  0  0  0  0  0  0  0  0
   45.1860   34.1340   48.4410 H   0  0  0  0  0  0  0  0  0  0  0  0
   43.8040   33.7140   47.6120 H   0  0  0  0  0  0  0  0  0  0  0  0
   47.4950   35.0090   41.9380 C   0  0  0  0  0  0  0  0  0  0  0  0
   48.5120   35.7840   41.9660 O   0  0  0  0  0  0  0  0  0  0  0  0
   48.2070   34.5510   39.5930 C   0  0  0  0  0  3  0  0  0  0  0  0
   47.2900   34.4220   40.6170 C   0  0  0  0  0  0  0  0  0  0  0  0
   46.1470   33.6970   40.3260 C   0  0  0  0  0  0  0  0  0  0  0  0
   45.3910   33.5500   41.0610 H   0  0  0  0  0  0  0  0  0  0  0  0
   45.9350   33.1290   39.0680 C   0  0  0  0  0  0  0  0  0  0  0  0
   44.9320   32.3910   38.5290 N   0  0  0  0  0  0  0  0  0  0  0  0
   45.2200   32.0880   37.2510 C   0  0  0  0  0  0  0  0  0  0  0  0
   44.6680   31.5220   36.5110 H   0  0  0  0  0  0  0  0  0  0  0  0
   46.4340   32.6450   36.9660 N   0  0  0  0  0  0  0  0  0  0  0  0
   46.8760   33.2810   38.0650 C   0  0  0  0  0  0  0  0  0  0  0  0
   48.0350   34.0060   38.3350 C   0  0  0  0  0  3  0  0  0  0  0  0
   44.0580   32.0960   39.0290 H   0  0  0  0  0  0  0  0  0  0  0  0
  1  2  2  0  0  0  0
  1  6  1  0  0  0  0
  2  3  1  0  0  0  0
  3  8  1  0  0  0  0
  3  4  2  0  0  0  0
  5  4  1  0  0  0  0
  5  9  1  0  0  0  0
  6  5  2  0  0  0  0
  7  2  1  0  0  0  0
  9 12  1  6  0  0  0
  9 11  1  0  0  0  0
  9 10  1  0  0  0  0
 10 13  1  0  0  0  0
 10 14  1  0  0  0  0
 11 10  1  0  0  0  0
 11 16  1  0  0  0  0
 11 15  1  1  0  0  0
 16 18  1  0  0  0  0
 16 17  1  0  0  0  0
 19 20  2  0  0  0  0
 19  1  1  0  0  0  0
 21 22  1  0  0  0  0
 22 19  1  0  0  0  0
 23 22  2  0  0  0  0
 23 24  1  0  0  0  0
 25 23  1  0  0  0  0
 26 32  1  0  0  0  0
 26 25  1  0  0  0  0
 27 26  1  0  0  0  0
 28 27  1  0  0  0  0
 29 27  2  0  0  0  0
 29 30  1  0  0  0  0
 30 31  1  0  0  0  0
 30 25  2  0  0  0  0
 31 21  2  0  0  0  0
M  END
>  <minimizedAffinity>
-6.21857309

>  <minimizedRMSD>
1.40269971

$$$$
