
 OpenBabel03252507593D

 32 35  0  0  1  0  0  0  0  0999 V2000
   46.6100   34.8100   43.1060 C   0  0  0  0  0  0  0  0  0  0  0  0
   45.5710   35.7770   43.2500 C   0  0  0  0  0  0  0  0  0  0  0  0
   44.6990   35.6380   44.3380 C   0  0  0  0  0  0  0  0  0  0  0  0
   44.9000   34.5960   45.1800 N   0  0  0  0  0  0  0  0  0  0  0  0
   45.9210   33.6990   44.9840 C   0  0  0  0  0  0  0  0  0  0  0  0
   46.7690   33.7890   43.9710 N   0  0  0  0  0  0  0  0  0  0  0  0
   45.4590   36.5900   42.5460 H   0  0  0  0  0  0  0  0  0  0  0  0
   43.9000   36.3440   44.4870 H   0  0  0  0  0  0  0  0  0  0  0  0
   46.0920   32.5800   45.9640 C   0  0  1  0  0  0  0  0  0  0  0  0
   46.8250   32.8480   47.2600 C   0  0  0  0  0  0  0  0  0  0  0  0
   45.3250   32.7430   47.2160 C   0  0  1  0  0  0  0  0  0  0  0  0
   46.2510   31.5650   45.5540 H   0  0  0  0  0  0  0  0  0  0  0  0
   47.3200   33.8510   47.2750 H   0  0  0  0  0  0  0  0  0  0  0  0
   47.4250   32.0380   47.6800 H   0  0  0  0  0  0  0  0  0  0  0  0
   44.8840   31.9100   47.7680 H   0  0  0  0  0  0  0  0  0  0  0  0
   44.6810   34.0290   47.5050 N   0  0  0  0  0  0  0  0  0  0  0  0
   45.0330   34.3360   48.4620 H   0  0  0  0  0  0  0  0  0  0  0  0
   43.6600   33.9170   47.6170 H   0  0  0  0  0  0  0  0  0  0  0  0
   47.4640   35.0250   41.9770 C   0  0  0  0  0  0  0  0  0  0  0  0
   48.5020   35.7730   42.0060 O   0  0  0  0  0  0  0  0  0  0  0  0
   48.1780   34.5330   39.6400 C   0  0  0  0  0  3  0  0  0  0  0  0
   47.2580   34.4240   40.6640 C   0  0  0  0  0  0  0  0  0  0  0  0
   46.1110   33.7020   40.3780 C   0  0  0  0  0  0  0  0  0  0  0  0
   45.3510   33.5720   41.1140 H   0  0  0  0  0  0  0  0  0  0  0  0
   45.8970   33.1200   39.1260 C   0  0  0  0  0  0  0  0  0  0  0  0
   44.8910   32.3820   38.5960 N   0  0  0  0  0  0  0  0  0  0  0  0
   45.1800   32.0610   37.3230 C   0  0  0  0  0  0  0  0  0  0  0  0
   44.6270   31.4880   36.5890 H   0  0  0  0  0  0  0  0  0  0  0  0
   46.3990   32.6050   37.0330 N   0  0  0  0  0  0  0  0  0  0  0  0
   46.8430   33.2510   38.1250 C   0  0  0  0  0  0  0  0  0  0  0  0
   48.0060   33.9720   38.3900 C   0  0  0  0  0  3  0  0  0  0  0  0
   44.0140   32.1000   39.0970 H   0  0  0  0  0  0  0  0  0  0  0  0
  1  2  2  0  0  0  0
  1  6  1  0  0  0  0
  2  3  1  0  0  0  0
  3  8  1  0  0  0  0
  3  4  2  0  0  0  0
  5  4  1  0  0  0  0
  5  9  1  0  0  0  0
  6  5  2  0  0  0  0
  7  2  1  0  0  0  0
  9 12  1  6  0  0  0
  9 11  1  0  0  0  0
  9 10  1  0  0  0  0
 10 13  1  0  0  0  0
 10 14  1  0  0  0  0
 11 10  1  0  0  0  0
 11 16  1  0  0  0  0
 11 15  1  1  0  0  0
 16 18  1  0  0  0  0
 16 17  1  0  0  0  0
 19 20  2  0  0  0  0
 19  1  1  0  0  0  0
 21 22  1  0  0  0  0
 22 19  1  0  0  0  0
 23 22  2  0  0  0  0
 23 24  1  0  0  0  0
 25 23  1  0  0  0  0
 26 32  1  0  0  0  0
 26 25  1  0  0  0  0
 27 26  1  0  0  0  0
 28 27  1  0  0  0  0
 29 27  2  0  0  0  0
 29 30  1  0  0  0  0
 30 31  1  0  0  0  0
 30 25  2  0  0  0  0
 31 21  2  0  0  0  0
M  END
>  <minimizedAffinity>
-6.20828199

>  <minimizedRMSD>
1.0661881

$$$$
