
 OpenBabel03242517013D

 35 38  0  0  0  0  0  0  0  0999 V2000
   37.3690   31.8130   39.8420 C   0  0  0  0  0  0  0  0  0  0  0  0
   37.0310   33.0370   39.2620 C   0  0  0  0  0  0  0  0  0  0  0  0
   37.7630   34.1600   39.6010 C   0  0  0  0  0  0  0  0  0  0  0  0
   38.8050   34.0490   40.4990 C   0  0  0  0  0  0  0  0  0  0  0  0
   39.1660   32.8740   41.0860 C   0  0  0  0  0  0  0  0  0  0  0  0
   38.4030   31.7500   40.7210 C   0  0  0  0  0  0  0  0  0  0  0  0
   36.2050   33.1010   38.5580 H   0  0  0  0  0  0  0  0  0  0  0  0
   37.4510   35.0780   39.1200 H   0  0  0  0  0  0  0  0  0  0  0  0
   39.3650   34.9400   40.7510 H   0  0  0  0  0  0  0  0  0  0  0  0
   39.9810   32.7730   41.7910 H   0  0  0  0  0  0  0  0  0  0  0  0
   35.6580   29.0460   37.9260 C   0  0  0  0  0  0  0  0  0  0  0  0
   36.4860   30.1740   38.1710 C   0  0  0  0  0  0  0  0  0  0  0  0
   36.5640   30.6660   39.4480 C   0  0  0  0  0  0  0  0  0  0  0  0
   35.8310   30.0350   40.4250 N   0  0  0  0  0  0  0  0  0  0  0  0
   35.0480   28.9650   40.1840 C   0  0  0  0  0  0  0  0  0  0  0  0
   34.9620   28.4650   38.9110 N   0  0  0  0  0  0  0  0  0  0  0  0
   35.6120   28.6740   36.9100 H   0  0  0  0  0  0  0  0  0  0  0  0
   37.0570   30.6600   37.3920 H   0  0  0  0  0  0  0  0  0  0  0  0
   34.5240   28.5640   41.0450 H   0  0  0  0  0  0  0  0  0  0  0  0
   39.5860   29.9250   42.1910 C   0  0  0  0  0  0  0  0  0  0  0  0
   40.4310   30.5820   42.8410 O   0  0  0  0  0  0  0  0  0  0  0  0
   38.6700   30.4690   41.2590 N   0  0  0  0  0  0  0  0  0  0  0  0
   37.9400   29.9130   40.7570 H   0  0  0  0  0  0  0  0  0  0  0  0
   40.5650   27.9590   43.2210 C   0  0  0  0  0  3  0  0  0  0  0  0
   39.5690   28.4880   42.4310 C   0  0  0  0  0  0  0  0  0  0  0  0
   38.6520   27.5830   41.9440 C   0  0  0  0  0  0  0  0  0  0  0  0
   37.8610   27.9680   41.3220 H   0  0  0  0  0  0  0  0  0  0  0  0
   38.6930   26.2360   42.2080 C   0  0  0  0  0  0  0  0  0  0  0  0
   37.9170   25.2020   41.8430 N   0  0  0  0  0  0  0  0  0  0  0  0
   38.4170   24.0680   42.3910 C   0  0  0  0  0  0  0  0  0  0  0  0
   38.0940   23.0520   42.3420 H   0  0  0  0  0  0  0  0  0  0  0  0
   39.5220   24.3810   43.1130 N   0  0  0  0  0  0  0  0  0  0  0  0
   39.6910   25.7120   43.0000 C   0  0  0  0  0  0  0  0  0  0  0  0
   40.6300   26.5870   43.5060 C   0  0  0  0  0  3  0  0  0  0  0  0
   37.0690   25.2140   41.2460 H   0  0  0  0  0  0  0  0  0  0  0  0
  1  6  1  0  0  0  0
  2  3  1  0  0  0  0
  2  1  2  0  0  0  0
  3  4  2  0  0  0  0
  4  9  1  0  0  0  0
  4  5  1  0  0  0  0
  5 10  1  0  0  0  0
  6  5  2  0  0  0  0
  6 22  1  0  0  0  0
  7  2  1  0  0  0  0
  8  3  1  0  0  0  0
 11 12  2  0  0  0  0
 11 16  1  0  0  0  0
 12 13  1  0  0  0  0
 13  1  1  0  0  0  0
 13 14  2  0  0  0  0
 15 14  1  0  0  0  0
 15 19  1  0  0  0  0
 16 15  2  0  0  0  0
 17 11  1  0  0  0  0
 18 12  1  0  0  0  0
 20 25  1  0  0  0  0
 20 21  2  0  0  0  0
 22 20  1  0  0  0  0
 23 22  1  0  0  0  0
 24 34  1  0  0  0  0
 25 24  2  0  0  0  0
 26 28  2  0  0  0  0
 26 25  1  0  0  0  0
 27 26  1  0  0  0  0
 28 33  1  0  0  0  0
 29 28  1  0  0  0  0
 29 30  1  0  0  0  0
 30 32  2  0  0  0  0
 31 30  1  0  0  0  0
 33 32  1  0  0  0  0
 33 34  2  0  0  0  0
 35 29  1  0  0  0  0
M  END
>  <minimizedAffinity>
-6.00874376

$$$$

 OpenBabel03242517013D

 35 38  0  0  0  0  0  0  0  0999 V2000
   37.0080   25.2210   40.4540 C   0  0  0  0  0  0  0  0  0  0  0  0
   36.6860   23.8630   40.4840 C   0  0  0  0  0  0  0  0  0  0  0  0
   35.9060   23.3400   39.4690 C   0  0  0  0  0  0  0  0  0  0  0  0
   35.4640   24.1670   38.4560 C   0  0  0  0  0  0  0  0  0  0  0  0
   35.7560   25.4950   38.3910 C   0  0  0  0  0  0  0  0  0  0  0  0
   36.5510   25.9970   39.4370 C   0  0  0  0  0  0  0  0  0  0  0  0
   37.0450   23.2310   41.2930 H   0  0  0  0  0  0  0  0  0  0  0  0
   35.6900   22.2830   39.5490 H   0  0  0  0  0  0  0  0  0  0  0  0
   34.8530   23.7380   37.6710 H   0  0  0  0  0  0  0  0  0  0  0  0
   35.4160   26.1530   37.6020 H   0  0  0  0  0  0  0  0  0  0  0  0
   39.7640   25.7960   42.9710 C   0  0  0  0  0  0  0  0  0  0  0  0
   39.0680   25.2200   41.8740 C   0  0  0  0  0  0  0  0  0  0  0  0
   37.8310   25.7150   41.5480 C   0  0  0  0  0  0  0  0  0  0  0  0
   37.3330   26.7470   42.3060 N   0  0  0  0  0  0  0  0  0  0  0  0
   38.0000   27.2890   43.3450 C   0  0  0  0  0  0  0  0  0  0  0  0
   39.2370   26.8020   43.6800 N   0  0  0  0  0  0  0  0  0  0  0  0
   40.7390   25.3900   43.2100 H   0  0  0  0  0  0  0  0  0  0  0  0
   39.4720   24.4070   41.2870 H   0  0  0  0  0  0  0  0  0  0  0  0
   37.4930   28.0980   43.8580 H   0  0  0  0  0  0  0  0  0  0  0  0
   36.2510   28.6050   39.4570 C   0  0  0  0  0  0  0  0  0  0  0  0
   35.0090   28.7530   39.4030 O   0  0  0  0  0  0  0  0  0  0  0  0
   36.9250   27.3600   39.4930 N   0  0  0  0  0  0  0  0  0  0  0  0
   37.9610   27.2530   39.5840 H   0  0  0  0  0  0  0  0  0  0  0  0
   38.3400   29.7620   39.0300 C   0  0  0  0  0  3  0  0  0  0  0  0
   37.0420   29.8290   39.4820 C   0  0  0  0  0  0  0  0  0  0  0  0
   36.6270   31.0670   39.9180 C   0  0  0  0  0  0  0  0  0  0  0  0
   35.6150   31.1510   40.2780 H   0  0  0  0  0  0  0  0  0  0  0  0
   37.4240   32.1860   39.9160 C   0  0  0  0  0  0  0  0  0  0  0  0
   37.2240   33.4600   40.2880 N   0  0  0  0  0  0  0  0  0  0  0  0
   38.3630   34.1610   40.0720 C   0  0  0  0  0  0  0  0  0  0  0  0
   38.6090   35.1870   40.2330 H   0  0  0  0  0  0  0  0  0  0  0  0
   39.3000   33.3260   39.5570 N   0  0  0  0  0  0  0  0  0  0  0  0
   38.7230   32.1130   39.4610 C   0  0  0  0  0  0  0  0  0  0  0  0
   39.1760   30.8880   39.0160 C   0  0  0  0  0  3  0  0  0  0  0  0
   36.3640   33.8880   40.6800 H   0  0  0  0  0  0  0  0  0  0  0  0
  1  2  1  0  0  0  0
  1 13  1  0  0  0  0
  2  7  1  0  0  0  0
  3  8  1  0  0  0  0
  3  2  2  0  0  0  0
  4  3  1  0  0  0  0
  5  4  2  0  0  0  0
  5  6  1  0  0  0  0
  6 22  1  0  0  0  0
  6  1  2  0  0  0  0
  9  4  1  0  0  0  0
 10  5  1  0  0  0  0
 11 17  1  0  0  0  0
 11 16  1  0  0  0  0
 12 11  2  0  0  0  0
 13 12  1  0  0  0  0
 13 14  2  0  0  0  0
 14 15  1  0  0  0  0
 15 16  2  0  0  0  0
 15 19  1  0  0  0  0
 18 12  1  0  0  0  0
 20 25  1  0  0  0  0
 20 22  1  0  0  0  0
 21 20  2  0  0  0  0
 22 23  1  0  0  0  0
 24 25  1  0  0  0  0
 25 26  2  0  0  0  0
 26 27  1  0  0  0  0
 28 26  1  0  0  0  0
 28 29  1  0  0  0  0
 29 35  1  0  0  0  0
 30 31  1  0  0  0  0
 30 29  1  0  0  0  0
 32 30  2  0  0  0  0
 33 32  1  0  0  0  0
 33 28  2  0  0  0  0
 34 24  2  0  0  0  0
 34 33  1  0  0  0  0
M  END
>  <minimizedAffinity>
-5.97997046

$$$$

 OpenBabel03242517013D

 35 38  0  0  0  0  0  0  0  0999 V2000
   37.2850   31.1560   39.0930 C   0  0  0  0  0  0  0  0  0  0  0  0
   37.3270   32.5210   38.8050 C   0  0  0  0  0  0  0  0  0  0  0  0
   37.9890   33.3660   39.6760 C   0  0  0  0  0  0  0  0  0  0  0  0
   38.5890   32.8460   40.8050 C   0  0  0  0  0  0  0  0  0  0  0  0
   38.5710   31.5220   41.1210 C   0  0  0  0  0  0  0  0  0  0  0  0
   37.8900   30.6880   40.2160 C   0  0  0  0  0  0  0  0  0  0  0  0
   36.8460   32.9090   37.9100 H   0  0  0  0  0  0  0  0  0  0  0  0
   37.9860   34.4120   39.3980 H   0  0  0  0  0  0  0  0  0  0  0  0
   39.1020   33.5250   41.4750 H   0  0  0  0  0  0  0  0  0  0  0  0
   39.0380   31.1020   42.0030 H   0  0  0  0  0  0  0  0  0  0  0  0
   36.1610   29.2840   36.0120 C   0  0  0  0  0  0  0  0  0  0  0  0
   36.9490   30.1330   36.8340 C   0  0  0  0  0  0  0  0  0  0  0  0
   36.5740   30.3150   38.1410 C   0  0  0  0  0  0  0  0  0  0  0  0
   35.4490   29.6610   38.5820 N   0  0  0  0  0  0  0  0  0  0  0  0
   34.7070   28.8570   37.7960 C   0  0  0  0  0  0  0  0  0  0  0  0
   35.0730   28.6680   36.4880 N   0  0  0  0  0  0  0  0  0  0  0  0
   36.4770   29.1540   34.9840 H   0  0  0  0  0  0  0  0  0  0  0  0
   37.8330   30.6420   36.4730 H   0  0  0  0  0  0  0  0  0  0  0  0
   33.8440   28.4020   38.2700 H   0  0  0  0  0  0  0  0  0  0  0  0
   37.4420   28.4460   41.5060 C   0  0  0  0  0  0  0  0  0  0  0  0
   37.0560   28.8330   42.6320 O   0  0  0  0  0  0  0  0  0  0  0  0
   37.7910   29.2930   40.4260 N   0  0  0  0  0  0  0  0  0  0  0  0
   38.0680   28.9530   39.4770 H   0  0  0  0  0  0  0  0  0  0  0  0
   36.9490   26.1980   42.2740 C   0  0  0  0  0  3  0  0  0  0  0  0
   37.5310   27.0030   41.3200 C   0  0  0  0  0  0  0  0  0  0  0  0
   38.1440   26.3440   40.2790 C   0  0  0  0  0  0  0  0  0  0  0  0
   38.6090   26.9480   39.5170 H   0  0  0  0  0  0  0  0  0  0  0  0
   38.1940   24.9760   40.1630 C   0  0  0  0  0  0  0  0  0  0  0  0
   38.7280   24.1480   39.2500 N   0  0  0  0  0  0  0  0  0  0  0  0
   38.4840   22.8690   39.6280 C   0  0  0  0  0  0  0  0  0  0  0  0
   38.7380   21.9350   39.1790 H   0  0  0  0  0  0  0  0  0  0  0  0
   37.7880   22.8820   40.7920 N   0  0  0  0  0  0  0  0  0  0  0  0
   37.6100   24.1750   41.1200 C   0  0  0  0  0  0  0  0  0  0  0  0
   36.9850   24.7990   42.1800 C   0  0  0  0  0  3  0  0  0  0  0  0
   39.2480   24.3930   38.3870 H   0  0  0  0  0  0  0  0  0  0  0  0
  1  6  1  0  0  0  0
  2  1  2  0  0  0  0
  2  3  1  0  0  0  0
  3  4  2  0  0  0  0
  4  5  1  0  0  0  0
  4  9  1  0  0  0  0
  5 10  1  0  0  0  0
  6 22  1  0  0  0  0
  6  5  2  0  0  0  0
  7  2  1  0  0  0  0
  8  3  1  0  0  0  0
 11 16  2  0  0  0  0
 11 12  1  0  0  0  0
 12 13  2  0  0  0  0
 13 14  1  0  0  0  0
 13  1  1  0  0  0  0
 15 19  1  0  0  0  0
 15 14  2  0  0  0  0
 16 15  1  0  0  0  0
 17 11  1  0  0  0  0
 18 12  1  0  0  0  0
 20 21  2  0  0  0  0
 22 20  1  0  0  0  0
 23 22  1  0  0  0  0
 25 20  1  0  0  0  0
 25 24  2  0  0  0  0
 26 25  1  0  0  0  0
 27 26  1  0  0  0  0
 28 26  2  0  0  0  0
 28 33  1  0  0  0  0
 29 30  1  0  0  0  0
 29 28  1  0  0  0  0
 30 32  2  0  0  0  0
 31 30  1  0  0  0  0
 32 33  1  0  0  0  0
 33 34  2  0  0  0  0
 34 24  1  0  0  0  0
 35 29  1  0  0  0  0
M  END
>  <minimizedAffinity>
-5.75776052

$$$$

 OpenBabel03242517013D

 35 38  0  0  0  0  0  0  0  0999 V2000
   36.9990   26.1990   40.2360 C   0  0  0  0  0  0  0  0  0  0  0  0
   36.5550   24.8770   40.1760 C   0  0  0  0  0  0  0  0  0  0  0  0
   35.8480   24.4610   39.0620 C   0  0  0  0  0  0  0  0  0  0  0  0
   35.5970   25.3570   38.0420 C   0  0  0  0  0  0  0  0  0  0  0  0
   36.0130   26.6530   38.0630 C   0  0  0  0  0  0  0  0  0  0  0  0
   36.7300   27.0450   39.2090 C   0  0  0  0  0  0  0  0  0  0  0  0
   36.7640   24.1890   40.9920 H   0  0  0  0  0  0  0  0  0  0  0  0
   35.5300   23.4270   39.0760 H   0  0  0  0  0  0  0  0  0  0  0  0
   35.0410   25.0110   37.1790 H   0  0  0  0  0  0  0  0  0  0  0  0
   35.8230   27.3640   37.2700 H   0  0  0  0  0  0  0  0  0  0  0  0
   38.0050   27.3770   43.6800 C   0  0  0  0  0  0  0  0  0  0  0  0
   37.1620   27.0410   42.5870 C   0  0  0  0  0  0  0  0  0  0  0  0
   37.7380   26.5780   41.4310 C   0  0  0  0  0  0  0  0  0  0  0  0
   39.1080   26.4670   41.3970 N   0  0  0  0  0  0  0  0  0  0  0  0
   39.9000   26.7890   42.4390 C   0  0  0  0  0  0  0  0  0  0  0  0
   39.3350   27.2520   43.5990 N   0  0  0  0  0  0  0  0  0  0  0  0
   37.5280   27.7400   44.5820 H   0  0  0  0  0  0  0  0  0  0  0  0
   36.0850   27.1340   42.6280 H   0  0  0  0  0  0  0  0  0  0  0  0
   40.9640   26.6530   42.2790 H   0  0  0  0  0  0  0  0  0  0  0  0
   36.6860   29.6050   39.7890 C   0  0  0  0  0  0  0  0  0  0  0  0
   35.5230   29.7830   40.2190 O   0  0  0  0  0  0  0  0  0  0  0  0
   37.2170   28.3640   39.3600 N   0  0  0  0  0  0  0  0  0  0  0  0
   38.2040   28.2230   39.0470 H   0  0  0  0  0  0  0  0  0  0  0  0
   36.9490   32.0110   39.9600 C   0  0  0  0  0  3  0  0  0  0  0  0
   37.5370   30.7860   39.7360 C   0  0  0  0  0  0  0  0  0  0  0  0
   38.8900   30.8150   39.4790 C   0  0  0  0  0  0  0  0  0  0  0  0
   39.3780   29.8710   39.2990 H   0  0  0  0  0  0  0  0  0  0  0  0
   39.6370   31.9660   39.4410 C   0  0  0  0  0  0  0  0  0  0  0  0
   40.9370   32.2130   39.2150 N   0  0  0  0  0  0  0  0  0  0  0  0
   41.1470   33.5490   39.2970 C   0  0  0  0  0  0  0  0  0  0  0  0
   42.0300   34.1390   39.1830 H   0  0  0  0  0  0  0  0  0  0  0  0
   39.9700   34.1610   39.5780 N   0  0  0  0  0  0  0  0  0  0  0  0
   39.0430   33.1880   39.6670 C   0  0  0  0  0  0  0  0  0  0  0  0
   37.6880   33.2010   39.9280 C   0  0  0  0  0  3  0  0  0  0  0  0
   41.6940   31.5340   39.0080 H   0  0  0  0  0  0  0  0  0  0  0  0
  1 13  1  0  0  0  0
  2  1  1  0  0  0  0
  2  7  1  0  0  0  0
  3  8  1  0  0  0  0
  3  2  2  0  0  0  0
  4  5  2  0  0  0  0
  4  3  1  0  0  0  0
  5  6  1  0  0  0  0
  6 22  1  0  0  0  0
  6  1  2  0  0  0  0
  9  4  1  0  0  0  0
 10  5  1  0  0  0  0
 11 17  1  0  0  0  0
 12 18  1  0  0  0  0
 12 11  2  0  0  0  0
 13 12  1  0  0  0  0
 14 13  2  0  0  0  0
 14 15  1  0  0  0  0
 15 16  2  0  0  0  0
 16 11  1  0  0  0  0
 19 15  1  0  0  0  0
 20 21  2  0  0  0  0
 22 20  1  0  0  0  0
 23 22  1  0  0  0  0
 25 20  1  0  0  0  0
 25 24  2  0  0  0  0
 26 25  1  0  0  0  0
 27 26  1  0  0  0  0
 28 26  2  0  0  0  0
 28 33  1  0  0  0  0
 29 30  1  0  0  0  0
 29 28  1  0  0  0  0
 30 32  2  0  0  0  0
 31 30  1  0  0  0  0
 32 33  1  0  0  0  0
 33 34  2  0  0  0  0
 34 24  1  0  0  0  0
 35 29  1  0  0  0  0
M  END
>  <minimizedAffinity>
-5.56444454

$$$$

 OpenBabel03242517013D

 35 38  0  0  0  0  0  0  0  0999 V2000
   37.4500   26.6990   41.5760 C   0  0  0  0  0  0  0  0  0  0  0  0
   38.1720   26.3800   42.7280 C   0  0  0  0  0  0  0  0  0  0  0  0
   38.4030   27.3710   43.6650 C   0  0  0  0  0  0  0  0  0  0  0  0
   37.9190   28.6440   43.4440 C   0  0  0  0  0  0  0  0  0  0  0  0
   37.2100   28.9940   42.3350 C   0  0  0  0  0  0  0  0  0  0  0  0
   36.9920   27.9650   41.4000 C   0  0  0  0  0  0  0  0  0  0  0  0
   38.5450   25.3710   42.8800 H   0  0  0  0  0  0  0  0  0  0  0  0
   38.9690   27.0620   44.5340 H   0  0  0  0  0  0  0  0  0  0  0  0
   38.1110   29.4050   44.1900 H   0  0  0  0  0  0  0  0  0  0  0  0
   36.8250   29.9880   42.1500 H   0  0  0  0  0  0  0  0  0  0  0  0
   36.4360   23.4800   39.8830 C   0  0  0  0  0  0  0  0  0  0  0  0
   36.5680   24.4550   40.9080 C   0  0  0  0  0  0  0  0  0  0  0  0
   37.2390   25.6180   40.6260 C   0  0  0  0  0  0  0  0  0  0  0  0
   37.7480   25.7730   39.3590 N   0  0  0  0  0  0  0  0  0  0  0  0
   37.6190   24.8430   38.3920 C   0  0  0  0  0  0  0  0  0  0  0  0
   36.9500   23.6770   38.6630 N   0  0  0  0  0  0  0  0  0  0  0  0
   35.9020   22.5700   40.1280 H   0  0  0  0  0  0  0  0  0  0  0  0
   36.1620   24.3190   41.9010 H   0  0  0  0  0  0  0  0  0  0  0  0
   38.0680   25.0920   37.4370 H   0  0  0  0  0  0  0  0  0  0  0  0
   36.4020   29.0550   39.0860 C   0  0  0  0  0  0  0  0  0  0  0  0
   37.3380   29.8660   38.9020 O   0  0  0  0  0  0  0  0  0  0  0  0
   36.2750   28.1950   40.2030 N   0  0  0  0  0  0  0  0  0  0  0  0
   35.5110   27.4910   40.3200 H   0  0  0  0  0  0  0  0  0  0  0  0
   35.7830   29.1150   36.7410 C   0  0  0  0  0  3  0  0  0  0  0  0
   35.3760   29.0170   38.0520 C   0  0  0  0  0  0  0  0  0  0  0  0
   34.0180   28.8940   38.2450 C   0  0  0  0  0  0  0  0  0  0  0  0
   33.6690   28.8150   39.2620 H   0  0  0  0  0  0  0  0  0  0  0  0
   33.0990   28.8650   37.2250 C   0  0  0  0  0  0  0  0  0  0  0  0
   31.7620   28.7530   37.1930 N   0  0  0  0  0  0  0  0  0  0  0  0
   31.3530   28.7810   35.9010 C   0  0  0  0  0  0  0  0  0  0  0  0
   30.3830   28.7200   35.4600 H   0  0  0  0  0  0  0  0  0  0  0  0
   32.4410   28.9110   35.1010 N   0  0  0  0  0  0  0  0  0  0  0  0
   33.5130   28.9620   35.9140 C   0  0  0  0  0  0  0  0  0  0  0  0
   34.8670   29.0880   35.6800 C   0  0  0  0  0  3  0  0  0  0  0  0
   31.1050   28.6600   37.9910 H   0  0  0  0  0  0  0  0  0  0  0  0
  1  2  1  0  0  0  0
  2  7  1  0  0  0  0
  2  3  2  0  0  0  0
  3  8  1  0  0  0  0
  4  3  1  0  0  0  0
  4  9  1  0  0  0  0
  5  4  2  0  0  0  0
  6  1  2  0  0  0  0
  6  5  1  0  0  0  0
 10  5  1  0  0  0  0
 11 17  1  0  0  0  0
 11 12  1  0  0  0  0
 12 18  1  0  0  0  0
 13 12  2  0  0  0  0
 13  1  1  0  0  0  0
 14 13  1  0  0  0  0
 15 16  1  0  0  0  0
 15 14  2  0  0  0  0
 16 11  2  0  0  0  0
 19 15  1  0  0  0  0
 20 22  1  0  0  0  0
 21 20  2  0  0  0  0
 22 23  1  0  0  0  0
 22  6  1  0  0  0  0
 24 25  1  0  0  0  0
 25 26  2  0  0  0  0
 25 20  1  0  0  0  0
 26 27  1  0  0  0  0
 28 26  1  0  0  0  0
 29 28  1  0  0  0  0
 29 35  1  0  0  0  0
 30 29  1  0  0  0  0
 31 30  1  0  0  0  0
 32 30  2  0  0  0  0
 32 33  1  0  0  0  0
 33 28  2  0  0  0  0
 34 33  1  0  0  0  0
 34 24  2  0  0  0  0
M  END
>  <minimizedAffinity>
-5.55890512

$$$$

 OpenBabel03242517013D

 35 38  0  0  0  0  0  0  0  0999 V2000
   38.4020   25.5660   40.0510 C   0  0  0  0  0  0  0  0  0  0  0  0
   38.3470   24.1710   40.0210 C   0  0  0  0  0  0  0  0  0  0  0  0
   37.7270   23.5060   41.0620 C   0  0  0  0  0  0  0  0  0  0  0  0
   37.1790   24.2290   42.1020 C   0  0  0  0  0  0  0  0  0  0  0  0
   37.2110   25.5890   42.1690 C   0  0  0  0  0  0  0  0  0  0  0  0
   37.8490   26.2370   41.0950 C   0  0  0  0  0  0  0  0  0  0  0  0
   38.7860   23.6220   39.1910 H   0  0  0  0  0  0  0  0  0  0  0  0
   37.7180   22.4270   40.9810 H   0  0  0  0  0  0  0  0  0  0  0  0
   36.6980   23.6880   42.9080 H   0  0  0  0  0  0  0  0  0  0  0  0
   36.7850   26.1670   42.9780 H   0  0  0  0  0  0  0  0  0  0  0  0
   39.3290   26.9160   36.6490 C   0  0  0  0  0  0  0  0  0  0  0  0
   38.5730   26.2510   37.6510 C   0  0  0  0  0  0  0  0  0  0  0  0
   39.0670   26.2120   38.9300 C   0  0  0  0  0  0  0  0  0  0  0  0
   40.2750   26.8230   39.1690 N   0  0  0  0  0  0  0  0  0  0  0  0
   40.9860   27.4520   38.2130 C   0  0  0  0  0  0  0  0  0  0  0  0
   40.5010   27.4970   36.9310 N   0  0  0  0  0  0  0  0  0  0  0  0
   38.9190   26.9340   35.6470 H   0  0  0  0  0  0  0  0  0  0  0  0
   37.6240   25.7740   37.4470 H   0  0  0  0  0  0  0  0  0  0  0  0
   41.9220   27.8930   38.5370 H   0  0  0  0  0  0  0  0  0  0  0  0
   37.7050   28.7230   41.9250 C   0  0  0  0  0  0  0  0  0  0  0  0
   37.3240   28.6090   43.1120 O   0  0  0  0  0  0  0  0  0  0  0  0
   37.9560   27.6460   41.0410 N   0  0  0  0  0  0  0  0  0  0  0  0
   38.3180   27.7560   40.0660 H   0  0  0  0  0  0  0  0  0  0  0  0
   36.8440   30.6830   40.7830 C   0  0  0  0  0  3  0  0  0  0  0  0
   37.8950   30.0840   41.4410 C   0  0  0  0  0  0  0  0  0  0  0  0
   39.0310   30.8520   41.5690 C   0  0  0  0  0  0  0  0  0  0  0  0
   39.8700   30.4100   42.0800 H   0  0  0  0  0  0  0  0  0  0  0  0
   39.1470   32.1330   41.0880 C   0  0  0  0  0  0  0  0  0  0  0  0
   40.1390   33.0370   41.1060 N   0  0  0  0  0  0  0  0  0  0  0  0
   39.7160   34.1610   40.4770 C   0  0  0  0  0  0  0  0  0  0  0  0
   40.1990   35.0930   40.2840 H   0  0  0  0  0  0  0  0  0  0  0  0
   38.4410   33.9720   40.0560 N   0  0  0  0  0  0  0  0  0  0  0  0
   38.0910   32.7270   40.4310 C   0  0  0  0  0  0  0  0  0  0  0  0
   36.9350   31.9890   40.2820 C   0  0  0  0  0  3  0  0  0  0  0  0
   41.0880   32.9430   41.5150 H   0  0  0  0  0  0  0  0  0  0  0  0
  1  6  1  0  0  0  0
  2  1  2  0  0  0  0
  2  3  1  0  0  0  0
  3  4  2  0  0  0  0
  4  5  1  0  0  0  0
  4  9  1  0  0  0  0
  5 10  1  0  0  0  0
  6  5  2  0  0  0  0
  7  2  1  0  0  0  0
  8  3  1  0  0  0  0
 11 16  2  0  0  0  0
 11 12  1  0  0  0  0
 12 13  2  0  0  0  0
 13 14  1  0  0  0  0
 13  1  1  0  0  0  0
 15 19  1  0  0  0  0
 15 14  2  0  0  0  0
 16 15  1  0  0  0  0
 17 11  1  0  0  0  0
 18 12  1  0  0  0  0
 20 21  2  0  0  0  0
 22  6  1  0  0  0  0
 22 20  1  0  0  0  0
 23 22  1  0  0  0  0
 24 25  1  0  0  0  0
 25 26  2  0  0  0  0
 25 20  1  0  0  0  0
 26 27  1  0  0  0  0
 28 29  1  0  0  0  0
 28 26  1  0  0  0  0
 29 35  1  0  0  0  0
 30 29  1  0  0  0  0
 31 30  1  0  0  0  0
 32 33  1  0  0  0  0
 32 30  2  0  0  0  0
 33 28  2  0  0  0  0
 34 33  1  0  0  0  0
 34 24  2  0  0  0  0
M  END
>  <minimizedAffinity>
-5.53477478

$$$$

 OpenBabel03242517013D

 35 38  0  0  0  0  0  0  0  0999 V2000
   37.1260   25.4280   40.4380 C   0  0  0  0  0  0  0  0  0  0  0  0
   36.4830   24.2000   40.5980 C   0  0  0  0  0  0  0  0  0  0  0  0
   35.6710   23.7350   39.5790 C   0  0  0  0  0  0  0  0  0  0  0  0
   35.5150   24.4900   38.4350 C   0  0  0  0  0  0  0  0  0  0  0  0
   36.1250   25.6920   38.2410 C   0  0  0  0  0  0  0  0  0  0  0  0
   36.9430   26.1380   39.2950 C   0  0  0  0  0  0  0  0  0  0  0  0
   36.6200   23.6220   41.5090 H   0  0  0  0  0  0  0  0  0  0  0  0
   35.2010   22.7780   39.7630 H   0  0  0  0  0  0  0  0  0  0  0  0
   34.8750   24.1080   37.6500 H   0  0  0  0  0  0  0  0  0  0  0  0
   36.0100   26.2940   37.3490 H   0  0  0  0  0  0  0  0  0  0  0  0
   39.8340   25.7640   43.0490 C   0  0  0  0  0  0  0  0  0  0  0  0
   39.1080   25.2270   41.9520 C   0  0  0  0  0  0  0  0  0  0  0  0
   37.9660   25.8670   41.5430 C   0  0  0  0  0  0  0  0  0  0  0  0
   37.5880   26.9990   42.2230 N   0  0  0  0  0  0  0  0  0  0  0  0
   38.2820   27.5030   43.2630 C   0  0  0  0  0  0  0  0  0  0  0  0
   39.4250   26.8710   43.6800 N   0  0  0  0  0  0  0  0  0  0  0  0
   40.7330   25.2420   43.3540 H   0  0  0  0  0  0  0  0  0  0  0  0
   39.4190   24.3340   41.4260 H   0  0  0  0  0  0  0  0  0  0  0  0
   37.8730   28.4020   43.7100 H   0  0  0  0  0  0  0  0  0  0  0  0
   37.2780   28.7270   39.0190 C   0  0  0  0  0  0  0  0  0  0  0  0
   36.1100   29.1560   38.8820 O   0  0  0  0  0  0  0  0  0  0  0  0
   37.6320   27.3720   39.2250 N   0  0  0  0  0  0  0  0  0  0  0  0
   38.6090   27.0350   39.3830 H   0  0  0  0  0  0  0  0  0  0  0  0
   39.0660   29.9600   40.1010 C   0  0  0  0  0  3  0  0  0  0  0  0
   38.3380   29.7250   38.9560 C   0  0  0  0  0  0  0  0  0  0  0  0
   38.6990   30.4740   37.8580 C   0  0  0  0  0  0  0  0  0  0  0  0
   38.1470   30.3120   36.9470 H   0  0  0  0  0  0  0  0  0  0  0  0
   39.7110   31.4020   37.8640 C   0  0  0  0  0  0  0  0  0  0  0  0
   40.2150   32.2210   36.9270 N   0  0  0  0  0  0  0  0  0  0  0  0
   41.2230   32.9410   37.4750 C   0  0  0  0  0  0  0  0  0  0  0  0
   41.8680   33.6880   37.0670 H   0  0  0  0  0  0  0  0  0  0  0  0
   41.3650   32.5780   38.7740 N   0  0  0  0  0  0  0  0  0  0  0  0
   40.4360   31.6320   39.0120 C   0  0  0  0  0  0  0  0  0  0  0  0
   40.1050   30.9010   40.1340 C   0  0  0  0  0  3  0  0  0  0  0  0
   39.9190   32.3250   35.9380 H   0  0  0  0  0  0  0  0  0  0  0  0
  1  2  1  0  0  0  0
  1 13  1  0  0  0  0
  2  7  1  0  0  0  0
  3  8  1  0  0  0  0
  3  2  2  0  0  0  0
  4  3  1  0  0  0  0
  5  4  2  0  0  0  0
  5  6  1  0  0  0  0
  6  1  2  0  0  0  0
  9  4  1  0  0  0  0
 10  5  1  0  0  0  0
 11 17  1  0  0  0  0
 11 16  1  0  0  0  0
 12 11  2  0  0  0  0
 13 12  1  0  0  0  0
 13 14  2  0  0  0  0
 14 15  1  0  0  0  0
 15 16  2  0  0  0  0
 15 19  1  0  0  0  0
 18 12  1  0  0  0  0
 20 22  1  0  0  0  0
 21 20  2  0  0  0  0
 22  6  1  0  0  0  0
 22 23  1  0  0  0  0
 24 34  1  0  0  0  0
 25 20  1  0  0  0  0
 25 24  2  0  0  0  0
 26 28  2  0  0  0  0
 26 25  1  0  0  0  0
 27 26  1  0  0  0  0
 28 33  1  0  0  0  0
 29 30  1  0  0  0  0
 29 28  1  0  0  0  0
 30 32  2  0  0  0  0
 31 30  1  0  0  0  0
 32 33  1  0  0  0  0
 33 34  2  0  0  0  0
 35 29  1  0  0  0  0
M  END
>  <minimizedAffinity>
-5.52614498

$$$$

 OpenBabel03242517013D

 35 38  0  0  0  0  0  0  0  0999 V2000
   36.8200   28.7700   39.9230 C   0  0  0  0  0  0  0  0  0  0  0  0
   35.7320   28.1000   39.3610 C   0  0  0  0  0  0  0  0  0  0  0  0
   35.2140   28.5580   38.1630 C   0  0  0  0  0  0  0  0  0  0  0  0
   35.7790   29.6610   37.5550 C   0  0  0  0  0  0  0  0  0  0  0  0
   36.8400   30.3410   38.0710 C   0  0  0  0  0  0  0  0  0  0  0  0
   37.3440   29.8500   39.2890 C   0  0  0  0  0  0  0  0  0  0  0  0
   35.3030   27.2340   39.8580 H   0  0  0  0  0  0  0  0  0  0  0  0
   34.3710   27.9980   37.7800 H   0  0  0  0  0  0  0  0  0  0  0  0
   35.3570   30.0040   36.6180 H   0  0  0  0  0  0  0  0  0  0  0  0
   37.2920   31.2060   37.6030 H   0  0  0  0  0  0  0  0  0  0  0  0
   38.3000   26.5990   42.6360 C   0  0  0  0  0  0  0  0  0  0  0  0
   37.8470   26.9850   41.3460 C   0  0  0  0  0  0  0  0  0  0  0  0
   37.3230   28.2430   41.1830 C   0  0  0  0  0  0  0  0  0  0  0  0
   37.2670   29.0610   42.2860 N   0  0  0  0  0  0  0  0  0  0  0  0
   37.6990   28.6870   43.5060 C   0  0  0  0  0  0  0  0  0  0  0  0
   38.2250   27.4330   43.6800 N   0  0  0  0  0  0  0  0  0  0  0  0
   38.7100   25.6020   42.7400 H   0  0  0  0  0  0  0  0  0  0  0  0
   37.8970   26.3300   40.4870 H   0  0  0  0  0  0  0  0  0  0  0  0
   37.5980   29.4310   44.2890 H   0  0  0  0  0  0  0  0  0  0  0  0
   38.6980   31.7200   40.5400 C   0  0  0  0  0  0  0  0  0  0  0  0
   37.8610   32.6430   40.6710 O   0  0  0  0  0  0  0  0  0  0  0  0
   38.4420   30.4660   39.9350 N   0  0  0  0  0  0  0  0  0  0  0  0
   39.1380   29.6880   39.8740 H   0  0  0  0  0  0  0  0  0  0  0  0
   40.5150   31.1610   42.0470 C   0  0  0  0  0  3  0  0  0  0  0  0
   40.0330   31.9880   41.0570 C   0  0  0  0  0  0  0  0  0  0  0  0
   40.8820   32.9960   40.6600 C   0  0  0  0  0  0  0  0  0  0  0  0
   40.5330   33.6600   39.8870 H   0  0  0  0  0  0  0  0  0  0  0  0
   42.1340   33.1970   41.1900 C   0  0  0  0  0  0  0  0  0  0  0  0
   43.1010   34.0970   40.9530 N   0  0  0  0  0  0  0  0  0  0  0  0
   44.1490   33.8350   41.7700 C   0  0  0  0  0  0  0  0  0  0  0  0
   45.0970   34.3120   41.8880 H   0  0  0  0  0  0  0  0  0  0  0  0
   43.8480   32.7570   42.5370 N   0  0  0  0  0  0  0  0  0  0  0  0
   42.6100   32.3650   42.1800 C   0  0  0  0  0  0  0  0  0  0  0  0
   41.7880   31.3420   42.6050 C   0  0  0  0  0  3  0  0  0  0  0  0
   43.0980   34.8800   40.2720 H   0  0  0  0  0  0  0  0  0  0  0  0
  1 13  1  0  0  0  0
  2  7  1  0  0  0  0
  2  1  1  0  0  0  0
  3  2  2  0  0  0  0
  4  5  2  0  0  0  0
  4  3  1  0  0  0  0
  5  6  1  0  0  0  0
  6  1  2  0  0  0  0
  6 22  1  0  0  0  0
  8  3  1  0  0  0  0
  9  4  1  0  0  0  0
 10  5  1  0  0  0  0
 11 17  1  0  0  0  0
 11 16  1  0  0  0  0
 12 11  2  0  0  0  0
 13 12  1  0  0  0  0
 13 14  2  0  0  0  0
 14 15  1  0  0  0  0
 15 16  2  0  0  0  0
 15 19  1  0  0  0  0
 18 12  1  0  0  0  0
 20 21  2  0  0  0  0
 20 25  1  0  0  0  0
 22 20  1  0  0  0  0
 23 22  1  0  0  0  0
 24 34  1  0  0  0  0
 25 24  2  0  0  0  0
 26 25  1  0  0  0  0
 26 28  2  0  0  0  0
 27 26  1  0  0  0  0
 28 33  1  0  0  0  0
 29 28  1  0  0  0  0
 29 30  1  0  0  0  0
 30 31  1  0  0  0  0
 30 32  2  0  0  0  0
 33 32  1  0  0  0  0
 33 34  2  0  0  0  0
 35 29  1  0  0  0  0
M  END
>  <minimizedAffinity>
-5.50337601

$$$$

 OpenBabel03242517013D

 35 38  0  0  0  0  0  0  0  0999 V2000
   38.4720   25.8990   41.6560 C   0  0  0  0  0  0  0  0  0  0  0  0
   39.1480   25.3380   42.7410 C   0  0  0  0  0  0  0  0  0  0  0  0
   39.7240   26.1800   43.6750 C   0  0  0  0  0  0  0  0  0  0  0  0
   39.6200   27.5470   43.5140 C   0  0  0  0  0  0  0  0  0  0  0  0
   38.9700   28.1320   42.4700 C   0  0  0  0  0  0  0  0  0  0  0  0
   38.3950   27.2490   41.5380 C   0  0  0  0  0  0  0  0  0  0  0  0
   39.2170   24.2580   42.8470 H   0  0  0  0  0  0  0  0  0  0  0  0
   40.2330   25.6860   44.4910 H   0  0  0  0  0  0  0  0  0  0  0  0
   40.0790   28.1890   44.2560 H   0  0  0  0  0  0  0  0  0  0  0  0
   38.8820   29.2020   42.3330 H   0  0  0  0  0  0  0  0  0  0  0  0
   36.2810   23.3640   39.9140 C   0  0  0  0  0  0  0  0  0  0  0  0
   36.7410   24.2440   40.9300 C   0  0  0  0  0  0  0  0  0  0  0  0
   37.8870   24.9640   40.7060 C   0  0  0  0  0  0  0  0  0  0  0  0
   38.5280   24.7910   39.5030 N   0  0  0  0  0  0  0  0  0  0  0  0
   38.0840   23.9540   38.5440 C   0  0  0  0  0  0  0  0  0  0  0  0
   36.9410   23.2300   38.7570 N   0  0  0  0  0  0  0  0  0  0  0  0
   35.3740   22.8060   40.1130 H   0  0  0  0  0  0  0  0  0  0  0  0
   36.2260   24.3690   41.8730 H   0  0  0  0  0  0  0  0  0  0  0  0
   38.6850   23.9130   37.6410 H   0  0  0  0  0  0  0  0  0  0  0  0
   36.4390   28.3310   40.1620 C   0  0  0  0  0  0  0  0  0  0  0  0
   35.6050   28.6430   41.0430 O   0  0  0  0  0  0  0  0  0  0  0  0
   37.6950   27.7250   40.4050 N   0  0  0  0  0  0  0  0  0  0  0  0
   38.3990   27.5120   39.6620 H   0  0  0  0  0  0  0  0  0  0  0  0
   34.7360   28.4570   38.4380 C   0  0  0  0  0  3  0  0  0  0  0  0
   36.0570   28.6240   38.7860 C   0  0  0  0  0  0  0  0  0  0  0  0
   36.8880   29.0550   37.7760 C   0  0  0  0  0  0  0  0  0  0  0  0
   37.9280   29.1940   38.0190 H   0  0  0  0  0  0  0  0  0  0  0  0
   36.4650   29.3130   36.4950 C   0  0  0  0  0  0  0  0  0  0  0  0
   37.0930   29.7320   35.3850 N   0  0  0  0  0  0  0  0  0  0  0  0
   36.1870   29.8220   34.3810 C   0  0  0  0  0  0  0  0  0  0  0  0
   36.2850   30.1140   33.3590 H   0  0  0  0  0  0  0  0  0  0  0  0
   34.9700   29.4570   34.8550 N   0  0  0  0  0  0  0  0  0  0  0  0
   35.1410   29.1450   36.1540 C   0  0  0  0  0  0  0  0  0  0  0  0
   34.2770   28.7140   37.1390 C   0  0  0  0  0  3  0  0  0  0  0  0
   38.0970   29.9610   35.2620 H   0  0  0  0  0  0  0  0  0  0  0  0
  1  2  1  0  0  0  0
  2  7  1  0  0  0  0
  2  3  2  0  0  0  0
  3  8  1  0  0  0  0
  4  3  1  0  0  0  0
  4  9  1  0  0  0  0
  5  4  2  0  0  0  0
  6  1  2  0  0  0  0
  6  5  1  0  0  0  0
 10  5  1  0  0  0  0
 11 17  1  0  0  0  0
 11 12  1  0  0  0  0
 12 18  1  0  0  0  0
 13 12  2  0  0  0  0
 13  1  1  0  0  0  0
 14 13  1  0  0  0  0
 15 16  1  0  0  0  0
 15 14  2  0  0  0  0
 16 11  2  0  0  0  0
 19 15  1  0  0  0  0
 20 22  1  0  0  0  0
 20 21  2  0  0  0  0
 22  6  1  0  0  0  0
 23 22  1  0  0  0  0
 24 25  1  0  0  0  0
 25 20  1  0  0  0  0
 26 27  1  0  0  0  0
 26 25  2  0  0  0  0
 28 26  1  0  0  0  0
 29 28  1  0  0  0  0
 30 32  2  0  0  0  0
 30 29  1  0  0  0  0
 31 30  1  0  0  0  0
 32 33  1  0  0  0  0
 33 28  2  0  0  0  0
 33 34  1  0  0  0  0
 34 24  2  0  0  0  0
 35 29  1  0  0  0  0
M  END
>  <minimizedAffinity>
-5.44802904

$$$$
