
 OpenBabel03252508503D

 31 34  0  0  0  0  0  0  0  0999 V2000
   45.8500   34.2190   41.0340 C   0  0  0  0  0  0  0  0  0  0  0  0
   46.4730   34.7840   42.1420 C   0  0  0  0  0  0  0  0  0  0  0  0
   47.8430   35.0720   42.0110 C   0  0  0  0  0  0  0  0  0  0  0  0
   48.4560   34.7820   40.8250 N   0  0  0  0  0  0  0  0  0  0  0  0
   47.8110   34.2420   39.7970 C   0  0  0  0  0  0  0  0  0  0  0  0
   46.5030   33.9540   39.8900 N   0  0  0  0  0  0  0  0  0  0  0  0
   48.3390   35.5140   42.8700 H   0  0  0  0  0  0  0  0  0  0  0  0
   48.3380   34.0280   38.8740 H   0  0  0  0  0  0  0  0  0  0  0  0
   45.7170   35.0460   43.3460 C   0  0  0  0  0  0  0  0  0  0  0  0
   45.1000   36.2700   43.5950 C   0  0  0  0  0  0  0  0  0  0  0  0
   44.5080   36.0760   44.8260 C   0  0  0  0  0  0  0  0  0  0  0  0
   44.7460   34.8220   45.2960 N   0  0  0  0  0  0  0  0  0  0  0  0
   45.4780   34.2270   44.3780 N   0  0  0  0  0  0  0  0  0  0  0  0
   45.0610   37.1870   43.0050 H   0  0  0  0  0  0  0  0  0  0  0  0
   43.9190   36.7870   45.4000 H   0  0  0  0  0  0  0  0  0  0  0  0
   44.4370   34.3780   46.1850 H   0  0  0  0  0  0  0  0  0  0  0  0
   44.5000   33.9210   41.1220 O   0  0  0  0  0  0  0  0  0  0  0  0
   43.4570   34.6730   40.6660 C   0  0  0  0  0  0  0  0  0  0  0  0
   43.2890   35.9360   40.7970 O   0  0  0  0  0  0  0  0  0  0  0  0
   41.1400   34.8340   39.7090 C   0  0  0  0  0  3  0  0  0  0  0  0
   42.2960   34.1200   39.9120 C   0  0  0  0  0  0  0  0  0  0  0  0
   42.2920   32.8510   39.3640 C   0  0  0  0  0  0  0  0  0  0  0  0
   43.1780   32.2420   39.4940 H   0  0  0  0  0  0  0  0  0  0  0  0
   41.2650   32.2700   38.6610 C   0  0  0  0  0  0  0  0  0  0  0  0
   41.1120   31.0690   38.0780 N   0  0  0  0  0  0  0  0  0  0  0  0
   39.8720   31.0650   37.5290 C   0  0  0  0  0  0  0  0  0  0  0  0
   39.5400   30.1750   37.0010 H   0  0  0  0  0  0  0  0  0  0  0  0
   39.2790   32.2490   37.7760 N   0  0  0  0  0  0  0  0  0  0  0  0
   40.1300   33.0300   38.4870 C   0  0  0  0  0  0  0  0  0  0  0  0
   40.0560   34.3020   39.0020 C   0  0  0  0  0  3  0  0  0  0  0  0
   41.8370   30.3100   38.0720 H   0  0  0  0  0  0  0  0  0  0  0  0
  1 17  1  0  0  0  0
  1  2  1  0  0  0  0
  2  9  1  0  0  0  0
  3  2  2  0  0  0  0
  3  7  1  0  0  0  0
  4  3  1  0  0  0  0
  5  6  1  0  0  0  0
  5  4  2  0  0  0  0
  6  1  2  0  0  0  0
  8  5  1  0  0  0  0
  9 10  1  0  0  0  0
  9 13  2  0  0  0  0
 10 11  2  0  0  0  0
 11 12  1  0  0  0  0
 11 15  1  0  0  0  0
 12 16  1  0  0  0  0
 13 12  1  0  0  0  0
 14 10  1  0  0  0  0
 18 19  2  0  0  0  0
 18 17  1  0  0  0  0
 20 21  1  0  0  0  0
 21 18  1  0  0  0  0
 22 23  1  0  0  0  0
 22 21  2  0  0  0  0
 24 22  1  0  0  0  0
 25 24  1  0  0  0  0
 26 28  2  0  0  0  0
 26 25  1  0  0  0  0
 27 26  1  0  0  0  0
 28 29  1  0  0  0  0
 29 24  2  0  0  0  0
 29 30  1  0  0  0  0
 30 20  2  0  0  0  0
 31 25  1  0  0  0  0
M  END
>  <minimizedAffinity>
-5.71625185

>  <minimizedRMSD>
1.0578022

$$$$
