
 OpenBabel03252508503D

 31 34  0  0  0  0  0  0  0  0999 V2000
   45.8980   34.2050   41.0500 C   0  0  0  0  0  0  0  0  0  0  0  0
   46.5060   34.6800   42.2070 C   0  0  0  0  0  0  0  0  0  0  0  0
   47.8830   34.9540   42.1240 C   0  0  0  0  0  0  0  0  0  0  0  0
   48.5160   34.7380   40.9320 N   0  0  0  0  0  0  0  0  0  0  0  0
   47.8850   34.2830   39.8560 C   0  0  0  0  0  0  0  0  0  0  0  0
   46.5700   34.0110   39.9030 N   0  0  0  0  0  0  0  0  0  0  0  0
   48.3690   35.3250   43.0210 H   0  0  0  0  0  0  0  0  0  0  0  0
   48.4270   34.1270   38.9310 H   0  0  0  0  0  0  0  0  0  0  0  0
   45.7300   34.8680   43.4120 C   0  0  0  0  0  0  0  0  0  0  0  0
   45.1310   36.0830   43.7380 C   0  0  0  0  0  0  0  0  0  0  0  0
   44.5090   35.8120   44.9390 C   0  0  0  0  0  0  0  0  0  0  0  0
   44.7150   34.5220   45.3200 N   0  0  0  0  0  0  0  0  0  0  0  0
   45.4550   33.9820   44.3760 N   0  0  0  0  0  0  0  0  0  0  0  0
   45.1210   37.0410   43.2150 H   0  0  0  0  0  0  0  0  0  0  0  0
   43.9200   36.4900   45.5510 H   0  0  0  0  0  0  0  0  0  0  0  0
   44.3790   34.0210   46.1690 H   0  0  0  0  0  0  0  0  0  0  0  0
   44.5420   33.9230   41.0910 O   0  0  0  0  0  0  0  0  0  0  0  0
   43.5190   34.7340   40.6940 C   0  0  0  0  0  0  0  0  0  0  0  0
   43.3730   35.9830   40.9360 O   0  0  0  0  0  0  0  0  0  0  0  0
   41.8110   35.0350   38.8760 C   0  0  0  0  0  3  0  0  0  0  0  0
   42.3570   34.2740   39.8830 C   0  0  0  0  0  0  0  0  0  0  0  0
   41.7370   33.0540   40.0800 C   0  0  0  0  0  0  0  0  0  0  0  0
   42.1260   32.4120   40.8620 H   0  0  0  0  0  0  0  0  0  0  0  0
   40.6640   32.5610   39.3800 C   0  0  0  0  0  0  0  0  0  0  0  0
   39.9630   31.4160   39.4530 N   0  0  0  0  0  0  0  0  0  0  0  0
   39.0050   31.4920   38.4970 C   0  0  0  0  0  0  0  0  0  0  0  0
   38.3190   30.6580   38.3820 H   0  0  0  0  0  0  0  0  0  0  0  0
   39.1220   32.6680   37.8500 N   0  0  0  0  0  0  0  0  0  0  0  0
   40.1580   33.3650   38.3830 C   0  0  0  0  0  0  0  0  0  0  0  0
   40.7180   34.5920   38.1240 C   0  0  0  0  0  3  0  0  0  0  0  0
   40.1540   30.6400   40.1330 H   0  0  0  0  0  0  0  0  0  0  0  0
  1 17  1  0  0  0  0
  1  2  1  0  0  0  0
  2  9  1  0  0  0  0
  3  2  2  0  0  0  0
  3  7  1  0  0  0  0
  4  3  1  0  0  0  0
  5  6  1  0  0  0  0
  5  4  2  0  0  0  0
  6  1  2  0  0  0  0
  8  5  1  0  0  0  0
  9 10  1  0  0  0  0
  9 13  2  0  0  0  0
 10 11  2  0  0  0  0
 11 12  1  0  0  0  0
 11 15  1  0  0  0  0
 12 16  1  0  0  0  0
 13 12  1  0  0  0  0
 14 10  1  0  0  0  0
 18 19  2  0  0  0  0
 18 17  1  0  0  0  0
 20 21  1  0  0  0  0
 21 22  2  0  0  0  0
 21 18  1  0  0  0  0
 22 23  1  0  0  0  0
 24 25  1  0  0  0  0
 24 22  1  0  0  0  0
 25 31  1  0  0  0  0
 26 25  1  0  0  0  0
 27 26  1  0  0  0  0
 28 29  1  0  0  0  0
 28 26  2  0  0  0  0
 29 24  2  0  0  0  0
 30 29  1  0  0  0  0
 30 20  2  0  0  0  0
M  END
>  <minimizedAffinity>
-5.83531809

>  <minimizedRMSD>
1.2886256

$$$$
