
 OpenBabel03252508503D

 31 34  0  0  0  0  0  0  0  0999 V2000
   45.9750   34.1920   41.0450 C   0  0  0  0  0  0  0  0  0  0  0  0
   46.5510   34.7280   42.1930 C   0  0  0  0  0  0  0  0  0  0  0  0
   47.9100   35.0800   42.1070 C   0  0  0  0  0  0  0  0  0  0  0  0
   48.5580   34.8760   40.9220 N   0  0  0  0  0  0  0  0  0  0  0  0
   47.9580   34.3600   39.8550 C   0  0  0  0  0  0  0  0  0  0  0  0
   46.6620   34.0130   39.9040 N   0  0  0  0  0  0  0  0  0  0  0  0
   48.3690   35.4990   42.9970 H   0  0  0  0  0  0  0  0  0  0  0  0
   48.5120   34.2160   38.9340 H   0  0  0  0  0  0  0  0  0  0  0  0
   45.7600   34.8970   43.3920 C   0  0  0  0  0  0  0  0  0  0  0  0
   45.1100   36.0890   43.7010 C   0  0  0  0  0  0  0  0  0  0  0  0
   44.4930   35.8050   44.9020 C   0  0  0  0  0  0  0  0  0  0  0  0
   44.7500   34.5300   45.2990 N   0  0  0  0  0  0  0  0  0  0  0  0
   45.5180   34.0110   44.3650 N   0  0  0  0  0  0  0  0  0  0  0  0
   45.0620   37.0390   43.1680 H   0  0  0  0  0  0  0  0  0  0  0  0
   43.8730   36.4650   45.5030 H   0  0  0  0  0  0  0  0  0  0  0  0
   44.4310   34.0250   46.1520 H   0  0  0  0  0  0  0  0  0  0  0  0
   44.6380   33.8330   41.0900 O   0  0  0  0  0  0  0  0  0  0  0  0
   43.5760   34.5460   40.6150 C   0  0  0  0  0  0  0  0  0  0  0  0
   43.3360   35.7940   40.7780 O   0  0  0  0  0  0  0  0  0  0  0  0
   42.6800   32.9140   38.9290 C   0  0  0  0  0  3  0  0  0  0  0  0
   42.4770   33.9600   39.7970 C   0  0  0  0  0  0  0  0  0  0  0  0
   41.1750   34.4240   39.8440 C   0  0  0  0  0  0  0  0  0  0  0  0
   40.9570   35.2480   40.5120 H   0  0  0  0  0  0  0  0  0  0  0  0
   40.1120   33.9410   39.1230 C   0  0  0  0  0  0  0  0  0  0  0  0
   38.8120   34.2800   39.0600 N   0  0  0  0  0  0  0  0  0  0  0  0
   38.2410   33.4410   38.1610 C   0  0  0  0  0  0  0  0  0  0  0  0
   37.1780   33.5440   37.9560 H   0  0  0  0  0  0  0  0  0  0  0  0
   39.1810   32.6030   37.6820 N   0  0  0  0  0  0  0  0  0  0  0  0
   40.3700   32.8930   38.2680 C   0  0  0  0  0  0  0  0  0  0  0  0
   41.6380   32.3750   38.1640 C   0  0  0  0  0  3  0  0  0  0  0  0
   38.3660   35.0500   39.6170 H   0  0  0  0  0  0  0  0  0  0  0  0
  1 17  1  0  0  0  0
  1  2  1  0  0  0  0
  2  9  1  0  0  0  0
  3  2  2  0  0  0  0
  3  7  1  0  0  0  0
  4  3  1  0  0  0  0
  5  6  1  0  0  0  0
  5  4  2  0  0  0  0
  6  1  2  0  0  0  0
  8  5  1  0  0  0  0
  9 10  1  0  0  0  0
  9 13  2  0  0  0  0
 10 11  2  0  0  0  0
 11 12  1  0  0  0  0
 11 15  1  0  0  0  0
 12 16  1  0  0  0  0
 13 12  1  0  0  0  0
 14 10  1  0  0  0  0
 18 19  2  0  0  0  0
 18 17  1  0  0  0  0
 20 21  1  0  0  0  0
 21 22  2  0  0  0  0
 21 18  1  0  0  0  0
 22 23  1  0  0  0  0
 24 22  1  0  0  0  0
 25 24  1  0  0  0  0
 25 31  1  0  0  0  0
 26 25  1  0  0  0  0
 27 26  1  0  0  0  0
 28 26  2  0  0  0  0
 28 29  1  0  0  0  0
 29 24  2  0  0  0  0
 30 29  1  0  0  0  0
 30 20  2  0  0  0  0
M  END
>  <minimizedAffinity>
-5.91688395

>  <minimizedRMSD>
0.828676164

$$$$
