
 OpenBabel03252508503D

 31 34  0  0  0  0  0  0  0  0999 V2000
   45.9580   34.1950   41.0370 C   0  0  0  0  0  0  0  0  0  0  0  0
   46.5420   34.8060   42.1420 C   0  0  0  0  0  0  0  0  0  0  0  0
   47.8960   35.1630   42.0180 C   0  0  0  0  0  0  0  0  0  0  0  0
   48.5330   34.8900   40.8400 N   0  0  0  0  0  0  0  0  0  0  0  0
   47.9260   34.3040   39.8140 C   0  0  0  0  0  0  0  0  0  0  0  0
   46.6330   33.9500   39.9010 N   0  0  0  0  0  0  0  0  0  0  0  0
   48.3630   35.6410   42.8740 H   0  0  0  0  0  0  0  0  0  0  0  0
   48.4710   34.1060   38.8980 H   0  0  0  0  0  0  0  0  0  0  0  0
   45.7640   35.0440   43.3370 C   0  0  0  0  0  0  0  0  0  0  0  0
   45.0850   36.2370   43.5660 C   0  0  0  0  0  0  0  0  0  0  0  0
   44.4930   36.0290   44.7950 C   0  0  0  0  0  0  0  0  0  0  0  0
   44.7900   34.7940   45.2820 N   0  0  0  0  0  0  0  0  0  0  0  0
   45.5590   34.2270   44.3770 N   0  0  0  0  0  0  0  0  0  0  0  0
   45.0040   37.1440   42.9640 H   0  0  0  0  0  0  0  0  0  0  0  0
   43.8630   36.7150   45.3550 H   0  0  0  0  0  0  0  0  0  0  0  0
   44.4970   34.3460   46.1750 H   0  0  0  0  0  0  0  0  0  0  0  0
   44.6250   33.8280   41.1200 O   0  0  0  0  0  0  0  0  0  0  0  0
   43.5520   34.4960   40.6050 C   0  0  0  0  0  0  0  0  0  0  0  0
   43.3010   35.7490   40.6840 O   0  0  0  0  0  0  0  0  0  0  0  0
   42.5680   32.5790   39.3130 C   0  0  0  0  0  3  0  0  0  0  0  0
   42.4530   33.8440   39.8380 C   0  0  0  0  0  0  0  0  0  0  0  0
   41.2400   34.4600   39.5930 C   0  0  0  0  0  0  0  0  0  0  0  0
   41.0930   35.4590   39.9830 H   0  0  0  0  0  0  0  0  0  0  0  0
   40.1820   33.9290   38.8940 C   0  0  0  0  0  0  0  0  0  0  0  0
   38.9620   34.3950   38.5780 N   0  0  0  0  0  0  0  0  0  0  0  0
   38.3510   33.4150   37.8690 C   0  0  0  0  0  0  0  0  0  0  0  0
   37.3390   33.5860   37.5080 H   0  0  0  0  0  0  0  0  0  0  0  0
   39.1900   32.3660   37.7550 N   0  0  0  0  0  0  0  0  0  0  0  0
   40.3530   32.6600   38.3910 C   0  0  0  0  0  0  0  0  0  0  0  0
   41.5290   31.9810   38.5920 C   0  0  0  0  0  3  0  0  0  0  0  0
   38.5930   35.3410   38.8480 H   0  0  0  0  0  0  0  0  0  0  0  0
  1 17  1  0  0  0  0
  1  2  1  0  0  0  0
  2  9  1  0  0  0  0
  3  2  2  0  0  0  0
  3  7  1  0  0  0  0
  4  3  1  0  0  0  0
  5  6  1  0  0  0  0
  5  4  2  0  0  0  0
  6  1  2  0  0  0  0
  8  5  1  0  0  0  0
  9 10  1  0  0  0  0
  9 13  2  0  0  0  0
 10 11  2  0  0  0  0
 11 12  1  0  0  0  0
 11 15  1  0  0  0  0
 12 16  1  0  0  0  0
 13 12  1  0  0  0  0
 14 10  1  0  0  0  0
 18 19  2  0  0  0  0
 18 17  1  0  0  0  0
 20 21  1  0  0  0  0
 21 18  1  0  0  0  0
 22 21  2  0  0  0  0
 22 23  1  0  0  0  0
 24 22  1  0  0  0  0
 25 31  1  0  0  0  0
 25 24  1  0  0  0  0
 26 25  1  0  0  0  0
 27 26  1  0  0  0  0
 28 26  2  0  0  0  0
 28 29  1  0  0  0  0
 29 30  1  0  0  0  0
 29 24  2  0  0  0  0
 30 20  2  0  0  0  0
M  END
>  <minimizedAffinity>
-5.93316984

>  <minimizedRMSD>
0.748243749

$$$$
