
 OpenBabel03252508503D

 31 34  0  0  0  0  0  0  0  0999 V2000
   45.8970   34.1650   41.0180 C   0  0  0  0  0  0  0  0  0  0  0  0
   46.5000   34.7770   42.1120 C   0  0  0  0  0  0  0  0  0  0  0  0
   47.8560   35.1210   41.9690 C   0  0  0  0  0  0  0  0  0  0  0  0
   48.4750   34.8360   40.7850 N   0  0  0  0  0  0  0  0  0  0  0  0
   47.8500   34.2490   39.7700 C   0  0  0  0  0  0  0  0  0  0  0  0
   46.5560   33.9080   39.8750 N   0  0  0  0  0  0  0  0  0  0  0  0
   48.3370   35.5990   42.8160 H   0  0  0  0  0  0  0  0  0  0  0  0
   48.3810   34.0420   38.8480 H   0  0  0  0  0  0  0  0  0  0  0  0
   45.7390   35.0290   43.3160 C   0  0  0  0  0  0  0  0  0  0  0  0
   45.0780   36.2320   43.5490 C   0  0  0  0  0  0  0  0  0  0  0  0
   44.4980   36.0350   44.7850 C   0  0  0  0  0  0  0  0  0  0  0  0
   44.7860   34.7970   45.2720 N   0  0  0  0  0  0  0  0  0  0  0  0
   45.5360   34.2170   44.3610 N   0  0  0  0  0  0  0  0  0  0  0  0
   45.0020   37.1370   42.9450 H   0  0  0  0  0  0  0  0  0  0  0  0
   43.8840   36.7310   45.3500 H   0  0  0  0  0  0  0  0  0  0  0  0
   44.4970   34.3560   46.1700 H   0  0  0  0  0  0  0  0  0  0  0  0
   44.5620   33.8110   41.1190 O   0  0  0  0  0  0  0  0  0  0  0  0
   43.4860   34.5000   40.6390 C   0  0  0  0  0  0  0  0  0  0  0  0
   43.3250   35.7700   40.6020 O   0  0  0  0  0  0  0  0  0  0  0  0
   41.9140   32.5630   40.3490 C   0  0  0  0  0  3  0  0  0  0  0  0
   42.2760   33.8550   40.0550 C   0  0  0  0  0  0  0  0  0  0  0  0
   41.4300   34.5040   39.1750 C   0  0  0  0  0  0  0  0  0  0  0  0
   41.6660   35.5260   38.9070 H   0  0  0  0  0  0  0  0  0  0  0  0
   40.3000   33.9800   38.5940 C   0  0  0  0  0  0  0  0  0  0  0  0
   39.3920   34.4760   37.7350 N   0  0  0  0  0  0  0  0  0  0  0  0
   38.4930   33.4850   37.5170 C   0  0  0  0  0  0  0  0  0  0  0  0
   37.6620   33.6760   36.8430 H   0  0  0  0  0  0  0  0  0  0  0  0
   38.8490   32.4010   38.2340 N   0  0  0  0  0  0  0  0  0  0  0  0
   39.9840   32.6810   38.9230 C   0  0  0  0  0  0  0  0  0  0  0  0
   40.7760   31.9690   39.7920 C   0  0  0  0  0  3  0  0  0  0  0  0
   39.4130   35.4460   37.3360 H   0  0  0  0  0  0  0  0  0  0  0  0
  1 17  1  0  0  0  0
  1  2  1  0  0  0  0
  2  9  1  0  0  0  0
  3  2  2  0  0  0  0
  3  7  1  0  0  0  0
  4  3  1  0  0  0  0
  5  6  1  0  0  0  0
  5  4  2  0  0  0  0
  6  1  2  0  0  0  0
  8  5  1  0  0  0  0
  9 10  1  0  0  0  0
  9 13  2  0  0  0  0
 10 11  2  0  0  0  0
 11 12  1  0  0  0  0
 11 15  1  0  0  0  0
 12 16  1  0  0  0  0
 13 12  1  0  0  0  0
 14 10  1  0  0  0  0
 18 17  1  0  0  0  0
 19 18  2  0  0  0  0
 21 20  1  0  0  0  0
 21 18  1  0  0  0  0
 22 21  2  0  0  0  0
 23 22  1  0  0  0  0
 24 29  2  0  0  0  0
 24 22  1  0  0  0  0
 25 24  1  0  0  0  0
 26 25  1  0  0  0  0
 26 28  2  0  0  0  0
 27 26  1  0  0  0  0
 28 29  1  0  0  0  0
 29 30  1  0  0  0  0
 30 20  2  0  0  0  0
 31 25  1  0  0  0  0
M  END
>  <minimizedAffinity>
-5.94723892

>  <minimizedRMSD>
1.06597471

$$$$
