
 OpenBabel03252508503D

 31 34  0  0  0  0  0  0  0  0999 V2000
   45.9540   34.2180   41.0390 C   0  0  0  0  0  0  0  0  0  0  0  0
   46.5450   34.8070   42.1520 C   0  0  0  0  0  0  0  0  0  0  0  0
   47.9060   35.1420   42.0360 C   0  0  0  0  0  0  0  0  0  0  0  0
   48.5410   34.8700   40.8570 N   0  0  0  0  0  0  0  0  0  0  0  0
   47.9270   34.3050   39.8230 C   0  0  0  0  0  0  0  0  0  0  0  0
   46.6280   33.9730   39.9030 N   0  0  0  0  0  0  0  0  0  0  0  0
   48.3770   35.6020   42.8980 H   0  0  0  0  0  0  0  0  0  0  0  0
   48.4710   34.1080   38.9070 H   0  0  0  0  0  0  0  0  0  0  0  0
   45.7670   35.0450   43.3470 C   0  0  0  0  0  0  0  0  0  0  0  0
   45.0990   36.2440   43.5820 C   0  0  0  0  0  0  0  0  0  0  0  0
   44.5030   36.0350   44.8090 C   0  0  0  0  0  0  0  0  0  0  0  0
   44.7880   34.7940   45.2890 N   0  0  0  0  0  0  0  0  0  0  0  0
   45.5520   34.2240   44.3820 N   0  0  0  0  0  0  0  0  0  0  0  0
   45.0280   37.1550   42.9850 H   0  0  0  0  0  0  0  0  0  0  0  0
   43.8790   36.7240   45.3720 H   0  0  0  0  0  0  0  0  0  0  0  0
   44.4880   34.3440   46.1790 H   0  0  0  0  0  0  0  0  0  0  0  0
   44.6140   33.8730   41.1130 O   0  0  0  0  0  0  0  0  0  0  0  0
   43.5530   34.5740   40.6180 C   0  0  0  0  0  0  0  0  0  0  0  0
   43.3100   35.8240   40.7560 O   0  0  0  0  0  0  0  0  0  0  0  0
   42.6730   32.9100   38.9540 C   0  0  0  0  0  3  0  0  0  0  0  0
   42.4610   33.9690   39.8040 C   0  0  0  0  0  0  0  0  0  0  0  0
   41.1570   34.4280   39.8380 C   0  0  0  0  0  0  0  0  0  0  0  0
   40.9320   35.2620   40.4890 H   0  0  0  0  0  0  0  0  0  0  0  0
   40.0990   33.9280   39.1190 C   0  0  0  0  0  0  0  0  0  0  0  0
   38.7990   34.2600   39.0440 N   0  0  0  0  0  0  0  0  0  0  0  0
   38.2360   33.4040   38.1550 C   0  0  0  0  0  0  0  0  0  0  0  0
   37.1730   33.4980   37.9430 H   0  0  0  0  0  0  0  0  0  0  0  0
   39.1830   32.5630   37.6950 N   0  0  0  0  0  0  0  0  0  0  0  0
   40.3680   32.8680   38.2830 C   0  0  0  0  0  0  0  0  0  0  0  0
   41.6380   32.3540   38.1930 C   0  0  0  0  0  3  0  0  0  0  0  0
   38.3460   35.0380   39.5850 H   0  0  0  0  0  0  0  0  0  0  0  0
  1 17  1  0  0  0  0
  1  2  1  0  0  0  0
  2  9  1  0  0  0  0
  3  2  2  0  0  0  0
  3  7  1  0  0  0  0
  4  3  1  0  0  0  0
  5  6  1  0  0  0  0
  5  4  2  0  0  0  0
  6  1  2  0  0  0  0
  8  5  1  0  0  0  0
  9 10  1  0  0  0  0
  9 13  2  0  0  0  0
 10 11  2  0  0  0  0
 11 12  1  0  0  0  0
 11 15  1  0  0  0  0
 12 16  1  0  0  0  0
 13 12  1  0  0  0  0
 14 10  1  0  0  0  0
 18 19  2  0  0  0  0
 18 17  1  0  0  0  0
 20 21  1  0  0  0  0
 21 22  2  0  0  0  0
 21 18  1  0  0  0  0
 22 23  1  0  0  0  0
 24 22  1  0  0  0  0
 25 24  1  0  0  0  0
 25 31  1  0  0  0  0
 26 25  1  0  0  0  0
 27 26  1  0  0  0  0
 28 26  2  0  0  0  0
 28 29  1  0  0  0  0
 29 24  2  0  0  0  0
 30 29  1  0  0  0  0
 30 20  2  0  0  0  0
M  END
>  <minimizedAffinity>
-5.95889235

>  <minimizedRMSD>
0.848046541

$$$$
