
 OpenBabel03242518513D

 26 28  0  0  0  0  0  0  0  0999 V2000
   36.2680   29.9340   40.5620 C   0  0  0  0  0  0  0  0  0  0  0  0
   36.0710   31.1220   40.8790 O   0  0  0  0  0  0  0  0  0  0  0  0
   34.6690   29.0420   38.9030 C   0  0  0  0  0  3  0  0  0  0  0  0
   35.8750   29.6550   39.1880 C   0  0  0  0  0  0  0  0  0  0  0  0
   36.6590   29.9660   38.0970 C   0  0  0  0  0  0  0  0  0  0  0  0
   37.6190   30.4470   38.2550 H   0  0  0  0  0  0  0  0  0  0  0  0
   36.3220   29.7100   36.7800 C   0  0  0  0  0  0  0  0  0  0  0  0
   36.9650   29.9460   35.6110 N   0  0  0  0  0  0  0  0  0  0  0  0
   36.1580   29.4800   34.6280 C   0  0  0  0  0  0  0  0  0  0  0  0
   36.4320   29.5430   33.5830 H   0  0  0  0  0  0  0  0  0  0  0  0
   35.0460   28.9710   35.1710 N   0  0  0  0  0  0  0  0  0  0  0  0
   35.1130   29.0980   36.5160 C   0  0  0  0  0  0  0  0  0  0  0  0
   34.3050   28.7720   37.5820 C   0  0  0  0  0  3  0  0  0  0  0  0
   37.8910   30.3940   35.5110 H   0  0  0  0  0  0  0  0  0  0  0  0
   37.9210   28.5460   43.4860 C   0  0  0  0  0  0  0  0  0  0  0  0
   37.9000   27.1490   43.2860 C   0  0  0  0  0  0  0  0  0  0  0  0
   37.3020   26.7080   42.1100 C   0  0  0  0  0  0  0  0  0  0  0  0
   36.7950   27.6360   41.2650 N   0  0  0  0  0  0  0  0  0  0  0  0
   36.8270   28.9620   41.4810 C   0  0  0  0  0  0  0  0  0  0  0  0
   37.3980   29.4190   42.6050 N   0  0  0  0  0  0  0  0  0  0  0  0
   38.3660   28.9670   44.3690 H   0  0  0  0  0  0  0  0  0  0  0  0
   38.3360   26.4920   44.0270 H   0  0  0  0  0  0  0  0  0  0  0  0
   37.2810   25.2720   41.9040 C   0  0  0  0  0  0  0  0  0  0  0  0
   38.5580   24.7460   42.1080 F   0  0  0  0  0  0  0  0  0  0  0  0
   37.0270   25.0720   40.5400 F   0  0  0  0  0  0  0  0  0  0  0  0
   36.4090   24.6030   42.6810 F   0  0  0  0  0  0  0  0  0  0  0  0
  1  2  2  0  0  0  0
  1 19  1  0  0  0  0
  3  4  1  0  0  0  0
  4  1  1  0  0  0  0
  5  6  1  0  0  0  0
  5  4  2  0  0  0  0
  7  5  1  0  0  0  0
  8  7  1  0  0  0  0
  9 11  2  0  0  0  0
  9  8  1  0  0  0  0
 10  9  1  0  0  0  0
 11 12  1  0  0  0  0
 12  7  2  0  0  0  0
 12 13  1  0  0  0  0
 13  3  2  0  0  0  0
 14  8  1  0  0  0  0
 15 21  1  0  0  0  0
 16 15  1  0  0  0  0
 16 22  1  0  0  0  0
 17 16  2  0  0  0  0
 18 19  2  0  0  0  0
 18 17  1  0  0  0  0
 19 20  1  0  0  0  0
 20 15  2  0  0  0  0
 23 24  1  0  0  0  0
 23 17  1  0  0  0  0
 23 26  1  0  0  0  0
 25 23  1  0  0  0  0
M  END
>  <minimizedAffinity>
-5.80964041

$$$$

 OpenBabel03242518513D

 26 28  0  0  0  0  0  0  0  0999 V2000
   36.1990   29.8480   40.6620 C   0  0  0  0  0  0  0  0  0  0  0  0
   36.0450   31.0430   40.9770 O   0  0  0  0  0  0  0  0  0  0  0  0
   36.4760   29.7440   38.2090 C   0  0  0  0  0  3  0  0  0  0  0  0
   35.6890   29.5560   39.3300 C   0  0  0  0  0  0  0  0  0  0  0  0
   34.4130   29.0890   39.0920 C   0  0  0  0  0  0  0  0  0  0  0  0
   33.7450   28.9230   39.9310 H   0  0  0  0  0  0  0  0  0  0  0  0
   33.8930   28.8080   37.8410 C   0  0  0  0  0  0  0  0  0  0  0  0
   32.6820   28.3520   37.4390 N   0  0  0  0  0  0  0  0  0  0  0  0
   32.7350   28.2650   36.0880 C   0  0  0  0  0  0  0  0  0  0  0  0
   31.8910   27.9230   35.5020 H   0  0  0  0  0  0  0  0  0  0  0  0
   33.9420   28.6540   35.6640 N   0  0  0  0  0  0  0  0  0  0  0  0
   34.6940   29.0020   36.7350 C   0  0  0  0  0  0  0  0  0  0  0  0
   35.9740   29.4670   36.9350 C   0  0  0  0  0  3  0  0  0  0  0  0
   31.8860   28.1220   38.0570 H   0  0  0  0  0  0  0  0  0  0  0  0
   38.0030   28.4690   43.5000 C   0  0  0  0  0  0  0  0  0  0  0  0
   38.0120   27.0750   43.2810 C   0  0  0  0  0  0  0  0  0  0  0  0
   37.3790   26.6320   42.1240 C   0  0  0  0  0  0  0  0  0  0  0  0
   36.8140   27.5560   41.3130 N   0  0  0  0  0  0  0  0  0  0  0  0
   36.8190   28.8800   41.5450 C   0  0  0  0  0  0  0  0  0  0  0  0
   37.4220   29.3380   42.6520 N   0  0  0  0  0  0  0  0  0  0  0  0
   38.4710   28.8910   44.3700 H   0  0  0  0  0  0  0  0  0  0  0  0
   38.4940   26.4210   43.9960 H   0  0  0  0  0  0  0  0  0  0  0  0
   37.3890   25.1990   41.9010 C   0  0  0  0  0  0  0  0  0  0  0  0
   37.0280   24.9240   40.5800 F   0  0  0  0  0  0  0  0  0  0  0  0
   36.3440   24.6720   42.6730 F   0  0  0  0  0  0  0  0  0  0  0  0
   38.5620   24.5950   42.1620 F   0  0  0  0  0  0  0  0  0  0  0  0
  1  2  2  0  0  0  0
  1 19  1  0  0  0  0
  3  4  1  0  0  0  0
  4  1  1  0  0  0  0
  5  4  2  0  0  0  0
  5  6  1  0  0  0  0
  7  5  1  0  0  0  0
  8  7  1  0  0  0  0
  8 14  1  0  0  0  0
  9  8  1  0  0  0  0
 10  9  1  0  0  0  0
 11  9  2  0  0  0  0
 11 12  1  0  0  0  0
 12 13  1  0  0  0  0
 12  7  2  0  0  0  0
 13  3  2  0  0  0  0
 15 21  1  0  0  0  0
 16 15  1  0  0  0  0
 16 22  1  0  0  0  0
 17 16  2  0  0  0  0
 18 19  2  0  0  0  0
 18 17  1  0  0  0  0
 19 20  1  0  0  0  0
 20 15  2  0  0  0  0
 23 17  1  0  0  0  0
 23 26  1  0  0  0  0
 23 25  1  0  0  0  0
 24 23  1  0  0  0  0
M  END
>  <minimizedAffinity>
-5.66255045

$$$$

 OpenBabel03242518513D

 26 28  0  0  0  0  0  0  0  0999 V2000
   37.5850   31.0600   40.1670 C   0  0  0  0  0  0  0  0  0  0  0  0
   36.6380   31.8600   40.2820 O   0  0  0  0  0  0  0  0  0  0  0  0
   39.6740   32.1420   40.9250 C   0  0  0  0  0  3  0  0  0  0  0  0
   38.8480   31.7310   39.8950 C   0  0  0  0  0  0  0  0  0  0  0  0
   39.3010   32.0080   38.6220 C   0  0  0  0  0  0  0  0  0  0  0  0
   38.6970   31.7130   37.7690 H   0  0  0  0  0  0  0  0  0  0  0  0
   40.4900   32.6500   38.3260 C   0  0  0  0  0  0  0  0  0  0  0  0
   41.0730   32.9940   37.1520 N   0  0  0  0  0  0  0  0  0  0  0  0
   42.2400   33.6070   37.4680 C   0  0  0  0  0  0  0  0  0  0  0  0
   42.9120   33.9870   36.7100 H   0  0  0  0  0  0  0  0  0  0  0  0
   42.3770   33.6410   38.7990 N   0  0  0  0  0  0  0  0  0  0  0  0
   41.3000   33.0500   39.3690 C   0  0  0  0  0  0  0  0  0  0  0  0
   40.8800   32.7910   40.6530 C   0  0  0  0  0  3  0  0  0  0  0  0
   40.6880   32.8150   36.2100 H   0  0  0  0  0  0  0  0  0  0  0  0
   37.2770   27.5580   39.2480 C   0  0  0  0  0  0  0  0  0  0  0  0
   37.1150   26.8740   40.4720 C   0  0  0  0  0  0  0  0  0  0  0  0
   37.1130   27.6620   41.6180 C   0  0  0  0  0  0  0  0  0  0  0  0
   37.2630   28.9990   41.4720 N   0  0  0  0  0  0  0  0  0  0  0  0
   37.4170   29.6260   40.2940 C   0  0  0  0  0  0  0  0  0  0  0  0
   37.4230   28.8930   39.1700 N   0  0  0  0  0  0  0  0  0  0  0  0
   37.2890   27.0200   38.3170 H   0  0  0  0  0  0  0  0  0  0  0  0
   37.0020   25.7970   40.4770 H   0  0  0  0  0  0  0  0  0  0  0  0
   36.9460   26.9590   42.8750 C   0  0  0  0  0  0  0  0  0  0  0  0
   38.1550   26.9430   43.5730 F   0  0  0  0  0  0  0  0  0  0  0  0
   36.7050   25.6170   42.5490 F   0  0  0  0  0  0  0  0  0  0  0  0
   35.9910   27.4600   43.6800 F   0  0  0  0  0  0  0  0  0  0  0  0
  1  2  2  0  0  0  0
  1 19  1  0  0  0  0
  4  1  1  0  0  0  0
  4  3  2  0  0  0  0
  5  4  1  0  0  0  0
  6  5  1  0  0  0  0
  7  5  2  0  0  0  0
  7 12  1  0  0  0  0
  8  9  1  0  0  0  0
  8  7  1  0  0  0  0
  9 11  2  0  0  0  0
 10  9  1  0  0  0  0
 11 12  1  0  0  0  0
 12 13  2  0  0  0  0
 13  3  1  0  0  0  0
 14  8  1  0  0  0  0
 15 16  1  0  0  0  0
 16 22  1  0  0  0  0
 16 17  2  0  0  0  0
 17 23  1  0  0  0  0
 18 17  1  0  0  0  0
 19 18  2  0  0  0  0
 20 15  2  0  0  0  0
 20 19  1  0  0  0  0
 21 15  1  0  0  0  0
 23 24  1  0  0  0  0
 23 26  1  0  0  0  0
 25 23  1  0  0  0  0
M  END
>  <minimizedAffinity>
-5.54779434

$$$$

 OpenBabel03242518513D

 26 28  0  0  0  0  0  0  0  0999 V2000
   37.4840   28.5480   42.5540 C   0  0  0  0  0  0  0  0  0  0  0  0
   36.9550   28.4630   43.6780 O   0  0  0  0  0  0  0  0  0  0  0  0
   36.7280   27.2930   40.5640 C   0  0  0  0  0  3  0  0  0  0  0  0
   37.3660   27.3140   41.7900 C   0  0  0  0  0  0  0  0  0  0  0  0
   37.8630   26.1020   42.2250 C   0  0  0  0  0  0  0  0  0  0  0  0
   38.3730   26.0530   43.1820 H   0  0  0  0  0  0  0  0  0  0  0  0
   37.7630   24.9100   41.5320 C   0  0  0  0  0  0  0  0  0  0  0  0
   38.1880   23.6540   41.8110 N   0  0  0  0  0  0  0  0  0  0  0  0
   37.8100   22.8800   40.7650 C   0  0  0  0  0  0  0  0  0  0  0  0
   38.0260   21.8200   40.7290 H   0  0  0  0  0  0  0  0  0  0  0  0
   37.1710   23.6330   39.8630 N   0  0  0  0  0  0  0  0  0  0  0  0
   37.1230   24.9100   40.3090 C   0  0  0  0  0  0  0  0  0  0  0  0
   36.6140   26.1020   39.8440 C   0  0  0  0  0  3  0  0  0  0  0  0
   38.6980   23.3640   42.6610 H   0  0  0  0  0  0  0  0  0  0  0  0
   39.9380   31.2110   42.2530 C   0  0  0  0  0  0  0  0  0  0  0  0
   39.4450   32.0450   41.2260 C   0  0  0  0  0  0  0  0  0  0  0  0
   38.2400   31.6580   40.6490 C   0  0  0  0  0  0  0  0  0  0  0  0
   37.6460   30.5320   41.1080 N   0  0  0  0  0  0  0  0  0  0  0  0
   38.1380   29.7540   42.0870 C   0  0  0  0  0  0  0  0  0  0  0  0
   39.2980   30.1020   42.6640 N   0  0  0  0  0  0  0  0  0  0  0  0
   40.8630   31.4410   42.7500 H   0  0  0  0  0  0  0  0  0  0  0  0
   40.0020   32.9270   40.9340 H   0  0  0  0  0  0  0  0  0  0  0  0
   37.7340   32.5160   39.5950 C   0  0  0  0  0  0  0  0  0  0  0  0
   36.8100   31.8150   38.8180 F   0  0  0  0  0  0  0  0  0  0  0  0
   38.8120   32.7600   38.7320 F   0  0  0  0  0  0  0  0  0  0  0  0
   37.1620   33.6570   40.0210 F   0  0  0  0  0  0  0  0  0  0  0  0
  1  2  2  0  0  0  0
  3  4  1  0  0  0  0
  4  5  2  0  0  0  0
  4  1  1  0  0  0  0
  5  6  1  0  0  0  0
  7  8  1  0  0  0  0
  7  5  1  0  0  0  0
  8 14  1  0  0  0  0
  9  8  1  0  0  0  0
 10  9  1  0  0  0  0
 11 12  1  0  0  0  0
 11  9  2  0  0  0  0
 12  7  2  0  0  0  0
 13 12  1  0  0  0  0
 13  3  2  0  0  0  0
 15 20  1  0  0  0  0
 15 21  1  0  0  0  0
 16 15  2  0  0  0  0
 17 18  2  0  0  0  0
 17 16  1  0  0  0  0
 18 19  1  0  0  0  0
 19  1  1  0  0  0  0
 19 20  2  0  0  0  0
 22 16  1  0  0  0  0
 23 26  1  0  0  0  0
 23 17  1  0  0  0  0
 24 23  1  0  0  0  0
 25 23  1  0  0  0  0
M  END
>  <minimizedAffinity>
-5.4815979

$$$$

 OpenBabel03242518513D

 26 28  0  0  0  0  0  0  0  0999 V2000
   36.2720   28.9370   38.3370 C   0  0  0  0  0  0  0  0  0  0  0  0
   35.4010   29.2140   37.4920 O   0  0  0  0  0  0  0  0  0  0  0  0
   38.4730   30.0600   38.2580 C   0  0  0  0  0  3  0  0  0  0  0  0
   37.1410   30.0690   38.6290 C   0  0  0  0  0  0  0  0  0  0  0  0
   36.7130   31.2030   39.2880 C   0  0  0  0  0  0  0  0  0  0  0  0
   35.6770   31.2710   39.6080 H   0  0  0  0  0  0  0  0  0  0  0  0
   37.5100   32.2930   39.5890 C   0  0  0  0  0  0  0  0  0  0  0  0
   37.2520   33.4650   40.2190 N   0  0  0  0  0  0  0  0  0  0  0  0
   38.4160   34.1580   40.2300 C   0  0  0  0  0  0  0  0  0  0  0  0
   38.4950   35.1410   40.6780 H   0  0  0  0  0  0  0  0  0  0  0  0
   39.3680   33.4390   39.6230 N   0  0  0  0  0  0  0  0  0  0  0  0
   38.8360   32.2650   39.2090 C   0  0  0  0  0  0  0  0  0  0  0  0
   39.2980   31.1480   38.5500 C   0  0  0  0  0  3  0  0  0  0  0  0
   36.3400   33.7540   40.6080 H   0  0  0  0  0  0  0  0  0  0  0  0
   36.2480   25.3210   38.6960 C   0  0  0  0  0  0  0  0  0  0  0  0
   36.6000   25.0870   40.0430 C   0  0  0  0  0  0  0  0  0  0  0  0
   36.8400   26.2170   40.8180 C   0  0  0  0  0  0  0  0  0  0  0  0
   36.7210   27.4310   40.2300 N   0  0  0  0  0  0  0  0  0  0  0  0
   36.3850   27.6260   38.9430 C   0  0  0  0  0  0  0  0  0  0  0  0
   36.1460   26.5560   38.1710 N   0  0  0  0  0  0  0  0  0  0  0  0
   36.0460   24.5010   38.0310 H   0  0  0  0  0  0  0  0  0  0  0  0
   36.6680   24.0730   40.4130 H   0  0  0  0  0  0  0  0  0  0  0  0
   37.2010   25.9770   42.2020 C   0  0  0  0  0  0  0  0  0  0  0  0
   36.7230   24.7280   42.6050 F   0  0  0  0  0  0  0  0  0  0  0  0
   36.4740   26.9000   42.9660 F   0  0  0  0  0  0  0  0  0  0  0  0
   38.5200   26.0380   42.4600 F   0  0  0  0  0  0  0  0  0  0  0  0
  1  4  1  0  0  0  0
  1 19  1  0  0  0  0
  2  1  2  0  0  0  0
  3 13  2  0  0  0  0
  3  4  1  0  0  0  0
  4  5  2  0  0  0  0
  5  7  1  0  0  0  0
  5  6  1  0  0  0  0
  7  8  1  0  0  0  0
  8  9  1  0  0  0  0
  8 14  1  0  0  0  0
  9 10  1  0  0  0  0
 11  9  2  0  0  0  0
 12  7  2  0  0  0  0
 12 11  1  0  0  0  0
 13 12  1  0  0  0  0
 15 16  1  0  0  0  0
 16 22  1  0  0  0  0
 16 17  2  0  0  0  0
 17 23  1  0  0  0  0
 18 17  1  0  0  0  0
 19 18  2  0  0  0  0
 20 15  2  0  0  0  0
 20 19  1  0  0  0  0
 21 15  1  0  0  0  0
 23 26  1  0  0  0  0
 23 24  1  0  0  0  0
 23 25  1  0  0  0  0
M  END
>  <minimizedAffinity>
-5.47198009

$$$$

 OpenBabel03242518513D

 26 28  0  0  0  0  0  0  0  0999 V2000
   37.2170   30.4520   41.0930 C   0  0  0  0  0  0  0  0  0  0  0  0
   36.1220   31.0390   41.0100 O   0  0  0  0  0  0  0  0  0  0  0  0
   38.9850   32.1760   41.1740 C   0  0  0  0  0  3  0  0  0  0  0  0
   38.2980   31.2040   40.4720 C   0  0  0  0  0  0  0  0  0  0  0  0
   38.7010   31.0140   39.1660 C   0  0  0  0  0  0  0  0  0  0  0  0
   38.1980   30.2660   38.5610 H   0  0  0  0  0  0  0  0  0  0  0  0
   39.7170   31.7130   38.5410 C   0  0  0  0  0  0  0  0  0  0  0  0
   40.2300   31.6520   37.2880 N   0  0  0  0  0  0  0  0  0  0  0  0
   41.2180   32.5780   37.2330 C   0  0  0  0  0  0  0  0  0  0  0  0
   41.8010   32.7410   36.3350 H   0  0  0  0  0  0  0  0  0  0  0  0
   41.3160   33.1940   38.4160 N   0  0  0  0  0  0  0  0  0  0  0  0
   40.3920   32.6790   39.2600 C   0  0  0  0  0  0  0  0  0  0  0  0
   40.0160   32.8960   40.5660 C   0  0  0  0  0  3  0  0  0  0  0  0
   39.9150   31.0170   36.5360 H   0  0  0  0  0  0  0  0  0  0  0  0
   37.8370   27.9750   43.6790 C   0  0  0  0  0  0  0  0  0  0  0  0
   37.6530   26.7290   43.0410 C   0  0  0  0  0  0  0  0  0  0  0  0
   37.3130   26.7770   41.6930 C   0  0  0  0  0  0  0  0  0  0  0  0
   37.1860   27.9910   41.1090 N   0  0  0  0  0  0  0  0  0  0  0  0
   37.3660   29.1640   41.7410 C   0  0  0  0  0  0  0  0  0  0  0  0
   37.6960   29.1510   43.0410 N   0  0  0  0  0  0  0  0  0  0  0  0
   38.1020   28.0240   44.7200 H   0  0  0  0  0  0  0  0  0  0  0  0
   37.7790   25.8130   43.6020 H   0  0  0  0  0  0  0  0  0  0  0  0
   37.1240   25.4970   41.0380 C   0  0  0  0  0  0  0  0  0  0  0  0
   36.1700   25.6200   40.0260 F   0  0  0  0  0  0  0  0  0  0  0  0
   36.5310   24.6510   41.9860 F   0  0  0  0  0  0  0  0  0  0  0  0
   38.2410   24.9600   40.5150 F   0  0  0  0  0  0  0  0  0  0  0  0
  1 19  1  0  0  0  0
  2  1  2  0  0  0  0
  4  1  1  0  0  0  0
  4  3  2  0  0  0  0
  5  4  1  0  0  0  0
  6  5  1  0  0  0  0
  7  5  2  0  0  0  0
  7 12  1  0  0  0  0
  8  7  1  0  0  0  0
  9  8  1  0  0  0  0
  9 11  2  0  0  0  0
 10  9  1  0  0  0  0
 11 12  1  0  0  0  0
 12 13  2  0  0  0  0
 13  3  1  0  0  0  0
 14  8  1  0  0  0  0
 15 21  1  0  0  0  0
 16 22  1  0  0  0  0
 16 15  2  0  0  0  0
 17 16  1  0  0  0  0
 18 17  2  0  0  0  0
 18 19  1  0  0  0  0
 19 20  2  0  0  0  0
 20 15  1  0  0  0  0
 23 17  1  0  0  0  0
 23 25  1  0  0  0  0
 24 23  1  0  0  0  0
 26 23  1  0  0  0  0
M  END
>  <minimizedAffinity>
-5.44817781

$$$$

 OpenBabel03242518513D

 26 28  0  0  0  0  0  0  0  0999 V2000
   35.8710   29.1340   40.2320 C   0  0  0  0  0  0  0  0  0  0  0  0
   34.6280   29.1850   40.1770 O   0  0  0  0  0  0  0  0  0  0  0  0
   36.5470   27.7990   42.1990 C   0  0  0  0  0  3  0  0  0  0  0  0
   36.3480   27.8960   40.8350 C   0  0  0  0  0  0  0  0  0  0  0  0
   36.6350   26.7600   40.1070 C   0  0  0  0  0  0  0  0  0  0  0  0
   36.5010   26.7740   39.0300 H   0  0  0  0  0  0  0  0  0  0  0  0
   37.0960   25.5720   40.6430 C   0  0  0  0  0  0  0  0  0  0  0  0
   37.4220   24.3830   40.0800 N   0  0  0  0  0  0  0  0  0  0  0  0
   37.8160   23.5740   41.0940 C   0  0  0  0  0  0  0  0  0  0  0  0
   38.1350   22.5540   40.9220 H   0  0  0  0  0  0  0  0  0  0  0  0
   37.7360   24.2410   42.2510 N   0  0  0  0  0  0  0  0  0  0  0  0
   37.2880   25.4950   42.0080 C   0  0  0  0  0  0  0  0  0  0  0  0
   37.0120   26.6100   42.7660 C   0  0  0  0  0  3  0  0  0  0  0  0
   37.3740   24.1570   39.0730 H   0  0  0  0  0  0  0  0  0  0  0  0
   37.3930   31.5260   37.9600 C   0  0  0  0  0  0  0  0  0  0  0  0
   38.3100   32.2480   38.7540 C   0  0  0  0  0  0  0  0  0  0  0  0
   38.3850   31.8780   40.0920 C   0  0  0  0  0  0  0  0  0  0  0  0
   37.5870   30.8730   40.5220 N   0  0  0  0  0  0  0  0  0  0  0  0
   36.7200   30.2010   39.7440 C   0  0  0  0  0  0  0  0  0  0  0  0
   36.6260   30.5350   38.4480 N   0  0  0  0  0  0  0  0  0  0  0  0
   37.2760   31.7510   36.9150 H   0  0  0  0  0  0  0  0  0  0  0  0
   38.9030   33.0370   38.3090 H   0  0  0  0  0  0  0  0  0  0  0  0
   39.3280   32.6190   40.9070 C   0  0  0  0  0  0  0  0  0  0  0  0
   38.7610   33.8320   41.3030 F   0  0  0  0  0  0  0  0  0  0  0  0
   40.3850   32.9800   40.0600 F   0  0  0  0  0  0  0  0  0  0  0  0
   39.7620   31.9680   42.0020 F   0  0  0  0  0  0  0  0  0  0  0  0
  1  4  1  0  0  0  0
  2  1  2  0  0  0  0
  3 13  1  0  0  0  0
  4  3  2  0  0  0  0
  5  7  2  0  0  0  0
  5  4  1  0  0  0  0
  6  5  1  0  0  0  0
  7 12  1  0  0  0  0
  8  7  1  0  0  0  0
  8  9  1  0  0  0  0
  9 11  2  0  0  0  0
 10  9  1  0  0  0  0
 12 11  1  0  0  0  0
 12 13  2  0  0  0  0
 14  8  1  0  0  0  0
 15 20  2  0  0  0  0
 15 16  1  0  0  0  0
 16 17  2  0  0  0  0
 17 18  1  0  0  0  0
 17 23  1  0  0  0  0
 19  1  1  0  0  0  0
 19 18  2  0  0  0  0
 20 19  1  0  0  0  0
 21 15  1  0  0  0  0
 22 16  1  0  0  0  0
 23 24  1  0  0  0  0
 23 26  1  0  0  0  0
 25 23  1  0  0  0  0
M  END
>  <minimizedAffinity>
-5.38540459

$$$$

 OpenBabel03242518513D

 26 28  0  0  0  0  0  0  0  0999 V2000
   37.0420   27.3660   42.6990 C   0  0  0  0  0  0  0  0  0  0  0  0
   36.2830   27.4670   43.6800 O   0  0  0  0  0  0  0  0  0  0  0  0
   38.8000   29.0970   42.5500 C   0  0  0  0  0  3  0  0  0  0  0  0
   37.5260   28.6600   42.2370 C   0  0  0  0  0  0  0  0  0  0  0  0
   36.7670   29.5270   41.4790 C   0  0  0  0  0  0  0  0  0  0  0  0
   35.7560   29.2420   41.2030 H   0  0  0  0  0  0  0  0  0  0  0  0
   37.1900   30.7650   41.0300 C   0  0  0  0  0  0  0  0  0  0  0  0
   36.5810   31.7230   40.2900 N   0  0  0  0  0  0  0  0  0  0  0  0
   37.4780   32.7310   40.1560 C   0  0  0  0  0  0  0  0  0  0  0  0
   37.2480   33.6330   39.6040 H   0  0  0  0  0  0  0  0  0  0  0  0
   38.6080   32.4070   40.7940 N   0  0  0  0  0  0  0  0  0  0  0  0
   38.4650   31.1830   41.3520 C   0  0  0  0  0  0  0  0  0  0  0  0
   39.2510   30.3430   42.1080 C   0  0  0  0  0  3  0  0  0  0  0  0
   35.6210   31.6760   39.9120 H   0  0  0  0  0  0  0  0  0  0  0  0
   38.8220   24.2650   42.0460 C   0  0  0  0  0  0  0  0  0  0  0  0
   38.0900   23.6370   41.0150 C   0  0  0  0  0  0  0  0  0  0  0  0
   36.9700   24.3210   40.5550 C   0  0  0  0  0  0  0  0  0  0  0  0
   36.6740   25.5140   41.1220 N   0  0  0  0  0  0  0  0  0  0  0  0
   37.3870   26.0900   42.1040 C   0  0  0  0  0  0  0  0  0  0  0  0
   38.4740   25.4560   42.5680 N   0  0  0  0  0  0  0  0  0  0  0  0
   39.7000   23.8020   42.4560 H   0  0  0  0  0  0  0  0  0  0  0  0
   38.4150   22.6780   40.6320 H   0  0  0  0  0  0  0  0  0  0  0  0
   36.2190   23.6750   39.4960 C   0  0  0  0  0  0  0  0  0  0  0  0
   37.0360   22.7640   38.8240 F   0  0  0  0  0  0  0  0  0  0  0  0
   35.9380   24.6690   38.5480 F   0  0  0  0  0  0  0  0  0  0  0  0
   35.1050   23.0380   39.9010 F   0  0  0  0  0  0  0  0  0  0  0  0
  1  2  2  0  0  0  0
  4  3  1  0  0  0  0
  4  1  1  0  0  0  0
  5  4  2  0  0  0  0
  6  5  1  0  0  0  0
  7 12  2  0  0  0  0
  7  5  1  0  0  0  0
  8  7  1  0  0  0  0
  9  8  1  0  0  0  0
  9 11  2  0  0  0  0
 10  9  1  0  0  0  0
 11 12  1  0  0  0  0
 12 13  1  0  0  0  0
 13  3  2  0  0  0  0
 14  8  1  0  0  0  0
 15 21  1  0  0  0  0
 15 20  1  0  0  0  0
 16 15  2  0  0  0  0
 17 16  1  0  0  0  0
 17 18  2  0  0  0  0
 18 19  1  0  0  0  0
 19 20  2  0  0  0  0
 19  1  1  0  0  0  0
 22 16  1  0  0  0  0
 23 26  1  0  0  0  0
 23 17  1  0  0  0  0
 24 23  1  0  0  0  0
 25 23  1  0  0  0  0
M  END
>  <minimizedAffinity>
-5.33629179

$$$$

 OpenBabel03242518513D

 26 28  0  0  0  0  0  0  0  0999 V2000
   37.5280   28.7540   42.3220 C   0  0  0  0  0  0  0  0  0  0  0  0
   37.1620   28.8060   43.5100 O   0  0  0  0  0  0  0  0  0  0  0  0
   39.2450   30.5070   42.0290 C   0  0  0  0  0  3  0  0  0  0  0  0
   37.9580   30.0500   41.8170 C   0  0  0  0  0  0  0  0  0  0  0  0
   37.1310   30.9020   41.1130 C   0  0  0  0  0  0  0  0  0  0  0  0
   36.1060   30.6020   40.9160 H   0  0  0  0  0  0  0  0  0  0  0  0
   37.5010   32.1420   40.6250 C   0  0  0  0  0  0  0  0  0  0  0  0
   36.8250   33.0860   39.9280 N   0  0  0  0  0  0  0  0  0  0  0  0
   37.6950   34.1050   39.7200 C   0  0  0  0  0  0  0  0  0  0  0  0
   37.4110   35.0000   39.1810 H   0  0  0  0  0  0  0  0  0  0  0  0
   38.8750   33.8010   40.2710 N   0  0  0  0  0  0  0  0  0  0  0  0
   38.7920   32.5790   40.8470 C   0  0  0  0  0  0  0  0  0  0  0  0
   39.6450   31.7550   41.5460 C   0  0  0  0  0  3  0  0  0  0  0  0
   35.8400   33.0240   39.6240 H   0  0  0  0  0  0  0  0  0  0  0  0
   36.5370   26.2660   39.8650 C   0  0  0  0  0  0  0  0  0  0  0  0
   37.4500   25.2020   40.0370 C   0  0  0  0  0  0  0  0  0  0  0  0
   38.4110   25.3740   41.0280 C   0  0  0  0  0  0  0  0  0  0  0  0
   38.3960   26.5270   41.7370 N   0  0  0  0  0  0  0  0  0  0  0  0
   37.5160   27.5250   41.5530 C   0  0  0  0  0  0  0  0  0  0  0  0
   36.5760   27.3890   40.6050 N   0  0  0  0  0  0  0  0  0  0  0  0
   35.7640   26.2100   39.1200 H   0  0  0  0  0  0  0  0  0  0  0  0
   37.3730   24.3210   39.4130 H   0  0  0  0  0  0  0  0  0  0  0  0
   39.3480   24.2820   41.2040 C   0  0  0  0  0  0  0  0  0  0  0  0
   38.8300   23.1170   40.6350 F   0  0  0  0  0  0  0  0  0  0  0  0
   39.3920   24.0170   42.5800 F   0  0  0  0  0  0  0  0  0  0  0  0
   40.5740   24.5020   40.6950 F   0  0  0  0  0  0  0  0  0  0  0  0
  1  2  2  0  0  0  0
  4  3  1  0  0  0  0
  4  1  1  0  0  0  0
  5  4  2  0  0  0  0
  6  5  1  0  0  0  0
  7 12  2  0  0  0  0
  7  5  1  0  0  0  0
  8  7  1  0  0  0  0
  9  8  1  0  0  0  0
  9 11  2  0  0  0  0
 10  9  1  0  0  0  0
 11 12  1  0  0  0  0
 12 13  1  0  0  0  0
 13  3  2  0  0  0  0
 14  8  1  0  0  0  0
 15 16  2  0  0  0  0
 15 20  1  0  0  0  0
 16 17  1  0  0  0  0
 17 23  1  0  0  0  0
 17 18  2  0  0  0  0
 19 18  1  0  0  0  0
 19  1  1  0  0  0  0
 20 19  2  0  0  0  0
 21 15  1  0  0  0  0
 22 16  1  0  0  0  0
 23 25  1  0  0  0  0
 24 23  1  0  0  0  0
 26 23  1  0  0  0  0
M  END
>  <minimizedAffinity>
-5.32937527

$$$$
