
 OpenBabel03242520313D

 43 45  0  0  0  0  0  0  0  0999 V2000
   36.1970   30.1730   38.0270 C   0  0  0  0  0  0  0  0  0  0  0  0
   36.6990   30.5160   39.3150 C   0  0  0  0  0  0  0  0  0  0  0  0
   36.0940   29.9500   40.4250 C   0  0  0  0  0  0  0  0  0  0  0  0
   35.0490   29.0950   40.2380 N   0  0  0  0  0  0  0  0  0  0  0  0
   34.5910   28.7860   39.0100 C   0  0  0  0  0  0  0  0  0  0  0  0
   35.1600   29.3190   37.9270 N   0  0  0  0  0  0  0  0  0  0  0  0
   36.6400   30.5930   37.1320 H   0  0  0  0  0  0  0  0  0  0  0  0
   33.7520   28.0930   38.9550 H   0  0  0  0  0  0  0  0  0  0  0  0
   37.7910   31.4210   39.3250 N   0  0  0  0  0  0  0  0  0  0  0  0
   39.1490   31.0240   38.9690 C   0  0  0  0  0  0  0  0  0  0  0  0
   40.0450   32.2280   38.9490 C   0  0  0  0  0  0  0  0  0  0  0  0
   39.9570   33.0260   40.1360 N   0  0  0  0  0  0  0  0  0  0  0  0
   38.6320   33.3400   40.5670 C   0  0  0  0  0  0  0  0  0  0  0  0
   37.5300   32.7980   39.7090 C   0  0  0  0  0  0  0  0  0  0  0  0
   39.1230   30.5750   37.9620 H   0  0  0  0  0  0  0  0  0  0  0  0
   39.4700   30.2920   39.7460 H   0  0  0  0  0  0  0  0  0  0  0  0
   39.8710   32.7960   38.0060 H   0  0  0  0  0  0  0  0  0  0  0  0
   41.0940   31.8660   38.8800 H   0  0  0  0  0  0  0  0  0  0  0  0
   40.4510   33.9360   39.9310 H   0  0  0  0  0  0  0  0  0  0  0  0
   38.4960   32.9050   41.6000 H   0  0  0  0  0  0  0  0  0  0  0  0
   38.4590   34.4310   40.6950 H   0  0  0  0  0  0  0  0  0  0  0  0
   37.4610   33.4070   38.7970 H   0  0  0  0  0  0  0  0  0  0  0  0
   36.5910   32.8740   40.2940 H   0  0  0  0  0  0  0  0  0  0  0  0
   36.6060   30.3060   41.6480 O   0  0  0  0  0  0  0  0  0  0  0  0
   37.6620   28.9630   43.6770 O   0  0  0  0  0  0  0  0  0  0  0  0
   37.9960   29.4540   42.2690 P   0  0  1  0  0  0  0  0  0  0  0  0
   38.3540   28.2360   41.2150 O   0  0  0  0  0  0  0  0  0  0  0  0
   38.5320   25.9280   42.1500 C   0  0  0  0  0  0  0  0  0  0  0  0
   38.0930   26.8990   41.2720 C   0  0  0  0  0  0  0  0  0  0  0  0
   37.2300   26.4950   40.2430 C   0  0  0  0  0  0  0  0  0  0  0  0
   36.8040   27.1580   39.4760 H   0  0  0  0  0  0  0  0  0  0  0  0
   36.8280   25.1700   40.1120 C   0  0  0  0  0  3  0  0  0  0  0  0
   37.2770   24.2200   40.9980 C   0  0  0  0  0  3  0  0  0  0  0  0
   38.1300   24.6160   42.0140 C   0  0  0  0  0  0  0  0  0  0  0  0
   39.3790   26.4250   43.1290 O   0  0  0  0  0  0  0  0  0  0  0  0
   39.0910   26.2640   44.1050 H   0  0  0  0  0  0  0  0  0  0  0  0
   38.6310   23.7040   42.9570 O   0  0  0  0  0  0  0  0  0  0  0  0
   39.6420   23.7740   43.1320 H   0  0  0  0  0  0  0  0  0  0  0  0
   39.2320   30.6070   42.3880 O   0  0  0  0  0  0  0  0  0  0  0  0
   40.4850   30.0330   42.4500 C   0  0  0  0  0  0  0  0  0  0  0  0
   41.0140   29.7240   41.2040 F   0  0  0  0  0  0  0  0  0  0  0  0
   40.5860   28.9330   43.2590 F   0  0  0  0  0  0  0  0  0  0  0  0
   41.3140   31.0130   43.0110 F   0  0  0  0  0  0  0  0  0  0  0  0
  1  2  1  0  0  0  0
  2  9  1  0  0  0  0
  2  3  2  0  0  0  0
  3 24  1  0  0  0  0
  4  3  1  0  0  0  0
  5  4  2  0  0  0  0
  6  1  2  0  0  0  0
  6  5  1  0  0  0  0
  7  1  1  0  0  0  0
  8  5  1  0  0  0  0
  9 14  1  0  0  0  0
 10  9  1  0  0  0  0
 10 16  1  0  0  0  0
 11 10  1  0  0  0  0
 11 12  1  0  0  0  0
 12 13  1  0  0  0  0
 13 21  1  0  0  0  0
 13 20  1  0  0  0  0
 14 23  1  0  0  0  0
 14 13  1  0  0  0  0
 15 10  1  0  0  0  0
 17 11  1  0  0  0  0
 18 11  1  0  0  0  0
 19 12  1  0  0  0  0
 22 14  1  0  0  0  0
 24 26  1  0  0  0  0
 26 39  1  0  0  0  0
 26 25  2  1  0  0  0
 27 29  1  0  0  0  0
 27 26  1  0  0  0  0
 28 35  1  0  0  0  0
 29 28  2  0  0  0  0
 30 29  1  0  0  0  0
 31 30  1  0  0  0  0
 32 30  2  0  0  0  0
 32 33  1  0  0  0  0
 33 34  2  0  0  0  0
 34 28  1  0  0  0  0
 34 37  1  0  0  0  0
 35 36  1  0  0  0  0
 37 38  1  0  0  0  0
 39 40  1  0  0  0  0
 40 43  1  0  0  0  0
 40 42  1  0  0  0  0
 41 40  1  0  0  0  0
M  END
>  <minimizedAffinity>
-5.71581602

$$$$

 OpenBabel03242520313D

 43 45  0  0  0  0  0  0  0  0999 V2000
   41.0940   30.3390   39.2080 C   0  0  0  0  0  0  0  0  0  0  0  0
   39.9290   30.4850   40.0140 C   0  0  0  0  0  0  0  0  0  0  0  0
   39.5630   29.4290   40.8320 C   0  0  0  0  0  0  0  0  0  0  0  0
   40.3290   28.3010   40.8300 N   0  0  0  0  0  0  0  0  0  0  0  0
   41.4260   28.1860   40.0580 C   0  0  0  0  0  0  0  0  0  0  0  0
   41.7970   29.1920   39.2630 N   0  0  0  0  0  0  0  0  0  0  0  0
   41.4150   31.1400   38.5540 H   0  0  0  0  0  0  0  0  0  0  0  0
   41.9780   27.2490   40.1210 H   0  0  0  0  0  0  0  0  0  0  0  0
   39.2500   31.7250   39.8920 N   0  0  0  0  0  0  0  0  0  0  0  0
   39.2350   32.7240   40.9560 C   0  0  0  0  0  0  0  0  0  0  0  0
   38.5520   33.9710   40.4750 C   0  0  0  0  0  0  0  0  0  0  0  0
   37.2730   33.7280   39.8770 N   0  0  0  0  0  0  0  0  0  0  0  0
   37.2390   32.6800   38.9060 C   0  0  0  0  0  0  0  0  0  0  0  0
   38.5470   31.9960   38.6510 C   0  0  0  0  0  0  0  0  0  0  0  0
   40.2800   32.9620   41.2190 H   0  0  0  0  0  0  0  0  0  0  0  0
   38.6820   32.2610   41.8050 H   0  0  0  0  0  0  0  0  0  0  0  0
   39.2540   34.5450   39.8280 H   0  0  0  0  0  0  0  0  0  0  0  0
   38.3760   34.6210   41.3590 H   0  0  0  0  0  0  0  0  0  0  0  0
   36.9850   34.6210   39.3920 H   0  0  0  0  0  0  0  0  0  0  0  0
   36.5180   31.8940   39.2770 H   0  0  0  0  0  0  0  0  0  0  0  0
   36.8250   33.0020   37.9260 H   0  0  0  0  0  0  0  0  0  0  0  0
   39.1740   32.6540   38.0310 H   0  0  0  0  0  0  0  0  0  0  0  0
   38.3250   31.0550   38.1080 H   0  0  0  0  0  0  0  0  0  0  0  0
   38.4340   29.6080   41.5930 O   0  0  0  0  0  0  0  0  0  0  0  0
   36.0170   30.3290   40.7720 O   0  0  0  0  0  0  0  0  0  0  0  0
   36.8930   29.0900   40.9650 P   0  0  1  0  0  0  0  0  0  0  0  0
   37.1710   28.2580   39.5660 O   0  0  0  0  0  0  0  0  0  0  0  0
   37.3520   28.6150   37.1020 C   0  0  0  0  0  0  0  0  0  0  0  0
   36.6920   28.4470   38.3030 C   0  0  0  0  0  0  0  0  0  0  0  0
   35.2910   28.4670   38.2780 C   0  0  0  0  0  0  0  0  0  0  0  0
   34.6380   28.3470   39.1550 H   0  0  0  0  0  0  0  0  0  0  0  0
   34.5900   28.6470   37.0910 C   0  0  0  0  0  3  0  0  0  0  0  0
   35.2660   28.8110   35.9060 C   0  0  0  0  0  3  0  0  0  0  0  0
   36.6500   28.7930   35.9280 C   0  0  0  0  0  0  0  0  0  0  0  0
   38.7320   28.5810   37.2310 O   0  0  0  0  0  0  0  0  0  0  0  0
   39.2250   27.8750   36.6640 H   0  0  0  0  0  0  0  0  0  0  0  0
   37.4120   28.9540   34.7590 O   0  0  0  0  0  0  0  0  0  0  0  0
   38.1910   29.6210   34.8390 H   0  0  0  0  0  0  0  0  0  0  0  0
   36.1960   28.1310   42.1750 O   0  0  0  0  0  0  0  0  0  0  0  0
   37.0820   27.2070   42.6920 C   0  0  0  0  0  0  0  0  0  0  0  0
   37.9110   27.7280   43.6770 F   0  0  0  0  0  0  0  0  0  0  0  0
   37.8500   26.5520   41.7680 F   0  0  0  0  0  0  0  0  0  0  0  0
   36.2850   26.2330   43.3070 F   0  0  0  0  0  0  0  0  0  0  0  0
  1  6  2  0  0  0  0
  1  2  1  0  0  0  0
  2  3  2  0  0  0  0
  3 24  1  0  0  0  0
  4  3  1  0  0  0  0
  5  8  1  0  0  0  0
  5  4  2  0  0  0  0
  6  5  1  0  0  0  0
  7  1  1  0  0  0  0
  9  2  1  0  0  0  0
  9 10  1  0  0  0  0
 10 15  1  0  0  0  0
 10 16  1  0  0  0  0
 11 10  1  0  0  0  0
 11 18  1  0  0  0  0
 12 11  1  0  0  0  0
 13 20  1  0  0  0  0
 13 12  1  0  0  0  0
 14 13  1  0  0  0  0
 14  9  1  0  0  0  0
 17 11  1  0  0  0  0
 19 12  1  0  0  0  0
 21 13  1  0  0  0  0
 22 14  1  0  0  0  0
 23 14  1  0  0  0  0
 26 25  2  6  0  0  0
 26 24  1  0  0  0  0
 26 39  1  0  0  0  0
 27 26  1  0  0  0  0
 28 35  1  0  0  0  0
 28 29  1  0  0  0  0
 29 27  1  0  0  0  0
 30 29  2  0  0  0  0
 30 31  1  0  0  0  0
 32 30  1  0  0  0  0
 33 34  1  0  0  0  0
 33 32  2  0  0  0  0
 34 28  2  0  0  0  0
 36 35  1  0  0  0  0
 37 38  1  0  0  0  0
 37 34  1  0  0  0  0
 39 40  1  0  0  0  0
 40 43  1  0  0  0  0
 40 41  1  0  0  0  0
 42 40  1  0  0  0  0
M  END
>  <minimizedAffinity>
-5.71337414

$$$$

 OpenBabel03242520313D

 43 45  0  0  0  0  0  0  0  0999 V2000
   37.6610   30.9170   37.4920 C   0  0  0  0  0  0  0  0  0  0  0  0
   38.1420   30.8370   38.8300 C   0  0  0  0  0  0  0  0  0  0  0  0
   37.7970   29.7280   39.5840 C   0  0  0  0  0  0  0  0  0  0  0  0
   37.0140   28.7670   39.0160 N   0  0  0  0  0  0  0  0  0  0  0  0
   36.5710   28.8660   37.7490 C   0  0  0  0  0  0  0  0  0  0  0  0
   36.8930   29.9250   37.0040 N   0  0  0  0  0  0  0  0  0  0  0  0
   37.9080   31.7680   36.8670 H   0  0  0  0  0  0  0  0  0  0  0  0
   35.9500   28.0500   37.3770 H   0  0  0  0  0  0  0  0  0  0  0  0
   38.9440   31.9260   39.2590 N   0  0  0  0  0  0  0  0  0  0  0  0
   40.4000   31.8550   39.3290 C   0  0  0  0  0  0  0  0  0  0  0  0
   40.9600   33.2000   39.6890 C   0  0  0  0  0  0  0  0  0  0  0  0
   40.3430   33.7860   40.8420 N   0  0  0  0  0  0  0  0  0  0  0  0
   38.9150   33.7720   40.8460 C   0  0  0  0  0  0  0  0  0  0  0  0
   38.2730   33.1560   39.6420 C   0  0  0  0  0  0  0  0  0  0  0  0
   40.7780   31.5590   38.3360 H   0  0  0  0  0  0  0  0  0  0  0  0
   40.6340   31.0960   40.1100 H   0  0  0  0  0  0  0  0  0  0  0  0
   40.9490   33.8530   38.7860 H   0  0  0  0  0  0  0  0  0  0  0  0
   42.0360   33.0620   39.9330 H   0  0  0  0  0  0  0  0  0  0  0  0
   40.6530   34.7950   40.8760 H   0  0  0  0  0  0  0  0  0  0  0  0
   38.5820   33.1760   41.7460 H   0  0  0  0  0  0  0  0  0  0  0  0
   38.4670   34.7790   40.9940 H   0  0  0  0  0  0  0  0  0  0  0  0
   38.3400   33.8650   38.8040 H   0  0  0  0  0  0  0  0  0  0  0  0
   37.2110   32.9630   39.8980 H   0  0  0  0  0  0  0  0  0  0  0  0
   38.2800   29.6870   40.8680 O   0  0  0  0  0  0  0  0  0  0  0  0
   39.7490   27.5610   40.2710 O   0  0  0  0  0  0  0  0  0  0  0  0
   39.0350   28.2260   41.4480 P   0  0  1  0  0  0  0  0  0  0  0  0
   40.0490   28.6380   42.6840 O   0  0  0  0  0  0  0  0  0  0  0  0
   41.3050   30.7950   42.7560 C   0  0  0  0  0  0  0  0  0  0  0  0
   41.1650   29.4220   42.7010 C   0  0  0  0  0  0  0  0  0  0  0  0
   42.3380   28.6550   42.6510 C   0  0  0  0  0  0  0  0  0  0  0  0
   42.3760   27.5570   42.6050 H   0  0  0  0  0  0  0  0  0  0  0  0
   43.5940   29.2510   42.6590 C   0  0  0  0  0  3  0  0  0  0  0  0
   43.7110   30.6190   42.7150 C   0  0  0  0  0  3  0  0  0  0  0  0
   42.5550   31.3790   42.7630 C   0  0  0  0  0  0  0  0  0  0  0  0
   40.0920   31.4630   42.8020 O   0  0  0  0  0  0  0  0  0  0  0  0
   39.9480   32.0920   43.6050 H   0  0  0  0  0  0  0  0  0  0  0  0
   42.5930   32.7820   42.8220 O   0  0  0  0  0  0  0  0  0  0  0  0
   41.9550   33.2590   42.1700 H   0  0  0  0  0  0  0  0  0  0  0  0
   37.7710   27.2140   41.9430 O   0  0  0  0  0  0  0  0  0  0  0  0
   36.8190   27.8830   42.6870 C   0  0  0  0  0  0  0  0  0  0  0  0
   35.7810   28.3980   41.9230 F   0  0  0  0  0  0  0  0  0  0  0  0
   37.3020   28.8710   43.5020 F   0  0  0  0  0  0  0  0  0  0  0  0
   36.2600   26.9140   43.5310 F   0  0  0  0  0  0  0  0  0  0  0  0
  1  2  1  0  0  0  0
  2  9  1  0  0  0  0
  2  3  2  0  0  0  0
  3 24  1  0  0  0  0
  4  3  1  0  0  0  0
  5  4  2  0  0  0  0
  6  1  2  0  0  0  0
  6  5  1  0  0  0  0
  7  1  1  0  0  0  0
  8  5  1  0  0  0  0
  9 10  1  0  0  0  0
  9 14  1  0  0  0  0
 10 11  1  0  0  0  0
 10 16  1  0  0  0  0
 11 18  1  0  0  0  0
 11 12  1  0  0  0  0
 12 13  1  0  0  0  0
 12 19  1  0  0  0  0
 13 21  1  0  0  0  0
 13 20  1  0  0  0  0
 14 23  1  0  0  0  0
 14 13  1  0  0  0  0
 15 10  1  0  0  0  0
 17 11  1  0  0  0  0
 22 14  1  0  0  0  0
 24 26  1  0  0  0  0
 26 25  2  6  0  0  0
 26 39  1  0  0  0  0
 26 27  1  0  0  0  0
 27 29  1  0  0  0  0
 28 34  1  0  0  0  0
 28 35  1  0  0  0  0
 29 28  2  0  0  0  0
 30 32  2  0  0  0  0
 30 29  1  0  0  0  0
 31 30  1  0  0  0  0
 32 33  1  0  0  0  0
 33 34  2  0  0  0  0
 34 37  1  0  0  0  0
 35 36  1  0  0  0  0
 38 37  1  0  0  0  0
 39 40  1  0  0  0  0
 40 42  1  0  0  0  0
 40 43  1  0  0  0  0
 41 40  1  0  0  0  0
M  END
>  <minimizedAffinity>
-5.63650227

$$$$

 OpenBabel03242520313D

 43 45  0  0  0  0  0  0  0  0999 V2000
   38.5350   25.5790   40.3470 C   0  0  0  0  0  0  0  0  0  0  0  0
   37.9430   26.8000   39.9180 C   0  0  0  0  0  0  0  0  0  0  0  0
   37.0990   27.4620   40.7940 C   0  0  0  0  0  0  0  0  0  0  0  0
   36.8710   26.9180   42.0230 N   0  0  0  0  0  0  0  0  0  0  0  0
   37.4420   25.7600   42.4060 C   0  0  0  0  0  0  0  0  0  0  0  0
   38.2600   25.1070   41.5790 N   0  0  0  0  0  0  0  0  0  0  0  0
   39.2010   25.0290   39.6940 H   0  0  0  0  0  0  0  0  0  0  0  0
   37.2040   25.4000   43.4070 H   0  0  0  0  0  0  0  0  0  0  0  0
   38.2880   27.2210   38.6070 N   0  0  0  0  0  0  0  0  0  0  0  0
   39.5040   27.9750   38.3150 C   0  0  0  0  0  0  0  0  0  0  0  0
   39.6500   28.1520   36.8320 C   0  0  0  0  0  0  0  0  0  0  0  0
   38.4710   28.6660   36.1990 N   0  0  0  0  0  0  0  0  0  0  0  0
   37.2510   28.0120   36.5510 C   0  0  0  0  0  0  0  0  0  0  0  0
   37.3840   26.8810   37.5230 C   0  0  0  0  0  0  0  0  0  0  0  0
   40.3650   27.4010   38.6980 H   0  0  0  0  0  0  0  0  0  0  0  0
   39.3890   28.9550   38.8320 H   0  0  0  0  0  0  0  0  0  0  0  0
   40.0280   27.2030   36.3870 H   0  0  0  0  0  0  0  0  0  0  0  0
   40.4590   28.8950   36.6600 H   0  0  0  0  0  0  0  0  0  0  0  0
   38.6070   28.5500   35.1580 H   0  0  0  0  0  0  0  0  0  0  0  0
   36.5760   28.7830   37.0250 H   0  0  0  0  0  0  0  0  0  0  0  0
   36.6820   27.6410   35.6710 H   0  0  0  0  0  0  0  0  0  0  0  0
   37.7900   26.0060   36.9930 H   0  0  0  0  0  0  0  0  0  0  0  0
   36.3690   26.6580   37.9100 H   0  0  0  0  0  0  0  0  0  0  0  0
   36.5480   28.6360   40.3430 O   0  0  0  0  0  0  0  0  0  0  0  0
   36.0450   31.1120   41.1500 O   0  0  0  0  0  0  0  0  0  0  0  0
   37.2070   30.1530   40.8940 P   0  0  1  0  0  0  0  0  0  0  0  0
   38.1180   29.8500   42.2370 O   0  0  0  0  0  0  0  0  0  0  0  0
   40.2410   31.1430   42.4650 C   0  0  0  0  0  0  0  0  0  0  0  0
   39.4530   30.0090   42.4660 C   0  0  0  0  0  0  0  0  0  0  0  0
   40.0810   28.7870   42.7430 C   0  0  0  0  0  0  0  0  0  0  0  0
   39.5790   27.8090   42.7760 H   0  0  0  0  0  0  0  0  0  0  0  0
   41.4440   28.7160   43.0080 C   0  0  0  0  0  3  0  0  0  0  0  0
   42.2110   29.8560   43.0030 C   0  0  0  0  0  3  0  0  0  0  0  0
   41.5930   31.0650   42.7290 C   0  0  0  0  0  0  0  0  0  0  0  0
   39.5310   32.2990   42.1820 O   0  0  0  0  0  0  0  0  0  0  0  0
   39.5790   33.0480   42.8870 H   0  0  0  0  0  0  0  0  0  0  0  0
   42.3090   32.2730   42.7060 O   0  0  0  0  0  0  0  0  0  0  0  0
   42.1150   32.8750   41.8940 H   0  0  0  0  0  0  0  0  0  0  0  0
   38.1200   30.7600   39.6020 O   0  0  0  0  0  0  0  0  0  0  0  0
   37.3430   31.4150   38.6680 C   0  0  0  0  0  0  0  0  0  0  0  0
   36.9400   32.6800   39.0740 F   0  0  0  0  0  0  0  0  0  0  0  0
   36.2490   30.7210   38.2270 F   0  0  0  0  0  0  0  0  0  0  0  0
   38.1740   31.5920   37.5540 F   0  0  0  0  0  0  0  0  0  0  0  0
  1  6  1  0  0  0  0
  2  1  2  0  0  0  0
  2  3  1  0  0  0  0
  3  4  2  0  0  0  0
  4  5  1  0  0  0  0
  5  8  1  0  0  0  0
  6  5  2  0  0  0  0
  7  1  1  0  0  0  0
  9  2  1  0  0  0  0
 10  9  1  0  0  0  0
 10 15  1  0  0  0  0
 10 16  1  0  0  0  0
 11 10  1  0  0  0  0
 12 13  1  0  0  0  0
 12 11  1  0  0  0  0
 13 20  1  0  0  0  0
 13 14  1  0  0  0  0
 14 23  1  0  0  0  0
 14  9  1  0  0  0  0
 17 11  1  0  0  0  0
 18 11  1  0  0  0  0
 19 12  1  0  0  0  0
 21 13  1  0  0  0  0
 22 14  1  0  0  0  0
 24  3  1  0  0  0  0
 24 26  1  0  0  0  0
 26 25  2  1  0  0  0
 26 27  1  0  0  0  0
 27 29  1  0  0  0  0
 28 29  2  0  0  0  0
 28 34  1  0  0  0  0
 29 30  1  0  0  0  0
 30 31  1  0  0  0  0
 30 32  2  0  0  0  0
 33 32  1  0  0  0  0
 34 33  2  0  0  0  0
 35 28  1  0  0  0  0
 35 36  1  0  0  0  0
 37 34  1  0  0  0  0
 38 37  1  0  0  0  0
 39 26  1  0  0  0  0
 40 41  1  0  0  0  0
 40 39  1  0  0  0  0
 42 40  1  0  0  0  0
 43 40  1  0  0  0  0
M  END
>  <minimizedAffinity>
-5.49999523

$$$$

 OpenBabel03242520313D

 43 45  0  0  0  0  0  0  0  0999 V2000
   36.9290   29.1560   36.4810 C   0  0  0  0  0  0  0  0  0  0  0  0
   37.5380   29.2460   37.7650 C   0  0  0  0  0  0  0  0  0  0  0  0
   37.4990   28.1330   38.5880 C   0  0  0  0  0  0  0  0  0  0  0  0
   36.8800   27.0050   38.1350 N   0  0  0  0  0  0  0  0  0  0  0  0
   36.3100   26.9450   36.9170 C   0  0  0  0  0  0  0  0  0  0  0  0
   36.3380   28.0060   36.1080 N   0  0  0  0  0  0  0  0  0  0  0  0
   36.9370   30.0040   35.8060 H   0  0  0  0  0  0  0  0  0  0  0  0
   35.8380   26.0020   36.6390 H   0  0  0  0  0  0  0  0  0  0  0  0
   38.1370   30.4950   38.0730 N   0  0  0  0  0  0  0  0  0  0  0  0
   39.5520   30.6330   38.4030 C   0  0  0  0  0  0  0  0  0  0  0  0
   39.9030   32.0850   38.5470 C   0  0  0  0  0  0  0  0  0  0  0  0
   39.0230   32.8030   39.4200 N   0  0  0  0  0  0  0  0  0  0  0  0
   37.6280   32.6010   39.1850 C   0  0  0  0  0  0  0  0  0  0  0  0
   37.2920   31.6770   38.0560 C   0  0  0  0  0  0  0  0  0  0  0  0
   40.1410   30.1970   37.5790 H   0  0  0  0  0  0  0  0  0  0  0  0
   39.6990   30.0830   39.3610 H   0  0  0  0  0  0  0  0  0  0  0  0
   40.0070   32.5370   37.5340 H   0  0  0  0  0  0  0  0  0  0  0  0
   40.9190   32.1420   38.9950 H   0  0  0  0  0  0  0  0  0  0  0  0
   39.2250   33.8300   39.2830 H   0  0  0  0  0  0  0  0  0  0  0  0
   37.1840   32.1570   40.1240 H   0  0  0  0  0  0  0  0  0  0  0  0
   37.0680   33.5490   39.0290 H   0  0  0  0  0  0  0  0  0  0  0  0
   37.4540   32.2070   37.1060 H   0  0  0  0  0  0  0  0  0  0  0  0
   36.2240   31.4010   38.1640 H   0  0  0  0  0  0  0  0  0  0  0  0
   38.0970   28.2590   39.8170 O   0  0  0  0  0  0  0  0  0  0  0  0
   35.7210   29.0540   40.6880 O   0  0  0  0  0  0  0  0  0  0  0  0
   37.1600   28.8540   41.1620 P   0  0  1  0  0  0  0  0  0  0  0  0
   37.3000   27.7660   42.3950 O   0  0  0  0  0  0  0  0  0  0  0  0
   37.8690   25.4020   41.8280 C   0  0  0  0  0  0  0  0  0  0  0  0
   38.0130   26.6070   42.4880 C   0  0  0  0  0  0  0  0  0  0  0  0
   39.0510   26.7100   43.4250 C   0  0  0  0  0  0  0  0  0  0  0  0
   39.2810   27.6050   44.0210 H   0  0  0  0  0  0  0  0  0  0  0  0
   39.9050   25.6440   43.6800 C   0  0  0  0  0  3  0  0  0  0  0  0
   39.7460   24.4530   43.0110 C   0  0  0  0  0  3  0  0  0  0  0  0
   38.7210   24.3480   42.0860 C   0  0  0  0  0  0  0  0  0  0  0  0
   36.8180   25.3990   40.9250 O   0  0  0  0  0  0  0  0  0  0  0  0
   37.0560   25.1690   39.9490 H   0  0  0  0  0  0  0  0  0  0  0  0
   38.4940   23.1660   41.3630 O   0  0  0  0  0  0  0  0  0  0  0  0
   37.5120   22.8600   41.3310 H   0  0  0  0  0  0  0  0  0  0  0  0
   37.8090   30.3710   41.5450 O   0  0  0  0  0  0  0  0  0  0  0  0
   38.9710   30.2780   42.2840 C   0  0  0  0  0  0  0  0  0  0  0  0
   39.9070   29.4110   41.7350 F   0  0  0  0  0  0  0  0  0  0  0  0
   38.8010   29.9660   43.6050 F   0  0  0  0  0  0  0  0  0  0  0  0
   39.5360   31.5590   42.2500 F   0  0  0  0  0  0  0  0  0  0  0  0
  1  2  1  0  0  0  0
  2  9  1  0  0  0  0
  2  3  2  0  0  0  0
  3 24  1  0  0  0  0
  4  3  1  0  0  0  0
  5  4  2  0  0  0  0
  6  1  2  0  0  0  0
  6  5  1  0  0  0  0
  7  1  1  0  0  0  0
  8  5  1  0  0  0  0
  9 10  1  0  0  0  0
 10 11  1  0  0  0  0
 10 16  1  0  0  0  0
 11 18  1  0  0  0  0
 11 12  1  0  0  0  0
 13 12  1  0  0  0  0
 13 20  1  0  0  0  0
 14  9  1  0  0  0  0
 14 23  1  0  0  0  0
 14 13  1  0  0  0  0
 15 10  1  0  0  0  0
 17 11  1  0  0  0  0
 19 12  1  0  0  0  0
 21 13  1  0  0  0  0
 22 14  1  0  0  0  0
 24 26  1  0  0  0  0
 26 25  2  6  0  0  0
 26 39  1  0  0  0  0
 26 27  1  0  0  0  0
 27 29  1  0  0  0  0
 28 34  2  0  0  0  0
 28 29  1  0  0  0  0
 29 30  2  0  0  0  0
 30 32  1  0  0  0  0
 30 31  1  0  0  0  0
 33 32  2  0  0  0  0
 34 33  1  0  0  0  0
 35 28  1  0  0  0  0
 36 35  1  0  0  0  0
 37 34  1  0  0  0  0
 38 37  1  0  0  0  0
 39 40  1  0  0  0  0
 40 42  1  0  0  0  0
 41 40  1  0  0  0  0
 43 40  1  0  0  0  0
M  END
>  <minimizedAffinity>
-5.46917439

$$$$

 OpenBabel03242520313D

 43 45  0  0  0  0  0  0  0  0999 V2000
   40.6460   30.2490   37.8920 C   0  0  0  0  0  0  0  0  0  0  0  0
   39.3820   30.2650   38.5490 C   0  0  0  0  0  0  0  0  0  0  0  0
   38.6670   29.0810   38.6180 C   0  0  0  0  0  0  0  0  0  0  0  0
   39.2000   27.9590   38.0560 N   0  0  0  0  0  0  0  0  0  0  0  0
   40.3960   27.9690   37.4400 C   0  0  0  0  0  0  0  0  0  0  0  0
   41.1030   29.0980   37.3630 N   0  0  0  0  0  0  0  0  0  0  0  0
   41.2390   31.1530   37.8150 H   0  0  0  0  0  0  0  0  0  0  0  0
   40.7440   27.0250   37.0200 H   0  0  0  0  0  0  0  0  0  0  0  0
   38.9810   31.5190   39.0760 N   0  0  0  0  0  0  0  0  0  0  0  0
   39.5330   32.0710   40.3090 C   0  0  0  0  0  0  0  0  0  0  0  0
   39.0080   33.4610   40.5260 C   0  0  0  0  0  0  0  0  0  0  0  0
   37.5820   33.5550   40.4250 N   0  0  0  0  0  0  0  0  0  0  0  0
   37.0050   32.9290   39.2780 C   0  0  0  0  0  0  0  0  0  0  0  0
   37.9760   32.2740   38.3460 C   0  0  0  0  0  0  0  0  0  0  0  0
   40.6310   32.1110   40.2060 H   0  0  0  0  0  0  0  0  0  0  0  0
   39.2120   31.3840   41.1240 H   0  0  0  0  0  0  0  0  0  0  0  0
   39.5580   34.1660   39.8620 H   0  0  0  0  0  0  0  0  0  0  0  0
   39.2800   33.7650   41.5600 H   0  0  0  0  0  0  0  0  0  0  0  0
   37.3440   34.5830   40.3810 H   0  0  0  0  0  0  0  0  0  0  0  0
   36.3010   32.1260   39.6450 H   0  0  0  0  0  0  0  0  0  0  0  0
   36.3650   33.6130   38.6800 H   0  0  0  0  0  0  0  0  0  0  0  0
   38.4840   33.0540   37.7600 H   0  0  0  0  0  0  0  0  0  0  0  0
   37.3930   31.6100   37.6760 H   0  0  0  0  0  0  0  0  0  0  0  0
   37.4540   29.1370   39.2580 O   0  0  0  0  0  0  0  0  0  0  0  0
   36.7080   30.0610   41.6310 O   0  0  0  0  0  0  0  0  0  0  0  0
   37.3850   28.8550   40.9780 P   0  0  1  0  0  0  0  0  0  0  0  0
   36.5800   27.4350   41.2250 O   0  0  0  0  0  0  0  0  0  0  0  0
   37.0210   25.4370   39.7970 C   0  0  0  0  0  0  0  0  0  0  0  0
   36.9470   26.1450   40.9790 C   0  0  0  0  0  0  0  0  0  0  0  0
   37.2960   25.4720   42.1580 C   0  0  0  0  0  0  0  0  0  0  0  0
   37.2830   25.9110   43.1670 H   0  0  0  0  0  0  0  0  0  0  0  0
   37.7030   24.1430   42.1410 C   0  0  0  0  0  3  0  0  0  0  0  0
   37.7710   23.4550   40.9520 C   0  0  0  0  0  3  0  0  0  0  0  0
   37.4270   24.1180   39.7870 C   0  0  0  0  0  0  0  0  0  0  0  0
   36.6570   26.1870   38.6900 O   0  0  0  0  0  0  0  0  0  0  0  0
   37.3590   26.2610   37.9380 H   0  0  0  0  0  0  0  0  0  0  0  0
   37.4700   23.4830   38.5340 O   0  0  0  0  0  0  0  0  0  0  0  0
   36.6380   23.6290   37.9460 H   0  0  0  0  0  0  0  0  0  0  0  0
   38.9940   28.8000   41.5040 O   0  0  0  0  0  0  0  0  0  0  0  0
   39.1160   29.0380   42.8580 C   0  0  0  0  0  0  0  0  0  0  0  0
   38.1680   28.3720   43.6240 F   0  0  0  0  0  0  0  0  0  0  0  0
   39.1300   30.3570   43.2220 F   0  0  0  0  0  0  0  0  0  0  0  0
   40.3660   28.5160   43.2160 F   0  0  0  0  0  0  0  0  0  0  0  0
  1  2  1  0  0  0  0
  2  3  2  0  0  0  0
  2  9  1  0  0  0  0
  3 24  1  0  0  0  0
  4  3  1  0  0  0  0
  5  4  2  0  0  0  0
  6  5  1  0  0  0  0
  6  1  2  0  0  0  0
  7  1  1  0  0  0  0
  8  5  1  0  0  0  0
  9 10  1  0  0  0  0
 10 11  1  0  0  0  0
 10 16  1  0  0  0  0
 11 18  1  0  0  0  0
 12 11  1  0  0  0  0
 13 20  1  0  0  0  0
 13 12  1  0  0  0  0
 14  9  1  0  0  0  0
 14 13  1  0  0  0  0
 15 10  1  0  0  0  0
 17 11  1  0  0  0  0
 19 12  1  0  0  0  0
 21 13  1  0  0  0  0
 22 14  1  0  0  0  0
 23 14  1  0  0  0  0
 24 26  1  0  0  0  0
 26 27  1  0  0  0  0
 26 39  1  0  0  0  0
 26 25  2  1  0  0  0
 28 29  1  0  0  0  0
 29 27  1  0  0  0  0
 29 30  2  0  0  0  0
 30 31  1  0  0  0  0
 32 30  1  0  0  0  0
 33 32  2  0  0  0  0
 34 28  2  0  0  0  0
 34 33  1  0  0  0  0
 35 28  1  0  0  0  0
 36 35  1  0  0  0  0
 37 34  1  0  0  0  0
 38 37  1  0  0  0  0
 39 40  1  0  0  0  0
 40 43  1  0  0  0  0
 40 42  1  0  0  0  0
 40 41  1  0  0  0  0
M  END
>  <minimizedAffinity>
-5.45568132

$$$$

 OpenBabel03242520313D

 43 45  0  0  0  0  0  0  0  0999 V2000
   37.8860   24.3660   38.7530 C   0  0  0  0  0  0  0  0  0  0  0  0
   38.1180   25.7310   39.0860 C   0  0  0  0  0  0  0  0  0  0  0  0
   37.6680   26.1900   40.3130 C   0  0  0  0  0  0  0  0  0  0  0  0
   37.0250   25.3200   41.1430 N   0  0  0  0  0  0  0  0  0  0  0  0
   36.8170   24.0340   40.8050 C   0  0  0  0  0  0  0  0  0  0  0  0
   37.2430   23.5700   39.6280 N   0  0  0  0  0  0  0  0  0  0  0  0
   38.2210   23.9650   37.8030 H   0  0  0  0  0  0  0  0  0  0  0  0
   36.2940   23.4100   41.5310 H   0  0  0  0  0  0  0  0  0  0  0  0
   38.8020   26.4940   38.1050 N   0  0  0  0  0  0  0  0  0  0  0  0
   40.1680   26.9740   38.2890 C   0  0  0  0  0  0  0  0  0  0  0  0
   40.6520   27.6300   37.0290 C   0  0  0  0  0  0  0  0  0  0  0  0
   39.7470   28.6130   36.5120 N   0  0  0  0  0  0  0  0  0  0  0  0
   38.3820   28.2010   36.4210 C   0  0  0  0  0  0  0  0  0  0  0  0
   38.1000   26.8020   36.8710 C   0  0  0  0  0  0  0  0  0  0  0  0
   40.8100   26.1060   38.5160 H   0  0  0  0  0  0  0  0  0  0  0  0
   40.1280   27.6990   39.1340 H   0  0  0  0  0  0  0  0  0  0  0  0
   40.9360   26.8420   36.2940 H   0  0  0  0  0  0  0  0  0  0  0  0
   41.6010   28.1580   37.2680 H   0  0  0  0  0  0  0  0  0  0  0  0
   40.0750   28.8490   35.5360 H   0  0  0  0  0  0  0  0  0  0  0  0
   37.7730   28.8920   37.0750 H   0  0  0  0  0  0  0  0  0  0  0  0
   37.9530   28.3250   35.4030 H   0  0  0  0  0  0  0  0  0  0  0  0
   38.4420   26.1040   36.0930 H   0  0  0  0  0  0  0  0  0  0  0  0
   37.0030   26.7150   37.0090 H   0  0  0  0  0  0  0  0  0  0  0  0
   37.9110   27.5100   40.5980 O   0  0  0  0  0  0  0  0  0  0  0  0
   36.0320   29.1990   41.4080 O   0  0  0  0  0  0  0  0  0  0  0  0
   36.7310   28.7100   40.1400 P   0  0  1  0  0  0  0  0  0  0  0  0
   37.5200   29.9070   39.3210 O   0  0  0  0  0  0  0  0  0  0  0  0
   38.0060   32.0990   40.4120 C   0  0  0  0  0  0  0  0  0  0  0  0
   38.3180   30.9190   39.7670 C   0  0  0  0  0  0  0  0  0  0  0  0
   39.6710   30.6680   39.4990 C   0  0  0  0  0  0  0  0  0  0  0  0
   40.0630   29.7730   38.9940 H   0  0  0  0  0  0  0  0  0  0  0  0
   40.6630   31.5700   39.8690 C   0  0  0  0  0  3  0  0  0  0  0  0
   40.3310   32.7380   40.5110 C   0  0  0  0  0  3  0  0  0  0  0  0
   38.9960   32.9890   40.7760 C   0  0  0  0  0  0  0  0  0  0  0  0
   36.6470   32.2550   40.6320 O   0  0  0  0  0  0  0  0  0  0  0  0
   36.3560   32.3960   41.6100 H   0  0  0  0  0  0  0  0  0  0  0  0
   38.5770   34.1610   41.4280 O   0  0  0  0  0  0  0  0  0  0  0  0
   37.7800   34.6400   40.9890 H   0  0  0  0  0  0  0  0  0  0  0  0
   35.5910   27.9000   39.1840 O   0  0  0  0  0  0  0  0  0  0  0  0
   34.6120   28.7440   38.6990 C   0  0  0  0  0  0  0  0  0  0  0  0
   35.1110   29.7790   37.9210 F   0  0  0  0  0  0  0  0  0  0  0  0
   33.7700   29.2650   39.6430 F   0  0  0  0  0  0  0  0  0  0  0  0
   33.8210   27.9490   37.8590 F   0  0  0  0  0  0  0  0  0  0  0  0
  1  2  2  0  0  0  0
  1  6  1  0  0  0  0
  2  3  1  0  0  0  0
  3 24  1  0  0  0  0
  3  4  2  0  0  0  0
  5  4  1  0  0  0  0
  5  8  1  0  0  0  0
  6  5  2  0  0  0  0
  7  1  1  0  0  0  0
  9 10  1  0  0  0  0
  9  2  1  0  0  0  0
 10 15  1  0  0  0  0
 10 16  1  0  0  0  0
 11 18  1  0  0  0  0
 11 10  1  0  0  0  0
 12 11  1  0  0  0  0
 13 12  1  0  0  0  0
 13 14  1  0  0  0  0
 13 20  1  0  0  0  0
 14 23  1  0  0  0  0
 14  9  1  0  0  0  0
 17 11  1  0  0  0  0
 19 12  1  0  0  0  0
 21 13  1  0  0  0  0
 22 14  1  0  0  0  0
 26 24  1  0  0  0  0
 26 25  2  1  0  0  0
 27 29  1  0  0  0  0
 27 26  1  0  0  0  0
 28 35  1  0  0  0  0
 28 34  1  0  0  0  0
 29 28  2  0  0  0  0
 30 29  1  0  0  0  0
 30 32  2  0  0  0  0
 31 30  1  0  0  0  0
 32 33  1  0  0  0  0
 33 34  2  0  0  0  0
 34 37  1  0  0  0  0
 35 36  1  0  0  0  0
 38 37  1  0  0  0  0
 39 26  1  0  0  0  0
 40 39  1  0  0  0  0
 40 42  1  0  0  0  0
 41 40  1  0  0  0  0
 43 40  1  0  0  0  0
M  END
>  <minimizedAffinity>
-5.43906641

$$$$

 OpenBabel03242520313D

 43 45  0  0  0  0  0  0  0  0999 V2000
   38.7200   27.9160   36.3810 C   0  0  0  0  0  0  0  0  0  0  0  0
   37.8450   28.8480   37.0100 C   0  0  0  0  0  0  0  0  0  0  0  0
   38.3180   29.5520   38.1050 C   0  0  0  0  0  0  0  0  0  0  0  0
   39.5930   29.3230   38.5310 N   0  0  0  0  0  0  0  0  0  0  0  0
   40.4010   28.4370   37.9200 C   0  0  0  0  0  0  0  0  0  0  0  0
   39.9660   27.7490   36.8630 N   0  0  0  0  0  0  0  0  0  0  0  0
   38.3910   27.3450   35.5220 H   0  0  0  0  0  0  0  0  0  0  0  0
   41.4040   28.3190   38.3290 H   0  0  0  0  0  0  0  0  0  0  0  0
   36.5530   28.9600   36.4360 N   0  0  0  0  0  0  0  0  0  0  0  0
   35.3950   28.2340   36.9490 C   0  0  0  0  0  0  0  0  0  0  0  0
   34.1580   28.6640   36.2160 C   0  0  0  0  0  0  0  0  0  0  0  0
   34.2940   28.6230   34.7910 N   0  0  0  0  0  0  0  0  0  0  0  0
   35.4750   29.2350   34.2700 C   0  0  0  0  0  0  0  0  0  0  0  0
   36.3920   29.8370   35.2900 C   0  0  0  0  0  0  0  0  0  0  0  0
   35.2850   28.4750   38.0200 H   0  0  0  0  0  0  0  0  0  0  0  0
   35.6110   27.1530   36.7820 H   0  0  0  0  0  0  0  0  0  0  0  0
   33.8240   29.6500   36.6130 H   0  0  0  0  0  0  0  0  0  0  0  0
   33.3450   27.9540   36.4840 H   0  0  0  0  0  0  0  0  0  0  0  0
   33.4640   29.1370   34.3880 H   0  0  0  0  0  0  0  0  0  0  0  0
   36.0600   28.4390   33.7230 H   0  0  0  0  0  0  0  0  0  0  0  0
   35.2650   30.0100   33.5000 H   0  0  0  0  0  0  0  0  0  0  0  0
   35.9600   30.7870   35.6360 H   0  0  0  0  0  0  0  0  0  0  0  0
   37.3660   30.0180   34.7900 H   0  0  0  0  0  0  0  0  0  0  0  0
   37.4460   30.4390   38.6840 O   0  0  0  0  0  0  0  0  0  0  0  0
   37.0070   32.9940   39.2480 O   0  0  0  0  0  0  0  0  0  0  0  0
   38.0690   31.9050   39.3960 P   0  0  1  0  0  0  0  0  0  0  0  0
   38.4610   31.5770   40.9650 O   0  0  0  0  0  0  0  0  0  0  0  0
   37.2150   29.7260   42.0860 C   0  0  0  0  0  0  0  0  0  0  0  0
   38.3360   30.4330   41.6980 C   0  0  0  0  0  0  0  0  0  0  0  0
   39.5830   29.9360   42.0990 C   0  0  0  0  0  0  0  0  0  0  0  0
   40.5550   30.3940   41.8630 H   0  0  0  0  0  0  0  0  0  0  0  0
   39.6920   28.7750   42.8560 C   0  0  0  0  0  3  0  0  0  0  0  0
   38.5630   28.0860   43.2320 C   0  0  0  0  0  3  0  0  0  0  0  0
   37.3300   28.5750   42.8380 C   0  0  0  0  0  0  0  0  0  0  0  0
   36.0320   30.2970   41.6420 O   0  0  0  0  0  0  0  0  0  0  0  0
   35.4220   29.6940   41.0700 H   0  0  0  0  0  0  0  0  0  0  0  0
   36.1320   27.9280   43.1820 O   0  0  0  0  0  0  0  0  0  0  0  0
   35.3950   28.5460   43.5460 H   0  0  0  0  0  0  0  0  0  0  0  0
   39.4110   32.3420   38.4590 O   0  0  0  0  0  0  0  0  0  0  0  0
   40.3230   33.1000   39.1650 C   0  0  0  0  0  0  0  0  0  0  0  0
   41.1660   32.3450   39.9690 F   0  0  0  0  0  0  0  0  0  0  0  0
   39.7870   34.1130   39.9120 F   0  0  0  0  0  0  0  0  0  0  0  0
   41.1280   33.7090   38.1930 F   0  0  0  0  0  0  0  0  0  0  0  0
  1  6  2  0  0  0  0
  1  2  1  0  0  0  0
  2  3  2  0  0  0  0
  3  4  1  0  0  0  0
  3 24  1  0  0  0  0
  5  8  1  0  0  0  0
  5  4  2  0  0  0  0
  6  5  1  0  0  0  0
  7  1  1  0  0  0  0
  9 10  1  0  0  0  0
  9  2  1  0  0  0  0
 10 15  1  0  0  0  0
 11 18  1  0  0  0  0
 11 17  1  0  0  0  0
 11 10  1  0  0  0  0
 12 11  1  0  0  0  0
 13 12  1  0  0  0  0
 13 14  1  0  0  0  0
 14 22  1  0  0  0  0
 14  9  1  0  0  0  0
 16 10  1  0  0  0  0
 19 12  1  0  0  0  0
 20 13  1  0  0  0  0
 21 13  1  0  0  0  0
 23 14  1  0  0  0  0
 24 26  1  0  0  0  0
 26 25  2  6  0  0  0
 26 27  1  0  0  0  0
 27 29  1  0  0  0  0
 28 34  1  0  0  0  0
 29 28  2  0  0  0  0
 29 30  1  0  0  0  0
 30 32  2  0  0  0  0
 31 30  1  0  0  0  0
 32 33  1  0  0  0  0
 34 37  1  0  0  0  0
 34 33  2  0  0  0  0
 35 28  1  0  0  0  0
 36 35  1  0  0  0  0
 37 38  1  0  0  0  0
 39 40  1  0  0  0  0
 39 26  1  0  0  0  0
 40 42  1  0  0  0  0
 40 41  1  0  0  0  0
 43 40  1  0  0  0  0
M  END
>  <minimizedAffinity>
-5.42587042

$$$$

 OpenBabel03242520313D

 43 45  0  0  0  0  0  0  0  0999 V2000
   38.0020   26.0590   36.9550 C   0  0  0  0  0  0  0  0  0  0  0  0
   37.8410   26.7390   38.1960 C   0  0  0  0  0  0  0  0  0  0  0  0
   37.7560   28.1210   38.1790 C   0  0  0  0  0  0  0  0  0  0  0  0
   37.8320   28.7680   36.9810 N   0  0  0  0  0  0  0  0  0  0  0  0
   37.9850   28.1030   35.8200 C   0  0  0  0  0  0  0  0  0  0  0  0
   38.0670   26.7710   35.8140 N   0  0  0  0  0  0  0  0  0  0  0  0
   38.0720   24.9780   36.9230 H   0  0  0  0  0  0  0  0  0  0  0  0
   38.0350   28.7020   34.9110 H   0  0  0  0  0  0  0  0  0  0  0  0
   37.7820   25.9090   39.3460 N   0  0  0  0  0  0  0  0  0  0  0  0
   36.5390   25.3130   39.8250 C   0  0  0  0  0  0  0  0  0  0  0  0
   36.8270   24.3890   40.9730 C   0  0  0  0  0  0  0  0  0  0  0  0
   37.6290   24.9860   42.0000 N   0  0  0  0  0  0  0  0  0  0  0  0
   38.7980   25.6690   41.5450 C   0  0  0  0  0  0  0  0  0  0  0  0
   39.0180   25.6540   40.0650 C   0  0  0  0  0  0  0  0  0  0  0  0
   36.0940   24.7340   38.9980 H   0  0  0  0  0  0  0  0  0  0  0  0
   35.8910   26.1620   40.1410 H   0  0  0  0  0  0  0  0  0  0  0  0
   37.2350   23.4310   40.5770 H   0  0  0  0  0  0  0  0  0  0  0  0
   35.8550   24.1180   41.4390 H   0  0  0  0  0  0  0  0  0  0  0  0
   37.9430   24.2040   42.6370 H   0  0  0  0  0  0  0  0  0  0  0  0
   38.7050   26.7500   41.8590 H   0  0  0  0  0  0  0  0  0  0  0  0
   39.7310   25.3140   42.0330 H   0  0  0  0  0  0  0  0  0  0  0  0
   39.3910   24.6620   39.7730 H   0  0  0  0  0  0  0  0  0  0  0  0
   39.7760   26.4310   39.8370 H   0  0  0  0  0  0  0  0  0  0  0  0
   37.6020   28.7390   39.3940 O   0  0  0  0  0  0  0  0  0  0  0  0
   39.9100   28.8670   40.6960 O   0  0  0  0  0  0  0  0  0  0  0  0
   38.8810   29.7580   40.0000 P   0  0  1  0  0  0  0  0  0  0  0  0
   39.4990   30.6040   38.7240 O   0  0  0  0  0  0  0  0  0  0  0  0
   40.8370   32.4260   37.6640 C   0  0  0  0  0  0  0  0  0  0  0  0
   40.4810   31.5500   38.6700 C   0  0  0  0  0  0  0  0  0  0  0  0
   41.2200   31.5980   39.8600 C   0  0  0  0  0  0  0  0  0  0  0  0
   41.0480   30.9610   40.7410 H   0  0  0  0  0  0  0  0  0  0  0  0
   42.2720   32.4920   40.0250 C   0  0  0  0  0  3  0  0  0  0  0  0
   42.6100   33.3560   39.0110 C   0  0  0  0  0  3  0  0  0  0  0  0
   41.8820   33.3110   37.8350 C   0  0  0  0  0  0  0  0  0  0  0  0
   40.0490   32.3020   36.5310 O   0  0  0  0  0  0  0  0  0  0  0  0
   39.5620   33.1550   36.2190 H   0  0  0  0  0  0  0  0  0  0  0  0
   42.1670   34.1610   36.7530 O   0  0  0  0  0  0  0  0  0  0  0  0
   42.2100   33.6960   35.8370 H   0  0  0  0  0  0  0  0  0  0  0  0
   38.1660   30.7560   41.1670 O   0  0  0  0  0  0  0  0  0  0  0  0
   37.1570   31.5400   40.6460 C   0  0  0  0  0  0  0  0  0  0  0  0
   35.9860   31.5000   41.3910 F   0  0  0  0  0  0  0  0  0  0  0  0
   36.8540   31.3070   39.3320 F   0  0  0  0  0  0  0  0  0  0  0  0
   37.6360   32.8550   40.7140 F   0  0  0  0  0  0  0  0  0  0  0  0
  1  2  1  0  0  0  0
  2  9  1  0  0  0  0
  3  2  2  0  0  0  0
  3 24  1  0  0  0  0
  4  3  1  0  0  0  0
  5  4  2  0  0  0  0
  6  5  1  0  0  0  0
  6  1  2  0  0  0  0
  7  1  1  0  0  0  0
  8  5  1  0  0  0  0
  9 10  1  0  0  0  0
  9 14  1  0  0  0  0
 10 16  1  0  0  0  0
 10 11  1  0  0  0  0
 11 18  1  0  0  0  0
 11 12  1  0  0  0  0
 12 19  1  0  0  0  0
 13 20  1  0  0  0  0
 13 12  1  0  0  0  0
 13 21  1  0  0  0  0
 14 13  1  0  0  0  0
 15 10  1  0  0  0  0
 17 11  1  0  0  0  0
 22 14  1  0  0  0  0
 23 14  1  0  0  0  0
 24 26  1  0  0  0  0
 26 25  2  1  0  0  0
 26 39  1  0  0  0  0
 27 26  1  0  0  0  0
 28 34  2  0  0  0  0
 28 29  1  0  0  0  0
 29 27  1  0  0  0  0
 29 30  2  0  0  0  0
 30 32  1  0  0  0  0
 30 31  1  0  0  0  0
 33 32  2  0  0  0  0
 34 33  1  0  0  0  0
 35 28  1  0  0  0  0
 36 35  1  0  0  0  0
 37 34  1  0  0  0  0
 38 37  1  0  0  0  0
 40 43  1  0  0  0  0
 40 39  1  0  0  0  0
 40 41  1  0  0  0  0
 42 40  1  0  0  0  0
M  END
>  <minimizedAffinity>
-5.41366386

$$$$
