
 OpenBabel03252509273D

 32 34  0  0  1  0  0  0  0  0999 V2000
   46.4670   35.0490   42.0420 C   0  0  1  0  0  0  0  0  0  0  0  0
   48.0040   35.2830   41.9560 C   0  0  0  0  0  0  0  0  0  0  0  0
   47.2210   34.1070   41.3190 C   0  0  2  0  0  0  0  0  0  0  0  0
   45.8820   35.8530   41.5650 H   0  0  0  0  0  0  0  0  0  0  0  0
   48.6150   35.0950   42.8390 H   0  0  0  0  0  0  0  0  0  0  0  0
   48.3040   36.0950   41.2830 H   0  0  0  0  0  0  0  0  0  0  0  0
   47.5620   33.1210   41.7600 H   0  0  0  0  0  0  0  0  0  0  0  0
   44.7680   35.1380   45.3830 C   0  0  0  0  0  0  0  0  0  0  0  0
   45.1230   35.5390   44.0640 C   0  0  0  0  0  0  0  0  0  0  0  0
   46.0540   34.7580   43.4650 C   0  0  0  0  0  0  0  0  0  0  0  0
   46.6100   33.6610   44.0970 N   0  0  0  0  0  0  0  0  0  0  0  0
   46.2360   33.3240   45.3520 C   0  0  0  0  0  0  0  0  0  0  0  0
   45.3090   34.0690   45.9960 N   0  0  0  0  0  0  0  0  0  0  0  0
   44.0290   35.7310   45.8950 H   0  0  0  0  0  0  0  0  0  0  0  0
   46.7590   32.4460   45.7060 H   0  0  0  0  0  0  0  0  0  0  0  0
   44.5730   36.6710   43.4320 N   0  0  0  0  0  0  0  0  0  0  0  0
   43.5490   36.8630   43.5780 H   0  0  0  0  0  0  0  0  0  0  0  0
   45.2100   37.2760   42.8440 H   0  0  0  0  0  0  0  0  0  0  0  0
   47.1280   34.0250   39.8180 C   0  0  0  0  0  0  0  0  0  0  0  0
   46.1020   33.6520   39.5990 H   0  0  0  0  0  0  0  0  0  0  0  0
   47.1590   35.0650   39.4190 H   0  0  0  0  0  0  0  0  0  0  0  0
   48.1560   33.4980   37.7800 C   0  0  0  0  0  0  0  0  0  0  0  0
   48.1650   33.2380   39.1570 C   0  0  0  0  0  0  0  0  0  0  0  0
   49.1030   32.3370   39.6090 C   0  0  0  0  0  0  0  0  0  0  0  0
   49.0480   32.1910   40.6660 H   0  0  0  0  0  0  0  0  0  0  0  0
   49.9950   31.7140   38.7690 C   0  0  0  0  0  0  0  0  0  0  0  0
   49.9760   31.9810   37.4020 C   0  0  0  0  0  0  0  0  0  0  0  0
   49.0510   32.8740   36.9280 C   0  0  0  0  0  0  0  0  0  0  0  0
   47.3040   34.3690   37.0930 O   0  0  0  0  0  0  0  0  0  0  0  0
   47.4230   35.3580   37.2990 H   0  0  0  0  0  0  0  0  0  0  0  0
   49.1160   33.0710   35.5560 O   0  0  0  0  0  0  0  0  0  0  0  0
   48.6070   33.8930   35.2030 H   0  0  0  0  0  0  0  0  0  0  0  0
  1  4  1  6  0  0  0
  1 10  1  0  0  0  0
  2  1  1  0  0  0  0
  2  5  1  0  0  0  0
  3  7  1  1  0  0  0
  3  2  1  0  0  0  0
  3  1  1  0  0  0  0
  6  2  1  0  0  0  0
  8 14  1  0  0  0  0
  8 13  1  0  0  0  0
  9  8  2  0  0  0  0
 10  9  1  0  0  0  0
 10 11  2  0  0  0  0
 11 12  1  0  0  0  0
 12 15  1  0  0  0  0
 12 13  2  0  0  0  0
 16 17  1  0  0  0  0
 16  9  1  0  0  0  0
 18 16  1  0  0  0  0
 19  3  1  0  0  0  0
 20 19  1  0  0  0  0
 21 19  1  0  0  0  0
 22 23  1  0  0  0  0
 23 24  2  0  0  0  0
 23 19  1  0  0  0  0
 24 25  1  0  0  0  0
 26 24  1  0  0  0  0
 27 26  2  0  0  0  0
 28 27  1  0  0  0  0
 28 22  2  0  0  0  0
 29 30  1  0  0  0  0
 29 22  1  0  0  0  0
 31 28  1  0  0  0  0
 32 31  1  0  0  0  0
M  END
>  <minimizedAffinity>
-5.91873455

>  <minimizedRMSD>
1.00785923

$$$$
