
 OpenBabel03242513443D

 48 51  0  0  0  0  0  0  0  0999 V2000
   47.6960   31.0080   45.9900 C   0  0  0  0  0  0  0  0  0  0  0  0
   46.9800   32.0680   45.5220 C   0  0  0  0  0  0  0  0  0  0  0  0
   45.9900   32.5840   46.3250 C   0  0  0  0  0  0  0  0  0  0  0  0
   45.6910   32.0840   47.5710 C   0  0  0  0  0  0  0  0  0  0  0  0
   44.8170   32.3470   48.5690 N   0  0  0  0  0  0  0  0  0  0  0  0
   45.0080   31.4720   49.5970 C   0  0  0  0  0  0  0  0  0  0  0  0
   46.0130   30.6640   49.2190 N   0  0  0  0  0  0  0  0  0  0  0  0
   46.4310   31.0220   48.0020 C   0  0  0  0  0  0  0  0  0  0  0  0
   47.4290   30.4610   47.2540 C   0  0  0  0  0  0  0  0  0  0  0  0
   48.5010   30.5310   45.4260 H   0  0  0  0  0  0  0  0  0  0  0  0
   45.3910   33.4350   45.9880 H   0  0  0  0  0  0  0  0  0  0  0  0
   44.1210   33.1200   48.5070 H   0  0  0  0  0  0  0  0  0  0  0  0
   44.4370   31.4620   50.5310 H   0  0  0  0  0  0  0  0  0  0  0  0
   47.1970   34.4110   42.7240 C   0  0  0  0  0  0  0  0  0  0  0  0
   47.8080   33.6400   41.7180 C   0  0  0  0  0  0  0  0  0  0  0  0
   48.1280   32.3150   42.0500 C   0  0  0  0  0  0  0  0  0  0  0  0
   47.8450   31.8410   43.2910 N   0  0  0  0  0  0  0  0  0  0  0  0
   47.2610   32.6310   44.2050 C   0  0  0  0  0  0  0  0  0  0  0  0
   46.9330   33.9010   43.9470 N   0  0  0  0  0  0  0  0  0  0  0  0
   46.9300   35.4430   42.5110 H   0  0  0  0  0  0  0  0  0  0  0  0
   48.6010   31.7130   41.2740 H   0  0  0  0  0  0  0  0  0  0  0  0
   48.0690   34.2630   40.4010 C   0  0  0  0  0  0  0  0  0  0  0  0
   48.5620   35.5300   40.7040 F   0  0  0  0  0  0  0  0  0  0  0  0
   46.8760   34.4090   39.7490 F   0  0  0  0  0  0  0  0  0  0  0  0
   48.9760   33.4880   39.7090 F   0  0  0  0  0  0  0  0  0  0  0  0
   48.1580   29.3790   47.7350 O   0  0  0  0  0  0  0  0  0  0  0  0
   49.7910   28.0560   49.2590 O   0  0  0  0  0  0  0  0  0  0  0  0
   49.4440   29.4620   48.8120 P   0  0  2  0  0  0  0  0  0  0  0  0
   48.8780   30.2840   50.1970 O   0  0  0  0  0  0  0  0  0  0  0  0
   48.2360   29.7090   50.6790 H   0  0  0  0  0  0  0  0  0  0  0  0
   50.7930   30.2360   48.2090 O   0  0  0  0  0  0  0  0  0  0  0  0
   51.9640   29.9830   48.8720 C   0  0  0  0  0  0  0  0  0  0  0  0
   52.8000   29.6140   48.2870 H   0  0  0  0  0  0  0  0  0  0  0  0
   51.7320   29.1620   49.6110 H   0  0  0  0  0  0  0  0  0  0  0  0
   52.2970   31.2550   49.6750 C   0  0  0  0  0  0  0  0  0  0  0  0
   51.3490   31.8440   49.7550 H   0  0  0  0  0  0  0  0  0  0  0  0
   53.0660   31.8610   49.2060 H   0  0  0  0  0  0  0  0  0  0  0  0
   51.8280   31.0700   52.0250 C   0  0  0  0  0  0  0  0  0  0  0  0
   52.7740   30.8330   51.0230 C   0  0  0  0  0  0  0  0  0  0  0  0
   54.0010   30.2750   51.3090 C   0  0  0  0  0  0  0  0  0  0  0  0
   54.6800   30.1250   50.4680 H   0  0  0  0  0  0  0  0  0  0  0  0
   54.3090   29.9370   52.6310 C   0  0  0  0  0  3  0  0  0  0  0  0
   53.3670   30.1730   53.6250 C   0  0  0  0  0  3  0  0  0  0  0  0
   52.1400   30.7300   53.3430 C   0  0  0  0  0  0  0  0  0  0  0  0
   50.5680   31.6160   51.8930 O   0  0  0  0  0  0  0  0  0  0  0  0
   50.1080   31.9030   51.0630 H   0  0  0  0  0  0  0  0  0  0  0  0
   51.2510   30.9330   54.4170 O   0  0  0  0  0  0  0  0  0  0  0  0
   50.3390   31.3680   54.2480 H   0  0  0  0  0  0  0  0  0  0  0  0
  1  9  1  0  0  0  0
  2  1  2  0  0  0  0
  2  3  1  0  0  0  0
  3  4  2  0  0  0  0
  4  8  1  0  0  0  0
  4  5  1  0  0  0  0
  5  6  1  0  0  0  0
  6 13  1  0  0  0  0
  7  6  2  0  0  0  0
  8  7  1  0  0  0  0
  9 26  1  0  0  0  0
  9  8  2  0  0  0  0
 10  1  1  0  0  0  0
 11  3  1  0  0  0  0
 12  5  1  0  0  0  0
 14 19  1  0  0  0  0
 15 16  1  0  0  0  0
 15 14  2  0  0  0  0
 16 17  2  0  0  0  0
 17 18  1  0  0  0  0
 18  2  1  0  0  0  0
 19 18  2  0  0  0  0
 20 14  1  0  0  0  0
 21 16  1  0  0  0  0
 22 23  1  0  0  0  0
 22 15  1  0  0  0  0
 24 22  1  0  0  0  0
 25 22  1  0  0  0  0
 26 28  1  0  0  0  0
 28 27  2  1  0  0  0
 28 29  1  0  0  0  0
 29 30  1  0  0  0  0
 31 28  1  0  0  0  0
 31 32  1  0  0  0  0
 32 34  1  0  0  0  0
 32 35  1  0  0  0  0
 33 32  1  0  0  0  0
 35 36  1  0  0  0  0
 35 39  1  0  0  0  0
 37 35  1  0  0  0  0
 38 44  1  0  0  0  0
 39 40  1  0  0  0  0
 39 38  2  0  0  0  0
 40 42  2  0  0  0  0
 41 40  1  0  0  0  0
 42 43  1  0  0  0  0
 44 43  2  0  0  0  0
 44 47  1  0  0  0  0
 45 38  1  0  0  0  0
 46 45  1  0  0  0  0
 48 47  1  0  0  0  0
M  END
>  <minimizedAffinity>
-6.64040518

>  <minimizedRMSD>
1.18842876

$$$$
