
 OpenBabel03252506343D

 35 37  0  0  1  0  0  0  0  0999 V2000
   44.4350   35.7380   44.9880 C   0  0  0  0  0  0  0  0  0  0  0  0
   45.1030   35.7390   43.7430 C   0  0  0  0  0  0  0  0  0  0  0  0
   46.0430   34.7850   43.4930 C   0  0  0  0  0  0  0  0  0  0  0  0
   46.2830   33.8790   44.4760 N   0  0  0  0  0  0  0  0  0  0  0  0
   45.6540   33.8830   45.6410 C   0  0  0  0  0  0  0  0  0  0  0  0
   44.7210   34.8120   45.9150 N   0  0  0  0  0  0  0  0  0  0  0  0
   45.9860   32.8900   46.5940 N   0  0  0  0  0  0  0  0  0  0  0  0
   45.1850   32.5490   47.7680 C   0  0  0  0  0  0  0  0  0  0  0  0
   46.2730   32.2960   48.8130 C   0  0  0  0  0  0  0  0  0  0  0  0
   47.5760   32.2280   48.0870 C   0  0  0  0  0  0  0  0  0  0  0  0
   47.1310   32.0130   46.6490 C   0  0  1  0  0  0  0  0  0  0  0  0
   43.6830   36.4880   45.2060 H   0  0  0  0  0  0  0  0  0  0  0  0
   46.5510   34.7910   42.5380 H   0  0  0  0  0  0  0  0  0  0  0  0
   44.6980   31.5900   47.5340 H   0  0  0  0  0  0  0  0  0  0  0  0
   44.4990   33.3410   48.0670 H   0  0  0  0  0  0  0  0  0  0  0  0
   46.0050   31.3630   49.3710 H   0  0  0  0  0  0  0  0  0  0  0  0
   46.2720   33.1250   49.5500 H   0  0  0  0  0  0  0  0  0  0  0  0
   48.2820   31.4900   48.4540 H   0  0  0  0  0  0  0  0  0  0  0  0
   48.0590   33.2480   48.1090 H   0  0  0  0  0  0  0  0  0  0  0  0
   47.9630   32.3540   46.0130 H   0  0  0  0  0  0  0  0  0  0  0  0
   44.7230   36.7730   42.8160 N   0  0  0  0  0  0  0  0  0  0  0  0
   45.5970   37.3590   42.7530 H   0  0  0  0  0  0  0  0  0  0  0  0
   43.7700   36.8010   42.3900 H   0  0  0  0  0  0  0  0  0  0  0  0
   46.6910   30.2910   46.4000 S   0  0  0  0  0  0  0  0  0  0  0  0
   49.1690   29.0880   45.5810 C   0  0  0  0  0  0  0  0  0  0  0  0
   48.1400   29.2550   46.4760 C   0  0  0  0  0  0  0  0  0  0  0  0
   48.1660   28.5260   47.6720 C   0  0  0  0  0  0  0  0  0  0  0  0
   47.4270   28.5430   48.4840 H   0  0  0  0  0  0  0  0  0  0  0  0
   49.2170   27.6460   47.9500 C   0  0  0  0  0  3  0  0  0  0  0  0
   50.2370   27.4980   47.0350 C   0  0  0  0  0  3  0  0  0  0  0  0
   50.1900   28.2300   45.8580 C   0  0  0  0  0  0  0  0  0  0  0  0
   49.0170   29.8650   44.4510 O   0  0  0  0  0  0  0  0  0  0  0  0
   49.1640   29.4630   43.5190 H   0  0  0  0  0  0  0  0  0  0  0  0
   51.1580   28.1780   44.8390 O   0  0  0  0  0  0  0  0  0  0  0  0
   52.0600   27.7580   44.9980 H   0  0  0  0  0  0  0  0  0  0  0  0
  1 12  1  0  0  0  0
  1  6  1  0  0  0  0
  2  1  2  0  0  0  0
  3  2  1  0  0  0  0
  3  4  2  0  0  0  0
  4  5  1  0  0  0  0
  5  6  2  0  0  0  0
  5  7  1  0  0  0  0
  7 11  1  0  0  0  0
  7  8  1  0  0  0  0
  8 15  1  0  0  0  0
  8  9  1  0  0  0  0
  9 16  1  0  0  0  0
  9 17  1  0  0  0  0
 10 19  1  0  0  0  0
 10 18  1  0  0  0  0
 10  9  1  0  0  0  0
 11 20  1  6  0  0  0
 11 10  1  0  0  0  0
 13  3  1  0  0  0  0
 14  8  1  0  0  0  0
 21  2  1  0  0  0  0
 22 21  1  0  0  0  0
 23 21  1  0  0  0  0
 24 26  1  0  0  0  0
 24 11  1  0  0  0  0
 25 31  2  0  0  0  0
 25 26  1  0  0  0  0
 26 27  2  0  0  0  0
 27 29  1  0  0  0  0
 27 28  1  0  0  0  0
 30 29  2  0  0  0  0
 31 30  1  0  0  0  0
 32 25  1  0  0  0  0
 33 32  1  0  0  0  0
 34 35  1  0  0  0  0
 34 31  1  0  0  0  0
M  END
>  <minimizedAffinity>
-5.16662836

>  <minimizedRMSD>
0.386016846

$$$$
