
 OpenBabel03252506343D

 35 37  0  0  1  0  0  0  0  0999 V2000
   44.4350   35.7380   44.9870 C   0  0  0  0  0  0  0  0  0  0  0  0
   45.1030   35.7380   43.7420 C   0  0  0  0  0  0  0  0  0  0  0  0
   46.0440   34.7850   43.4920 C   0  0  0  0  0  0  0  0  0  0  0  0
   46.2830   33.8790   44.4760 N   0  0  0  0  0  0  0  0  0  0  0  0
   45.6540   33.8840   45.6410 C   0  0  0  0  0  0  0  0  0  0  0  0
   44.7210   34.8120   45.9140 N   0  0  0  0  0  0  0  0  0  0  0  0
   45.9860   32.8900   46.5940 N   0  0  0  0  0  0  0  0  0  0  0  0
   45.1850   32.5490   47.7680 C   0  0  0  0  0  0  0  0  0  0  0  0
   46.2720   32.2960   48.8130 C   0  0  0  0  0  0  0  0  0  0  0  0
   47.5750   32.2290   48.0880 C   0  0  0  0  0  0  0  0  0  0  0  0
   47.1310   32.0140   46.6500 C   0  0  1  0  0  0  0  0  0  0  0  0
   43.6830   36.4880   45.2040 H   0  0  0  0  0  0  0  0  0  0  0  0
   46.5520   34.7910   42.5380 H   0  0  0  0  0  0  0  0  0  0  0  0
   44.6980   31.5900   47.5340 H   0  0  0  0  0  0  0  0  0  0  0  0
   44.4990   33.3420   48.0660 H   0  0  0  0  0  0  0  0  0  0  0  0
   46.0050   31.3640   49.3710 H   0  0  0  0  0  0  0  0  0  0  0  0
   46.2700   33.1250   49.5500 H   0  0  0  0  0  0  0  0  0  0  0  0
   48.2810   31.4910   48.4560 H   0  0  0  0  0  0  0  0  0  0  0  0
   48.0580   33.2490   48.1100 H   0  0  0  0  0  0  0  0  0  0  0  0
   47.9630   32.3540   46.0140 H   0  0  0  0  0  0  0  0  0  0  0  0
   44.7240   36.7720   42.8140 N   0  0  0  0  0  0  0  0  0  0  0  0
   45.5980   37.3590   42.7520 H   0  0  0  0  0  0  0  0  0  0  0  0
   43.7710   36.8000   42.3880 H   0  0  0  0  0  0  0  0  0  0  0  0
   46.6920   30.2910   46.4010 S   0  0  0  0  0  0  0  0  0  0  0  0
   49.1700   29.0900   45.5800 C   0  0  0  0  0  0  0  0  0  0  0  0
   48.1400   29.2550   46.4760 C   0  0  0  0  0  0  0  0  0  0  0  0
   48.1670   28.5260   47.6720 C   0  0  0  0  0  0  0  0  0  0  0  0
   47.4300   28.5430   48.4840 H   0  0  0  0  0  0  0  0  0  0  0  0
   49.2200   27.6470   47.9500 C   0  0  0  0  0  3  0  0  0  0  0  0
   50.2390   27.4990   47.0330 C   0  0  0  0  0  3  0  0  0  0  0  0
   50.1910   28.2330   45.8560 C   0  0  0  0  0  0  0  0  0  0  0  0
   49.0160   29.8680   44.4510 O   0  0  0  0  0  0  0  0  0  0  0  0
   49.1630   29.4650   43.5190 H   0  0  0  0  0  0  0  0  0  0  0  0
   51.1590   28.1810   44.8370 O   0  0  0  0  0  0  0  0  0  0  0  0
   52.0610   27.7610   44.9950 H   0  0  0  0  0  0  0  0  0  0  0  0
  1 12  1  0  0  0  0
  1  6  1  0  0  0  0
  2  1  2  0  0  0  0
  3  2  1  0  0  0  0
  3  4  2  0  0  0  0
  4  5  1  0  0  0  0
  5  6  2  0  0  0  0
  5  7  1  0  0  0  0
  7 11  1  0  0  0  0
  7  8  1  0  0  0  0
  8 15  1  0  0  0  0
  8  9  1  0  0  0  0
  9 16  1  0  0  0  0
  9 17  1  0  0  0  0
 10 19  1  0  0  0  0
 10 18  1  0  0  0  0
 10  9  1  0  0  0  0
 11 20  1  6  0  0  0
 11 10  1  0  0  0  0
 13  3  1  0  0  0  0
 14  8  1  0  0  0  0
 21  2  1  0  0  0  0
 22 21  1  0  0  0  0
 23 21  1  0  0  0  0
 24 26  1  0  0  0  0
 24 11  1  0  0  0  0
 25 31  2  0  0  0  0
 25 26  1  0  0  0  0
 26 27  2  0  0  0  0
 27 29  1  0  0  0  0
 27 28  1  0  0  0  0
 30 29  2  0  0  0  0
 31 30  1  0  0  0  0
 32 25  1  0  0  0  0
 33 32  1  0  0  0  0
 34 35  1  0  0  0  0
 34 31  1  0  0  0  0
M  END
>  <minimizedAffinity>
-5.16655684

>  <minimizedRMSD>
0.289563864

$$$$
