
 OpenBabel03242522513D

 28 29  0  0  0  0  0  0  0  0999 V2000
   45.2240   30.6550   47.6770 O   0  0  0  0  0  0  0  0  0  0  0  0
   45.7820   31.9120   48.3980 P   0  0  2  0  0  0  0  0  0  0  0  0
   45.1870   31.8260   49.9680 O   0  0  0  0  0  0  0  0  0  0  0  0
   45.9250   31.8740   50.6260 H   0  0  0  0  0  0  0  0  0  0  0  0
   45.1550   33.2650   47.6050 O   0  0  0  0  0  0  0  0  0  0  0  0
   47.0230   33.1560   44.4880 C   0  0  0  0  0  0  0  0  0  0  0  0
   46.5880   32.8560   45.8020 C   0  0  0  0  0  0  0  0  0  0  0  0
   45.5480   33.5890   46.3230 C   0  0  0  0  0  0  0  0  0  0  0  0
   44.9990   34.5530   45.5570 N   0  0  0  0  0  0  0  0  0  0  0  0
   45.4050   34.8390   44.3170 C   0  0  0  0  0  0  0  0  0  0  0  0
   46.4190   34.1430   43.7780 N   0  0  0  0  0  0  0  0  0  0  0  0
   47.8340   32.6350   43.9930 H   0  0  0  0  0  0  0  0  0  0  0  0
   47.1520   32.0650   46.2240 H   0  0  0  0  0  0  0  0  0  0  0  0
   44.8810   35.6420   43.7980 H   0  0  0  0  0  0  0  0  0  0  0  0
   47.4360   31.8780   48.3530 O   0  0  0  0  0  0  0  0  0  0  0  0
   48.3470   30.9190   48.6010 C   0  0  0  0  0  0  0  0  0  0  0  0
   48.7850   30.9640   49.8460 O   0  0  0  0  0  0  0  0  0  0  0  0
   50.4640   29.7230   48.1640 C   0  0  0  0  0  0  0  0  0  0  0  0
   49.1240   29.7600   48.0400 C   0  0  0  0  0  0  0  0  0  0  0  0
   48.5080   28.6970   47.3590 C   0  0  0  0  0  0  0  0  0  0  0  0
   47.4110   28.8150   47.3090 H   0  0  0  0  0  0  0  0  0  0  0  0
   49.1170   27.6080   46.7970 C   0  0  0  0  0  3  0  0  0  0  0  0
   50.4600   27.6340   46.9570 C   0  0  0  0  0  3  0  0  0  0  0  0
   51.1390   28.6250   47.6030 C   0  0  0  0  0  0  0  0  0  0  0  0
   51.2820   30.6500   48.7880 O   0  0  0  0  0  0  0  0  0  0  0  0
   52.0350   30.4150   49.4220 H   0  0  0  0  0  0  0  0  0  0  0  0
   52.5200   28.5560   47.7140 O   0  0  0  0  0  0  0  0  0  0  0  0
   53.0510   29.4080   47.5610 H   0  0  0  0  0  0  0  0  0  0  0  0
  2  1  2  6  0  0  0
  2  3  1  0  0  0  0
  3  4  1  0  0  0  0
  5  2  1  0  0  0  0
  6  7  1  0  0  0  0
  7 13  1  0  0  0  0
  7  8  2  0  0  0  0
  8  5  1  0  0  0  0
  9  8  1  0  0  0  0
 10  9  2  0  0  0  0
 11 10  1  0  0  0  0
 11  6  2  0  0  0  0
 12  6  1  0  0  0  0
 14 10  1  0  0  0  0
 15  2  1  0  0  0  0
 15 16  1  0  0  0  0
 16 17  2  0  0  0  0
 18 25  1  0  0  0  0
 19 18  1  0  0  0  0
 19 16  1  0  0  0  0
 20 19  2  0  0  0  0
 21 20  1  0  0  0  0
 22 23  2  0  0  0  0
 22 20  1  0  0  0  0
 23 24  1  0  0  0  0
 24 27  1  0  0  0  0
 24 18  2  0  0  0  0
 25 26  1  0  0  0  0
 28 27  1  0  0  0  0
M  END
>  <minimizedAffinity>
-4.59060717

>  <minimizedRMSD>
0.721282125

$$$$
