
 OpenBabel03252509273D

 32 34  0  0  1  0  0  0  0  0999 V2000
   47.1900   35.2490   41.7500 C   0  0  1  0  0  0  0  0  0  0  0  0
   48.7040   35.5890   41.8740 C   0  0  0  0  0  0  0  0  0  0  0  0
   48.0840   34.4900   40.9740 C   0  0  2  0  0  0  0  0  0  0  0  0
   46.5930   36.0840   41.3460 H   0  0  0  0  0  0  0  0  0  0  0  0
   49.2370   35.2930   42.7780 H   0  0  0  0  0  0  0  0  0  0  0  0
   49.0040   36.5190   41.3780 H   0  0  0  0  0  0  0  0  0  0  0  0
   48.4570   33.4670   41.2850 H   0  0  0  0  0  0  0  0  0  0  0  0
   45.1190   34.6170   44.8110 C   0  0  0  0  0  0  0  0  0  0  0  0
   45.5620   35.2530   43.6170 C   0  0  0  0  0  0  0  0  0  0  0  0
   46.6610   34.6980   43.0520 C   0  0  0  0  0  0  0  0  0  0  0  0
   47.2960   33.6000   43.6050 N   0  0  0  0  0  0  0  0  0  0  0  0
   46.8320   33.0340   44.7420 C   0  0  0  0  0  0  0  0  0  0  0  0
   45.7360   33.5480   45.3460 N   0  0  0  0  0  0  0  0  0  0  0  0
   44.2460   35.0260   45.2900 H   0  0  0  0  0  0  0  0  0  0  0  0
   47.4350   32.1880   45.0450 H   0  0  0  0  0  0  0  0  0  0  0  0
   44.9280   36.3850   43.0700 N   0  0  0  0  0  0  0  0  0  0  0  0
   43.8770   36.4190   43.0980 H   0  0  0  0  0  0  0  0  0  0  0  0
   45.5330   37.1490   42.6580 H   0  0  0  0  0  0  0  0  0  0  0  0
   48.1490   34.6560   39.4780 C   0  0  0  0  0  0  0  0  0  0  0  0
   47.2210   35.2040   39.1950 H   0  0  0  0  0  0  0  0  0  0  0  0
   48.9880   35.3540   39.2490 H   0  0  0  0  0  0  0  0  0  0  0  0
   48.0770   33.6750   37.3520 C   0  0  0  0  0  0  0  0  0  0  0  0
   48.3350   33.4300   38.7070 C   0  0  0  0  0  0  0  0  0  0  0  0
   48.7020   32.1450   39.0440 C   0  0  0  0  0  0  0  0  0  0  0  0
   48.8820   32.0380   40.0910 H   0  0  0  0  0  0  0  0  0  0  0  0
   48.8130   31.1420   38.1120 C   0  0  0  0  0  3  0  0  0  0  0  0
   48.5540   31.3980   36.7680 C   0  0  0  0  0  3  0  0  0  0  0  0
   48.1870   32.6670   36.4090 C   0  0  0  0  0  0  0  0  0  0  0  0
   47.6920   34.8900   36.7740 O   0  0  0  0  0  0  0  0  0  0  0  0
   48.3910   35.6290   36.7940 H   0  0  0  0  0  0  0  0  0  0  0  0
   47.9510   32.8190   35.0500 O   0  0  0  0  0  0  0  0  0  0  0  0
   47.9050   33.7910   34.7140 H   0  0  0  0  0  0  0  0  0  0  0  0
  1  4  1  6  0  0  0
  1  2  1  0  0  0  0
  1 10  1  0  0  0  0
  2  5  1  0  0  0  0
  3  7  1  1  0  0  0
  3  1  1  0  0  0  0
  3  2  1  0  0  0  0
  6  2  1  0  0  0  0
  8 14  1  0  0  0  0
  8 13  1  0  0  0  0
  9  8  2  0  0  0  0
 10 11  2  0  0  0  0
 10  9  1  0  0  0  0
 11 12  1  0  0  0  0
 12 15  1  0  0  0  0
 12 13  2  0  0  0  0
 16 17  1  0  0  0  0
 16  9  1  0  0  0  0
 18 16  1  0  0  0  0
 19  3  1  0  0  0  0
 20 19  1  0  0  0  0
 21 19  1  0  0  0  0
 22 23  1  0  0  0  0
 23 24  2  0  0  0  0
 23 19  1  0  0  0  0
 24 25  1  0  0  0  0
 26 24  1  0  0  0  0
 27 26  2  0  0  0  0
 28 27  1  0  0  0  0
 28 22  2  0  0  0  0
 29 30  1  0  0  0  0
 29 22  1  0  0  0  0
 31 28  1  0  0  0  0
 32 31  1  0  0  0  0
M  END
>  <minimizedAffinity>
-5.720397

>  <minimizedRMSD>
2.09133625

$$$$
