
 OpenBabel03252506343D

 35 37  0  0  1  0  0  0  0  0999 V2000
   44.4180   35.7020   44.9790 C   0  0  0  0  0  0  0  0  0  0  0  0
   45.1110   35.7260   43.7480 C   0  0  0  0  0  0  0  0  0  0  0  0
   46.0830   34.8000   43.5150 C   0  0  0  0  0  0  0  0  0  0  0  0
   46.3270   33.8970   44.4990 N   0  0  0  0  0  0  0  0  0  0  0  0
   45.6740   33.8790   45.6510 C   0  0  0  0  0  0  0  0  0  0  0  0
   44.7100   34.7810   45.9090 N   0  0  0  0  0  0  0  0  0  0  0  0
   46.0130   32.8910   46.6070 N   0  0  0  0  0  0  0  0  0  0  0  0
   45.1980   32.5230   47.7630 C   0  0  0  0  0  0  0  0  0  0  0  0
   46.2700   32.2960   48.8300 C   0  0  0  0  0  0  0  0  0  0  0  0
   47.5890   32.2680   48.1310 C   0  0  0  0  0  0  0  0  0  0  0  0
   47.1800   32.0460   46.6840 C   0  0  1  0  0  0  0  0  0  0  0  0
   43.6410   36.4310   45.1830 H   0  0  0  0  0  0  0  0  0  0  0  0
   46.6100   34.8240   42.5710 H   0  0  0  0  0  0  0  0  0  0  0  0
   44.7420   31.5520   47.5150 H   0  0  0  0  0  0  0  0  0  0  0  0
   44.4840   33.2960   48.0500 H   0  0  0  0  0  0  0  0  0  0  0  0
   46.0160   31.3540   49.3780 H   0  0  0  0  0  0  0  0  0  0  0  0
   46.2300   33.1220   49.5700 H   0  0  0  0  0  0  0  0  0  0  0  0
   48.3070   31.5470   48.5110 H   0  0  0  0  0  0  0  0  0  0  0  0
   48.0430   33.3000   48.1670 H   0  0  0  0  0  0  0  0  0  0  0  0
   48.0160   32.4120   46.0670 H   0  0  0  0  0  0  0  0  0  0  0  0
   44.7230   36.7530   42.8170 N   0  0  0  0  0  0  0  0  0  0  0  0
   45.5820   37.3640   42.7740 H   0  0  0  0  0  0  0  0  0  0  0  0
   43.7780   36.7570   42.3710 H   0  0  0  0  0  0  0  0  0  0  0  0
   46.7940   30.3140   46.4190 S   0  0  0  0  0  0  0  0  0  0  0  0
   48.8800   29.4520   44.6410 C   0  0  0  0  0  0  0  0  0  0  0  0
   48.2340   29.4270   45.8540 C   0  0  0  0  0  0  0  0  0  0  0  0
   48.7330   28.5970   46.8640 C   0  0  0  0  0  0  0  0  0  0  0  0
   48.3380   28.4630   47.8800 H   0  0  0  0  0  0  0  0  0  0  0  0
   49.8680   27.8070   46.6450 C   0  0  0  0  0  3  0  0  0  0  0  0
   50.4960   27.8500   45.4200 C   0  0  0  0  0  3  0  0  0  0  0  0
   49.9830   28.6810   44.4340 C   0  0  0  0  0  0  0  0  0  0  0  0
   48.2830   30.3110   43.7420 O   0  0  0  0  0  0  0  0  0  0  0  0
   48.1090   30.0140   42.7770 H   0  0  0  0  0  0  0  0  0  0  0  0
   50.5210   28.8230   43.1420 O   0  0  0  0  0  0  0  0  0  0  0  0
   51.4440   28.4850   42.9210 H   0  0  0  0  0  0  0  0  0  0  0  0
  1 12  1  0  0  0  0
  1  6  1  0  0  0  0
  2  1  2  0  0  0  0
  3  2  1  0  0  0  0
  3  4  2  0  0  0  0
  4  5  1  0  0  0  0
  5  6  2  0  0  0  0
  5  7  1  0  0  0  0
  7 11  1  0  0  0  0
  7  8  1  0  0  0  0
  8 15  1  0  0  0  0
  8  9  1  0  0  0  0
  9 16  1  0  0  0  0
  9 17  1  0  0  0  0
 10 19  1  0  0  0  0
 10 18  1  0  0  0  0
 10  9  1  0  0  0  0
 11 20  1  6  0  0  0
 11 10  1  0  0  0  0
 13  3  1  0  0  0  0
 14  8  1  0  0  0  0
 21  2  1  0  0  0  0
 22 21  1  0  0  0  0
 23 21  1  0  0  0  0
 24 11  1  0  0  0  0
 25 26  1  0  0  0  0
 26 24  1  0  0  0  0
 26 27  2  0  0  0  0
 27 28  1  0  0  0  0
 29 27  1  0  0  0  0
 30 29  2  0  0  0  0
 31 25  2  0  0  0  0
 31 30  1  0  0  0  0
 32 25  1  0  0  0  0
 33 32  1  0  0  0  0
 34 31  1  0  0  0  0
 35 34  1  0  0  0  0
M  END
>  <minimizedAffinity>
-5.0525403

>  <minimizedRMSD>
1.4552418

$$$$
