
 OpenBabel03242516413D

 34 35  0  0  0  0  0  0  0  0999 V2000
   49.1800   33.6460   42.7920 C   0  0  0  0  0  0  0  0  0  0  0  0
   49.3980   34.0100   43.8160 H   0  0  0  0  0  0  0  0  0  0  0  0
   49.9650   34.1030   42.1510 H   0  0  0  0  0  0  0  0  0  0  0  0
   47.8520   34.1240   42.2860 C   0  0  0  0  0  0  0  0  0  0  0  0
   47.5210   33.4750   41.4670 H   0  0  0  0  0  0  0  0  0  0  0  0
   47.9570   35.1690   41.8720 H   0  0  0  0  0  0  0  0  0  0  0  0
   44.8690   35.0910   44.3640 C   0  0  0  0  0  0  0  0  0  0  0  0
   45.7890   35.0270   43.2810 C   0  0  0  0  0  0  0  0  0  0  0  0
   46.8940   34.1920   43.4110 C   0  0  0  0  0  0  0  0  0  0  0  0
   47.0470   33.4840   44.5480 N   0  0  0  0  0  0  0  0  0  0  0  0
   46.1490   33.5710   45.5600 C   0  0  0  0  0  0  0  0  0  0  0  0
   45.0690   34.3670   45.4680 N   0  0  0  0  0  0  0  0  0  0  0  0
   43.7390   35.9260   44.2620 N   0  0  0  0  0  0  0  0  0  0  0  0
   45.6410   35.6050   42.3790 H   0  0  0  0  0  0  0  0  0  0  0  0
   46.2750   33.0000   46.4730 H   0  0  0  0  0  0  0  0  0  0  0  0
   43.2090   36.2050   45.0920 H   0  0  0  0  0  0  0  0  0  0  0  0
   43.4450   36.2630   43.3090 H   0  0  0  0  0  0  0  0  0  0  0  0
   49.2590   32.2780   42.6810 O   0  0  0  0  0  0  0  0  0  0  0  0
   51.5010   31.1020   43.3530 O   0  0  0  0  0  0  0  0  0  0  0  0
   50.8050   31.7690   42.1970 P   0  0  2  0  0  0  0  0  0  0  0  0
   51.6220   33.1260   41.6370 O   0  0  0  0  0  0  0  0  0  0  0  0
   51.7100   33.1800   40.6720 H   0  0  0  0  0  0  0  0  0  0  0  0
   50.6350   30.7100   40.8780 O   0  0  0  0  0  0  0  0  0  0  0  0
   52.5310   30.9310   39.5880 C   0  0  0  0  0  0  0  0  0  0  0  0
   51.1320   30.9320   39.6160 C   0  0  0  0  0  0  0  0  0  0  0  0
   50.4630   31.1460   38.4260 C   0  0  0  0  0  0  0  0  0  0  0  0
   49.3880   31.1300   38.5360 H   0  0  0  0  0  0  0  0  0  0  0  0
   51.1670   31.3500   37.2550 C   0  0  0  0  0  3  0  0  0  0  0  0
   52.5460   31.3490   37.2300 C   0  0  0  0  0  3  0  0  0  0  0  0
   53.2180   31.1390   38.4020 C   0  0  0  0  0  0  0  0  0  0  0  0
   53.3410   30.7300   40.7100 O   0  0  0  0  0  0  0  0  0  0  0  0
   52.8620   30.7330   41.6130 H   0  0  0  0  0  0  0  0  0  0  0  0
   54.6170   31.1420   38.3550 O   0  0  0  0  0  0  0  0  0  0  0  0
   55.1450   30.4980   38.9520 H   0  0  0  0  0  0  0  0  0  0  0  0
  1  2  1  0  0  0  0
  3  1  1  0  0  0  0
  4  1  1  0  0  0  0
  4  9  1  0  0  0  0
  5  4  1  0  0  0  0
  6  4  1  0  0  0  0
  7 12  1  0  0  0  0
  8  9  1  0  0  0  0
  8  7  2  0  0  0  0
  9 10  2  0  0  0  0
 10 11  1  0  0  0  0
 11 15  1  0  0  0  0
 12 11  2  0  0  0  0
 13  7  1  0  0  0  0
 13 16  1  0  0  0  0
 14  8  1  0  0  0  0
 17 13  1  0  0  0  0
 18  1  1  0  0  0  0
 20 18  1  0  0  0  0
 20 19  2  1  0  0  0
 21 20  1  0  0  0  0
 22 21  1  0  0  0  0
 23 20  1  0  0  0  0
 24 25  1  0  0  0  0
 24 31  1  0  0  0  0
 25 23  1  0  0  0  0
 26 27  1  0  0  0  0
 26 25  2  0  0  0  0
 28 26  1  0  0  0  0
 29 28  2  0  0  0  0
 29 30  1  0  0  0  0
 30 24  2  0  0  0  0
 31 32  1  0  0  0  0
 33 30  1  0  0  0  0
 33 34  1  0  0  0  0
M  END
>  <minimizedAffinity>
-4.63653564

>  <minimizedRMSD>
1.21138287

$$$$
