
 OpenBabel03242516413D

 34 35  0  0  0  0  0  0  0  0999 V2000
   48.8220   34.0690   42.6040 C   0  0  0  0  0  0  0  0  0  0  0  0
   48.1350   33.4500   43.2150 H   0  0  0  0  0  0  0  0  0  0  0  0
   49.5010   34.5560   43.3370 H   0  0  0  0  0  0  0  0  0  0  0  0
   48.1040   35.1580   41.8640 C   0  0  0  0  0  0  0  0  0  0  0  0
   48.4090   35.1440   40.8120 H   0  0  0  0  0  0  0  0  0  0  0  0
   48.3940   36.1620   42.2900 H   0  0  0  0  0  0  0  0  0  0  0  0
   44.4990   34.3020   41.2090 C   0  0  0  0  0  0  0  0  0  0  0  0
   45.9010   34.4510   41.0210 C   0  0  0  0  0  0  0  0  0  0  0  0
   46.6450   35.0030   42.0590 C   0  0  0  0  0  0  0  0  0  0  0  0
   46.0130   35.3720   43.1900 N   0  0  0  0  0  0  0  0  0  0  0  0
   44.6740   35.2150   43.3340 C   0  0  0  0  0  0  0  0  0  0  0  0
   43.9240   34.6850   42.3530 N   0  0  0  0  0  0  0  0  0  0  0  0
   43.7180   33.7460   40.1780 N   0  0  0  0  0  0  0  0  0  0  0  0
   46.3830   34.1450   40.1020 H   0  0  0  0  0  0  0  0  0  0  0  0
   44.1690   35.5130   44.2460 H   0  0  0  0  0  0  0  0  0  0  0  0
   42.7020   33.8630   40.1590 H   0  0  0  0  0  0  0  0  0  0  0  0
   44.2020   33.2010   39.4170 H   0  0  0  0  0  0  0  0  0  0  0  0
   49.5760   33.3260   41.7280 O   0  0  0  0  0  0  0  0  0  0  0  0
   47.8220   31.5980   40.8370 O   0  0  0  0  0  0  0  0  0  0  0  0
   49.0700   31.7070   41.6710 P   0  0  2  0  0  0  0  0  0  0  0  0
   48.8430   31.2010   43.2570 O   0  0  0  0  0  0  0  0  0  0  0  0
   49.5370   30.6170   43.6030 H   0  0  0  0  0  0  0  0  0  0  0  0
   50.3340   30.7690   41.0260 O   0  0  0  0  0  0  0  0  0  0  0  0
   51.9320   31.4780   39.5260 C   0  0  0  0  0  0  0  0  0  0  0  0
   50.7350   30.7780   39.7120 C   0  0  0  0  0  0  0  0  0  0  0  0
   50.1380   30.2130   38.6000 C   0  0  0  0  0  0  0  0  0  0  0  0
   49.2190   29.6920   38.8330 H   0  0  0  0  0  0  0  0  0  0  0  0
   50.7180   30.3430   37.3540 C   0  0  0  0  0  3  0  0  0  0  0  0
   51.8980   31.0340   37.1720 C   0  0  0  0  0  3  0  0  0  0  0  0
   52.4970   31.5960   38.2650 C   0  0  0  0  0  0  0  0  0  0  0  0
   52.6480   32.1000   40.5520 O   0  0  0  0  0  0  0  0  0  0  0  0
   52.1730   32.1610   41.4550 H   0  0  0  0  0  0  0  0  0  0  0  0
   53.6940   32.2920   38.0610 O   0  0  0  0  0  0  0  0  0  0  0  0
   54.4340   32.2470   38.7660 H   0  0  0  0  0  0  0  0  0  0  0  0
  1  2  1  0  0  0  0
  1  3  1  0  0  0  0
  4  9  1  0  0  0  0
  4  6  1  0  0  0  0
  4  1  1  0  0  0  0
  5  4  1  0  0  0  0
  7 12  1  0  0  0  0
  8  7  2  0  0  0  0
  8  9  1  0  0  0  0
  9 10  2  0  0  0  0
 10 11  1  0  0  0  0
 11 15  1  0  0  0  0
 12 11  2  0  0  0  0
 13  7  1  0  0  0  0
 14  8  1  0  0  0  0
 16 13  1  0  0  0  0
 17 13  1  0  0  0  0
 18  1  1  0  0  0  0
 20 19  2  6  0  0  0
 20 18  1  0  0  0  0
 20 21  1  0  0  0  0
 21 22  1  0  0  0  0
 23 20  1  0  0  0  0
 24 25  1  0  0  0  0
 24 31  1  0  0  0  0
 25 23  1  0  0  0  0
 26 27  1  0  0  0  0
 26 25  2  0  0  0  0
 28 26  1  0  0  0  0
 29 28  2  0  0  0  0
 29 30  1  0  0  0  0
 30 24  2  0  0  0  0
 31 32  1  0  0  0  0
 33 30  1  0  0  0  0
 33 34  1  0  0  0  0
M  END
>  <minimizedAffinity>
-4.42422915

>  <minimizedRMSD>
2.93333292

$$$$
