
 OpenBabel03242517263D

 37 39  0  0  1  0  0  0  0  0999 V2000
   45.3400   33.7710   44.1170 C   0  0  0  0  0  0  0  0  0  0  0  0
   46.4660   33.6560   43.2410 C   0  0  0  0  0  0  0  0  0  0  0  0
   47.5750   32.9230   43.7030 C   0  0  0  0  0  0  0  0  0  0  0  0
   47.4970   32.3840   44.9290 N   0  0  0  0  0  0  0  0  0  0  0  0
   46.4430   32.4950   45.7440 C   0  0  0  0  0  0  0  0  0  0  0  0
   45.3690   33.1900   45.3280 N   0  0  0  0  0  0  0  0  0  0  0  0
   46.4760   31.8930   46.9940 N   0  0  0  0  0  0  0  0  0  0  0  0
   47.4950   32.2470   47.9400 C   0  0  0  0  0  0  0  0  0  0  0  0
   47.6560   31.2940   49.0810 C   0  0  0  0  0  0  0  0  0  0  0  0
   46.4730   30.6080   49.4990 N   0  0  0  0  0  0  0  0  0  0  0  0
   45.2860   31.0460   48.8340 C   0  0  0  0  0  0  0  0  0  0  0  0
   45.4890   30.9030   47.3630 C   0  0  2  0  0  0  0  0  0  0  0  0
   44.4940   34.3430   43.7380 H   0  0  0  0  0  0  0  0  0  0  0  0
   46.4300   34.1310   42.2640 H   0  0  0  0  0  0  0  0  0  0  0  0
   48.4350   32.8260   43.0470 H   0  0  0  0  0  0  0  0  0  0  0  0
   47.3150   33.2870   48.3360 H   0  0  0  0  0  0  0  0  0  0  0  0
   48.4740   32.3220   47.4160 H   0  0  0  0  0  0  0  0  0  0  0  0
   48.4180   30.5170   48.8250 H   0  0  0  0  0  0  0  0  0  0  0  0
   48.0600   31.8570   49.9490 H   0  0  0  0  0  0  0  0  0  0  0  0
   46.3710   30.4680   50.5260 H   0  0  0  0  0  0  0  0  0  0  0  0
   45.1020   32.1250   49.0460 H   0  0  0  0  0  0  0  0  0  0  0  0
   44.4320   30.4320   49.1570 H   0  0  0  0  0  0  0  0  0  0  0  0
   44.5280   31.2210   46.8650 H   0  0  0  0  0  0  0  0  0  0  0  0
   45.8590   29.5150   46.9750 C   0  0  0  0  0  0  0  0  0  0  0  0
   46.5850   29.6130   46.1130 H   0  0  0  0  0  0  0  0  0  0  0  0
   46.5180   29.1210   47.7990 H   0  0  0  0  0  0  0  0  0  0  0  0
   44.7250   27.4800   47.5080 C   0  0  0  0  0  0  0  0  0  0  0  0
   44.7580   28.6070   46.6750 C   0  0  0  0  0  0  0  0  0  0  0  0
   43.7730   28.7200   45.6940 C   0  0  0  0  0  0  0  0  0  0  0  0
   43.8580   29.5980   45.0950 H   0  0  0  0  0  0  0  0  0  0  0  0
   42.7960   27.7390   45.5580 C   0  0  0  0  0  0  0  0  0  0  0  0
   42.7770   26.6280   46.3920 C   0  0  0  0  0  0  0  0  0  0  0  0
   43.7420   26.4920   47.3720 C   0  0  0  0  0  0  0  0  0  0  0  0
   45.6550   27.2530   48.5260 O   0  0  0  0  0  0  0  0  0  0  0  0
   46.6160   27.0780   48.2640 H   0  0  0  0  0  0  0  0  0  0  0  0
   43.7270   25.3850   48.2070 O   0  0  0  0  0  0  0  0  0  0  0  0
   42.9280   24.9290   48.5750 H   0  0  0  0  0  0  0  0  0  0  0  0
  1  6  1  0  0  0  0
  2  3  1  0  0  0  0
  2  1  2  0  0  0  0
  3  4  2  0  0  0  0
  4  5  1  0  0  0  0
  5  7  1  0  0  0  0
  6  5  2  0  0  0  0
  7 12  1  0  0  0  0
  7  8  1  0  0  0  0
  8 16  1  0  0  0  0
  8  9  1  0  0  0  0
  9 10  1  0  0  0  0
  9 19  1  0  0  0  0
 10 20  1  0  0  0  0
 11 21  1  0  0  0  0
 11 22  1  0  0  0  0
 11 10  1  0  0  0  0
 12 23  1  6  0  0  0
 12 11  1  0  0  0  0
 13  1  1  0  0  0  0
 14  2  1  0  0  0  0
 15  3  1  0  0  0  0
 17  8  1  0  0  0  0
 18  9  1  0  0  0  0
 24 12  1  0  0  0  0
 24 26  1  0  0  0  0
 25 24  1  0  0  0  0
 27 34  1  0  0  0  0
 28 24  1  0  0  0  0
 28 27  2  0  0  0  0
 29 28  1  0  0  0  0
 30 29  1  0  0  0  0
 31 29  2  0  0  0  0
 31 32  1  0  0  0  0
 32 33  2  0  0  0  0
 33 27  1  0  0  0  0
 33 36  1  0  0  0  0
 35 34  1  0  0  0  0
 36 37  1  0  0  0  0
M  END
>  <minimizedAffinity>
-5.50786495

>  <minimizedRMSD>
2.38637042

$$$$
