
 OpenBabel03242514333D

 28 29  0  0  0  0  0  0  0  0999 V2000
   49.3920   35.3840   42.8800 O   0  0  0  0  0  0  0  0  0  0  0  0
   48.9180   34.2000   42.0930 P   0  0  1  0  0  0  0  0  0  0  0  0
   50.2020   33.1270   41.9600 O   0  0  0  0  0  0  0  0  0  0  0  0
   51.0480   33.6430   41.9560 H   0  0  0  0  0  0  0  0  0  0  0  0
   47.5920   33.4610   42.8840 O   0  0  0  0  0  0  0  0  0  0  0  0
   46.0780   35.3050   42.7510 C   0  0  0  0  0  0  0  0  0  0  0  0
   46.5850   34.2330   43.4660 C   0  0  0  0  0  0  0  0  0  0  0  0
   46.0650   33.9760   44.7360 C   0  0  0  0  0  0  0  0  0  0  0  0
   45.0830   34.7960   45.2050 N   0  0  0  0  0  0  0  0  0  0  0  0
   44.6150   35.8220   44.4900 C   0  0  0  0  0  0  0  0  0  0  0  0
   45.1130   36.0660   43.2780 N   0  0  0  0  0  0  0  0  0  0  0  0
   46.4340   35.5680   41.7550 H   0  0  0  0  0  0  0  0  0  0  0  0
   46.4710   33.1270   45.2930 H   0  0  0  0  0  0  0  0  0  0  0  0
   43.8410   36.3650   45.0130 H   0  0  0  0  0  0  0  0  0  0  0  0
   48.4670   34.7090   40.5690 O   0  0  0  0  0  0  0  0  0  0  0  0
   47.9960   33.9500   39.5610 C   0  0  0  0  0  0  0  0  0  0  0  0
   46.7140   33.7900   39.6480 O   0  0  0  0  0  0  0  0  0  0  0  0
   49.2600   32.1320   38.4320 C   0  0  0  0  0  0  0  0  0  0  0  0
   48.4710   33.2240   38.3460 C   0  0  0  0  0  0  0  0  0  0  0  0
   48.0740   33.7060   37.0940 C   0  0  0  0  0  0  0  0  0  0  0  0
   47.4300   34.5980   37.0470 H   0  0  0  0  0  0  0  0  0  0  0  0
   48.4360   33.1340   35.9050 C   0  0  0  0  0  3  0  0  0  0  0  0
   49.2370   32.0230   35.9690 C   0  0  0  0  0  3  0  0  0  0  0  0
   49.6230   31.5570   37.2070 C   0  0  0  0  0  0  0  0  0  0  0  0
   49.6930   31.5980   39.6270 O   0  0  0  0  0  0  0  0  0  0  0  0
   49.0360   31.0990   40.2410 H   0  0  0  0  0  0  0  0  0  0  0  0
   50.4450   30.4200   37.3110 O   0  0  0  0  0  0  0  0  0  0  0  0
   50.2040   29.7290   38.0110 H   0  0  0  0  0  0  0  0  0  0  0  0
  2  1  2  1  0  0  0
  2  5  1  0  0  0  0
  3  2  1  0  0  0  0
  4  3  1  0  0  0  0
  5  7  1  0  0  0  0
  6 11  2  0  0  0  0
  6  7  1  0  0  0  0
  7  8  2  0  0  0  0
  8  9  1  0  0  0  0
  8 13  1  0  0  0  0
 10 14  1  0  0  0  0
 10  9  2  0  0  0  0
 11 10  1  0  0  0  0
 12  6  1  0  0  0  0
 15  2  1  0  0  0  0
 16 17  2  0  0  0  0
 16 15  1  0  0  0  0
 18 25  1  0  0  0  0
 19 18  1  0  0  0  0
 19 16  1  0  0  0  0
 20 19  2  0  0  0  0
 21 20  1  0  0  0  0
 22 23  2  0  0  0  0
 22 20  1  0  0  0  0
 23 24  1  0  0  0  0
 24 27  1  0  0  0  0
 24 18  2  0  0  0  0
 25 26  1  0  0  0  0
 27 28  1  0  0  0  0
M  END
>  <minimizedAffinity>
-4.5451026

>  <minimizedRMSD>
1.13527536

$$$$
