
 OpenBabel03252507163D

 31 33  0  0  0  0  0  0  0  0999 V2000
   45.2920   36.1470   43.3070 C   0  0  0  0  0  0  0  0  0  0  0  0
   45.9160   34.9070   43.0220 C   0  0  0  0  0  0  0  0  0  0  0  0
   45.8610   33.9190   44.0050 C   0  0  0  0  0  0  0  0  0  0  0  0
   45.2320   34.1660   45.1650 N   0  0  0  0  0  0  0  0  0  0  0  0
   44.6350   35.3740   45.4150 C   0  0  0  0  0  0  0  0  0  0  0  0
   44.6780   36.3330   44.4850 N   0  0  0  0  0  0  0  0  0  0  0  0
   45.3160   36.9340   42.5660 H   0  0  0  0  0  0  0  0  0  0  0  0
   44.1750   35.4030   46.3950 H   0  0  0  0  0  0  0  0  0  0  0  0
   46.4980   32.6460   43.7230 C   0  0  0  0  0  0  0  0  0  0  0  0
   45.7230   31.5240   43.4920 C   0  0  0  0  0  0  0  0  0  0  0  0
   46.3560   30.3340   43.2290 C   0  0  0  0  0  0  0  0  0  0  0  0
   47.7310   30.1880   43.1790 C   0  0  0  0  0  0  0  0  0  0  0  0
   48.4530   31.3510   43.4180 C   0  0  0  0  0  0  0  0  0  0  0  0
   47.8240   32.5170   43.6780 N   0  0  0  0  0  0  0  0  0  0  0  0
   44.6580   31.5240   43.5070 H   0  0  0  0  0  0  0  0  0  0  0  0
   45.7890   29.4230   43.0400 H   0  0  0  0  0  0  0  0  0  0  0  0
   48.2860   29.3040   42.9810 H   0  0  0  0  0  0  0  0  0  0  0  0
   49.5390   31.3870   43.4120 H   0  0  0  0  0  0  0  0  0  0  0  0
   46.5630   34.7190   41.7730 C   0  0  0  0  0  0  0  0  0  0  0  0
   47.6590   35.3020   41.5750 O   0  0  0  0  0  0  0  0  0  0  0  0
   44.7620   34.1270   40.1640 C   0  0  0  0  0  0  0  0  0  0  0  0
   45.9970   33.8790   40.7230 C   0  0  0  0  0  0  0  0  0  0  0  0
   46.6940   32.7900   40.2470 C   0  0  0  0  0  0  0  0  0  0  0  0
   47.6600   32.6100   40.6940 H   0  0  0  0  0  0  0  0  0  0  0  0
   46.2310   31.9590   39.2690 C   0  0  0  0  0  3  0  0  0  0  0  0
   44.9800   32.2300   38.7190 C   0  0  0  0  0  3  0  0  0  0  0  0
   44.2670   33.3050   39.1730 C   0  0  0  0  0  0  0  0  0  0  0  0
   44.0090   35.2280   40.6140 O   0  0  0  0  0  0  0  0  0  0  0  0
   43.0230   35.1770   40.8090 H   0  0  0  0  0  0  0  0  0  0  0  0
   43.0160   33.6050   38.6490 O   0  0  0  0  0  0  0  0  0  0  0  0
   42.8590   33.7170   37.6530 H   0  0  0  0  0  0  0  0  0  0  0  0
  1  6  1  0  0  0  0
  2  1  2  0  0  0  0
  2  3  1  0  0  0  0
  3  4  2  0  0  0  0
  4  5  1  0  0  0  0
  5  8  1  0  0  0  0
  6  5  2  0  0  0  0
  7  1  1  0  0  0  0
  9  3  1  0  0  0  0
 10 15  1  0  0  0  0
 10  9  2  0  0  0  0
 11 10  1  0  0  0  0
 12 11  2  0  0  0  0
 12 13  1  0  0  0  0
 13 14  2  0  0  0  0
 14  9  1  0  0  0  0
 16 11  1  0  0  0  0
 17 12  1  0  0  0  0
 18 13  1  0  0  0  0
 19  2  1  0  0  0  0
 20 19  2  0  0  0  0
 21 28  1  0  0  0  0
 21 22  1  0  0  0  0
 22 19  1  0  0  0  0
 23 24  1  0  0  0  0
 23 22  2  0  0  0  0
 25 23  1  0  0  0  0
 26 27  1  0  0  0  0
 26 25  2  0  0  0  0
 27 21  2  0  0  0  0
 28 29  1  0  0  0  0
 30 27  1  0  0  0  0
 31 30  1  0  0  0  0
M  END
>  <minimizedAffinity>
-4.77766371

>  <minimizedRMSD>
0.431180298

$$$$
