
 OpenBabel03252509273D

 32 34  0  0  1  0  0  0  0  0999 V2000
   46.8160   35.1400   41.8950 C   0  0  1  0  0  0  0  0  0  0  0  0
   48.3170   35.5460   41.9700 C   0  0  0  0  0  0  0  0  0  0  0  0
   47.7460   34.2830   41.2780 C   0  0  2  0  0  0  0  0  0  0  0  0
   46.2000   35.8680   41.3390 H   0  0  0  0  0  0  0  0  0  0  0  0
   48.8450   35.4370   42.9170 H   0  0  0  0  0  0  0  0  0  0  0  0
   48.5970   36.3800   41.3160 H   0  0  0  0  0  0  0  0  0  0  0  0
   48.1450   33.3460   41.7740 H   0  0  0  0  0  0  0  0  0  0  0  0
   44.8230   35.1360   45.0700 C   0  0  0  0  0  0  0  0  0  0  0  0
   45.2850   35.5660   43.7940 C   0  0  0  0  0  0  0  0  0  0  0  0
   46.2850   34.8170   43.2700 C   0  0  0  0  0  0  0  0  0  0  0  0
   46.8080   33.7230   43.9350 N   0  0  0  0  0  0  0  0  0  0  0  0
   46.3310   33.3570   45.1460 C   0  0  0  0  0  0  0  0  0  0  0  0
   45.3320   34.0700   45.7140 N   0  0  0  0  0  0  0  0  0  0  0  0
   44.0270   35.7040   45.5210 H   0  0  0  0  0  0  0  0  0  0  0  0
   46.8420   32.4860   45.5330 H   0  0  0  0  0  0  0  0  0  0  0  0
   44.7660   36.6950   43.1310 N   0  0  0  0  0  0  0  0  0  0  0  0
   43.7280   36.8610   43.1860 H   0  0  0  0  0  0  0  0  0  0  0  0
   45.4390   37.3240   42.6100 H   0  0  0  0  0  0  0  0  0  0  0  0
   47.8290   34.1770   39.7780 C   0  0  0  0  0  0  0  0  0  0  0  0
   46.8150   34.4420   39.4000 H   0  0  0  0  0  0  0  0  0  0  0  0
   48.5020   34.9890   39.4170 H   0  0  0  0  0  0  0  0  0  0  0  0
   48.9400   33.1000   38.0180 C   0  0  0  0  0  0  0  0  0  0  0  0
   48.3080   32.9020   39.2530 C   0  0  0  0  0  0  0  0  0  0  0  0
   48.2620   31.6060   39.7220 C   0  0  0  0  0  0  0  0  0  0  0  0
   47.7660   31.5370   40.6660 H   0  0  0  0  0  0  0  0  0  0  0  0
   48.8020   30.5510   39.0290 C   0  0  0  0  0  3  0  0  0  0  0  0
   49.4280   30.7600   37.8030 C   0  0  0  0  0  3  0  0  0  0  0  0
   49.4860   32.0390   37.3160 C   0  0  0  0  0  0  0  0  0  0  0  0
   49.1090   34.3150   37.3440 O   0  0  0  0  0  0  0  0  0  0  0  0
   49.7320   34.9840   37.7910 H   0  0  0  0  0  0  0  0  0  0  0  0
   50.1280   32.1430   36.0890 O   0  0  0  0  0  0  0  0  0  0  0  0
   50.3950   33.0960   35.8080 H   0  0  0  0  0  0  0  0  0  0  0  0
  1  4  1  6  0  0  0
  1  2  1  0  0  0  0
  1 10  1  0  0  0  0
  2  5  1  0  0  0  0
  3  7  1  1  0  0  0
  3  1  1  0  0  0  0
  3  2  1  0  0  0  0
  6  2  1  0  0  0  0
  8 14  1  0  0  0  0
  8 13  1  0  0  0  0
  9  8  2  0  0  0  0
 10  9  1  0  0  0  0
 10 11  2  0  0  0  0
 11 12  1  0  0  0  0
 12 15  1  0  0  0  0
 12 13  2  0  0  0  0
 16 17  1  0  0  0  0
 16  9  1  0  0  0  0
 18 16  1  0  0  0  0
 19  3  1  0  0  0  0
 20 19  1  0  0  0  0
 21 19  1  0  0  0  0
 22 23  1  0  0  0  0
 23 24  2  0  0  0  0
 23 19  1  0  0  0  0
 24 25  1  0  0  0  0
 26 24  1  0  0  0  0
 27 26  2  0  0  0  0
 28 27  1  0  0  0  0
 28 22  2  0  0  0  0
 29 30  1  0  0  0  0
 29 22  1  0  0  0  0
 31 28  1  0  0  0  0
 32 31  1  0  0  0  0
M  END
>  <minimizedAffinity>
-5.37016821

>  <minimizedRMSD>
0.588653564

$$$$
