
 OpenBabel03242514343D

 28 29  0  0  0  0  0  0  0  0999 V2000
   36.5360   31.0890   38.7840 O   0  0  0  0  0  0  0  0  0  0  0  0
   37.2030   31.5220   40.0550 P   0  0  1  0  0  0  0  0  0  0  0  0
   36.9420   33.1710   40.2340 O   0  0  0  0  0  0  0  0  0  0  0  0
   36.8760   33.5810   39.3340 H   0  0  0  0  0  0  0  0  0  0  0  0
   36.5550   30.6590   41.3830 O   0  0  0  0  0  0  0  0  0  0  0  0
   36.8130   28.2940   41.1710 C   0  0  0  0  0  0  0  0  0  0  0  0
   37.1420   29.4720   41.8210 C   0  0  0  0  0  0  0  0  0  0  0  0
   38.0450   29.4130   42.8850 C   0  0  0  0  0  0  0  0  0  0  0  0
   38.5560   28.1970   43.2260 N   0  0  0  0  0  0  0  0  0  0  0  0
   38.2190   27.0790   42.5780 C   0  0  0  0  0  0  0  0  0  0  0  0
   37.3560   27.1370   41.5630 N   0  0  0  0  0  0  0  0  0  0  0  0
   36.1160   28.2600   40.3340 H   0  0  0  0  0  0  0  0  0  0  0  0
   38.2990   30.3470   43.3920 H   0  0  0  0  0  0  0  0  0  0  0  0
   38.7160   26.2080   42.9790 H   0  0  0  0  0  0  0  0  0  0  0  0
   38.8420   31.2360   39.9290 O   0  0  0  0  0  0  0  0  0  0  0  0
   39.8450   32.0560   40.3010 C   0  0  0  0  0  0  0  0  0  0  0  0
   39.8120   32.2980   41.5730 O   0  0  0  0  0  0  0  0  0  0  0  0
   41.0830   33.0830   38.4060 C   0  0  0  0  0  0  0  0  0  0  0  0
   41.0100   32.7870   39.7200 C   0  0  0  0  0  0  0  0  0  0  0  0
   42.0440   33.1680   40.5850 C   0  0  0  0  0  0  0  0  0  0  0  0
   41.9640   32.9160   41.6530 H   0  0  0  0  0  0  0  0  0  0  0  0
   43.1630   33.8420   40.1840 C   0  0  0  0  0  3  0  0  0  0  0  0
   43.2590   34.1530   38.8520 C   0  0  0  0  0  3  0  0  0  0  0  0
   42.2360   33.7740   38.0090 C   0  0  0  0  0  0  0  0  0  0  0  0
   40.1060   32.7420   37.4940 O   0  0  0  0  0  0  0  0  0  0  0  0
   39.2030   33.2320   37.4940 H   0  0  0  0  0  0  0  0  0  0  0  0
   42.2980   34.0760   36.6380 O   0  0  0  0  0  0  0  0  0  0  0  0
   41.4600   34.4310   36.1950 H   0  0  0  0  0  0  0  0  0  0  0  0
  2  1  2  6  0  0  0
  2  3  1  0  0  0  0
  2  5  1  0  0  0  0
  4  3  1  0  0  0  0
  5  7  1  0  0  0  0
  6 11  2  0  0  0  0
  6  7  1  0  0  0  0
  7  8  2  0  0  0  0
  8  9  1  0  0  0  0
  8 13  1  0  0  0  0
 10 14  1  0  0  0  0
 10  9  2  0  0  0  0
 11 10  1  0  0  0  0
 12  6  1  0  0  0  0
 15  2  1  0  0  0  0
 15 16  1  0  0  0  0
 16 17  2  0  0  0  0
 18 19  1  0  0  0  0
 19 16  1  0  0  0  0
 19 20  2  0  0  0  0
 20 21  1  0  0  0  0
 22 20  1  0  0  0  0
 23 22  2  0  0  0  0
 24 18  2  0  0  0  0
 24 23  1  0  0  0  0
 25 18  1  0  0  0  0
 26 25  1  0  0  0  0
 27 24  1  0  0  0  0
 28 27  1  0  0  0  0
M  END
>  <minimizedAffinity>
-5.7313571

$$$$

 OpenBabel03242514343D

 28 29  0  0  0  0  0  0  0  0999 V2000
   36.9500   25.5380   42.5070 O   0  0  0  0  0  0  0  0  0  0  0  0
   37.1140   27.0150   42.3180 P   0  0  1  0  0  0  0  0  0  0  0  0
   36.1120   27.7860   43.4230 O   0  0  0  0  0  0  0  0  0  0  0  0
   35.3210   27.2120   43.5890 H   0  0  0  0  0  0  0  0  0  0  0  0
   38.7470   27.4620   42.5690 O   0  0  0  0  0  0  0  0  0  0  0  0
   38.9820   29.8340   42.7350 C   0  0  0  0  0  0  0  0  0  0  0  0
   39.2490   28.6580   42.0540 C   0  0  0  0  0  0  0  0  0  0  0  0
   40.0080   28.7270   40.8830 C   0  0  0  0  0  0  0  0  0  0  0  0
   40.4460   29.9500   40.4730 N   0  0  0  0  0  0  0  0  0  0  0  0
   40.1710   31.0660   41.1540 C   0  0  0  0  0  0  0  0  0  0  0  0
   39.4470   30.9980   42.2710 N   0  0  0  0  0  0  0  0  0  0  0  0
   38.3980   29.8600   43.6550 H   0  0  0  0  0  0  0  0  0  0  0  0
   40.2140   27.7940   40.3520 H   0  0  0  0  0  0  0  0  0  0  0  0
   40.5950   31.9430   40.6880 H   0  0  0  0  0  0  0  0  0  0  0  0
   36.6390   27.4190   40.7710 O   0  0  0  0  0  0  0  0  0  0  0  0
   36.1930   28.6150   40.3390 C   0  0  0  0  0  0  0  0  0  0  0  0
   34.9310   28.7660   40.5840 O   0  0  0  0  0  0  0  0  0  0  0  0
   36.4880   31.0780   40.1920 C   0  0  0  0  0  0  0  0  0  0  0  0
   36.6860   29.8520   39.6650 C   0  0  0  0  0  0  0  0  0  0  0  0
   37.3720   29.7120   38.4520 C   0  0  0  0  0  0  0  0  0  0  0  0
   37.5220   28.7020   38.0400 H   0  0  0  0  0  0  0  0  0  0  0  0
   37.8760   30.7600   37.7350 C   0  0  0  0  0  3  0  0  0  0  0  0
   37.6860   32.0150   38.2520 C   0  0  0  0  0  3  0  0  0  0  0  0
   37.0100   32.1440   39.4460 C   0  0  0  0  0  0  0  0  0  0  0  0
   35.8230   31.2970   41.3810 O   0  0  0  0  0  0  0  0  0  0  0  0
   36.2640   31.0480   42.2750 H   0  0  0  0  0  0  0  0  0  0  0  0
   36.7960   33.4150   40.0080 O   0  0  0  0  0  0  0  0  0  0  0  0
   36.9530   33.5230   41.0020 H   0  0  0  0  0  0  0  0  0  0  0  0
  2  1  2  1  0  0  0
  2  5  1  0  0  0  0
  2  3  1  0  0  0  0
  3  4  1  0  0  0  0
  6 12  1  0  0  0  0
  7  5  1  0  0  0  0
  7  6  2  0  0  0  0
  8  7  1  0  0  0  0
  9  8  2  0  0  0  0
  9 10  1  0  0  0  0
 10 11  2  0  0  0  0
 11  6  1  0  0  0  0
 13  8  1  0  0  0  0
 14 10  1  0  0  0  0
 15  2  1  0  0  0  0
 16 17  2  0  0  0  0
 16 15  1  0  0  0  0
 18 25  1  0  0  0  0
 19 18  1  0  0  0  0
 19 16  1  0  0  0  0
 20 19  2  0  0  0  0
 21 20  1  0  0  0  0
 22 23  2  0  0  0  0
 22 20  1  0  0  0  0
 23 24  1  0  0  0  0
 24 27  1  0  0  0  0
 24 18  2  0  0  0  0
 25 26  1  0  0  0  0
 27 28  1  0  0  0  0
M  END
>  <minimizedAffinity>
-5.687572

$$$$

 OpenBabel03242514343D

 28 29  0  0  0  0  0  0  0  0999 V2000
   36.1230   27.3660   43.6790 O   0  0  0  0  0  0  0  0  0  0  0  0
   37.3050   27.5510   42.7770 P   0  0  1  0  0  0  0  0  0  0  0  0
   38.0490   28.9960   43.1980 O   0  0  0  0  0  0  0  0  0  0  0  0
   37.3600   29.6200   43.5420 H   0  0  0  0  0  0  0  0  0  0  0  0
   38.3900   26.2390   42.9510 O   0  0  0  0  0  0  0  0  0  0  0  0
   37.5890   24.2060   41.9830 C   0  0  0  0  0  0  0  0  0  0  0  0
   38.4900   25.2580   41.9630 C   0  0  0  0  0  0  0  0  0  0  0  0
   39.4580   25.2840   40.9560 C   0  0  0  0  0  0  0  0  0  0  0  0
   39.4620   24.2720   40.0440 N   0  0  0  0  0  0  0  0  0  0  0  0
   38.5780   23.2720   40.0910 C   0  0  0  0  0  0  0  0  0  0  0  0
   37.6560   23.2480   41.0530 N   0  0  0  0  0  0  0  0  0  0  0  0
   36.8070   24.1170   42.7370 H   0  0  0  0  0  0  0  0  0  0  0  0
   40.1640   26.1180   40.9480 H   0  0  0  0  0  0  0  0  0  0  0  0
   38.7260   22.5580   39.2940 H   0  0  0  0  0  0  0  0  0  0  0  0
   36.7700   27.6490   41.1990 O   0  0  0  0  0  0  0  0  0  0  0  0
   36.2800   28.7350   40.5690 C   0  0  0  0  0  0  0  0  0  0  0  0
   34.9870   28.7790   40.6390 O   0  0  0  0  0  0  0  0  0  0  0  0
   36.5220   31.1870   40.2510 C   0  0  0  0  0  0  0  0  0  0  0  0
   36.7440   29.9320   39.8090 C   0  0  0  0  0  0  0  0  0  0  0  0
   37.4280   29.7220   38.6050 C   0  0  0  0  0  0  0  0  0  0  0  0
   37.5980   28.6900   38.2630 H   0  0  0  0  0  0  0  0  0  0  0  0
   37.9070   30.7290   37.8150 C   0  0  0  0  0  3  0  0  0  0  0  0
   37.6930   32.0130   38.2450 C   0  0  0  0  0  3  0  0  0  0  0  0
   37.0190   32.2100   39.4300 C   0  0  0  0  0  0  0  0  0  0  0  0
   35.8560   31.4750   41.4250 O   0  0  0  0  0  0  0  0  0  0  0  0
   36.3050   31.2970   42.3320 H   0  0  0  0  0  0  0  0  0  0  0  0
   36.7800   33.5120   39.9040 O   0  0  0  0  0  0  0  0  0  0  0  0
   36.9380   33.6910   40.8870 H   0  0  0  0  0  0  0  0  0  0  0  0
  2  5  1  0  0  0  0
  2  3  1  0  0  0  0
  2  1  2  1  0  0  0
  3  4  1  0  0  0  0
  6 12  1  0  0  0  0
  7  6  1  0  0  0  0
  7  5  1  0  0  0  0
  8  7  2  0  0  0  0
  9 10  2  0  0  0  0
  9  8  1  0  0  0  0
 10 11  1  0  0  0  0
 11  6  2  0  0  0  0
 13  8  1  0  0  0  0
 14 10  1  0  0  0  0
 15  2  1  0  0  0  0
 16 17  2  0  0  0  0
 16 15  1  0  0  0  0
 18 25  1  0  0  0  0
 19 18  1  0  0  0  0
 19 16  1  0  0  0  0
 20 19  2  0  0  0  0
 21 20  1  0  0  0  0
 22 23  2  0  0  0  0
 22 20  1  0  0  0  0
 23 24  1  0  0  0  0
 24 27  1  0  0  0  0
 24 18  2  0  0  0  0
 25 26  1  0  0  0  0
 27 28  1  0  0  0  0
M  END
>  <minimizedAffinity>
-5.65106249

$$$$

 OpenBabel03242514343D

 28 29  0  0  0  0  0  0  0  0999 V2000
   35.7280   28.9740   41.2120 O   0  0  0  0  0  0  0  0  0  0  0  0
   36.8240   28.4280   42.0780 P   0  0  1  0  0  0  0  0  0  0  0  0
   36.1100   27.7450   43.4350 O   0  0  0  0  0  0  0  0  0  0  0  0
   35.2730   28.2380   43.6370 H   0  0  0  0  0  0  0  0  0  0  0  0
   37.7280   27.2580   41.2170 O   0  0  0  0  0  0  0  0  0  0  0  0
   38.5350   25.0140   41.3550 C   0  0  0  0  0  0  0  0  0  0  0  0
   38.4720   26.2900   41.8910 C   0  0  0  0  0  0  0  0  0  0  0  0
   39.1560   26.5440   43.0820 C   0  0  0  0  0  0  0  0  0  0  0  0
   39.8510   25.5210   43.6540 N   0  0  0  0  0  0  0  0  0  0  0  0
   39.8920   24.3020   43.1110 C   0  0  0  0  0  0  0  0  0  0  0  0
   39.2380   24.0610   41.9750 N   0  0  0  0  0  0  0  0  0  0  0  0
   38.0280   24.7400   40.4300 H   0  0  0  0  0  0  0  0  0  0  0  0
   39.1010   27.5540   43.4970 H   0  0  0  0  0  0  0  0  0  0  0  0
   40.4870   23.6140   43.6950 H   0  0  0  0  0  0  0  0  0  0  0  0
   37.8130   29.6850   42.5530 O   0  0  0  0  0  0  0  0  0  0  0  0
   38.6770   30.3790   41.7860 C   0  0  0  0  0  0  0  0  0  0  0  0
   39.7570   29.7020   41.5590 O   0  0  0  0  0  0  0  0  0  0  0  0
   37.7350   32.3030   40.5260 C   0  0  0  0  0  0  0  0  0  0  0  0
   38.7990   31.6940   41.0900 C   0  0  0  0  0  0  0  0  0  0  0  0
   40.0630   32.2940   41.0360 C   0  0  0  0  0  0  0  0  0  0  0  0
   40.9170   31.7790   41.5020 H   0  0  0  0  0  0  0  0  0  0  0  0
   40.3120   33.4950   40.4330 C   0  0  0  0  0  3  0  0  0  0  0  0
   39.2450   34.1320   39.8520 C   0  0  0  0  0  3  0  0  0  0  0  0
   38.0050   33.5340   39.9110 C   0  0  0  0  0  0  0  0  0  0  0  0
   36.4610   31.7760   40.5390 O   0  0  0  0  0  0  0  0  0  0  0  0
   35.9150   31.7590   41.4090 H   0  0  0  0  0  0  0  0  0  0  0  0
   36.8880   34.1570   39.3280 O   0  0  0  0  0  0  0  0  0  0  0  0
   36.0250   34.1670   39.8570 H   0  0  0  0  0  0  0  0  0  0  0  0
  2  1  2  6  0  0  0
  2 15  1  0  0  0  0
  2  3  1  0  0  0  0
  3  4  1  0  0  0  0
  5  7  1  0  0  0  0
  5  2  1  0  0  0  0
  6  7  2  0  0  0  0
  6 11  1  0  0  0  0
  7  8  1  0  0  0  0
  8 13  1  0  0  0  0
  8  9  2  0  0  0  0
 10  9  1  0  0  0  0
 10 14  1  0  0  0  0
 11 10  2  0  0  0  0
 12  6  1  0  0  0  0
 16 15  1  0  0  0  0
 17 16  2  0  0  0  0
 18 25  1  0  0  0  0
 18 19  1  0  0  0  0
 19 16  1  0  0  0  0
 20 19  2  0  0  0  0
 20 21  1  0  0  0  0
 22 20  1  0  0  0  0
 23 24  1  0  0  0  0
 23 22  2  0  0  0  0
 24 18  2  0  0  0  0
 25 26  1  0  0  0  0
 27 28  1  0  0  0  0
 27 24  1  0  0  0  0
M  END
>  <minimizedAffinity>
-5.52238703

$$$$

 OpenBabel03242514343D

 28 29  0  0  0  0  0  0  0  0999 V2000
   36.6890   27.0890   43.2540 O   0  0  0  0  0  0  0  0  0  0  0  0
   36.9890   28.1260   42.2140 P   0  0  1  0  0  0  0  0  0  0  0  0
   37.0950   29.6120   42.9890 O   0  0  0  0  0  0  0  0  0  0  0  0
   36.4950   29.6020   43.7780 H   0  0  0  0  0  0  0  0  0  0  0  0
   38.4560   27.7530   41.4160 O   0  0  0  0  0  0  0  0  0  0  0  0
   40.1920   27.5980   43.0510 C   0  0  0  0  0  0  0  0  0  0  0  0
   39.4440   26.9990   42.0500 C   0  0  0  0  0  0  0  0  0  0  0  0
   39.7170   25.6690   41.7240 C   0  0  0  0  0  0  0  0  0  0  0  0
   40.7060   25.0300   42.4090 N   0  0  0  0  0  0  0  0  0  0  0  0
   41.4080   25.6360   43.3700 C   0  0  0  0  0  0  0  0  0  0  0  0
   41.1470   26.9060   43.6800 N   0  0  0  0  0  0  0  0  0  0  0  0
   40.0370   28.6310   43.3600 H   0  0  0  0  0  0  0  0  0  0  0  0
   39.1220   25.2040   40.9330 H   0  0  0  0  0  0  0  0  0  0  0  0
   42.1500   24.9840   43.8070 H   0  0  0  0  0  0  0  0  0  0  0  0
   35.7320   28.1680   41.1170 O   0  0  0  0  0  0  0  0  0  0  0  0
   35.5060   29.1000   40.1700 C   0  0  0  0  0  0  0  0  0  0  0  0
   34.2390   29.2430   39.9410 O   0  0  0  0  0  0  0  0  0  0  0  0
   36.5900   31.2850   39.6970 C   0  0  0  0  0  0  0  0  0  0  0  0
   36.2460   30.0470   39.2860 C   0  0  0  0  0  0  0  0  0  0  0  0
   36.5860   29.6160   37.9980 C   0  0  0  0  0  0  0  0  0  0  0  0
   36.2960   28.6010   37.6840 H   0  0  0  0  0  0  0  0  0  0  0  0
   37.2630   30.3810   37.0910 C   0  0  0  0  0  3  0  0  0  0  0  0
   37.6220   31.6430   37.4870 C   0  0  0  0  0  3  0  0  0  0  0  0
   37.2840   32.0590   38.7560 C   0  0  0  0  0  0  0  0  0  0  0  0
   36.2920   31.7820   40.9490 O   0  0  0  0  0  0  0  0  0  0  0  0
   36.7900   31.4330   41.7770 H   0  0  0  0  0  0  0  0  0  0  0  0
   37.6350   33.3470   39.1990 O   0  0  0  0  0  0  0  0  0  0  0  0
   38.0140   33.4370   40.1330 H   0  0  0  0  0  0  0  0  0  0  0  0
  2  3  1  0  0  0  0
  2  1  2  1  0  0  0
  3  4  1  0  0  0  0
  5  7  1  0  0  0  0
  5  2  1  0  0  0  0
  6 12  1  0  0  0  0
  6 11  1  0  0  0  0
  7  6  2  0  0  0  0
  8  7  1  0  0  0  0
  8  9  2  0  0  0  0
  9 10  1  0  0  0  0
 10 11  2  0  0  0  0
 10 14  1  0  0  0  0
 13  8  1  0  0  0  0
 15  2  1  0  0  0  0
 16 15  1  0  0  0  0
 17 16  2  0  0  0  0
 18 25  1  0  0  0  0
 19 18  1  0  0  0  0
 19 16  1  0  0  0  0
 20 19  2  0  0  0  0
 21 20  1  0  0  0  0
 22 23  2  0  0  0  0
 22 20  1  0  0  0  0
 23 24  1  0  0  0  0
 24 27  1  0  0  0  0
 24 18  2  0  0  0  0
 25 26  1  0  0  0  0
 27 28  1  0  0  0  0
M  END
>  <minimizedAffinity>
-5.51218081

$$$$

 OpenBabel03242514343D

 28 29  0  0  0  0  0  0  0  0999 V2000
   35.0000   29.4140   39.5240 O   0  0  0  0  0  0  0  0  0  0  0  0
   36.0820   29.7320   40.5120 P   0  0  1  0  0  0  0  0  0  0  0  0
   35.6350   31.1300   41.3270 O   0  0  0  0  0  0  0  0  0  0  0  0
   35.0920   31.6920   40.7190 H   0  0  0  0  0  0  0  0  0  0  0  0
   36.2820   28.4310   41.6050 O   0  0  0  0  0  0  0  0  0  0  0  0
   38.2960   28.5820   42.8810 C   0  0  0  0  0  0  0  0  0  0  0  0
   37.5520   27.9370   41.9070 C   0  0  0  0  0  0  0  0  0  0  0  0
   38.1100   26.8250   41.2730 C   0  0  0  0  0  0  0  0  0  0  0  0
   39.3600   26.4320   41.6480 N   0  0  0  0  0  0  0  0  0  0  0  0
   40.0510   27.0760   42.5920 C   0  0  0  0  0  0  0  0  0  0  0  0
   39.5170   28.1370   43.1960 N   0  0  0  0  0  0  0  0  0  0  0  0
   37.9290   29.4560   43.4190 H   0  0  0  0  0  0  0  0  0  0  0  0
   37.5150   26.3230   40.5050 H   0  0  0  0  0  0  0  0  0  0  0  0
   41.0200   26.6310   42.7630 H   0  0  0  0  0  0  0  0  0  0  0  0
   37.5040   30.0100   39.6840 O   0  0  0  0  0  0  0  0  0  0  0  0
   38.0090   31.2010   39.3060 C   0  0  0  0  0  0  0  0  0  0  0  0
   37.0880   31.9760   38.8280 O   0  0  0  0  0  0  0  0  0  0  0  0
   39.8280   32.3940   38.1060 C   0  0  0  0  0  0  0  0  0  0  0  0
   39.3050   31.9400   39.2630 C   0  0  0  0  0  0  0  0  0  0  0  0
   39.9780   32.1590   40.4720 C   0  0  0  0  0  0  0  0  0  0  0  0
   39.5320   31.7790   41.4040 H   0  0  0  0  0  0  0  0  0  0  0  0
   41.1680   32.8220   40.5730 C   0  0  0  0  0  3  0  0  0  0  0  0
   41.7190   33.2920   39.4090 C   0  0  0  0  0  3  0  0  0  0  0  0
   41.0500   33.0720   38.2250 C   0  0  0  0  0  0  0  0  0  0  0  0
   39.2260   32.2190   36.8770 O   0  0  0  0  0  0  0  0  0  0  0  0
   38.3800   32.7480   36.6340 H   0  0  0  0  0  0  0  0  0  0  0  0
   41.5830   33.5400   37.0100 O   0  0  0  0  0  0  0  0  0  0  0  0
   40.9500   33.9880   36.3600 H   0  0  0  0  0  0  0  0  0  0  0  0
  2  1  2  6  0  0  0
  2  3  1  0  0  0  0
  2  5  1  0  0  0  0
  4  3  1  0  0  0  0
  5  7  1  0  0  0  0
  6 11  1  0  0  0  0
  6 12  1  0  0  0  0
  7  6  2  0  0  0  0
  8  9  2  0  0  0  0
  8  7  1  0  0  0  0
  9 10  1  0  0  0  0
 10 14  1  0  0  0  0
 10 11  2  0  0  0  0
 13  8  1  0  0  0  0
 15  2  1  0  0  0  0
 16 15  1  0  0  0  0
 17 16  2  0  0  0  0
 18 24  2  0  0  0  0
 18 19  1  0  0  0  0
 19 16  1  0  0  0  0
 19 20  2  0  0  0  0
 20 22  1  0  0  0  0
 20 21  1  0  0  0  0
 23 22  2  0  0  0  0
 24 23  1  0  0  0  0
 25 18  1  0  0  0  0
 26 25  1  0  0  0  0
 27 24  1  0  0  0  0
 28 27  1  0  0  0  0
M  END
>  <minimizedAffinity>
-5.39010286

$$$$

 OpenBabel03242514343D

 28 29  0  0  0  0  0  0  0  0999 V2000
   37.6620   30.0620   42.5570 O   0  0  0  0  0  0  0  0  0  0  0  0
   36.9700   29.8740   41.2410 P   0  0  1  0  0  0  0  0  0  0  0  0
   35.4910   30.6660   41.3230 O   0  0  0  0  0  0  0  0  0  0  0  0
   35.1720   30.6450   42.2620 H   0  0  0  0  0  0  0  0  0  0  0  0
   37.9280   30.5140   39.9750 O   0  0  0  0  0  0  0  0  0  0  0  0
   39.8940   31.8330   40.2990 C   0  0  0  0  0  0  0  0  0  0  0  0
   38.5250   31.7690   40.0940 C   0  0  0  0  0  0  0  0  0  0  0  0
   37.8100   32.9660   40.0160 C   0  0  0  0  0  0  0  0  0  0  0  0
   38.4980   34.1350   40.1460 N   0  0  0  0  0  0  0  0  0  0  0  0
   39.8180   34.1610   40.3430 C   0  0  0  0  0  0  0  0  0  0  0  0
   40.5000   33.0180   40.4170 N   0  0  0  0  0  0  0  0  0  0  0  0
   40.5190   30.9420   40.3710 H   0  0  0  0  0  0  0  0  0  0  0  0
   36.7300   32.9060   39.8530 H   0  0  0  0  0  0  0  0  0  0  0  0
   40.1990   35.1690   40.4230 H   0  0  0  0  0  0  0  0  0  0  0  0
   36.7070   28.2450   40.9960 O   0  0  0  0  0  0  0  0  0  0  0  0
   37.6220   27.2560   41.0290 C   0  0  0  0  0  0  0  0  0  0  0  0
   37.6540   26.6040   39.9110 O   0  0  0  0  0  0  0  0  0  0  0  0
   38.5770   25.3650   42.3270 C   0  0  0  0  0  0  0  0  0  0  0  0
   38.6370   26.6570   41.9440 C   0  0  0  0  0  0  0  0  0  0  0  0
   39.6740   27.4780   42.4040 C   0  0  0  0  0  0  0  0  0  0  0  0
   39.7040   28.5290   42.0780 H   0  0  0  0  0  0  0  0  0  0  0  0
   40.6670   27.0550   43.2420 C   0  0  0  0  0  3  0  0  0  0  0  0
   40.6250   25.7450   43.6450 C   0  0  0  0  0  3  0  0  0  0  0  0
   39.6010   24.9450   43.1880 C   0  0  0  0  0  0  0  0  0  0  0  0
   37.5870   24.4950   41.9180 O   0  0  0  0  0  0  0  0  0  0  0  0
   37.5700   24.1480   40.9510 H   0  0  0  0  0  0  0  0  0  0  0  0
   39.5250   23.5970   43.5780 O   0  0  0  0  0  0  0  0  0  0  0  0
   39.3100   22.9110   42.8650 H   0  0  0  0  0  0  0  0  0  0  0  0
  2  3  1  0  0  0  0
  2  1  2  1  0  0  0
  3  4  1  0  0  0  0
  5  7  1  0  0  0  0
  5  2  1  0  0  0  0
  6 12  1  0  0  0  0
  6 11  1  0  0  0  0
  7  6  2  0  0  0  0
  8  7  1  0  0  0  0
  8  9  2  0  0  0  0
  9 10  1  0  0  0  0
 10 11  2  0  0  0  0
 10 14  1  0  0  0  0
 13  8  1  0  0  0  0
 15 16  1  0  0  0  0
 15  2  1  0  0  0  0
 16 19  1  0  0  0  0
 17 16  2  0  0  0  0
 18 24  1  0  0  0  0
 19 18  2  0  0  0  0
 19 20  1  0  0  0  0
 20 22  2  0  0  0  0
 21 20  1  0  0  0  0
 22 23  1  0  0  0  0
 24 27  1  0  0  0  0
 24 23  2  0  0  0  0
 25 18  1  0  0  0  0
 26 25  1  0  0  0  0
 28 27  1  0  0  0  0
M  END
>  <minimizedAffinity>
-5.29040861

$$$$

 OpenBabel03242514343D

 28 29  0  0  0  0  0  0  0  0999 V2000
   35.8800   27.6610   39.4250 O   0  0  0  0  0  0  0  0  0  0  0  0
   35.6160   29.0910   39.7890 P   0  0  1  0  0  0  0  0  0  0  0  0
   33.9530   29.2900   39.9060 O   0  0  0  0  0  0  0  0  0  0  0  0
   33.5130   28.6620   39.2790 H   0  0  0  0  0  0  0  0  0  0  0  0
   36.3780   29.4710   41.2730 O   0  0  0  0  0  0  0  0  0  0  0  0
   37.0370   27.7500   42.7940 C   0  0  0  0  0  0  0  0  0  0  0  0
   37.3770   28.6490   41.7970 C   0  0  0  0  0  0  0  0  0  0  0  0
   38.7040   28.6890   41.3640 C   0  0  0  0  0  0  0  0  0  0  0  0
   39.5950   27.8400   41.9470 N   0  0  0  0  0  0  0  0  0  0  0  0
   39.2340   26.9840   42.9070 C   0  0  0  0  0  0  0  0  0  0  0  0
   37.9670   26.9470   43.3190 N   0  0  0  0  0  0  0  0  0  0  0  0
   36.0220   27.6610   43.1830 H   0  0  0  0  0  0  0  0  0  0  0  0
   38.9630   29.4010   40.5760 H   0  0  0  0  0  0  0  0  0  0  0  0
   40.0650   26.3880   43.2560 H   0  0  0  0  0  0  0  0  0  0  0  0
   36.2020   30.0740   38.5740 O   0  0  0  0  0  0  0  0  0  0  0  0
   37.4590   30.5400   38.4350 C   0  0  0  0  0  0  0  0  0  0  0  0
   38.1190   29.8630   37.5510 O   0  0  0  0  0  0  0  0  0  0  0  0
   37.9930   32.3930   40.0020 C   0  0  0  0  0  0  0  0  0  0  0  0
   38.3570   31.6060   38.9690 C   0  0  0  0  0  0  0  0  0  0  0  0
   39.6090   31.7730   38.3650 C   0  0  0  0  0  0  0  0  0  0  0  0
   39.8860   31.1190   37.5230 H   0  0  0  0  0  0  0  0  0  0  0  0
   40.5260   32.7080   38.7560 C   0  0  0  0  0  3  0  0  0  0  0  0
   40.1770   33.5200   39.8040 C   0  0  0  0  0  3  0  0  0  0  0  0
   38.9430   33.3480   40.3920 C   0  0  0  0  0  0  0  0  0  0  0  0
   36.7780   32.2890   40.6470 O   0  0  0  0  0  0  0  0  0  0  0  0
   36.5860   31.4910   41.2650 H   0  0  0  0  0  0  0  0  0  0  0  0
   38.5500   34.1610   41.4700 O   0  0  0  0  0  0  0  0  0  0  0  0
   38.1000   33.7130   42.2590 H   0  0  0  0  0  0  0  0  0  0  0  0
  2  1  2  6  0  0  0
  2  3  1  0  0  0  0
  2  5  1  0  0  0  0
  4  3  1  0  0  0  0
  5  7  1  0  0  0  0
  6 12  1  0  0  0  0
  6 11  1  0  0  0  0
  7  6  2  0  0  0  0
  8  7  1  0  0  0  0
  8  9  2  0  0  0  0
  9 10  1  0  0  0  0
 10 14  1  0  0  0  0
 10 11  2  0  0  0  0
 13  8  1  0  0  0  0
 15  2  1  0  0  0  0
 16 15  1  0  0  0  0
 16 19  1  0  0  0  0
 17 16  2  0  0  0  0
 18 24  1  0  0  0  0
 18 25  1  0  0  0  0
 19 18  2  0  0  0  0
 20 22  2  0  0  0  0
 20 19  1  0  0  0  0
 21 20  1  0  0  0  0
 22 23  1  0  0  0  0
 23 24  2  0  0  0  0
 24 27  1  0  0  0  0
 25 26  1  0  0  0  0
 27 28  1  0  0  0  0
M  END
>  <minimizedAffinity>
-5.25784206

$$$$

 OpenBabel03242514343D

 28 29  0  0  0  0  0  0  0  0999 V2000
   36.8900   28.9220   35.3130 O   0  0  0  0  0  0  0  0  0  0  0  0
   37.0290   29.1900   36.7810 P   0  0  1  0  0  0  0  0  0  0  0  0
   38.1710   28.1210   37.3910 O   0  0  0  0  0  0  0  0  0  0  0  0
   38.1400   27.2850   36.8580 H   0  0  0  0  0  0  0  0  0  0  0  0
   37.5180   30.8100   37.0400 O   0  0  0  0  0  0  0  0  0  0  0  0
   37.1200   32.2610   38.8960 C   0  0  0  0  0  0  0  0  0  0  0  0
   37.8730   31.2550   38.3140 C   0  0  0  0  0  0  0  0  0  0  0  0
   38.9530   30.7360   39.0310 C   0  0  0  0  0  0  0  0  0  0  0  0
   39.2080   31.2480   40.2680 N   0  0  0  0  0  0  0  0  0  0  0  0
   38.4610   32.2180   40.8000 C   0  0  0  0  0  0  0  0  0  0  0  0
   37.4310   32.7130   40.1150 N   0  0  0  0  0  0  0  0  0  0  0  0
   36.2630   32.7160   38.3980 H   0  0  0  0  0  0  0  0  0  0  0  0
   39.5420   29.9420   38.5640 H   0  0  0  0  0  0  0  0  0  0  0  0
   38.8040   32.5040   41.7840 H   0  0  0  0  0  0  0  0  0  0  0  0
   35.5610   28.9070   37.5230 O   0  0  0  0  0  0  0  0  0  0  0  0
   35.3310   28.7360   38.8400 C   0  0  0  0  0  0  0  0  0  0  0  0
   34.1280   29.0930   39.1600 O   0  0  0  0  0  0  0  0  0  0  0  0
   36.1360   29.0310   41.1720 C   0  0  0  0  0  0  0  0  0  0  0  0
   36.0160   28.2550   40.0760 C   0  0  0  0  0  0  0  0  0  0  0  0
   36.5370   26.9550   40.0740 C   0  0  0  0  0  0  0  0  0  0  0  0
   36.4270   26.3390   39.1690 H   0  0  0  0  0  0  0  0  0  0  0  0
   37.1840   26.3920   41.1380 C   0  0  0  0  0  3  0  0  0  0  0  0
   37.3190   27.1640   42.2630 C   0  0  0  0  0  3  0  0  0  0  0  0
   36.8020   28.4410   42.2560 C   0  0  0  0  0  0  0  0  0  0  0  0
   35.6490   30.3200   41.2500 O   0  0  0  0  0  0  0  0  0  0  0  0
   34.6380   30.4880   41.3140 H   0  0  0  0  0  0  0  0  0  0  0  0
   36.9200   29.2620   43.3910 O   0  0  0  0  0  0  0  0  0  0  0  0
   36.1060   29.7920   43.6760 H   0  0  0  0  0  0  0  0  0  0  0  0
  2  1  2  6  0  0  0
  2  5  1  0  0  0  0
  2  3  1  0  0  0  0
  2 15  1  0  0  0  0
  4  3  1  0  0  0  0
  5  7  1  0  0  0  0
  6 11  1  0  0  0  0
  7  6  2  0  0  0  0
  7  8  1  0  0  0  0
  8  9  2  0  0  0  0
  9 10  1  0  0  0  0
 10 14  1  0  0  0  0
 11 10  2  0  0  0  0
 12  6  1  0  0  0  0
 13  8  1  0  0  0  0
 15 16  1  0  0  0  0
 16 17  2  0  0  0  0
 16 19  1  0  0  0  0
 18 25  1  0  0  0  0
 18 24  1  0  0  0  0
 19 18  2  0  0  0  0
 20 19  1  0  0  0  0
 20 22  2  0  0  0  0
 21 20  1  0  0  0  0
 22 23  1  0  0  0  0
 24 23  2  0  0  0  0
 24 27  1  0  0  0  0
 25 26  1  0  0  0  0
 27 28  1  0  0  0  0
M  END
>  <minimizedAffinity>
-5.24019957

$$$$
