
 OpenBabel03252506353D

 35 37  0  0  1  0  0  0  0  0999 V2000
   44.4300   35.7330   44.9830 C   0  0  0  0  0  0  0  0  0  0  0  0
   45.1020   35.7360   43.7410 C   0  0  0  0  0  0  0  0  0  0  0  0
   46.0480   34.7870   43.4940 C   0  0  0  0  0  0  0  0  0  0  0  0
   46.2890   33.8820   44.4790 N   0  0  0  0  0  0  0  0  0  0  0  0
   45.6560   33.8850   45.6420 C   0  0  0  0  0  0  0  0  0  0  0  0
   44.7170   34.8090   45.9120 N   0  0  0  0  0  0  0  0  0  0  0  0
   45.9890   32.8930   46.5960 N   0  0  0  0  0  0  0  0  0  0  0  0
   45.1860   32.5490   47.7680 C   0  0  0  0  0  0  0  0  0  0  0  0
   46.2720   32.3020   48.8170 C   0  0  0  0  0  0  0  0  0  0  0  0
   47.5770   32.2400   48.0960 C   0  0  0  0  0  0  0  0  0  0  0  0
   47.1380   32.0220   46.6560 C   0  0  1  0  0  0  0  0  0  0  0  0
   43.6740   36.4800   45.1980 H   0  0  0  0  0  0  0  0  0  0  0  0
   46.5600   34.7950   42.5410 H   0  0  0  0  0  0  0  0  0  0  0  0
   44.7040   31.5880   47.5330 H   0  0  0  0  0  0  0  0  0  0  0  0
   44.4950   33.3380   48.0640 H   0  0  0  0  0  0  0  0  0  0  0  0
   46.0060   31.3680   49.3740 H   0  0  0  0  0  0  0  0  0  0  0  0
   46.2630   33.1310   49.5530 H   0  0  0  0  0  0  0  0  0  0  0  0
   48.2860   31.5050   48.4660 H   0  0  0  0  0  0  0  0  0  0  0  0
   48.0550   33.2620   48.1190 H   0  0  0  0  0  0  0  0  0  0  0  0
   47.9710   32.3660   46.0230 H   0  0  0  0  0  0  0  0  0  0  0  0
   44.7220   36.7680   42.8110 N   0  0  0  0  0  0  0  0  0  0  0  0
   45.5930   37.3580   42.7510 H   0  0  0  0  0  0  0  0  0  0  0  0
   43.7690   36.7910   42.3820 H   0  0  0  0  0  0  0  0  0  0  0  0
   46.7080   30.2980   46.4060 S   0  0  0  0  0  0  0  0  0  0  0  0
   49.1890   29.1080   45.5770 C   0  0  0  0  0  0  0  0  0  0  0  0
   48.1630   29.2700   46.4770 C   0  0  0  0  0  0  0  0  0  0  0  0
   48.1990   28.5430   47.6740 C   0  0  0  0  0  0  0  0  0  0  0  0
   47.4640   28.5580   48.4890 H   0  0  0  0  0  0  0  0  0  0  0  0
   49.2570   27.6690   47.9490 C   0  0  0  0  0  3  0  0  0  0  0  0
   50.2740   27.5250   47.0270 C   0  0  0  0  0  3  0  0  0  0  0  0
   50.2160   28.2560   45.8490 C   0  0  0  0  0  0  0  0  0  0  0  0
   49.0260   29.8830   44.4460 O   0  0  0  0  0  0  0  0  0  0  0  0
   49.1700   29.4790   43.5150 H   0  0  0  0  0  0  0  0  0  0  0  0
   51.1790   28.2070   44.8260 O   0  0  0  0  0  0  0  0  0  0  0  0
   52.0840   27.7930   44.9810 H   0  0  0  0  0  0  0  0  0  0  0  0
  1 12  1  0  0  0  0
  1  6  1  0  0  0  0
  2  1  2  0  0  0  0
  3  2  1  0  0  0  0
  3  4  2  0  0  0  0
  4  5  1  0  0  0  0
  5  6  2  0  0  0  0
  5  7  1  0  0  0  0
  7 11  1  0  0  0  0
  7  8  1  0  0  0  0
  8 15  1  0  0  0  0
  8  9  1  0  0  0  0
  9 16  1  0  0  0  0
  9 17  1  0  0  0  0
 10 19  1  0  0  0  0
 10 18  1  0  0  0  0
 10  9  1  0  0  0  0
 11 20  1  6  0  0  0
 11 10  1  0  0  0  0
 13  3  1  0  0  0  0
 14  8  1  0  0  0  0
 21  2  1  0  0  0  0
 22 21  1  0  0  0  0
 23 21  1  0  0  0  0
 24 26  1  0  0  0  0
 24 11  1  0  0  0  0
 25 31  2  0  0  0  0
 25 26  1  0  0  0  0
 26 27  2  0  0  0  0
 27 29  1  0  0  0  0
 27 28  1  0  0  0  0
 30 29  2  0  0  0  0
 31 30  1  0  0  0  0
 32 25  1  0  0  0  0
 33 32  1  0  0  0  0
 34 35  1  0  0  0  0
 34 31  1  0  0  0  0
M  END
>  <minimizedAffinity>
-5.17220592

>  <minimizedRMSD>
0.582594872

$$$$
