
 OpenBabel03252505283D

 26 27  0  0  0  0  0  0  0  0999 V2000
   47.2300   32.0160   47.8180 O   0  0  0  0  0  0  0  0  0  0  0  0
   46.1110   32.4070   46.8500 P   0  0  1  0  0  0  0  0  0  0  0  0
   44.8690   33.2340   47.6300 O   0  0  0  0  0  0  0  0  0  0  0  0
   45.2080   34.1000   47.9960 H   0  0  0  0  0  0  0  0  0  0  0  0
   46.8330   33.3630   45.6600 O   0  0  0  0  0  0  0  0  0  0  0  0
   44.4060   35.6800   44.4890 C   0  0  0  0  0  0  0  0  0  0  0  0
   44.7650   35.9300   43.1410 C   0  0  0  0  0  0  0  0  0  0  0  0
   45.8880   35.2530   42.6660 C   0  0  0  0  0  0  0  0  0  0  0  0
   46.5450   34.4190   43.5130 N   0  0  0  0  0  0  0  0  0  0  0  0
   46.1690   34.2110   44.7890 C   0  0  0  0  0  0  0  0  0  0  0  0
   45.0870   34.8500   45.2800 N   0  0  0  0  0  0  0  0  0  0  0  0
   43.5230   36.2240   44.8310 H   0  0  0  0  0  0  0  0  0  0  0  0
   44.2230   36.5950   42.4960 H   0  0  0  0  0  0  0  0  0  0  0  0
   46.2160   35.3990   41.6470 H   0  0  0  0  0  0  0  0  0  0  0  0
   45.4750   30.9660   46.2390 O   0  0  0  0  0  0  0  0  0  0  0  0
   45.1430   28.6880   46.1520 C   0  0  0  0  0  0  0  0  0  0  0  0
   45.2270   29.8190   46.9430 C   0  0  0  0  0  0  0  0  0  0  0  0
   45.0590   29.6610   48.3020 C   0  0  0  0  0  0  0  0  0  0  0  0
   45.1360   30.5870   48.8730 H   0  0  0  0  0  0  0  0  0  0  0  0
   44.8130   28.4290   48.8710 C   0  0  0  0  0  3  0  0  0  0  0  0
   44.7250   27.2850   48.0880 C   0  0  0  0  0  3  0  0  0  0  0  0
   44.8960   27.4410   46.7100 C   0  0  0  0  0  0  0  0  0  0  0  0
   45.2870   28.6530   44.7600 O   0  0  0  0  0  0  0  0  0  0  0  0
   44.4650   28.7980   44.1710 H   0  0  0  0  0  0  0  0  0  0  0  0
   44.8010   26.2780   45.9710 O   0  0  0  0  0  0  0  0  0  0  0  0
   44.1630   26.1540   45.1970 H   0  0  0  0  0  0  0  0  0  0  0  0
  2  3  1  0  0  0  0
  2  1  2  1  0  0  0
  3  4  1  0  0  0  0
  5  2  1  0  0  0  0
  6 12  1  0  0  0  0
  6 11  1  0  0  0  0
  7  6  2  0  0  0  0
  8  7  1  0  0  0  0
  8  9  2  0  0  0  0
  9 10  1  0  0  0  0
 10 11  2  0  0  0  0
 10  5  1  0  0  0  0
 13  7  1  0  0  0  0
 14  8  1  0  0  0  0
 15  2  1  0  0  0  0
 15 17  1  0  0  0  0
 16 22  2  0  0  0  0
 16 17  1  0  0  0  0
 17 18  2  0  0  0  0
 18 20  1  0  0  0  0
 18 19  1  0  0  0  0
 21 20  2  0  0  0  0
 22 21  1  0  0  0  0
 23 16  1  0  0  0  0
 24 23  1  0  0  0  0
 25 22  1  0  0  0  0
 26 25  1  0  0  0  0
M  END
>  <minimizedAffinity>
-4.36151361

>  <minimizedRMSD>
0.897656679

$$$$
