
 OpenBabel03252507553D

 46 49  0  0  1  0  0  0  0  0999 V2000
   49.0860   32.1760   40.5680 C   0  0  2  0  0  0  0  0  0  0  0  0
   49.9590   31.6500   41.6040 C   0  0  0  0  0  0  0  0  0  0  0  0
   50.4660   31.8460   40.2100 C   0  0  1  0  0  0  0  0  0  0  0  0
   48.2980   31.5150   40.1610 H   0  0  0  0  0  0  0  0  0  0  0  0
   49.8140   30.6340   41.9880 H   0  0  0  0  0  0  0  0  0  0  0  0
   50.4360   32.3400   42.3510 H   0  0  0  0  0  0  0  0  0  0  0  0
   51.0650   32.7000   39.8760 H   0  0  0  0  0  0  0  0  0  0  0  0
   47.0660   34.8120   41.9630 C   0  0  2  0  0  0  0  0  0  0  0  0
   46.2960   34.2120   40.7850 C   0  0  0  0  0  0  0  0  0  0  0  0
   47.4980   34.0040   39.8390 C   0  0  0  0  0  0  0  0  0  0  0  0
   48.6310   33.6080   40.7370 C   0  0  1  0  0  0  0  0  0  0  0  0
   48.1120   33.7440   42.1380 C   0  0  0  0  0  0  0  0  0  0  0  0
   47.4650   35.7840   41.6750 H   0  0  0  0  0  0  0  0  0  0  0  0
   45.8600   33.2580   41.1010 H   0  0  0  0  0  0  0  0  0  0  0  0
   45.5930   34.9440   40.3810 H   0  0  0  0  0  0  0  0  0  0  0  0
   47.7080   34.9960   39.4090 H   0  0  0  0  0  0  0  0  0  0  0  0
   47.2210   33.2430   39.0850 H   0  0  0  0  0  0  0  0  0  0  0  0
   49.5240   34.2480   40.5800 H   0  0  0  0  0  0  0  0  0  0  0  0
   47.6770   32.8390   42.5610 H   0  0  0  0  0  0  0  0  0  0  0  0
   48.9330   34.1640   42.7640 H   0  0  0  0  0  0  0  0  0  0  0  0
   44.5390   36.0100   44.4870 C   0  0  0  0  0  0  0  0  0  0  0  0
   45.2790   35.9790   43.3100 C   0  0  0  0  0  0  0  0  0  0  0  0
   46.1960   34.9430   43.1660 C   0  0  0  0  0  0  0  0  0  0  0  0
   46.3490   33.9850   44.1780 N   0  0  0  0  0  0  0  0  0  0  0  0
   45.5970   34.0710   45.3050 C   0  0  0  0  0  0  0  0  0  0  0  0
   44.7010   35.0740   45.4530 N   0  0  0  0  0  0  0  0  0  0  0  0
   43.8220   36.8120   44.6080 H   0  0  0  0  0  0  0  0  0  0  0  0
   45.1740   36.7070   42.5230 H   0  0  0  0  0  0  0  0  0  0  0  0
   45.7890   33.2860   46.0240 H   0  0  0  0  0  0  0  0  0  0  0  0
   50.6730   30.6800   39.4320 O   0  0  0  0  0  0  0  0  0  0  0  0
   51.9200   30.0010   37.2440 O   0  0  0  0  0  0  0  0  0  0  0  0
   51.9770   30.9570   38.4080 P   0  0  1  0  0  0  0  0  0  0  0  0
   51.8940   32.5470   37.7690 O   0  0  0  0  0  0  0  0  0  0  0  0
   52.1430   33.1570   38.5030 H   0  0  0  0  0  0  0  0  0  0  0  0
   53.4620   30.8100   39.1390 O   0  0  0  0  0  0  0  0  0  0  0  0
   55.2840   29.4290   39.0390 C   0  0  0  0  0  0  0  0  0  0  0  0
   54.5830   30.4470   38.4230 C   0  0  0  0  0  0  0  0  0  0  0  0
   55.0670   30.9430   37.2310 C   0  0  0  0  0  0  0  0  0  0  0  0
   54.4490   31.7410   36.8190 H   0  0  0  0  0  0  0  0  0  0  0  0
   56.2170   30.4390   36.6710 C   0  0  0  0  0  0  0  0  0  0  0  0
   56.9100   29.4140   37.3080 C   0  0  0  0  0  0  0  0  0  0  0  0
   56.4520   28.9070   38.4850 C   0  0  0  0  0  0  0  0  0  0  0  0
   54.9210   28.8190   40.2540 O   0  0  0  0  0  0  0  0  0  0  0  0
   54.7030   29.3820   41.0680 H   0  0  0  0  0  0  0  0  0  0  0  0
   57.1880   27.8880   39.0680 O   0  0  0  0  0  0  0  0  0  0  0  0
   57.7970   28.1000   39.8340 H   0  0  0  0  0  0  0  0  0  0  0  0
  1  4  1  6  0  0  0
  1 11  1  0  0  0  0
  1  2  1  0  0  0  0
  2  5  1  0  0  0  0
  2  6  1  0  0  0  0
  3  7  1  6  0  0  0
  3  1  1  0  0  0  0
  3  2  1  0  0  0  0
  8 13  1  6  0  0  0
  8 12  1  0  0  0  0
  8 23  1  0  0  0  0
  9 14  1  0  0  0  0
  9  8  1  0  0  0  0
 10 11  1  0  0  0  0
 10  9  1  0  0  0  0
 11 18  1  6  0  0  0
 11 12  1  0  0  0  0
 12 19  1  0  0  0  0
 12 20  1  0  0  0  0
 15  9  1  0  0  0  0
 16 10  1  0  0  0  0
 17 10  1  0  0  0  0
 21 27  1  0  0  0  0
 21 26  1  0  0  0  0
 22 21  2  0  0  0  0
 23 22  1  0  0  0  0
 23 24  2  0  0  0  0
 24 25  1  0  0  0  0
 25 26  2  0  0  0  0
 25 29  1  0  0  0  0
 28 22  1  0  0  0  0
 30  3  1  0  0  0  0
 32 31  2  6  0  0  0
 32 35  1  0  0  0  0
 32 30  1  0  0  0  0
 33 32  1  0  0  0  0
 33 34  1  0  0  0  0
 36 43  1  0  0  0  0
 37 36  2  0  0  0  0
 37 35  1  0  0  0  0
 38 37  1  0  0  0  0
 39 38  1  0  0  0  0
 40 38  2  0  0  0  0
 40 41  1  0  0  0  0
 41 42  2  0  0  0  0
 42 36  1  0  0  0  0
 42 45  1  0  0  0  0
 43 44  1  0  0  0  0
 45 46  1  0  0  0  0
M  END
>  <minimizedAffinity>
-5.60607052

>  <minimizedRMSD>
2.01202202

$$$$
