
 OpenBabel03242513413D

 42 45  0  0  0  0  0  0  0  0999 V2000
   47.8530   31.0050   46.0090 C   0  0  0  0  0  0  0  0  0  0  0  0
   47.0880   32.0500   45.5200 C   0  0  0  0  0  0  0  0  0  0  0  0
   46.0760   32.5330   46.3140 C   0  0  0  0  0  0  0  0  0  0  0  0
   45.7930   32.0240   47.5650 C   0  0  0  0  0  0  0  0  0  0  0  0
   44.9080   32.2590   48.5560 N   0  0  0  0  0  0  0  0  0  0  0  0
   45.1220   31.4050   49.5890 C   0  0  0  0  0  0  0  0  0  0  0  0
   46.1550   30.6310   49.2290 N   0  0  0  0  0  0  0  0  0  0  0  0
   46.5840   30.9900   47.9930 C   0  0  0  0  0  0  0  0  0  0  0  0
   47.6060   30.4630   47.2560 C   0  0  0  0  0  0  0  0  0  0  0  0
   48.6440   30.6340   45.3790 H   0  0  0  0  0  0  0  0  0  0  0  0
   45.4510   33.3550   45.9680 H   0  0  0  0  0  0  0  0  0  0  0  0
   44.1720   32.9990   48.5130 H   0  0  0  0  0  0  0  0  0  0  0  0
   44.5550   31.3670   50.5270 H   0  0  0  0  0  0  0  0  0  0  0  0
   47.2590   34.3820   42.7100 C   0  0  0  0  0  0  0  0  0  0  0  0
   47.8800   33.6380   41.7220 C   0  0  0  0  0  0  0  0  0  0  0  0
   48.2360   32.3170   42.0490 C   0  0  0  0  0  0  0  0  0  0  0  0
   47.9670   31.8300   43.2890 N   0  0  0  0  0  0  0  0  0  0  0  0
   47.3570   32.6140   44.2070 C   0  0  0  0  0  0  0  0  0  0  0  0
   47.0060   33.8680   43.9330 N   0  0  0  0  0  0  0  0  0  0  0  0
   46.9400   35.4030   42.5810 H   0  0  0  0  0  0  0  0  0  0  0  0
   48.7180   31.7430   41.2780 H   0  0  0  0  0  0  0  0  0  0  0  0
   48.1260   34.2720   40.3990 C   0  0  0  0  0  0  0  0  0  0  0  0
   48.6460   35.5090   40.6900 F   0  0  0  0  0  0  0  0  0  0  0  0
   46.9250   34.4100   39.7650 F   0  0  0  0  0  0  0  0  0  0  0  0
   48.9930   33.4590   39.6780 F   0  0  0  0  0  0  0  0  0  0  0  0
   48.3680   29.4130   47.7550 O   0  0  0  0  0  0  0  0  0  0  0  0
   49.9270   28.1600   49.4150 O   0  0  0  0  0  0  0  0  0  0  0  0
   49.5620   29.5720   48.9250 P   0  0  2  0  0  0  0  0  0  0  0  0
   48.8990   30.3830   50.2490 O   0  0  0  0  0  0  0  0  0  0  0  0
   49.5820   30.9390   50.7050 H   0  0  0  0  0  0  0  0  0  0  0  0
   50.9560   30.3540   48.3970 O   0  0  0  0  0  0  0  0  0  0  0  0
   52.8610   30.4210   46.7870 C   0  0  0  0  0  0  0  0  0  0  0  0
   51.6640   29.9720   47.2800 C   0  0  0  0  0  0  0  0  0  0  0  0
   50.9810   28.9590   46.5980 C   0  0  0  0  0  0  0  0  0  0  0  0
   50.0320   28.5090   46.8700 H   0  0  0  0  0  0  0  0  0  0  0  0
   51.5000   28.4000   45.4270 C   0  0  0  0  0  0  0  0  0  0  0  0
   52.7000   28.8610   44.9450 C   0  0  0  0  0  0  0  0  0  0  0  0
   53.3480   29.8520   45.6290 C   0  0  0  0  0  0  0  0  0  0  0  0
   53.4330   31.4150   47.5430 O   0  0  0  0  0  0  0  0  0  0  0  0
   54.4070   31.4820   47.8080 H   0  0  0  0  0  0  0  0  0  0  0  0
   54.5630   30.3500   45.1820 O   0  0  0  0  0  0  0  0  0  0  0  0
   55.2960   30.6720   45.7860 H   0  0  0  0  0  0  0  0  0  0  0  0
  1  9  1  0  0  0  0
  2  1  2  0  0  0  0
  2  3  1  0  0  0  0
  3  4  2  0  0  0  0
  4  8  1  0  0  0  0
  4  5  1  0  0  0  0
  5  6  1  0  0  0  0
  6 13  1  0  0  0  0
  7  6  2  0  0  0  0
  8  7  1  0  0  0  0
  9 26  1  0  0  0  0
  9  8  2  0  0  0  0
 10  1  1  0  0  0  0
 11  3  1  0  0  0  0
 12  5  1  0  0  0  0
 14 19  1  0  0  0  0
 15 16  1  0  0  0  0
 15 14  2  0  0  0  0
 16 17  2  0  0  0  0
 17 18  1  0  0  0  0
 18  2  1  0  0  0  0
 19 18  2  0  0  0  0
 20 14  1  0  0  0  0
 21 16  1  0  0  0  0
 22 23  1  0  0  0  0
 22 15  1  0  0  0  0
 24 22  1  0  0  0  0
 25 22  1  0  0  0  0
 26 28  1  0  0  0  0
 28 27  2  1  0  0  0
 28 29  1  0  0  0  0
 29 30  1  0  0  0  0
 31 28  1  0  0  0  0
 32 33  1  0  0  0  0
 32 39  1  0  0  0  0
 33 31  1  0  0  0  0
 34 35  1  0  0  0  0
 34 33  2  0  0  0  0
 36 34  1  0  0  0  0
 37 36  2  0  0  0  0
 37 38  1  0  0  0  0
 38 32  2  0  0  0  0
 39 40  1  0  0  0  0
 41 38  1  0  0  0  0
 41 42  1  0  0  0  0
M  END
>  <minimizedAffinity>
-5.7959137

>  <minimizedRMSD>
0.27558884

$$$$
