
 OpenBabel03252507163D

 31 33  0  0  0  0  0  0  0  0999 V2000
   45.2920   36.1450   43.3070 C   0  0  0  0  0  0  0  0  0  0  0  0
   45.9160   34.9050   43.0230 C   0  0  0  0  0  0  0  0  0  0  0  0
   45.8620   33.9170   44.0060 C   0  0  0  0  0  0  0  0  0  0  0  0
   45.2330   34.1640   45.1660 N   0  0  0  0  0  0  0  0  0  0  0  0
   44.6360   35.3720   45.4160 C   0  0  0  0  0  0  0  0  0  0  0  0
   44.6780   36.3300   44.4850 N   0  0  0  0  0  0  0  0  0  0  0  0
   45.3150   36.9320   42.5660 H   0  0  0  0  0  0  0  0  0  0  0  0
   44.1770   35.4010   46.3970 H   0  0  0  0  0  0  0  0  0  0  0  0
   46.4990   32.6450   43.7240 C   0  0  0  0  0  0  0  0  0  0  0  0
   45.7250   31.5220   43.4950 C   0  0  0  0  0  0  0  0  0  0  0  0
   46.3580   30.3320   43.2310 C   0  0  0  0  0  0  0  0  0  0  0  0
   47.7340   30.1870   43.1800 C   0  0  0  0  0  0  0  0  0  0  0  0
   48.4550   31.3510   43.4170 C   0  0  0  0  0  0  0  0  0  0  0  0
   47.8250   32.5170   43.6770 N   0  0  0  0  0  0  0  0  0  0  0  0
   44.6600   31.5210   43.5110 H   0  0  0  0  0  0  0  0  0  0  0  0
   45.7920   29.4200   43.0440 H   0  0  0  0  0  0  0  0  0  0  0  0
   48.2890   29.3040   42.9810 H   0  0  0  0  0  0  0  0  0  0  0  0
   49.5410   31.3880   43.4090 H   0  0  0  0  0  0  0  0  0  0  0  0
   46.5620   34.7180   41.7730 C   0  0  0  0  0  0  0  0  0  0  0  0
   47.6580   35.3010   41.5750 O   0  0  0  0  0  0  0  0  0  0  0  0
   44.7620   34.1260   40.1640 C   0  0  0  0  0  0  0  0  0  0  0  0
   45.9970   33.8780   40.7230 C   0  0  0  0  0  0  0  0  0  0  0  0
   46.6930   32.7870   40.2470 C   0  0  0  0  0  0  0  0  0  0  0  0
   47.6570   32.6070   40.6950 H   0  0  0  0  0  0  0  0  0  0  0  0
   46.2300   31.9580   39.2700 C   0  0  0  0  0  3  0  0  0  0  0  0
   44.9780   32.2290   38.7190 C   0  0  0  0  0  3  0  0  0  0  0  0
   44.2670   33.3040   39.1730 C   0  0  0  0  0  0  0  0  0  0  0  0
   44.0090   35.2280   40.6130 O   0  0  0  0  0  0  0  0  0  0  0  0
   43.0220   35.1780   40.8090 H   0  0  0  0  0  0  0  0  0  0  0  0
   43.0160   33.6060   38.6480 O   0  0  0  0  0  0  0  0  0  0  0  0
   42.8590   33.7190   37.6520 H   0  0  0  0  0  0  0  0  0  0  0  0
  1  6  1  0  0  0  0
  2  1  2  0  0  0  0
  2  3  1  0  0  0  0
  3  4  2  0  0  0  0
  4  5  1  0  0  0  0
  5  8  1  0  0  0  0
  6  5  2  0  0  0  0
  7  1  1  0  0  0  0
  9  3  1  0  0  0  0
 10 15  1  0  0  0  0
 10  9  2  0  0  0  0
 11 10  1  0  0  0  0
 12 11  2  0  0  0  0
 12 13  1  0  0  0  0
 13 14  2  0  0  0  0
 14  9  1  0  0  0  0
 16 11  1  0  0  0  0
 17 12  1  0  0  0  0
 18 13  1  0  0  0  0
 19  2  1  0  0  0  0
 20 19  2  0  0  0  0
 21 28  1  0  0  0  0
 21 22  1  0  0  0  0
 22 19  1  0  0  0  0
 23 24  1  0  0  0  0
 23 22  2  0  0  0  0
 25 23  1  0  0  0  0
 26 27  1  0  0  0  0
 26 25  2  0  0  0  0
 27 21  2  0  0  0  0
 28 29  1  0  0  0  0
 30 27  1  0  0  0  0
 31 30  1  0  0  0  0
M  END
>  <minimizedAffinity>
-4.77862072

>  <minimizedRMSD>
0.786862433

$$$$
