
 OpenBabel03242516413D

 34 35  0  0  0  0  0  0  0  0999 V2000
   49.2800   34.3180   42.4690 C   0  0  0  0  0  0  0  0  0  0  0  0
   49.5970   34.9860   43.2960 H   0  0  0  0  0  0  0  0  0  0  0  0
   49.9800   34.5390   41.6350 H   0  0  0  0  0  0  0  0  0  0  0  0
   47.8930   34.6240   41.9870 C   0  0  0  0  0  0  0  0  0  0  0  0
   47.6530   33.9730   41.1390 H   0  0  0  0  0  0  0  0  0  0  0  0
   47.8450   35.6910   41.6210 H   0  0  0  0  0  0  0  0  0  0  0  0
   44.8710   35.1510   44.1630 C   0  0  0  0  0  0  0  0  0  0  0  0
   45.7830   35.2690   43.0790 C   0  0  0  0  0  0  0  0  0  0  0  0
   46.9440   34.5030   43.1150 C   0  0  0  0  0  0  0  0  0  0  0  0
   47.1550   33.6880   44.1670 N   0  0  0  0  0  0  0  0  0  0  0  0
   46.2630   33.6020   45.1840 C   0  0  0  0  0  0  0  0  0  0  0  0
   45.1300   34.3270   45.1820 N   0  0  0  0  0  0  0  0  0  0  0  0
   43.6860   35.9130   44.1560 N   0  0  0  0  0  0  0  0  0  0  0  0
   45.5880   35.9300   42.2450 H   0  0  0  0  0  0  0  0  0  0  0  0
   46.4360   32.9450   46.0290 H   0  0  0  0  0  0  0  0  0  0  0  0
   43.1460   36.0630   45.0120 H   0  0  0  0  0  0  0  0  0  0  0  0
   43.3610   36.3300   43.2460 H   0  0  0  0  0  0  0  0  0  0  0  0
   49.3810   32.9850   42.7900 O   0  0  0  0  0  0  0  0  0  0  0  0
   50.5040   30.7120   42.1330 O   0  0  0  0  0  0  0  0  0  0  0  0
   50.3260   32.1320   41.6670 P   0  0  2  0  0  0  0  0  0  0  0  0
   51.7810   32.9570   41.5140 O   0  0  0  0  0  0  0  0  0  0  0  0
   51.8770   33.4680   40.6940 H   0  0  0  0  0  0  0  0  0  0  0  0
   49.5550   32.1980   40.1530 O   0  0  0  0  0  0  0  0  0  0  0  0
   49.4830   32.2770   37.8510 C   0  0  0  0  0  0  0  0  0  0  0  0
   50.0670   31.6950   38.9810 C   0  0  0  0  0  0  0  0  0  0  0  0
   51.0410   30.7330   38.7820 C   0  0  0  0  0  0  0  0  0  0  0  0
   51.4380   30.3370   39.7050 H   0  0  0  0  0  0  0  0  0  0  0  0
   51.4120   30.3700   37.5020 C   0  0  0  0  0  3  0  0  0  0  0  0
   50.8340   30.9450   36.3890 C   0  0  0  0  0  3  0  0  0  0  0  0
   49.8710   31.8970   36.5760 C   0  0  0  0  0  0  0  0  0  0  0  0
   48.4890   33.2590   37.8960 O   0  0  0  0  0  0  0  0  0  0  0  0
   48.0790   33.4380   38.8150 H   0  0  0  0  0  0  0  0  0  0  0  0
   49.2970   32.4690   35.4340 O   0  0  0  0  0  0  0  0  0  0  0  0
   49.0440   33.4610   35.4370 H   0  0  0  0  0  0  0  0  0  0  0  0
  1 18  1  0  0  0  0
  1  2  1  0  0  0  0
  3  1  1  0  0  0  0
  4  1  1  0  0  0  0
  4  9  1  0  0  0  0
  5  4  1  0  0  0  0
  6  4  1  0  0  0  0
  7 12  1  0  0  0  0
  8  9  1  0  0  0  0
  8  7  2  0  0  0  0
  9 10  2  0  0  0  0
 10 11  1  0  0  0  0
 11 15  1  0  0  0  0
 12 11  2  0  0  0  0
 13  7  1  0  0  0  0
 13 16  1  0  0  0  0
 14  8  1  0  0  0  0
 17 13  1  0  0  0  0
 20 19  2  1  0  0  0
 20 18  1  0  0  0  0
 21 20  1  0  0  0  0
 22 21  1  0  0  0  0
 23 20  1  0  0  0  0
 24 31  1  0  0  0  0
 24 25  1  0  0  0  0
 25 23  1  0  0  0  0
 26 25  2  0  0  0  0
 26 27  1  0  0  0  0
 28 26  1  0  0  0  0
 29 30  1  0  0  0  0
 29 28  2  0  0  0  0
 30 24  2  0  0  0  0
 31 32  1  0  0  0  0
 33 34  1  0  0  0  0
 33 30  1  0  0  0  0
M  END
>  <minimizedAffinity>
-5.0576272

>  <minimizedRMSD>
1.43292212

$$$$
