
 OpenBabel03252509273D

 32 34  0  0  1  0  0  0  0  0999 V2000
   47.0970   35.2380   41.8390 C   0  0  1  0  0  0  0  0  0  0  0  0
   48.6200   35.5410   41.9360 C   0  0  0  0  0  0  0  0  0  0  0  0
   47.9600   34.4430   41.0640 C   0  0  2  0  0  0  0  0  0  0  0  0
   46.5150   36.0810   41.4280 H   0  0  0  0  0  0  0  0  0  0  0  0
   49.1590   35.2480   42.8370 H   0  0  0  0  0  0  0  0  0  0  0  0
   48.9370   36.4550   41.4190 H   0  0  0  0  0  0  0  0  0  0  0  0
   48.3120   33.4170   41.3880 H   0  0  0  0  0  0  0  0  0  0  0  0
   45.0450   34.7000   44.9310 C   0  0  0  0  0  0  0  0  0  0  0  0
   45.4850   35.3030   43.7190 C   0  0  0  0  0  0  0  0  0  0  0  0
   46.5740   34.7230   43.1580 C   0  0  0  0  0  0  0  0  0  0  0  0
   47.2010   33.6320   43.7310 N   0  0  0  0  0  0  0  0  0  0  0  0
   46.7410   33.0980   44.8850 C   0  0  0  0  0  0  0  0  0  0  0  0
   45.6560   33.6370   45.4860 N   0  0  0  0  0  0  0  0  0  0  0  0
   44.1810   35.1300   45.4080 H   0  0  0  0  0  0  0  0  0  0  0  0
   47.3380   32.2530   45.2030 H   0  0  0  0  0  0  0  0  0  0  0  0
   44.8580   36.4290   43.1510 N   0  0  0  0  0  0  0  0  0  0  0  0
   43.8070   36.4740   43.1870 H   0  0  0  0  0  0  0  0  0  0  0  0
   45.4680   37.1760   42.7160 H   0  0  0  0  0  0  0  0  0  0  0  0
   48.0070   34.5820   39.5640 C   0  0  0  0  0  0  0  0  0  0  0  0
   46.9730   34.8530   39.2540 H   0  0  0  0  0  0  0  0  0  0  0  0
   48.6330   35.4730   39.3250 H   0  0  0  0  0  0  0  0  0  0  0  0
   48.3370   33.6130   37.4580 C   0  0  0  0  0  0  0  0  0  0  0  0
   48.5300   33.4310   38.8330 C   0  0  0  0  0  0  0  0  0  0  0  0
   49.1470   32.2620   39.2220 C   0  0  0  0  0  0  0  0  0  0  0  0
   49.2580   32.1980   40.2820 H   0  0  0  0  0  0  0  0  0  0  0  0
   49.5610   31.3110   38.3210 C   0  0  0  0  0  3  0  0  0  0  0  0
   49.3640   31.5020   36.9540 C   0  0  0  0  0  3  0  0  0  0  0  0
   48.7510   32.6580   36.5450 C   0  0  0  0  0  0  0  0  0  0  0  0
   47.7380   34.7100   36.8280 O   0  0  0  0  0  0  0  0  0  0  0  0
   48.2490   35.5880   36.8920 H   0  0  0  0  0  0  0  0  0  0  0  0
   48.6030   32.7540   35.1680 O   0  0  0  0  0  0  0  0  0  0  0  0
   48.3670   33.6900   34.8130 H   0  0  0  0  0  0  0  0  0  0  0  0
  1  4  1  6  0  0  0
  1  2  1  0  0  0  0
  1 10  1  0  0  0  0
  2  5  1  0  0  0  0
  3  7  1  1  0  0  0
  3  1  1  0  0  0  0
  3  2  1  0  0  0  0
  6  2  1  0  0  0  0
  8 14  1  0  0  0  0
  8 13  1  0  0  0  0
  9  8  2  0  0  0  0
 10  9  1  0  0  0  0
 10 11  2  0  0  0  0
 11 12  1  0  0  0  0
 12 15  1  0  0  0  0
 12 13  2  0  0  0  0
 16 17  1  0  0  0  0
 16  9  1  0  0  0  0
 18 16  1  0  0  0  0
 19  3  1  0  0  0  0
 20 19  1  0  0  0  0
 21 19  1  0  0  0  0
 22 23  1  0  0  0  0
 23 24  2  0  0  0  0
 23 19  1  0  0  0  0
 24 25  1  0  0  0  0
 26 24  1  0  0  0  0
 27 26  2  0  0  0  0
 28 27  1  0  0  0  0
 28 22  2  0  0  0  0
 29 30  1  0  0  0  0
 29 22  1  0  0  0  0
 31 28  1  0  0  0  0
 32 31  1  0  0  0  0
M  END
>  <minimizedAffinity>
-5.66176701

>  <minimizedRMSD>
1.59830785

$$$$
