
 OpenBabel03242516413D

 34 35  0  0  0  0  0  0  0  0999 V2000
   49.1970   33.6800   42.7160 C   0  0  0  0  0  0  0  0  0  0  0  0
   49.4120   33.9980   43.7550 H   0  0  0  0  0  0  0  0  0  0  0  0
   49.9800   34.1680   42.0960 H   0  0  0  0  0  0  0  0  0  0  0  0
   47.8660   34.1740   42.2310 C   0  0  0  0  0  0  0  0  0  0  0  0
   47.5300   33.5490   41.3970 H   0  0  0  0  0  0  0  0  0  0  0  0
   47.9710   35.2300   41.8450 H   0  0  0  0  0  0  0  0  0  0  0  0
   44.8900   35.0790   44.3460 C   0  0  0  0  0  0  0  0  0  0  0  0
   45.8040   35.0430   43.2570 C   0  0  0  0  0  0  0  0  0  0  0  0
   46.9160   34.2130   43.3630 C   0  0  0  0  0  0  0  0  0  0  0  0
   47.0790   33.4830   44.4840 N   0  0  0  0  0  0  0  0  0  0  0  0
   46.1870   33.5430   45.5030 C   0  0  0  0  0  0  0  0  0  0  0  0
   45.1020   34.3340   45.4350 N   0  0  0  0  0  0  0  0  0  0  0  0
   43.7540   35.9080   44.2690 N   0  0  0  0  0  0  0  0  0  0  0  0
   45.6470   35.6390   42.3680 H   0  0  0  0  0  0  0  0  0  0  0  0
   46.3230   32.9540   46.4030 H   0  0  0  0  0  0  0  0  0  0  0  0
   43.2280   36.1670   45.1070 H   0  0  0  0  0  0  0  0  0  0  0  0
   43.4530   36.2630   43.3250 H   0  0  0  0  0  0  0  0  0  0  0  0
   49.2820   32.3190   42.5440 O   0  0  0  0  0  0  0  0  0  0  0  0
   50.8020   30.4500   41.5170 O   0  0  0  0  0  0  0  0  0  0  0  0
   50.4220   31.8980   41.3590 P   0  0  2  0  0  0  0  0  0  0  0  0
   51.7280   32.9400   41.5350 O   0  0  0  0  0  0  0  0  0  0  0  0
   51.7890   33.6360   40.8610 H   0  0  0  0  0  0  0  0  0  0  0  0
   49.7460   32.2010   39.8280 O   0  0  0  0  0  0  0  0  0  0  0  0
   49.2920   31.6790   37.6310 C   0  0  0  0  0  0  0  0  0  0  0  0
   50.2640   31.7630   38.6340 C   0  0  0  0  0  0  0  0  0  0  0  0
   51.5600   31.4100   38.3070 C   0  0  0  0  0  0  0  0  0  0  0  0
   52.2460   31.5040   39.1380 H   0  0  0  0  0  0  0  0  0  0  0  0
   51.8700   30.9910   37.0290 C   0  0  0  0  0  3  0  0  0  0  0  0
   50.9100   30.9080   36.0400 C   0  0  0  0  0  3  0  0  0  0  0  0
   49.6250   31.2550   36.3540 C   0  0  0  0  0  0  0  0  0  0  0  0
   47.9440   32.0010   37.8120 O   0  0  0  0  0  0  0  0  0  0  0  0
   47.6500   32.1620   38.7780 H   0  0  0  0  0  0  0  0  0  0  0  0
   48.6640   31.1650   35.3380 O   0  0  0  0  0  0  0  0  0  0  0  0
   47.9150   31.8590   35.2860 H   0  0  0  0  0  0  0  0  0  0  0  0
  1  2  1  0  0  0  0
  3  1  1  0  0  0  0
  4  1  1  0  0  0  0
  4  9  1  0  0  0  0
  5  4  1  0  0  0  0
  6  4  1  0  0  0  0
  7 12  1  0  0  0  0
  8  9  1  0  0  0  0
  8  7  2  0  0  0  0
  9 10  2  0  0  0  0
 10 11  1  0  0  0  0
 11 15  1  0  0  0  0
 12 11  2  0  0  0  0
 13  7  1  0  0  0  0
 13 16  1  0  0  0  0
 14  8  1  0  0  0  0
 17 13  1  0  0  0  0
 18  1  1  0  0  0  0
 20 19  2  1  0  0  0
 20 21  1  0  0  0  0
 20 18  1  0  0  0  0
 22 21  1  0  0  0  0
 23 20  1  0  0  0  0
 24 31  1  0  0  0  0
 24 25  1  0  0  0  0
 25 23  1  0  0  0  0
 26 25  2  0  0  0  0
 26 27  1  0  0  0  0
 28 26  1  0  0  0  0
 29 30  1  0  0  0  0
 29 28  2  0  0  0  0
 30 24  2  0  0  0  0
 31 32  1  0  0  0  0
 33 30  1  0  0  0  0
 34 33  1  0  0  0  0
M  END
>  <minimizedAffinity>
-4.8001523

>  <minimizedRMSD>
1.01125658

$$$$
