
 OpenBabel03242520293D

 43 45  0  0  0  0  0  0  0  0999 V2000
   45.8550   35.2120   43.1760 C   0  0  0  0  0  0  0  0  0  0  0  0
   46.6450   34.1810   43.7620 C   0  0  0  0  0  0  0  0  0  0  0  0
   46.3310   33.7660   45.0460 C   0  0  0  0  0  0  0  0  0  0  0  0
   45.2870   34.3610   45.6900 N   0  0  0  0  0  0  0  0  0  0  0  0
   44.5560   35.3340   45.1160 C   0  0  0  0  0  0  0  0  0  0  0  0
   44.8390   35.7480   43.8800 N   0  0  0  0  0  0  0  0  0  0  0  0
   46.0660   35.5660   42.1740 H   0  0  0  0  0  0  0  0  0  0  0  0
   43.7400   35.7510   45.7060 H   0  0  0  0  0  0  0  0  0  0  0  0
   47.6920   33.6750   42.9490 N   0  0  0  0  0  0  0  0  0  0  0  0
   49.0200   34.2790   42.9070 C   0  0  0  0  0  0  0  0  0  0  0  0
   49.9350   33.4400   42.0620 C   0  0  0  0  0  0  0  0  0  0  0  0
   49.3920   33.1200   40.7750 N   0  0  0  0  0  0  0  0  0  0  0  0
   48.0510   32.6260   40.7810 C   0  0  0  0  0  0  0  0  0  0  0  0
   47.4150   32.5070   42.1310 C   0  0  0  0  0  0  0  0  0  0  0  0
   49.4130   34.3180   43.9370 H   0  0  0  0  0  0  0  0  0  0  0  0
   48.8820   35.2950   42.4700 H   0  0  0  0  0  0  0  0  0  0  0  0
   50.2620   32.5530   42.6510 H   0  0  0  0  0  0  0  0  0  0  0  0
   50.8610   34.0280   41.8840 H   0  0  0  0  0  0  0  0  0  0  0  0
   50.0070   32.3690   40.3600 H   0  0  0  0  0  0  0  0  0  0  0  0
   47.4210   33.3420   40.1760 H   0  0  0  0  0  0  0  0  0  0  0  0
   47.9420   31.6480   40.2650 H   0  0  0  0  0  0  0  0  0  0  0  0
   47.8250   31.6220   42.6380 H   0  0  0  0  0  0  0  0  0  0  0  0
   46.3240   32.3870   41.9710 H   0  0  0  0  0  0  0  0  0  0  0  0
   47.1150   32.7710   45.5750 O   0  0  0  0  0  0  0  0  0  0  0  0
   45.4540   30.8740   44.7510 O   0  0  0  0  0  0  0  0  0  0  0  0
   46.4070   31.2110   45.8980 P   0  0  1  0  0  0  0  0  0  0  0  0
   47.6380   30.1240   46.0700 O   0  0  0  0  0  0  0  0  0  0  0  0
   48.0470   28.1870   47.5910 C   0  0  0  0  0  0  0  0  0  0  0  0
   47.6250   28.8090   46.4330 C   0  0  0  0  0  0  0  0  0  0  0  0
   47.0840   27.9990   45.4250 C   0  0  0  0  0  0  0  0  0  0  0  0
   46.7090   28.3580   44.4550 H   0  0  0  0  0  0  0  0  0  0  0  0
   46.9730   26.6220   45.5830 C   0  0  0  0  0  0  0  0  0  0  0  0
   47.3990   26.0220   46.7440 C   0  0  0  0  0  0  0  0  0  0  0  0
   47.9350   26.8200   47.7400 C   0  0  0  0  0  0  0  0  0  0  0  0
   48.5660   29.0700   48.5240 O   0  0  0  0  0  0  0  0  0  0  0  0
   48.1190   29.0670   49.4530 H   0  0  0  0  0  0  0  0  0  0  0  0
   48.3920   26.2820   48.9550 O   0  0  0  0  0  0  0  0  0  0  0  0
   49.3140   26.6220   49.2590 H   0  0  0  0  0  0  0  0  0  0  0  0
   45.4920   31.3990   47.3110 O   0  0  0  0  0  0  0  0  0  0  0  0
   46.2640   31.7630   48.3960 C   0  0  0  0  0  0  0  0  0  0  0  0
   47.5790   32.0630   48.0630 F   0  0  0  0  0  0  0  0  0  0  0  0
   46.2630   30.8770   49.4380 F   0  0  0  0  0  0  0  0  0  0  0  0
   45.6890   32.9450   48.8800 F   0  0  0  0  0  0  0  0  0  0  0  0
  1  2  2  0  0  0  0
  1  6  1  0  0  0  0
  2  3  1  0  0  0  0
  3 24  1  0  0  0  0
  3  4  2  0  0  0  0
  5  4  1  0  0  0  0
  5  8  1  0  0  0  0
  6  5  2  0  0  0  0
  7  1  1  0  0  0  0
  9  2  1  0  0  0  0
 10  9  1  0  0  0  0
 10 15  1  0  0  0  0
 11 17  1  0  0  0  0
 11 10  1  0  0  0  0
 12 13  1  0  0  0  0
 12 11  1  0  0  0  0
 13 14  1  0  0  0  0
 14 22  1  0  0  0  0
 14  9  1  0  0  0  0
 16 10  1  0  0  0  0
 18 11  1  0  0  0  0
 19 12  1  0  0  0  0
 20 13  1  0  0  0  0
 21 13  1  0  0  0  0
 23 14  1  0  0  0  0
 24 26  1  0  0  0  0
 26 25  2  6  0  0  0
 26 27  1  0  0  0  0
 26 39  1  0  0  0  0
 27 29  1  0  0  0  0
 28 34  1  0  0  0  0
 28 35  1  0  0  0  0
 29 28  2  0  0  0  0
 30 32  2  0  0  0  0
 30 29  1  0  0  0  0
 31 30  1  0  0  0  0
 32 33  1  0  0  0  0
 33 34  2  0  0  0  0
 34 37  1  0  0  0  0
 35 36  1  0  0  0  0
 37 38  1  0  0  0  0
 39 40  1  0  0  0  0
 40 43  1  0  0  0  0
 40 42  1  0  0  0  0
 41 40  1  0  0  0  0
M  END
>  <minimizedAffinity>
-5.60638189

>  <minimizedRMSD>
1.11789787

$$$$
