
 OpenBabel03252505283D

 26 27  0  0  0  0  0  0  0  0999 V2000
   46.9080   32.3640   48.4190 O   0  0  0  0  0  0  0  0  0  0  0  0
   45.8640   32.5380   47.3130 P   0  0  1  0  0  0  0  0  0  0  0  0
   44.5590   33.4700   47.8240 O   0  0  0  0  0  0  0  0  0  0  0  0
   44.8600   34.3960   48.0430 H   0  0  0  0  0  0  0  0  0  0  0  0
   46.6700   33.2670   46.0190 O   0  0  0  0  0  0  0  0  0  0  0  0
   44.4640   35.6650   44.6000 C   0  0  0  0  0  0  0  0  0  0  0  0
   44.8610   35.7620   43.2420 C   0  0  0  0  0  0  0  0  0  0  0  0
   45.9280   34.9540   42.8520 C   0  0  0  0  0  0  0  0  0  0  0  0
   46.5010   34.1470   43.7830 N   0  0  0  0  0  0  0  0  0  0  0  0
   46.0920   34.0860   45.0640 C   0  0  0  0  0  0  0  0  0  0  0  0
   45.0620   34.8550   45.4750 N   0  0  0  0  0  0  0  0  0  0  0  0
   43.6270   36.3100   44.8750 H   0  0  0  0  0  0  0  0  0  0  0  0
   44.3860   36.4110   42.5310 H   0  0  0  0  0  0  0  0  0  0  0  0
   46.2790   34.9800   41.8310 H   0  0  0  0  0  0  0  0  0  0  0  0
   45.2910   30.9930   46.9430 O   0  0  0  0  0  0  0  0  0  0  0  0
   45.9230   28.8660   47.5650 C   0  0  0  0  0  0  0  0  0  0  0  0
   46.0460   29.8910   46.6430 C   0  0  0  0  0  0  0  0  0  0  0  0
   46.8880   29.6880   45.5700 C   0  0  0  0  0  0  0  0  0  0  0  0
   46.9430   30.5290   44.8800 H   0  0  0  0  0  0  0  0  0  0  0  0
   47.5890   28.5120   45.4030 C   0  0  0  0  0  0  0  0  0  0  0  0
   47.4750   27.4750   46.3190 C   0  0  0  0  0  0  0  0  0  0  0  0
   46.6240   27.6780   47.4090 C   0  0  0  0  0  0  0  0  0  0  0  0
   45.1220   28.8910   48.7110 O   0  0  0  0  0  0  0  0  0  0  0  0
   45.5070   29.2620   49.5810 H   0  0  0  0  0  0  0  0  0  0  0  0
   46.5410   26.6210   48.2950 O   0  0  0  0  0  0  0  0  0  0  0  0
   46.7260   26.7010   49.2850 H   0  0  0  0  0  0  0  0  0  0  0  0
  2  3  1  0  0  0  0
  2  1  2  1  0  0  0
  3  4  1  0  0  0  0
  5  2  1  0  0  0  0
  6 12  1  0  0  0  0
  6 11  1  0  0  0  0
  7  6  2  0  0  0  0
  8  7  1  0  0  0  0
  8  9  2  0  0  0  0
  9 10  1  0  0  0  0
 10 11  2  0  0  0  0
 10  5  1  0  0  0  0
 13  7  1  0  0  0  0
 14  8  1  0  0  0  0
 15  2  1  0  0  0  0
 16 23  1  0  0  0  0
 17 15  1  0  0  0  0
 17 16  2  0  0  0  0
 18 17  1  0  0  0  0
 19 18  1  0  0  0  0
 20 18  2  0  0  0  0
 20 21  1  0  0  0  0
 21 22  2  0  0  0  0
 22 16  1  0  0  0  0
 22 25  1  0  0  0  0
 23 24  1  0  0  0  0
 25 26  1  0  0  0  0
M  END
>  <minimizedAffinity>
-5.02298546

>  <minimizedRMSD>
2.35584021

$$$$
