
 OpenBabel03252509273D

 32 34  0  0  1  0  0  0  0  0999 V2000
   46.4910   34.9750   41.8870 C   0  0  1  0  0  0  0  0  0  0  0  0
   47.9690   35.4610   41.8550 C   0  0  0  0  0  0  0  0  0  0  0  0
   47.4450   34.0920   41.3490 C   0  0  2  0  0  0  0  0  0  0  0  0
   45.8200   35.5940   41.2670 H   0  0  0  0  0  0  0  0  0  0  0  0
   48.5310   35.5000   42.7870 H   0  0  0  0  0  0  0  0  0  0  0  0
   48.1840   36.2170   41.0900 H   0  0  0  0  0  0  0  0  0  0  0  0
   47.9090   33.2480   41.9450 H   0  0  0  0  0  0  0  0  0  0  0  0
   44.7010   35.3880   45.1550 C   0  0  0  0  0  0  0  0  0  0  0  0
   45.1180   35.6770   43.8250 C   0  0  0  0  0  0  0  0  0  0  0  0
   46.0190   34.8050   43.3100 C   0  0  0  0  0  0  0  0  0  0  0  0
   46.4900   33.7240   44.0320 N   0  0  0  0  0  0  0  0  0  0  0  0
   46.0600   33.4950   45.2940 C   0  0  0  0  0  0  0  0  0  0  0  0
   45.1590   34.3330   45.8550 N   0  0  0  0  0  0  0  0  0  0  0  0
   43.9840   36.0550   45.6010 H   0  0  0  0  0  0  0  0  0  0  0  0
   46.5200   32.6150   45.7220 H   0  0  0  0  0  0  0  0  0  0  0  0
   44.6550   36.7930   43.1010 N   0  0  0  0  0  0  0  0  0  0  0  0
   43.6400   37.0520   43.1990 H   0  0  0  0  0  0  0  0  0  0  0  0
   45.3440   37.3190   42.4960 H   0  0  0  0  0  0  0  0  0  0  0  0
   47.4880   33.7990   39.8730 C   0  0  0  0  0  0  0  0  0  0  0  0
   46.4470   33.5210   39.5890 H   0  0  0  0  0  0  0  0  0  0  0  0
   47.6950   34.7570   39.3420 H   0  0  0  0  0  0  0  0  0  0  0  0
   48.6490   31.8500   40.4570 C   0  0  0  0  0  0  0  0  0  0  0  0
   48.4700   32.8060   39.4470 C   0  0  0  0  0  0  0  0  0  0  0  0
   49.2120   32.6380   38.2990 C   0  0  0  0  0  0  0  0  0  0  0  0
   49.0220   33.4050   37.5800 H   0  0  0  0  0  0  0  0  0  0  0  0
   50.0890   31.5940   38.1330 C   0  0  0  0  0  3  0  0  0  0  0  0
   50.2590   30.6490   39.1420 C   0  0  0  0  0  3  0  0  0  0  0  0
   49.5300   30.7940   40.2940 C   0  0  0  0  0  0  0  0  0  0  0  0
   48.0100   31.8090   41.7000 O   0  0  0  0  0  0  0  0  0  0  0  0
   47.0100   31.6250   41.6780 H   0  0  0  0  0  0  0  0  0  0  0  0
   49.7700   29.8040   41.2370 O   0  0  0  0  0  0  0  0  0  0  0  0
   49.0840   29.7460   42.0010 H   0  0  0  0  0  0  0  0  0  0  0  0
  1  4  1  6  0  0  0
  1 10  1  0  0  0  0
  2  1  1  0  0  0  0
  2  5  1  0  0  0  0
  3  2  1  0  0  0  0
  3  1  1  0  0  0  0
  3  7  1  1  0  0  0
  6  2  1  0  0  0  0
  8 14  1  0  0  0  0
  8 13  1  0  0  0  0
  9  8  2  0  0  0  0
 10  9  1  0  0  0  0
 10 11  2  0  0  0  0
 11 12  1  0  0  0  0
 12 15  1  0  0  0  0
 12 13  2  0  0  0  0
 16 17  1  0  0  0  0
 16  9  1  0  0  0  0
 18 16  1  0  0  0  0
 19  3  1  0  0  0  0
 20 19  1  0  0  0  0
 21 19  1  0  0  0  0
 22 29  1  0  0  0  0
 23 19  1  0  0  0  0
 23 22  2  0  0  0  0
 24 23  1  0  0  0  0
 25 24  1  0  0  0  0
 26 24  2  0  0  0  0
 26 27  1  0  0  0  0
 27 28  2  0  0  0  0
 28 22  1  0  0  0  0
 28 31  1  0  0  0  0
 30 29  1  0  0  0  0
 31 32  1  0  0  0  0
M  END
>  <minimizedAffinity>
-4.73803568

>  <minimizedRMSD>
0.303708494

$$$$
