
 OpenBabel03242522513D

 28 29  0  0  0  0  0  0  0  0999 V2000
   45.5060   30.7950   47.5730 O   0  0  0  0  0  0  0  0  0  0  0  0
   45.8470   32.0900   48.3580 P   0  0  2  0  0  0  0  0  0  0  0  0
   45.2750   31.8280   49.9180 O   0  0  0  0  0  0  0  0  0  0  0  0
   45.9950   31.9650   50.5830 H   0  0  0  0  0  0  0  0  0  0  0  0
   45.0030   33.3570   47.6290 O   0  0  0  0  0  0  0  0  0  0  0  0
   46.6870   33.5230   44.4110 C   0  0  0  0  0  0  0  0  0  0  0  0
   46.3230   33.1040   45.7140 C   0  0  0  0  0  0  0  0  0  0  0  0
   45.3270   33.7970   46.3620 C   0  0  0  0  0  0  0  0  0  0  0  0
   44.7510   34.8350   45.7240 N   0  0  0  0  0  0  0  0  0  0  0  0
   45.0910   35.2330   44.4950 C   0  0  0  0  0  0  0  0  0  0  0  0
   46.0600   34.5800   43.8340 N   0  0  0  0  0  0  0  0  0  0  0  0
   47.4590   33.0430   43.8220 H   0  0  0  0  0  0  0  0  0  0  0  0
   46.8970   32.2710   46.0260 H   0  0  0  0  0  0  0  0  0  0  0  0
   44.5510   36.0880   44.0850 H   0  0  0  0  0  0  0  0  0  0  0  0
   47.4840   32.3340   48.3250 O   0  0  0  0  0  0  0  0  0  0  0  0
   48.5380   31.5730   48.6720 C   0  0  0  0  0  0  0  0  0  0  0  0
   49.4390   32.2580   49.3520 O   0  0  0  0  0  0  0  0  0  0  0  0
   49.5610   29.5950   49.7410 C   0  0  0  0  0  0  0  0  0  0  0  0
   49.1660   30.2080   48.6100 C   0  0  0  0  0  0  0  0  0  0  0  0
   49.3850   29.5310   47.3990 C   0  0  0  0  0  0  0  0  0  0  0  0
   49.0280   30.1110   46.5280 H   0  0  0  0  0  0  0  0  0  0  0  0
   49.9610   28.3020   47.2270 C   0  0  0  0  0  3  0  0  0  0  0  0
   50.3330   27.7430   48.4020 C   0  0  0  0  0  3  0  0  0  0  0  0
   50.1590   28.3290   49.6220 C   0  0  0  0  0  0  0  0  0  0  0  0
   49.4490   30.0630   51.0400 O   0  0  0  0  0  0  0  0  0  0  0  0
   49.1250   29.5100   51.8230 H   0  0  0  0  0  0  0  0  0  0  0  0
   50.5760   27.6710   50.7680 O   0  0  0  0  0  0  0  0  0  0  0  0
   51.0510   28.2150   51.4810 H   0  0  0  0  0  0  0  0  0  0  0  0
  2  1  2  6  0  0  0
  2  3  1  0  0  0  0
  3  4  1  0  0  0  0
  5  2  1  0  0  0  0
  6  7  1  0  0  0  0
  7 13  1  0  0  0  0
  7  8  2  0  0  0  0
  8  5  1  0  0  0  0
  9  8  1  0  0  0  0
 10  9  2  0  0  0  0
 11  6  2  0  0  0  0
 11 10  1  0  0  0  0
 12  6  1  0  0  0  0
 14 10  1  0  0  0  0
 15  2  1  0  0  0  0
 15 16  1  0  0  0  0
 16 17  2  0  0  0  0
 18 25  1  0  0  0  0
 19 16  1  0  0  0  0
 19 18  2  0  0  0  0
 20 19  1  0  0  0  0
 21 20  1  0  0  0  0
 22 20  2  0  0  0  0
 22 23  1  0  0  0  0
 23 24  2  0  0  0  0
 24 18  1  0  0  0  0
 24 27  1  0  0  0  0
 25 26  1  0  0  0  0
 27 28  1  0  0  0  0
M  END
>  <minimizedAffinity>
-5.19013119

>  <minimizedRMSD>
0.28619203

$$$$
