
 OpenBabel03242514333D

 28 29  0  0  0  0  0  0  0  0999 V2000
   49.4880   35.5300   42.7580 O   0  0  0  0  0  0  0  0  0  0  0  0
   49.0870   34.3070   41.9890 P   0  0  1  0  0  0  0  0  0  0  0  0
   50.4660   33.3800   41.7460 O   0  0  0  0  0  0  0  0  0  0  0  0
   51.2490   33.9860   41.6900 H   0  0  0  0  0  0  0  0  0  0  0  0
   47.9100   33.4230   42.8620 O   0  0  0  0  0  0  0  0  0  0  0  0
   46.2370   35.1290   42.8280 C   0  0  0  0  0  0  0  0  0  0  0  0
   46.8440   34.0720   43.4860 C   0  0  0  0  0  0  0  0  0  0  0  0
   46.3600   33.7080   44.7450 C   0  0  0  0  0  0  0  0  0  0  0  0
   45.3140   34.4140   45.2580 N   0  0  0  0  0  0  0  0  0  0  0  0
   44.7510   35.4280   44.5970 C   0  0  0  0  0  0  0  0  0  0  0  0
   45.2140   35.7740   43.3970 N   0  0  0  0  0  0  0  0  0  0  0  0
   46.5590   35.4710   41.8450 H   0  0  0  0  0  0  0  0  0  0  0  0
   46.8450   32.8720   45.2570 H   0  0  0  0  0  0  0  0  0  0  0  0
   43.9360   35.8740   45.1500 H   0  0  0  0  0  0  0  0  0  0  0  0
   48.4740   34.7760   40.5100 O   0  0  0  0  0  0  0  0  0  0  0  0
   48.0030   33.9790   39.5310 C   0  0  0  0  0  0  0  0  0  0  0  0
   46.7280   33.7880   39.6480 O   0  0  0  0  0  0  0  0  0  0  0  0
   49.2390   32.1280   38.4250 C   0  0  0  0  0  0  0  0  0  0  0  0
   48.4740   33.2350   38.3260 C   0  0  0  0  0  0  0  0  0  0  0  0
   48.0970   33.7160   37.0660 C   0  0  0  0  0  0  0  0  0  0  0  0
   47.4720   34.6200   37.0080 H   0  0  0  0  0  0  0  0  0  0  0  0
   48.4570   33.1270   35.8860 C   0  0  0  0  0  3  0  0  0  0  0  0
   49.2350   32.0010   35.9640 C   0  0  0  0  0  3  0  0  0  0  0  0
   49.6010   31.5350   37.2080 C   0  0  0  0  0  0  0  0  0  0  0  0
   49.6510   31.5940   39.6290 O   0  0  0  0  0  0  0  0  0  0  0  0
   48.9790   31.1130   40.2410 H   0  0  0  0  0  0  0  0  0  0  0  0
   50.3980   30.3840   37.3290 O   0  0  0  0  0  0  0  0  0  0  0  0
   50.1380   29.7020   38.0310 H   0  0  0  0  0  0  0  0  0  0  0  0
  2  1  2  1  0  0  0
  2  5  1  0  0  0  0
  3  2  1  0  0  0  0
  4  3  1  0  0  0  0
  5  7  1  0  0  0  0
  6 11  2  0  0  0  0
  6  7  1  0  0  0  0
  7  8  2  0  0  0  0
  8 13  1  0  0  0  0
  8  9  1  0  0  0  0
 10 14  1  0  0  0  0
 10  9  2  0  0  0  0
 11 10  1  0  0  0  0
 12  6  1  0  0  0  0
 15  2  1  0  0  0  0
 16 17  2  0  0  0  0
 16 15  1  0  0  0  0
 18 25  1  0  0  0  0
 19 18  1  0  0  0  0
 19 16  1  0  0  0  0
 20 19  2  0  0  0  0
 21 20  1  0  0  0  0
 22 23  2  0  0  0  0
 22 20  1  0  0  0  0
 23 24  1  0  0  0  0
 24 27  1  0  0  0  0
 24 18  2  0  0  0  0
 25 26  1  0  0  0  0
 27 28  1  0  0  0  0
M  END
>  <minimizedAffinity>
-4.62943029

>  <minimizedRMSD>
1.18696439

$$$$
