
 OpenBabel03242513433D

 42 45  0  0  0  0  0  0  0  0999 V2000
   40.8820   31.6580   40.7200 C   0  0  0  0  0  0  0  0  0  0  0  0
   40.9380   30.8810   41.8650 C   0  0  0  0  0  0  0  0  0  0  0  0
   41.8970   31.1830   42.8010 C   0  0  0  0  0  0  0  0  0  0  0  0
   42.7980   32.2180   42.6490 C   0  0  0  0  0  0  0  0  0  0  0  0
   43.8180   32.7550   43.3480 N   0  0  0  0  0  0  0  0  0  0  0  0
   44.3550   33.8000   42.6670 C   0  0  0  0  0  0  0  0  0  0  0  0
   43.6520   33.9080   41.5310 N   0  0  0  0  0  0  0  0  0  0  0  0
   42.6930   32.9490   41.4960 C   0  0  0  0  0  0  0  0  0  0  0  0
   41.7640   32.7040   40.5250 C   0  0  0  0  0  0  0  0  0  0  0  0
   40.1270   31.4130   39.9920 H   0  0  0  0  0  0  0  0  0  0  0  0
   41.9740   30.5970   43.7170 H   0  0  0  0  0  0  0  0  0  0  0  0
   44.1340   32.4020   44.2790 H   0  0  0  0  0  0  0  0  0  0  0  0
   45.1950   34.4250   42.9940 H   0  0  0  0  0  0  0  0  0  0  0  0
   38.0740   28.9190   43.0110 C   0  0  0  0  0  0  0  0  0  0  0  0
   38.2730   27.6900   42.4050 C   0  0  0  0  0  0  0  0  0  0  0  0
   39.4150   27.5580   41.5940 C   0  0  0  0  0  0  0  0  0  0  0  0
   40.2610   28.6100   41.4380 N   0  0  0  0  0  0  0  0  0  0  0  0
   40.0050   29.7830   42.0600 C   0  0  0  0  0  0  0  0  0  0  0  0
   38.9340   29.9450   42.8340 N   0  0  0  0  0  0  0  0  0  0  0  0
   37.2380   29.1430   43.6510 H   0  0  0  0  0  0  0  0  0  0  0  0
   39.5650   26.6010   41.1270 H   0  0  0  0  0  0  0  0  0  0  0  0
   37.2820   26.6070   42.6460 C   0  0  0  0  0  0  0  0  0  0  0  0
   36.5510   26.5320   41.4870 F   0  0  0  0  0  0  0  0  0  0  0  0
   36.4770   26.9910   43.6800 F   0  0  0  0  0  0  0  0  0  0  0  0
   37.9750   25.4390   42.9440 F   0  0  0  0  0  0  0  0  0  0  0  0
   41.7160   33.4890   39.3790 O   0  0  0  0  0  0  0  0  0  0  0  0
   42.5740   31.6480   37.7570 O   0  0  0  0  0  0  0  0  0  0  0  0
   41.6660   32.8890   37.8120 P   0  0  2  0  0  0  0  0  0  0  0  0
   42.3600   34.0360   36.7860 O   0  0  0  0  0  0  0  0  0  0  0  0
   41.9350   34.0170   35.8900 H   0  0  0  0  0  0  0  0  0  0  0  0
   40.1270   32.4770   37.2720 O   0  0  0  0  0  0  0  0  0  0  0  0
   38.3290   32.4770   39.0040 C   0  0  0  0  0  0  0  0  0  0  0  0
   39.1660   31.9090   38.0790 C   0  0  0  0  0  0  0  0  0  0  0  0
   39.1000   30.5290   37.8540 C   0  0  0  0  0  0  0  0  0  0  0  0
   39.6960   29.9480   37.1580 H   0  0  0  0  0  0  0  0  0  0  0  0
   38.1960   29.7260   38.5550 C   0  0  0  0  0  3  0  0  0  0  0  0
   37.3650   30.3100   39.4780 C   0  0  0  0  0  3  0  0  0  0  0  0
   37.4490   31.6590   39.6800 C   0  0  0  0  0  0  0  0  0  0  0  0
   38.4890   33.8350   39.1340 O   0  0  0  0  0  0  0  0  0  0  0  0
   37.7500   34.5230   39.1940 H   0  0  0  0  0  0  0  0  0  0  0  0
   36.6300   32.2950   40.6020 O   0  0  0  0  0  0  0  0  0  0  0  0
   36.2770   33.2280   40.4930 H   0  0  0  0  0  0  0  0  0  0  0  0
  1  2  1  0  0  0  0
  2 18  1  0  0  0  0
  2  3  2  0  0  0  0
  3 11  1  0  0  0  0
  4  3  1  0  0  0  0
  4  5  1  0  0  0  0
  5 12  1  0  0  0  0
  6 13  1  0  0  0  0
  6  5  1  0  0  0  0
  7  6  2  0  0  0  0
  8  7  1  0  0  0  0
  8  4  2  0  0  0  0
  9  1  2  0  0  0  0
  9  8  1  0  0  0  0
 10  1  1  0  0  0  0
 14 20  1  0  0  0  0
 15 22  1  0  0  0  0
 15 14  2  0  0  0  0
 16 15  1  0  0  0  0
 17 16  2  0  0  0  0
 17 18  1  0  0  0  0
 18 19  2  0  0  0  0
 19 14  1  0  0  0  0
 21 16  1  0  0  0  0
 22 25  1  0  0  0  0
 22 24  1  0  0  0  0
 23 22  1  0  0  0  0
 26  9  1  0  0  0  0
 28 27  2  6  0  0  0
 28 26  1  0  0  0  0
 29 28  1  0  0  0  0
 30 29  1  0  0  0  0
 31 28  1  0  0  0  0
 31 33  1  0  0  0  0
 32 39  1  0  0  0  0
 32 38  1  0  0  0  0
 33 32  2  0  0  0  0
 34 33  1  0  0  0  0
 34 36  2  0  0  0  0
 35 34  1  0  0  0  0
 36 37  1  0  0  0  0
 37 38  2  0  0  0  0
 38 41  1  0  0  0  0
 39 40  1  0  0  0  0
 42 41  1  0  0  0  0
M  END
>  <minimizedAffinity>
-7.28091812

$$$$

 OpenBabel03242513433D

 42 45  0  0  0  0  0  0  0  0999 V2000
   37.7860   28.9710   41.4820 C   0  0  0  0  0  0  0  0  0  0  0  0
   37.1530   27.8940   40.8850 C   0  0  0  0  0  0  0  0  0  0  0  0
   37.5370   26.6300   41.2660 C   0  0  0  0  0  0  0  0  0  0  0  0
   38.5160   26.3940   42.2090 C   0  0  0  0  0  0  0  0  0  0  0  0
   39.1030   25.3230   42.7830 N   0  0  0  0  0  0  0  0  0  0  0  0
   40.0410   25.7260   43.6790 C   0  0  0  0  0  0  0  0  0  0  0  0
   40.0300   27.0660   43.6560 N   0  0  0  0  0  0  0  0  0  0  0  0
   39.1050   27.4990   42.7630 C   0  0  0  0  0  0  0  0  0  0  0  0
   38.7720   28.7820   42.4320 C   0  0  0  0  0  0  0  0  0  0  0  0
   37.4780   29.9560   41.1770 H   0  0  0  0  0  0  0  0  0  0  0  0
   37.0640   25.7550   40.8210 H   0  0  0  0  0  0  0  0  0  0  0  0
   38.8560   24.3340   42.5560 H   0  0  0  0  0  0  0  0  0  0  0  0
   40.6730   25.0740   44.2930 H   0  0  0  0  0  0  0  0  0  0  0  0
   34.1440   29.1160   39.2080 C   0  0  0  0  0  0  0  0  0  0  0  0
   34.1820   28.4700   37.9840 C   0  0  0  0  0  0  0  0  0  0  0  0
   35.2690   27.6060   37.7540 C   0  0  0  0  0  0  0  0  0  0  0  0
   36.2160   27.4390   38.7140 N   0  0  0  0  0  0  0  0  0  0  0  0
   36.1160   28.1030   39.8880 C   0  0  0  0  0  0  0  0  0  0  0  0
   35.1030   28.9290   40.1400 N   0  0  0  0  0  0  0  0  0  0  0  0
   33.3660   29.8010   39.5000 H   0  0  0  0  0  0  0  0  0  0  0  0
   35.2930   27.1060   36.8030 H   0  0  0  0  0  0  0  0  0  0  0  0
   33.0910   28.7270   37.0070 C   0  0  0  0  0  0  0  0  0  0  0  0
   33.6970   29.3750   35.9600 F   0  0  0  0  0  0  0  0  0  0  0  0
   32.1770   29.5510   37.5990 F   0  0  0  0  0  0  0  0  0  0  0  0
   32.5240   27.5070   36.6540 F   0  0  0  0  0  0  0  0  0  0  0  0
   39.4130   29.8570   43.0360 O   0  0  0  0  0  0  0  0  0  0  0  0
   41.2320   30.1300   41.2000 O   0  0  0  0  0  0  0  0  0  0  0  0
   40.4320   30.9290   42.2440 P   0  0  2  0  0  0  0  0  0  0  0  0
   41.5540   31.5150   43.3610 O   0  0  0  0  0  0  0  0  0  0  0  0
   41.8160   32.4470   43.1490 H   0  0  0  0  0  0  0  0  0  0  0  0
   39.6440   32.2060   41.4820 O   0  0  0  0  0  0  0  0  0  0  0  0
   39.7300   32.2240   38.9870 C   0  0  0  0  0  0  0  0  0  0  0  0
   39.1210   32.1260   40.2110 C   0  0  0  0  0  0  0  0  0  0  0  0
   37.7390   31.9090   40.2700 C   0  0  0  0  0  0  0  0  0  0  0  0
   37.1280   31.8110   41.1610 H   0  0  0  0  0  0  0  0  0  0  0  0
   36.9770   31.7900   39.1050 C   0  0  0  0  0  3  0  0  0  0  0  0
   37.6020   31.8910   37.8870 C   0  0  0  0  0  3  0  0  0  0  0  0
   38.9520   32.1030   37.8550 C   0  0  0  0  0  0  0  0  0  0  0  0
   41.0860   32.4370   39.0610 O   0  0  0  0  0  0  0  0  0  0  0  0
   41.7960   31.9760   38.5070 H   0  0  0  0  0  0  0  0  0  0  0  0
   39.6290   32.2110   36.6500 O   0  0  0  0  0  0  0  0  0  0  0  0
   40.5690   31.8950   36.5010 H   0  0  0  0  0  0  0  0  0  0  0  0
  1  9  1  0  0  0  0
  2  3  1  0  0  0  0
  2  1  2  0  0  0  0
  3  4  2  0  0  0  0
  4  8  1  0  0  0  0
  4  5  1  0  0  0  0
  5  6  1  0  0  0  0
  6 13  1  0  0  0  0
  7  6  2  0  0  0  0
  8  7  1  0  0  0  0
  9  8  2  0  0  0  0
  9 26  1  0  0  0  0
 10  1  1  0  0  0  0
 11  3  1  0  0  0  0
 12  5  1  0  0  0  0
 14 20  1  0  0  0  0
 14 19  1  0  0  0  0
 15 14  2  0  0  0  0
 16 15  1  0  0  0  0
 16 17  2  0  0  0  0
 17 18  1  0  0  0  0
 18 19  2  0  0  0  0
 18  2  1  0  0  0  0
 21 16  1  0  0  0  0
 22 24  1  0  0  0  0
 22 15  1  0  0  0  0
 23 22  1  0  0  0  0
 25 22  1  0  0  0  0
 28 27  2  6  0  0  0
 28 26  1  0  0  0  0
 28 29  1  0  0  0  0
 30 29  1  0  0  0  0
 31 28  1  0  0  0  0
 32 39  1  0  0  0  0
 32 33  1  0  0  0  0
 33 34  2  0  0  0  0
 33 31  1  0  0  0  0
 34 35  1  0  0  0  0
 36 34  1  0  0  0  0
 37 36  2  0  0  0  0
 38 37  1  0  0  0  0
 38 32  2  0  0  0  0
 40 39  1  0  0  0  0
 41 38  1  0  0  0  0
 42 41  1  0  0  0  0
M  END
>  <minimizedAffinity>
-6.79453897

$$$$

 OpenBabel03242513433D

 42 45  0  0  0  0  0  0  0  0999 V2000
   35.9850   29.8650   39.5500 C   0  0  0  0  0  0  0  0  0  0  0  0
   35.7930   28.5010   39.4180 C   0  0  0  0  0  0  0  0  0  0  0  0
   36.3960   27.6750   40.3360 C   0  0  0  0  0  0  0  0  0  0  0  0
   37.1770   28.1450   41.3720 C   0  0  0  0  0  0  0  0  0  0  0  0
   37.8820   27.6250   42.3990 N   0  0  0  0  0  0  0  0  0  0  0  0
   38.4700   28.6170   43.1140 C   0  0  0  0  0  0  0  0  0  0  0  0
   38.1220   29.7670   42.5190 N   0  0  0  0  0  0  0  0  0  0  0  0
   37.3300   29.5030   41.4490 C   0  0  0  0  0  0  0  0  0  0  0  0
   36.7600   30.3810   40.5710 C   0  0  0  0  0  0  0  0  0  0  0  0
   35.5080   30.5040   38.8260 H   0  0  0  0  0  0  0  0  0  0  0  0
   36.2700   26.5940   40.2690 H   0  0  0  0  0  0  0  0  0  0  0  0
   37.9510   26.6020   42.5960 H   0  0  0  0  0  0  0  0  0  0  0  0
   39.1010   28.4900   44.0020 H   0  0  0  0  0  0  0  0  0  0  0  0
   34.4260   26.2510   36.8820 C   0  0  0  0  0  0  0  0  0  0  0  0
   33.4140   27.0020   36.3080 C   0  0  0  0  0  0  0  0  0  0  0  0
   33.2180   28.2990   36.8180 C   0  0  0  0  0  0  0  0  0  0  0  0
   34.0040   28.7570   37.8260 N   0  0  0  0  0  0  0  0  0  0  0  0
   34.9750   27.9680   38.3410 C   0  0  0  0  0  0  0  0  0  0  0  0
   35.1900   26.7370   37.8840 N   0  0  0  0  0  0  0  0  0  0  0  0
   34.6720   25.2470   36.5800 H   0  0  0  0  0  0  0  0  0  0  0  0
   32.4310   28.8780   36.3680 H   0  0  0  0  0  0  0  0  0  0  0  0
   32.6140   26.4000   35.2090 C   0  0  0  0  0  0  0  0  0  0  0  0
   31.3080   26.6800   35.5260 F   0  0  0  0  0  0  0  0  0  0  0  0
   32.8170   25.0500   35.2260 F   0  0  0  0  0  0  0  0  0  0  0  0
   33.0290   26.9630   34.0060 F   0  0  0  0  0  0  0  0  0  0  0  0
   36.9580   31.7500   40.7110 O   0  0  0  0  0  0  0  0  0  0  0  0
   38.1450   34.0470   40.4430 O   0  0  0  0  0  0  0  0  0  0  0  0
   38.0290   32.6580   39.7910 P   0  0  2  0  0  0  0  0  0  0  0  0
   37.3420   32.8990   38.2680 O   0  0  0  0  0  0  0  0  0  0  0  0
   38.0400   32.9460   37.5640 H   0  0  0  0  0  0  0  0  0  0  0  0
   39.5640   31.9840   39.6400 O   0  0  0  0  0  0  0  0  0  0  0  0
   41.0560   33.0540   37.9490 C   0  0  0  0  0  0  0  0  0  0  0  0
   40.6650   32.6910   39.2110 C   0  0  0  0  0  0  0  0  0  0  0  0
   41.4580   33.0590   40.3050 C   0  0  0  0  0  0  0  0  0  0  0  0
   41.2730   32.8430   41.3520 H   0  0  0  0  0  0  0  0  0  0  0  0
   42.6370   33.7890   40.1280 C   0  0  0  0  0  3  0  0  0  0  0  0
   43.0150   34.1450   38.8570 C   0  0  0  0  0  3  0  0  0  0  0  0
   42.2240   33.7730   37.8060 C   0  0  0  0  0  0  0  0  0  0  0  0
   40.1970   32.6350   36.9620 O   0  0  0  0  0  0  0  0  0  0  0  0
   39.8740   33.1830   36.1760 H   0  0  0  0  0  0  0  0  0  0  0  0
   42.5640   34.1090   36.5040 O   0  0  0  0  0  0  0  0  0  0  0  0
   41.8980   34.3160   35.7830 H   0  0  0  0  0  0  0  0  0  0  0  0
  1  9  1  0  0  0  0
  2  1  2  0  0  0  0
  2  3  1  0  0  0  0
  3  4  2  0  0  0  0
  4  8  1  0  0  0  0
  4  5  1  0  0  0  0
  5 12  1  0  0  0  0
  5  6  1  0  0  0  0
  6 13  1  0  0  0  0
  7  6  2  0  0  0  0
  8  7  1  0  0  0  0
  9 26  1  0  0  0  0
  9  8  2  0  0  0  0
 10  1  1  0  0  0  0
 11  3  1  0  0  0  0
 14 19  1  0  0  0  0
 15 16  1  0  0  0  0
 15 14  2  0  0  0  0
 16 17  2  0  0  0  0
 17 18  1  0  0  0  0
 18  2  1  0  0  0  0
 19 18  2  0  0  0  0
 20 14  1  0  0  0  0
 21 16  1  0  0  0  0
 22 24  1  0  0  0  0
 22 23  1  0  0  0  0
 22 15  1  0  0  0  0
 25 22  1  0  0  0  0
 28 27  2  1  0  0  0
 28 26  1  0  0  0  0
 29 28  1  0  0  0  0
 30 29  1  0  0  0  0
 31 28  1  0  0  0  0
 32 33  1  0  0  0  0
 33 31  1  0  0  0  0
 33 34  2  0  0  0  0
 34 35  1  0  0  0  0
 36 34  1  0  0  0  0
 37 36  2  0  0  0  0
 38 32  2  0  0  0  0
 38 37  1  0  0  0  0
 39 32  1  0  0  0  0
 40 39  1  0  0  0  0
 41 38  1  0  0  0  0
 42 41  1  0  0  0  0
M  END
>  <minimizedAffinity>
-6.78030825

$$$$

 OpenBabel03242513433D

 42 45  0  0  0  0  0  0  0  0999 V2000
   39.6170   29.4930   38.7830 C   0  0  0  0  0  0  0  0  0  0  0  0
   39.8780   28.1460   38.6000 C   0  0  0  0  0  0  0  0  0  0  0  0
   40.8940   27.7970   37.7430 C   0  0  0  0  0  0  0  0  0  0  0  0
   41.6560   28.7260   37.0630 C   0  0  0  0  0  0  0  0  0  0  0  0
   42.6810   28.7170   36.1860 N   0  0  0  0  0  0  0  0  0  0  0  0
   43.0250   29.9880   35.8530 C   0  0  0  0  0  0  0  0  0  0  0  0
   42.1980   30.7920   36.5360 N   0  0  0  0  0  0  0  0  0  0  0  0
   41.3500   30.0420   37.2840 C   0  0  0  0  0  0  0  0  0  0  0  0
   40.3550   30.4580   38.1230 C   0  0  0  0  0  0  0  0  0  0  0  0
   38.8200   29.7550   39.4570 H   0  0  0  0  0  0  0  0  0  0  0  0
   41.1320   26.7480   37.5710 H   0  0  0  0  0  0  0  0  0  0  0  0
   43.1320   27.8460   35.8280 H   0  0  0  0  0  0  0  0  0  0  0  0
   43.8230   30.2840   35.1620 H   0  0  0  0  0  0  0  0  0  0  0  0
   37.0510   26.2280   39.9010 C   0  0  0  0  0  0  0  0  0  0  0  0
   37.6620   25.2240   40.6320 C   0  0  0  0  0  0  0  0  0  0  0  0
   39.0690   25.2260   40.6630 C   0  0  0  0  0  0  0  0  0  0  0  0
   39.7590   26.1860   39.9940 N   0  0  0  0  0  0  0  0  0  0  0  0
   39.0970   27.1390   39.3000 C   0  0  0  0  0  0  0  0  0  0  0  0
   37.7680   27.1670   39.2470 N   0  0  0  0  0  0  0  0  0  0  0  0
   35.9830   26.3320   39.8010 H   0  0  0  0  0  0  0  0  0  0  0  0
   39.5390   24.4440   41.2320 H   0  0  0  0  0  0  0  0  0  0  0  0
   36.8070   24.2230   41.3250 C   0  0  0  0  0  0  0  0  0  0  0  0
   37.5860   23.0980   41.4220 F   0  0  0  0  0  0  0  0  0  0  0  0
   35.7230   23.9720   40.5340 F   0  0  0  0  0  0  0  0  0  0  0  0
   36.4290   24.7480   42.5560 F   0  0  0  0  0  0  0  0  0  0  0  0
   40.1000   31.8130   38.3000 O   0  0  0  0  0  0  0  0  0  0  0  0
   40.9380   34.1610   39.0350 O   0  0  0  0  0  0  0  0  0  0  0  0
   40.6940   32.7380   39.5680 P   0  0  2  0  0  0  0  0  0  0  0  0
   42.2040   32.1250   40.0070 O   0  0  0  0  0  0  0  0  0  0  0  0
   42.3680   32.2410   40.9780 H   0  0  0  0  0  0  0  0  0  0  0  0
   39.6800   32.8140   40.9100 O   0  0  0  0  0  0  0  0  0  0  0  0
   37.4210   31.7540   40.9360 C   0  0  0  0  0  0  0  0  0  0  0  0
   38.7580   31.8400   41.2210 C   0  0  0  0  0  0  0  0  0  0  0  0
   39.3700   30.8110   41.9460 C   0  0  0  0  0  0  0  0  0  0  0  0
   40.4120   30.7450   42.2410 H   0  0  0  0  0  0  0  0  0  0  0  0
   38.6400   29.7010   42.3790 C   0  0  0  0  0  3  0  0  0  0  0  0
   37.3010   29.6300   42.0860 C   0  0  0  0  0  3  0  0  0  0  0  0
   36.7260   30.6480   41.3780 C   0  0  0  0  0  0  0  0  0  0  0  0
   36.9380   32.8240   40.2220 O   0  0  0  0  0  0  0  0  0  0  0  0
   36.3140   32.7820   39.4270 H   0  0  0  0  0  0  0  0  0  0  0  0
   35.3780   30.6210   41.0570 O   0  0  0  0  0  0  0  0  0  0  0  0
   34.9910   31.0020   40.2130 H   0  0  0  0  0  0  0  0  0  0  0  0
  1 10  1  0  0  0  0
  2  1  1  0  0  0  0
  2 18  1  0  0  0  0
  3  2  2  0  0  0  0
  4  8  2  0  0  0  0
  4  3  1  0  0  0  0
  5  4  1  0  0  0  0
  6  5  1  0  0  0  0
  6  7  2  0  0  0  0
  7  8  1  0  0  0  0
  8  9  1  0  0  0  0
  9 26  1  0  0  0  0
  9  1  2  0  0  0  0
 11  3  1  0  0  0  0
 12  5  1  0  0  0  0
 13  6  1  0  0  0  0
 14 15  1  0  0  0  0
 15 16  2  0  0  0  0
 15 22  1  0  0  0  0
 16 21  1  0  0  0  0
 17 16  1  0  0  0  0
 18 17  2  0  0  0  0
 19 18  1  0  0  0  0
 19 14  2  0  0  0  0
 20 14  1  0  0  0  0
 22 23  1  0  0  0  0
 22 25  1  0  0  0  0
 24 22  1  0  0  0  0
 26 28  1  0  0  0  0
 28 27  2  6  0  0  0
 28 29  1  0  0  0  0
 28 31  1  0  0  0  0
 29 30  1  0  0  0  0
 31 33  1  0  0  0  0
 32 33  2  0  0  0  0
 32 38  1  0  0  0  0
 33 34  1  0  0  0  0
 34 35  1  0  0  0  0
 34 36  2  0  0  0  0
 37 36  1  0  0  0  0
 38 37  2  0  0  0  0
 39 32  1  0  0  0  0
 40 39  1  0  0  0  0
 41 38  1  0  0  0  0
 42 41  1  0  0  0  0
M  END
>  <minimizedAffinity>
-6.66165543

$$$$

 OpenBabel03242513433D

 42 45  0  0  0  0  0  0  0  0999 V2000
   40.6120   29.8730   40.5760 C   0  0  0  0  0  0  0  0  0  0  0  0
   40.5310   29.0370   41.6760 C   0  0  0  0  0  0  0  0  0  0  0  0
   41.3180   29.3270   42.7640 C   0  0  0  0  0  0  0  0  0  0  0  0
   42.1790   30.4060   42.8040 C   0  0  0  0  0  0  0  0  0  0  0  0
   43.0520   30.9470   43.6790 N   0  0  0  0  0  0  0  0  0  0  0  0
   43.6330   32.0500   43.1410 C   0  0  0  0  0  0  0  0  0  0  0  0
   43.1080   32.1900   41.9150 N   0  0  0  0  0  0  0  0  0  0  0  0
   42.2150   31.1950   41.6860 C   0  0  0  0  0  0  0  0  0  0  0  0
   41.4590   30.9650   40.5710 C   0  0  0  0  0  0  0  0  0  0  0  0
   39.9910   29.6370   39.7290 H   0  0  0  0  0  0  0  0  0  0  0  0
   41.2850   28.6950   43.6510 H   0  0  0  0  0  0  0  0  0  0  0  0
   43.2390   30.5560   44.6290 H   0  0  0  0  0  0  0  0  0  0  0  0
   44.3800   32.6900   43.6240 H   0  0  0  0  0  0  0  0  0  0  0  0
   38.2780   26.3850   42.7970 C   0  0  0  0  0  0  0  0  0  0  0  0
   37.9550   25.7290   41.6200 C   0  0  0  0  0  0  0  0  0  0  0  0
   38.5330   26.2250   40.4370 C   0  0  0  0  0  0  0  0  0  0  0  0
   39.3640   27.2990   40.4870 N   0  0  0  0  0  0  0  0  0  0  0  0
   39.6360   27.8910   41.6720 C   0  0  0  0  0  0  0  0  0  0  0  0
   39.1080   27.4500   42.8110 N   0  0  0  0  0  0  0  0  0  0  0  0
   37.9000   26.1010   43.7640 H   0  0  0  0  0  0  0  0  0  0  0  0
   38.2790   25.7120   39.5260 H   0  0  0  0  0  0  0  0  0  0  0  0
   37.0340   24.5630   41.6830 C   0  0  0  0  0  0  0  0  0  0  0  0
   36.2890   24.7610   42.8190 F   0  0  0  0  0  0  0  0  0  0  0  0
   37.7890   23.4330   41.8120 F   0  0  0  0  0  0  0  0  0  0  0  0
   36.2770   24.5410   40.5170 F   0  0  0  0  0  0  0  0  0  0  0  0
   41.5480   31.8100   39.4710 O   0  0  0  0  0  0  0  0  0  0  0  0
   41.3990   34.1590   38.3700 O   0  0  0  0  0  0  0  0  0  0  0  0
   40.5950   33.1710   39.2330 P   0  0  2  0  0  0  0  0  0  0  0  0
   40.3640   33.9200   40.7290 O   0  0  0  0  0  0  0  0  0  0  0  0
   39.4770   34.3630   40.7730 H   0  0  0  0  0  0  0  0  0  0  0  0
   39.1140   32.8660   38.4960 O   0  0  0  0  0  0  0  0  0  0  0  0
   37.2970   32.0730   40.0140 C   0  0  0  0  0  0  0  0  0  0  0  0
   38.1940   31.9640   38.9840 C   0  0  0  0  0  0  0  0  0  0  0  0
   38.2540   30.7710   38.2540 C   0  0  0  0  0  0  0  0  0  0  0  0
   38.9100   30.5440   37.4190 H   0  0  0  0  0  0  0  0  0  0  0  0
   37.4140   29.6960   38.5580 C   0  0  0  0  0  3  0  0  0  0  0  0
   36.5210   29.8220   39.5920 C   0  0  0  0  0  3  0  0  0  0  0  0
   36.4820   30.9960   40.2910 C   0  0  0  0  0  0  0  0  0  0  0  0
   37.3350   33.2890   40.6530 O   0  0  0  0  0  0  0  0  0  0  0  0
   36.5370   33.8450   40.9320 H   0  0  0  0  0  0  0  0  0  0  0  0
   35.5970   31.1710   41.3430 O   0  0  0  0  0  0  0  0  0  0  0  0
   35.1650   32.0460   41.5770 H   0  0  0  0  0  0  0  0  0  0  0  0
  1  2  1  0  0  0  0
  2  3  2  0  0  0  0
  3  4  1  0  0  0  0
  3 11  1  0  0  0  0
  4  5  1  0  0  0  0
  5 12  1  0  0  0  0
  6 13  1  0  0  0  0
  6  5  1  0  0  0  0
  7  6  2  0  0  0  0
  8  7  1  0  0  0  0
  8  4  2  0  0  0  0
  9  1  2  0  0  0  0
  9  8  1  0  0  0  0
 10  1  1  0  0  0  0
 14 19  1  0  0  0  0
 14 20  1  0  0  0  0
 15 22  1  0  0  0  0
 15 14  2  0  0  0  0
 16 17  2  0  0  0  0
 16 15  1  0  0  0  0
 17 18  1  0  0  0  0
 18  2  1  0  0  0  0
 18 19  2  0  0  0  0
 21 16  1  0  0  0  0
 22 24  1  0  0  0  0
 22 23  1  0  0  0  0
 25 22  1  0  0  0  0
 26  9  1  0  0  0  0
 28 27  2  6  0  0  0
 28 26  1  0  0  0  0
 28 29  1  0  0  0  0
 29 30  1  0  0  0  0
 31 33  1  0  0  0  0
 31 28  1  0  0  0  0
 32 38  1  0  0  0  0
 32 39  1  0  0  0  0
 33 32  2  0  0  0  0
 34 36  2  0  0  0  0
 34 33  1  0  0  0  0
 35 34  1  0  0  0  0
 36 37  1  0  0  0  0
 37 38  2  0  0  0  0
 38 41  1  0  0  0  0
 39 40  1  0  0  0  0
 41 42  1  0  0  0  0
M  END
>  <minimizedAffinity>
-6.61981344

$$$$

 OpenBabel03242513433D

 42 45  0  0  0  0  0  0  0  0999 V2000
   39.2140   29.3880   41.5780 C   0  0  0  0  0  0  0  0  0  0  0  0
   39.7290   28.1300   41.8410 C   0  0  0  0  0  0  0  0  0  0  0  0
   40.9350   28.0530   42.4940 C   0  0  0  0  0  0  0  0  0  0  0  0
   41.6480   29.1650   42.8940 C   0  0  0  0  0  0  0  0  0  0  0  0
   42.8100   29.4250   43.5270 N   0  0  0  0  0  0  0  0  0  0  0  0
   42.9930   30.7650   43.6420 C   0  0  0  0  0  0  0  0  0  0  0  0
   41.9260   31.3400   43.0710 N   0  0  0  0  0  0  0  0  0  0  0  0
   41.0870   30.3810   42.6050 C   0  0  0  0  0  0  0  0  0  0  0  0
   39.8920   30.5310   41.9600 C   0  0  0  0  0  0  0  0  0  0  0  0
   38.2680   29.4380   41.0670 H   0  0  0  0  0  0  0  0  0  0  0  0
   41.3760   27.0820   42.7210 H   0  0  0  0  0  0  0  0  0  0  0  0
   43.4620   28.6850   43.8710 H   0  0  0  0  0  0  0  0  0  0  0  0
   43.8490   31.2650   44.1120 H   0  0  0  0  0  0  0  0  0  0  0  0
   38.8730   24.9810   40.1960 C   0  0  0  0  0  0  0  0  0  0  0  0
   37.6150   24.6950   40.6990 C   0  0  0  0  0  0  0  0  0  0  0  0
   37.0730   25.6140   41.6160 C   0  0  0  0  0  0  0  0  0  0  0  0
   37.7820   26.7180   41.9670 N   0  0  0  0  0  0  0  0  0  0  0  0
   39.0070   26.9350   41.4370 C   0  0  0  0  0  0  0  0  0  0  0  0
   39.5510   26.0880   40.5670 N   0  0  0  0  0  0  0  0  0  0  0  0
   39.3920   24.3550   39.4890 H   0  0  0  0  0  0  0  0  0  0  0  0
   36.0960   25.3880   42.0030 H   0  0  0  0  0  0  0  0  0  0  0  0
   36.9290   23.4560   40.2450 C   0  0  0  0  0  0  0  0  0  0  0  0
   37.0010   23.4930   38.8740 F   0  0  0  0  0  0  0  0  0  0  0  0
   35.6250   23.5230   40.6440 F   0  0  0  0  0  0  0  0  0  0  0  0
   37.5800   22.3640   40.8080 F   0  0  0  0  0  0  0  0  0  0  0  0
   39.3830   31.7970   41.7000 O   0  0  0  0  0  0  0  0  0  0  0  0
   40.7500   31.9270   39.4930 O   0  0  0  0  0  0  0  0  0  0  0  0
   39.6700   32.6720   40.2960 P   0  0  2  0  0  0  0  0  0  0  0  0
   40.3370   34.1610   40.7290 O   0  0  0  0  0  0  0  0  0  0  0  0
   40.0660   34.8720   40.0940 H   0  0  0  0  0  0  0  0  0  0  0  0
   38.3130   32.8990   39.3260 O   0  0  0  0  0  0  0  0  0  0  0  0
   37.8490   31.5440   37.2820 C   0  0  0  0  0  0  0  0  0  0  0  0
   37.7200   31.8890   38.6020 C   0  0  0  0  0  0  0  0  0  0  0  0
   36.8650   31.1440   39.4220 C   0  0  0  0  0  0  0  0  0  0  0  0
   36.6670   31.3010   40.4780 H   0  0  0  0  0  0  0  0  0  0  0  0
   36.1440   30.0590   38.9170 C   0  0  0  0  0  3  0  0  0  0  0  0
   36.2840   29.7260   37.5920 C   0  0  0  0  0  3  0  0  0  0  0  0
   37.1240   30.4690   36.8110 C   0  0  0  0  0  0  0  0  0  0  0  0
   38.7150   32.3490   36.5820 O   0  0  0  0  0  0  0  0  0  0  0  0
   39.4190   32.0430   35.9240 H   0  0  0  0  0  0  0  0  0  0  0  0
   37.2990   30.1720   35.4680 O   0  0  0  0  0  0  0  0  0  0  0  0
   38.1610   30.2990   34.9700 H   0  0  0  0  0  0  0  0  0  0  0  0
  1  2  2  0  0  0  0
  1  9  1  0  0  0  0
  2  3  1  0  0  0  0
  3 11  1  0  0  0  0
  3  4  2  0  0  0  0
  4  5  1  0  0  0  0
  5  6  1  0  0  0  0
  5 12  1  0  0  0  0
  6 13  1  0  0  0  0
  7  6  2  0  0  0  0
  8  4  1  0  0  0  0
  8  7  1  0  0  0  0
  9  8  2  0  0  0  0
 10  1  1  0  0  0  0
 14 19  2  0  0  0  0
 14 15  1  0  0  0  0
 15 16  2  0  0  0  0
 16 17  1  0  0  0  0
 16 21  1  0  0  0  0
 18  2  1  0  0  0  0
 18 17  2  0  0  0  0
 19 18  1  0  0  0  0
 20 14  1  0  0  0  0
 22 24  1  0  0  0  0
 22 15  1  0  0  0  0
 22 25  1  0  0  0  0
 23 22  1  0  0  0  0
 26  9  1  0  0  0  0
 28 27  2  6  0  0  0
 28 29  1  0  0  0  0
 28 26  1  0  0  0  0
 30 29  1  0  0  0  0
 31 28  1  0  0  0  0
 32 33  1  0  0  0  0
 33 31  1  0  0  0  0
 33 34  2  0  0  0  0
 34 35  1  0  0  0  0
 36 34  1  0  0  0  0
 37 36  2  0  0  0  0
 38 32  2  0  0  0  0
 38 37  1  0  0  0  0
 39 32  1  0  0  0  0
 40 39  1  0  0  0  0
 41 38  1  0  0  0  0
 42 41  1  0  0  0  0
M  END
>  <minimizedAffinity>
-6.47347593

$$$$

 OpenBabel03242513433D

 42 45  0  0  0  0  0  0  0  0999 V2000
   39.8520   30.2550   41.3550 C   0  0  0  0  0  0  0  0  0  0  0  0
   38.5940   29.7480   41.0750 C   0  0  0  0  0  0  0  0  0  0  0  0
   37.6330   30.6230   40.6300 C   0  0  0  0  0  0  0  0  0  0  0  0
   37.8660   31.9720   40.4530 C   0  0  0  0  0  0  0  0  0  0  0  0
   37.1710   33.0550   40.0500 N   0  0  0  0  0  0  0  0  0  0  0  0
   37.9600   34.1600   40.0830 C   0  0  0  0  0  0  0  0  0  0  0  0
   39.1610   33.7490   40.5140 N   0  0  0  0  0  0  0  0  0  0  0  0
   39.1290   32.4130   40.7480 C   0  0  0  0  0  0  0  0  0  0  0  0
   40.1320   31.5990   41.1930 C   0  0  0  0  0  0  0  0  0  0  0  0
   40.5980   29.5610   41.7020 H   0  0  0  0  0  0  0  0  0  0  0  0
   36.6300   30.2660   40.3970 H   0  0  0  0  0  0  0  0  0  0  0  0
   36.1690   33.0260   39.7580 H   0  0  0  0  0  0  0  0  0  0  0  0
   37.6620   35.1790   39.8090 H   0  0  0  0  0  0  0  0  0  0  0  0
   37.8100   26.5260   42.6120 C   0  0  0  0  0  0  0  0  0  0  0  0
   37.7810   25.6610   41.5310 C   0  0  0  0  0  0  0  0  0  0  0  0
   38.0370   26.2180   40.2640 C   0  0  0  0  0  0  0  0  0  0  0  0
   38.2980   27.5460   40.1480 N   0  0  0  0  0  0  0  0  0  0  0  0
   38.3100   28.3330   41.2470 C   0  0  0  0  0  0  0  0  0  0  0  0
   38.0720   27.8420   42.4610 N   0  0  0  0  0  0  0  0  0  0  0  0
   37.6290   26.2210   43.6280 H   0  0  0  0  0  0  0  0  0  0  0  0
   38.0140   25.5420   39.4280 H   0  0  0  0  0  0  0  0  0  0  0  0
   37.4840   24.2240   41.7740 C   0  0  0  0  0  0  0  0  0  0  0  0
   38.0090   23.5660   40.6900 F   0  0  0  0  0  0  0  0  0  0  0  0
   36.1280   24.0690   41.8010 F   0  0  0  0  0  0  0  0  0  0  0  0
   38.0640   23.8570   42.9830 F   0  0  0  0  0  0  0  0  0  0  0  0
   41.3910   32.1170   41.4720 O   0  0  0  0  0  0  0  0  0  0  0  0
   43.5570   31.0610   40.4970 O   0  0  0  0  0  0  0  0  0  0  0  0
   42.6270   32.2780   40.3480 P   0  0  2  0  0  0  0  0  0  0  0  0
   43.5430   33.6350   40.7630 O   0  0  0  0  0  0  0  0  0  0  0  0
   43.9130   34.0760   39.9560 H   0  0  0  0  0  0  0  0  0  0  0  0
   42.1080   32.3890   38.7510 O   0  0  0  0  0  0  0  0  0  0  0  0
   43.0020   31.2050   36.7440 C   0  0  0  0  0  0  0  0  0  0  0  0
   42.2040   31.3540   37.8480 C   0  0  0  0  0  0  0  0  0  0  0  0
   41.3070   30.3340   38.1860 C   0  0  0  0  0  0  0  0  0  0  0  0
   40.6200   30.3150   39.0250 H   0  0  0  0  0  0  0  0  0  0  0  0
   41.2160   29.1700   37.4180 C   0  0  0  0  0  3  0  0  0  0  0  0
   42.0230   29.0350   36.3150 C   0  0  0  0  0  3  0  0  0  0  0  0
   42.8900   30.0460   36.0060 C   0  0  0  0  0  0  0  0  0  0  0  0
   43.8370   32.2720   36.5180 O   0  0  0  0  0  0  0  0  0  0  0  0
   44.8160   32.2250   36.2680 H   0  0  0  0  0  0  0  0  0  0  0  0
   43.7250   29.9570   34.9020 O   0  0  0  0  0  0  0  0  0  0  0  0
   44.6480   30.3470   34.8610 H   0  0  0  0  0  0  0  0  0  0  0  0
  1 10  1  0  0  0  0
  2 18  1  0  0  0  0
  2  1  2  0  0  0  0
  3  2  1  0  0  0  0
  4  3  2  0  0  0  0
  4  8  1  0  0  0  0
  5  6  1  0  0  0  0
  5  4  1  0  0  0  0
  6  7  2  0  0  0  0
  7  8  1  0  0  0  0
  8  9  2  0  0  0  0
  9  1  1  0  0  0  0
  9 26  1  0  0  0  0
 11  3  1  0  0  0  0
 12  5  1  0  0  0  0
 13  6  1  0  0  0  0
 14 20  1  0  0  0  0
 15 22  1  0  0  0  0
 15 14  2  0  0  0  0
 16 15  1  0  0  0  0
 17 16  2  0  0  0  0
 17 18  1  0  0  0  0
 18 19  2  0  0  0  0
 19 14  1  0  0  0  0
 21 16  1  0  0  0  0
 22 24  1  0  0  0  0
 22 25  1  0  0  0  0
 23 22  1  0  0  0  0
 28 27  2  1  0  0  0
 28 29  1  0  0  0  0
 28 26  1  0  0  0  0
 30 29  1  0  0  0  0
 31 28  1  0  0  0  0
 32 33  1  0  0  0  0
 33 34  2  0  0  0  0
 33 31  1  0  0  0  0
 34 35  1  0  0  0  0
 36 34  1  0  0  0  0
 37 36  2  0  0  0  0
 38 37  1  0  0  0  0
 38 32  2  0  0  0  0
 39 32  1  0  0  0  0
 40 39  1  0  0  0  0
 41 38  1  0  0  0  0
 42 41  1  0  0  0  0
M  END
>  <minimizedAffinity>
-6.46143866

$$$$

 OpenBabel03242513433D

 42 45  0  0  0  0  0  0  0  0999 V2000
   36.6050   30.0240   38.2850 C   0  0  0  0  0  0  0  0  0  0  0  0
   35.6470   29.0260   38.2400 C   0  0  0  0  0  0  0  0  0  0  0  0
   35.7510   27.9930   39.1390 C   0  0  0  0  0  0  0  0  0  0  0  0
   36.7610   27.9090   40.0760 C   0  0  0  0  0  0  0  0  0  0  0  0
   37.1350   27.0650   41.0590 N   0  0  0  0  0  0  0  0  0  0  0  0
   38.2580   27.5220   41.6690 C   0  0  0  0  0  0  0  0  0  0  0  0
   38.5810   28.6670   41.0510 N   0  0  0  0  0  0  0  0  0  0  0  0
   37.6790   28.9250   40.0710 C   0  0  0  0  0  0  0  0  0  0  0  0
   37.6360   29.9820   39.2060 C   0  0  0  0  0  0  0  0  0  0  0  0
   36.5150   30.8290   37.5770 H   0  0  0  0  0  0  0  0  0  0  0  0
   35.0160   27.1870   39.1380 H   0  0  0  0  0  0  0  0  0  0  0  0
   36.6190   26.1890   41.3010 H   0  0  0  0  0  0  0  0  0  0  0  0
   38.7860   27.0420   42.5010 H   0  0  0  0  0  0  0  0  0  0  0  0
   32.3060   29.1880   36.7660 C   0  0  0  0  0  0  0  0  0  0  0  0
   32.5620   29.1800   35.4050 C   0  0  0  0  0  0  0  0  0  0  0  0
   33.9110   29.1180   35.0130 C   0  0  0  0  0  0  0  0  0  0  0  0
   34.8890   29.0690   35.9540 N   0  0  0  0  0  0  0  0  0  0  0  0
   34.5670   29.0800   37.2680 C   0  0  0  0  0  0  0  0  0  0  0  0
   33.3020   29.1390   37.6760 N   0  0  0  0  0  0  0  0  0  0  0  0
   31.3160   29.2340   37.1890 H   0  0  0  0  0  0  0  0  0  0  0  0
   34.1050   29.1110   33.9550 H   0  0  0  0  0  0  0  0  0  0  0  0
   31.4130   29.2370   34.4620 C   0  0  0  0  0  0  0  0  0  0  0  0
   31.4900   30.4790   33.8840 F   0  0  0  0  0  0  0  0  0  0  0  0
   30.2620   29.1330   35.1890 F   0  0  0  0  0  0  0  0  0  0  0  0
   31.5400   28.1910   33.5540 F   0  0  0  0  0  0  0  0  0  0  0  0
   38.6020   30.9780   39.2590 O   0  0  0  0  0  0  0  0  0  0  0  0
   39.0680   31.9590   41.6210 O   0  0  0  0  0  0  0  0  0  0  0  0
   38.5170   32.3410   40.2360 P   0  0  2  0  0  0  0  0  0  0  0  0
   36.8890   32.7290   40.4590 O   0  0  0  0  0  0  0  0  0  0  0  0
   36.7650   33.7090   40.5520 H   0  0  0  0  0  0  0  0  0  0  0  0
   39.3610   33.6730   39.6500 O   0  0  0  0  0  0  0  0  0  0  0  0
   41.2260   33.1830   38.0650 C   0  0  0  0  0  0  0  0  0  0  0  0
   40.6750   33.6200   39.2400 C   0  0  0  0  0  0  0  0  0  0  0  0
   41.5150   34.1100   40.2480 C   0  0  0  0  0  0  0  0  0  0  0  0
   41.2210   34.4870   41.2220 H   0  0  0  0  0  0  0  0  0  0  0  0
   42.9000   34.1600   40.0710 C   0  0  0  0  0  3  0  0  0  0  0  0
   43.4360   33.7180   38.8870 C   0  0  0  0  0  3  0  0  0  0  0  0
   42.5960   33.2430   37.9200 C   0  0  0  0  0  0  0  0  0  0  0  0
   40.3010   32.7260   37.1570 O   0  0  0  0  0  0  0  0  0  0  0  0
   40.2810   32.9300   36.1670 H   0  0  0  0  0  0  0  0  0  0  0  0
   43.0900   32.7860   36.7070 O   0  0  0  0  0  0  0  0  0  0  0  0
   42.6090   32.8790   35.8320 H   0  0  0  0  0  0  0  0  0  0  0  0
  1  9  1  0  0  0  0
  2  1  2  0  0  0  0
  2  3  1  0  0  0  0
  3  4  2  0  0  0  0
  4  5  1  0  0  0  0
  5 12  1  0  0  0  0
  5  6  1  0  0  0  0
  6 13  1  0  0  0  0
  7  6  2  0  0  0  0
  8  4  1  0  0  0  0
  8  7  1  0  0  0  0
  9 26  1  0  0  0  0
  9  8  2  0  0  0  0
 10  1  1  0  0  0  0
 11  3  1  0  0  0  0
 14 20  1  0  0  0  0
 14 19  1  0  0  0  0
 15 14  2  0  0  0  0
 16 15  1  0  0  0  0
 16 17  2  0  0  0  0
 17 18  1  0  0  0  0
 18 19  2  0  0  0  0
 18  2  1  0  0  0  0
 21 16  1  0  0  0  0
 22 24  1  0  0  0  0
 22 15  1  0  0  0  0
 23 22  1  0  0  0  0
 25 22  1  0  0  0  0
 26 28  1  0  0  0  0
 28 29  1  0  0  0  0
 28 27  2  1  0  0  0
 29 30  1  0  0  0  0
 31 28  1  0  0  0  0
 32 33  1  0  0  0  0
 33 31  1  0  0  0  0
 33 34  2  0  0  0  0
 34 35  1  0  0  0  0
 36 34  1  0  0  0  0
 37 36  2  0  0  0  0
 38 32  2  0  0  0  0
 38 37  1  0  0  0  0
 39 32  1  0  0  0  0
 40 39  1  0  0  0  0
 41 38  1  0  0  0  0
 42 41  1  0  0  0  0
M  END
>  <minimizedAffinity>
-6.45504761

$$$$

 OpenBabel03242513433D

 42 45  0  0  0  0  0  0  0  0999 V2000
   36.8510   26.9790   39.8190 C   0  0  0  0  0  0  0  0  0  0  0  0
   36.6060   27.9650   38.8780 C   0  0  0  0  0  0  0  0  0  0  0  0
   35.9880   27.5970   37.7070 C   0  0  0  0  0  0  0  0  0  0  0  0
   35.6070   26.3000   37.4330 C   0  0  0  0  0  0  0  0  0  0  0  0
   35.0070   25.6330   36.4250 N   0  0  0  0  0  0  0  0  0  0  0  0
   34.8940   24.3160   36.7340 C   0  0  0  0  0  0  0  0  0  0  0  0
   35.4330   24.1690   37.9530 N   0  0  0  0  0  0  0  0  0  0  0  0
   35.8770   25.3700   38.4020 C   0  0  0  0  0  0  0  0  0  0  0  0
   36.4870   25.6660   39.5880 C   0  0  0  0  0  0  0  0  0  0  0  0
   37.3360   27.2780   40.7330 H   0  0  0  0  0  0  0  0  0  0  0  0
   35.7760   28.3420   36.9410 H   0  0  0  0  0  0  0  0  0  0  0  0
   34.6830   26.0860   35.5410 H   0  0  0  0  0  0  0  0  0  0  0  0
   34.4470   23.5380   36.1040 H   0  0  0  0  0  0  0  0  0  0  0  0
   36.9230   31.2500   40.4490 C   0  0  0  0  0  0  0  0  0  0  0  0
   37.7430   31.9400   39.5720 C   0  0  0  0  0  0  0  0  0  0  0  0
   38.1800   31.2440   38.4300 C   0  0  0  0  0  0  0  0  0  0  0  0
   37.7950   29.9570   38.2320 N   0  0  0  0  0  0  0  0  0  0  0  0
   36.9920   29.3430   39.1310 C   0  0  0  0  0  0  0  0  0  0  0  0
   36.5600   29.9700   40.2230 N   0  0  0  0  0  0  0  0  0  0  0  0
   36.5260   31.6730   41.3560 H   0  0  0  0  0  0  0  0  0  0  0  0
   38.8160   31.7850   37.7510 H   0  0  0  0  0  0  0  0  0  0  0  0
   38.1020   33.3480   39.8880 C   0  0  0  0  0  0  0  0  0  0  0  0
   39.2320   33.6000   39.1510 F   0  0  0  0  0  0  0  0  0  0  0  0
   38.3880   33.4240   41.2210 F   0  0  0  0  0  0  0  0  0  0  0  0
   37.0250   34.1610   39.5500 F   0  0  0  0  0  0  0  0  0  0  0  0
   36.7300   24.6700   40.5260 O   0  0  0  0  0  0  0  0  0  0  0  0
   39.2500   24.5040   39.9100 O   0  0  0  0  0  0  0  0  0  0  0  0
   38.2550   24.1970   41.0430 P   0  0  2  0  0  0  0  0  0  0  0  0
   38.2500   22.5190   41.2350 O   0  0  0  0  0  0  0  0  0  0  0  0
   38.8570   22.2420   41.9690 H   0  0  0  0  0  0  0  0  0  0  0  0
   38.7750   24.9460   42.4580 O   0  0  0  0  0  0  0  0  0  0  0  0
   37.7540   27.1630   42.9820 C   0  0  0  0  0  0  0  0  0  0  0  0
   38.7710   26.3110   42.6390 C   0  0  0  0  0  0  0  0  0  0  0  0
   40.0520   26.8300   42.4180 C   0  0  0  0  0  0  0  0  0  0  0  0
   40.9460   26.2790   42.1430 H   0  0  0  0  0  0  0  0  0  0  0  0
   40.3080   28.1990   42.5430 C   0  0  0  0  0  3  0  0  0  0  0  0
   39.2780   29.0390   42.8870 C   0  0  0  0  0  3  0  0  0  0  0  0
   38.0360   28.5080   43.0970 C   0  0  0  0  0  0  0  0  0  0  0  0
   36.5470   26.5340   43.1720 O   0  0  0  0  0  0  0  0  0  0  0  0
   35.8960   26.7020   43.9270 H   0  0  0  0  0  0  0  0  0  0  0  0
   36.9650   29.3150   43.4470 O   0  0  0  0  0  0  0  0  0  0  0  0
   36.2170   29.0290   44.0520 H   0  0  0  0  0  0  0  0  0  0  0  0
  1 10  1  0  0  0  0
  2 18  1  0  0  0  0
  2  1  2  0  0  0  0
  3  2  1  0  0  0  0
  4  3  2  0  0  0  0
  4  8  1  0  0  0  0
  5  6  1  0  0  0  0
  5  4  1  0  0  0  0
  6  7  2  0  0  0  0
  7  8  1  0  0  0  0
  8  9  2  0  0  0  0
  9  1  1  0  0  0  0
  9 26  1  0  0  0  0
 11  3  1  0  0  0  0
 12  5  1  0  0  0  0
 13  6  1  0  0  0  0
 14 20  1  0  0  0  0
 15 22  1  0  0  0  0
 15 14  2  0  0  0  0
 16 15  1  0  0  0  0
 17 16  2  0  0  0  0
 17 18  1  0  0  0  0
 18 19  2  0  0  0  0
 19 14  1  0  0  0  0
 21 16  1  0  0  0  0
 22 24  1  0  0  0  0
 23 22  1  0  0  0  0
 25 22  1  0  0  0  0
 26 28  1  0  0  0  0
 28 27  2  6  0  0  0
 28 29  1  0  0  0  0
 28 31  1  0  0  0  0
 29 30  1  0  0  0  0
 31 33  1  0  0  0  0
 32 38  1  0  0  0  0
 32 39  1  0  0  0  0
 33 32  2  0  0  0  0
 34 36  2  0  0  0  0
 34 33  1  0  0  0  0
 35 34  1  0  0  0  0
 36 37  1  0  0  0  0
 37 38  2  0  0  0  0
 38 41  1  0  0  0  0
 39 40  1  0  0  0  0
 41 42  1  0  0  0  0
M  END
>  <minimizedAffinity>
-6.42246151

$$$$
