
 OpenBabel03242514333D

 28 29  0  0  0  0  0  0  0  0999 V2000
   49.2100   35.6060   42.0520 O   0  0  0  0  0  0  0  0  0  0  0  0
   48.6150   34.3050   41.6050 P   0  0  1  0  0  0  0  0  0  0  0  0
   49.8750   33.3080   41.1170 O   0  0  0  0  0  0  0  0  0  0  0  0
   50.6070   33.8730   40.7590 H   0  0  0  0  0  0  0  0  0  0  0  0
   47.7380   33.5880   42.8870 O   0  0  0  0  0  0  0  0  0  0  0  0
   46.1180   35.3430   42.8330 C   0  0  0  0  0  0  0  0  0  0  0  0
   46.6760   34.2610   43.4930 C   0  0  0  0  0  0  0  0  0  0  0  0
   46.1480   33.8960   44.7330 C   0  0  0  0  0  0  0  0  0  0  0  0
   45.1100   34.6260   45.2290 N   0  0  0  0  0  0  0  0  0  0  0  0
   44.5950   35.6640   44.5660 C   0  0  0  0  0  0  0  0  0  0  0  0
   45.1000   36.0120   43.3830 N   0  0  0  0  0  0  0  0  0  0  0  0
   46.4760   35.6880   41.8630 H   0  0  0  0  0  0  0  0  0  0  0  0
   46.5940   33.0400   45.2460 H   0  0  0  0  0  0  0  0  0  0  0  0
   43.7790   36.1280   45.1040 H   0  0  0  0  0  0  0  0  0  0  0  0
   47.6070   34.5900   40.3070 O   0  0  0  0  0  0  0  0  0  0  0  0
   47.0540   33.6760   39.4860 C   0  0  0  0  0  0  0  0  0  0  0  0
   46.1630   32.9640   40.1010 O   0  0  0  0  0  0  0  0  0  0  0  0
   46.0520   33.2470   37.2530 C   0  0  0  0  0  0  0  0  0  0  0  0
   47.1240   33.2070   38.0710 C   0  0  0  0  0  0  0  0  0  0  0  0
   48.3490   32.7180   37.6000 C   0  0  0  0  0  0  0  0  0  0  0  0
   49.2100   32.6940   38.2850 H   0  0  0  0  0  0  0  0  0  0  0  0
   48.5490   32.2600   36.3280 C   0  0  0  0  0  3  0  0  0  0  0  0
   47.4730   32.2920   35.4790 C   0  0  0  0  0  3  0  0  0  0  0  0
   46.2720   32.7750   35.9520 C   0  0  0  0  0  0  0  0  0  0  0  0
   44.8140   33.7140   37.6420 O   0  0  0  0  0  0  0  0  0  0  0  0
   44.6640   34.7210   37.7930 H   0  0  0  0  0  0  0  0  0  0  0  0
   45.1470   32.8230   35.1100 O   0  0  0  0  0  0  0  0  0  0  0  0
   44.5790   33.6620   35.1300 H   0  0  0  0  0  0  0  0  0  0  0  0
  2  1  2  1  0  0  0
  2  5  1  0  0  0  0
  3  2  1  0  0  0  0
  4  3  1  0  0  0  0
  5  7  1  0  0  0  0
  6 11  2  0  0  0  0
  6  7  1  0  0  0  0
  7  8  2  0  0  0  0
  8  9  1  0  0  0  0
  8 13  1  0  0  0  0
 10 14  1  0  0  0  0
 10  9  2  0  0  0  0
 11 10  1  0  0  0  0
 12  6  1  0  0  0  0
 15  2  1  0  0  0  0
 16 17  2  0  0  0  0
 16 15  1  0  0  0  0
 18 25  1  0  0  0  0
 18 19  1  0  0  0  0
 19 16  1  0  0  0  0
 20 19  2  0  0  0  0
 20 21  1  0  0  0  0
 22 20  1  0  0  0  0
 23 24  1  0  0  0  0
 23 22  2  0  0  0  0
 24 18  2  0  0  0  0
 25 26  1  0  0  0  0
 27 28  1  0  0  0  0
 27 24  1  0  0  0  0
M  END
>  <minimizedAffinity>
-5.13564968

>  <minimizedRMSD>
1.47724187

$$$$
