
 OpenBabel03252505283D

 26 27  0  0  0  0  0  0  0  0999 V2000
   46.9130   32.4290   48.4950 O   0  0  0  0  0  0  0  0  0  0  0  0
   45.8230   32.4740   47.4210 P   0  0  1  0  0  0  0  0  0  0  0  0
   44.5480   33.4790   47.8640 O   0  0  0  0  0  0  0  0  0  0  0  0
   44.8660   34.4230   47.9490 H   0  0  0  0  0  0  0  0  0  0  0  0
   46.5760   33.0220   46.0110 O   0  0  0  0  0  0  0  0  0  0  0  0
   44.5180   35.6460   44.7840 C   0  0  0  0  0  0  0  0  0  0  0  0
   44.9490   35.8490   43.4490 C   0  0  0  0  0  0  0  0  0  0  0  0
   45.9850   35.0300   43.0030 C   0  0  0  0  0  0  0  0  0  0  0  0
   46.4990   34.1130   43.8650 N   0  0  0  0  0  0  0  0  0  0  0  0
   46.0590   33.9540   45.1270 C   0  0  0  0  0  0  0  0  0  0  0  0
   45.0570   34.7300   45.5890 N   0  0  0  0  0  0  0  0  0  0  0  0
   43.7060   36.3020   45.1020 H   0  0  0  0  0  0  0  0  0  0  0  0
   44.5210   36.5830   42.7930 H   0  0  0  0  0  0  0  0  0  0  0  0
   46.3610   35.1330   41.9960 H   0  0  0  0  0  0  0  0  0  0  0  0
   45.2230   30.9020   47.2760 O   0  0  0  0  0  0  0  0  0  0  0  0
   44.9240   29.0230   45.9760 C   0  0  0  0  0  0  0  0  0  0  0  0
   45.8180   29.8570   46.6210 C   0  0  0  0  0  0  0  0  0  0  0  0
   47.1590   29.5500   46.5290 C   0  0  0  0  0  0  0  0  0  0  0  0
   47.8140   30.2430   47.0570 H   0  0  0  0  0  0  0  0  0  0  0  0
   47.6120   28.4530   45.8250 C   0  0  0  0  0  3  0  0  0  0  0  0
   46.7240   27.6060   45.1740 C   0  0  0  0  0  3  0  0  0  0  0  0
   45.3660   27.9160   45.2640 C   0  0  0  0  0  0  0  0  0  0  0  0
   43.5330   29.1750   45.9570 O   0  0  0  0  0  0  0  0  0  0  0  0
   42.9760   28.7520   46.7010 H   0  0  0  0  0  0  0  0  0  0  0  0
   44.5190   27.0470   44.6010 O   0  0  0  0  0  0  0  0  0  0  0  0
   43.7490   26.5640   45.0420 H   0  0  0  0  0  0  0  0  0  0  0  0
  2  3  1  0  0  0  0
  2  1  2  1  0  0  0
  3  4  1  0  0  0  0
  5  2  1  0  0  0  0
  6 12  1  0  0  0  0
  6 11  1  0  0  0  0
  7  6  2  0  0  0  0
  8  7  1  0  0  0  0
  8  9  2  0  0  0  0
  9 10  1  0  0  0  0
 10 11  2  0  0  0  0
 10  5  1  0  0  0  0
 13  7  1  0  0  0  0
 14  8  1  0  0  0  0
 15  2  1  0  0  0  0
 16 17  1  0  0  0  0
 17 15  1  0  0  0  0
 18 17  2  0  0  0  0
 18 19  1  0  0  0  0
 20 18  1  0  0  0  0
 21 22  1  0  0  0  0
 21 20  2  0  0  0  0
 22 16  2  0  0  0  0
 23 16  1  0  0  0  0
 23 24  1  0  0  0  0
 25 26  1  0  0  0  0
 25 22  1  0  0  0  0
M  END
>  <minimizedAffinity>
-4.80671453

>  <minimizedRMSD>
2.1488142

$$$$
