
 OpenBabel03252507163D

 31 33  0  0  0  0  0  0  0  0999 V2000
   45.1720   36.1510   43.6350 C   0  0  0  0  0  0  0  0  0  0  0  0
   45.8260   34.9610   43.2280 C   0  0  0  0  0  0  0  0  0  0  0  0
   45.8330   33.8930   44.1260 C   0  0  0  0  0  0  0  0  0  0  0  0
   45.2340   34.0210   45.3200 N   0  0  0  0  0  0  0  0  0  0  0  0
   44.6080   35.1830   45.6880 C   0  0  0  0  0  0  0  0  0  0  0  0
   44.5910   36.2170   44.8410 N   0  0  0  0  0  0  0  0  0  0  0  0
   45.1480   36.9970   42.9620 H   0  0  0  0  0  0  0  0  0  0  0  0
   44.1790   35.1150   46.6810 H   0  0  0  0  0  0  0  0  0  0  0  0
   46.5000   32.6700   43.7190 C   0  0  0  0  0  0  0  0  0  0  0  0
   45.7530   31.5710   43.3390 C   0  0  0  0  0  0  0  0  0  0  0  0
   46.4140   30.4280   42.9590 C   0  0  0  0  0  0  0  0  0  0  0  0
   47.7930   30.3100   42.9340 C   0  0  0  0  0  0  0  0  0  0  0  0
   48.4860   31.4480   43.3260 C   0  0  0  0  0  0  0  0  0  0  0  0
   47.8290   32.5670   43.6980 N   0  0  0  0  0  0  0  0  0  0  0  0
   44.6880   31.5540   43.3220 H   0  0  0  0  0  0  0  0  0  0  0  0
   45.8690   29.5360   42.6510 H   0  0  0  0  0  0  0  0  0  0  0  0
   48.3680   29.4620   42.6520 H   0  0  0  0  0  0  0  0  0  0  0  0
   49.5720   31.5000   43.3550 H   0  0  0  0  0  0  0  0  0  0  0  0
   46.4380   34.9000   41.9490 C   0  0  0  0  0  0  0  0  0  0  0  0
   47.5660   35.4350   41.8010 O   0  0  0  0  0  0  0  0  0  0  0  0
   46.5150   33.5130   39.8870 C   0  0  0  0  0  0  0  0  0  0  0  0
   45.8010   34.2420   40.8130 C   0  0  0  0  0  0  0  0  0  0  0  0
   44.4380   34.3320   40.6250 C   0  0  0  0  0  0  0  0  0  0  0  0
   43.8940   34.9070   41.3580 H   0  0  0  0  0  0  0  0  0  0  0  0
   43.7740   33.7460   39.5900 C   0  0  0  0  0  3  0  0  0  0  0  0
   44.5160   33.0130   38.6660 C   0  0  0  0  0  3  0  0  0  0  0  0
   45.8700   32.9080   38.8290 C   0  0  0  0  0  0  0  0  0  0  0  0
   47.9100   33.3900   40.0330 O   0  0  0  0  0  0  0  0  0  0  0  0
   48.5540   33.4900   39.2660 H   0  0  0  0  0  0  0  0  0  0  0  0
   46.6430   32.1860   37.9290 O   0  0  0  0  0  0  0  0  0  0  0  0
   46.4360   31.2220   37.6870 H   0  0  0  0  0  0  0  0  0  0  0  0
  1  6  1  0  0  0  0
  2  1  2  0  0  0  0
  2  3  1  0  0  0  0
  3  4  2  0  0  0  0
  4  5  1  0  0  0  0
  5  8  1  0  0  0  0
  6  5  2  0  0  0  0
  7  1  1  0  0  0  0
  9  3  1  0  0  0  0
 10  9  2  0  0  0  0
 11 10  1  0  0  0  0
 12 11  2  0  0  0  0
 12 13  1  0  0  0  0
 13 18  1  0  0  0  0
 13 14  2  0  0  0  0
 14  9  1  0  0  0  0
 15 10  1  0  0  0  0
 16 11  1  0  0  0  0
 17 12  1  0  0  0  0
 19  2  1  0  0  0  0
 20 19  2  0  0  0  0
 21 28  1  0  0  0  0
 21 22  1  0  0  0  0
 22 19  1  0  0  0  0
 23 22  2  0  0  0  0
 23 24  1  0  0  0  0
 25 23  1  0  0  0  0
 26 27  1  0  0  0  0
 26 25  2  0  0  0  0
 27 21  2  0  0  0  0
 29 28  1  0  0  0  0
 30 27  1  0  0  0  0
 31 30  1  0  0  0  0
M  END
>  <minimizedAffinity>
-4.79892111

>  <minimizedRMSD>
0.413742125

$$$$
