
 OpenBabel03252509273D

 32 34  0  0  1  0  0  0  0  0999 V2000
   47.0970   35.2390   41.7850 C   0  0  1  0  0  0  0  0  0  0  0  0
   48.5840   35.6800   41.9230 C   0  0  0  0  0  0  0  0  0  0  0  0
   48.0570   34.4900   41.0810 C   0  0  2  0  0  0  0  0  0  0  0  0
   46.4610   36.0070   41.3140 H   0  0  0  0  0  0  0  0  0  0  0  0
   49.1090   35.4770   42.8560 H   0  0  0  0  0  0  0  0  0  0  0  0
   48.8400   36.5940   41.3740 H   0  0  0  0  0  0  0  0  0  0  0  0
   48.4840   33.5150   41.4670 H   0  0  0  0  0  0  0  0  0  0  0  0
   45.0310   34.7350   44.8730 C   0  0  0  0  0  0  0  0  0  0  0  0
   45.4760   35.3240   43.6560 C   0  0  0  0  0  0  0  0  0  0  0  0
   46.5680   34.7390   43.1080 C   0  0  0  0  0  0  0  0  0  0  0  0
   47.1930   33.6550   43.6960 N   0  0  0  0  0  0  0  0  0  0  0  0
   46.7280   33.1340   44.8540 C   0  0  0  0  0  0  0  0  0  0  0  0
   45.6400   33.6790   45.4430 N   0  0  0  0  0  0  0  0  0  0  0  0
   44.1640   35.1700   45.3400 H   0  0  0  0  0  0  0  0  0  0  0  0
   47.3230   32.2930   45.1840 H   0  0  0  0  0  0  0  0  0  0  0  0
   44.8520   36.4440   43.0720 N   0  0  0  0  0  0  0  0  0  0  0  0
   43.8010   36.4890   43.1030 H   0  0  0  0  0  0  0  0  0  0  0  0
   45.4630   37.1860   42.6320 H   0  0  0  0  0  0  0  0  0  0  0  0
   48.1530   34.5650   39.5790 C   0  0  0  0  0  0  0  0  0  0  0  0
   47.8420   35.5990   39.3080 H   0  0  0  0  0  0  0  0  0  0  0  0
   49.2310   34.4970   39.3040 H   0  0  0  0  0  0  0  0  0  0  0  0
   48.2680   32.8970   37.9370 C   0  0  0  0  0  0  0  0  0  0  0  0
   47.4150   33.5440   38.8410 C   0  0  0  0  0  0  0  0  0  0  0  0
   46.1050   33.1160   38.8680 C   0  0  0  0  0  0  0  0  0  0  0  0
   45.5200   33.6560   39.5800 H   0  0  0  0  0  0  0  0  0  0  0  0
   45.6410   32.1090   38.0570 C   0  0  0  0  0  3  0  0  0  0  0  0
   46.4990   31.4740   37.1620 C   0  0  0  0  0  3  0  0  0  0  0  0
   47.8060   31.8820   37.1180 C   0  0  0  0  0  0  0  0  0  0  0  0
   49.6290   33.1550   37.7320 O   0  0  0  0  0  0  0  0  0  0  0  0
   50.2440   32.9230   38.5080 H   0  0  0  0  0  0  0  0  0  0  0  0
   48.5780   31.1880   36.1960 O   0  0  0  0  0  0  0  0  0  0  0  0
   49.5960   31.3000   36.2980 H   0  0  0  0  0  0  0  0  0  0  0  0
  1  4  1  6  0  0  0
  1  2  1  0  0  0  0
  1 10  1  0  0  0  0
  2  5  1  0  0  0  0
  3  7  1  1  0  0  0
  3  1  1  0  0  0  0
  3  2  1  0  0  0  0
  6  2  1  0  0  0  0
  8 14  1  0  0  0  0
  8 13  1  0  0  0  0
  9  8  2  0  0  0  0
 10  9  1  0  0  0  0
 10 11  2  0  0  0  0
 11 12  1  0  0  0  0
 12 15  1  0  0  0  0
 12 13  2  0  0  0  0
 16 17  1  0  0  0  0
 16  9  1  0  0  0  0
 18 16  1  0  0  0  0
 19  3  1  0  0  0  0
 20 19  1  0  0  0  0
 21 19  1  0  0  0  0
 22 23  1  0  0  0  0
 23 24  2  0  0  0  0
 23 19  1  0  0  0  0
 24 25  1  0  0  0  0
 26 24  1  0  0  0  0
 27 26  2  0  0  0  0
 28 27  1  0  0  0  0
 28 22  2  0  0  0  0
 29 22  1  0  0  0  0
 29 30  1  0  0  0  0
 31 32  1  0  0  0  0
 31 28  1  0  0  0  0
M  END
>  <minimizedAffinity>
-5.17888927

>  <minimizedRMSD>
2.33533645

$$$$
