
 OpenBabel03252500283D

 45 47  0  0  1  0  0  0  0  0999 V2000
   47.2910   33.0370   46.6510 O   0  0  0  0  0  0  0  0  0  0  0  0
   45.8580   32.7600   46.3530 P   0  0  1  0  0  0  0  0  0  0  0  0
   45.7570   31.4680   45.2700 O   0  0  0  0  0  0  0  0  0  0  0  0
   45.0690   31.5690   44.5800 H   0  0  0  0  0  0  0  0  0  0  0  0
   45.1340   32.3530   47.7800 O   0  0  0  0  0  0  0  0  0  0  0  0
   46.8680   30.7340   48.0670 C   0  0  2  0  0  0  0  0  0  0  0  0
   45.4180   31.0510   48.1000 C   0  0  2  0  0  0  0  0  0  0  0  0
   44.7760   30.0870   47.2320 C   0  0  0  0  0  0  0  0  0  0  0  0
   45.6040   28.9660   47.1060 O   0  0  0  0  0  0  0  0  0  0  0  0
   46.6430   29.1750   47.9480 C   0  0  0  0  0  0  0  0  0  0  0  0
   47.3970   30.8130   47.1030 H   0  0  0  0  0  0  0  0  0  0  0  0
   45.1900   31.0110   49.2050 H   0  0  0  0  0  0  0  0  0  0  0  0
   44.1020   30.3120   46.4340 H   0  0  0  0  0  0  0  0  0  0  0  0
   44.0040   29.6000   47.9290 H   0  0  0  0  0  0  0  0  0  0  0  0
   47.5850   28.6710   47.7470 H   0  0  0  0  0  0  0  0  0  0  0  0
   46.3500   28.9070   48.9960 H   0  0  0  0  0  0  0  0  0  0  0  0
   47.5710   30.9570   49.1900 O   0  0  0  0  0  0  0  0  0  0  0  0
   48.8320   31.2860   49.2430 C   0  0  0  0  0  0  0  0  0  0  0  0
   49.1460   32.2960   49.2150 H   0  0  0  0  0  0  0  0  0  0  0  0
   49.2570   30.9450   48.1600 H   0  0  0  0  0  0  0  0  0  0  0  0
   49.5410   30.3160   50.1820 C   0  0  0  0  0  0  0  0  0  0  0  0
   50.6360   30.5090   50.1810 H   0  0  0  0  0  0  0  0  0  0  0  0
   49.0840   30.4040   51.1780 H   0  0  0  0  0  0  0  0  0  0  0  0
   49.3940   29.2950   49.7270 H   0  0  0  0  0  0  0  0  0  0  0  0
   45.2300   34.1930   45.6800 O   0  0  0  0  0  0  0  0  0  0  0  0
   44.1300   35.1480   42.3990 C   0  0  0  0  0  0  0  0  0  0  0  0
   45.3070   35.0300   41.6030 C   0  0  0  0  0  0  0  0  0  0  0  0
   46.4700   34.6100   42.2660 C   0  0  0  0  0  0  0  0  0  0  0  0
   46.4150   34.3460   43.5890 N   0  0  0  0  0  0  0  0  0  0  0  0
   45.2880   34.4670   44.3060 C   0  0  0  0  0  0  0  0  0  0  0  0
   44.1610   34.8650   43.7110 N   0  0  0  0  0  0  0  0  0  0  0  0
   45.3930   35.2350   40.5690 H   0  0  0  0  0  0  0  0  0  0  0  0
   47.3870   34.5090   41.6910 H   0  0  0  0  0  0  0  0  0  0  0  0
   42.9750   35.5530   41.8070 O   0  0  0  0  0  0  0  0  0  0  0  0
   42.0700   33.5980   40.9550 C   0  0  0  0  0  0  0  0  0  0  0  0
   42.4800   34.8920   40.7040 C   0  0  0  0  0  0  0  0  0  0  0  0
   42.3620   35.3960   39.4260 C   0  0  0  0  0  0  0  0  0  0  0  0
   42.7080   36.4290   39.3100 H   0  0  0  0  0  0  0  0  0  0  0  0
   41.8510   34.6590   38.3790 C   0  0  0  0  0  0  0  0  0  0  0  0
   41.4440   33.3680   38.6330 C   0  0  0  0  0  0  0  0  0  0  0  0
   41.5490   32.8360   39.9040 C   0  0  0  0  0  0  0  0  0  0  0  0
   42.0850   32.8730   42.1420 O   0  0  0  0  0  0  0  0  0  0  0  0
   41.2220   32.4550   42.5230 H   0  0  0  0  0  0  0  0  0  0  0  0
   41.0970   31.5090   40.0230 O   0  0  0  0  0  0  0  0  0  0  0  0
   41.4740   30.8630   39.3400 H   0  0  0  0  0  0  0  0  0  0  0  0
  2  1  2  1  0  0  0
  2  5  1  0  0  0  0
  3  2  1  0  0  0  0
  4  3  1  0  0  0  0
  5  7  1  0  0  0  0
  6 11  1  6  0  0  0
  6  7  1  0  0  0  0
  6 17  1  0  0  0  0
  7 12  1  1  0  0  0
  8 14  1  0  0  0  0
  8  7  1  0  0  0  0
  9  8  1  0  0  0  0
  9 10  1  0  0  0  0
 10  6  1  0  0  0  0
 10 16  1  0  0  0  0
 13  8  1  0  0  0  0
 15 10  1  0  0  0  0
 17 18  1  0  0  0  0
 18 21  1  0  0  0  0
 19 18  1  0  0  0  0
 20 18  1  0  0  0  0
 21 23  1  0  0  0  0
 22 21  1  0  0  0  0
 24 21  1  0  0  0  0
 25  2  1  0  0  0  0
 26 31  1  0  0  0  0
 27 28  1  0  0  0  0
 27 26  2  0  0  0  0
 28 29  2  0  0  0  0
 29 30  1  0  0  0  0
 30 25  1  0  0  0  0
 31 30  2  0  0  0  0
 32 27  1  0  0  0  0
 33 28  1  0  0  0  0
 34 26  1  0  0  0  0
 35 42  1  0  0  0  0
 36 35  1  0  0  0  0
 36 34  1  0  0  0  0
 37 36  2  0  0  0  0
 38 37  1  0  0  0  0
 39 40  2  0  0  0  0
 39 37  1  0  0  0  0
 40 41  1  0  0  0  0
 41 44  1  0  0  0  0
 41 35  2  0  0  0  0
 42 43  1  0  0  0  0
 45 44  1  0  0  0  0
M  END
>  <minimizedAffinity>
-5.25849962

>  <minimizedRMSD>
3.10121107

$$$$
