
 OpenBabel03242514333D

 28 29  0  0  0  0  0  0  0  0999 V2000
   49.4080   35.5760   42.5520 O   0  0  0  0  0  0  0  0  0  0  0  0
   48.9280   34.3400   41.8530 P   0  0  1  0  0  0  0  0  0  0  0  0
   50.2620   33.3590   41.5770 O   0  0  0  0  0  0  0  0  0  0  0  0
   51.0610   33.9350   41.4570 H   0  0  0  0  0  0  0  0  0  0  0  0
   47.7700   33.5300   42.8170 O   0  0  0  0  0  0  0  0  0  0  0  0
   46.1680   35.3000   42.7260 C   0  0  0  0  0  0  0  0  0  0  0  0
   46.7170   34.2280   43.4100 C   0  0  0  0  0  0  0  0  0  0  0  0
   46.1900   33.8980   44.6600 C   0  0  0  0  0  0  0  0  0  0  0  0
   45.1620   34.6500   45.1420 N   0  0  0  0  0  0  0  0  0  0  0  0
   44.6540   35.6780   44.4570 C   0  0  0  0  0  0  0  0  0  0  0  0
   45.1580   35.9910   43.2640 N   0  0  0  0  0  0  0  0  0  0  0  0
   46.5260   35.6170   41.7470 H   0  0  0  0  0  0  0  0  0  0  0  0
   46.6300   33.0500   45.1930 H   0  0  0  0  0  0  0  0  0  0  0  0
   43.8460   36.1620   44.9860 H   0  0  0  0  0  0  0  0  0  0  0  0
   48.2550   34.7740   40.3890 O   0  0  0  0  0  0  0  0  0  0  0  0
   47.7660   33.9530   39.4390 C   0  0  0  0  0  0  0  0  0  0  0  0
   46.5210   33.6690   39.6540 O   0  0  0  0  0  0  0  0  0  0  0  0
   47.5450   33.4300   37.0200 C   0  0  0  0  0  0  0  0  0  0  0  0
   48.1910   33.2540   38.1910 C   0  0  0  0  0  0  0  0  0  0  0  0
   49.2980   32.3980   38.2610 C   0  0  0  0  0  0  0  0  0  0  0  0
   49.8110   32.2710   39.2270 H   0  0  0  0  0  0  0  0  0  0  0  0
   49.7910   31.7010   37.1940 C   0  0  0  0  0  3  0  0  0  0  0  0
   49.1490   31.8640   35.9940 C   0  0  0  0  0  3  0  0  0  0  0  0
   48.0610   32.7090   35.9350 C   0  0  0  0  0  0  0  0  0  0  0  0
   46.4490   34.2540   36.8720 O   0  0  0  0  0  0  0  0  0  0  0  0
   46.5620   35.2760   36.8950 H   0  0  0  0  0  0  0  0  0  0  0  0
   47.3770   32.9010   34.7220 O   0  0  0  0  0  0  0  0  0  0  0  0
   47.1180   33.8470   34.4730 H   0  0  0  0  0  0  0  0  0  0  0  0
  2  1  2  1  0  0  0
  2  5  1  0  0  0  0
  3  2  1  0  0  0  0
  4  3  1  0  0  0  0
  5  7  1  0  0  0  0
  6 11  2  0  0  0  0
  6  7  1  0  0  0  0
  7  8  2  0  0  0  0
  8  9  1  0  0  0  0
  8 13  1  0  0  0  0
 10 14  1  0  0  0  0
 10  9  2  0  0  0  0
 11 10  1  0  0  0  0
 12  6  1  0  0  0  0
 15  2  1  0  0  0  0
 16 17  2  0  0  0  0
 16 15  1  0  0  0  0
 18 19  1  0  0  0  0
 19 20  2  0  0  0  0
 19 16  1  0  0  0  0
 20 21  1  0  0  0  0
 22 20  1  0  0  0  0
 23 22  2  0  0  0  0
 24 23  1  0  0  0  0
 24 18  2  0  0  0  0
 25 26  1  0  0  0  0
 25 18  1  0  0  0  0
 27 24  1  0  0  0  0
 28 27  1  0  0  0  0
M  END
>  <minimizedAffinity>
-5.31882

>  <minimizedRMSD>
1.17121089

$$$$
