
 OpenBabel03242522513D

 28 29  0  0  0  0  0  0  0  0999 V2000
   45.3560   30.8150   47.5490 O   0  0  0  0  0  0  0  0  0  0  0  0
   45.7980   32.0710   48.3490 P   0  0  2  0  0  0  0  0  0  0  0  0
   45.2350   31.8220   49.9150 O   0  0  0  0  0  0  0  0  0  0  0  0
   45.9740   31.8990   50.5680 H   0  0  0  0  0  0  0  0  0  0  0  0
   45.0290   33.4040   47.6540 O   0  0  0  0  0  0  0  0  0  0  0  0
   46.6820   33.5220   44.4180 C   0  0  0  0  0  0  0  0  0  0  0  0
   46.3340   33.1260   45.7330 C   0  0  0  0  0  0  0  0  0  0  0  0
   45.3370   33.8220   46.3760 C   0  0  0  0  0  0  0  0  0  0  0  0
   44.7470   34.8430   45.7240 N   0  0  0  0  0  0  0  0  0  0  0  0
   45.0710   35.2200   44.4840 C   0  0  0  0  0  0  0  0  0  0  0  0
   46.0400   34.5620   43.8270 N   0  0  0  0  0  0  0  0  0  0  0  0
   47.4530   33.0370   43.8320 H   0  0  0  0  0  0  0  0  0  0  0  0
   46.9180   32.3040   46.0560 H   0  0  0  0  0  0  0  0  0  0  0  0
   44.5200   36.0610   44.0630 H   0  0  0  0  0  0  0  0  0  0  0  0
   47.4460   32.2040   48.2900 O   0  0  0  0  0  0  0  0  0  0  0  0
   48.4520   31.4210   48.7220 C   0  0  0  0  0  0  0  0  0  0  0  0
   49.4110   32.1210   49.3000 O   0  0  0  0  0  0  0  0  0  0  0  0
   48.5910   29.0770   47.9520 C   0  0  0  0  0  0  0  0  0  0  0  0
   48.9830   30.0180   48.8300 C   0  0  0  0  0  0  0  0  0  0  0  0
   49.8770   29.6260   49.8410 C   0  0  0  0  0  0  0  0  0  0  0  0
   50.1410   30.4650   50.5110 H   0  0  0  0  0  0  0  0  0  0  0  0
   50.4070   28.3810   50.0430 C   0  0  0  0  0  3  0  0  0  0  0  0
   49.9720   27.4860   49.1260 C   0  0  0  0  0  3  0  0  0  0  0  0
   49.1060   27.7790   48.1140 C   0  0  0  0  0  0  0  0  0  0  0  0
   47.7240   29.2280   46.8820 O   0  0  0  0  0  0  0  0  0  0  0  0
   47.8890   28.8590   45.9540 H   0  0  0  0  0  0  0  0  0  0  0  0
   48.7210   26.7870   47.2260 O   0  0  0  0  0  0  0  0  0  0  0  0
   47.7440   26.7430   46.9570 H   0  0  0  0  0  0  0  0  0  0  0  0
  2  1  2  6  0  0  0
  2  3  1  0  0  0  0
  3  4  1  0  0  0  0
  5  2  1  0  0  0  0
  6  7  1  0  0  0  0
  7 13  1  0  0  0  0
  7  8  2  0  0  0  0
  8  5  1  0  0  0  0
  9  8  1  0  0  0  0
 10  9  2  0  0  0  0
 11  6  2  0  0  0  0
 11 10  1  0  0  0  0
 12  6  1  0  0  0  0
 14 10  1  0  0  0  0
 15  2  1  0  0  0  0
 15 16  1  0  0  0  0
 16 19  1  0  0  0  0
 16 17  2  0  0  0  0
 18 24  2  0  0  0  0
 18 19  1  0  0  0  0
 19 20  2  0  0  0  0
 20 22  1  0  0  0  0
 20 21  1  0  0  0  0
 23 22  2  0  0  0  0
 24 23  1  0  0  0  0
 25 18  1  0  0  0  0
 26 25  1  0  0  0  0
 27 24  1  0  0  0  0
 28 27  1  0  0  0  0
M  END
>  <minimizedAffinity>
-5.02259254

>  <minimizedRMSD>
0.707882941

$$$$
