
 OpenBabel03242512273D

 24 25  0  0  0  0  0  0  0  0999 V2000
   45.7840   32.9440   46.6240 C   0  0  0  0  0  0  0  0  0  0  0  0
   44.9270   33.3320   47.4860 O   0  0  0  0  0  0  0  0  0  0  0  0
   45.1530   35.3240   43.9670 C   0  0  0  0  0  0  0  0  0  0  0  0
   46.1400   35.0410   43.0190 C   0  0  0  0  0  0  0  0  0  0  0  0
   47.0500   34.0100   43.2840 C   0  0  0  0  0  0  0  0  0  0  0  0
   46.9200   33.3470   44.4470 N   0  0  0  0  0  0  0  0  0  0  0  0
   45.9700   33.6230   45.3560 C   0  0  0  0  0  0  0  0  0  0  0  0
   45.0910   34.6130   45.1090 N   0  0  0  0  0  0  0  0  0  0  0  0
   44.2330   36.3670   43.7010 N   0  0  0  0  0  0  0  0  0  0  0  0
   46.2380   35.5770   42.0870 H   0  0  0  0  0  0  0  0  0  0  0  0
   47.8370   33.7290   42.6070 H   0  0  0  0  0  0  0  0  0  0  0  0
   44.5180   37.2930   43.2770 H   0  0  0  0  0  0  0  0  0  0  0  0
   43.2000   36.4340   43.8470 H   0  0  0  0  0  0  0  0  0  0  0  0
   47.6060   31.8920   47.9070 C   0  0  0  0  0  0  0  0  0  0  0  0
   46.5380   31.7680   47.0470 C   0  0  0  0  0  0  0  0  0  0  0  0
   46.2750   30.4730   46.6510 C   0  0  0  0  0  0  0  0  0  0  0  0
   45.4550   30.2910   45.9760 H   0  0  0  0  0  0  0  0  0  0  0  0
   46.9890   29.3640   47.0510 C   0  0  0  0  0  3  0  0  0  0  0  0
   48.0520   29.5350   47.9130 C   0  0  0  0  0  3  0  0  0  0  0  0
   48.3570   30.8100   48.3410 C   0  0  0  0  0  0  0  0  0  0  0  0
   48.0130   33.1430   48.4120 O   0  0  0  0  0  0  0  0  0  0  0  0
   47.3900   33.4950   49.1480 H   0  0  0  0  0  0  0  0  0  0  0  0
   49.4270   30.9780   49.2090 O   0  0  0  0  0  0  0  0  0  0  0  0
   49.6650   31.9070   49.5280 H   0  0  0  0  0  0  0  0  0  0  0  0
  1 15  1  0  0  0  0
  1  2  2  0  0  0  0
  3  8  1  0  0  0  0
  4  5  1  0  0  0  0
  4  3  2  0  0  0  0
  5  6  2  0  0  0  0
  6  7  1  0  0  0  0
  7  1  1  0  0  0  0
  8  7  2  0  0  0  0
  9 13  1  0  0  0  0
  9  3  1  0  0  0  0
 10  4  1  0  0  0  0
 11  5  1  0  0  0  0
 12  9  1  0  0  0  0
 14 20  1  0  0  0  0
 14 21  1  0  0  0  0
 15 14  2  0  0  0  0
 16 15  1  0  0  0  0
 16 18  2  0  0  0  0
 17 16  1  0  0  0  0
 18 19  1  0  0  0  0
 19 20  2  0  0  0  0
 20 23  1  0  0  0  0
 21 22  1  0  0  0  0
 23 24  1  0  0  0  0
M  END
>  <minimizedAffinity>
-5.17957878

>  <minimizedRMSD>
1.67097163

$$$$
