
 OpenBabel03242522513D

 28 29  0  0  0  0  0  0  0  0999 V2000
   45.8720   30.4230   47.9740 O   0  0  0  0  0  0  0  0  0  0  0  0
   46.0850   31.8510   48.5460 P   0  0  2  0  0  0  0  0  0  0  0  0
   45.4040   31.8200   50.0840 O   0  0  0  0  0  0  0  0  0  0  0  0
   46.0600   32.1110   50.7640 H   0  0  0  0  0  0  0  0  0  0  0  0
   45.2390   32.9210   47.5520 O   0  0  0  0  0  0  0  0  0  0  0  0
   47.2100   32.7500   44.5020 C   0  0  0  0  0  0  0  0  0  0  0  0
   46.7060   32.4520   45.7910 C   0  0  0  0  0  0  0  0  0  0  0  0
   45.7010   33.2460   46.2930 C   0  0  0  0  0  0  0  0  0  0  0  0
   45.2510   34.2640   45.5330 N   0  0  0  0  0  0  0  0  0  0  0  0
   45.7230   34.5490   44.3160 C   0  0  0  0  0  0  0  0  0  0  0  0
   46.7040   33.7940   43.7960 N   0  0  0  0  0  0  0  0  0  0  0  0
   48.0000   32.1840   44.0230 H   0  0  0  0  0  0  0  0  0  0  0  0
   47.1970   31.6140   46.2130 H   0  0  0  0  0  0  0  0  0  0  0  0
   45.2760   35.3980   43.7990 H   0  0  0  0  0  0  0  0  0  0  0  0
   47.7040   32.1880   48.5860 O   0  0  0  0  0  0  0  0  0  0  0  0
   48.7750   31.5210   49.0550 C   0  0  0  0  0  0  0  0  0  0  0  0
   49.7830   32.3310   49.3240 O   0  0  0  0  0  0  0  0  0  0  0  0
   49.9670   30.0080   50.6010 C   0  0  0  0  0  0  0  0  0  0  0  0
   49.3490   30.1800   49.4190 C   0  0  0  0  0  0  0  0  0  0  0  0
   49.2870   29.0730   48.5570 C   0  0  0  0  0  0  0  0  0  0  0  0
   48.7630   29.3100   47.6130 H   0  0  0  0  0  0  0  0  0  0  0  0
   49.7890   27.8190   48.7780 C   0  0  0  0  0  3  0  0  0  0  0  0
   50.3950   27.7170   49.9830 C   0  0  0  0  0  3  0  0  0  0  0  0
   50.5010   28.7390   50.8800 C   0  0  0  0  0  0  0  0  0  0  0  0
   50.1480   30.9470   51.6050 O   0  0  0  0  0  0  0  0  0  0  0  0
   49.9900   30.7720   52.5890 H   0  0  0  0  0  0  0  0  0  0  0  0
   51.1450   28.5300   52.0910 O   0  0  0  0  0  0  0  0  0  0  0  0
   51.7730   29.2530   52.4260 H   0  0  0  0  0  0  0  0  0  0  0  0
  2  1  2  6  0  0  0
  2 15  1  0  0  0  0
  2  3  1  0  0  0  0
  3  4  1  0  0  0  0
  5  2  1  0  0  0  0
  6  7  1  0  0  0  0
  7 13  1  0  0  0  0
  7  8  2  0  0  0  0
  8  5  1  0  0  0  0
  9  8  1  0  0  0  0
 10  9  2  0  0  0  0
 11 10  1  0  0  0  0
 11  6  2  0  0  0  0
 12  6  1  0  0  0  0
 14 10  1  0  0  0  0
 15 16  1  0  0  0  0
 16 17  2  0  0  0  0
 16 19  1  0  0  0  0
 18 24  1  0  0  0  0
 18 25  1  0  0  0  0
 19 18  2  0  0  0  0
 20 22  2  0  0  0  0
 20 19  1  0  0  0  0
 21 20  1  0  0  0  0
 22 23  1  0  0  0  0
 23 24  2  0  0  0  0
 24 27  1  0  0  0  0
 25 26  1  0  0  0  0
 27 28  1  0  0  0  0
M  END
>  <minimizedAffinity>
-5.44735003

>  <minimizedRMSD>
1.27918863

$$$$
