
 OpenBabel03242510573D

 38 40  0  0  0  0  0  0  0  0999 V2000
   45.6510   31.5710   47.1430 C   0  0  0  0  0  0  0  0  0  0  0  0
   45.6240   32.0370   48.4740 C   0  0  0  0  0  0  0  0  0  0  0  0
   45.4020   31.2120   49.5520 C   0  0  0  0  0  0  0  0  0  0  0  0
   45.1990   29.8770   49.3070 C   0  0  0  0  0  0  0  0  0  0  0  0
   45.2270   29.4160   47.9840 C   0  0  0  0  0  0  0  0  0  0  0  0
   45.4470   30.2670   46.9880 N   0  0  0  0  0  0  0  0  0  0  0  0
   45.7890   33.0970   48.6150 H   0  0  0  0  0  0  0  0  0  0  0  0
   45.3920   31.6290   50.5530 H   0  0  0  0  0  0  0  0  0  0  0  0
   45.0230   29.2270   50.1730 H   0  0  0  0  0  0  0  0  0  0  0  0
   44.7980   36.5440   43.8300 C   0  0  0  0  0  0  0  0  0  0  0  0
   45.6880   36.2410   42.8050 C   0  0  0  0  0  0  0  0  0  0  0  0
   46.3440   34.9910   42.8320 C   0  0  0  0  0  0  0  0  0  0  0  0
   46.0790   34.1310   43.8600 N   0  0  0  0  0  0  0  0  0  0  0  0
   45.1950   34.4840   44.8390 C   0  0  0  0  0  0  0  0  0  0  0  0
   44.5510   35.6850   44.8330 N   0  0  0  0  0  0  0  0  0  0  0  0
   45.8940   32.5090   46.0560 C   0  0  0  0  0  0  0  0  0  0  0  0
   46.9100   32.3370   45.3290 O   0  0  0  0  0  0  0  0  0  0  0  0
   44.9360   33.5740   45.9050 N   0  0  0  0  0  0  0  0  0  0  0  0
   44.3520   37.5230   43.7150 H   0  0  0  0  0  0  0  0  0  0  0  0
   45.9590   36.8410   41.9650 H   0  0  0  0  0  0  0  0  0  0  0  0
   47.0530   34.5890   42.1360 H   0  0  0  0  0  0  0  0  0  0  0  0
   44.1280   33.6690   46.5240 H   0  0  0  0  0  0  0  0  0  0  0  0
   45.0210   28.0040   47.7390 C   0  0  0  0  0  0  0  0  0  0  0  0
   44.6330   27.2110   48.7110 C   0  0  0  0  0  0  0  0  0  0  0  0
   44.3830   25.7480   48.6690 C   0  0  0  0  0  0  0  0  0  0  0  0
   44.0830   25.4660   47.6580 H   0  0  0  0  0  0  0  0  0  0  0  0
   43.5060   25.5560   49.3390 H   0  0  0  0  0  0  0  0  0  0  0  0
   45.4320   24.5670   50.4580 C   0  0  0  0  0  0  0  0  0  0  0  0
   45.5750   24.9780   49.1270 C   0  0  0  0  0  0  0  0  0  0  0  0
   46.7240   24.6440   48.4400 C   0  0  0  0  0  0  0  0  0  0  0  0
   46.7210   25.0150   47.4250 H   0  0  0  0  0  0  0  0  0  0  0  0
   47.7120   23.9130   49.0630 C   0  0  0  0  0  0  0  0  0  0  0  0
   47.5780   23.4990   50.3860 C   0  0  0  0  0  0  0  0  0  0  0  0
   46.4410   23.8360   51.0530 C   0  0  0  0  0  0  0  0  0  0  0  0
   44.3200   24.8380   51.2710 O   0  0  0  0  0  0  0  0  0  0  0  0
   44.0600   25.8090   51.4560 H   0  0  0  0  0  0  0  0  0  0  0  0
   46.3390   23.4060   52.3760 O   0  0  0  0  0  0  0  0  0  0  0  0
   46.3040   24.0380   53.1650 H   0  0  0  0  0  0  0  0  0  0  0  0
  1  2  1  0  0  0  0
  2  7  1  0  0  0  0
  2  3  2  0  0  0  0
  3  8  1  0  0  0  0
  4  3  1  0  0  0  0
  4  9  1  0  0  0  0
  5  4  2  0  0  0  0
  6  1  2  0  0  0  0
  6  5  1  0  0  0  0
 10 15  1  0  0  0  0
 11 12  1  0  0  0  0
 11 10  2  0  0  0  0
 12 13  2  0  0  0  0
 13 14  1  0  0  0  0
 14 18  1  0  0  0  0
 15 14  2  0  0  0  0
 16  1  1  0  0  0  0
 17 16  2  0  0  0  0
 18 16  1  0  0  0  0
 18 22  1  0  0  0  0
 19 10  1  0  0  0  0
 20 11  1  0  0  0  0
 21 12  1  0  0  0  0
 23  5  1  0  0  0  0
 23 24  2  0  0  0  0
 25 24  1  0  0  0  0
 25 29  1  0  0  0  0
 25 27  1  0  0  0  0
 26 25  1  0  0  0  0
 28 34  1  0  0  0  0
 28 35  1  0  0  0  0
 29 28  2  0  0  0  0
 30 32  2  0  0  0  0
 30 29  1  0  0  0  0
 31 30  1  0  0  0  0
 32 33  1  0  0  0  0
 33 34  2  0  0  0  0
 34 37  1  0  0  0  0
 35 36  1  0  0  0  0
 37 38  1  0  0  0  0
M  END
>  <minimizedAffinity>
-6.82966375

>  <minimizedRMSD>
2.38297939

$$$$
