
 OpenBabel03252506343D

 35 37  0  0  1  0  0  0  0  0999 V2000
   44.4010   35.7170   44.9650 C   0  0  0  0  0  0  0  0  0  0  0  0
   45.0880   35.7380   43.7310 C   0  0  0  0  0  0  0  0  0  0  0  0
   46.0610   34.8140   43.4960 C   0  0  0  0  0  0  0  0  0  0  0  0
   46.3130   33.9150   44.4830 N   0  0  0  0  0  0  0  0  0  0  0  0
   45.6660   33.9000   45.6380 C   0  0  0  0  0  0  0  0  0  0  0  0
   44.7010   34.8000   45.8970 N   0  0  0  0  0  0  0  0  0  0  0  0
   46.0130   32.9170   46.5970 N   0  0  0  0  0  0  0  0  0  0  0  0
   45.2050   32.5510   47.7580 C   0  0  0  0  0  0  0  0  0  0  0  0
   46.2830   32.3310   48.8200 C   0  0  0  0  0  0  0  0  0  0  0  0
   47.5990   32.3040   48.1150 C   0  0  0  0  0  0  0  0  0  0  0  0
   47.1830   32.0760   46.6700 C   0  0  1  0  0  0  0  0  0  0  0  0
   43.6230   36.4440   45.1710 H   0  0  0  0  0  0  0  0  0  0  0  0
   46.5830   34.8350   42.5490 H   0  0  0  0  0  0  0  0  0  0  0  0
   44.7510   31.5780   47.5170 H   0  0  0  0  0  0  0  0  0  0  0  0
   44.4900   33.3230   48.0460 H   0  0  0  0  0  0  0  0  0  0  0  0
   46.0360   31.3910   49.3740 H   0  0  0  0  0  0  0  0  0  0  0  0
   46.2450   33.1600   49.5570 H   0  0  0  0  0  0  0  0  0  0  0  0
   48.3210   31.5880   48.4930 H   0  0  0  0  0  0  0  0  0  0  0  0
   48.0500   33.3380   48.1440 H   0  0  0  0  0  0  0  0  0  0  0  0
   48.0140   32.4420   46.0470 H   0  0  0  0  0  0  0  0  0  0  0  0
   44.6920   36.7600   42.7980 N   0  0  0  0  0  0  0  0  0  0  0  0
   45.5480   37.3730   42.7480 H   0  0  0  0  0  0  0  0  0  0  0  0
   43.7450   36.7590   42.3570 H   0  0  0  0  0  0  0  0  0  0  0  0
   46.8010   30.3410   46.4140 S   0  0  0  0  0  0  0  0  0  0  0  0
   48.9280   28.7230   47.4700 C   0  0  0  0  0  0  0  0  0  0  0  0
   48.2890   29.3590   46.4320 C   0  0  0  0  0  0  0  0  0  0  0  0
   48.8340   29.2600   45.1470 C   0  0  0  0  0  0  0  0  0  0  0  0
   48.4510   29.7050   44.2200 H   0  0  0  0  0  0  0  0  0  0  0  0
   50.0060   28.5310   44.9200 C   0  0  0  0  0  3  0  0  0  0  0  0
   50.6270   27.9020   45.9790 C   0  0  0  0  0  3  0  0  0  0  0  0
   50.0680   28.0130   47.2430 C   0  0  0  0  0  0  0  0  0  0  0  0
   48.2820   28.9010   48.6760 O   0  0  0  0  0  0  0  0  0  0  0  0
   48.8120   29.1510   49.5170 H   0  0  0  0  0  0  0  0  0  0  0  0
   50.5930   27.4260   48.4100 O   0  0  0  0  0  0  0  0  0  0  0  0
   51.2990   26.7100   48.3600 H   0  0  0  0  0  0  0  0  0  0  0  0
  1 12  1  0  0  0  0
  1  6  1  0  0  0  0
  2  1  2  0  0  0  0
  3  2  1  0  0  0  0
  3  4  2  0  0  0  0
  4  5  1  0  0  0  0
  5  6  2  0  0  0  0
  5  7  1  0  0  0  0
  7 11  1  0  0  0  0
  7  8  1  0  0  0  0
  8 15  1  0  0  0  0
  8  9  1  0  0  0  0
  9 16  1  0  0  0  0
  9 17  1  0  0  0  0
 10 19  1  0  0  0  0
 10 18  1  0  0  0  0
 10  9  1  0  0  0  0
 11 20  1  6  0  0  0
 11 10  1  0  0  0  0
 13  3  1  0  0  0  0
 14  8  1  0  0  0  0
 21  2  1  0  0  0  0
 22 21  1  0  0  0  0
 23 21  1  0  0  0  0
 24 26  1  0  0  0  0
 24 11  1  0  0  0  0
 25 32  1  0  0  0  0
 26 25  2  0  0  0  0
 27 26  1  0  0  0  0
 28 27  1  0  0  0  0
 29 27  2  0  0  0  0
 29 30  1  0  0  0  0
 30 31  2  0  0  0  0
 31 25  1  0  0  0  0
 31 34  1  0  0  0  0
 32 33  1  0  0  0  0
 35 34  1  0  0  0  0
M  END
>  <minimizedAffinity>
-5.38152981

>  <minimizedRMSD>
0.520427823

$$$$
