
 OpenBabel03252509273D

 32 34  0  0  1  0  0  0  0  0999 V2000
   47.1000   35.2330   41.8490 C   0  0  1  0  0  0  0  0  0  0  0  0
   48.6270   35.5190   41.9430 C   0  0  0  0  0  0  0  0  0  0  0  0
   47.9540   34.4310   41.0690 C   0  0  2  0  0  0  0  0  0  0  0  0
   46.5270   36.0830   41.4410 H   0  0  0  0  0  0  0  0  0  0  0  0
   49.1650   35.2180   42.8420 H   0  0  0  0  0  0  0  0  0  0  0  0
   48.9520   36.4310   41.4280 H   0  0  0  0  0  0  0  0  0  0  0  0
   48.2960   33.4000   41.3900 H   0  0  0  0  0  0  0  0  0  0  0  0
   45.0420   34.7000   44.9370 C   0  0  0  0  0  0  0  0  0  0  0  0
   45.4850   35.3010   43.7250 C   0  0  0  0  0  0  0  0  0  0  0  0
   46.5740   34.7200   43.1670 C   0  0  0  0  0  0  0  0  0  0  0  0
   47.2000   33.6290   43.7430 N   0  0  0  0  0  0  0  0  0  0  0  0
   46.7370   33.0960   44.8960 C   0  0  0  0  0  0  0  0  0  0  0  0
   45.6510   33.6370   45.4940 N   0  0  0  0  0  0  0  0  0  0  0  0
   44.1770   35.1310   45.4110 H   0  0  0  0  0  0  0  0  0  0  0  0
   47.3320   32.2510   45.2160 H   0  0  0  0  0  0  0  0  0  0  0  0
   44.8610   36.4270   43.1540 N   0  0  0  0  0  0  0  0  0  0  0  0
   43.8100   36.4740   43.1880 H   0  0  0  0  0  0  0  0  0  0  0  0
   45.4720   37.1730   42.7200 H   0  0  0  0  0  0  0  0  0  0  0  0
   48.0000   34.5730   39.5700 C   0  0  0  0  0  0  0  0  0  0  0  0
   46.9630   34.8390   39.2610 H   0  0  0  0  0  0  0  0  0  0  0  0
   48.6200   35.4680   39.3330 H   0  0  0  0  0  0  0  0  0  0  0  0
   48.3360   33.6120   37.4610 C   0  0  0  0  0  0  0  0  0  0  0  0
   48.5290   33.4270   38.8370 C   0  0  0  0  0  0  0  0  0  0  0  0
   49.1530   32.2610   39.2220 C   0  0  0  0  0  0  0  0  0  0  0  0
   49.2630   32.1930   40.2830 H   0  0  0  0  0  0  0  0  0  0  0  0
   49.5730   31.3140   38.3190 C   0  0  0  0  0  3  0  0  0  0  0  0
   49.3750   31.5080   36.9530 C   0  0  0  0  0  3  0  0  0  0  0  0
   48.7560   32.6610   36.5450 C   0  0  0  0  0  0  0  0  0  0  0  0
   47.7310   34.7060   36.8350 O   0  0  0  0  0  0  0  0  0  0  0  0
   48.2370   35.5870   36.9010 H   0  0  0  0  0  0  0  0  0  0  0  0
   48.6080   32.7600   35.1690 O   0  0  0  0  0  0  0  0  0  0  0  0
   48.3660   33.6970   34.8160 H   0  0  0  0  0  0  0  0  0  0  0  0
  1  4  1  6  0  0  0
  1  2  1  0  0  0  0
  1 10  1  0  0  0  0
  2  5  1  0  0  0  0
  3  7  1  1  0  0  0
  3  1  1  0  0  0  0
  3  2  1  0  0  0  0
  6  2  1  0  0  0  0
  8 14  1  0  0  0  0
  8 13  1  0  0  0  0
  9  8  2  0  0  0  0
 10  9  1  0  0  0  0
 10 11  2  0  0  0  0
 11 12  1  0  0  0  0
 12 15  1  0  0  0  0
 12 13  2  0  0  0  0
 16 17  1  0  0  0  0
 16  9  1  0  0  0  0
 18 16  1  0  0  0  0
 19  3  1  0  0  0  0
 20 19  1  0  0  0  0
 21 19  1  0  0  0  0
 22 23  1  0  0  0  0
 23 24  2  0  0  0  0
 23 19  1  0  0  0  0
 24 25  1  0  0  0  0
 26 24  1  0  0  0  0
 27 26  2  0  0  0  0
 28 27  1  0  0  0  0
 28 22  2  0  0  0  0
 29 30  1  0  0  0  0
 29 22  1  0  0  0  0
 31 28  1  0  0  0  0
 32 31  1  0  0  0  0
M  END
>  <minimizedAffinity>
-5.66495085

>  <minimizedRMSD>
2.1442101

$$$$
