
 OpenBabel03242514453D

 23 24  0  0  0  0  0  0  0  0999 V2000
   45.4220   35.1040   44.0630 C   0  0  0  0  0  0  0  0  0  0  0  0
   46.4620   34.3210   43.5670 C   0  0  0  0  0  0  0  0  0  0  0  0
   46.9600   33.2850   44.3800 C   0  0  0  0  0  0  0  0  0  0  0  0
   46.3900   33.1130   45.6070 N   0  0  0  0  0  0  0  0  0  0  0  0
   45.3730   33.9100   46.0430 C   0  0  0  0  0  0  0  0  0  0  0  0
   44.8990   34.8990   45.2650 N   0  0  0  0  0  0  0  0  0  0  0  0
   47.7580   32.6220   44.0950 H   0  0  0  0  0  0  0  0  0  0  0  0
   44.9990   33.6770   47.0370 H   0  0  0  0  0  0  0  0  0  0  0  0
   46.4710   33.8870   41.1620 C   0  0  0  0  0  0  0  0  0  0  0  0
   47.0840   34.4920   42.2540 C   0  0  0  0  0  0  0  0  0  0  0  0
   48.2400   35.2380   42.1670 C   0  0  0  0  0  0  0  0  0  0  0  0
   48.6700   35.6860   43.0620 H   0  0  0  0  0  0  0  0  0  0  0  0
   48.8040   35.3820   40.9170 C   0  0  0  0  0  0  0  0  0  0  0  0
   48.2230   34.7960   39.8110 C   0  0  0  0  0  0  0  0  0  0  0  0
   47.0670   34.0530   39.9190 C   0  0  0  0  0  0  0  0  0  0  0  0
   45.3080   33.1450   41.3000 O   0  0  0  0  0  0  0  0  0  0  0  0
   44.4300   33.6590   41.2450 H   0  0  0  0  0  0  0  0  0  0  0  0
   46.4370   33.4370   38.8210 O   0  0  0  0  0  0  0  0  0  0  0  0
   47.0660   32.8970   38.2160 H   0  0  0  0  0  0  0  0  0  0  0  0
   44.9220   36.1930   43.1690 C   0  0  0  0  0  0  0  0  0  0  0  0
   45.2410   36.0420   42.1240 H   0  0  0  0  0  0  0  0  0  0  0  0
   43.8160   36.1860   43.1990 H   0  0  0  0  0  0  0  0  0  0  0  0
   45.2960   37.1710   43.5760 H   0  0  0  0  0  0  0  0  0  0  0  0
  1  6  1  0  0  0  0
  2  1  2  0  0  0  0
  2  3  1  0  0  0  0
  3  4  2  0  0  0  0
  4  5  1  0  0  0  0
  5  8  1  0  0  0  0
  6  5  2  0  0  0  0
  7  3  1  0  0  0  0
  9 16  1  0  0  0  0
  9 10  1  0  0  0  0
 10  2  1  0  0  0  0
 11 10  2  0  0  0  0
 11 12  1  0  0  0  0
 13 11  1  0  0  0  0
 14 15  1  0  0  0  0
 14 13  2  0  0  0  0
 15  9  2  0  0  0  0
 17 16  1  0  0  0  0
 18 15  1  0  0  0  0
 19 18  1  0  0  0  0
 20 22  1  0  0  0  0
 20 23  1  0  0  0  0
 20  1  1  0  0  0  0
 21 20  1  0  0  0  0
M  END
>  <minimizedAffinity>
-5.18932486

>  <minimizedRMSD>
0.162025705

$$$$
