
 OpenBabel03252504543D

 23 24  0  0  0  0  0  0  0  0999 V2000
   45.5310   33.5860   42.0100 C   0  0  0  0  0  0  0  0  0  0  0  0
   44.6780   33.7430   41.3160 H   0  0  0  0  0  0  0  0  0  0  0  0
   45.6790   32.4760   42.0190 H   0  0  0  0  0  0  0  0  0  0  0  0
   44.3580   35.9300   44.6370 C   0  0  0  0  0  0  0  0  0  0  0  0
   44.6360   35.3840   43.3680 C   0  0  0  0  0  0  0  0  0  0  0  0
   45.2490   34.1370   43.3360 C   0  0  0  0  0  0  0  0  0  0  0  0
   45.5480   33.5110   44.5020 N   0  0  0  0  0  0  0  0  0  0  0  0
   45.2620   34.0740   45.7020 C   0  0  0  0  0  0  0  0  0  0  0  0
   44.6700   35.2780   45.7550 N   0  0  0  0  0  0  0  0  0  0  0  0
   43.8740   36.9120   44.6300 H   0  0  0  0  0  0  0  0  0  0  0  0
   44.3790   35.9210   42.4440 H   0  0  0  0  0  0  0  0  0  0  0  0
   45.4950   33.5860   46.6390 H   0  0  0  0  0  0  0  0  0  0  0  0
   47.0340   34.1460   40.1310 C   0  0  0  0  0  0  0  0  0  0  0  0
   46.7640   34.2550   41.4940 C   0  0  0  0  0  0  0  0  0  0  0  0
   47.6150   34.9580   42.3200 C   0  0  0  0  0  0  0  0  0  0  0  0
   47.3360   34.9970   43.3650 H   0  0  0  0  0  0  0  0  0  0  0  0
   48.7480   35.5660   41.8070 C   0  0  0  0  0  0  0  0  0  0  0  0
   49.0190   35.4570   40.4430 C   0  0  0  0  0  0  0  0  0  0  0  0
   48.1620   34.7490   39.6100 C   0  0  0  0  0  0  0  0  0  0  0  0
   46.2230   33.4510   39.2220 O   0  0  0  0  0  0  0  0  0  0  0  0
   45.4240   32.9890   39.6460 H   0  0  0  0  0  0  0  0  0  0  0  0
   48.5500   34.7220   38.2860 O   0  0  0  0  0  0  0  0  0  0  0  0
   48.7580   33.8330   37.8440 H   0  0  0  0  0  0  0  0  0  0  0  0
  1  3  1  0  0  0  0
  1  6  1  0  0  0  0
  2  1  1  0  0  0  0
  4  9  1  0  0  0  0
  5  4  2  0  0  0  0
  6  5  1  0  0  0  0
  6  7  2  0  0  0  0
  7  8  1  0  0  0  0
  8  9  2  0  0  0  0
  8 12  1  0  0  0  0
 10  4  1  0  0  0  0
 11  5  1  0  0  0  0
 13 14  1  0  0  0  0
 14  1  1  0  0  0  0
 14 15  2  0  0  0  0
 15 16  1  0  0  0  0
 17 15  1  0  0  0  0
 18 17  2  0  0  0  0
 19 13  2  0  0  0  0
 19 18  1  0  0  0  0
 20 21  1  0  0  0  0
 20 13  1  0  0  0  0
 22 19  1  0  0  0  0
 23 22  1  0  0  0  0
M  END
>  <minimizedAffinity>
-4.98973227

>  <minimizedRMSD>
2.93888736

$$$$
