
 OpenBabel03252501553D

 23 24  0  0  0  0  0  0  0  0999 V2000
   44.5810   35.5180   45.0460 C   0  0  0  0  0  0  0  0  0  0  0  0
   45.2290   35.4120   43.8050 C   0  0  0  0  0  0  0  0  0  0  0  0
   46.1340   34.3780   43.6390 C   0  0  0  0  0  0  0  0  0  0  0  0
   46.3390   33.5540   44.6570 N   0  0  0  0  0  0  0  0  0  0  0  0
   45.7240   33.6510   45.8430 C   0  0  0  0  0  0  0  0  0  0  0  0
   44.8270   34.6430   46.0630 N   0  0  0  0  0  0  0  0  0  0  0  0
   43.8620   36.2970   45.2320 H   0  0  0  0  0  0  0  0  0  0  0  0
   45.9710   32.9170   46.6150 H   0  0  0  0  0  0  0  0  0  0  0  0
   46.3930   33.7810   41.1680 C   0  0  0  0  0  0  0  0  0  0  0  0
   46.7540   34.3710   42.3410 C   0  0  0  0  0  0  0  0  0  0  0  0
   47.9200   35.1590   42.3160 C   0  0  0  0  0  0  0  0  0  0  0  0
   48.3510   35.6800   43.1660 H   0  0  0  0  0  0  0  0  0  0  0  0
   48.6680   35.3350   41.1820 C   0  0  0  0  0  3  0  0  0  0  0  0
   48.2380   34.7000   40.0140 C   0  0  0  0  0  3  0  0  0  0  0  0
   47.1090   33.9180   39.9700 C   0  0  0  0  0  0  0  0  0  0  0  0
   45.2220   33.0180   41.2910 O   0  0  0  0  0  0  0  0  0  0  0  0
   45.0830   32.3740   42.0750 H   0  0  0  0  0  0  0  0  0  0  0  0
   46.5780   33.2380   38.8910 O   0  0  0  0  0  0  0  0  0  0  0  0
   46.8340   32.2700   38.6570 H   0  0  0  0  0  0  0  0  0  0  0  0
   44.8680   36.4820   42.8220 C   0  0  0  0  0  0  0  0  0  0  0  0
   45.4390   37.4040   43.1660 H   0  0  0  0  0  0  0  0  0  0  0  0
   45.1000   36.2610   41.7890 H   0  0  0  0  0  0  0  0  0  0  0  0
   43.8050   36.7550   42.9940 H   0  0  0  0  0  0  0  0  0  0  0  0
  1  7  1  0  0  0  0
  1  6  1  0  0  0  0
  2  1  2  0  0  0  0
  3  2  1  0  0  0  0
  3  4  2  0  0  0  0
  4  5  1  0  0  0  0
  5  6  2  0  0  0  0
  5  8  1  0  0  0  0
  9 16  1  0  0  0  0
  9 10  1  0  0  0  0
 10  3  1  0  0  0  0
 11 10  2  0  0  0  0
 11 12  1  0  0  0  0
 13 11  1  0  0  0  0
 14 13  2  0  0  0  0
 15 14  1  0  0  0  0
 15  9  2  0  0  0  0
 16 17  1  0  0  0  0
 18 15  1  0  0  0  0
 19 18  1  0  0  0  0
 20 23  1  0  0  0  0
 20 21  1  0  0  0  0
 20  2  1  0  0  0  0
 22 20  1  0  0  0  0
M  END
>  <minimizedAffinity>
-5.19946146

>  <minimizedRMSD>
2.07247114

$$$$
