
 OpenBabel03252505193D

 36 39  0  0  0  0  0  0  0  0999 V2000
   46.2240   32.5350   46.9340 C   0  0  0  0  0  0  0  0  0  0  0  0
   45.3360   32.7160   47.9870 C   0  0  0  0  0  0  0  0  0  0  0  0
   45.4390   31.8960   49.0920 C   0  0  0  0  0  0  0  0  0  0  0  0
   46.4280   30.9320   49.0880 C   0  0  0  0  0  0  0  0  0  0  0  0
   47.2890   30.7940   48.0110 C   0  0  0  0  0  0  0  0  0  0  0  0
   47.1830   31.6070   46.9230 N   0  0  0  0  0  0  0  0  0  0  0  0
   44.5900   33.4940   47.9120 H   0  0  0  0  0  0  0  0  0  0  0  0
   44.7480   32.0370   49.9110 H   0  0  0  0  0  0  0  0  0  0  0  0
   46.4810   30.3170   49.9560 H   0  0  0  0  0  0  0  0  0  0  0  0
   44.9620   35.1040   44.5950 C   0  0  0  0  0  0  0  0  0  0  0  0
   45.8350   34.9960   43.4970 C   0  0  0  0  0  0  0  0  0  0  0  0
   46.8330   34.0480   43.6040 C   0  0  0  0  0  0  0  0  0  0  0  0
   46.9520   33.2630   44.7310 N   0  0  0  0  0  0  0  0  0  0  0  0
   46.0790   33.4050   45.7700 C   0  0  0  0  0  0  0  0  0  0  0  0
   45.0950   34.3290   45.6810 N   0  0  0  0  0  0  0  0  0  0  0  0
   44.1620   35.8340   44.5570 H   0  0  0  0  0  0  0  0  0  0  0  0
   45.7510   35.6010   42.6190 H   0  0  0  0  0  0  0  0  0  0  0  0
   47.7950   33.8240   42.4810 C   0  0  0  0  0  0  0  0  0  0  0  0
   49.0960   34.6140   42.6300 C   0  0  0  0  0  0  0  0  0  0  0  0
   48.9870   33.0540   42.7110 C   0  0  0  0  0  0  0  0  0  0  0  0
   47.2890   33.9220   41.4900 H   0  0  0  0  0  0  0  0  0  0  0  0
   49.4760   35.0200   41.6960 H   0  0  0  0  0  0  0  0  0  0  0  0
   49.3310   35.1110   43.5740 H   0  0  0  0  0  0  0  0  0  0  0  0
   49.1880   32.5980   43.6910 H   0  0  0  0  0  0  0  0  0  0  0  0
   49.4360   32.5400   41.8250 H   0  0  0  0  0  0  0  0  0  0  0  0
   48.0380   28.4450   47.8350 C   0  0  0  0  0  0  0  0  0  0  0  0
   48.3350   29.7810   48.0010 C   0  0  0  0  0  0  0  0  0  0  0  0
   49.6770   30.0430   48.1530 C   0  0  0  0  0  0  0  0  0  0  0  0
   50.0020   31.0620   48.2890 H   0  0  0  0  0  0  0  0  0  0  0  0
   50.6530   29.0670   48.1400 C   0  0  0  0  0  3  0  0  0  0  0  0
   50.2900   27.7450   47.9680 C   0  0  0  0  0  3  0  0  0  0  0  0
   48.9770   27.4350   47.8140 C   0  0  0  0  0  0  0  0  0  0  0  0
   46.7180   28.0530   47.6720 O   0  0  0  0  0  0  0  0  0  0  0  0
   46.1670   27.7830   48.4790 H   0  0  0  0  0  0  0  0  0  0  0  0
   48.5940   26.1000   47.6400 O   0  0  0  0  0  0  0  0  0  0  0  0
   48.9330   25.3860   48.2660 H   0  0  0  0  0  0  0  0  0  0  0  0
  1  2  1  0  0  0  0
  2  3  2  0  0  0  0
  3  8  1  0  0  0  0
  4  3  1  0  0  0  0
  4  9  1  0  0  0  0
  5  4  2  0  0  0  0
  6  1  2  0  0  0  0
  6  5  1  0  0  0  0
  7  2  1  0  0  0  0
 10 15  1  0  0  0  0
 11 12  1  0  0  0  0
 11 10  2  0  0  0  0
 12 13  2  0  0  0  0
 13 14  1  0  0  0  0
 14  1  1  0  0  0  0
 15 14  2  0  0  0  0
 16 10  1  0  0  0  0
 17 11  1  0  0  0  0
 18 19  1  0  0  0  0
 18 20  1  0  0  0  0
 18 12  1  0  0  0  0
 19 20  1  0  0  0  0
 19 23  1  0  0  0  0
 20 24  1  0  0  0  0
 21 18  1  0  0  0  0
 22 19  1  0  0  0  0
 25 20  1  0  0  0  0
 26 27  1  0  0  0  0
 27  5  1  0  0  0  0
 27 28  2  0  0  0  0
 28 29  1  0  0  0  0
 30 28  1  0  0  0  0
 31 30  2  0  0  0  0
 32 26  2  0  0  0  0
 32 31  1  0  0  0  0
 33 26  1  0  0  0  0
 33 34  1  0  0  0  0
 35 32  1  0  0  0  0
 35 36  1  0  0  0  0
M  END
>  <minimizedAffinity>
-5.77304554

>  <minimizedRMSD>
1.09197557

$$$$
