
 OpenBabel03242512453D

 40 42  0  0  1  0  0  0  0  0999 V2000
   45.5880   34.0910   44.8210 C   0  0  0  0  0  0  0  0  0  0  0  0
   45.9180   33.4300   43.6300 C   0  0  0  0  0  0  0  0  0  0  0  0
   46.3580   32.1050   43.7390 C   0  0  0  0  0  0  0  0  0  0  0  0
   46.4380   31.5450   44.9860 N   0  0  0  0  0  0  0  0  0  0  0  0
   46.1130   32.2200   46.0790 C   0  0  0  0  0  0  0  0  0  0  0  0
   45.6890   33.4910   46.0020 N   0  0  0  0  0  0  0  0  0  0  0  0
   46.2140   31.5370   47.3570 N   0  0  0  0  0  0  0  0  0  0  0  0
   46.4790   32.3320   48.5280 C   0  0  0  0  0  0  0  0  0  0  0  0
   45.7710   31.8030   49.6970 C   0  0  0  0  0  0  0  0  0  0  0  0
   44.7610   30.7210   49.4850 C   0  0  0  0  0  0  0  0  0  0  0  0
   45.1520   29.6870   48.4830 C   0  0  0  0  0  0  0  0  0  0  0  0
   46.0090   30.1050   47.3660 C   0  0  2  0  0  0  0  0  0  0  0  0
   45.8440   33.8970   42.6610 H   0  0  0  0  0  0  0  0  0  0  0  0
   46.6310   31.5280   42.8640 H   0  0  0  0  0  0  0  0  0  0  0  0
   47.5600   32.4440   48.6520 H   0  0  0  0  0  0  0  0  0  0  0  0
   46.1220   33.3890   48.3010 H   0  0  0  0  0  0  0  0  0  0  0  0
   46.5100   31.4200   50.4550 H   0  0  0  0  0  0  0  0  0  0  0  0
   45.2420   32.6200   50.2400 H   0  0  0  0  0  0  0  0  0  0  0  0
   43.8230   31.2050   49.1380 H   0  0  0  0  0  0  0  0  0  0  0  0
   44.5500   30.2600   50.4650 H   0  0  0  0  0  0  0  0  0  0  0  0
   44.2320   29.1560   48.1660 H   0  0  0  0  0  0  0  0  0  0  0  0
   45.7230   28.9050   49.0670 H   0  0  0  0  0  0  0  0  0  0  0  0
   45.4430   29.8390   46.4090 H   0  0  0  0  0  0  0  0  0  0  0  0
   47.3260   27.9910   47.4530 C   0  0  0  0  0  0  0  0  0  0  0  0
   47.2810   29.3820   47.2610 C   0  0  0  0  0  0  0  0  0  0  0  0
   48.5380   29.8730   47.0040 C   0  0  0  0  0  0  0  0  0  0  0  0
   48.6410   30.9330   46.8480 H   0  0  0  0  0  0  0  0  0  0  0  0
   49.7060   29.1510   46.9300 C   0  0  0  0  0  3  0  0  0  0  0  0
   49.6440   27.7900   47.1320 C   0  0  0  0  0  3  0  0  0  0  0  0
   48.4340   27.1880   47.4000 C   0  0  0  0  0  0  0  0  0  0  0  0
   46.1300   27.3300   47.7270 O   0  0  0  0  0  0  0  0  0  0  0  0
   45.7360   26.7030   47.0160 H   0  0  0  0  0  0  0  0  0  0  0  0
   48.3650   25.8210   47.6040 O   0  0  0  0  0  0  0  0  0  0  0  0
   48.7990   25.1520   46.9520 H   0  0  0  0  0  0  0  0  0  0  0  0
   45.1650   35.3810   44.6580 O   0  0  0  0  0  0  0  0  0  0  0  0
   44.4880   35.8730   43.5540 C   0  0  0  0  0  0  0  0  0  0  0  0
   45.0140   36.5780   42.6440 O   0  0  0  0  0  0  0  0  0  0  0  0
   43.1200   35.6500   43.3060 N   0  0  0  0  0  0  0  0  0  0  0  0
   42.3410   35.1730   42.8250 H   0  0  0  0  0  0  0  0  0  0  0  0
   42.3980   36.2060   43.8310 H   0  0  0  0  0  0  0  0  0  0  0  0
  1  6  1  0  0  0  0
  2  3  1  0  0  0  0
  2  1  2  0  0  0  0
  3  4  2  0  0  0  0
  4  5  1  0  0  0  0
  5  7  1  0  0  0  0
  6  5  2  0  0  0  0
  7 12  1  0  0  0  0
  7  8  1  0  0  0  0
  8 15  1  0  0  0  0
  8  9  1  0  0  0  0
  9 18  1  0  0  0  0
  9 17  1  0  0  0  0
 10  9  1  0  0  0  0
 10 20  1  0  0  0  0
 11 22  1  0  0  0  0
 11 10  1  0  0  0  0
 12 23  1  6  0  0  0
 12 11  1  0  0  0  0
 13  2  1  0  0  0  0
 14  3  1  0  0  0  0
 16  8  1  0  0  0  0
 19 10  1  0  0  0  0
 21 11  1  0  0  0  0
 24 31  1  0  0  0  0
 25 12  1  0  0  0  0
 25 24  2  0  0  0  0
 26 25  1  0  0  0  0
 27 26  1  0  0  0  0
 28 26  2  0  0  0  0
 28 29  1  0  0  0  0
 29 30  2  0  0  0  0
 30 24  1  0  0  0  0
 30 33  1  0  0  0  0
 32 31  1  0  0  0  0
 34 33  1  0  0  0  0
 35  1  1  0  0  0  0
 36 35  1  0  0  0  0
 37 36  2  0  0  0  0
 38 36  1  0  0  0  0
 38 40  1  0  0  0  0
 39 38  1  0  0  0  0
M  END
>  <minimizedAffinity>
-5.35729074

>  <minimizedRMSD>
1.17319751

$$$$
