
 OpenBabel03242523013D

 33 35  0  0  0  0  0  0  0  0999 V2000
   36.9600   31.5750   38.8330 C   0  0  0  0  0  0  0  0  0  0  0  0
   36.9730   30.4430   39.6470 C   0  0  0  0  0  0  0  0  0  0  0  0
   38.0940   30.0230   40.3290 C   0  0  0  0  0  0  0  0  0  0  0  0
   39.1890   30.7950   40.1530 N   0  0  0  0  0  0  0  0  0  0  0  0
   39.2030   31.8920   39.3730 C   0  0  0  0  0  0  0  0  0  0  0  0
   38.0920   32.2790   38.7170 N   0  0  0  0  0  0  0  0  0  0  0  0
   36.0380   31.8370   38.3300 H   0  0  0  0  0  0  0  0  0  0  0  0
   36.0620   29.8550   39.7550 H   0  0  0  0  0  0  0  0  0  0  0  0
   39.3440   30.4420   42.9940 Cl  0  0  0  0  0  0  0  0  0  0  0  0
   38.6770   28.9380   42.4120 C   0  0  0  0  0  0  0  0  0  0  0  0
   38.1290   28.8420   41.1860 C   0  0  0  0  0  0  0  0  0  0  0  0
   37.6270   27.6060   40.8150 C   0  0  0  0  0  0  0  0  0  0  0  0
   37.6760   26.5280   41.6380 C   0  0  0  0  0  0  0  0  0  0  0  0
   38.2370   26.6350   42.8840 C   0  0  0  0  0  0  0  0  0  0  0  0
   38.7370   27.8550   43.2620 C   0  0  0  0  0  0  0  0  0  0  0  0
   37.1800   27.5000   39.8340 H   0  0  0  0  0  0  0  0  0  0  0  0
   38.2980   25.7920   43.5810 H   0  0  0  0  0  0  0  0  0  0  0  0
   39.1810   27.9450   44.2470 H   0  0  0  0  0  0  0  0  0  0  0  0
   37.1390   25.1980   41.2440 C   0  0  0  0  0  0  0  0  0  0  0  0
   36.3270   25.3700   40.1540 F   0  0  0  0  0  0  0  0  0  0  0  0
   36.4700   24.5940   42.2980 F   0  0  0  0  0  0  0  0  0  0  0  0
   38.2110   24.3830   40.9100 F   0  0  0  0  0  0  0  0  0  0  0  0
   40.8850   32.9840   37.9510 C   0  0  0  0  0  0  0  0  0  0  0  0
   40.4270   32.6830   39.2270 C   0  0  0  0  0  0  0  0  0  0  0  0
   41.1180   33.1230   40.3380 C   0  0  0  0  0  0  0  0  0  0  0  0
   40.7700   32.8940   41.3430 H   0  0  0  0  0  0  0  0  0  0  0  0
   42.2900   33.8800   40.2400 C   0  0  0  0  0  3  0  0  0  0  0  0
   42.6820   34.1390   38.9420 C   0  0  0  0  0  3  0  0  0  0  0  0
   42.0460   33.7340   37.7900 C   0  0  0  0  0  0  0  0  0  0  0  0
   40.1860   32.5380   36.8420 O   0  0  0  0  0  0  0  0  0  0  0  0
   40.4170   31.6820   36.3450 H   0  0  0  0  0  0  0  0  0  0  0  0
   42.5460   34.0630   36.5360 O   0  0  0  0  0  0  0  0  0  0  0  0
   41.9080   34.1470   35.7320 H   0  0  0  0  0  0  0  0  0  0  0  0
  1  2  1  0  0  0  0
  2  8  1  0  0  0  0
  2  3  2  0  0  0  0
  3 11  1  0  0  0  0
  4  3  1  0  0  0  0
  5  4  2  0  0  0  0
  6  1  2  0  0  0  0
  6  5  1  0  0  0  0
  7  1  1  0  0  0  0
 10  9  1  0  0  0  0
 10 15  1  0  0  0  0
 11 10  2  0  0  0  0
 12 11  1  0  0  0  0
 12 13  2  0  0  0  0
 13 14  1  0  0  0  0
 14 15  2  0  0  0  0
 14 17  1  0  0  0  0
 15 18  1  0  0  0  0
 16 12  1  0  0  0  0
 19 13  1  0  0  0  0
 19 21  1  0  0  0  0
 20 19  1  0  0  0  0
 22 19  1  0  0  0  0
 23 24  1  0  0  0  0
 24  5  1  0  0  0  0
 24 25  2  0  0  0  0
 25 26  1  0  0  0  0
 27 25  1  0  0  0  0
 28 27  2  0  0  0  0
 29 23  2  0  0  0  0
 29 28  1  0  0  0  0
 30 23  1  0  0  0  0
 31 30  1  0  0  0  0
 32 29  1  0  0  0  0
 33 32  1  0  0  0  0
M  END
>  <minimizedAffinity>
-7.2680316

$$$$

 OpenBabel03242523013D

 33 35  0  0  0  0  0  0  0  0999 V2000
   36.6960   30.7180   38.0840 C   0  0  0  0  0  0  0  0  0  0  0  0
   36.5800   29.5830   38.8850 C   0  0  0  0  0  0  0  0  0  0  0  0
   37.5820   29.1550   39.7270 C   0  0  0  0  0  0  0  0  0  0  0  0
   38.6950   29.9220   39.7240 N   0  0  0  0  0  0  0  0  0  0  0  0
   38.8320   31.0220   38.9600 C   0  0  0  0  0  0  0  0  0  0  0  0
   37.8360   31.4170   38.1450 N   0  0  0  0  0  0  0  0  0  0  0  0
   35.8620   30.9870   37.4480 H   0  0  0  0  0  0  0  0  0  0  0  0
   35.6610   29.0000   38.8500 H   0  0  0  0  0  0  0  0  0  0  0  0
   37.8280   29.6720   42.6450 Cl  0  0  0  0  0  0  0  0  0  0  0  0
   37.5820   28.1090   41.9100 C   0  0  0  0  0  0  0  0  0  0  0  0
   37.4810   27.9700   40.5740 C   0  0  0  0  0  0  0  0  0  0  0  0
   37.2870   26.6890   40.0870 C   0  0  0  0  0  0  0  0  0  0  0  0
   37.1970   25.6090   40.9040 C   0  0  0  0  0  0  0  0  0  0  0  0
   37.3010   25.7600   42.2620 C   0  0  0  0  0  0  0  0  0  0  0  0
   37.4940   27.0250   42.7560 C   0  0  0  0  0  0  0  0  0  0  0  0
   37.2020   26.5480   39.0160 H   0  0  0  0  0  0  0  0  0  0  0  0
   37.2350   24.9170   42.9590 H   0  0  0  0  0  0  0  0  0  0  0  0
   37.5760   27.1500   43.8300 H   0  0  0  0  0  0  0  0  0  0  0  0
   36.9880   24.2310   40.3850 C   0  0  0  0  0  0  0  0  0  0  0  0
   37.3970   24.1990   39.0770 F   0  0  0  0  0  0  0  0  0  0  0  0
   35.6650   23.8370   40.5230 F   0  0  0  0  0  0  0  0  0  0  0  0
   37.7620   23.3640   41.1430 F   0  0  0  0  0  0  0  0  0  0  0  0
   40.5090   32.4340   37.8480 C   0  0  0  0  0  0  0  0  0  0  0  0
   40.0680   31.8070   39.0060 C   0  0  0  0  0  0  0  0  0  0  0  0
   40.7850   31.9240   40.1790 C   0  0  0  0  0  0  0  0  0  0  0  0
   40.4500   31.4370   41.0930 H   0  0  0  0  0  0  0  0  0  0  0  0
   41.9690   32.6630   40.2620 C   0  0  0  0  0  3  0  0  0  0  0  0
   42.3430   33.2570   39.0740 C   0  0  0  0  0  3  0  0  0  0  0  0
   41.6810   33.1850   37.8690 C   0  0  0  0  0  0  0  0  0  0  0  0
   39.7830   32.3110   36.6750 O   0  0  0  0  0  0  0  0  0  0  0  0
   39.9900   31.6180   35.9610 H   0  0  0  0  0  0  0  0  0  0  0  0
   42.1650   33.8320   36.7390 O   0  0  0  0  0  0  0  0  0  0  0  0
   41.5150   34.1370   36.0010 H   0  0  0  0  0  0  0  0  0  0  0  0
  1  6  2  0  0  0  0
  1  2  1  0  0  0  0
  2  3  2  0  0  0  0
  3 11  1  0  0  0  0
  4  3  1  0  0  0  0
  5 24  1  0  0  0  0
  5  4  2  0  0  0  0
  6  5  1  0  0  0  0
  7  1  1  0  0  0  0
  8  2  1  0  0  0  0
 10  9  1  0  0  0  0
 10 15  1  0  0  0  0
 11 10  2  0  0  0  0
 12 11  1  0  0  0  0
 12 13  2  0  0  0  0
 13 14  1  0  0  0  0
 14 15  2  0  0  0  0
 14 17  1  0  0  0  0
 15 18  1  0  0  0  0
 16 12  1  0  0  0  0
 19 21  1  0  0  0  0
 19 13  1  0  0  0  0
 19 22  1  0  0  0  0
 20 19  1  0  0  0  0
 23 29  2  0  0  0  0
 23 24  1  0  0  0  0
 24 25  2  0  0  0  0
 25 27  1  0  0  0  0
 25 26  1  0  0  0  0
 28 27  2  0  0  0  0
 29 28  1  0  0  0  0
 30 23  1  0  0  0  0
 31 30  1  0  0  0  0
 32 29  1  0  0  0  0
 33 32  1  0  0  0  0
M  END
>  <minimizedAffinity>
-6.81903505

$$$$

 OpenBabel03242523013D

 33 35  0  0  0  0  0  0  0  0999 V2000
   37.2150   33.1750   39.7810 C   0  0  0  0  0  0  0  0  0  0  0  0
   36.9030   31.8260   39.9480 C   0  0  0  0  0  0  0  0  0  0  0  0
   37.8580   30.8330   39.9660 C   0  0  0  0  0  0  0  0  0  0  0  0
   39.1290   31.2630   39.8110 N   0  0  0  0  0  0  0  0  0  0  0  0
   39.4570   32.5580   39.6480 C   0  0  0  0  0  0  0  0  0  0  0  0
   38.5030   33.5090   39.6340 N   0  0  0  0  0  0  0  0  0  0  0  0
   36.4060   33.8940   39.7780 H   0  0  0  0  0  0  0  0  0  0  0  0
   35.8620   31.5330   40.0700 H   0  0  0  0  0  0  0  0  0  0  0  0
   37.5050   29.3050   37.4400 Cl  0  0  0  0  0  0  0  0  0  0  0  0
   37.3760   28.6450   39.0500 C   0  0  0  0  0  0  0  0  0  0  0  0
   37.5530   29.4160   40.1410 C   0  0  0  0  0  0  0  0  0  0  0  0
   37.4300   28.8000   41.3740 C   0  0  0  0  0  0  0  0  0  0  0  0
   37.1450   27.4800   41.4990 C   0  0  0  0  0  0  0  0  0  0  0  0
   36.9670   26.7030   40.3840 C   0  0  0  0  0  0  0  0  0  0  0  0
   37.0860   27.3030   39.1570 C   0  0  0  0  0  0  0  0  0  0  0  0
   37.5670   29.3970   42.2680 H   0  0  0  0  0  0  0  0  0  0  0  0
   36.7360   25.6330   40.4380 H   0  0  0  0  0  0  0  0  0  0  0  0
   36.9470   26.6920   38.2710 H   0  0  0  0  0  0  0  0  0  0  0  0
   37.0120   26.8140   42.8230 C   0  0  0  0  0  0  0  0  0  0  0  0
   36.0110   27.4390   43.5180 F   0  0  0  0  0  0  0  0  0  0  0  0
   38.2130   26.8310   43.5170 F   0  0  0  0  0  0  0  0  0  0  0  0
   36.6770   25.4850   42.6040 F   0  0  0  0  0  0  0  0  0  0  0  0
   41.3790   33.0680   38.2020 C   0  0  0  0  0  0  0  0  0  0  0  0
   40.8570   32.9550   39.4840 C   0  0  0  0  0  0  0  0  0  0  0  0
   41.6500   33.2120   40.5840 C   0  0  0  0  0  0  0  0  0  0  0  0
   41.2530   33.1270   41.5940 H   0  0  0  0  0  0  0  0  0  0  0  0
   42.9900   33.5920   40.4690 C   0  0  0  0  0  3  0  0  0  0  0  0
   43.4370   33.6830   39.1660 C   0  0  0  0  0  3  0  0  0  0  0  0
   42.7080   33.4420   38.0240 C   0  0  0  0  0  0  0  0  0  0  0  0
   40.5770   32.8070   37.1030 O   0  0  0  0  0  0  0  0  0  0  0  0
   40.5480   31.9050   36.6360 H   0  0  0  0  0  0  0  0  0  0  0  0
   43.2770   33.5700   36.7630 O   0  0  0  0  0  0  0  0  0  0  0  0
   42.6890   33.8090   35.9530 H   0  0  0  0  0  0  0  0  0  0  0  0
  1  2  1  0  0  0  0
  2  3  2  0  0  0  0
  2  8  1  0  0  0  0
  3 11  1  0  0  0  0
  4  3  1  0  0  0  0
  5  4  2  0  0  0  0
  6  5  1  0  0  0  0
  6  1  2  0  0  0  0
  7  1  1  0  0  0  0
  9 10  1  0  0  0  0
 10 15  2  0  0  0  0
 10 11  1  0  0  0  0
 11 12  2  0  0  0  0
 12 13  1  0  0  0  0
 12 16  1  0  0  0  0
 13 19  1  0  0  0  0
 14 17  1  0  0  0  0
 14 13  2  0  0  0  0
 15 14  1  0  0  0  0
 18 15  1  0  0  0  0
 19 21  1  0  0  0  0
 19 20  1  0  0  0  0
 22 19  1  0  0  0  0
 23 24  1  0  0  0  0
 24  5  1  0  0  0  0
 24 25  2  0  0  0  0
 25 26  1  0  0  0  0
 27 25  1  0  0  0  0
 28 27  2  0  0  0  0
 29 23  2  0  0  0  0
 29 28  1  0  0  0  0
 30 23  1  0  0  0  0
 31 30  1  0  0  0  0
 32 29  1  0  0  0  0
 33 32  1  0  0  0  0
M  END
>  <minimizedAffinity>
-6.73603153

$$$$

 OpenBabel03242523013D

 33 35  0  0  0  0  0  0  0  0999 V2000
   37.0400   28.1170   43.6800 C   0  0  0  0  0  0  0  0  0  0  0  0
   37.0400   26.8550   43.0870 C   0  0  0  0  0  0  0  0  0  0  0  0
   37.3800   26.6470   41.7690 C   0  0  0  0  0  0  0  0  0  0  0  0
   37.7170   27.7620   41.0840 N   0  0  0  0  0  0  0  0  0  0  0  0
   37.7250   28.9910   41.6320 C   0  0  0  0  0  0  0  0  0  0  0  0
   37.3880   29.1660   42.9250 N   0  0  0  0  0  0  0  0  0  0  0  0
   36.7600   28.1970   44.7220 H   0  0  0  0  0  0  0  0  0  0  0  0
   36.7600   25.9880   43.6840 H   0  0  0  0  0  0  0  0  0  0  0  0
   39.8360   25.0360   42.2360 Cl  0  0  0  0  0  0  0  0  0  0  0  0
   38.4600   24.5350   41.2860 C   0  0  0  0  0  0  0  0  0  0  0  0
   37.3870   25.3340   41.1300 C   0  0  0  0  0  0  0  0  0  0  0  0
   36.3460   24.8470   40.3580 C   0  0  0  0  0  0  0  0  0  0  0  0
   36.3860   23.6210   39.7780 C   0  0  0  0  0  0  0  0  0  0  0  0
   37.4820   22.8150   39.9430 C   0  0  0  0  0  0  0  0  0  0  0  0
   38.5200   23.2870   40.7050 C   0  0  0  0  0  0  0  0  0  0  0  0
   35.4700   25.4690   40.2160 H   0  0  0  0  0  0  0  0  0  0  0  0
   37.5580   21.8180   39.4930 H   0  0  0  0  0  0  0  0  0  0  0  0
   39.3890   22.6530   40.8390 H   0  0  0  0  0  0  0  0  0  0  0  0
   35.2700   23.0940   38.9490 C   0  0  0  0  0  0  0  0  0  0  0  0
   35.7420   22.0330   38.2200 F   0  0  0  0  0  0  0  0  0  0  0  0
   34.7370   24.0840   38.1360 F   0  0  0  0  0  0  0  0  0  0  0  0
   34.2630   22.6680   39.8030 F   0  0  0  0  0  0  0  0  0  0  0  0
   37.2070   31.2150   40.7200 C   0  0  0  0  0  0  0  0  0  0  0  0
   38.1010   30.1580   40.8320 C   0  0  0  0  0  0  0  0  0  0  0  0
   39.3250   30.2110   40.1960 C   0  0  0  0  0  0  0  0  0  0  0  0
   40.0360   29.3900   40.2750 H   0  0  0  0  0  0  0  0  0  0  0  0
   39.7210   31.3060   39.4220 C   0  0  0  0  0  3  0  0  0  0  0  0
   38.7810   32.3150   39.3580 C   0  0  0  0  0  3  0  0  0  0  0  0
   37.5450   32.3320   39.9630 C   0  0  0  0  0  0  0  0  0  0  0  0
   35.9800   31.1530   41.3610 O   0  0  0  0  0  0  0  0  0  0  0  0
   35.1280   30.8400   40.9040 H   0  0  0  0  0  0  0  0  0  0  0  0
   36.6860   33.4150   39.8200 O   0  0  0  0  0  0  0  0  0  0  0  0
   36.0010   33.6310   40.5570 H   0  0  0  0  0  0  0  0  0  0  0  0
  1  7  1  0  0  0  0
  2  1  1  0  0  0  0
  2  8  1  0  0  0  0
  3  2  2  0  0  0  0
  4  5  2  0  0  0  0
  4  3  1  0  0  0  0
  5  6  1  0  0  0  0
  6  1  2  0  0  0  0
 10  9  1  0  0  0  0
 11 10  1  0  0  0  0
 11  3  1  0  0  0  0
 12 11  2  0  0  0  0
 13 14  2  0  0  0  0
 13 12  1  0  0  0  0
 14 15  1  0  0  0  0
 15 18  1  0  0  0  0
 15 10  2  0  0  0  0
 16 12  1  0  0  0  0
 17 14  1  0  0  0  0
 19 13  1  0  0  0  0
 19 22  1  0  0  0  0
 20 19  1  0  0  0  0
 21 19  1  0  0  0  0
 23 24  1  0  0  0  0
 23 30  1  0  0  0  0
 24  5  1  0  0  0  0
 25 26  1  0  0  0  0
 25 24  2  0  0  0  0
 27 25  1  0  0  0  0
 28 27  2  0  0  0  0
 28 29  1  0  0  0  0
 29 23  2  0  0  0  0
 31 30  1  0  0  0  0
 32 29  1  0  0  0  0
 32 33  1  0  0  0  0
M  END
>  <minimizedAffinity>
-6.6853385

$$$$

 OpenBabel03242523013D

 33 35  0  0  0  0  0  0  0  0999 V2000
   33.7530   26.8780   36.7040 C   0  0  0  0  0  0  0  0  0  0  0  0
   34.7930   27.1860   37.5800 C   0  0  0  0  0  0  0  0  0  0  0  0
   34.8510   28.3640   38.2900 C   0  0  0  0  0  0  0  0  0  0  0  0
   33.8180   29.2090   38.0770 N   0  0  0  0  0  0  0  0  0  0  0  0
   32.8020   28.9360   37.2380 C   0  0  0  0  0  0  0  0  0  0  0  0
   32.7710   27.7750   36.5550 N   0  0  0  0  0  0  0  0  0  0  0  0
   33.7810   25.9300   36.1830 H   0  0  0  0  0  0  0  0  0  0  0  0
   35.6020   26.4690   37.7160 H   0  0  0  0  0  0  0  0  0  0  0  0
   36.9170   30.1960   37.1830 Cl  0  0  0  0  0  0  0  0  0  0  0  0
   36.9120   29.5290   38.7960 C   0  0  0  0  0  0  0  0  0  0  0  0
   35.9310   28.7050   39.2120 C   0  0  0  0  0  0  0  0  0  0  0  0
   36.0160   28.2280   40.5090 C   0  0  0  0  0  0  0  0  0  0  0  0
   37.0350   28.5660   41.3390 C   0  0  0  0  0  0  0  0  0  0  0  0
   38.0290   29.4050   40.9070 C   0  0  0  0  0  0  0  0  0  0  0  0
   37.9550   29.8840   39.6240 C   0  0  0  0  0  0  0  0  0  0  0  0
   35.2410   27.5640   40.8690 H   0  0  0  0  0  0  0  0  0  0  0  0
   38.8700   29.7050   41.5430 H   0  0  0  0  0  0  0  0  0  0  0  0
   38.7380   30.5480   39.2780 H   0  0  0  0  0  0  0  0  0  0  0  0
   37.1310   28.0560   42.7330 C   0  0  0  0  0  0  0  0  0  0  0  0
   37.4480   29.1070   43.5530 F   0  0  0  0  0  0  0  0  0  0  0  0
   38.0560   27.0280   42.8290 F   0  0  0  0  0  0  0  0  0  0  0  0
   35.8940   27.5380   43.0870 F   0  0  0  0  0  0  0  0  0  0  0  0
   30.9490   30.2680   38.1530 C   0  0  0  0  0  0  0  0  0  0  0  0
   31.7130   29.8990   37.0540 C   0  0  0  0  0  0  0  0  0  0  0  0
   31.4470   30.4320   35.8090 C   0  0  0  0  0  0  0  0  0  0  0  0
   32.0390   30.1510   34.9390 H   0  0  0  0  0  0  0  0  0  0  0  0
   30.4170   31.3520   35.5920 C   0  0  0  0  0  3  0  0  0  0  0  0
   29.7030   31.6700   36.7300 C   0  0  0  0  0  3  0  0  0  0  0  0
   29.9090   31.1800   37.9990 C   0  0  0  0  0  0  0  0  0  0  0  0
   31.2220   29.7280   39.3980 O   0  0  0  0  0  0  0  0  0  0  0  0
   30.7370   28.9170   39.7730 H   0  0  0  0  0  0  0  0  0  0  0  0
   29.1150   31.5830   39.0670 O   0  0  0  0  0  0  0  0  0  0  0  0
   29.4950   31.5760   40.0240 H   0  0  0  0  0  0  0  0  0  0  0  0
  1  2  1  0  0  0  0
  2  8  1  0  0  0  0
  2  3  2  0  0  0  0
  3 11  1  0  0  0  0
  4  3  1  0  0  0  0
  5  4  2  0  0  0  0
  6  1  2  0  0  0  0
  6  5  1  0  0  0  0
  7  1  1  0  0  0  0
  9 10  1  0  0  0  0
 10 11  2  0  0  0  0
 10 15  1  0  0  0  0
 11 12  1  0  0  0  0
 12 16  1  0  0  0  0
 12 13  2  0  0  0  0
 13 19  1  0  0  0  0
 14 13  1  0  0  0  0
 14 17  1  0  0  0  0
 15 14  2  0  0  0  0
 18 15  1  0  0  0  0
 19 21  1  0  0  0  0
 19 22  1  0  0  0  0
 19 20  1  0  0  0  0
 23 30  1  0  0  0  0
 24  5  1  0  0  0  0
 24 23  2  0  0  0  0
 25 24  1  0  0  0  0
 26 25  1  0  0  0  0
 27 25  2  0  0  0  0
 27 28  1  0  0  0  0
 28 29  2  0  0  0  0
 29 23  1  0  0  0  0
 29 32  1  0  0  0  0
 30 31  1  0  0  0  0
 32 33  1  0  0  0  0
M  END
>  <minimizedAffinity>
-6.60322666

$$$$

 OpenBabel03242523013D

 33 35  0  0  0  0  0  0  0  0999 V2000
   37.2580   31.2540   38.4280 C   0  0  0  0  0  0  0  0  0  0  0  0
   37.1410   30.3000   39.4380 C   0  0  0  0  0  0  0  0  0  0  0  0
   38.2060   29.5540   39.8910 C   0  0  0  0  0  0  0  0  0  0  0  0
   39.3840   29.8170   39.2830 N   0  0  0  0  0  0  0  0  0  0  0  0
   39.5240   30.7320   38.3070 C   0  0  0  0  0  0  0  0  0  0  0  0
   38.4640   31.4470   37.8820 N   0  0  0  0  0  0  0  0  0  0  0  0
   36.3710   31.7980   38.1280 H   0  0  0  0  0  0  0  0  0  0  0  0
   36.1680   30.1270   39.8960 H   0  0  0  0  0  0  0  0  0  0  0  0
   39.0570   30.4790   42.5870 Cl  0  0  0  0  0  0  0  0  0  0  0  0
   38.4700   28.8810   42.2010 C   0  0  0  0  0  0  0  0  0  0  0  0
   38.1060   28.5510   40.9470 C   0  0  0  0  0  0  0  0  0  0  0  0
   37.6530   27.2590   40.7420 C   0  0  0  0  0  0  0  0  0  0  0  0
   37.5720   26.3520   41.7480 C   0  0  0  0  0  0  0  0  0  0  0  0
   37.9450   26.6960   43.0200 C   0  0  0  0  0  0  0  0  0  0  0  0
   38.3960   27.9740   43.2360 C   0  0  0  0  0  0  0  0  0  0  0  0
   37.3540   26.9670   39.7430 H   0  0  0  0  0  0  0  0  0  0  0  0
   37.8970   25.9970   43.8630 H   0  0  0  0  0  0  0  0  0  0  0  0
   38.6910   28.2520   44.2410 H   0  0  0  0  0  0  0  0  0  0  0  0
   37.0870   24.9630   41.5320 C   0  0  0  0  0  0  0  0  0  0  0  0
   38.1770   24.1380   41.4370 F   0  0  0  0  0  0  0  0  0  0  0  0
   36.2780   24.8820   40.4080 F   0  0  0  0  0  0  0  0  0  0  0  0
   36.3150   24.6020   42.6270 F   0  0  0  0  0  0  0  0  0  0  0  0
   41.3290   32.2610   37.6370 C   0  0  0  0  0  0  0  0  0  0  0  0
   40.8320   30.9650   37.6900 C   0  0  0  0  0  0  0  0  0  0  0  0
   41.5620   29.9170   37.1680 C   0  0  0  0  0  0  0  0  0  0  0  0
   41.1840   28.8970   37.2040 H   0  0  0  0  0  0  0  0  0  0  0  0
   42.8130   30.0980   36.5720 C   0  0  0  0  0  3  0  0  0  0  0  0
   43.2400   31.4110   36.5560 C   0  0  0  0  0  3  0  0  0  0  0  0
   42.5700   32.5040   37.0540 C   0  0  0  0  0  0  0  0  0  0  0  0
   40.5900   33.3080   38.1620 O   0  0  0  0  0  0  0  0  0  0  0  0
   39.9760   33.8930   37.6020 H   0  0  0  0  0  0  0  0  0  0  0  0
   43.1120   33.7820   36.9760 O   0  0  0  0  0  0  0  0  0  0  0  0
   42.8590   34.4930   37.6760 H   0  0  0  0  0  0  0  0  0  0  0  0
  1  2  1  0  0  0  0
  2  3  2  0  0  0  0
  2  8  1  0  0  0  0
  3 11  1  0  0  0  0
  4  3  1  0  0  0  0
  5  4  2  0  0  0  0
  6  5  1  0  0  0  0
  6  1  2  0  0  0  0
  7  1  1  0  0  0  0
 10  9  1  0  0  0  0
 10 15  1  0  0  0  0
 11 10  2  0  0  0  0
 12 11  1  0  0  0  0
 12 13  2  0  0  0  0
 13 14  1  0  0  0  0
 14 15  2  0  0  0  0
 14 17  1  0  0  0  0
 15 18  1  0  0  0  0
 16 12  1  0  0  0  0
 19 13  1  0  0  0  0
 19 22  1  0  0  0  0
 20 19  1  0  0  0  0
 21 19  1  0  0  0  0
 23 24  1  0  0  0  0
 23 30  1  0  0  0  0
 24  5  1  0  0  0  0
 25 26  1  0  0  0  0
 25 24  2  0  0  0  0
 27 25  1  0  0  0  0
 28 27  2  0  0  0  0
 28 29  1  0  0  0  0
 29 23  2  0  0  0  0
 31 30  1  0  0  0  0
 32 29  1  0  0  0  0
 32 33  1  0  0  0  0
M  END
>  <minimizedAffinity>
-6.32448339

$$$$

 OpenBabel03242523013D

 33 35  0  0  0  0  0  0  0  0999 V2000
   36.2460   28.7870   36.2370 C   0  0  0  0  0  0  0  0  0  0  0  0
   36.6820   28.2320   37.4390 C   0  0  0  0  0  0  0  0  0  0  0  0
   35.8550   28.0520   38.5260 C   0  0  0  0  0  0  0  0  0  0  0  0
   34.5790   28.4550   38.3420 N   0  0  0  0  0  0  0  0  0  0  0  0
   34.1320   28.9930   37.1930 C   0  0  0  0  0  0  0  0  0  0  0  0
   34.9630   29.1580   36.1450 N   0  0  0  0  0  0  0  0  0  0  0  0
   36.9590   28.8940   35.4300 H   0  0  0  0  0  0  0  0  0  0  0  0
   37.7230   27.9230   37.5350 H   0  0  0  0  0  0  0  0  0  0  0  0
   35.8590   29.9310   40.8310 Cl  0  0  0  0  0  0  0  0  0  0  0  0
   36.3260   28.2510   40.8920 C   0  0  0  0  0  0  0  0  0  0  0  0
   36.2920   27.4730   39.7930 C   0  0  0  0  0  0  0  0  0  0  0  0
   36.6830   26.1530   39.9430 C   0  0  0  0  0  0  0  0  0  0  0  0
   37.0840   25.6480   41.1360 C   0  0  0  0  0  0  0  0  0  0  0  0
   37.1150   26.4470   42.2490 C   0  0  0  0  0  0  0  0  0  0  0  0
   36.7310   27.7560   42.1130 C   0  0  0  0  0  0  0  0  0  0  0  0
   36.6650   25.5050   39.0750 H   0  0  0  0  0  0  0  0  0  0  0  0
   37.4320   26.0810   43.2330 H   0  0  0  0  0  0  0  0  0  0  0  0
   36.7530   28.3920   42.9900 H   0  0  0  0  0  0  0  0  0  0  0  0
   37.5040   24.2310   41.3020 C   0  0  0  0  0  0  0  0  0  0  0  0
   37.6540   23.9820   42.6410 F   0  0  0  0  0  0  0  0  0  0  0  0
   38.6660   23.9650   40.5930 F   0  0  0  0  0  0  0  0  0  0  0  0
   36.5040   23.4220   40.7810 F   0  0  0  0  0  0  0  0  0  0  0  0
   31.9820   29.6130   38.2120 C   0  0  0  0  0  0  0  0  0  0  0  0
   32.7330   29.4090   37.0620 C   0  0  0  0  0  0  0  0  0  0  0  0
   32.1670   29.5950   35.8170 C   0  0  0  0  0  0  0  0  0  0  0  0
   32.7450   29.4380   34.9080 H   0  0  0  0  0  0  0  0  0  0  0  0
   30.8370   29.9900   35.6510 C   0  0  0  0  0  3  0  0  0  0  0  0
   30.1550   30.1740   36.8370 C   0  0  0  0  0  3  0  0  0  0  0  0
   30.6510   30.0070   38.1100 C   0  0  0  0  0  0  0  0  0  0  0  0
   32.5580   29.4230   39.4570 O   0  0  0  0  0  0  0  0  0  0  0  0
   32.4810   28.5550   39.9810 H   0  0  0  0  0  0  0  0  0  0  0  0
   29.8570   30.2250   39.2290 O   0  0  0  0  0  0  0  0  0  0  0  0
   30.2870   30.5160   40.1180 H   0  0  0  0  0  0  0  0  0  0  0  0
  1  2  1  0  0  0  0
  2  8  1  0  0  0  0
  2  3  2  0  0  0  0
  3 11  1  0  0  0  0
  4  3  1  0  0  0  0
  5  4  2  0  0  0  0
  6  1  2  0  0  0  0
  6  5  1  0  0  0  0
  7  1  1  0  0  0  0
  9 10  1  0  0  0  0
 10 15  1  0  0  0  0
 11 12  1  0  0  0  0
 11 10  2  0  0  0  0
 12 13  2  0  0  0  0
 13 19  1  0  0  0  0
 13 14  1  0  0  0  0
 14 17  1  0  0  0  0
 15 14  2  0  0  0  0
 15 18  1  0  0  0  0
 16 12  1  0  0  0  0
 19 20  1  0  0  0  0
 21 19  1  0  0  0  0
 22 19  1  0  0  0  0
 23 30  1  0  0  0  0
 24  5  1  0  0  0  0
 24 23  2  0  0  0  0
 25 24  1  0  0  0  0
 26 25  1  0  0  0  0
 27 25  2  0  0  0  0
 27 28  1  0  0  0  0
 28 29  2  0  0  0  0
 29 23  1  0  0  0  0
 29 32  1  0  0  0  0
 30 31  1  0  0  0  0
 32 33  1  0  0  0  0
M  END
>  <minimizedAffinity>
-6.09259796

$$$$

 OpenBabel03242523013D

 33 35  0  0  0  0  0  0  0  0999 V2000
   36.1980   30.8040   40.9270 C   0  0  0  0  0  0  0  0  0  0  0  0
   36.0530   29.4210   41.0260 C   0  0  0  0  0  0  0  0  0  0  0  0
   37.1090   28.5460   40.8990 C   0  0  0  0  0  0  0  0  0  0  0  0
   38.3070   29.1290   40.6710 N   0  0  0  0  0  0  0  0  0  0  0  0
   38.4740   30.4610   40.5700 C   0  0  0  0  0  0  0  0  0  0  0  0
   37.4220   31.2930   40.6980 N   0  0  0  0  0  0  0  0  0  0  0  0
   35.3170   31.4240   41.0380 H   0  0  0  0  0  0  0  0  0  0  0  0
   35.0650   29.0020   41.2120 H   0  0  0  0  0  0  0  0  0  0  0  0
   37.5340   27.4340   43.6250 Cl  0  0  0  0  0  0  0  0  0  0  0  0
   37.1550   26.5040   42.1980 C   0  0  0  0  0  0  0  0  0  0  0  0
   36.9790   27.0960   41.0010 C   0  0  0  0  0  0  0  0  0  0  0  0
   36.6820   26.2720   39.9280 C   0  0  0  0  0  0  0  0  0  0  0  0
   36.5690   24.9260   40.0590 C   0  0  0  0  0  0  0  0  0  0  0  0
   36.7500   24.3330   41.2810 C   0  0  0  0  0  0  0  0  0  0  0  0
   37.0450   25.1390   42.3500 C   0  0  0  0  0  0  0  0  0  0  0  0
   36.5350   26.7210   38.9540 H   0  0  0  0  0  0  0  0  0  0  0  0
   36.6680   23.2500   41.4330 H   0  0  0  0  0  0  0  0  0  0  0  0
   37.1890   24.6750   43.3190 H   0  0  0  0  0  0  0  0  0  0  0  0
   36.2500   24.0370   38.9100 C   0  0  0  0  0  0  0  0  0  0  0  0
   36.3200   22.7380   39.3400 F   0  0  0  0  0  0  0  0  0  0  0  0
   37.1010   24.2740   37.8400 F   0  0  0  0  0  0  0  0  0  0  0  0
   34.9600   24.3260   38.4880 F   0  0  0  0  0  0  0  0  0  0  0  0
   40.4570   31.6850   41.3520 C   0  0  0  0  0  0  0  0  0  0  0  0
   39.8020   31.0250   40.3210 C   0  0  0  0  0  0  0  0  0  0  0  0
   40.3960   30.9060   39.0810 C   0  0  0  0  0  0  0  0  0  0  0  0
   39.8930   30.3920   38.2640 H   0  0  0  0  0  0  0  0  0  0  0  0
   41.6610   31.4320   38.8030 C   0  0  0  0  0  3  0  0  0  0  0  0
   42.2500   32.0720   39.8760 C   0  0  0  0  0  3  0  0  0  0  0  0
   41.7200   32.2290   41.1360 C   0  0  0  0  0  0  0  0  0  0  0  0
   39.8530   31.8000   42.5940 O   0  0  0  0  0  0  0  0  0  0  0  0
   39.3180   32.6150   42.8800 H   0  0  0  0  0  0  0  0  0  0  0  0
   42.4170   32.8980   42.1350 O   0  0  0  0  0  0  0  0  0  0  0  0
   42.2530   32.6640   43.1240 H   0  0  0  0  0  0  0  0  0  0  0  0
  1  2  1  0  0  0  0
  1  7  1  0  0  0  0
  2  8  1  0  0  0  0
  3 11  1  0  0  0  0
  3  2  2  0  0  0  0
  4  3  1  0  0  0  0
  5  4  2  0  0  0  0
  5  6  1  0  0  0  0
  6  1  2  0  0  0  0
 10 15  1  0  0  0  0
 10  9  1  0  0  0  0
 11 10  2  0  0  0  0
 12 13  2  0  0  0  0
 12 11  1  0  0  0  0
 13 14  1  0  0  0  0
 14 17  1  0  0  0  0
 14 15  2  0  0  0  0
 15 18  1  0  0  0  0
 16 12  1  0  0  0  0
 19 20  1  0  0  0  0
 19 13  1  0  0  0  0
 21 19  1  0  0  0  0
 22 19  1  0  0  0  0
 23 30  1  0  0  0  0
 24  5  1  0  0  0  0
 24 23  2  0  0  0  0
 25 24  1  0  0  0  0
 26 25  1  0  0  0  0
 27 25  2  0  0  0  0
 27 28  1  0  0  0  0
 28 29  2  0  0  0  0
 29 23  1  0  0  0  0
 29 32  1  0  0  0  0
 30 31  1  0  0  0  0
 32 33  1  0  0  0  0
M  END
>  <minimizedAffinity>
-6.07689619

$$$$

 OpenBabel03242523013D

 33 35  0  0  0  0  0  0  0  0999 V2000
   36.8310   29.2620   36.8670 C   0  0  0  0  0  0  0  0  0  0  0  0
   35.4960   29.2480   36.4670 C   0  0  0  0  0  0  0  0  0  0  0  0
   34.4830   28.7470   37.2550 C   0  0  0  0  0  0  0  0  0  0  0  0
   34.8790   28.2670   38.4540 N   0  0  0  0  0  0  0  0  0  0  0  0
   36.1620   28.2690   38.8640 C   0  0  0  0  0  0  0  0  0  0  0  0
   37.1320   28.7650   38.0720 N   0  0  0  0  0  0  0  0  0  0  0  0
   37.5680   29.6730   36.1880 H   0  0  0  0  0  0  0  0  0  0  0  0
   35.2300   29.6480   35.4900 H   0  0  0  0  0  0  0  0  0  0  0  0
   33.6820   26.3990   35.6150 Cl  0  0  0  0  0  0  0  0  0  0  0  0
   32.6270   27.6970   36.1100 C   0  0  0  0  0  0  0  0  0  0  0  0
   33.0790   28.7240   36.8550 C   0  0  0  0  0  0  0  0  0  0  0  0
   32.1650   29.7060   37.1970 C   0  0  0  0  0  0  0  0  0  0  0  0
   30.8660   29.6520   36.8090 C   0  0  0  0  0  0  0  0  0  0  0  0
   30.4140   28.6040   36.0500 C   0  0  0  0  0  0  0  0  0  0  0  0
   31.3120   27.6250   35.7050 C   0  0  0  0  0  0  0  0  0  0  0  0
   32.5010   30.5430   37.7960 H   0  0  0  0  0  0  0  0  0  0  0  0
   29.3740   28.5190   35.7140 H   0  0  0  0  0  0  0  0  0  0  0  0
   30.9600   26.7940   35.1060 H   0  0  0  0  0  0  0  0  0  0  0  0
   29.8800   30.7040   37.1730 C   0  0  0  0  0  0  0  0  0  0  0  0
   30.3830   31.9170   36.7840 F   0  0  0  0  0  0  0  0  0  0  0  0
   29.5920   30.6740   38.5300 F   0  0  0  0  0  0  0  0  0  0  0  0
   28.7000   30.4420   36.4920 F   0  0  0  0  0  0  0  0  0  0  0  0
   36.4720   28.5690   41.2840 C   0  0  0  0  0  0  0  0  0  0  0  0
   36.5210   27.7310   40.1780 C   0  0  0  0  0  0  0  0  0  0  0  0
   36.9040   26.4130   40.3180 C   0  0  0  0  0  0  0  0  0  0  0  0
   36.9460   25.7450   39.4600 H   0  0  0  0  0  0  0  0  0  0  0  0
   37.2550   25.8620   41.5550 C   0  0  0  0  0  3  0  0  0  0  0  0
   37.1820   26.7540   42.6060 C   0  0  0  0  0  3  0  0  0  0  0  0
   36.8110   28.0780   42.5420 C   0  0  0  0  0  0  0  0  0  0  0  0
   36.0880   29.8910   41.1340 O   0  0  0  0  0  0  0  0  0  0  0  0
   36.7490   30.6550   41.0210 H   0  0  0  0  0  0  0  0  0  0  0  0
   36.7780   28.8750   43.6800 O   0  0  0  0  0  0  0  0  0  0  0  0
   36.1330   29.6770   43.7300 H   0  0  0  0  0  0  0  0  0  0  0  0
  1  6  1  0  0  0  0
  2  1  2  0  0  0  0
  2  3  1  0  0  0  0
  3  4  2  0  0  0  0
  4  5  1  0  0  0  0
  5 24  1  0  0  0  0
  6  5  2  0  0  0  0
  7  1  1  0  0  0  0
  8  2  1  0  0  0  0
  9 10  1  0  0  0  0
 10 11  1  0  0  0  0
 11 12  2  0  0  0  0
 11  3  1  0  0  0  0
 12 16  1  0  0  0  0
 13 19  1  0  0  0  0
 13 12  1  0  0  0  0
 14 13  2  0  0  0  0
 15 14  1  0  0  0  0
 15 10  2  0  0  0  0
 17 14  1  0  0  0  0
 18 15  1  0  0  0  0
 19 21  1  0  0  0  0
 20 19  1  0  0  0  0
 22 19  1  0  0  0  0
 23 29  1  0  0  0  0
 24 25  1  0  0  0  0
 24 23  2  0  0  0  0
 25 27  2  0  0  0  0
 26 25  1  0  0  0  0
 27 28  1  0  0  0  0
 29 28  2  0  0  0  0
 29 32  1  0  0  0  0
 30 23  1  0  0  0  0
 31 30  1  0  0  0  0
 32 33  1  0  0  0  0
M  END
>  <minimizedAffinity>
-5.94088459

$$$$
