
 OpenBabel03252505113D

 46 49  0  0  1  0  0  0  0  0999 V2000
   44.6160   35.5260   44.6420 C   0  0  0  0  0  0  0  0  0  0  0  0
   45.3000   35.5190   43.4080 C   0  0  0  0  0  0  0  0  0  0  0  0
   46.3960   34.6010   43.2550 C   0  0  0  0  0  0  0  0  0  0  0  0
   46.7090   33.8000   44.2930 N   0  0  0  0  0  0  0  0  0  0  0  0
   46.0370   33.8350   45.4470 C   0  0  0  0  0  0  0  0  0  0  0  0
   44.9810   34.6970   45.6390 N   0  0  0  0  0  0  0  0  0  0  0  0
   43.7850   36.2010   44.8000 H   0  0  0  0  0  0  0  0  0  0  0  0
   45.0020   36.1780   42.6280 H   0  0  0  0  0  0  0  0  0  0  0  0
   46.4290   32.9320   46.5600 C   0  0  2  0  0  0  0  0  0  0  0  0
   46.9660   31.6900   45.8820 C   0  0  0  0  0  0  0  0  0  0  0  0
   46.0860   30.5120   45.8910 C   0  0  0  0  0  0  0  0  0  0  0  0
   45.7770   30.2650   47.3690 C   0  0  0  0  0  0  0  0  0  0  0  0
   44.9830   31.3380   47.9580 C   0  0  0  0  0  0  0  0  0  0  0  0
   45.3690   32.7010   47.4980 C   0  0  0  0  0  0  0  0  0  0  0  0
   47.2740   33.4650   47.0680 H   0  0  0  0  0  0  0  0  0  0  0  0
   47.9060   31.4140   46.4070 H   0  0  0  0  0  0  0  0  0  0  0  0
   47.2850   31.8730   44.8290 H   0  0  0  0  0  0  0  0  0  0  0  0
   45.1610   30.6730   45.3260 H   0  0  0  0  0  0  0  0  0  0  0  0
   46.6520   29.6430   45.5600 H   0  0  0  0  0  0  0  0  0  0  0  0
   46.7080   30.0370   47.8850 H   0  0  0  0  0  0  0  0  0  0  0  0
   45.1220   29.3700   47.3630 H   0  0  0  0  0  0  0  0  0  0  0  0
   44.1650   31.3340   48.6650 H   0  0  0  0  0  0  0  0  0  0  0  0
   44.6780   33.8490   47.9880 N   0  0  0  0  0  0  0  0  0  0  0  0
   45.2930   34.3020   48.6770 H   0  0  0  0  0  0  0  0  0  0  0  0
   43.7240   34.0330   47.5940 H   0  0  0  0  0  0  0  0  0  0  0  0
   47.1150   34.5710   41.9970 C   0  0  0  0  0  0  0  0  0  0  0  0
   48.0930   35.4750   41.7820 C   0  0  0  0  0  0  0  0  0  0  0  0
   48.7470   35.4080   40.5450 C   0  0  0  0  0  0  0  0  0  0  0  0
   48.3250   34.4240   39.6680 C   0  0  0  0  0  0  0  0  0  0  0  0
   47.3280   33.5030   39.8900 C   0  0  0  0  0  0  0  0  0  0  0  0
   46.7330   33.6190   41.1090 N   0  0  0  0  0  0  0  0  0  0  0  0
   48.3770   36.2210   42.5080 H   0  0  0  0  0  0  0  0  0  0  0  0
   49.5370   36.1100   40.3250 H   0  0  0  0  0  0  0  0  0  0  0  0
   48.8790   34.4420   38.7380 H   0  0  0  0  0  0  0  0  0  0  0  0
   46.9680   32.5640   38.9690 O   0  0  0  0  0  0  0  0  0  0  0  0
   47.4070   32.8410   36.5690 C   0  0  0  0  0  0  0  0  0  0  0  0
   47.5300   32.2540   37.7890 C   0  0  0  0  0  0  0  0  0  0  0  0
   48.3780   31.1400   37.8540 C   0  0  0  0  0  0  0  0  0  0  0  0
   48.5700   30.5680   38.7750 H   0  0  0  0  0  0  0  0  0  0  0  0
   49.0570   30.6500   36.7550 C   0  0  0  0  0  3  0  0  0  0  0  0
   48.8870   31.2950   35.5410 C   0  0  0  0  0  3  0  0  0  0  0  0
   48.0620   32.3940   35.4390 C   0  0  0  0  0  0  0  0  0  0  0  0
   46.5620   33.9450   36.5260 O   0  0  0  0  0  0  0  0  0  0  0  0
   46.0710   34.0980   35.6540 H   0  0  0  0  0  0  0  0  0  0  0  0
   47.8520   33.0800   34.2550 O   0  0  0  0  0  0  0  0  0  0  0  0
   46.9250   32.9920   33.8340 H   0  0  0  0  0  0  0  0  0  0  0  0
  1  7  1  0  0  0  0
  1  6  1  0  0  0  0
  2  1  2  0  0  0  0
  3  2  1  0  0  0  0
  3  4  2  0  0  0  0
  4  5  1  0  0  0  0
  5  6  2  0  0  0  0
  5  9  1  0  0  0  0
  8  2  1  0  0  0  0
  9 15  1  1  0  0  0
  9 14  1  0  0  0  0
 10 11  1  0  0  0  0
 10 16  1  0  0  0  0
 10  9  1  0  0  0  0
 11 12  1  0  0  0  0
 12 20  1  0  0  0  0
 12 13  1  0  0  0  0
 13 22  1  0  0  0  0
 14 13  2  0  0  0  0
 14 23  1  0  0  0  0
 17 10  1  0  0  0  0
 18 11  1  0  0  0  0
 19 11  1  0  0  0  0
 21 12  1  0  0  0  0
 23 24  1  0  0  0  0
 25 23  1  0  0  0  0
 26  3  1  0  0  0  0
 27 26  1  0  0  0  0
 27 32  1  0  0  0  0
 28 27  2  0  0  0  0
 29 30  2  0  0  0  0
 29 28  1  0  0  0  0
 30 31  1  0  0  0  0
 31 26  2  0  0  0  0
 33 28  1  0  0  0  0
 34 29  1  0  0  0  0
 35 30  1  0  0  0  0
 36 37  1  0  0  0  0
 37 38  2  0  0  0  0
 37 35  1  0  0  0  0
 38 39  1  0  0  0  0
 40 38  1  0  0  0  0
 41 40  2  0  0  0  0
 42 41  1  0  0  0  0
 42 36  2  0  0  0  0
 43 36  1  0  0  0  0
 44 43  1  0  0  0  0
 45 42  1  0  0  0  0
 46 45  1  0  0  0  0
M  END
>  <minimizedAffinity>
-7.68665743

>  <minimizedRMSD>
0.72278291

$$$$
