
 OpenBabel03252508173D

 49 53  0  0  1  0  0  0  0  0999 V2000
   46.9040   31.6590   48.2890 C   0  0  1  0  0  0  0  0  0  0  0  0
   46.3710   30.6470   49.2440 C   0  0  0  0  0  0  0  0  0  0  0  0
   47.6860   31.2400   49.4660 C   0  0  1  0  0  0  0  0  0  0  0  0
   46.2170   32.5550   48.2850 H   0  0  0  0  0  0  0  0  0  0  0  0
   45.5530   30.8760   49.9580 H   0  0  0  0  0  0  0  0  0  0  0  0
   46.3060   29.5810   48.9120 H   0  0  0  0  0  0  0  0  0  0  0  0
   47.7560   31.9840   50.2870 H   0  0  0  0  0  0  0  0  0  0  0  0
   48.9550   30.4830   49.2360 C   0  0  2  0  0  0  0  0  0  0  0  0
   49.7280   30.1510   50.5380 C   0  0  0  0  0  0  0  0  0  0  0  0
   50.2640   31.1660   49.6200 C   0  0  1  0  0  0  0  0  0  0  0  0
   49.0340   29.6510   48.5280 H   0  0  0  0  0  0  0  0  0  0  0  0
   49.2820   30.5250   51.5030 H   0  0  0  0  0  0  0  0  0  0  0  0
   50.1610   29.1630   50.6760 H   0  0  0  0  0  0  0  0  0  0  0  0
   50.1540   32.2300   49.9190 H   0  0  0  0  0  0  0  0  0  0  0  0
   52.5580   31.6900   48.7170 C   0  0  0  0  0  0  0  0  0  0  0  0
   51.4740   30.8360   48.7970 C   0  0  0  0  0  0  0  0  0  0  0  0
   51.5290   29.6510   48.0920 C   0  0  0  0  0  0  0  0  0  0  0  0
   50.7330   28.9300   48.0970 H   0  0  0  0  0  0  0  0  0  0  0  0
   52.6240   29.2890   47.3100 C   0  0  0  0  0  3  0  0  0  0  0  0
   53.7000   30.1630   47.2450 C   0  0  0  0  0  3  0  0  0  0  0  0
   53.6650   31.3670   47.9530 C   0  0  0  0  0  0  0  0  0  0  0  0
   52.4940   32.8900   49.4360 O   0  0  0  0  0  0  0  0  0  0  0  0
   52.5880   32.8020   50.4570 H   0  0  0  0  0  0  0  0  0  0  0  0
   54.7610   32.2410   47.8770 O   0  0  0  0  0  0  0  0  0  0  0  0
   55.5330   31.9790   48.5080 H   0  0  0  0  0  0  0  0  0  0  0  0
   47.2360   31.1360   46.9410 C   0  0  0  0  0  0  0  0  0  0  0  0
   46.4720   30.3330   46.7200 H   0  0  0  0  0  0  0  0  0  0  0  0
   48.1940   30.6910   46.7680 H   0  0  0  0  0  0  0  0  0  0  0  0
   46.1100   33.0650   46.1860 C   0  0  0  0  0  3  0  0  0  0  0  0
   46.9520   32.1720   45.8780 C   0  0  0  0  0  3  0  0  0  0  0  0
   44.5320   35.8890   44.4190 C   0  0  0  0  0  0  0  0  0  0  0  0
   45.1660   35.8750   43.1800 C   0  0  0  0  0  0  0  0  0  0  0  0
   46.0980   34.9120   42.9940 C   0  0  0  0  0  0  0  0  0  0  0  0
   46.3760   34.0190   43.9870 N   0  0  0  0  0  0  0  0  0  0  0  0
   45.7480   34.0580   45.1740 C   0  0  0  0  0  0  0  0  0  0  0  0
   44.8350   35.0000   45.3590 N   0  0  0  0  0  0  0  0  0  0  0  0
   43.7790   36.6610   44.5820 H   0  0  0  0  0  0  0  0  0  0  0  0
   44.9380   36.5840   42.4040 H   0  0  0  0  0  0  0  0  0  0  0  0
   46.8420   34.7680   41.7470 C   0  0  0  0  0  0  0  0  0  0  0  0
   48.0470   35.3510   41.4820 C   0  0  0  0  0  0  0  0  0  0  0  0
   48.7340   35.2030   40.2940 C   0  0  0  0  0  0  0  0  0  0  0  0
   48.2020   34.4230   39.2870 C   0  0  0  0  0  0  0  0  0  0  0  0
   46.9950   33.8090   39.4900 C   0  0  0  0  0  0  0  0  0  0  0  0
   46.3540   33.9960   40.7000 C   0  0  0  0  0  0  0  0  0  0  0  0
   48.4990   35.9770   42.2550 H   0  0  0  0  0  0  0  0  0  0  0  0
   49.6850   35.6850   40.1320 H   0  0  0  0  0  0  0  0  0  0  0  0
   48.6750   34.2550   38.3270 H   0  0  0  0  0  0  0  0  0  0  0  0
   46.5550   33.1970   38.7270 H   0  0  0  0  0  0  0  0  0  0  0  0
   45.3880   33.4800   40.8090 H   0  0  0  0  0  0  0  0  0  0  0  0
  1  4  1  1  0  0  0
  1  2  1  0  0  0  0
  1  3  1  0  0  0  0
  2  3  1  0  0  0  0
  2  5  1  0  0  0  0
  3  7  1  1  0  0  0
  6  2  1  0  0  0  0
  8 11  1  6  0  0  0
  8  3  1  0  0  0  0
  8 10  1  0  0  0  0
  8  9  1  0  0  0  0
  9 13  1  0  0  0  0
  9 12  1  0  0  0  0
 10 14  1  1  0  0  0
 10  9  1  0  0  0  0
 15 16  1  0  0  0  0
 15 22  1  0  0  0  0
 16 10  1  0  0  0  0
 17 18  1  0  0  0  0
 17 16  2  0  0  0  0
 19 17  1  0  0  0  0
 20 19  2  0  0  0  0
 20 21  1  0  0  0  0
 21 15  2  0  0  0  0
 22 23  1  0  0  0  0
 24 21  1  0  0  0  0
 24 25  1  0  0  0  0
 26  1  1  0  0  0  0
 27 26  1  0  0  0  0
 28 26  1  0  0  0  0
 30 29  2  0  0  0  0
 30 26  1  0  0  0  0
 31 37  1  0  0  0  0
 31 36  1  0  0  0  0
 32 31  2  0  0  0  0
 33 32  1  0  0  0  0
 33 34  2  0  0  0  0
 34 35  1  0  0  0  0
 35 36  2  0  0  0  0
 35 29  1  0  0  0  0
 38 32  1  0  0  0  0
 39 33  1  0  0  0  0
 40 39  1  0  0  0  0
 40 45  1  0  0  0  0
 41 40  2  0  0  0  0
 42 43  2  0  0  0  0
 42 41  1  0  0  0  0
 43 44  1  0  0  0  0
 44 49  1  0  0  0  0
 44 39  2  0  0  0  0
 46 41  1  0  0  0  0
 47 42  1  0  0  0  0
 48 43  1  0  0  0  0
M  END
>  <minimizedAffinity>
-7.06651258

>  <minimizedRMSD>
0.879104316

$$$$
