
 OpenBabel03252500513D

 37 39  0  0  0  0  0  0  0  0999 V2000
   44.6470   34.9140   42.0850 C   0  0  0  0  0  0  0  0  0  0  0  0
   45.3690   34.7100   41.0880 O   0  0  0  0  0  0  0  0  0  0  0  0
   44.9250   35.0150   44.5070 C   0  0  0  0  0  0  0  0  0  0  0  0
   45.0140   34.2900   43.3460 C   0  0  0  0  0  0  0  0  0  0  0  0
   45.4540   32.9480   43.3540 C   0  0  0  0  0  0  0  0  0  0  0  0
   45.7830   32.4280   44.5820 N   0  0  0  0  0  0  0  0  0  0  0  0
   45.6930   33.1380   45.7000 C   0  0  0  0  0  0  0  0  0  0  0  0
   45.2680   34.4200   45.6610 N   0  0  0  0  0  0  0  0  0  0  0  0
   44.6020   36.0270   44.5750 H   0  0  0  0  0  0  0  0  0  0  0  0
   45.5310   32.3620   42.4570 H   0  0  0  0  0  0  0  0  0  0  0  0
   46.0520   32.5490   46.9810 C   0  0  0  0  0  0  0  0  0  0  0  0
   47.3330   32.2370   47.3120 C   0  0  0  0  0  0  0  0  0  0  0  0
   47.6860   31.6830   48.5120 C   0  0  0  0  0  0  0  0  0  0  0  0
   46.6890   31.4450   49.3930 N   0  0  0  0  0  0  0  0  0  0  0  0
   45.4350   31.7510   49.0650 C   0  0  0  0  0  0  0  0  0  0  0  0
   45.0630   32.2940   47.8980 N   0  0  0  0  0  0  0  0  0  0  0  0
   48.1340   32.4260   46.6100 H   0  0  0  0  0  0  0  0  0  0  0  0
   48.6990   31.4300   48.7890 H   0  0  0  0  0  0  0  0  0  0  0  0
   44.6180   31.5670   49.7590 H   0  0  0  0  0  0  0  0  0  0  0  0
   43.6210   35.7310   41.7060 O   0  0  0  0  0  0  0  0  0  0  0  0
   42.6010   35.3480   40.8750 C   0  0  0  0  0  0  0  0  0  0  0  0
   42.7590   35.9210   39.9100 H   0  0  0  0  0  0  0  0  0  0  0  0
   42.5820   34.2980   40.5250 H   0  0  0  0  0  0  0  0  0  0  0  0
   41.2210   35.8170   41.3200 C   0  0  0  0  0  0  0  0  0  0  0  0
   41.0250   36.8520   41.0290 H   0  0  0  0  0  0  0  0  0  0  0  0
   41.1320   35.6040   42.3920 H   0  0  0  0  0  0  0  0  0  0  0  0
   39.5270   33.9450   41.2520 C   0  0  0  0  0  0  0  0  0  0  0  0
   40.2340   34.9460   40.6060 C   0  0  0  0  0  0  0  0  0  0  0  0
   39.9900   35.1190   39.2460 C   0  0  0  0  0  0  0  0  0  0  0  0
   40.5560   35.9080   38.7640 H   0  0  0  0  0  0  0  0  0  0  0  0
   39.0900   34.3500   38.5200 C   0  0  0  0  0  3  0  0  0  0  0  0
   38.4020   33.3590   39.2030 C   0  0  0  0  0  3  0  0  0  0  0  0
   38.6200   33.1650   40.5390 C   0  0  0  0  0  0  0  0  0  0  0  0
   39.7260   33.7270   42.6000 O   0  0  0  0  0  0  0  0  0  0  0  0
   39.4760   32.8620   43.0660 H   0  0  0  0  0  0  0  0  0  0  0  0
   37.8880   32.1510   41.1410 O   0  0  0  0  0  0  0  0  0  0  0  0
   36.9380   31.9200   40.8450 H   0  0  0  0  0  0  0  0  0  0  0  0
  1  4  1  0  0  0  0
  2  1  2  0  0  0  0
  3  9  1  0  0  0  0
  3  8  1  0  0  0  0
  4  5  1  0  0  0  0
  4  3  2  0  0  0  0
  5  6  2  0  0  0  0
  6  7  1  0  0  0  0
  7 11  1  0  0  0  0
  8  7  2  0  0  0  0
 10  5  1  0  0  0  0
 11 12  2  0  0  0  0
 11 16  1  0  0  0  0
 12 13  1  0  0  0  0
 13 18  1  0  0  0  0
 13 14  2  0  0  0  0
 15 14  1  0  0  0  0
 15 19  1  0  0  0  0
 16 15  2  0  0  0  0
 17 12  1  0  0  0  0
 20  1  1  0  0  0  0
 21 24  1  0  0  0  0
 21 20  1  0  0  0  0
 22 21  1  0  0  0  0
 23 21  1  0  0  0  0
 24 26  1  0  0  0  0
 25 24  1  0  0  0  0
 27 34  1  0  0  0  0
 28 27  1  0  0  0  0
 28 24  1  0  0  0  0
 29 28  2  0  0  0  0
 30 29  1  0  0  0  0
 31 32  2  0  0  0  0
 31 29  1  0  0  0  0
 32 33  1  0  0  0  0
 33 36  1  0  0  0  0
 33 27  2  0  0  0  0
 34 35  1  0  0  0  0
 37 36  1  0  0  0  0
M  END
>  <minimizedAffinity>
-7.34499884

>  <minimizedRMSD>
0.948615432

$$$$
