
 OpenBabel03252501553D

 23 24  0  0  0  0  0  0  0  0999 V2000
   44.3750   35.7970   44.4390 C   0  0  0  0  0  0  0  0  0  0  0  0
   44.7520   35.1890   43.2320 C   0  0  0  0  0  0  0  0  0  0  0  0
   45.4820   34.0150   43.3040 C   0  0  0  0  0  0  0  0  0  0  0  0
   45.7850   33.5380   44.5030 N   0  0  0  0  0  0  0  0  0  0  0  0
   45.4290   34.1150   45.6580 C   0  0  0  0  0  0  0  0  0  0  0  0
   44.7120   35.2650   45.6490 N   0  0  0  0  0  0  0  0  0  0  0  0
   43.8000   36.7080   44.4470 H   0  0  0  0  0  0  0  0  0  0  0  0
   45.7360   33.6350   46.5910 H   0  0  0  0  0  0  0  0  0  0  0  0
   46.8780   33.7450   41.1810 C   0  0  0  0  0  0  0  0  0  0  0  0
   45.8320   33.4860   42.0130 C   0  0  0  0  0  0  0  0  0  0  0  0
   44.9220   32.4970   41.5910 C   0  0  0  0  0  0  0  0  0  0  0  0
   44.0310   32.1860   42.1270 H   0  0  0  0  0  0  0  0  0  0  0  0
   45.0630   31.8210   40.4080 C   0  0  0  0  0  3  0  0  0  0  0  0
   46.1600   32.1390   39.6040 C   0  0  0  0  0  3  0  0  0  0  0  0
   47.0840   33.0920   39.9560 C   0  0  0  0  0  0  0  0  0  0  0  0
   47.7280   34.7410   41.6840 O   0  0  0  0  0  0  0  0  0  0  0  0
   47.3580   35.6110   42.0780 H   0  0  0  0  0  0  0  0  0  0  0  0
   48.2060   33.5010   39.2590 O   0  0  0  0  0  0  0  0  0  0  0  0
   48.1910   34.2700   38.5750 H   0  0  0  0  0  0  0  0  0  0  0  0
   44.3310   35.9340   42.0030 C   0  0  0  0  0  0  0  0  0  0  0  0
   45.0610   36.8040   41.9210 H   0  0  0  0  0  0  0  0  0  0  0  0
   44.3310   35.3580   41.0880 H   0  0  0  0  0  0  0  0  0  0  0  0
   43.3610   36.4280   42.2220 H   0  0  0  0  0  0  0  0  0  0  0  0
  1  7  1  0  0  0  0
  1  6  1  0  0  0  0
  2  3  1  0  0  0  0
  2  1  2  0  0  0  0
  3  4  2  0  0  0  0
  4  5  1  0  0  0  0
  5  8  1  0  0  0  0
  6  5  2  0  0  0  0
  9 16  1  0  0  0  0
  9 10  1  0  0  0  0
 10  3  1  0  0  0  0
 11 10  2  0  0  0  0
 11 12  1  0  0  0  0
 13 11  1  0  0  0  0
 14 15  1  0  0  0  0
 14 13  2  0  0  0  0
 15  9  2  0  0  0  0
 16 17  1  0  0  0  0
 18 15  1  0  0  0  0
 19 18  1  0  0  0  0
 20 23  1  0  0  0  0
 20  2  1  0  0  0  0
 21 20  1  0  0  0  0
 22 20  1  0  0  0  0
M  END
>  <minimizedAffinity>
-3.83326101

>  <minimizedRMSD>
0.477864087

$$$$
