
 OpenBabel03252505313D

 29 30  0  0  0  0  0  0  0  0999 V2000
   38.1710   31.3680   38.6110 O   0  0  0  0  0  0  0  0  0  0  0  0
   39.3820   30.7980   38.8740 C   0  0  0  0  0  0  0  0  0  0  0  0
   39.6210   30.0100   38.1080 H   0  0  0  0  0  0  0  0  0  0  0  0
   39.3680   30.2280   39.8410 H   0  0  0  0  0  0  0  0  0  0  0  0
   40.8690   32.5120   37.7620 C   0  0  0  0  0  0  0  0  0  0  0  0
   40.5340   31.7330   38.8480 C   0  0  0  0  0  0  0  0  0  0  0  0
   41.3260   31.8280   39.9820 C   0  0  0  0  0  0  0  0  0  0  0  0
   41.1260   31.2480   40.8680 H   0  0  0  0  0  0  0  0  0  0  0  0
   42.4320   32.6580   40.0940 C   0  0  0  0  0  3  0  0  0  0  0  0
   42.7520   33.4330   38.9920 C   0  0  0  0  0  3  0  0  0  0  0  0
   41.9520   33.3330   37.8540 C   0  0  0  0  0  0  0  0  0  0  0  0
   40.0750   32.4170   36.6300 O   0  0  0  0  0  0  0  0  0  0  0  0
   40.3030   31.8980   35.7950 H   0  0  0  0  0  0  0  0  0  0  0  0
   42.2640   34.1030   36.7480 O   0  0  0  0  0  0  0  0  0  0  0  0
   41.7400   34.9550   36.6140 H   0  0  0  0  0  0  0  0  0  0  0  0
   35.9620   30.5620   39.6860 O   0  0  0  0  0  0  0  0  0  0  0  0
   37.2470   31.3150   40.0320 P   0  0  2  0  0  0  0  0  0  0  0  0
   36.9330   32.9080   40.4870 O   0  0  0  0  0  0  0  0  0  0  0  0
   35.9630   32.9260   40.7690 H   0  0  0  0  0  0  0  0  0  0  0  0
   38.0060   30.4730   41.2710 O   0  0  0  0  0  0  0  0  0  0  0  0
   37.1540   27.9210   43.5710 C   0  0  0  0  0  0  0  0  0  0  0  0
   37.0480   26.7380   42.8010 C   0  0  0  0  0  0  0  0  0  0  0  0
   37.2970   26.8900   41.4170 C   0  0  0  0  0  0  0  0  0  0  0  0
   37.6110   28.1410   40.9420 N   0  0  0  0  0  0  0  0  0  0  0  0
   37.6930   29.2120   41.7290 C   0  0  0  0  0  0  0  0  0  0  0  0
   37.4650   29.0960   43.0300 N   0  0  0  0  0  0  0  0  0  0  0  0
   36.9540   27.7560   44.6350 H   0  0  0  0  0  0  0  0  0  0  0  0
   36.7990   25.7740   43.2240 H   0  0  0  0  0  0  0  0  0  0  0  0
   37.2370   26.0320   40.7650 H   0  0  0  0  0  0  0  0  0  0  0  0
  1  2  1  0  0  0  0
  1 17  1  0  0  0  0
  2  4  1  0  0  0  0
  3  2  1  0  0  0  0
  5 11  2  0  0  0  0
  5  6  1  0  0  0  0
  6  2  1  0  0  0  0
  6  7  2  0  0  0  0
  7  9  1  0  0  0  0
  7  8  1  0  0  0  0
 10  9  2  0  0  0  0
 11 10  1  0  0  0  0
 12  5  1  0  0  0  0
 13 12  1  0  0  0  0
 14 11  1  0  0  0  0
 15 14  1  0  0  0  0
 17 16  2  6  0  0  0
 17 18  1  0  0  0  0
 17 20  1  0  0  0  0
 18 19  1  0  0  0  0
 20 25  1  0  0  0  0
 21 27  1  0  0  0  0
 22 28  1  0  0  0  0
 22 21  2  0  0  0  0
 23 22  1  0  0  0  0
 24 23  2  0  0  0  0
 24 25  1  0  0  0  0
 25 26  2  0  0  0  0
 26 21  1  0  0  0  0
 29 23  1  0  0  0  0
M  END
>  <minimizedAffinity>
-5.73063087

$$$$

 OpenBabel03252505313D

 29 30  0  0  0  0  0  0  0  0999 V2000
   36.5090   28.3380   41.1530 O   0  0  0  0  0  0  0  0  0  0  0  0
   36.5850   27.6950   42.3530 C   0  0  0  0  0  0  0  0  0  0  0  0
   35.5690   27.3350   42.6720 H   0  0  0  0  0  0  0  0  0  0  0  0
   36.8870   28.3950   43.1770 H   0  0  0  0  0  0  0  0  0  0  0  0
   38.7110   26.4500   42.9140 C   0  0  0  0  0  0  0  0  0  0  0  0
   37.4500   26.4890   42.3630 C   0  0  0  0  0  0  0  0  0  0  0  0
   36.9630   25.3290   41.7780 C   0  0  0  0  0  0  0  0  0  0  0  0
   35.9860   25.2850   41.3250 H   0  0  0  0  0  0  0  0  0  0  0  0
   37.6640   24.1330   41.7150 C   0  0  0  0  0  3  0  0  0  0  0  0
   38.9310   24.1150   42.2760 C   0  0  0  0  0  3  0  0  0  0  0  0
   39.4140   25.2850   42.8610 C   0  0  0  0  0  0  0  0  0  0  0  0
   39.1950   27.6100   43.4990 O   0  0  0  0  0  0  0  0  0  0  0  0
   39.8570   28.2470   43.0800 H   0  0  0  0  0  0  0  0  0  0  0  0
   40.6790   25.2770   43.4240 O   0  0  0  0  0  0  0  0  0  0  0  0
   40.7400   25.1660   44.4250 H   0  0  0  0  0  0  0  0  0  0  0  0
   37.8370   29.9460   42.6820 O   0  0  0  0  0  0  0  0  0  0  0  0
   37.0390   29.9340   41.3780 P   0  0  2  0  0  0  0  0  0  0  0  0
   35.6660   30.9090   41.4770 O   0  0  0  0  0  0  0  0  0  0  0  0
   35.8450   31.5560   42.2330 H   0  0  0  0  0  0  0  0  0  0  0  0
   38.0620   30.4580   40.1550 O   0  0  0  0  0  0  0  0  0  0  0  0
   40.4020   32.9090   39.1310 C   0  0  0  0  0  0  0  0  0  0  0  0
   39.9750   34.1160   39.7340 C   0  0  0  0  0  0  0  0  0  0  0  0
   38.8080   34.0180   40.5290 C   0  0  0  0  0  0  0  0  0  0  0  0
   38.1990   32.7910   40.6470 N   0  0  0  0  0  0  0  0  0  0  0  0
   38.6600   31.6950   40.0480 C   0  0  0  0  0  0  0  0  0  0  0  0
   39.7520   31.7610   39.2980 N   0  0  0  0  0  0  0  0  0  0  0  0
   41.3070   33.0330   38.5270 H   0  0  0  0  0  0  0  0  0  0  0  0
   40.4920   35.0580   39.6120 H   0  0  0  0  0  0  0  0  0  0  0  0
   38.4220   34.8960   41.0230 H   0  0  0  0  0  0  0  0  0  0  0  0
  1 17  1  0  0  0  0
  1  2  1  0  0  0  0
  2  6  1  0  0  0  0
  2  3  1  0  0  0  0
  2  4  1  0  0  0  0
  5 12  1  0  0  0  0
  6  5  2  0  0  0  0
  7  6  1  0  0  0  0
  8  7  1  0  0  0  0
  9  7  2  0  0  0  0
  9 10  1  0  0  0  0
 10 11  2  0  0  0  0
 11  5  1  0  0  0  0
 11 14  1  0  0  0  0
 13 12  1  0  0  0  0
 14 15  1  0  0  0  0
 17 18  1  0  0  0  0
 17 16  2  1  0  0  0
 18 19  1  0  0  0  0
 20 17  1  0  0  0  0
 21 26  2  0  0  0  0
 21 22  1  0  0  0  0
 22 23  2  0  0  0  0
 23 24  1  0  0  0  0
 23 29  1  0  0  0  0
 25 20  1  0  0  0  0
 25 24  2  0  0  0  0
 26 25  1  0  0  0  0
 27 21  1  0  0  0  0
 28 22  1  0  0  0  0
M  END
>  <minimizedAffinity>
-5.43644285

$$$$

 OpenBabel03252505313D

 29 30  0  0  0  0  0  0  0  0999 V2000
   36.1950   27.5550   39.8920 O   0  0  0  0  0  0  0  0  0  0  0  0
   35.4760   28.7110   39.9680 C   0  0  0  0  0  0  0  0  0  0  0  0
   35.2100   28.9400   41.0360 H   0  0  0  0  0  0  0  0  0  0  0  0
   34.4770   28.6080   39.4650 H   0  0  0  0  0  0  0  0  0  0  0  0
   36.3220   31.0810   40.1950 C   0  0  0  0  0  0  0  0  0  0  0  0
   36.1780   29.9190   39.4690 C   0  0  0  0  0  0  0  0  0  0  0  0
   36.7200   29.8820   38.1930 C   0  0  0  0  0  0  0  0  0  0  0  0
   36.6440   29.0080   37.5660 H   0  0  0  0  0  0  0  0  0  0  0  0
   37.3980   30.9380   37.6020 C   0  0  0  0  0  3  0  0  0  0  0  0
   37.5320   32.0970   38.3480 C   0  0  0  0  0  3  0  0  0  0  0  0
   36.9850   32.1280   39.6300 C   0  0  0  0  0  0  0  0  0  0  0  0
   35.7800   31.1160   41.4700 O   0  0  0  0  0  0  0  0  0  0  0  0
   34.9120   31.5610   41.7280 H   0  0  0  0  0  0  0  0  0  0  0  0
   37.1130   33.2820   40.3840 O   0  0  0  0  0  0  0  0  0  0  0  0
   37.8470   33.3040   41.0760 H   0  0  0  0  0  0  0  0  0  0  0  0
   36.9710   25.8930   41.7150 O   0  0  0  0  0  0  0  0  0  0  0  0
   37.0530   27.3740   41.3440 P   0  0  2  0  0  0  0  0  0  0  0  0
   36.3000   28.3490   42.4970 O   0  0  0  0  0  0  0  0  0  0  0  0
   36.2660   27.7950   43.3410 H   0  0  0  0  0  0  0  0  0  0  0  0
   38.6780   27.7670   41.1920 O   0  0  0  0  0  0  0  0  0  0  0  0
   39.5420   30.9970   42.3540 C   0  0  0  0  0  0  0  0  0  0  0  0
   40.2730   31.5960   41.3000 C   0  0  0  0  0  0  0  0  0  0  0  0
   40.4450   30.7930   40.1480 C   0  0  0  0  0  0  0  0  0  0  0  0
   39.9050   29.5290   40.1450 N   0  0  0  0  0  0  0  0  0  0  0  0
   39.2260   29.0310   41.1770 C   0  0  0  0  0  0  0  0  0  0  0  0
   39.0510   29.7640   42.2680 N   0  0  0  0  0  0  0  0  0  0  0  0
   39.4330   31.6550   43.2220 H   0  0  0  0  0  0  0  0  0  0  0  0
   40.6770   32.5980   41.3500 H   0  0  0  0  0  0  0  0  0  0  0  0
   40.9910   31.1810   39.3010 H   0  0  0  0  0  0  0  0  0  0  0  0
  1  2  1  0  0  0  0
  1 17  1  0  0  0  0
  2  3  1  0  0  0  0
  4  2  1  0  0  0  0
  5 12  1  0  0  0  0
  6  2  1  0  0  0  0
  6  5  2  0  0  0  0
  7  6  1  0  0  0  0
  8  7  1  0  0  0  0
  9  7  2  0  0  0  0
  9 10  1  0  0  0  0
 10 11  2  0  0  0  0
 11  5  1  0  0  0  0
 11 14  1  0  0  0  0
 12 13  1  0  0  0  0
 14 15  1  0  0  0  0
 17 16  2  1  0  0  0
 17 18  1  0  0  0  0
 18 19  1  0  0  0  0
 20 17  1  0  0  0  0
 21 27  1  0  0  0  0
 22 28  1  0  0  0  0
 22 21  2  0  0  0  0
 23 22  1  0  0  0  0
 24 23  2  0  0  0  0
 24 25  1  0  0  0  0
 25 20  1  0  0  0  0
 25 26  2  0  0  0  0
 26 21  1  0  0  0  0
 29 23  1  0  0  0  0
M  END
>  <minimizedAffinity>
-5.41560221

$$$$

 OpenBabel03252505313D

 29 30  0  0  0  0  0  0  0  0999 V2000
   39.1750   32.5090   39.6790 O   0  0  0  0  0  0  0  0  0  0  0  0
   37.8600   32.5340   40.0390 C   0  0  0  0  0  0  0  0  0  0  0  0
   37.3740   33.4850   39.6880 H   0  0  0  0  0  0  0  0  0  0  0  0
   37.7390   32.5730   41.1550 H   0  0  0  0  0  0  0  0  0  0  0  0
   36.0740   30.7520   40.1820 C   0  0  0  0  0  0  0  0  0  0  0  0
   37.0340   31.4380   39.4730 C   0  0  0  0  0  0  0  0  0  0  0  0
   37.2440   31.0780   38.1500 C   0  0  0  0  0  0  0  0  0  0  0  0
   37.9800   31.5680   37.5340 H   0  0  0  0  0  0  0  0  0  0  0  0
   36.5470   30.0720   37.4950 C   0  0  0  0  0  3  0  0  0  0  0  0
   35.5850   29.3940   38.2260 C   0  0  0  0  0  3  0  0  0  0  0  0
   35.3800   29.7610   39.5560 C   0  0  0  0  0  0  0  0  0  0  0  0
   35.8660   31.1140   41.5040 O   0  0  0  0  0  0  0  0  0  0  0  0
   36.2140   30.6180   42.3110 H   0  0  0  0  0  0  0  0  0  0  0  0
   34.4220   29.0890   40.2950 O   0  0  0  0  0  0  0  0  0  0  0  0
   33.5220   29.5340   40.3990 H   0  0  0  0  0  0  0  0  0  0  0  0
   41.1860   32.2680   41.2870 O   0  0  0  0  0  0  0  0  0  0  0  0
   39.9930   31.4770   40.7490 P   0  0  2  0  0  0  0  0  0  0  0  0
   40.4850   30.1270   39.8660 O   0  0  0  0  0  0  0  0  0  0  0  0
   41.4290   29.9330   40.1690 H   0  0  0  0  0  0  0  0  0  0  0  0
   39.0520   31.0260   42.0640 O   0  0  0  0  0  0  0  0  0  0  0  0
   40.0140   27.7950   43.1410 C   0  0  0  0  0  0  0  0  0  0  0  0
   38.8350   27.1970   43.6470 C   0  0  0  0  0  0  0  0  0  0  0  0
   37.6720   28.0020   43.5860 C   0  0  0  0  0  0  0  0  0  0  0  0
   37.7790   29.2650   43.0560 N   0  0  0  0  0  0  0  0  0  0  0  0
   38.9260   29.7620   42.5980 C   0  0  0  0  0  0  0  0  0  0  0  0
   40.0290   29.0280   42.6430 N   0  0  0  0  0  0  0  0  0  0  0  0
   40.8860   27.1360   43.2080 H   0  0  0  0  0  0  0  0  0  0  0  0
   38.8020   26.1950   44.0530 H   0  0  0  0  0  0  0  0  0  0  0  0
   36.7330   27.6140   43.9520 H   0  0  0  0  0  0  0  0  0  0  0  0
  1  2  1  0  0  0  0
  1 17  1  0  0  0  0
  2  4  1  0  0  0  0
  3  2  1  0  0  0  0
  5 12  1  0  0  0  0
  6  2  1  0  0  0  0
  6  5  2  0  0  0  0
  7  6  1  0  0  0  0
  8  7  1  0  0  0  0
  9  7  2  0  0  0  0
  9 10  1  0  0  0  0
 10 11  2  0  0  0  0
 11  5  1  0  0  0  0
 11 14  1  0  0  0  0
 12 13  1  0  0  0  0
 14 15  1  0  0  0  0
 17 16  2  1  0  0  0
 17 20  1  0  0  0  0
 18 19  1  0  0  0  0
 18 17  1  0  0  0  0
 20 25  1  0  0  0  0
 21 27  1  0  0  0  0
 21 22  1  0  0  0  0
 22 28  1  0  0  0  0
 23 22  2  0  0  0  0
 23 29  1  0  0  0  0
 24 23  1  0  0  0  0
 25 26  1  0  0  0  0
 25 24  2  0  0  0  0
 26 21  2  0  0  0  0
M  END
>  <minimizedAffinity>
-5.37217903

$$$$

 OpenBabel03252505313D

 29 30  0  0  0  0  0  0  0  0999 V2000
   37.1190   29.4000   39.7230 O   0  0  0  0  0  0  0  0  0  0  0  0
   36.3030   30.1750   38.9520 C   0  0  0  0  0  0  0  0  0  0  0  0
   36.7940   31.1610   38.7270 H   0  0  0  0  0  0  0  0  0  0  0  0
   35.3690   30.4660   39.5030 H   0  0  0  0  0  0  0  0  0  0  0  0
   36.8460   29.4870   36.5820 C   0  0  0  0  0  0  0  0  0  0  0  0
   35.9580   29.5980   37.6290 C   0  0  0  0  0  0  0  0  0  0  0  0
   34.6620   29.1460   37.4300 C   0  0  0  0  0  0  0  0  0  0  0  0
   33.9130   29.2020   38.2020 H   0  0  0  0  0  0  0  0  0  0  0  0
   34.2030   28.5880   36.2450 C   0  0  0  0  0  3  0  0  0  0  0  0
   35.1120   28.4850   35.2040 C   0  0  0  0  0  3  0  0  0  0  0  0
   36.4130   28.9410   35.4110 C   0  0  0  0  0  0  0  0  0  0  0  0
   38.1410   29.9380   36.7830 O   0  0  0  0  0  0  0  0  0  0  0  0
   38.5150   30.8160   36.4540 H   0  0  0  0  0  0  0  0  0  0  0  0
   37.3280   28.8430   34.3770 O   0  0  0  0  0  0  0  0  0  0  0  0
   37.9710   28.0660   34.4000 H   0  0  0  0  0  0  0  0  0  0  0  0
   36.9420   28.8000   42.2320 O   0  0  0  0  0  0  0  0  0  0  0  0
   37.0770   30.0090   41.3060 P   0  0  2  0  0  0  0  0  0  0  0  0
   35.7410   31.0320   41.4160 O   0  0  0  0  0  0  0  0  0  0  0  0
   35.3090   30.8220   42.3040 H   0  0  0  0  0  0  0  0  0  0  0  0
   38.4880   30.8140   41.7300 O   0  0  0  0  0  0  0  0  0  0  0  0
   40.9140   33.0270   40.4080 C   0  0  0  0  0  0  0  0  0  0  0  0
   40.1920   34.1600   39.9650 C   0  0  0  0  0  0  0  0  0  0  0  0
   38.7910   34.1020   40.1600 C   0  0  0  0  0  0  0  0  0  0  0  0
   38.2590   32.9790   40.7470 N   0  0  0  0  0  0  0  0  0  0  0  0
   39.0040   31.9470   41.1410 C   0  0  0  0  0  0  0  0  0  0  0  0
   40.3190   31.9780   40.9690 N   0  0  0  0  0  0  0  0  0  0  0  0
   41.9920   33.1170   40.2380 H   0  0  0  0  0  0  0  0  0  0  0  0
   40.6590   35.0230   39.5090 H   0  0  0  0  0  0  0  0  0  0  0  0
   38.1720   34.9290   39.8480 H   0  0  0  0  0  0  0  0  0  0  0  0
  1 17  1  0  0  0  0
  2  4  1  0  0  0  0
  2  1  1  0  0  0  0
  3  2  1  0  0  0  0
  5 12  1  0  0  0  0
  5  6  1  0  0  0  0
  6  2  1  0  0  0  0
  7  6  2  0  0  0  0
  7  8  1  0  0  0  0
  9  7  1  0  0  0  0
 10 11  1  0  0  0  0
 10  9  2  0  0  0  0
 11  5  2  0  0  0  0
 13 12  1  0  0  0  0
 14 15  1  0  0  0  0
 14 11  1  0  0  0  0
 17 18  1  0  0  0  0
 17 20  1  0  0  0  0
 17 16  2  1  0  0  0
 18 19  1  0  0  0  0
 21 26  1  0  0  0  0
 22 23  1  0  0  0  0
 22 21  2  0  0  0  0
 23 24  2  0  0  0  0
 24 25  1  0  0  0  0
 25 20  1  0  0  0  0
 26 25  2  0  0  0  0
 27 21  1  0  0  0  0
 28 22  1  0  0  0  0
 29 23  1  0  0  0  0
M  END
>  <minimizedAffinity>
-5.31895542

$$$$

 OpenBabel03252505313D

 29 30  0  0  0  0  0  0  0  0999 V2000
   37.1220   30.0880   37.7140 O   0  0  0  0  0  0  0  0  0  0  0  0
   36.1670   29.9490   38.6780 C   0  0  0  0  0  0  0  0  0  0  0  0
   35.2750   29.3990   38.2730 H   0  0  0  0  0  0  0  0  0  0  0  0
   35.7450   30.9430   38.9860 H   0  0  0  0  0  0  0  0  0  0  0  0
   36.4900   29.6490   41.1660 C   0  0  0  0  0  0  0  0  0  0  0  0
   36.5920   29.1810   39.8750 C   0  0  0  0  0  0  0  0  0  0  0  0
   37.1280   27.9170   39.6840 C   0  0  0  0  0  0  0  0  0  0  0  0
   37.2410   27.4860   38.7030 H   0  0  0  0  0  0  0  0  0  0  0  0
   37.5680   27.0920   40.7110 C   0  0  0  0  0  3  0  0  0  0  0  0
   37.4570   27.5810   42.0020 C   0  0  0  0  0  3  0  0  0  0  0  0
   36.9170   28.8540   42.1870 C   0  0  0  0  0  0  0  0  0  0  0  0
   35.9530   30.9130   41.3540 O   0  0  0  0  0  0  0  0  0  0  0  0
   36.4790   31.7540   41.5390 H   0  0  0  0  0  0  0  0  0  0  0  0
   36.8020   29.3510   43.4730 O   0  0  0  0  0  0  0  0  0  0  0  0
   35.8970   29.2850   43.9160 H   0  0  0  0  0  0  0  0  0  0  0  0
   36.9400   32.4220   38.8130 O   0  0  0  0  0  0  0  0  0  0  0  0
   37.8750   31.5920   37.9340 P   0  0  2  0  0  0  0  0  0  0  0  0
   38.0730   32.2820   36.4070 O   0  0  0  0  0  0  0  0  0  0  0  0
   37.8210   33.2540   36.5130 H   0  0  0  0  0  0  0  0  0  0  0  0
   39.3460   31.4710   38.7350 O   0  0  0  0  0  0  0  0  0  0  0  0
   41.8030   33.7520   39.8700 C   0  0  0  0  0  0  0  0  0  0  0  0
   42.5050   34.1610   38.7110 C   0  0  0  0  0  0  0  0  0  0  0  0
   42.0600   33.5860   37.4980 C   0  0  0  0  0  0  0  0  0  0  0  0
   41.0120   32.6980   37.5400 N   0  0  0  0  0  0  0  0  0  0  0  0
   40.3980   32.3590   38.6720 C   0  0  0  0  0  0  0  0  0  0  0  0
   40.7960   32.8850   39.8230 N   0  0  0  0  0  0  0  0  0  0  0  0
   42.1810   34.2230   40.7840 H   0  0  0  0  0  0  0  0  0  0  0  0
   43.3250   34.8670   38.7300 H   0  0  0  0  0  0  0  0  0  0  0  0
   42.5460   33.8500   36.5700 H   0  0  0  0  0  0  0  0  0  0  0  0
  1 17  1  0  0  0  0
  1  2  1  0  0  0  0
  2  4  1  0  0  0  0
  2  6  1  0  0  0  0
  3  2  1  0  0  0  0
  5 12  1  0  0  0  0
  5 11  1  0  0  0  0
  6  5  2  0  0  0  0
  7  6  1  0  0  0  0
  7  9  2  0  0  0  0
  8  7  1  0  0  0  0
  9 10  1  0  0  0  0
 10 11  2  0  0  0  0
 11 14  1  0  0  0  0
 12 13  1  0  0  0  0
 14 15  1  0  0  0  0
 17 20  1  0  0  0  0
 17 16  2  1  0  0  0
 18 19  1  0  0  0  0
 18 17  1  0  0  0  0
 21 27  1  0  0  0  0
 22 28  1  0  0  0  0
 22 21  2  0  0  0  0
 23 24  2  0  0  0  0
 23 22  1  0  0  0  0
 24 25  1  0  0  0  0
 25 20  1  0  0  0  0
 25 26  2  0  0  0  0
 26 21  1  0  0  0  0
 29 23  1  0  0  0  0
M  END
>  <minimizedAffinity>
-5.29842043

$$$$

 OpenBabel03252505313D

 29 30  0  0  0  0  0  0  0  0999 V2000
   36.4860   30.2950   38.9070 O   0  0  0  0  0  0  0  0  0  0  0  0
   36.8830   31.5400   39.2970 C   0  0  0  0  0  0  0  0  0  0  0  0
   36.6630   31.7000   40.3880 H   0  0  0  0  0  0  0  0  0  0  0  0
   36.2840   32.3410   38.7880 H   0  0  0  0  0  0  0  0  0  0  0  0
   38.9720   31.9360   37.9310 C   0  0  0  0  0  0  0  0  0  0  0  0
   38.3340   31.8100   39.1450 C   0  0  0  0  0  0  0  0  0  0  0  0
   39.0990   31.9410   40.2940 C   0  0  0  0  0  0  0  0  0  0  0  0
   38.6710   31.8520   41.2790 H   0  0  0  0  0  0  0  0  0  0  0  0
   40.4640   32.1910   40.2990 C   0  0  0  0  0  3  0  0  0  0  0  0
   41.0860   32.3140   39.0670 C   0  0  0  0  0  3  0  0  0  0  0  0
   40.3110   32.1810   37.9160 C   0  0  0  0  0  0  0  0  0  0  0  0
   38.2040   31.8060   36.7830 O   0  0  0  0  0  0  0  0  0  0  0  0
   38.1580   30.9860   36.1970 H   0  0  0  0  0  0  0  0  0  0  0  0
   40.9230   32.3020   36.6800 O   0  0  0  0  0  0  0  0  0  0  0  0
   40.8440   33.1920   36.2090 H   0  0  0  0  0  0  0  0  0  0  0  0
   34.1930   29.3250   39.6080 O   0  0  0  0  0  0  0  0  0  0  0  0
   35.5850   29.6110   40.1720 P   0  0  2  0  0  0  0  0  0  0  0  0
   35.5330   30.7450   41.4200 O   0  0  0  0  0  0  0  0  0  0  0  0
   34.5810   30.7310   41.7610 H   0  0  0  0  0  0  0  0  0  0  0  0
   36.2210   28.1530   40.7090 O   0  0  0  0  0  0  0  0  0  0  0  0
   38.8870   29.0230   42.8690 C   0  0  0  0  0  0  0  0  0  0  0  0
   39.3780   27.7970   43.3780 C   0  0  0  0  0  0  0  0  0  0  0  0
   38.7140   26.6370   42.9130 C   0  0  0  0  0  0  0  0  0  0  0  0
   37.6720   26.7900   42.0300 N   0  0  0  0  0  0  0  0  0  0  0  0
   37.2640   27.9810   41.5930 C   0  0  0  0  0  0  0  0  0  0  0  0
   37.8700   29.0820   42.0140 N   0  0  0  0  0  0  0  0  0  0  0  0
   39.4310   29.8920   43.2550 H   0  0  0  0  0  0  0  0  0  0  0  0
   40.2050   27.7290   44.0720 H   0  0  0  0  0  0  0  0  0  0  0  0
   39.0320   25.6640   43.2550 H   0  0  0  0  0  0  0  0  0  0  0  0
  1  2  1  0  0  0  0
  1 17  1  0  0  0  0
  2  3  1  0  0  0  0
  4  2  1  0  0  0  0
  5  6  1  0  0  0  0
  6  2  1  0  0  0  0
  6  7  2  0  0  0  0
  7  9  1  0  0  0  0
  7  8  1  0  0  0  0
 10  9  2  0  0  0  0
 11  5  2  0  0  0  0
 11 10  1  0  0  0  0
 12  5  1  0  0  0  0
 13 12  1  0  0  0  0
 14 11  1  0  0  0  0
 15 14  1  0  0  0  0
 17 16  2  6  0  0  0
 17 20  1  0  0  0  0
 17 18  1  0  0  0  0
 18 19  1  0  0  0  0
 20 25  1  0  0  0  0
 21 27  1  0  0  0  0
 21 22  1  0  0  0  0
 22 28  1  0  0  0  0
 23 29  1  0  0  0  0
 23 22  2  0  0  0  0
 24 23  1  0  0  0  0
 25 26  1  0  0  0  0
 25 24  2  0  0  0  0
 26 21  2  0  0  0  0
M  END
>  <minimizedAffinity>
-5.29722071

$$$$

 OpenBabel03252505313D

 29 30  0  0  0  0  0  0  0  0999 V2000
   39.6930   30.9280   40.6610 O   0  0  0  0  0  0  0  0  0  0  0  0
   39.2810   30.9540   41.9610 C   0  0  0  0  0  0  0  0  0  0  0  0
   38.3400   31.5610   42.0640 H   0  0  0  0  0  0  0  0  0  0  0  0
   40.0150   31.4960   42.6150 H   0  0  0  0  0  0  0  0  0  0  0  0
   37.6800   29.2000   42.8240 C   0  0  0  0  0  0  0  0  0  0  0  0
   38.9590   29.6280   42.5440 C   0  0  0  0  0  0  0  0  0  0  0  0
   40.0070   28.7660   42.8280 C   0  0  0  0  0  0  0  0  0  0  0  0
   41.0340   29.0330   42.6380 H   0  0  0  0  0  0  0  0  0  0  0  0
   39.8510   27.5010   43.3760 C   0  0  0  0  0  3  0  0  0  0  0  0
   38.5570   27.0890   43.6500 C   0  0  0  0  0  3  0  0  0  0  0  0
   37.5070   27.9600   43.3620 C   0  0  0  0  0  0  0  0  0  0  0  0
   36.6340   30.0630   42.5380 O   0  0  0  0  0  0  0  0  0  0  0  0
   36.1390   30.6300   43.2100 H   0  0  0  0  0  0  0  0  0  0  0  0
   36.2110   27.5580   43.6330 O   0  0  0  0  0  0  0  0  0  0  0  0
   35.6650   27.2040   42.8620 H   0  0  0  0  0  0  0  0  0  0  0  0
   39.2600   32.8910   39.0350 O   0  0  0  0  0  0  0  0  0  0  0  0
   38.5320   31.7370   39.7260 P   0  0  2  0  0  0  0  0  0  0  0  0
   37.3380   32.2940   40.7790 O   0  0  0  0  0  0  0  0  0  0  0  0
   37.1220   33.2330   40.4740 H   0  0  0  0  0  0  0  0  0  0  0  0
   37.8710   30.7660   38.5260 O   0  0  0  0  0  0  0  0  0  0  0  0
   34.9840   29.1130   37.3190 C   0  0  0  0  0  0  0  0  0  0  0  0
   34.2170   28.8020   38.4680 C   0  0  0  0  0  0  0  0  0  0  0  0
   34.7780   29.2110   39.7010 C   0  0  0  0  0  0  0  0  0  0  0  0
   35.9900   29.8590   39.6850 N   0  0  0  0  0  0  0  0  0  0  0  0
   36.6560   30.1190   38.5610 C   0  0  0  0  0  0  0  0  0  0  0  0
   36.1510   29.7460   37.3930 N   0  0  0  0  0  0  0  0  0  0  0  0
   34.5110   28.7790   36.3890 H   0  0  0  0  0  0  0  0  0  0  0  0
   33.2650   28.2900   38.4270 H   0  0  0  0  0  0  0  0  0  0  0  0
   34.2510   29.0100   40.6210 H   0  0  0  0  0  0  0  0  0  0  0  0
  1  2  1  0  0  0  0
  2  3  1  0  0  0  0
  2  6  1  0  0  0  0
  2  4  1  0  0  0  0
  5 11  1  0  0  0  0
  6  5  2  0  0  0  0
  6  7  1  0  0  0  0
  7  9  2  0  0  0  0
  8  7  1  0  0  0  0
  9 10  1  0  0  0  0
 11 14  1  0  0  0  0
 11 10  2  0  0  0  0
 12  5  1  0  0  0  0
 12 13  1  0  0  0  0
 15 14  1  0  0  0  0
 17 16  2  6  0  0  0
 17  1  1  0  0  0  0
 17 18  1  0  0  0  0
 19 18  1  0  0  0  0
 20 25  1  0  0  0  0
 20 17  1  0  0  0  0
 21 26  2  0  0  0  0
 21 22  1  0  0  0  0
 22 23  2  0  0  0  0
 23 29  1  0  0  0  0
 24 23  1  0  0  0  0
 25 24  2  0  0  0  0
 26 25  1  0  0  0  0
 27 21  1  0  0  0  0
 28 22  1  0  0  0  0
M  END
>  <minimizedAffinity>
-5.29474497

$$$$

 OpenBabel03252505313D

 29 30  0  0  0  0  0  0  0  0999 V2000
   37.1720   29.4150   38.6850 O   0  0  0  0  0  0  0  0  0  0  0  0
   36.9120   30.7270   38.4230 C   0  0  0  0  0  0  0  0  0  0  0  0
   35.9640   31.0510   38.9340 H   0  0  0  0  0  0  0  0  0  0  0  0
   36.6940   30.8950   37.3340 H   0  0  0  0  0  0  0  0  0  0  0  0
   37.8090   32.5040   39.9800 C   0  0  0  0  0  0  0  0  0  0  0  0
   37.9530   31.6770   38.8880 C   0  0  0  0  0  0  0  0  0  0  0  0
   39.1430   31.7420   38.1800 C   0  0  0  0  0  0  0  0  0  0  0  0
   39.3270   31.1280   37.3140 H   0  0  0  0  0  0  0  0  0  0  0  0
   40.1980   32.5850   38.5010 C   0  0  0  0  0  3  0  0  0  0  0  0
   40.0330   33.4080   39.6040 C   0  0  0  0  0  3  0  0  0  0  0  0
   38.8330   33.3380   40.3110 C   0  0  0  0  0  0  0  0  0  0  0  0
   36.6180   32.4360   40.6870 O   0  0  0  0  0  0  0  0  0  0  0  0
   35.8550   33.0940   40.6190 H   0  0  0  0  0  0  0  0  0  0  0  0
   38.6580   34.1570   41.4130 O   0  0  0  0  0  0  0  0  0  0  0  0
   38.8130   33.7480   42.3230 H   0  0  0  0  0  0  0  0  0  0  0  0
   34.9160   28.1820   38.4040 O   0  0  0  0  0  0  0  0  0  0  0  0
   35.8270   28.7630   39.4860 P   0  0  2  0  0  0  0  0  0  0  0  0
   35.0790   30.0240   40.3210 O   0  0  0  0  0  0  0  0  0  0  0  0
   34.0880   29.9000   40.1720 H   0  0  0  0  0  0  0  0  0  0  0  0
   36.2340   27.5110   40.5280 O   0  0  0  0  0  0  0  0  0  0  0  0
   38.2760   28.7560   43.1370 C   0  0  0  0  0  0  0  0  0  0  0  0
   39.1580   27.6990   43.4650 C   0  0  0  0  0  0  0  0  0  0  0  0
   38.9940   26.5140   42.7090 C   0  0  0  0  0  0  0  0  0  0  0  0
   38.0160   26.4840   41.7440 N   0  0  0  0  0  0  0  0  0  0  0  0
   37.2200   27.5220   41.4900 C   0  0  0  0  0  0  0  0  0  0  0  0
   37.3550   28.6440   42.1850 N   0  0  0  0  0  0  0  0  0  0  0  0
   38.4410   29.6510   43.7460 H   0  0  0  0  0  0  0  0  0  0  0  0
   39.9160   27.7720   44.2340 H   0  0  0  0  0  0  0  0  0  0  0  0
   39.6310   25.6640   42.9000 H   0  0  0  0  0  0  0  0  0  0  0  0
  1 17  1  0  0  0  0
  2  1  1  0  0  0  0
  2  6  1  0  0  0  0
  2  3  1  0  0  0  0
  4  2  1  0  0  0  0
  5 11  1  0  0  0  0
  5 12  1  0  0  0  0
  6  5  2  0  0  0  0
  7  9  2  0  0  0  0
  7  6  1  0  0  0  0
  8  7  1  0  0  0  0
  9 10  1  0  0  0  0
 10 11  2  0  0  0  0
 11 14  1  0  0  0  0
 13 12  1  0  0  0  0
 14 15  1  0  0  0  0
 17 16  2  6  0  0  0
 17 18  1  0  0  0  0
 17 20  1  0  0  0  0
 19 18  1  0  0  0  0
 20 25  1  0  0  0  0
 21 22  1  0  0  0  0
 21 27  1  0  0  0  0
 22 28  1  0  0  0  0
 23 29  1  0  0  0  0
 23 22  2  0  0  0  0
 24 23  1  0  0  0  0
 25 24  2  0  0  0  0
 25 26  1  0  0  0  0
 26 21  2  0  0  0  0
M  END
>  <minimizedAffinity>
-5.25800657

$$$$
