
 OpenBabel03242515563D

 39 42  0  0  0  0  0  0  0  0999 V2000
   45.9790   32.7480   46.4860 C   0  0  0  0  0  0  0  0  0  0  0  0
   45.4190   32.8620   47.7880 C   0  0  0  0  0  0  0  0  0  0  0  0
   45.6160   31.9440   48.7790 C   0  0  0  0  0  0  0  0  0  0  0  0
   46.3720   30.8550   48.5660 C   0  0  0  0  0  0  0  0  0  0  0  0
   46.9540   30.6810   47.3070 C   0  0  0  0  0  0  0  0  0  0  0  0
   47.7130   29.5670   47.1230 C   0  0  0  0  0  0  0  0  0  0  0  0
   48.3090   29.3330   45.9120 C   0  0  0  0  0  0  0  0  0  0  0  0
   48.0900   30.2820   44.9220 C   0  0  0  0  0  0  0  0  0  0  0  0
   47.3250   31.3610   45.1820 C   0  0  0  0  0  0  0  0  0  0  0  0
   46.7310   31.6250   46.3380 C   0  0  0  0  0  0  0  0  0  0  0  0
   44.8020   33.7150   48.0230 H   0  0  0  0  0  0  0  0  0  0  0  0
   45.1620   32.0880   49.7480 H   0  0  0  0  0  0  0  0  0  0  0  0
   46.5140   30.1420   49.3680 H   0  0  0  0  0  0  0  0  0  0  0  0
   47.8440   28.8500   47.9600 H   0  0  0  0  0  0  0  0  0  0  0  0
   48.9030   28.4050   45.8610 H   0  0  0  0  0  0  0  0  0  0  0  0
   48.6490   29.9420   44.0400 H   0  0  0  0  0  0  0  0  0  0  0  0
   44.4570   35.7050   45.1180 C   0  0  0  0  0  0  0  0  0  0  0  0
   45.0880   35.8130   43.8410 C   0  0  0  0  0  0  0  0  0  0  0  0
   46.0530   34.8490   43.4400 C   0  0  0  0  0  0  0  0  0  0  0  0
   46.3110   33.8780   44.3170 N   0  0  0  0  0  0  0  0  0  0  0  0
   45.7560   33.7530   45.4840 C   0  0  0  0  0  0  0  0  0  0  0  0
   44.8270   34.6800   45.8670 N   0  0  0  0  0  0  0  0  0  0  0  0
   43.7270   36.4500   45.3990 H   0  0  0  0  0  0  0  0  0  0  0  0
   46.5020   34.9740   42.4660 H   0  0  0  0  0  0  0  0  0  0  0  0
   44.6920   36.9140   43.0320 N   0  0  0  0  0  0  0  0  0  0  0  0
   43.7250   36.8630   42.6070 H   0  0  0  0  0  0  0  0  0  0  0  0
   45.3330   37.7330   42.8710 H   0  0  0  0  0  0  0  0  0  0  0  0
   47.2870   32.1000   44.0330 O   0  0  0  0  0  0  0  0  0  0  0  0
   48.9220   32.3250   42.1960 C   0  0  0  0  0  0  0  0  0  0  0  0
   47.8300   31.7290   42.7930 C   0  0  0  0  0  0  0  0  0  0  0  0
   47.2300   30.6810   42.1100 C   0  0  0  0  0  0  0  0  0  0  0  0
   46.3620   30.1990   42.5750 H   0  0  0  0  0  0  0  0  0  0  0  0
   47.6830   30.2380   40.8910 C   0  0  0  0  0  0  0  0  0  0  0  0
   48.7760   30.8510   40.3150 C   0  0  0  0  0  0  0  0  0  0  0  0
   49.3860   31.8890   40.9720 C   0  0  0  0  0  0  0  0  0  0  0  0
   49.5570   33.3910   42.8660 O   0  0  0  0  0  0  0  0  0  0  0  0
   49.7680   33.1940   43.8500 H   0  0  0  0  0  0  0  0  0  0  0  0
   50.4910   32.5340   40.4260 O   0  0  0  0  0  0  0  0  0  0  0  0
   51.0110   32.1280   39.6630 H   0  0  0  0  0  0  0  0  0  0  0  0
  1  2  1  0  0  0  0
  2 11  1  0  0  0  0
  2  3  2  0  0  0  0
  3 12  1  0  0  0  0
  4  3  1  0  0  0  0
  4 13  1  0  0  0  0
  5  4  2  0  0  0  0
  6  5  1  0  0  0  0
  6 14  1  0  0  0  0
  7  6  2  0  0  0  0
  8  9  2  0  0  0  0
  8  7  1  0  0  0  0
  9 10  1  0  0  0  0
 10  1  2  0  0  0  0
 10  5  1  0  0  0  0
 15  7  1  0  0  0  0
 16  8  1  0  0  0  0
 17 23  1  0  0  0  0
 17 22  1  0  0  0  0
 18 17  2  0  0  0  0
 19 18  1  0  0  0  0
 19 20  2  0  0  0  0
 20 21  1  0  0  0  0
 21 22  2  0  0  0  0
 21  1  1  0  0  0  0
 24 19  1  0  0  0  0
 25 18  1  0  0  0  0
 26 25  1  0  0  0  0
 27 25  1  0  0  0  0
 28  9  1  0  0  0  0
 29 30  1  0  0  0  0
 29 36  1  0  0  0  0
 30 28  1  0  0  0  0
 31 32  1  0  0  0  0
 31 30  2  0  0  0  0
 33 31  1  0  0  0  0
 34 33  2  0  0  0  0
 34 35  1  0  0  0  0
 35 29  2  0  0  0  0
 36 37  1  0  0  0  0
 38 35  1  0  0  0  0
 39 38  1  0  0  0  0
M  END
>  <minimizedAffinity>
-6.34605932

>  <minimizedRMSD>
0.722755313

$$$$
