
 OpenBabel03242518473D

 47 50  0  0  1  0  0  0  0  0999 V2000
   47.4580   32.8940   44.3490 C   0  0  2  0  0  0  0  0  0  0  0  0
   47.3840   33.3430   42.9320 C   0  0  1  0  0  0  0  0  0  0  0  0
   47.3620   32.1650   41.9540 C   0  0  0  0  0  0  0  0  0  0  0  0
   48.4980   31.4220   42.2950 O   0  0  0  0  0  0  0  0  0  0  0  0
   48.3180   30.7390   43.4780 C   0  0  0  0  0  0  0  0  0  0  0  0
   47.3180   31.3600   44.4010 C   0  0  1  0  0  0  0  0  0  0  0  0
   48.4500   33.1180   44.7840 H   0  0  0  0  0  0  0  0  0  0  0  0
   48.2750   33.9890   42.6840 H   0  0  0  0  0  0  0  0  0  0  0  0
   47.5520   32.5450   40.9240 H   0  0  0  0  0  0  0  0  0  0  0  0
   46.4370   31.5940   42.0310 H   0  0  0  0  0  0  0  0  0  0  0  0
   49.2710   30.6330   44.0490 H   0  0  0  0  0  0  0  0  0  0  0  0
   47.9650   29.7050   43.1930 H   0  0  0  0  0  0  0  0  0  0  0  0
   46.2620   31.1800   44.0990 H   0  0  0  0  0  0  0  0  0  0  0  0
   44.9970   36.1150   42.8480 C   0  0  0  0  0  0  0  0  0  0  0  0
   43.9760   35.6750   41.9530 C   0  0  0  0  0  0  0  0  0  0  0  0
   44.1730   34.3840   41.3980 C   0  0  0  0  0  0  0  0  0  0  0  0
   45.2720   33.6740   41.7360 N   0  0  0  0  0  0  0  0  0  0  0  0
   46.2010   34.1520   42.5910 C   0  0  0  0  0  0  0  0  0  0  0  0
   46.0600   35.3760   43.1460 N   0  0  0  0  0  0  0  0  0  0  0  0
   43.1300   36.2670   41.7160 H   0  0  0  0  0  0  0  0  0  0  0  0
   43.4090   34.0370   40.7180 H   0  0  0  0  0  0  0  0  0  0  0  0
   44.8280   37.3560   43.3960 O   0  0  0  0  0  0  0  0  0  0  0  0
   45.5440   37.8810   43.8620 H   0  0  0  0  0  0  0  0  0  0  0  0
   46.4720   33.4470   45.1660 O   0  0  0  0  0  0  0  0  0  0  0  0
   45.5770   33.3020   44.8190 H   0  0  0  0  0  0  0  0  0  0  0  0
   47.4800   30.9950   45.7180 O   0  0  0  0  0  0  0  0  0  0  0  0
   46.1850   28.6520   45.3460 F   0  0  0  0  0  0  0  0  0  0  0  0
   46.0700   29.4360   46.4370 C   0  0  0  0  0  0  0  0  0  0  0  0
   46.6900   30.6380   46.7140 C   0  0  0  0  0  0  0  0  0  0  0  0
   46.3650   31.1990   47.9390 C   0  0  0  0  0  0  0  0  0  0  0  0
   45.5080   30.6790   48.8730 C   0  0  0  0  0  0  0  0  0  0  0  0
   44.9250   29.4920   48.5470 C   0  0  0  0  0  0  0  0  0  0  0  0
   45.1760   28.8420   47.3510 C   0  0  0  0  0  0  0  0  0  0  0  0
   46.9000   32.1550   48.0850 H   0  0  0  0  0  0  0  0  0  0  0  0
   45.3440   31.2170   49.7860 H   0  0  0  0  0  0  0  0  0  0  0  0
   44.2330   29.0640   49.2890 H   0  0  0  0  0  0  0  0  0  0  0  0
   45.0740   26.5270   47.8160 C   0  0  0  0  0  0  0  0  0  0  0  0
   44.4680   27.5780   47.1580 C   0  0  0  0  0  0  0  0  0  0  0  0
   43.3420   27.3690   46.4340 C   0  0  0  0  0  0  0  0  0  0  0  0
   42.9190   28.2360   45.9430 H   0  0  0  0  0  0  0  0  0  0  0  0
   42.8130   26.0840   46.3680 C   0  0  0  0  0  0  0  0  0  0  0  0
   43.4000   25.0170   47.0170 C   0  0  0  0  0  0  0  0  0  0  0  0
   44.5630   25.2480   47.7610 C   0  0  0  0  0  0  0  0  0  0  0  0
   46.2420   26.6310   48.5930 O   0  0  0  0  0  0  0  0  0  0  0  0
   47.1130   26.6990   48.0780 H   0  0  0  0  0  0  0  0  0  0  0  0
   45.0990   24.1320   48.3870 O   0  0  0  0  0  0  0  0  0  0  0  0
   46.0600   24.1280   48.6880 H   0  0  0  0  0  0  0  0  0  0  0  0
  1  6  1  0  0  0  0
  1  7  1  1  0  0  0
  1 24  1  0  0  0  0
  2  8  1  6  0  0  0
  2  1  1  0  0  0  0
  3 10  1  0  0  0  0
  3  4  1  0  0  0  0
  3  2  1  0  0  0  0
  4  5  1  0  0  0  0
  5 11  1  0  0  0  0
  5  6  1  0  0  0  0
  6 13  1  6  0  0  0
  6 26  1  0  0  0  0
  9  3  1  0  0  0  0
 12  5  1  0  0  0  0
 14 19  1  0  0  0  0
 14 22  1  0  0  0  0
 15 14  2  0  0  0  0
 16 17  2  0  0  0  0
 16 15  1  0  0  0  0
 17 18  1  0  0  0  0
 18  2  1  0  0  0  0
 18 19  2  0  0  0  0
 20 15  1  0  0  0  0
 21 16  1  0  0  0  0
 22 23  1  0  0  0  0
 25 24  1  0  0  0  0
 26 29  1  0  0  0  0
 27 28  1  0  0  0  0
 28 29  2  0  0  0  0
 28 33  1  0  0  0  0
 29 30  1  0  0  0  0
 30 34  1  0  0  0  0
 30 31  2  0  0  0  0
 31 35  1  0  0  0  0
 32 31  1  0  0  0  0
 32 36  1  0  0  0  0
 33 32  2  0  0  0  0
 37 44  1  0  0  0  0
 38 33  1  0  0  0  0
 38 37  2  0  0  0  0
 39 38  1  0  0  0  0
 40 39  1  0  0  0  0
 41 39  2  0  0  0  0
 41 42  1  0  0  0  0
 42 43  2  0  0  0  0
 43 37  1  0  0  0  0
 43 46  1  0  0  0  0
 45 44  1  0  0  0  0
 46 47  1  0  0  0  0
M  END
>  <minimizedAffinity>
-6.34506893

>  <minimizedRMSD>
1.58735454

$$$$
