
 OpenBabel03252502533D

 33 35  0  0  0  0  0  0  0  0999 V2000
   46.0720   29.9880   44.5440 Br  0  0  0  0  0  0  0  0  0  0  0  0
   45.8030   30.6520   46.3410 C   0  0  0  0  0  0  0  0  0  0  0  0
   46.3200   31.8890   46.6140 C   0  0  0  0  0  0  0  0  0  0  0  0
   46.0990   32.3180   47.9190 C   0  0  0  0  0  0  0  0  0  0  0  0
   45.4290   31.5890   48.8680 C   0  0  0  0  0  0  0  0  0  0  0  0
   44.9440   30.3630   48.5170 C   0  0  0  0  0  0  0  0  0  0  0  0
   45.1170   29.8610   47.2450 C   0  0  0  0  0  0  0  0  0  0  0  0
   46.4710   33.2950   48.2430 H   0  0  0  0  0  0  0  0  0  0  0  0
   45.2780   31.9590   49.8750 H   0  0  0  0  0  0  0  0  0  0  0  0
   44.4100   29.7340   49.2010 H   0  0  0  0  0  0  0  0  0  0  0  0
   45.4340   27.5130   47.2420 C   0  0  0  0  0  0  0  0  0  0  0  0
   44.6050   28.5390   46.8330 C   0  0  0  0  0  0  0  0  0  0  0  0
   43.4540   28.2560   46.1260 C   0  0  0  0  0  0  0  0  0  0  0  0
   42.8840   29.1290   45.8590 H   0  0  0  0  0  0  0  0  0  0  0  0
   43.1670   26.9360   45.8480 C   0  0  0  0  0  3  0  0  0  0  0  0
   43.9920   25.9080   46.2540 C   0  0  0  0  0  3  0  0  0  0  0  0
   45.1550   26.2070   46.9690 C   0  0  0  0  0  0  0  0  0  0  0  0
   46.6260   27.6830   47.9640 O   0  0  0  0  0  0  0  0  0  0  0  0
   47.0790   28.5950   48.0130 H   0  0  0  0  0  0  0  0  0  0  0  0
   45.9060   25.0930   47.3250 O   0  0  0  0  0  0  0  0  0  0  0  0
   46.6840   24.8640   46.6890 H   0  0  0  0  0  0  0  0  0  0  0  0
   47.0530   32.7630   45.6910 C   0  0  0  0  0  0  0  0  0  0  0  0
   47.8940   33.2370   46.2360 H   0  0  0  0  0  0  0  0  0  0  0  0
   47.5110   32.1260   44.8960 H   0  0  0  0  0  0  0  0  0  0  0  0
   44.5000   35.4190   45.1390 C   0  0  0  0  0  0  0  0  0  0  0  0
   44.7450   35.7720   43.8050 C   0  0  0  0  0  0  0  0  0  0  0  0
   45.7620   35.1050   43.1320 C   0  0  0  0  0  0  0  0  0  0  0  0
   46.4780   34.1450   43.7780 N   0  0  0  0  0  0  0  0  0  0  0  0
   46.2130   33.8240   45.0840 C   0  0  0  0  0  0  0  0  0  0  0  0
   45.2270   34.4720   45.7320 N   0  0  0  0  0  0  0  0  0  0  0  0
   43.7000   35.9650   45.6210 H   0  0  0  0  0  0  0  0  0  0  0  0
   44.1790   36.5370   43.2810 H   0  0  0  0  0  0  0  0  0  0  0  0
   46.0290   35.3050   42.1020 H   0  0  0  0  0  0  0  0  0  0  0  0
  1  2  1  0  0  0  0
  2  3  2  0  0  0  0
  2  7  1  0  0  0  0
  3  4  1  0  0  0  0
  4  8  1  0  0  0  0
  4  5  2  0  0  0  0
  5  9  1  0  0  0  0
  6  5  1  0  0  0  0
  6 10  1  0  0  0  0
  7  6  2  0  0  0  0
 11 18  1  0  0  0  0
 12 11  2  0  0  0  0
 12  7  1  0  0  0  0
 13 12  1  0  0  0  0
 14 13  1  0  0  0  0
 15 13  2  0  0  0  0
 15 16  1  0  0  0  0
 16 17  2  0  0  0  0
 17 11  1  0  0  0  0
 17 20  1  0  0  0  0
 18 19  1  0  0  0  0
 21 20  1  0  0  0  0
 22 23  1  0  0  0  0
 22  3  1  0  0  0  0
 24 22  1  0  0  0  0
 25 31  1  0  0  0  0
 25 30  1  0  0  0  0
 26 25  2  0  0  0  0
 27 28  2  0  0  0  0
 27 26  1  0  0  0  0
 28 29  1  0  0  0  0
 29 22  1  0  0  0  0
 29 30  2  0  0  0  0
 32 26  1  0  0  0  0
 33 27  1  0  0  0  0
M  END
>  <minimizedAffinity>
-5.55419827

>  <minimizedRMSD>
0.916295648

$$$$
