
 OpenBabel03242523233D

 45 48  0  0  1  0  0  0  0  0999 V2000
   47.1900   32.7290   44.2360 C   0  0  0  0  0  0  0  0  0  0  0  0
   48.0780   33.0570   43.3030 C   0  0  0  0  0  0  0  0  0  0  0  0
   48.8460   32.0270   42.8220 C   0  0  0  0  0  0  0  0  0  0  0  0
   48.6180   30.7430   43.3610 N   0  0  0  0  0  0  0  0  0  0  0  0
   47.7240   30.4850   44.2840 C   0  0  0  0  0  0  0  0  0  0  0  0
   46.9450   31.5000   44.7780 N   0  0  0  0  0  0  0  0  0  0  0  0
   49.6140   32.1200   42.0610 H   0  0  0  0  0  0  0  0  0  0  0  0
   47.6910   29.4360   44.5790 H   0  0  0  0  0  0  0  0  0  0  0  0
   48.3880   34.3670   42.8380 C   0  0  1  0  0  0  0  0  0  0  0  0
   49.4430   34.7780   42.0920 C   0  0  0  0  0  0  0  0  0  0  0  0
   48.1340   34.7380   41.3590 C   0  0  1  0  0  0  0  0  0  0  0  0
   48.0610   35.1520   43.5860 H   0  0  0  0  0  0  0  0  0  0  0  0
   50.2130   34.0150   41.7560 H   0  0  0  0  0  0  0  0  0  0  0  0
   49.9480   35.7690   42.0310 H   0  0  0  0  0  0  0  0  0  0  0  0
   47.5970   35.7330   41.2670 H   0  0  0  0  0  0  0  0  0  0  0  0
   48.5740   32.8530   39.5090 C   0  0  0  0  0  0  0  0  0  0  0  0
   47.9240   33.7700   40.3000 C   0  0  0  0  0  0  0  0  0  0  0  0
   46.5450   33.8910   40.0070 C   0  0  0  0  0  0  0  0  0  0  0  0
   45.7380   34.5040   40.4240 H   0  0  0  0  0  0  0  0  0  0  0  0
   45.9070   33.1410   39.0000 C   0  0  0  0  0  3  0  0  0  0  0  0
   46.6690   32.2370   38.2540 C   0  0  0  0  0  3  0  0  0  0  0  0
   48.0100   32.0970   38.5150 C   0  0  0  0  0  0  0  0  0  0  0  0
   49.9080   32.8000   39.8690 O   0  0  0  0  0  0  0  0  0  0  0  0
   50.4400   31.9420   39.9170 H   0  0  0  0  0  0  0  0  0  0  0  0
   48.9210   31.2600   37.8870 O   0  0  0  0  0  0  0  0  0  0  0  0
   48.9430   30.3010   38.2070 H   0  0  0  0  0  0  0  0  0  0  0  0
   46.1980   33.6210   44.8710 C   0  0  0  0  0  0  0  0  0  0  0  0
   45.6610   34.1540   45.8070 O   0  0  0  0  0  0  0  0  0  0  0  0
   44.3590   31.8050   43.1870 Cl  0  0  0  0  0  0  0  0  0  0  0  0
   44.4840   33.5480   42.9240 C   0  0  0  0  0  0  0  0  0  0  0  0
   45.3590   34.2330   43.7900 C   0  0  0  0  0  0  0  0  0  0  0  0
   45.3610   35.5770   43.4900 C   0  0  0  0  0  0  0  0  0  0  0  0
   44.7020   36.2580   42.5640 C   0  0  0  0  0  0  0  0  0  0  0  0
   43.8670   35.5190   41.7540 C   0  0  0  0  0  0  0  0  0  0  0  0
   43.7490   34.1750   41.9230 C   0  0  0  0  0  0  0  0  0  0  0  0
   45.9860   36.2490   44.1230 H   0  0  0  0  0  0  0  0  0  0  0  0
   44.7710   37.3340   42.3980 H   0  0  0  0  0  0  0  0  0  0  0  0
   43.3010   36.0530   40.9700 H   0  0  0  0  0  0  0  0  0  0  0  0
   42.8890   33.5480   41.0620 O   0  0  0  0  0  0  0  0  0  0  0  0
   40.6420   32.9940   39.8380 O   0  0  0  0  0  0  0  0  0  0  0  0
   41.2380   33.2360   41.2080 P   0  0  0  0  0  0  0  0  0  0  0  0
   41.0180   31.8970   42.2240 O   0  0  0  0  0  0  0  0  0  0  0  0
   41.5580   31.1160   41.9250 H   0  0  0  0  0  0  0  0  0  0  0  0
   40.4310   34.5260   41.9710 O   0  0  0  0  0  0  0  0  0  0  0  0
   40.6300   34.4900   42.9370 H   0  0  0  0  0  0  0  0  0  0  0  0
  1  6  1  0  0  0  0
  1 27  1  0  0  0  0
  2  1  2  0  0  0  0
  3  2  1  0  0  0  0
  3  4  2  0  0  0  0
  4  5  1  0  0  0  0
  5  8  1  0  0  0  0
  5  6  2  0  0  0  0
  7  3  1  0  0  0  0
  9  2  1  0  0  0  0
  9 12  1  1  0  0  0
 10  9  1  0  0  0  0
 11 15  1  6  0  0  0
 11 10  1  0  0  0  0
 11  9  1  0  0  0  0
 13 10  1  0  0  0  0
 14 10  1  0  0  0  0
 16 23  1  0  0  0  0
 16 17  1  0  0  0  0
 17 11  1  0  0  0  0
 18 17  2  0  0  0  0
 18 19  1  0  0  0  0
 20 18  1  0  0  0  0
 21 22  1  0  0  0  0
 21 20  2  0  0  0  0
 22 16  2  0  0  0  0
 23 24  1  0  0  0  0
 25 26  1  0  0  0  0
 25 22  1  0  0  0  0
 27 28  2  0  0  0  0
 30 29  1  0  0  0  0
 30 31  1  0  0  0  0
 31 27  1  0  0  0  0
 32 31  2  0  0  0  0
 32 36  1  0  0  0  0
 33 32  1  0  0  0  0
 34 35  1  0  0  0  0
 34 33  2  0  0  0  0
 35 30  2  0  0  0  0
 37 33  1  0  0  0  0
 38 34  1  0  0  0  0
 39 41  1  0  0  0  0
 39 35  1  0  0  0  0
 40 41  2  0  0  0  0
 41 44  1  0  0  0  0
 41 42  1  0  0  0  0
 43 42  1  0  0  0  0
 44 45  1  0  0  0  0
M  END
>  <minimizedAffinity>
-6.47830057

>  <minimizedRMSD>
0.555003762

$$$$
