
 OpenBabel03252502543D

 33 35  0  0  0  0  0  0  0  0999 V2000
   40.9580   29.7910   39.6700 Br  0  0  0  0  0  0  0  0  0  0  0  0
   39.2790   30.7390   39.5080 C   0  0  0  0  0  0  0  0  0  0  0  0
   38.1460   29.9730   39.5420 C   0  0  0  0  0  0  0  0  0  0  0  0
   36.9680   30.7030   39.4220 C   0  0  0  0  0  0  0  0  0  0  0  0
   36.9150   32.0660   39.2810 C   0  0  0  0  0  0  0  0  0  0  0  0
   38.0910   32.7580   39.2560 C   0  0  0  0  0  0  0  0  0  0  0  0
   39.3040   32.1150   39.3690 C   0  0  0  0  0  0  0  0  0  0  0  0
   36.0020   30.1890   39.4370 H   0  0  0  0  0  0  0  0  0  0  0  0
   35.9760   32.5980   39.1900 H   0  0  0  0  0  0  0  0  0  0  0  0
   38.1330   33.8240   39.1480 H   0  0  0  0  0  0  0  0  0  0  0  0
   41.0240   33.0810   38.0570 C   0  0  0  0  0  0  0  0  0  0  0  0
   40.5930   32.8330   39.3460 C   0  0  0  0  0  0  0  0  0  0  0  0
   41.3530   33.2510   40.4190 C   0  0  0  0  0  0  0  0  0  0  0  0
   40.9240   33.0070   41.3750 H   0  0  0  0  0  0  0  0  0  0  0  0
   42.5370   33.9120   40.1640 C   0  0  0  0  0  3  0  0  0  0  0  0
   42.9720   34.1600   38.8790 C   0  0  0  0  0  3  0  0  0  0  0  0
   42.1940   33.7330   37.7990 C   0  0  0  0  0  0  0  0  0  0  0  0
   40.3350   32.7020   36.8940 O   0  0  0  0  0  0  0  0  0  0  0  0
   39.5970   32.0010   36.9310 H   0  0  0  0  0  0  0  0  0  0  0  0
   42.7310   34.0380   36.5550 O   0  0  0  0  0  0  0  0  0  0  0  0
   43.2720   33.2830   36.1090 H   0  0  0  0  0  0  0  0  0  0  0  0
   38.0690   28.5160   39.6880 C   0  0  0  0  0  0  0  0  0  0  0  0
   37.3010   28.1240   38.9910 H   0  0  0  0  0  0  0  0  0  0  0  0
   39.0440   28.0790   39.3620 H   0  0  0  0  0  0  0  0  0  0  0  0
   36.9490   26.5150   42.6240 C   0  0  0  0  0  0  0  0  0  0  0  0
   37.1820   27.4070   43.6790 C   0  0  0  0  0  0  0  0  0  0  0  0
   37.7090   28.6560   43.3700 C   0  0  0  0  0  0  0  0  0  0  0  0
   37.9780   28.9690   42.0730 N   0  0  0  0  0  0  0  0  0  0  0  0
   37.7390   28.0720   41.0650 C   0  0  0  0  0  0  0  0  0  0  0  0
   37.2290   26.8640   41.3680 N   0  0  0  0  0  0  0  0  0  0  0  0
   36.5390   25.5560   42.9130 H   0  0  0  0  0  0  0  0  0  0  0  0
   36.9700   27.1670   44.7170 H   0  0  0  0  0  0  0  0  0  0  0  0
   37.9240   29.4150   44.1110 H   0  0  0  0  0  0  0  0  0  0  0  0
  2  3  1  0  0  0  0
  2  1  1  0  0  0  0
  3 22  1  0  0  0  0
  4  8  1  0  0  0  0
  4  3  2  0  0  0  0
  5  4  1  0  0  0  0
  6  5  2  0  0  0  0
  6  7  1  0  0  0  0
  7  2  2  0  0  0  0
  9  5  1  0  0  0  0
 10  6  1  0  0  0  0
 11 12  1  0  0  0  0
 12  7  1  0  0  0  0
 12 13  2  0  0  0  0
 13 14  1  0  0  0  0
 15 13  1  0  0  0  0
 16 15  2  0  0  0  0
 17 11  2  0  0  0  0
 17 16  1  0  0  0  0
 18 19  1  0  0  0  0
 18 11  1  0  0  0  0
 20 17  1  0  0  0  0
 21 20  1  0  0  0  0
 22 29  1  0  0  0  0
 23 22  1  0  0  0  0
 24 22  1  0  0  0  0
 25 31  1  0  0  0  0
 25 26  1  0  0  0  0
 26 32  1  0  0  0  0
 27 26  2  0  0  0  0
 27 33  1  0  0  0  0
 28 27  1  0  0  0  0
 29 30  1  0  0  0  0
 29 28  2  0  0  0  0
 30 25  2  0  0  0  0
M  END
>  <minimizedAffinity>
-6.23157644

$$$$

 OpenBabel03252502543D

 33 35  0  0  0  0  0  0  0  0999 V2000
   39.1740   27.2240   39.6680 Br  0  0  0  0  0  0  0  0  0  0  0  0
   38.2110   27.4200   41.3340 C   0  0  0  0  0  0  0  0  0  0  0  0
   38.4910   28.5410   42.0680 C   0  0  0  0  0  0  0  0  0  0  0  0
   37.7720   28.6320   43.2550 C   0  0  0  0  0  0  0  0  0  0  0  0
   36.8600   27.7000   43.6790 C   0  0  0  0  0  0  0  0  0  0  0  0
   36.6370   26.6100   42.8890 C   0  0  0  0  0  0  0  0  0  0  0  0
   37.3050   26.4390   41.6960 C   0  0  0  0  0  0  0  0  0  0  0  0
   37.9200   29.4900   43.9190 H   0  0  0  0  0  0  0  0  0  0  0  0
   36.3190   27.8080   44.6120 H   0  0  0  0  0  0  0  0  0  0  0  0
   35.9400   25.8380   43.1510 H   0  0  0  0  0  0  0  0  0  0  0  0
   37.7790   24.1600   41.2580 C   0  0  0  0  0  0  0  0  0  0  0  0
   37.0880   25.2720   40.8200 C   0  0  0  0  0  0  0  0  0  0  0  0
   36.3100   25.1970   39.6830 C   0  0  0  0  0  0  0  0  0  0  0  0
   35.8150   26.1190   39.4330 H   0  0  0  0  0  0  0  0  0  0  0  0
   36.2500   23.9930   39.0110 C   0  0  0  0  0  3  0  0  0  0  0  0
   36.9390   22.8800   39.4440 C   0  0  0  0  0  3  0  0  0  0  0  0
   37.7240   22.9680   40.5980 C   0  0  0  0  0  0  0  0  0  0  0  0
   38.5990   24.1220   42.3980 O   0  0  0  0  0  0  0  0  0  0  0  0
   38.9300   24.9830   42.8290 H   0  0  0  0  0  0  0  0  0  0  0  0
   38.3710   21.7870   40.9370 O   0  0  0  0  0  0  0  0  0  0  0  0
   39.3460   21.7070   40.6120 H   0  0  0  0  0  0  0  0  0  0  0  0
   39.4410   29.6050   41.7260 C   0  0  0  0  0  0  0  0  0  0  0  0
   39.9770   29.9180   42.6440 H   0  0  0  0  0  0  0  0  0  0  0  0
   40.2120   29.1790   41.0390 H   0  0  0  0  0  0  0  0  0  0  0  0
   37.1860   31.8480   39.7870 C   0  0  0  0  0  0  0  0  0  0  0  0
   37.7450   33.1060   40.0500 C   0  0  0  0  0  0  0  0  0  0  0  0
   38.8640   33.1610   40.8730 C   0  0  0  0  0  0  0  0  0  0  0  0
   39.3750   32.0100   41.3890 N   0  0  0  0  0  0  0  0  0  0  0  0
   38.8030   30.7960   41.1120 C   0  0  0  0  0  0  0  0  0  0  0  0
   37.7200   30.7470   40.3140 N   0  0  0  0  0  0  0  0  0  0  0  0
   36.3160   31.8550   39.1420 H   0  0  0  0  0  0  0  0  0  0  0  0
   37.3440   34.0300   39.6430 H   0  0  0  0  0  0  0  0  0  0  0  0
   39.3680   34.0810   41.1360 H   0  0  0  0  0  0  0  0  0  0  0  0
  1  2  1  0  0  0  0
  2  7  2  0  0  0  0
  2  3  1  0  0  0  0
  3  4  2  0  0  0  0
  4  5  1  0  0  0  0
  4  8  1  0  0  0  0
  5  9  1  0  0  0  0
  6 10  1  0  0  0  0
  6  5  2  0  0  0  0
  7  6  1  0  0  0  0
 11 18  1  0  0  0  0
 12 11  1  0  0  0  0
 12  7  1  0  0  0  0
 13 12  2  0  0  0  0
 14 13  1  0  0  0  0
 15 16  2  0  0  0  0
 15 13  1  0  0  0  0
 16 17  1  0  0  0  0
 17 20  1  0  0  0  0
 17 11  2  0  0  0  0
 18 19  1  0  0  0  0
 21 20  1  0  0  0  0
 22  3  1  0  0  0  0
 22 23  1  0  0  0  0
 24 22  1  0  0  0  0
 25 26  2  0  0  0  0
 25 30  1  0  0  0  0
 26 27  1  0  0  0  0
 27 33  1  0  0  0  0
 27 28  2  0  0  0  0
 29 28  1  0  0  0  0
 29 22  1  0  0  0  0
 30 29  2  0  0  0  0
 31 25  1  0  0  0  0
 32 26  1  0  0  0  0
M  END
>  <minimizedAffinity>
-6.03217554

$$$$

 OpenBabel03252502543D

 33 35  0  0  0  0  0  0  0  0999 V2000
   37.7210   28.9100   38.7910 Br  0  0  0  0  0  0  0  0  0  0  0  0
   37.5500   28.5860   40.6910 C   0  0  0  0  0  0  0  0  0  0  0  0
   36.9930   27.3900   41.0530 C   0  0  0  0  0  0  0  0  0  0  0  0
   36.8940   27.2090   42.4290 C   0  0  0  0  0  0  0  0  0  0  0  0
   37.3080   28.1260   43.3610 C   0  0  0  0  0  0  0  0  0  0  0  0
   37.8540   29.2950   42.9180 C   0  0  0  0  0  0  0  0  0  0  0  0
   37.9910   29.5580   41.5720 C   0  0  0  0  0  0  0  0  0  0  0  0
   36.4630   26.2860   42.8290 H   0  0  0  0  0  0  0  0  0  0  0  0
   37.2140   27.9460   44.4250 H   0  0  0  0  0  0  0  0  0  0  0  0
   38.2010   30.0610   43.5830 H   0  0  0  0  0  0  0  0  0  0  0  0
   37.6080   31.7390   40.7300 C   0  0  0  0  0  0  0  0  0  0  0  0
   38.5770   30.8120   41.0590 C   0  0  0  0  0  0  0  0  0  0  0  0
   39.9110   31.1200   40.8910 C   0  0  0  0  0  0  0  0  0  0  0  0
   40.5790   30.3270   41.1790 H   0  0  0  0  0  0  0  0  0  0  0  0
   40.2370   32.3640   40.3920 C   0  0  0  0  0  3  0  0  0  0  0  0
   39.2720   33.2930   40.0610 C   0  0  0  0  0  3  0  0  0  0  0  0
   37.9240   32.9700   40.2360 C   0  0  0  0  0  0  0  0  0  0  0  0
   36.2240   31.5330   40.8590 O   0  0  0  0  0  0  0  0  0  0  0  0
   35.8460   30.5950   40.9680 H   0  0  0  0  0  0  0  0  0  0  0  0
   37.0440   33.9810   39.8690 O   0  0  0  0  0  0  0  0  0  0  0  0
   36.6550   33.9060   38.9180 H   0  0  0  0  0  0  0  0  0  0  0  0
   36.5130   26.3330   40.1590 C   0  0  0  0  0  0  0  0  0  0  0  0
   35.4990   26.0210   40.4810 H   0  0  0  0  0  0  0  0  0  0  0  0
   36.4000   26.7640   39.1350 H   0  0  0  0  0  0  0  0  0  0  0  0
   39.4270   24.0570   39.7020 C   0  0  0  0  0  0  0  0  0  0  0  0
   38.8930   22.8290   40.1130 C   0  0  0  0  0  0  0  0  0  0  0  0
   37.5670   22.8040   40.5310 C   0  0  0  0  0  0  0  0  0  0  0  0
   36.8400   23.9540   40.5290 N   0  0  0  0  0  0  0  0  0  0  0  0
   37.3940   25.1390   40.1220 C   0  0  0  0  0  0  0  0  0  0  0  0
   38.6780   25.1600   39.7170 N   0  0  0  0  0  0  0  0  0  0  0  0
   40.4620   24.0280   39.3850 H   0  0  0  0  0  0  0  0  0  0  0  0
   39.4650   21.9050   40.1180 H   0  0  0  0  0  0  0  0  0  0  0  0
   37.0630   21.9070   40.8670 H   0  0  0  0  0  0  0  0  0  0  0  0
  1  2  1  0  0  0  0
  2  3  2  0  0  0  0
  2  7  1  0  0  0  0
  3  4  1  0  0  0  0
  4  8  1  0  0  0  0
  4  5  2  0  0  0  0
  5  9  1  0  0  0  0
  6  5  1  0  0  0  0
  6 10  1  0  0  0  0
  7  6  2  0  0  0  0
 11 18  1  0  0  0  0
 11 12  1  0  0  0  0
 12  7  1  0  0  0  0
 13 12  2  0  0  0  0
 13 14  1  0  0  0  0
 15 13  1  0  0  0  0
 16 17  1  0  0  0  0
 16 15  2  0  0  0  0
 17 11  2  0  0  0  0
 18 19  1  0  0  0  0
 20 17  1  0  0  0  0
 21 20  1  0  0  0  0
 22 23  1  0  0  0  0
 22  3  1  0  0  0  0
 24 22  1  0  0  0  0
 25 30  2  0  0  0  0
 25 26  1  0  0  0  0
 26 32  1  0  0  0  0
 26 27  2  0  0  0  0
 27 33  1  0  0  0  0
 28 27  1  0  0  0  0
 29 22  1  0  0  0  0
 29 28  2  0  0  0  0
 30 29  1  0  0  0  0
 31 25  1  0  0  0  0
M  END
>  <minimizedAffinity>
-5.85751963

$$$$

 OpenBabel03252502543D

 33 35  0  0  0  0  0  0  0  0999 V2000
   39.8340   27.7610   39.9070 Br  0  0  0  0  0  0  0  0  0  0  0  0
   38.5720   27.6870   41.3710 C   0  0  0  0  0  0  0  0  0  0  0  0
   37.2480   27.7630   41.0340 C   0  0  0  0  0  0  0  0  0  0  0  0
   36.3850   27.7060   42.1230 C   0  0  0  0  0  0  0  0  0  0  0  0
   36.7930   27.5840   43.4270 C   0  0  0  0  0  0  0  0  0  0  0  0
   38.1320   27.5130   43.6800 C   0  0  0  0  0  0  0  0  0  0  0  0
   39.0580   27.5630   42.6600 C   0  0  0  0  0  0  0  0  0  0  0  0
   35.3030   27.7580   41.9660 H   0  0  0  0  0  0  0  0  0  0  0  0
   36.0880   27.5420   44.2480 H   0  0  0  0  0  0  0  0  0  0  0  0
   38.5300   27.4180   44.6710 H   0  0  0  0  0  0  0  0  0  0  0  0
   40.9510   26.1860   43.0290 C   0  0  0  0  0  0  0  0  0  0  0  0
   40.5130   27.4900   42.9000 C   0  0  0  0  0  0  0  0  0  0  0  0
   41.4110   28.5320   42.9980 C   0  0  0  0  0  0  0  0  0  0  0  0
   40.9630   29.5040   42.8820 H   0  0  0  0  0  0  0  0  0  0  0  0
   42.7380   28.2320   43.2270 C   0  0  0  0  0  3  0  0  0  0  0  0
   43.1800   26.9320   43.3570 C   0  0  0  0  0  3  0  0  0  0  0  0
   42.2610   25.8840   43.2550 C   0  0  0  0  0  0  0  0  0  0  0  0
   40.1280   25.0510   42.9470 O   0  0  0  0  0  0  0  0  0  0  0  0
   39.1170   25.1340   43.0360 H   0  0  0  0  0  0  0  0  0  0  0  0
   42.8200   24.6210   43.4030 O   0  0  0  0  0  0  0  0  0  0  0  0
   42.7590   24.2170   44.3500 H   0  0  0  0  0  0  0  0  0  0  0  0
   36.6870   27.8950   39.6860 C   0  0  0  0  0  0  0  0  0  0  0  0
   37.1310   27.1170   39.0330 H   0  0  0  0  0  0  0  0  0  0  0  0
   35.5930   27.6760   39.7390 H   0  0  0  0  0  0  0  0  0  0  0  0
   37.3870   30.6410   37.2680 C   0  0  0  0  0  0  0  0  0  0  0  0
   37.3240   31.7700   38.0960 C   0  0  0  0  0  0  0  0  0  0  0  0
   37.0470   31.5720   39.4440 C   0  0  0  0  0  0  0  0  0  0  0  0
   36.8490   30.3090   39.9110 N   0  0  0  0  0  0  0  0  0  0  0  0
   36.9180   29.2270   39.0730 C   0  0  0  0  0  0  0  0  0  0  0  0
   37.1860   29.4220   37.7680 N   0  0  0  0  0  0  0  0  0  0  0  0
   37.6050   30.8440   36.2270 H   0  0  0  0  0  0  0  0  0  0  0  0
   37.4800   32.7820   37.7330 H   0  0  0  0  0  0  0  0  0  0  0  0
   36.9760   32.3760   40.1640 H   0  0  0  0  0  0  0  0  0  0  0  0
  1  2  1  0  0  0  0
  2  7  1  0  0  0  0
  3  2  2  0  0  0  0
  3  4  1  0  0  0  0
  4  5  2  0  0  0  0
  5  6  1  0  0  0  0
  5  9  1  0  0  0  0
  6 10  1  0  0  0  0
  7 12  1  0  0  0  0
  7  6  2  0  0  0  0
  8  4  1  0  0  0  0
 11 17  1  0  0  0  0
 12 13  1  0  0  0  0
 12 11  2  0  0  0  0
 13 15  2  0  0  0  0
 14 13  1  0  0  0  0
 15 16  1  0  0  0  0
 17 16  2  0  0  0  0
 17 20  1  0  0  0  0
 18 11  1  0  0  0  0
 18 19  1  0  0  0  0
 20 21  1  0  0  0  0
 22 24  1  0  0  0  0
 22  3  1  0  0  0  0
 23 22  1  0  0  0  0
 25 30  2  0  0  0  0
 25 26  1  0  0  0  0
 26 27  2  0  0  0  0
 27 28  1  0  0  0  0
 27 33  1  0  0  0  0
 29 22  1  0  0  0  0
 29 28  2  0  0  0  0
 30 29  1  0  0  0  0
 31 25  1  0  0  0  0
 32 26  1  0  0  0  0
M  END
>  <minimizedAffinity>
-5.79335165

$$$$

 OpenBabel03252502543D

 33 35  0  0  0  0  0  0  0  0999 V2000
   39.3200   30.1690   42.5660 Br  0  0  0  0  0  0  0  0  0  0  0  0
   37.7180   29.9100   41.5130 C   0  0  0  0  0  0  0  0  0  0  0  0
   36.9180   28.8610   41.8750 C   0  0  0  0  0  0  0  0  0  0  0  0
   35.7820   28.7200   41.0850 C   0  0  0  0  0  0  0  0  0  0  0  0
   35.4640   29.5420   40.0340 C   0  0  0  0  0  0  0  0  0  0  0  0
   36.3140   30.5670   39.7380 C   0  0  0  0  0  0  0  0  0  0  0  0
   37.4630   30.7810   40.4680 C   0  0  0  0  0  0  0  0  0  0  0  0
   35.0720   27.9110   41.2880 H   0  0  0  0  0  0  0  0  0  0  0  0
   34.5670   29.3980   39.4430 H   0  0  0  0  0  0  0  0  0  0  0  0
   36.1360   31.2520   38.9320 H   0  0  0  0  0  0  0  0  0  0  0  0
   39.3450   31.5160   39.2300 C   0  0  0  0  0  0  0  0  0  0  0  0
   38.4030   31.8790   40.1730 C   0  0  0  0  0  0  0  0  0  0  0  0
   38.4240   33.1470   40.7150 C   0  0  0  0  0  0  0  0  0  0  0  0
   37.6470   33.3240   41.4370 H   0  0  0  0  0  0  0  0  0  0  0  0
   39.4030   34.0240   40.2900 C   0  0  0  0  0  3  0  0  0  0  0  0
   40.3450   33.6650   39.3500 C   0  0  0  0  0  3  0  0  0  0  0  0
   40.3140   32.3770   38.8070 C   0  0  0  0  0  0  0  0  0  0  0  0
   39.4190   30.2560   38.6150 O   0  0  0  0  0  0  0  0  0  0  0  0
   38.9330   29.4530   39.0110 H   0  0  0  0  0  0  0  0  0  0  0  0
   41.3110   32.1290   37.8720 O   0  0  0  0  0  0  0  0  0  0  0  0
   42.1530   31.6580   38.2360 H   0  0  0  0  0  0  0  0  0  0  0  0
   37.1460   27.9150   42.9710 C   0  0  0  0  0  0  0  0  0  0  0  0
   37.8710   28.3570   43.6840 H   0  0  0  0  0  0  0  0  0  0  0  0
   36.1880   27.7900   43.5320 H   0  0  0  0  0  0  0  0  0  0  0  0
   37.3940   24.3440   41.9390 C   0  0  0  0  0  0  0  0  0  0  0  0
   38.7670   24.2180   41.6860 C   0  0  0  0  0  0  0  0  0  0  0  0
   39.5670   25.3400   41.8710 C   0  0  0  0  0  0  0  0  0  0  0  0
   39.0030   26.5070   42.2850 N   0  0  0  0  0  0  0  0  0  0  0  0
   37.6570   26.5950   42.5230 C   0  0  0  0  0  0  0  0  0  0  0  0
   36.8840   25.5070   42.3430 N   0  0  0  0  0  0  0  0  0  0  0  0
   36.8110   23.4450   41.7810 H   0  0  0  0  0  0  0  0  0  0  0  0
   39.2260   23.2910   41.3550 H   0  0  0  0  0  0  0  0  0  0  0  0
   40.6360   25.3450   41.7020 H   0  0  0  0  0  0  0  0  0  0  0  0
  2  3  1  0  0  0  0
  2  1  1  0  0  0  0
  3 22  1  0  0  0  0
  4  8  1  0  0  0  0
  4  3  2  0  0  0  0
  5  4  1  0  0  0  0
  6  5  2  0  0  0  0
  6  7  1  0  0  0  0
  7  2  2  0  0  0  0
  9  5  1  0  0  0  0
 10  6  1  0  0  0  0
 11 12  1  0  0  0  0
 12  7  1  0  0  0  0
 12 13  2  0  0  0  0
 13 14  1  0  0  0  0
 15 13  1  0  0  0  0
 16 15  2  0  0  0  0
 17 11  2  0  0  0  0
 17 16  1  0  0  0  0
 18 19  1  0  0  0  0
 18 11  1  0  0  0  0
 20 21  1  0  0  0  0
 20 17  1  0  0  0  0
 22 24  1  0  0  0  0
 22 23  1  0  0  0  0
 25 30  1  0  0  0  0
 26 27  1  0  0  0  0
 26 25  2  0  0  0  0
 27 28  2  0  0  0  0
 28 29  1  0  0  0  0
 29 22  1  0  0  0  0
 30 29  2  0  0  0  0
 31 25  1  0  0  0  0
 32 26  1  0  0  0  0
 33 27  1  0  0  0  0
M  END
>  <minimizedAffinity>
-5.75992441

$$$$

 OpenBabel03252502543D

 33 35  0  0  0  0  0  0  0  0999 V2000
   39.9880   28.3790   39.9900 Br  0  0  0  0  0  0  0  0  0  0  0  0
   38.1080   28.6440   40.3650 C   0  0  0  0  0  0  0  0  0  0  0  0
   37.4740   29.6070   39.6280 C   0  0  0  0  0  0  0  0  0  0  0  0
   36.1260   29.7570   39.9380 C   0  0  0  0  0  0  0  0  0  0  0  0
   35.4650   29.0220   40.8880 C   0  0  0  0  0  0  0  0  0  0  0  0
   36.1700   28.0800   41.5800 C   0  0  0  0  0  0  0  0  0  0  0  0
   37.5090   27.8640   41.3380 C   0  0  0  0  0  0  0  0  0  0  0  0
   35.5230   30.5000   39.4070 H   0  0  0  0  0  0  0  0  0  0  0  0
   34.4130   29.1690   41.0990 H   0  0  0  0  0  0  0  0  0  0  0  0
   35.7260   27.4650   42.3380 H   0  0  0  0  0  0  0  0  0  0  0  0
   38.1290   25.5870   41.5460 C   0  0  0  0  0  0  0  0  0  0  0  0
   38.3000   26.8550   42.0680 C   0  0  0  0  0  0  0  0  0  0  0  0
   39.1360   27.0490   43.1480 C   0  0  0  0  0  0  0  0  0  0  0  0
   39.1960   28.0730   43.4730 H   0  0  0  0  0  0  0  0  0  0  0  0
   39.7830   25.9520   43.6800 C   0  0  0  0  0  3  0  0  0  0  0  0
   39.6150   24.6840   43.1630 C   0  0  0  0  0  3  0  0  0  0  0  0
   38.7660   24.5000   42.0670 C   0  0  0  0  0  0  0  0  0  0  0  0
   37.3050   25.2740   40.4530 O   0  0  0  0  0  0  0  0  0  0  0  0
   36.5910   25.9270   40.1370 H   0  0  0  0  0  0  0  0  0  0  0  0
   38.6740   23.1830   41.6340 O   0  0  0  0  0  0  0  0  0  0  0  0
   37.8700   22.6520   41.9980 H   0  0  0  0  0  0  0  0  0  0  0  0
   38.0650   30.4560   38.5890 C   0  0  0  0  0  0  0  0  0  0  0  0
   38.9200   29.9200   38.1290 H   0  0  0  0  0  0  0  0  0  0  0  0
   37.3090   30.5980   37.7800 H   0  0  0  0  0  0  0  0  0  0  0  0
   38.1970   33.9000   40.0040 C   0  0  0  0  0  0  0  0  0  0  0  0
   39.5740   34.1600   39.9860 C   0  0  0  0  0  0  0  0  0  0  0  0
   40.4170   33.1670   39.4970 C   0  0  0  0  0  0  0  0  0  0  0  0
   39.8870   31.9930   39.0590 N   0  0  0  0  0  0  0  0  0  0  0  0
   38.5360   31.7710   39.0920 C   0  0  0  0  0  0  0  0  0  0  0  0
   37.7230   32.7340   39.5650 N   0  0  0  0  0  0  0  0  0  0  0  0
   37.5810   34.7010   40.3930 H   0  0  0  0  0  0  0  0  0  0  0  0
   40.0060   35.0940   40.3340 H   0  0  0  0  0  0  0  0  0  0  0  0
   41.4920   33.2710   39.4420 H   0  0  0  0  0  0  0  0  0  0  0  0
  1  2  1  0  0  0  0
  2  7  1  0  0  0  0
  3  4  1  0  0  0  0
  3  2  2  0  0  0  0
  4  5  2  0  0  0  0
  5  9  1  0  0  0  0
  5  6  1  0  0  0  0
  6 10  1  0  0  0  0
  7  6  2  0  0  0  0
  7 12  1  0  0  0  0
  8  4  1  0  0  0  0
 11 17  2  0  0  0  0
 11 12  1  0  0  0  0
 12 13  2  0  0  0  0
 13 14  1  0  0  0  0
 13 15  1  0  0  0  0
 16 15  2  0  0  0  0
 17 16  1  0  0  0  0
 18 11  1  0  0  0  0
 19 18  1  0  0  0  0
 20 21  1  0  0  0  0
 20 17  1  0  0  0  0
 22 29  1  0  0  0  0
 22  3  1  0  0  0  0
 23 22  1  0  0  0  0
 24 22  1  0  0  0  0
 25 31  1  0  0  0  0
 26 25  1  0  0  0  0
 26 32  1  0  0  0  0
 27 26  2  0  0  0  0
 28 29  2  0  0  0  0
 28 27  1  0  0  0  0
 29 30  1  0  0  0  0
 30 25  2  0  0  0  0
 33 27  1  0  0  0  0
M  END
>  <minimizedAffinity>
-5.71939087

$$$$

 OpenBabel03252502543D

 33 35  0  0  0  0  0  0  0  0999 V2000
   39.1510   27.9630   39.7100 Br  0  0  0  0  0  0  0  0  0  0  0  0
   38.0780   27.7190   41.3010 C   0  0  0  0  0  0  0  0  0  0  0  0
   37.6660   26.4410   41.5620 C   0  0  0  0  0  0  0  0  0  0  0  0
   36.8980   26.3220   42.7170 C   0  0  0  0  0  0  0  0  0  0  0  0
   36.5690   27.3700   43.5370 C   0  0  0  0  0  0  0  0  0  0  0  0
   37.0200   28.6150   43.2060 C   0  0  0  0  0  0  0  0  0  0  0  0
   37.7870   28.8240   42.0810 C   0  0  0  0  0  0  0  0  0  0  0  0
   36.5160   25.3420   43.0200 H   0  0  0  0  0  0  0  0  0  0  0  0
   35.9680   27.2350   44.4290 H   0  0  0  0  0  0  0  0  0  0  0  0
   36.8050   29.4840   43.7960 H   0  0  0  0  0  0  0  0  0  0  0  0
   37.3200   30.9150   41.0700 C   0  0  0  0  0  0  0  0  0  0  0  0
   38.2900   30.1560   41.6940 C   0  0  0  0  0  0  0  0  0  0  0  0
   39.5530   30.6760   41.8880 C   0  0  0  0  0  0  0  0  0  0  0  0
   40.2300   30.0010   42.3830 H   0  0  0  0  0  0  0  0  0  0  0  0
   39.8080   31.9570   41.4430 C   0  0  0  0  0  3  0  0  0  0  0  0
   38.8430   32.7180   40.8180 C   0  0  0  0  0  3  0  0  0  0  0  0
   37.5660   32.1810   40.6280 C   0  0  0  0  0  0  0  0  0  0  0  0
   36.0050   30.4890   40.8210 O   0  0  0  0  0  0  0  0  0  0  0  0
   35.7620   29.5010   40.8630 H   0  0  0  0  0  0  0  0  0  0  0  0
   36.6780   33.0380   39.9890 O   0  0  0  0  0  0  0  0  0  0  0  0
   36.5870   32.9020   38.9710 H   0  0  0  0  0  0  0  0  0  0  0  0
   37.9490   25.2420   40.7680 C   0  0  0  0  0  0  0  0  0  0  0  0
   38.8500   25.4240   40.1480 H   0  0  0  0  0  0  0  0  0  0  0  0
   38.2090   24.4110   41.4680 H   0  0  0  0  0  0  0  0  0  0  0  0
   35.4270   25.1200   38.0290 C   0  0  0  0  0  0  0  0  0  0  0  0
   34.7260   23.9480   38.3420 C   0  0  0  0  0  0  0  0  0  0  0  0
   35.1240   23.2340   39.4670 C   0  0  0  0  0  0  0  0  0  0  0  0
   36.1650   23.6870   40.2170 N   0  0  0  0  0  0  0  0  0  0  0  0
   36.8290   24.8370   39.8810 C   0  0  0  0  0  0  0  0  0  0  0  0
   36.4410   25.5270   38.7920 N   0  0  0  0  0  0  0  0  0  0  0  0
   35.0820   25.6420   37.1450 H   0  0  0  0  0  0  0  0  0  0  0  0
   33.8940   23.5780   37.7500 H   0  0  0  0  0  0  0  0  0  0  0  0
   34.6480   22.3180   39.7930 H   0  0  0  0  0  0  0  0  0  0  0  0
  1  2  1  0  0  0  0
  2  3  2  0  0  0  0
  2  7  1  0  0  0  0
  3  4  1  0  0  0  0
  4  8  1  0  0  0  0
  4  5  2  0  0  0  0
  5  9  1  0  0  0  0
  6  5  1  0  0  0  0
  6 10  1  0  0  0  0
  7  6  2  0  0  0  0
 11 12  1  0  0  0  0
 12 13  2  0  0  0  0
 12  7  1  0  0  0  0
 13 14  1  0  0  0  0
 15 13  1  0  0  0  0
 16 15  2  0  0  0  0
 17 16  1  0  0  0  0
 17 11  2  0  0  0  0
 18 19  1  0  0  0  0
 18 11  1  0  0  0  0
 20 17  1  0  0  0  0
 21 20  1  0  0  0  0
 22 24  1  0  0  0  0
 22  3  1  0  0  0  0
 23 22  1  0  0  0  0
 25 26  2  0  0  0  0
 25 30  1  0  0  0  0
 26 27  1  0  0  0  0
 27 33  1  0  0  0  0
 27 28  2  0  0  0  0
 29 28  1  0  0  0  0
 29 22  1  0  0  0  0
 30 29  2  0  0  0  0
 31 25  1  0  0  0  0
 32 26  1  0  0  0  0
M  END
>  <minimizedAffinity>
-5.70804167

$$$$

 OpenBabel03252502543D

 33 35  0  0  0  0  0  0  0  0999 V2000
   39.6800   27.1810   40.2550 Br  0  0  0  0  0  0  0  0  0  0  0  0
   38.3910   27.4210   41.6770 C   0  0  0  0  0  0  0  0  0  0  0  0
   38.4270   28.6230   42.3310 C   0  0  0  0  0  0  0  0  0  0  0  0
   37.4810   28.7430   43.3430 C   0  0  0  0  0  0  0  0  0  0  0  0
   36.5800   27.7650   43.6790 C   0  0  0  0  0  0  0  0  0  0  0  0
   36.6080   26.5940   42.9780 C   0  0  0  0  0  0  0  0  0  0  0  0
   37.5130   26.3900   41.9590 C   0  0  0  0  0  0  0  0  0  0  0  0
   37.4230   29.6650   43.9310 H   0  0  0  0  0  0  0  0  0  0  0  0
   35.8580   27.8980   44.4750 H   0  0  0  0  0  0  0  0  0  0  0  0
   35.9380   25.7820   43.1810 H   0  0  0  0  0  0  0  0  0  0  0  0
   36.8810   25.2350   39.9890 C   0  0  0  0  0  0  0  0  0  0  0  0
   37.5700   25.1360   41.1820 C   0  0  0  0  0  0  0  0  0  0  0  0
   38.2050   23.9580   41.5170 C   0  0  0  0  0  0  0  0  0  0  0  0
   38.7100   23.9910   42.4660 H   0  0  0  0  0  0  0  0  0  0  0  0
   38.1280   22.9010   40.6330 C   0  0  0  0  0  3  0  0  0  0  0  0
   37.4410   22.9940   39.4410 C   0  0  0  0  0  3  0  0  0  0  0  0
   36.8020   24.1940   39.1120 C   0  0  0  0  0  0  0  0  0  0  0  0
   36.2000   26.3810   39.5490 O   0  0  0  0  0  0  0  0  0  0  0  0
   35.9640   27.1280   40.1990 H   0  0  0  0  0  0  0  0  0  0  0  0
   36.1430   24.1700   37.8900 O   0  0  0  0  0  0  0  0  0  0  0  0
   35.1340   23.9640   37.9350 H   0  0  0  0  0  0  0  0  0  0  0  0
   39.3370   29.7430   42.0690 C   0  0  0  0  0  0  0  0  0  0  0  0
   39.7170   30.1320   43.0350 H   0  0  0  0  0  0  0  0  0  0  0  0
   40.2240   29.3520   41.5150 H   0  0  0  0  0  0  0  0  0  0  0  0
   37.0980   31.7530   39.8720 C   0  0  0  0  0  0  0  0  0  0  0  0
   37.6650   33.0300   39.9840 C   0  0  0  0  0  0  0  0  0  0  0  0
   38.7840   33.1750   40.7960 C   0  0  0  0  0  0  0  0  0  0  0  0
   39.2870   32.0910   41.4470 N   0  0  0  0  0  0  0  0  0  0  0  0
   38.7070   30.8560   41.3160 C   0  0  0  0  0  0  0  0  0  0  0  0
   37.6240   30.7190   40.5280 N   0  0  0  0  0  0  0  0  0  0  0  0
   36.2290   31.6880   39.2290 H   0  0  0  0  0  0  0  0  0  0  0  0
   37.2700   33.9010   39.4690 H   0  0  0  0  0  0  0  0  0  0  0  0
   39.2930   34.1180   40.9490 H   0  0  0  0  0  0  0  0  0  0  0  0
  1  2  1  0  0  0  0
  2  7  2  0  0  0  0
  2  3  1  0  0  0  0
  3  4  2  0  0  0  0
  4  5  1  0  0  0  0
  4  8  1  0  0  0  0
  5  9  1  0  0  0  0
  6 10  1  0  0  0  0
  6  5  2  0  0  0  0
  7  6  1  0  0  0  0
 11 12  1  0  0  0  0
 12 13  2  0  0  0  0
 12  7  1  0  0  0  0
 13 14  1  0  0  0  0
 15 13  1  0  0  0  0
 16 15  2  0  0  0  0
 17 16  1  0  0  0  0
 17 11  2  0  0  0  0
 18 11  1  0  0  0  0
 18 19  1  0  0  0  0
 20 21  1  0  0  0  0
 20 17  1  0  0  0  0
 22  3  1  0  0  0  0
 22 23  1  0  0  0  0
 24 22  1  0  0  0  0
 25 26  2  0  0  0  0
 25 30  1  0  0  0  0
 26 27  1  0  0  0  0
 27 33  1  0  0  0  0
 27 28  2  0  0  0  0
 29 28  1  0  0  0  0
 29 22  1  0  0  0  0
 30 29  2  0  0  0  0
 31 25  1  0  0  0  0
 32 26  1  0  0  0  0
M  END
>  <minimizedAffinity>
-5.69995546

$$$$

 OpenBabel03252502543D

 33 35  0  0  0  0  0  0  0  0999 V2000
   39.7070   28.7970   39.4450 Br  0  0  0  0  0  0  0  0  0  0  0  0
   38.9130   28.5040   41.1840 C   0  0  0  0  0  0  0  0  0  0  0  0
   39.1400   27.2820   41.7560 C   0  0  0  0  0  0  0  0  0  0  0  0
   38.5470   27.1250   43.0040 C   0  0  0  0  0  0  0  0  0  0  0  0
   37.7970   28.0880   43.6300 C   0  0  0  0  0  0  0  0  0  0  0  0
   37.6180   29.2810   42.9940 C   0  0  0  0  0  0  0  0  0  0  0  0
   38.1700   29.5230   41.7540 C   0  0  0  0  0  0  0  0  0  0  0  0
   38.6650   26.1840   43.5510 H   0  0  0  0  0  0  0  0  0  0  0  0
   37.3520   27.9260   44.6050 H   0  0  0  0  0  0  0  0  0  0  0  0
   37.0460   30.0830   43.4170 H   0  0  0  0  0  0  0  0  0  0  0  0
   38.9270   31.7440   41.4260 C   0  0  0  0  0  0  0  0  0  0  0  0
   37.9950   30.8010   41.0380 C   0  0  0  0  0  0  0  0  0  0  0  0
   37.0500   31.1180   40.0840 C   0  0  0  0  0  0  0  0  0  0  0  0
   36.3750   30.3120   39.8570 H   0  0  0  0  0  0  0  0  0  0  0  0
   37.0700   32.3860   39.5400 C   0  0  0  0  0  3  0  0  0  0  0  0
   37.9980   33.3310   39.9250 C   0  0  0  0  0  3  0  0  0  0  0  0
   38.9510   32.9980   40.8930 C   0  0  0  0  0  0  0  0  0  0  0  0
   39.9300   31.5320   42.3860 O   0  0  0  0  0  0  0  0  0  0  0  0
   39.8720   30.7500   43.0350 H   0  0  0  0  0  0  0  0  0  0  0  0
   39.8320   34.0270   41.2000 O   0  0  0  0  0  0  0  0  0  0  0  0
   39.5860   34.5880   42.0290 H   0  0  0  0  0  0  0  0  0  0  0  0
   39.9180   26.1750   41.1920 C   0  0  0  0  0  0  0  0  0  0  0  0
   40.5690   26.5660   40.3850 H   0  0  0  0  0  0  0  0  0  0  0  0
   40.6000   25.7850   41.9870 H   0  0  0  0  0  0  0  0  0  0  0  0
   38.0710   22.9690   40.7580 C   0  0  0  0  0  0  0  0  0  0  0  0
   37.5070   23.1390   39.4860 C   0  0  0  0  0  0  0  0  0  0  0  0
   37.7660   24.3280   38.8130 C   0  0  0  0  0  0  0  0  0  0  0  0
   38.5460   25.2750   39.4010 N   0  0  0  0  0  0  0  0  0  0  0  0
   39.0820   25.0770   40.6460 C   0  0  0  0  0  0  0  0  0  0  0  0
   38.8300   23.9250   41.2940 N   0  0  0  0  0  0  0  0  0  0  0  0
   37.8420   22.0290   41.2430 H   0  0  0  0  0  0  0  0  0  0  0  0
   36.8820   22.3880   39.0090 H   0  0  0  0  0  0  0  0  0  0  0  0
   37.3770   24.5540   37.8290 H   0  0  0  0  0  0  0  0  0  0  0  0
  1  2  1  0  0  0  0
  2  7  2  0  0  0  0
  2  3  1  0  0  0  0
  3  4  2  0  0  0  0
  4  8  1  0  0  0  0
  4  5  1  0  0  0  0
  5  9  1  0  0  0  0
  6 10  1  0  0  0  0
  6  5  2  0  0  0  0
  7  6  1  0  0  0  0
 11 18  1  0  0  0  0
 12 11  1  0  0  0  0
 12  7  1  0  0  0  0
 13 12  2  0  0  0  0
 14 13  1  0  0  0  0
 15 16  2  0  0  0  0
 15 13  1  0  0  0  0
 16 17  1  0  0  0  0
 17 20  1  0  0  0  0
 17 11  2  0  0  0  0
 18 19  1  0  0  0  0
 20 21  1  0  0  0  0
 22  3  1  0  0  0  0
 22 24  1  0  0  0  0
 23 22  1  0  0  0  0
 25 31  1  0  0  0  0
 25 30  1  0  0  0  0
 26 25  2  0  0  0  0
 27 28  2  0  0  0  0
 27 26  1  0  0  0  0
 28 29  1  0  0  0  0
 29 22  1  0  0  0  0
 29 30  2  0  0  0  0
 32 26  1  0  0  0  0
 33 27  1  0  0  0  0
M  END
>  <minimizedAffinity>
-5.57820988

$$$$
