
 OpenBabel03252503003D

 24 25  0  0  0  0  0  0  0  0999 V2000
   35.5300   28.7710   39.9720 C   0  0  0  0  0  0  0  0  0  0  0  0
   34.6460   28.5500   39.3240 H   0  0  0  0  0  0  0  0  0  0  0  0
   35.2250   29.0750   40.9870 H   0  0  0  0  0  0  0  0  0  0  0  0
   36.3500   31.0930   40.1150 C   0  0  0  0  0  0  0  0  0  0  0  0
   36.2360   29.9410   39.3680 C   0  0  0  0  0  0  0  0  0  0  0  0
   36.7820   29.9260   38.0850 C   0  0  0  0  0  0  0  0  0  0  0  0
   36.6700   28.9980   37.5300 H   0  0  0  0  0  0  0  0  0  0  0  0
   37.4140   31.0370   37.5960 C   0  0  0  0  0  3  0  0  0  0  0  0
   37.5390   32.2050   38.3320 C   0  0  0  0  0  3  0  0  0  0  0  0
   36.9870   32.2100   39.6190 C   0  0  0  0  0  0  0  0  0  0  0  0
   35.8180   31.1520   41.4030 O   0  0  0  0  0  0  0  0  0  0  0  0
   36.0230   30.4500   42.1040 H   0  0  0  0  0  0  0  0  0  0  0  0
   37.1380   33.4060   40.3220 O   0  0  0  0  0  0  0  0  0  0  0  0
   37.9860   33.4360   40.9080 H   0  0  0  0  0  0  0  0  0  0  0  0
   36.5580   27.2880   39.9150 S   0  0  0  0  0  0  0  0  0  0  0  0
   37.2850   28.0570   42.4770 C   0  0  0  0  0  0  0  0  0  0  0  0
   37.5290   27.1640   41.4170 C   0  0  0  0  0  0  0  0  0  0  0  0
   38.5040   26.1920   41.5100 C   0  0  0  0  0  0  0  0  0  0  0  0
   39.2090   26.1500   42.6810 N   0  0  0  0  0  0  0  0  0  0  0  0
   38.9530   27.0210   43.6800 C   0  0  0  0  0  0  0  0  0  0  0  0
   38.0230   27.9650   43.6170 N   0  0  0  0  0  0  0  0  0  0  0  0
   36.5050   28.8120   42.3660 H   0  0  0  0  0  0  0  0  0  0  0  0
   38.7320   25.4890   40.7380 H   0  0  0  0  0  0  0  0  0  0  0  0
   39.6220   26.8260   44.5320 H   0  0  0  0  0  0  0  0  0  0  0  0
  1  3  1  0  0  0  0
  2  1  1  0  0  0  0
  4 11  1  0  0  0  0
  5  1  1  0  0  0  0
  5  4  2  0  0  0  0
  6  5  1  0  0  0  0
  7  6  1  0  0  0  0
  8  6  2  0  0  0  0
  8  9  1  0  0  0  0
  9 10  2  0  0  0  0
 10  4  1  0  0  0  0
 10 13  1  0  0  0  0
 11 12  1  0  0  0  0
 13 14  1  0  0  0  0
 15  1  1  0  0  0  0
 15 17  1  0  0  0  0
 16 21  1  0  0  0  0
 17 18  1  0  0  0  0
 17 16  2  0  0  0  0
 18 19  2  0  0  0  0
 19 20  1  0  0  0  0
 20 24  1  0  0  0  0
 21 20  2  0  0  0  0
 22 16  1  0  0  0  0
 23 18  1  0  0  0  0
M  END
>  <minimizedAffinity>
-5.24383688

$$$$

 OpenBabel03252503003D

 24 25  0  0  0  0  0  0  0  0999 V2000
   36.4250   28.3600   41.3660 C   0  0  0  0  0  0  0  0  0  0  0  0
   36.6180   27.4490   40.7480 H   0  0  0  0  0  0  0  0  0  0  0  0
   35.3780   28.6960   41.2800 H   0  0  0  0  0  0  0  0  0  0  0  0
   36.7960   30.7480   40.8700 C   0  0  0  0  0  0  0  0  0  0  0  0
   37.2720   29.4570   40.8070 C   0  0  0  0  0  0  0  0  0  0  0  0
   38.5190   29.2380   40.2230 C   0  0  0  0  0  0  0  0  0  0  0  0
   38.8580   28.2050   40.1940 H   0  0  0  0  0  0  0  0  0  0  0  0
   39.2400   30.2920   39.7300 C   0  0  0  0  0  3  0  0  0  0  0  0
   38.7780   31.5980   39.7840 C   0  0  0  0  0  3  0  0  0  0  0  0
   37.5250   31.8070   40.3720 C   0  0  0  0  0  0  0  0  0  0  0  0
   35.5530   31.0130   41.4460 O   0  0  0  0  0  0  0  0  0  0  0  0
   35.3010   30.6730   42.3660 H   0  0  0  0  0  0  0  0  0  0  0  0
   37.1020   33.1370   40.4040 O   0  0  0  0  0  0  0  0  0  0  0  0
   37.3630   33.6320   41.2710 H   0  0  0  0  0  0  0  0  0  0  0  0
   36.9370   27.9310   43.0430 S   0  0  0  0  0  0  0  0  0  0  0  0
   37.7700   25.4020   42.2700 C   0  0  0  0  0  0  0  0  0  0  0  0
   38.0980   26.5650   42.9920 C   0  0  0  0  0  0  0  0  0  0  0  0
   39.2980   26.6760   43.6640 C   0  0  0  0  0  0  0  0  0  0  0  0
   40.1390   25.6000   43.5870 N   0  0  0  0  0  0  0  0  0  0  0  0
   39.7960   24.4980   42.8870 C   0  0  0  0  0  0  0  0  0  0  0  0
   38.6500   24.3640   42.2320 N   0  0  0  0  0  0  0  0  0  0  0  0
   36.8120   25.3520   41.7510 H   0  0  0  0  0  0  0  0  0  0  0  0
   39.5970   27.5340   44.2270 H   0  0  0  0  0  0  0  0  0  0  0  0
   40.6010   23.7480   42.9460 H   0  0  0  0  0  0  0  0  0  0  0  0
  1 15  1  0  0  0  0
  2  1  1  0  0  0  0
  3  1  1  0  0  0  0
  4 11  1  0  0  0  0
  5  4  1  0  0  0  0
  5  1  1  0  0  0  0
  6  5  2  0  0  0  0
  7  6  1  0  0  0  0
  8  9  2  0  0  0  0
  8  6  1  0  0  0  0
  9 10  1  0  0  0  0
 10 13  1  0  0  0  0
 10  4  2  0  0  0  0
 11 12  1  0  0  0  0
 13 14  1  0  0  0  0
 16 17  1  0  0  0  0
 17 15  1  0  0  0  0
 17 18  2  0  0  0  0
 18 23  1  0  0  0  0
 19 18  1  0  0  0  0
 20 24  1  0  0  0  0
 20 19  2  0  0  0  0
 21 16  2  0  0  0  0
 21 20  1  0  0  0  0
 22 16  1  0  0  0  0
M  END
>  <minimizedAffinity>
-5.11912346

$$$$

 OpenBabel03252503003D

 24 25  0  0  0  0  0  0  0  0999 V2000
   35.7440   28.5750   40.2620 C   0  0  0  0  0  0  0  0  0  0  0  0
   35.5520   27.7920   39.4870 H   0  0  0  0  0  0  0  0  0  0  0  0
   34.8050   28.9590   40.6930 H   0  0  0  0  0  0  0  0  0  0  0  0
   36.3560   30.9630   40.1740 C   0  0  0  0  0  0  0  0  0  0  0  0
   36.4000   29.7260   39.5700 C   0  0  0  0  0  0  0  0  0  0  0  0
   37.0520   29.6090   38.3430 C   0  0  0  0  0  0  0  0  0  0  0  0
   37.0640   28.6160   37.9010 H   0  0  0  0  0  0  0  0  0  0  0  0
   37.6300   30.7080   37.7670 C   0  0  0  0  0  3  0  0  0  0  0  0
   37.5960   31.9620   38.3600 C   0  0  0  0  0  3  0  0  0  0  0  0
   36.9390   32.0670   39.5910 C   0  0  0  0  0  0  0  0  0  0  0  0
   35.7140   31.1240   41.4020 O   0  0  0  0  0  0  0  0  0  0  0  0
   35.9150   30.5320   42.1990 H   0  0  0  0  0  0  0  0  0  0  0  0
   36.9310   33.3470   40.1490 O   0  0  0  0  0  0  0  0  0  0  0  0
   37.7210   33.5230   40.7880 H   0  0  0  0  0  0  0  0  0  0  0  0
   36.8590   27.8120   41.4590 S   0  0  0  0  0  0  0  0  0  0  0  0
   37.5270   25.1950   42.0840 C   0  0  0  0  0  0  0  0  0  0  0  0
   37.0460   26.0670   41.0900 C   0  0  0  0  0  0  0  0  0  0  0  0
   36.7130   25.6050   39.8330 C   0  0  0  0  0  0  0  0  0  0  0  0
   36.8790   24.2660   39.6150 N   0  0  0  0  0  0  0  0  0  0  0  0
   37.3440   23.4540   40.5880 C   0  0  0  0  0  0  0  0  0  0  0  0
   37.6710   23.8700   41.8050 N   0  0  0  0  0  0  0  0  0  0  0  0
   37.7790   25.5980   43.0660 H   0  0  0  0  0  0  0  0  0  0  0  0
   36.3440   26.2220   39.0410 H   0  0  0  0  0  0  0  0  0  0  0  0
   37.4050   22.4190   40.2200 H   0  0  0  0  0  0  0  0  0  0  0  0
  1  3  1  0  0  0  0
  1 15  1  0  0  0  0
  2  1  1  0  0  0  0
  4 11  1  0  0  0  0
  5  4  2  0  0  0  0
  5  1  1  0  0  0  0
  6  5  1  0  0  0  0
  7  6  1  0  0  0  0
  8  6  2  0  0  0  0
  8  9  1  0  0  0  0
  9 10  2  0  0  0  0
 10 13  1  0  0  0  0
 10  4  1  0  0  0  0
 11 12  1  0  0  0  0
 13 14  1  0  0  0  0
 16 22  1  0  0  0  0
 17 15  1  0  0  0  0
 17 16  2  0  0  0  0
 18 17  1  0  0  0  0
 19 18  2  0  0  0  0
 19 20  1  0  0  0  0
 20 21  2  0  0  0  0
 21 16  1  0  0  0  0
 23 18  1  0  0  0  0
 24 20  1  0  0  0  0
M  END
>  <minimizedAffinity>
-5.06912231

$$$$

 OpenBabel03252503003D

 24 25  0  0  0  0  0  0  0  0999 V2000
   35.9020   29.5860   38.9000 C   0  0  0  0  0  0  0  0  0  0  0  0
   35.3100   30.4120   39.3640 H   0  0  0  0  0  0  0  0  0  0  0  0
   35.2670   28.9220   38.2910 H   0  0  0  0  0  0  0  0  0  0  0  0
   36.4290   29.2790   41.2900 C   0  0  0  0  0  0  0  0  0  0  0  0
   36.4450   28.7540   40.0170 C   0  0  0  0  0  0  0  0  0  0  0  0
   36.9690   27.4760   39.8330 C   0  0  0  0  0  0  0  0  0  0  0  0
   36.9630   27.0990   38.8130 H   0  0  0  0  0  0  0  0  0  0  0  0
   37.4510   26.7720   40.9030 C   0  0  0  0  0  3  0  0  0  0  0  0
   37.4430   27.2830   42.1930 C   0  0  0  0  0  3  0  0  0  0  0  0
   36.9150   28.5680   42.3660 C   0  0  0  0  0  0  0  0  0  0  0  0
   35.9130   30.5550   41.5200 O   0  0  0  0  0  0  0  0  0  0  0  0
   34.9980   30.8350   41.1880 H   0  0  0  0  0  0  0  0  0  0  0  0
   36.9280   29.0390   43.6800 O   0  0  0  0  0  0  0  0  0  0  0  0
   36.0600   28.8350   44.1990 H   0  0  0  0  0  0  0  0  0  0  0  0
   37.2300   30.3950   37.9830 S   0  0  0  0  0  0  0  0  0  0  0  0
   37.2980   32.8970   39.1730 C   0  0  0  0  0  0  0  0  0  0  0  0
   37.9740   31.6760   38.9930 C   0  0  0  0  0  0  0  0  0  0  0  0
   39.2000   31.4440   39.5810 C   0  0  0  0  0  0  0  0  0  0  0  0
   39.7130   32.4600   40.3380 N   0  0  0  0  0  0  0  0  0  0  0  0
   39.0420   33.6210   40.4910 C   0  0  0  0  0  0  0  0  0  0  0  0
   37.8620   33.8710   39.9390 N   0  0  0  0  0  0  0  0  0  0  0  0
   36.3290   33.0430   38.6930 H   0  0  0  0  0  0  0  0  0  0  0  0
   39.7570   30.5370   39.4780 H   0  0  0  0  0  0  0  0  0  0  0  0
   39.6160   34.3080   41.1320 H   0  0  0  0  0  0  0  0  0  0  0  0
  1  2  1  0  0  0  0
  1  5  1  0  0  0  0
  3  1  1  0  0  0  0
  4 11  1  0  0  0  0
  4 10  1  0  0  0  0
  5  4  2  0  0  0  0
  6  5  1  0  0  0  0
  6  8  2  0  0  0  0
  7  6  1  0  0  0  0
  8  9  1  0  0  0  0
  9 10  2  0  0  0  0
 10 13  1  0  0  0  0
 12 11  1  0  0  0  0
 13 14  1  0  0  0  0
 15  1  1  0  0  0  0
 15 17  1  0  0  0  0
 16 21  1  0  0  0  0
 17 16  2  0  0  0  0
 17 18  1  0  0  0  0
 18 19  2  0  0  0  0
 19 20  1  0  0  0  0
 20 24  1  0  0  0  0
 21 20  2  0  0  0  0
 22 16  1  0  0  0  0
 23 18  1  0  0  0  0
M  END
>  <minimizedAffinity>
-4.84506845

$$$$

 OpenBabel03252503003D

 24 25  0  0  0  0  0  0  0  0999 V2000
   37.6140   32.7080   40.0970 C   0  0  0  0  0  0  0  0  0  0  0  0
   36.9490   33.0490   40.9270 H   0  0  0  0  0  0  0  0  0  0  0  0
   37.7030   33.4720   39.3070 H   0  0  0  0  0  0  0  0  0  0  0  0
   36.0300   30.8210   40.2090 C   0  0  0  0  0  0  0  0  0  0  0  0
   36.9600   31.5190   39.4710 C   0  0  0  0  0  0  0  0  0  0  0  0
   37.2460   31.0810   38.1780 C   0  0  0  0  0  0  0  0  0  0  0  0
   37.9850   31.6600   37.6300 H   0  0  0  0  0  0  0  0  0  0  0  0
   36.6080   29.9820   37.6700 C   0  0  0  0  0  3  0  0  0  0  0  0
   35.6680   29.2660   38.3970 C   0  0  0  0  0  3  0  0  0  0  0  0
   35.3900   29.7140   39.6940 C   0  0  0  0  0  0  0  0  0  0  0  0
   35.7130   31.2240   41.5060 O   0  0  0  0  0  0  0  0  0  0  0  0
   35.4520   32.1780   41.7260 H   0  0  0  0  0  0  0  0  0  0  0  0
   34.4380   28.9630   40.3870 O   0  0  0  0  0  0  0  0  0  0  0  0
   33.4750   29.3160   40.2780 H   0  0  0  0  0  0  0  0  0  0  0  0
   39.1780   32.2560   40.8780 S   0  0  0  0  0  0  0  0  0  0  0  0
   40.5820   32.8480   38.5620 C   0  0  0  0  0  0  0  0  0  0  0  0
   40.5440   32.9730   39.9640 C   0  0  0  0  0  0  0  0  0  0  0  0
   41.5390   33.6360   40.6500 C   0  0  0  0  0  0  0  0  0  0  0  0
   42.5520   34.1600   39.8960 N   0  0  0  0  0  0  0  0  0  0  0  0
   42.5620   34.0230   38.5530 C   0  0  0  0  0  0  0  0  0  0  0  0
   41.6190   33.3910   37.8670 N   0  0  0  0  0  0  0  0  0  0  0  0
   39.7760   32.3170   38.0550 H   0  0  0  0  0  0  0  0  0  0  0  0
   41.5610   33.7600   41.7120 H   0  0  0  0  0  0  0  0  0  0  0  0
   43.4540   34.5100   38.1300 H   0  0  0  0  0  0  0  0  0  0  0  0
  1 15  1  0  0  0  0
  1  2  1  0  0  0  0
  3  1  1  0  0  0  0
  4 11  1  0  0  0  0
  5  1  1  0  0  0  0
  5  4  2  0  0  0  0
  6  5  1  0  0  0  0
  7  6  1  0  0  0  0
  8  6  2  0  0  0  0
  8  9  1  0  0  0  0
  9 10  2  0  0  0  0
 10  4  1  0  0  0  0
 10 13  1  0  0  0  0
 11 12  1  0  0  0  0
 14 13  1  0  0  0  0
 16 17  1  0  0  0  0
 17 18  2  0  0  0  0
 17 15  1  0  0  0  0
 18 23  1  0  0  0  0
 19 18  1  0  0  0  0
 20 19  2  0  0  0  0
 21 20  1  0  0  0  0
 21 16  2  0  0  0  0
 22 16  1  0  0  0  0
 24 20  1  0  0  0  0
M  END
>  <minimizedAffinity>
-4.68527699

$$$$

 OpenBabel03252503003D

 24 25  0  0  0  0  0  0  0  0999 V2000
   39.2670   30.6320   38.6300 C   0  0  0  0  0  0  0  0  0  0  0  0
   39.4990   29.5990   38.9870 H   0  0  0  0  0  0  0  0  0  0  0  0
   38.9240   30.6330   37.5830 H   0  0  0  0  0  0  0  0  0  0  0  0
   40.7860   32.3150   37.6570 C   0  0  0  0  0  0  0  0  0  0  0  0
   40.5460   31.4050   38.6630 C   0  0  0  0  0  0  0  0  0  0  0  0
   41.5080   31.2490   39.6590 C   0  0  0  0  0  0  0  0  0  0  0  0
   41.2800   30.5220   40.4350 H   0  0  0  0  0  0  0  0  0  0  0  0
   42.6580   31.9910   39.6240 C   0  0  0  0  0  3  0  0  0  0  0  0
   42.9180   32.9120   38.6200 C   0  0  0  0  0  3  0  0  0  0  0  0
   41.9450   33.0600   37.6250 C   0  0  0  0  0  0  0  0  0  0  0  0
   39.8500   32.5030   36.6390 O   0  0  0  0  0  0  0  0  0  0  0  0
   38.8730   32.6870   36.8320 H   0  0  0  0  0  0  0  0  0  0  0  0
   42.2500   33.9980   36.6360 O   0  0  0  0  0  0  0  0  0  0  0  0
   41.8910   34.9430   36.8400 H   0  0  0  0  0  0  0  0  0  0  0  0
   38.0720   31.2980   39.8080 S   0  0  0  0  0  0  0  0  0  0  0  0
   38.3620   29.8950   42.1810 C   0  0  0  0  0  0  0  0  0  0  0  0
   37.6180   30.0320   40.9940 C   0  0  0  0  0  0  0  0  0  0  0  0
   36.5440   29.2110   40.7240 C   0  0  0  0  0  0  0  0  0  0  0  0
   36.2490   28.2660   41.6670 N   0  0  0  0  0  0  0  0  0  0  0  0
   36.9810   28.1570   42.7960 C   0  0  0  0  0  0  0  0  0  0  0  0
   38.0180   28.9340   43.0820 N   0  0  0  0  0  0  0  0  0  0  0  0
   39.2040   30.5640   42.3600 H   0  0  0  0  0  0  0  0  0  0  0  0
   35.9450   29.2700   39.8390 H   0  0  0  0  0  0  0  0  0  0  0  0
   36.5890   27.3430   43.4250 H   0  0  0  0  0  0  0  0  0  0  0  0
  1  5  1  0  0  0  0
  1  2  1  0  0  0  0
  1 15  1  0  0  0  0
  3  1  1  0  0  0  0
  4  5  1  0  0  0  0
  5  6  2  0  0  0  0
  6  7  1  0  0  0  0
  8  6  1  0  0  0  0
  9  8  2  0  0  0  0
 10  4  2  0  0  0  0
 10  9  1  0  0  0  0
 11 12  1  0  0  0  0
 11  4  1  0  0  0  0
 13 14  1  0  0  0  0
 13 10  1  0  0  0  0
 15 17  1  0  0  0  0
 16 22  1  0  0  0  0
 16 21  1  0  0  0  0
 17 16  2  0  0  0  0
 18 17  1  0  0  0  0
 18 19  2  0  0  0  0
 19 20  1  0  0  0  0
 20 21  2  0  0  0  0
 20 24  1  0  0  0  0
 23 18  1  0  0  0  0
M  END
>  <minimizedAffinity>
-4.65566349

$$$$

 OpenBabel03252503003D

 24 25  0  0  0  0  0  0  0  0999 V2000
   39.1760   30.9930   41.7760 C   0  0  0  0  0  0  0  0  0  0  0  0
   39.8850   31.5630   42.4250 H   0  0  0  0  0  0  0  0  0  0  0  0
   38.1910   31.4850   41.7180 H   0  0  0  0  0  0  0  0  0  0  0  0
   37.6590   29.2750   42.6900 C   0  0  0  0  0  0  0  0  0  0  0  0
   38.9540   29.6670   42.4290 C   0  0  0  0  0  0  0  0  0  0  0  0
   39.9920   28.8090   42.7890 C   0  0  0  0  0  0  0  0  0  0  0  0
   40.9980   29.1550   42.5660 H   0  0  0  0  0  0  0  0  0  0  0  0
   39.7130   27.6090   43.3860 C   0  0  0  0  0  3  0  0  0  0  0  0
   38.4170   27.1960   43.6570 C   0  0  0  0  0  3  0  0  0  0  0  0
   37.3820   28.0660   43.2910 C   0  0  0  0  0  0  0  0  0  0  0  0
   36.5900   30.1030   42.3460 O   0  0  0  0  0  0  0  0  0  0  0  0
   36.4860   30.4930   41.4170 H   0  0  0  0  0  0  0  0  0  0  0  0
   36.0960   27.6090   43.5830 O   0  0  0  0  0  0  0  0  0  0  0  0
   35.6570   27.0900   42.8070 H   0  0  0  0  0  0  0  0  0  0  0  0
   40.0130   30.8050   40.1880 S   0  0  0  0  0  0  0  0  0  0  0  0
   38.1020   29.3520   38.8020 C   0  0  0  0  0  0  0  0  0  0  0  0
   38.8010   30.5700   38.8870 C   0  0  0  0  0  0  0  0  0  0  0  0
   38.5730   31.5900   37.9870 C   0  0  0  0  0  0  0  0  0  0  0  0
   37.6380   31.3490   37.0190 N   0  0  0  0  0  0  0  0  0  0  0  0
   36.9840   30.1690   36.9620 C   0  0  0  0  0  0  0  0  0  0  0  0
   37.1820   29.1720   37.8140 N   0  0  0  0  0  0  0  0  0  0  0  0
   38.3090   28.5690   39.5330 H   0  0  0  0  0  0  0  0  0  0  0  0
   39.0750   32.5340   38.0040 H   0  0  0  0  0  0  0  0  0  0  0  0
   36.2760   30.1690   36.1180 H   0  0  0  0  0  0  0  0  0  0  0  0
  1  2  1  0  0  0  0
  1  5  1  0  0  0  0
  3  1  1  0  0  0  0
  4 10  1  0  0  0  0
  5  4  2  0  0  0  0
  5  6  1  0  0  0  0
  6  8  2  0  0  0  0
  7  6  1  0  0  0  0
  8  9  1  0  0  0  0
 10 13  1  0  0  0  0
 10  9  2  0  0  0  0
 11  4  1  0  0  0  0
 12 11  1  0  0  0  0
 14 13  1  0  0  0  0
 15  1  1  0  0  0  0
 16 17  1  0  0  0  0
 16 22  1  0  0  0  0
 17 15  1  0  0  0  0
 18 23  1  0  0  0  0
 18 17  2  0  0  0  0
 19 18  1  0  0  0  0
 20 19  2  0  0  0  0
 20 21  1  0  0  0  0
 21 16  2  0  0  0  0
 24 20  1  0  0  0  0
M  END
>  <minimizedAffinity>
-4.62886763

$$$$

 OpenBabel03252503003D

 24 25  0  0  0  0  0  0  0  0999 V2000
   37.2230   30.9310   39.2820 C   0  0  0  0  0  0  0  0  0  0  0  0
   37.0530   31.9870   38.9590 H   0  0  0  0  0  0  0  0  0  0  0  0
   38.2980   30.6900   39.3350 H   0  0  0  0  0  0  0  0  0  0  0  0
   37.3820   29.8020   37.0950 C   0  0  0  0  0  0  0  0  0  0  0  0
   36.6370   30.0490   38.2270 C   0  0  0  0  0  0  0  0  0  0  0  0
   35.3750   29.4680   38.3310 C   0  0  0  0  0  0  0  0  0  0  0  0
   34.8210   29.6880   39.2410 H   0  0  0  0  0  0  0  0  0  0  0  0
   34.9020   28.6710   37.3240 C   0  0  0  0  0  3  0  0  0  0  0  0
   35.6360   28.4100   36.1760 C   0  0  0  0  0  3  0  0  0  0  0  0
   36.9020   29.0000   36.0820 C   0  0  0  0  0  0  0  0  0  0  0  0
   38.6510   30.3630   36.9490 O   0  0  0  0  0  0  0  0  0  0  0  0
   39.3620   30.2820   37.6650 H   0  0  0  0  0  0  0  0  0  0  0  0
   37.6030   28.7080   34.9110 O   0  0  0  0  0  0  0  0  0  0  0  0
   38.2190   27.8840   34.9930 H   0  0  0  0  0  0  0  0  0  0  0  0
   36.3400   30.7520   40.8460 S   0  0  0  0  0  0  0  0  0  0  0  0
   36.4500   28.1760   41.8650 C   0  0  0  0  0  0  0  0  0  0  0  0
   37.0780   29.4340   41.8130 C   0  0  0  0  0  0  0  0  0  0  0  0
   38.2540   29.6750   42.4930 C   0  0  0  0  0  0  0  0  0  0  0  0
   38.7650   28.6310   43.2120 N   0  0  0  0  0  0  0  0  0  0  0  0
   38.1380   27.4350   43.2440 C   0  0  0  0  0  0  0  0  0  0  0  0
   37.0080   27.1750   42.6000 N   0  0  0  0  0  0  0  0  0  0  0  0
   35.5210   28.0240   41.3130 H   0  0  0  0  0  0  0  0  0  0  0  0
   38.7730   30.6100   42.4890 H   0  0  0  0  0  0  0  0  0  0  0  0
   38.7030   26.7290   43.8730 H   0  0  0  0  0  0  0  0  0  0  0  0
  1  3  1  0  0  0  0
  1 15  1  0  0  0  0
  2  1  1  0  0  0  0
  4  5  1  0  0  0  0
  5  6  2  0  0  0  0
  5  1  1  0  0  0  0
  6  7  1  0  0  0  0
  8  6  1  0  0  0  0
  9  8  2  0  0  0  0
 10  9  1  0  0  0  0
 10  4  2  0  0  0  0
 11  4  1  0  0  0  0
 11 12  1  0  0  0  0
 13 14  1  0  0  0  0
 13 10  1  0  0  0  0
 15 17  1  0  0  0  0
 16 21  1  0  0  0  0
 17 16  2  0  0  0  0
 17 18  1  0  0  0  0
 18 19  2  0  0  0  0
 19 20  1  0  0  0  0
 20 24  1  0  0  0  0
 21 20  2  0  0  0  0
 22 16  1  0  0  0  0
 23 18  1  0  0  0  0
M  END
>  <minimizedAffinity>
-4.61964083

$$$$

 OpenBabel03252503003D

 24 25  0  0  0  0  0  0  0  0999 V2000
   37.9850   28.3600   42.8760 C   0  0  0  0  0  0  0  0  0  0  0  0
   37.5400   28.5700   43.8790 H   0  0  0  0  0  0  0  0  0  0  0  0
   37.2090   28.2580   42.1000 H   0  0  0  0  0  0  0  0  0  0  0  0
   38.0820   25.9480   42.3710 C   0  0  0  0  0  0  0  0  0  0  0  0
   38.6750   27.0380   42.9690 C   0  0  0  0  0  0  0  0  0  0  0  0
   39.8860   26.8520   43.6330 C   0  0  0  0  0  0  0  0  0  0  0  0
   40.3210   27.7380   44.0910 H   0  0  0  0  0  0  0  0  0  0  0  0
   40.4600   25.6100   43.6790 C   0  0  0  0  0  3  0  0  0  0  0  0
   39.8790   24.5010   43.0830 C   0  0  0  0  0  3  0  0  0  0  0  0
   38.6620   24.6990   42.4190 C   0  0  0  0  0  0  0  0  0  0  0  0
   36.8690   26.0880   41.6950 O   0  0  0  0  0  0  0  0  0  0  0  0
   36.7260   26.7950   40.9850 H   0  0  0  0  0  0  0  0  0  0  0  0
   38.1160   23.5540   41.8350 O   0  0  0  0  0  0  0  0  0  0  0  0
   38.3960   23.4200   40.8510 H   0  0  0  0  0  0  0  0  0  0  0  0
   39.1670   29.6920   42.5800 S   0  0  0  0  0  0  0  0  0  0  0  0
   37.1800   30.6640   40.9090 C   0  0  0  0  0  0  0  0  0  0  0  0
   38.4710   30.8770   41.4270 C   0  0  0  0  0  0  0  0  0  0  0  0
   39.2150   31.9810   41.0650 C   0  0  0  0  0  0  0  0  0  0  0  0
   38.6280   32.8450   40.1820 N   0  0  0  0  0  0  0  0  0  0  0  0
   37.3880   32.6140   39.7020 C   0  0  0  0  0  0  0  0  0  0  0  0
   36.6510   31.5620   40.0330 N   0  0  0  0  0  0  0  0  0  0  0  0
   36.6220   29.7800   41.2200 H   0  0  0  0  0  0  0  0  0  0  0  0
   40.1990   32.1910   41.4260 H   0  0  0  0  0  0  0  0  0  0  0  0
   37.0950   33.4190   39.0100 H   0  0  0  0  0  0  0  0  0  0  0  0
  1  5  1  0  0  0  0
  1  2  1  0  0  0  0
  3  1  1  0  0  0  0
  4 10  2  0  0  0  0
  4  5  1  0  0  0  0
  5  6  2  0  0  0  0
  6  8  1  0  0  0  0
  6  7  1  0  0  0  0
  9  8  2  0  0  0  0
 10  9  1  0  0  0  0
 11  4  1  0  0  0  0
 12 11  1  0  0  0  0
 13 10  1  0  0  0  0
 14 13  1  0  0  0  0
 15  1  1  0  0  0  0
 16 22  1  0  0  0  0
 16 17  1  0  0  0  0
 17 15  1  0  0  0  0
 18 23  1  0  0  0  0
 18 17  2  0  0  0  0
 19 18  1  0  0  0  0
 20 21  1  0  0  0  0
 20 19  2  0  0  0  0
 21 16  2  0  0  0  0
 24 20  1  0  0  0  0
M  END
>  <minimizedAffinity>
-4.6167841

$$$$
