
 OpenBabel03242523003D

 33 35  0  0  0  0  0  0  0  0999 V2000
   44.9460   33.8070   46.9870 C   0  0  0  0  0  0  0  0  0  0  0  0
   45.2210   34.1230   45.6580 C   0  0  0  0  0  0  0  0  0  0  0  0
   46.2470   33.5440   44.9460 C   0  0  0  0  0  0  0  0  0  0  0  0
   46.9760   32.6370   45.6340 N   0  0  0  0  0  0  0  0  0  0  0  0
   46.7310   32.3130   46.9180 C   0  0  0  0  0  0  0  0  0  0  0  0
   45.7200   32.8960   47.5900 N   0  0  0  0  0  0  0  0  0  0  0  0
   44.1200   34.3080   47.4770 H   0  0  0  0  0  0  0  0  0  0  0  0
   44.6020   34.8620   45.1490 H   0  0  0  0  0  0  0  0  0  0  0  0
   44.3500   32.4100   42.9570 Cl  0  0  0  0  0  0  0  0  0  0  0  0
   45.7450   33.3880   42.5840 C   0  0  0  0  0  0  0  0  0  0  0  0
   46.5510   33.8610   43.5540 C   0  0  0  0  0  0  0  0  0  0  0  0
   47.6340   34.6270   43.1570 C   0  0  0  0  0  0  0  0  0  0  0  0
   47.8860   34.9020   41.8520 C   0  0  0  0  0  0  0  0  0  0  0  0
   47.0610   34.4180   40.8720 C   0  0  0  0  0  0  0  0  0  0  0  0
   45.9860   33.6560   41.2540 C   0  0  0  0  0  0  0  0  0  0  0  0
   48.2980   35.0200   43.9170 H   0  0  0  0  0  0  0  0  0  0  0  0
   47.2270   34.6150   39.8060 H   0  0  0  0  0  0  0  0  0  0  0  0
   45.3290   33.2710   40.4820 H   0  0  0  0  0  0  0  0  0  0  0  0
   49.0470   35.7260   41.4210 C   0  0  0  0  0  0  0  0  0  0  0  0
   50.1950   35.0710   41.7830 F   0  0  0  0  0  0  0  0  0  0  0  0
   48.9880   37.0020   41.9620 F   0  0  0  0  0  0  0  0  0  0  0  0
   48.9930   35.8560   40.0410 F   0  0  0  0  0  0  0  0  0  0  0  0
   47.7070   30.0590   47.0400 C   0  0  0  0  0  0  0  0  0  0  0  0
   47.5620   31.3200   47.6040 C   0  0  0  0  0  0  0  0  0  0  0  0
   48.1920   31.6300   48.7910 C   0  0  0  0  0  0  0  0  0  0  0  0
   48.0860   32.6140   49.2440 H   0  0  0  0  0  0  0  0  0  0  0  0
   48.9930   30.7100   49.4770 C   0  0  0  0  0  3  0  0  0  0  0  0
   49.0890   29.4820   48.8560 C   0  0  0  0  0  3  0  0  0  0  0  0
   48.4920   29.1020   47.6760 C   0  0  0  0  0  0  0  0  0  0  0  0
   47.0720   29.7580   45.8460 O   0  0  0  0  0  0  0  0  0  0  0  0
   46.1680   29.2920   45.7990 H   0  0  0  0  0  0  0  0  0  0  0  0
   48.6700   27.8260   47.1540 O   0  0  0  0  0  0  0  0  0  0  0  0
   48.6040   27.6700   46.1380 H   0  0  0  0  0  0  0  0  0  0  0  0
  1  7  1  0  0  0  0
  1  6  1  0  0  0  0
  2  1  2  0  0  0  0
  3  4  2  0  0  0  0
  3  2  1  0  0  0  0
  4  5  1  0  0  0  0
  5  6  2  0  0  0  0
  5 24  1  0  0  0  0
  8  2  1  0  0  0  0
 10  9  1  0  0  0  0
 10 11  1  0  0  0  0
 11  3  1  0  0  0  0
 12 11  2  0  0  0  0
 12 16  1  0  0  0  0
 13 12  1  0  0  0  0
 14 15  1  0  0  0  0
 14 13  2  0  0  0  0
 15 10  2  0  0  0  0
 17 14  1  0  0  0  0
 18 15  1  0  0  0  0
 19 20  1  0  0  0  0
 19 13  1  0  0  0  0
 19 21  1  0  0  0  0
 22 19  1  0  0  0  0
 23 24  2  0  0  0  0
 23 29  1  0  0  0  0
 24 25  1  0  0  0  0
 25 26  1  0  0  0  0
 25 27  2  0  0  0  0
 28 27  1  0  0  0  0
 29 28  2  0  0  0  0
 30 23  1  0  0  0  0
 31 30  1  0  0  0  0
 32 29  1  0  0  0  0
 33 32  1  0  0  0  0
M  END
>  <minimizedAffinity>
-6.40966272

>  <minimizedRMSD>
0.943795741

$$$$
