
 OpenBabel03252506323D

 34 36  0  0  1  0  0  0  0  0999 V2000
   44.6170   35.7950   44.7170 C   0  0  0  0  0  0  0  0  0  0  0  0
   44.5290   35.3960   43.3660 C   0  0  0  0  0  0  0  0  0  0  0  0
   44.8180   34.0750   43.0320 C   0  0  0  0  0  0  0  0  0  0  0  0
   45.1690   33.2520   44.0440 N   0  0  0  0  0  0  0  0  0  0  0  0
   45.2480   33.6460   45.3150 C   0  0  0  0  0  0  0  0  0  0  0  0
   44.9760   34.9120   45.6740 N   0  0  0  0  0  0  0  0  0  0  0  0
   45.6420   32.6780   46.2820 N   0  0  0  0  0  0  0  0  0  0  0  0
   45.4690   32.8410   47.7340 C   0  0  0  0  0  0  0  0  0  0  0  0
   46.7310   32.2060   48.2540 C   0  0  0  0  0  0  0  0  0  0  0  0
   47.3680   31.4660   47.1100 C   0  0  0  0  0  0  0  0  0  0  0  0
   46.2550   31.4020   46.1140 C   0  0  2  0  0  0  0  0  0  0  0  0
   44.3930   36.8280   44.9910 H   0  0  0  0  0  0  0  0  0  0  0  0
   44.7400   33.8050   41.9880 H   0  0  0  0  0  0  0  0  0  0  0  0
   45.3620   33.8910   48.0290 H   0  0  0  0  0  0  0  0  0  0  0  0
   44.6190   32.1900   48.0040 H   0  0  0  0  0  0  0  0  0  0  0  0
   47.3600   33.0250   48.6570 H   0  0  0  0  0  0  0  0  0  0  0  0
   46.5300   31.4970   49.0800 H   0  0  0  0  0  0  0  0  0  0  0  0
   47.7350   30.4640   47.3940 H   0  0  0  0  0  0  0  0  0  0  0  0
   48.2280   32.0940   46.7560 H   0  0  0  0  0  0  0  0  0  0  0  0
   45.5180   30.6540   46.5520 H   0  0  0  0  0  0  0  0  0  0  0  0
   45.7980   30.3370   43.9260 C   0  0  0  0  0  0  0  0  0  0  0  0
   46.6800   31.0140   44.7790 C   0  0  0  0  0  0  0  0  0  0  0  0
   47.9110   31.2090   44.2230 C   0  0  0  0  0  0  0  0  0  0  0  0
   48.6700   31.7130   44.8100 H   0  0  0  0  0  0  0  0  0  0  0  0
   48.3190   30.8180   42.9750 C   0  0  0  0  0  0  0  0  0  0  0  0
   47.4080   30.1540   42.1780 C   0  0  0  0  0  0  0  0  0  0  0  0
   46.1420   29.9110   42.6520 C   0  0  0  0  0  0  0  0  0  0  0  0
   44.5050   30.0600   44.3460 O   0  0  0  0  0  0  0  0  0  0  0  0
   43.7800   30.7850   44.3610 H   0  0  0  0  0  0  0  0  0  0  0  0
   45.2050   29.2410   41.8620 O   0  0  0  0  0  0  0  0  0  0  0  0
   45.2930   29.2680   40.8560 H   0  0  0  0  0  0  0  0  0  0  0  0
   44.1420   36.4100   42.4370 N   0  0  0  0  0  0  0  0  0  0  0  0
   44.4300   37.3800   42.5900 H   0  0  0  0  0  0  0  0  0  0  0  0
   43.5630   36.1270   41.6070 H   0  0  0  0  0  0  0  0  0  0  0  0
  1 12  1  0  0  0  0
  1  6  1  0  0  0  0
  2  1  2  0  0  0  0
  3  2  1  0  0  0  0
  3  4  2  0  0  0  0
  4  5  1  0  0  0  0
  5  6  2  0  0  0  0
  5  7  1  0  0  0  0
  7  8  1  0  0  0  0
  8 15  1  0  0  0  0
  8 14  1  0  0  0  0
  8  9  1  0  0  0  0
  9 16  1  0  0  0  0
  9 17  1  0  0  0  0
 10 18  1  0  0  0  0
 10  9  1  0  0  0  0
 11  7  1  0  0  0  0
 11 20  1  1  0  0  0
 11 10  1  0  0  0  0
 13  3  1  0  0  0  0
 19 10  1  0  0  0  0
 21 28  1  0  0  0  0
 21 22  1  0  0  0  0
 22 11  1  0  0  0  0
 23 22  2  0  0  0  0
 23 24  1  0  0  0  0
 25 23  1  0  0  0  0
 26 27  1  0  0  0  0
 26 25  2  0  0  0  0
 27 21  2  0  0  0  0
 28 29  1  0  0  0  0
 30 27  1  0  0  0  0
 31 30  1  0  0  0  0
 32 33  1  0  0  0  0
 32  2  1  0  0  0  0
 34 32  1  0  0  0  0
M  END
>  <minimizedAffinity>
-4.74604034

>  <minimizedRMSD>
2.24554372

$$$$
