
 OpenBabel03242518363D

 37 40  0  0  1  0  0  0  0  0999 V2000
   47.4830   33.6710   39.8510 C   0  0  0  0  0  0  0  0  0  0  0  0
   48.2670   34.5300   39.0820 C   0  0  0  0  0  0  0  0  0  0  0  0
   48.0860   34.2200   37.7430 C   0  0  0  0  0  0  0  0  0  0  0  0
   47.1940   33.1790   37.7670 C   0  0  0  0  0  0  0  0  0  0  0  0
   46.8480   32.8650   38.9950 O   0  0  0  0  0  0  0  0  0  0  0  0
   48.8890   35.2920   39.5620 H   0  0  0  0  0  0  0  0  0  0  0  0
   48.5770   34.7330   36.9280 H   0  0  0  0  0  0  0  0  0  0  0  0
   46.6810   32.4990   36.5650 C   0  0  2  0  0  0  0  0  0  0  0  0
   46.0410   31.1730   36.6940 C   0  0  0  0  0  0  0  0  0  0  0  0
   47.4520   31.2110   36.2010 C   0  0  1  0  0  0  0  0  0  0  0  0
   46.5160   33.1990   35.7190 H   0  0  0  0  0  0  0  0  0  0  0  0
   45.8670   30.7460   37.6880 H   0  0  0  0  0  0  0  0  0  0  0  0
   45.2010   30.9580   35.9770 H   0  0  0  0  0  0  0  0  0  0  0  0
   48.2480   30.8710   36.9030 H   0  0  0  0  0  0  0  0  0  0  0  0
   48.7590   31.6270   34.1540 C   0  0  0  0  0  0  0  0  0  0  0  0
   47.6610   31.0380   34.7430 C   0  0  0  0  0  0  0  0  0  0  0  0
   46.8170   30.3150   33.9260 C   0  0  0  0  0  0  0  0  0  0  0  0
   45.9480   29.8410   34.3600 H   0  0  0  0  0  0  0  0  0  0  0  0
   47.0760   30.1970   32.5760 C   0  0  0  0  0  3  0  0  0  0  0  0
   48.1700   30.7820   31.9760 C   0  0  0  0  0  3  0  0  0  0  0  0
   49.0220   31.5080   32.7850 C   0  0  0  0  0  0  0  0  0  0  0  0
   49.6270   32.3630   34.9570 O   0  0  0  0  0  0  0  0  0  0  0  0
   50.3500   32.9120   34.5280 H   0  0  0  0  0  0  0  0  0  0  0  0
   50.1390   32.1140   32.2150 O   0  0  0  0  0  0  0  0  0  0  0  0
   49.9520   33.0280   31.7960 H   0  0  0  0  0  0  0  0  0  0  0  0
   47.3090   33.5740   41.2440 O   0  0  0  0  0  0  0  0  0  0  0  0
   47.3760   34.7340   42.0410 C   0  0  0  0  0  0  0  0  0  0  0  0
   48.2370   35.5860   41.6900 O   0  0  0  0  0  0  0  0  0  0  0  0
   46.4740   34.8080   43.1360 C   0  0  0  0  0  0  0  0  0  0  0  0
   45.5890   35.8500   43.0830 C   0  0  0  0  0  0  0  0  0  0  0  0
   44.6740   35.9840   44.1260 C   0  0  0  0  0  0  0  0  0  0  0  0
   44.7100   35.0850   45.1240 N   0  0  0  0  0  0  0  0  0  0  0  0
   45.5870   34.0780   45.1460 C   0  0  0  0  0  0  0  0  0  0  0  0
   46.4710   33.9510   44.1380 N   0  0  0  0  0  0  0  0  0  0  0  0
   45.4890   36.6230   42.3140 H   0  0  0  0  0  0  0  0  0  0  0  0
   43.9450   36.7890   44.1450 H   0  0  0  0  0  0  0  0  0  0  0  0
   45.5360   33.4010   46.0020 H   0  0  0  0  0  0  0  0  0  0  0  0
  1 26  1  0  0  0  0
  2  6  1  0  0  0  0
  2  1  2  0  0  0  0
  3  4  2  0  0  0  0
  3  2  1  0  0  0  0
  4  5  1  0  0  0  0
  5  1  1  0  0  0  0
  7  3  1  0  0  0  0
  8 11  1  6  0  0  0
  8  9  1  0  0  0  0
  8  4  1  0  0  0  0
  9 12  1  0  0  0  0
 10  8  1  0  0  0  0
 10  9  1  0  0  0  0
 10 14  1  1  0  0  0
 13  9  1  0  0  0  0
 15 16  1  0  0  0  0
 15 22  1  0  0  0  0
 16 10  1  0  0  0  0
 17 18  1  0  0  0  0
 17 16  2  0  0  0  0
 19 17  1  0  0  0  0
 20 19  2  0  0  0  0
 20 21  1  0  0  0  0
 21 15  2  0  0  0  0
 23 22  1  0  0  0  0
 24 21  1  0  0  0  0
 25 24  1  0  0  0  0
 26 27  1  0  0  0  0
 27 29  1  0  0  0  0
 28 27  2  0  0  0  0
 29 34  1  0  0  0  0
 30 29  2  0  0  0  0
 30 31  1  0  0  0  0
 31 36  1  0  0  0  0
 31 32  2  0  0  0  0
 32 33  1  0  0  0  0
 33 37  1  0  0  0  0
 34 33  2  0  0  0  0
 35 30  1  0  0  0  0
M  END
>  <minimizedAffinity>
-5.65502548

>  <minimizedRMSD>
1.51643431

$$$$
