
 OpenBabel03252503003D

 24 25  0  0  0  0  0  0  0  0999 V2000
   43.7280   34.4900   40.6080 C   0  0  0  0  0  0  0  0  0  0  0  0
   44.3320   34.6620   39.6850 H   0  0  0  0  0  0  0  0  0  0  0  0
   43.8560   33.4650   40.9940 H   0  0  0  0  0  0  0  0  0  0  0  0
   41.9870   34.8640   38.9010 C   0  0  0  0  0  0  0  0  0  0  0  0
   42.2900   34.6250   40.2230 C   0  0  0  0  0  0  0  0  0  0  0  0
   41.2410   34.5220   41.1360 C   0  0  0  0  0  0  0  0  0  0  0  0
   41.5230   34.3320   42.1680 H   0  0  0  0  0  0  0  0  0  0  0  0
   39.9470   34.6580   40.7110 C   0  0  0  0  0  3  0  0  0  0  0  0
   39.6220   34.9000   39.3840 C   0  0  0  0  0  3  0  0  0  0  0  0
   40.6820   35.0010   38.4780 C   0  0  0  0  0  0  0  0  0  0  0  0
   43.0050   34.9750   37.9530 O   0  0  0  0  0  0  0  0  0  0  0  0
   43.7310   34.2750   37.8570 H   0  0  0  0  0  0  0  0  0  0  0  0
   40.3080   35.2450   37.1540 O   0  0  0  0  0  0  0  0  0  0  0  0
   40.1820   34.3860   36.5970 H   0  0  0  0  0  0  0  0  0  0  0  0
   44.2190   35.7890   41.7620 S   0  0  0  0  0  0  0  0  0  0  0  0
   44.3940   35.7630   44.5280 C   0  0  0  0  0  0  0  0  0  0  0  0
   44.6690   35.0630   43.3390 C   0  0  0  0  0  0  0  0  0  0  0  0
   45.2790   33.8260   43.3610 C   0  0  0  0  0  0  0  0  0  0  0  0
   45.5970   33.3280   44.5940 N   0  0  0  0  0  0  0  0  0  0  0  0
   45.3220   34.0240   45.7180 C   0  0  0  0  0  0  0  0  0  0  0  0
   44.7360   35.2140   45.7260 N   0  0  0  0  0  0  0  0  0  0  0  0
   43.9090   36.7380   44.4700 H   0  0  0  0  0  0  0  0  0  0  0  0
   45.5110   33.2510   42.4900 H   0  0  0  0  0  0  0  0  0  0  0  0
   45.6520   33.4580   46.6030 H   0  0  0  0  0  0  0  0  0  0  0  0
  1  3  1  0  0  0  0
  1 15  1  0  0  0  0
  2  1  1  0  0  0  0
  4  5  1  0  0  0  0
  5  1  1  0  0  0  0
  5  6  2  0  0  0  0
  6  7  1  0  0  0  0
  8  6  1  0  0  0  0
  9  8  2  0  0  0  0
 10  4  2  0  0  0  0
 10  9  1  0  0  0  0
 11  4  1  0  0  0  0
 12 11  1  0  0  0  0
 13 10  1  0  0  0  0
 14 13  1  0  0  0  0
 15 17  1  0  0  0  0
 16 21  1  0  0  0  0
 17 18  1  0  0  0  0
 17 16  2  0  0  0  0
 18 19  2  0  0  0  0
 19 20  1  0  0  0  0
 20 21  2  0  0  0  0
 20 24  1  0  0  0  0
 22 16  1  0  0  0  0
 23 18  1  0  0  0  0
M  END
>  <minimizedAffinity>
-5.13834906

>  <minimizedRMSD>
2.54575992

$$$$
