
 OpenBabel03252505113D

 46 49  0  0  1  0  0  0  0  0999 V2000
   44.5930   35.4970   44.5970 C   0  0  0  0  0  0  0  0  0  0  0  0
   45.3230   35.5510   43.3910 C   0  0  0  0  0  0  0  0  0  0  0  0
   46.4610   34.6820   43.2580 C   0  0  0  0  0  0  0  0  0  0  0  0
   46.7680   33.8680   44.2860 N   0  0  0  0  0  0  0  0  0  0  0  0
   46.0520   33.8450   45.4140 C   0  0  0  0  0  0  0  0  0  0  0  0
   44.9550   34.6580   45.5860 N   0  0  0  0  0  0  0  0  0  0  0  0
   43.7300   36.1340   44.7400 H   0  0  0  0  0  0  0  0  0  0  0  0
   45.0280   36.2180   42.6170 H   0  0  0  0  0  0  0  0  0  0  0  0
   46.4390   32.9300   46.5190 C   0  0  2  0  0  0  0  0  0  0  0  0
   46.9630   31.6880   45.8290 C   0  0  0  0  0  0  0  0  0  0  0  0
   46.0730   30.5180   45.8310 C   0  0  0  0  0  0  0  0  0  0  0  0
   45.7650   30.2620   47.3080 C   0  0  0  0  0  0  0  0  0  0  0  0
   44.9820   31.3370   47.9080 C   0  0  0  0  0  0  0  0  0  0  0  0
   45.3800   32.7000   47.4580 C   0  0  0  0  0  0  0  0  0  0  0  0
   47.2900   33.4510   47.0290 H   0  0  0  0  0  0  0  0  0  0  0  0
   47.9020   31.4000   46.3490 H   0  0  0  0  0  0  0  0  0  0  0  0
   47.2810   31.8770   44.7770 H   0  0  0  0  0  0  0  0  0  0  0  0
   45.1480   30.6920   45.2700 H   0  0  0  0  0  0  0  0  0  0  0  0
   46.6300   29.6470   45.4920 H   0  0  0  0  0  0  0  0  0  0  0  0
   46.6960   30.0210   47.8200 H   0  0  0  0  0  0  0  0  0  0  0  0
   45.1020   29.3720   47.2960 H   0  0  0  0  0  0  0  0  0  0  0  0
   44.1660   31.3350   48.6170 H   0  0  0  0  0  0  0  0  0  0  0  0
   44.7000   33.8500   47.9590 N   0  0  0  0  0  0  0  0  0  0  0  0
   45.3210   34.2930   48.6500 H   0  0  0  0  0  0  0  0  0  0  0  0
   43.7460   34.0460   47.5690 H   0  0  0  0  0  0  0  0  0  0  0  0
   47.2280   34.7150   42.0280 C   0  0  0  0  0  0  0  0  0  0  0  0
   48.1560   35.6790   41.8630 C   0  0  0  0  0  0  0  0  0  0  0  0
   48.8590   35.6700   40.6510 C   0  0  0  0  0  0  0  0  0  0  0  0
   48.5320   34.6760   39.7460 C   0  0  0  0  0  0  0  0  0  0  0  0
   47.5850   33.6930   39.9180 C   0  0  0  0  0  0  0  0  0  0  0  0
   46.9380   33.7550   41.1140 N   0  0  0  0  0  0  0  0  0  0  0  0
   48.3670   36.4300   42.6090 H   0  0  0  0  0  0  0  0  0  0  0  0
   49.6130   36.4220   40.4710 H   0  0  0  0  0  0  0  0  0  0  0  0
   49.1180   34.7420   38.8380 H   0  0  0  0  0  0  0  0  0  0  0  0
   47.3180   32.7480   38.9710 O   0  0  0  0  0  0  0  0  0  0  0  0
   49.2400   32.0880   37.5940 C   0  0  0  0  0  0  0  0  0  0  0  0
   47.9570   32.4750   37.8220 C   0  0  0  0  0  0  0  0  0  0  0  0
   47.1460   32.6190   36.6880 C   0  0  0  0  0  0  0  0  0  0  0  0
   46.0890   32.9270   36.7250 H   0  0  0  0  0  0  0  0  0  0  0  0
   47.6030   32.3880   35.4050 C   0  0  0  0  0  3  0  0  0  0  0  0
   48.9210   31.9960   35.2420 C   0  0  0  0  0  3  0  0  0  0  0  0
   49.7490   31.8430   36.3340 C   0  0  0  0  0  0  0  0  0  0  0  0
   50.0280   31.9490   38.7310 O   0  0  0  0  0  0  0  0  0  0  0  0
   51.0150   32.1490   38.6190 H   0  0  0  0  0  0  0  0  0  0  0  0
   51.0740   31.4540   36.2350 O   0  0  0  0  0  0  0  0  0  0  0  0
   51.7760   32.1630   36.4520 H   0  0  0  0  0  0  0  0  0  0  0  0
  1  7  1  0  0  0  0
  1  6  1  0  0  0  0
  2  1  2  0  0  0  0
  3  2  1  0  0  0  0
  3  4  2  0  0  0  0
  4  5  1  0  0  0  0
  5  6  2  0  0  0  0
  5  9  1  0  0  0  0
  8  2  1  0  0  0  0
  9 15  1  1  0  0  0
  9 14  1  0  0  0  0
 10 11  1  0  0  0  0
 10 16  1  0  0  0  0
 10  9  1  0  0  0  0
 11 12  1  0  0  0  0
 12 20  1  0  0  0  0
 12 13  1  0  0  0  0
 13 22  1  0  0  0  0
 14 13  2  0  0  0  0
 14 23  1  0  0  0  0
 17 10  1  0  0  0  0
 18 11  1  0  0  0  0
 19 11  1  0  0  0  0
 21 12  1  0  0  0  0
 23 24  1  0  0  0  0
 25 23  1  0  0  0  0
 26  3  1  0  0  0  0
 27 26  1  0  0  0  0
 27 32  1  0  0  0  0
 28 27  2  0  0  0  0
 29 30  2  0  0  0  0
 29 28  1  0  0  0  0
 30 31  1  0  0  0  0
 31 26  2  0  0  0  0
 33 28  1  0  0  0  0
 34 29  1  0  0  0  0
 35 30  1  0  0  0  0
 36 37  1  0  0  0  0
 36 43  1  0  0  0  0
 37 35  1  0  0  0  0
 38 39  1  0  0  0  0
 38 37  2  0  0  0  0
 40 38  1  0  0  0  0
 41 40  2  0  0  0  0
 41 42  1  0  0  0  0
 42 36  2  0  0  0  0
 44 43  1  0  0  0  0
 45 42  1  0  0  0  0
 45 46  1  0  0  0  0
M  END
>  <minimizedAffinity>
-7.37051821

>  <minimizedRMSD>
0.921611965

$$$$
