
 OpenBabel03242518263D

 47 51  0  0  1  0  0  0  0  0999 V2000
   46.4060   30.9180   44.5820 C   0  0  0  0  0  0  0  0  0  0  0  0
   45.9770   32.1840   44.7550 C   0  0  0  0  0  0  0  0  0  0  0  0
   46.3650   32.8520   45.9130 C   0  0  0  0  0  0  0  0  0  0  0  0
   47.1620   32.2310   46.8490 C   0  0  0  0  0  0  0  0  0  0  0  0
   47.5890   30.9150   46.6360 C   0  0  0  0  0  0  0  0  0  0  0  0
   47.2080   30.2390   45.4820 C   0  0  0  0  0  0  0  0  0  0  0  0
   48.3730   30.5490   47.7330 O   0  0  0  0  0  0  0  0  0  0  0  0
   48.1510   31.5060   48.7620 C   0  0  2  0  0  0  0  0  0  0  0  0
   47.6960   32.6380   48.0710 O   0  0  0  0  0  0  0  0  0  0  0  0
   46.0880   30.4270   43.6730 H   0  0  0  0  0  0  0  0  0  0  0  0
   46.0310   33.8660   46.0690 H   0  0  0  0  0  0  0  0  0  0  0  0
   47.5200   29.2230   45.2870 H   0  0  0  0  0  0  0  0  0  0  0  0
   47.3760   31.1640   49.4760 H   0  0  0  0  0  0  0  0  0  0  0  0
   44.2440   34.7850   42.7860 C   0  0  0  0  0  0  0  0  0  0  0  0
   43.5030   34.0360   41.8890 C   0  0  0  0  0  0  0  0  0  0  0  0
   43.6100   32.6470   41.9720 C   0  0  0  0  0  0  0  0  0  0  0  0
   44.4180   32.0860   42.9090 N   0  0  0  0  0  0  0  0  0  0  0  0
   45.1300   32.8590   43.7740 C   0  0  0  0  0  0  0  0  0  0  0  0
   45.0350   34.1900   43.7020 N   0  0  0  0  0  0  0  0  0  0  0  0
   44.1950   35.8730   42.7610 H   0  0  0  0  0  0  0  0  0  0  0  0
   43.0360   32.0870   41.2750 H   0  0  0  0  0  0  0  0  0  0  0  0
   42.7050   34.7370   40.9660 N   0  0  0  0  0  0  0  0  0  0  0  0
   42.9100   34.4890   39.5720 C   0  0  0  0  0  0  0  0  0  0  0  0
   42.0870   35.3460   38.6800 C   0  0  0  0  0  0  0  0  0  0  0  0
   40.7220   35.4220   39.0710 N   0  0  0  0  0  0  0  0  0  0  0  0
   40.4260   35.4300   40.4460 C   0  0  0  0  0  0  0  0  0  0  0  0
   41.6780   35.6990   41.2640 C   0  0  0  0  0  0  0  0  0  0  0  0
   43.9930   34.6310   39.3530 H   0  0  0  0  0  0  0  0  0  0  0  0
   42.7060   33.4050   39.3730 H   0  0  0  0  0  0  0  0  0  0  0  0
   42.1410   34.9100   37.6540 H   0  0  0  0  0  0  0  0  0  0  0  0
   42.5640   36.3450   38.6090 H   0  0  0  0  0  0  0  0  0  0  0  0
   40.0420   34.9190   38.4660 H   0  0  0  0  0  0  0  0  0  0  0  0
   39.6600   36.1820   40.7210 H   0  0  0  0  0  0  0  0  0  0  0  0
   40.0330   34.4350   40.8060 H   0  0  0  0  0  0  0  0  0  0  0  0
   42.0330   36.7110   40.9210 H   0  0  0  0  0  0  0  0  0  0  0  0
   41.4300   35.7910   42.3360 H   0  0  0  0  0  0  0  0  0  0  0  0
   49.8540   30.5130   50.0890 C   0  0  0  0  0  0  0  0  0  0  0  0
   49.4270   31.6960   49.4770 C   0  0  0  0  0  0  0  0  0  0  0  0
   50.1960   32.8330   49.6020 C   0  0  0  0  0  0  0  0  0  0  0  0
   49.7680   33.6850   49.0880 H   0  0  0  0  0  0  0  0  0  0  0  0
   51.3740   32.8030   50.3220 C   0  0  0  0  0  0  0  0  0  0  0  0
   51.8030   31.6360   50.9310 C   0  0  0  0  0  0  0  0  0  0  0  0
   51.0430   30.4830   50.8160 C   0  0  0  0  0  0  0  0  0  0  0  0
   49.1740   29.2870   50.0430 O   0  0  0  0  0  0  0  0  0  0  0  0
   49.4140   28.5740   49.3660 H   0  0  0  0  0  0  0  0  0  0  0  0
   51.5100   29.3410   51.4400 O   0  0  0  0  0  0  0  0  0  0  0  0
   51.1120   28.4220   51.2860 H   0  0  0  0  0  0  0  0  0  0  0  0
  1  2  2  0  0  0  0
  1  6  1  0  0  0  0
  2  3  1  0  0  0  0
  3 11  1  0  0  0  0
  3  4  2  0  0  0  0
  4  9  1  0  0  0  0
  5  4  1  0  0  0  0
  5  7  1  0  0  0  0
  6  5  2  0  0  0  0
  7  8  1  0  0  0  0
  8 13  1  1  0  0  0
  8 38  1  0  0  0  0
  9  8  1  0  0  0  0
 10  1  1  0  0  0  0
 12  6  1  0  0  0  0
 14 19  1  0  0  0  0
 15 16  1  0  0  0  0
 15 14  2  0  0  0  0
 16 17  2  0  0  0  0
 17 18  1  0  0  0  0
 18  2  1  0  0  0  0
 19 18  2  0  0  0  0
 20 14  1  0  0  0  0
 21 16  1  0  0  0  0
 22 27  1  0  0  0  0
 22 15  1  0  0  0  0
 23 22  1  0  0  0  0
 24 25  1  0  0  0  0
 24 23  1  0  0  0  0
 25 26  1  0  0  0  0
 26 33  1  0  0  0  0
 26 34  1  0  0  0  0
 26 27  1  0  0  0  0
 27 36  1  0  0  0  0
 28 23  1  0  0  0  0
 29 23  1  0  0  0  0
 30 24  1  0  0  0  0
 31 24  1  0  0  0  0
 32 25  1  0  0  0  0
 35 27  1  0  0  0  0
 37 43  1  0  0  0  0
 38 39  1  0  0  0  0
 38 37  2  0  0  0  0
 39 41  2  0  0  0  0
 40 39  1  0  0  0  0
 41 42  1  0  0  0  0
 43 42  2  0  0  0  0
 43 46  1  0  0  0  0
 44 37  1  0  0  0  0
 45 44  1  0  0  0  0
 47 46  1  0  0  0  0
M  END
>  <minimizedAffinity>
-6.37426758

>  <minimizedRMSD>
1.07949018

$$$$
