
 OpenBabel03242522333D

 23 24  0  0  0  0  0  0  0  0999 V2000
   46.8080   33.1930   46.0770 C   0  0  0  0  0  0  0  0  0  0  0  0
   46.6180   33.9920   46.8350 H   0  0  0  0  0  0  0  0  0  0  0  0
   47.9220   33.0360   46.0860 H   0  0  0  0  0  0  0  0  0  0  0  0
   44.7660   34.3250   43.1770 C   0  0  0  0  0  0  0  0  0  0  0  0
   45.7480   34.5200   42.2030 C   0  0  0  0  0  0  0  0  0  0  0  0
   47.0700   34.2630   42.5620 C   0  0  0  0  0  0  0  0  0  0  0  0
   47.3620   33.8380   43.8160 N   0  0  0  0  0  0  0  0  0  0  0  0
   46.3640   33.6590   44.7400 C   0  0  0  0  0  0  0  0  0  0  0  0
   45.0950   33.9080   44.3930 N   0  0  0  0  0  0  0  0  0  0  0  0
   43.6950   34.4870   43.0400 H   0  0  0  0  0  0  0  0  0  0  0  0
   45.4150   34.8560   41.2400 H   0  0  0  0  0  0  0  0  0  0  0  0
   47.8340   34.4160   41.8020 H   0  0  0  0  0  0  0  0  0  0  0  0
   46.0360   30.8420   45.6370 C   0  0  0  0  0  0  0  0  0  0  0  0
   46.1320   31.9410   46.4620 C   0  0  0  0  0  0  0  0  0  0  0  0
   45.5560   31.8420   47.7160 C   0  0  0  0  0  0  0  0  0  0  0  0
   45.6280   32.7040   48.3740 H   0  0  0  0  0  0  0  0  0  0  0  0
   44.8930   30.7100   48.1880 C   0  0  0  0  0  3  0  0  0  0  0  0
   44.8120   29.6180   47.3360 C   0  0  0  0  0  3  0  0  0  0  0  0
   45.3810   29.7060   46.0830 C   0  0  0  0  0  0  0  0  0  0  0  0
   46.5900   30.8860   44.3790 O   0  0  0  0  0  0  0  0  0  0  0  0
   46.1660   30.2750   43.6680 H   0  0  0  0  0  0  0  0  0  0  0  0
   45.2870   28.6060   45.2500 O   0  0  0  0  0  0  0  0  0  0  0  0
   45.3750   27.6460   45.5740 H   0  0  0  0  0  0  0  0  0  0  0  0
  1  3  1  0  0  0  0
  1 14  1  0  0  0  0
  1  2  1  0  0  0  0
  4  9  1  0  0  0  0
  5  6  1  0  0  0  0
  5  4  2  0  0  0  0
  6  7  2  0  0  0  0
  7  8  1  0  0  0  0
  8  1  1  0  0  0  0
  9  8  2  0  0  0  0
 10  4  1  0  0  0  0
 11  5  1  0  0  0  0
 12  6  1  0  0  0  0
 13 19  2  0  0  0  0
 13 14  1  0  0  0  0
 14 15  2  0  0  0  0
 15 17  1  0  0  0  0
 15 16  1  0  0  0  0
 18 17  2  0  0  0  0
 19 18  1  0  0  0  0
 20 13  1  0  0  0  0
 21 20  1  0  0  0  0
 22 23  1  0  0  0  0
 22 19  1  0  0  0  0
M  END
>  <minimizedAffinity>
-3.72762632

>  <minimizedRMSD>
2.13803601

$$$$
