
 OpenBabel03242522043D

 37 39  0  0  1  0  0  0  0  0999 V2000
   37.0520   30.5070   38.6400 C   0  0  0  0  0  0  0  0  0  0  0  0
   37.1880   29.4410   39.5430 C   0  0  0  0  0  0  0  0  0  0  0  0
   38.3490   29.3570   40.3050 C   0  0  0  0  0  0  0  0  0  0  0  0
   39.2880   30.3200   40.1270 N   0  0  0  0  0  0  0  0  0  0  0  0
   39.1330   31.3380   39.2490 C   0  0  0  0  0  0  0  0  0  0  0  0
   38.0080   31.4330   38.5020 N   0  0  0  0  0  0  0  0  0  0  0  0
   36.1420   30.5610   38.0520 H   0  0  0  0  0  0  0  0  0  0  0  0
   36.4380   28.6790   39.6800 H   0  0  0  0  0  0  0  0  0  0  0  0
   38.6060   28.3240   41.2560 N   0  0  0  0  0  0  0  0  0  0  0  0
   38.6600   28.6260   42.6800 C   0  0  0  0  0  0  0  0  0  0  0  0
   39.4280   27.5870   43.4340 C   0  0  0  0  0  0  0  0  0  0  0  0
   39.0310   26.2510   43.1780 N   0  0  0  0  0  0  0  0  0  0  0  0
   38.6390   25.9390   41.8550 C   0  0  2  0  0  0  0  0  0  0  0  0
   38.8130   26.9790   40.8220 C   0  0  0  0  0  0  0  0  0  0  0  0
   37.5980   28.6440   43.0520 H   0  0  0  0  0  0  0  0  0  0  0  0
   39.0790   29.6190   42.9030 H   0  0  0  0  0  0  0  0  0  0  0  0
   40.4990   27.7030   43.1620 H   0  0  0  0  0  0  0  0  0  0  0  0
   39.3580   27.8170   44.5130 H   0  0  0  0  0  0  0  0  0  0  0  0
   38.2920   25.9980   43.8900 H   0  0  0  0  0  0  0  0  0  0  0  0
   39.2240   25.0440   41.5270 H   0  0  0  0  0  0  0  0  0  0  0  0
   39.8690   26.9070   40.4330 H   0  0  0  0  0  0  0  0  0  0  0  0
   38.1810   26.7220   39.9430 H   0  0  0  0  0  0  0  0  0  0  0  0
   37.1720   25.5510   41.8710 C   0  0  0  0  0  0  0  0  0  0  0  0
   36.5280   26.0990   42.9770 F   0  0  0  0  0  0  0  0  0  0  0  0
   37.1350   24.1780   42.0780 F   0  0  0  0  0  0  0  0  0  0  0  0
   36.4900   25.9250   40.7510 F   0  0  0  0  0  0  0  0  0  0  0  0
   40.7090   32.7370   37.9430 C   0  0  0  0  0  0  0  0  0  0  0  0
   40.2080   32.3000   39.1530 C   0  0  0  0  0  0  0  0  0  0  0  0
   40.7580   32.8030   40.3020 C   0  0  0  0  0  0  0  0  0  0  0  0
   40.4240   32.5120   41.2950 H   0  0  0  0  0  0  0  0  0  0  0  0
   41.7970   33.7320   40.2970 C   0  0  0  0  0  3  0  0  0  0  0  0
   42.2880   34.1610   39.0770 C   0  0  0  0  0  3  0  0  0  0  0  0
   41.7410   33.6610   37.9070 C   0  0  0  0  0  0  0  0  0  0  0  0
   40.1320   32.2090   36.7910 O   0  0  0  0  0  0  0  0  0  0  0  0
   39.1940   32.5030   36.5320 H   0  0  0  0  0  0  0  0  0  0  0  0
   42.2340   34.0910   36.6830 O   0  0  0  0  0  0  0  0  0  0  0  0
   41.7450   34.7980   36.1470 H   0  0  0  0  0  0  0  0  0  0  0  0
  1  2  1  0  0  0  0
  2  8  1  0  0  0  0
  2  3  2  0  0  0  0
  3  9  1  0  0  0  0
  4  3  1  0  0  0  0
  5  4  2  0  0  0  0
  6  1  2  0  0  0  0
  6  5  1  0  0  0  0
  7  1  1  0  0  0  0
  9 10  1  0  0  0  0
 10 16  1  0  0  0  0
 10 15  1  0  0  0  0
 10 11  1  0  0  0  0
 11 18  1  0  0  0  0
 12 11  1  0  0  0  0
 12 19  1  0  0  0  0
 13 20  1  6  0  0  0
 13 23  1  0  0  0  0
 13 12  1  0  0  0  0
 14  9  1  0  0  0  0
 14 13  1  0  0  0  0
 17 11  1  0  0  0  0
 21 14  1  0  0  0  0
 22 14  1  0  0  0  0
 23 25  1  0  0  0  0
 23 24  1  0  0  0  0
 26 23  1  0  0  0  0
 27 28  1  0  0  0  0
 28  5  1  0  0  0  0
 28 29  2  0  0  0  0
 29 30  1  0  0  0  0
 31 29  1  0  0  0  0
 32 31  2  0  0  0  0
 33 27  2  0  0  0  0
 33 32  1  0  0  0  0
 34 27  1  0  0  0  0
 35 34  1  0  0  0  0
 36 33  1  0  0  0  0
 37 36  1  0  0  0  0
M  END
>  <minimizedAffinity>
-6.54660892

$$$$

 OpenBabel03242522043D

 37 39  0  0  1  0  0  0  0  0999 V2000
   37.3460   28.1670   43.6790 C   0  0  0  0  0  0  0  0  0  0  0  0
   37.0760   27.0070   42.9370 C   0  0  0  0  0  0  0  0  0  0  0  0
   37.1660   27.0670   41.5500 C   0  0  0  0  0  0  0  0  0  0  0  0
   37.5120   28.2550   40.9940 N   0  0  0  0  0  0  0  0  0  0  0  0
   37.7670   29.3600   41.7310 C   0  0  0  0  0  0  0  0  0  0  0  0
   37.6850   29.3160   43.0820 N   0  0  0  0  0  0  0  0  0  0  0  0
   37.2730   28.1080   44.7600 H   0  0  0  0  0  0  0  0  0  0  0  0
   36.8020   26.0650   43.3850 H   0  0  0  0  0  0  0  0  0  0  0  0
   36.9160   25.9570   40.6860 N   0  0  0  0  0  0  0  0  0  0  0  0
   36.8440   26.1460   39.2430 C   0  0  0  0  0  0  0  0  0  0  0  0
   36.0870   25.0390   38.5810 C   0  0  0  0  0  0  0  0  0  0  0  0
   36.5080   23.7330   38.9370 N   0  0  0  0  0  0  0  0  0  0  0  0
   36.9180   23.5330   40.2770 C   0  0  2  0  0  0  0  0  0  0  0  0
   36.7360   24.6480   41.2270 C   0  0  0  0  0  0  0  0  0  0  0  0
   37.9030   26.1510   38.8600 H   0  0  0  0  0  0  0  0  0  0  0  0
   36.4070   27.1120   38.9470 H   0  0  0  0  0  0  0  0  0  0  0  0
   35.0160   25.1590   38.8550 H   0  0  0  0  0  0  0  0  0  0  0  0
   36.1420   25.1840   37.4870 H   0  0  0  0  0  0  0  0  0  0  0  0
   37.2440   23.4370   38.2400 H   0  0  0  0  0  0  0  0  0  0  0  0
   36.3510   22.6570   40.6800 H   0  0  0  0  0  0  0  0  0  0  0  0
   35.6850   24.5900   41.6310 H   0  0  0  0  0  0  0  0  0  0  0  0
   37.3800   24.4720   42.1170 H   0  0  0  0  0  0  0  0  0  0  0  0
   38.3910   23.1680   40.2760 C   0  0  0  0  0  0  0  0  0  0  0  0
   38.5580   21.7860   40.3290 F   0  0  0  0  0  0  0  0  0  0  0  0
   38.9100   23.6380   41.4760 F   0  0  0  0  0  0  0  0  0  0  0  0
   39.0750   23.6400   39.1960 F   0  0  0  0  0  0  0  0  0  0  0  0
   37.2060   31.5460   40.7060 C   0  0  0  0  0  0  0  0  0  0  0  0
   38.1260   30.5640   41.0170 C   0  0  0  0  0  0  0  0  0  0  0  0
   39.4260   30.7490   40.6300 C   0  0  0  0  0  0  0  0  0  0  0  0
   40.2130   30.0260   40.8340 H   0  0  0  0  0  0  0  0  0  0  0  0
   39.8540   31.8800   39.9380 C   0  0  0  0  0  3  0  0  0  0  0  0
   38.9210   32.8550   39.6340 C   0  0  0  0  0  3  0  0  0  0  0  0
   37.6020   32.6830   40.0190 C   0  0  0  0  0  0  0  0  0  0  0  0
   35.8910   31.3330   41.1120 O   0  0  0  0  0  0  0  0  0  0  0  0
   35.6640   31.4050   42.1000 H   0  0  0  0  0  0  0  0  0  0  0  0
   36.6660   33.6600   39.7140 O   0  0  0  0  0  0  0  0  0  0  0  0
   36.3730   34.3330   40.4120 H   0  0  0  0  0  0  0  0  0  0  0  0
  1  7  1  0  0  0  0
  2  8  1  0  0  0  0
  2  1  2  0  0  0  0
  3  2  1  0  0  0  0
  4  3  2  0  0  0  0
  4  5  1  0  0  0  0
  5  6  2  0  0  0  0
  6  1  1  0  0  0  0
  9 14  1  0  0  0  0
  9  3  1  0  0  0  0
 10  9  1  0  0  0  0
 11 17  1  0  0  0  0
 11 12  1  0  0  0  0
 11 10  1  0  0  0  0
 12 13  1  0  0  0  0
 13 20  1  1  0  0  0
 13 14  1  0  0  0  0
 14 21  1  0  0  0  0
 14 22  1  0  0  0  0
 15 10  1  0  0  0  0
 16 10  1  0  0  0  0
 18 11  1  0  0  0  0
 19 12  1  0  0  0  0
 23 13  1  0  0  0  0
 23 24  1  0  0  0  0
 23 25  1  0  0  0  0
 26 23  1  0  0  0  0
 27 28  1  0  0  0  0
 27 34  1  0  0  0  0
 28  5  1  0  0  0  0
 29 30  1  0  0  0  0
 29 28  2  0  0  0  0
 31 29  1  0  0  0  0
 32 31  2  0  0  0  0
 32 33  1  0  0  0  0
 33 27  2  0  0  0  0
 34 35  1  0  0  0  0
 36 33  1  0  0  0  0
 36 37  1  0  0  0  0
M  END
>  <minimizedAffinity>
-6.42925644

$$$$

 OpenBabel03242522043D

 37 39  0  0  1  0  0  0  0  0999 V2000
   36.9080   30.9300   38.2420 C   0  0  0  0  0  0  0  0  0  0  0  0
   36.7740   30.0220   39.3040 C   0  0  0  0  0  0  0  0  0  0  0  0
   37.7760   29.9740   40.2690 C   0  0  0  0  0  0  0  0  0  0  0  0
   38.8300   30.8150   40.1230 N   0  0  0  0  0  0  0  0  0  0  0  0
   38.9360   31.6810   39.0890 C   0  0  0  0  0  0  0  0  0  0  0  0
   37.9690   31.7400   38.1440 N   0  0  0  0  0  0  0  0  0  0  0  0
   36.1200   30.9590   37.4970 H   0  0  0  0  0  0  0  0  0  0  0  0
   35.9340   29.3570   39.4150 H   0  0  0  0  0  0  0  0  0  0  0  0
   37.7570   29.0960   41.3960 N   0  0  0  0  0  0  0  0  0  0  0  0
   36.7420   28.0570   41.5060 C   0  0  0  0  0  0  0  0  0  0  0  0
   36.5610   27.6140   42.9240 C   0  0  0  0  0  0  0  0  0  0  0  0
   37.7610   27.2750   43.5990 N   0  0  0  0  0  0  0  0  0  0  0  0
   38.9070   28.0470   43.2980 C   0  0  2  0  0  0  0  0  0  0  0  0
   38.7350   29.2270   42.4280 C   0  0  0  0  0  0  0  0  0  0  0  0
   37.0960   27.1850   40.8890 H   0  0  0  0  0  0  0  0  0  0  0  0
   35.7660   28.3500   41.0910 H   0  0  0  0  0  0  0  0  0  0  0  0
   36.0620   28.4440   43.4700 H   0  0  0  0  0  0  0  0  0  0  0  0
   35.8510   26.7670   42.9370 H   0  0  0  0  0  0  0  0  0  0  0  0
   37.9210   26.2400   43.4600 H   0  0  0  0  0  0  0  0  0  0  0  0
   39.3390   28.4080   44.2650 H   0  0  0  0  0  0  0  0  0  0  0  0
   38.4280   30.0950   43.0780 H   0  0  0  0  0  0  0  0  0  0  0  0
   39.7290   29.5260   42.0260 H   0  0  0  0  0  0  0  0  0  0  0  0
   39.9340   27.1420   42.6450 C   0  0  0  0  0  0  0  0  0  0  0  0
   40.8040   26.6130   43.5950 F   0  0  0  0  0  0  0  0  0  0  0  0
   40.7270   27.9610   41.8500 F   0  0  0  0  0  0  0  0  0  0  0  0
   39.3900   26.1080   41.9420 F   0  0  0  0  0  0  0  0  0  0  0  0
   40.7370   32.8680   37.8680 C   0  0  0  0  0  0  0  0  0  0  0  0
   40.1090   32.5240   39.0480 C   0  0  0  0  0  0  0  0  0  0  0  0
   40.6270   33.0060   40.2210 C   0  0  0  0  0  0  0  0  0  0  0  0
   40.1950   32.7840   41.1940 H   0  0  0  0  0  0  0  0  0  0  0  0
   41.7550   33.8230   40.2690 C   0  0  0  0  0  3  0  0  0  0  0  0
   42.3720   34.1600   39.0770 C   0  0  0  0  0  3  0  0  0  0  0  0
   41.8600   33.6800   37.8840 C   0  0  0  0  0  0  0  0  0  0  0  0
   40.1900   32.3640   36.6900 O   0  0  0  0  0  0  0  0  0  0  0  0
   39.3090   32.7440   36.3560 H   0  0  0  0  0  0  0  0  0  0  0  0
   42.4790   34.0170   36.6880 O   0  0  0  0  0  0  0  0  0  0  0  0
   42.1060   34.7530   36.1010 H   0  0  0  0  0  0  0  0  0  0  0  0
  1  2  1  0  0  0  0
  2  8  1  0  0  0  0
  2  3  2  0  0  0  0
  3  9  1  0  0  0  0
  4  3  1  0  0  0  0
  5  4  2  0  0  0  0
  6  1  2  0  0  0  0
  6  5  1  0  0  0  0
  7  1  1  0  0  0  0
  9 10  1  0  0  0  0
  9 14  1  0  0  0  0
 10 11  1  0  0  0  0
 11 18  1  0  0  0  0
 11 17  1  0  0  0  0
 11 12  1  0  0  0  0
 13 12  1  0  0  0  0
 13 20  1  1  0  0  0
 14 21  1  0  0  0  0
 14 13  1  0  0  0  0
 15 10  1  0  0  0  0
 16 10  1  0  0  0  0
 19 12  1  0  0  0  0
 22 14  1  0  0  0  0
 23 13  1  0  0  0  0
 23 24  1  0  0  0  0
 25 23  1  0  0  0  0
 26 23  1  0  0  0  0
 27 33  2  0  0  0  0
 27 28  1  0  0  0  0
 28  5  1  0  0  0  0
 28 29  2  0  0  0  0
 29 31  1  0  0  0  0
 29 30  1  0  0  0  0
 32 31  2  0  0  0  0
 33 32  1  0  0  0  0
 34 27  1  0  0  0  0
 35 34  1  0  0  0  0
 36 33  1  0  0  0  0
 37 36  1  0  0  0  0
M  END
>  <minimizedAffinity>
-6.41817617

$$$$

 OpenBabel03242522043D

 37 39  0  0  1  0  0  0  0  0999 V2000
   37.0880   27.9780   43.6800 C   0  0  0  0  0  0  0  0  0  0  0  0
   37.0130   26.7620   42.9830 C   0  0  0  0  0  0  0  0  0  0  0  0
   37.2990   26.7560   41.6210 C   0  0  0  0  0  0  0  0  0  0  0  0
   37.6380   27.9370   41.0450 N   0  0  0  0  0  0  0  0  0  0  0  0
   37.7030   29.0960   41.7390 C   0  0  0  0  0  0  0  0  0  0  0  0
   37.4280   29.1170   43.0640 N   0  0  0  0  0  0  0  0  0  0  0  0
   36.8630   27.9700   44.7400 H   0  0  0  0  0  0  0  0  0  0  0  0
   36.7440   25.8270   43.4460 H   0  0  0  0  0  0  0  0  0  0  0  0
   37.2590   25.5860   40.8020 N   0  0  0  0  0  0  0  0  0  0  0  0
   36.8480   24.3060   41.3620 C   0  0  0  0  0  0  0  0  0  0  0  0
   37.3540   23.1600   40.5440 C   0  0  0  0  0  0  0  0  0  0  0  0
   37.0860   23.2570   39.1550 N   0  0  0  0  0  0  0  0  0  0  0  0
   37.1440   24.5470   38.5770 C   0  0  2  0  0  0  0  0  0  0  0  0
   37.6200   25.6600   39.4230 C   0  0  0  0  0  0  0  0  0  0  0  0
   35.7220   24.2930   41.3600 H   0  0  0  0  0  0  0  0  0  0  0  0
   37.1530   24.1650   42.4100 H   0  0  0  0  0  0  0  0  0  0  0  0
   38.4530   23.1040   40.6950 H   0  0  0  0  0  0  0  0  0  0  0  0
   36.9380   22.2240   40.9590 H   0  0  0  0  0  0  0  0  0  0  0  0
   36.1630   22.7740   38.9760 H   0  0  0  0  0  0  0  0  0  0  0  0
   37.8210   24.4920   37.6880 H   0  0  0  0  0  0  0  0  0  0  0  0
   38.7460   25.6790   39.3670 H   0  0  0  0  0  0  0  0  0  0  0  0
   37.3080   26.6220   38.9600 H   0  0  0  0  0  0  0  0  0  0  0  0
   35.7570   24.9100   38.0800 C   0  0  0  0  0  0  0  0  0  0  0  0
   34.7930   24.0920   38.6630 F   0  0  0  0  0  0  0  0  0  0  0  0
   35.7310   24.5880   36.7280 F   0  0  0  0  0  0  0  0  0  0  0  0
   35.4120   26.2090   38.3090 F   0  0  0  0  0  0  0  0  0  0  0  0
   37.1990   31.3290   40.7890 C   0  0  0  0  0  0  0  0  0  0  0  0
   38.0760   30.2860   41.0080 C   0  0  0  0  0  0  0  0  0  0  0  0
   39.3460   30.3920   40.5070 C   0  0  0  0  0  0  0  0  0  0  0  0
   40.0990   29.6170   40.6330 H   0  0  0  0  0  0  0  0  0  0  0  0
   39.7840   31.5050   39.7910 C   0  0  0  0  0  3  0  0  0  0  0  0
   38.8940   32.5420   39.5820 C   0  0  0  0  0  3  0  0  0  0  0  0
   37.6060   32.4490   40.0810 C   0  0  0  0  0  0  0  0  0  0  0  0
   35.9130   31.1950   41.3090 O   0  0  0  0  0  0  0  0  0  0  0  0
   35.7800   31.2660   42.3140 H   0  0  0  0  0  0  0  0  0  0  0  0
   36.7130   33.4900   39.8710 O   0  0  0  0  0  0  0  0  0  0  0  0
   36.5270   34.1690   40.5990 H   0  0  0  0  0  0  0  0  0  0  0  0
  1  7  1  0  0  0  0
  2  8  1  0  0  0  0
  2  1  2  0  0  0  0
  3  2  1  0  0  0  0
  4  3  2  0  0  0  0
  4  5  1  0  0  0  0
  5  6  2  0  0  0  0
  6  1  1  0  0  0  0
  9 10  1  0  0  0  0
  9  3  1  0  0  0  0
 10 16  1  0  0  0  0
 11 17  1  0  0  0  0
 11 18  1  0  0  0  0
 11 10  1  0  0  0  0
 12 11  1  0  0  0  0
 13 20  1  6  0  0  0
 13 12  1  0  0  0  0
 13 14  1  0  0  0  0
 14  9  1  0  0  0  0
 15 10  1  0  0  0  0
 19 12  1  0  0  0  0
 21 14  1  0  0  0  0
 22 14  1  0  0  0  0
 23 26  1  0  0  0  0
 23 13  1  0  0  0  0
 23 24  1  0  0  0  0
 25 23  1  0  0  0  0
 27 28  1  0  0  0  0
 27 34  1  0  0  0  0
 28  5  1  0  0  0  0
 29 30  1  0  0  0  0
 29 28  2  0  0  0  0
 31 29  1  0  0  0  0
 32 31  2  0  0  0  0
 32 33  1  0  0  0  0
 33 27  2  0  0  0  0
 34 35  1  0  0  0  0
 36 33  1  0  0  0  0
 36 37  1  0  0  0  0
M  END
>  <minimizedAffinity>
-6.20781422

$$$$

 OpenBabel03242522043D

 37 39  0  0  1  0  0  0  0  0999 V2000
   36.9870   27.9760   43.3590 C   0  0  0  0  0  0  0  0  0  0  0  0
   37.2590   26.8070   42.6320 C   0  0  0  0  0  0  0  0  0  0  0  0
   37.8570   26.9240   41.3810 C   0  0  0  0  0  0  0  0  0  0  0  0
   38.1440   28.1730   40.9360 N   0  0  0  0  0  0  0  0  0  0  0  0
   37.8720   29.2850   41.6560 C   0  0  0  0  0  0  0  0  0  0  0  0
   37.2910   29.1870   42.8750 N   0  0  0  0  0  0  0  0  0  0  0  0
   36.5210   27.8720   44.3320 H   0  0  0  0  0  0  0  0  0  0  0  0
   37.0300   25.8170   42.9910 H   0  0  0  0  0  0  0  0  0  0  0  0
   38.1840   25.8120   40.5460 N   0  0  0  0  0  0  0  0  0  0  0  0
   39.4450   25.1040   40.7180 C   0  0  0  0  0  0  0  0  0  0  0  0
   39.8300   24.3580   39.4790 C   0  0  0  0  0  0  0  0  0  0  0  0
   38.8120   23.5310   38.9420 N   0  0  0  0  0  0  0  0  0  0  0  0
   37.4830   24.0090   39.0290 C   0  0  2  0  0  0  0  0  0  0  0  0
   37.2760   25.3810   39.5310 C   0  0  0  0  0  0  0  0  0  0  0  0
   39.2970   24.3710   41.5600 H   0  0  0  0  0  0  0  0  0  0  0  0
   40.2780   25.7560   41.0220 H   0  0  0  0  0  0  0  0  0  0  0  0
   40.1230   25.1110   38.7160 H   0  0  0  0  0  0  0  0  0  0  0  0
   40.7400   23.7690   39.6950 H   0  0  0  0  0  0  0  0  0  0  0  0
   38.9260   22.5700   39.3680 H   0  0  0  0  0  0  0  0  0  0  0  0
   37.0350   23.9580   38.0050 H   0  0  0  0  0  0  0  0  0  0  0  0
   37.3810   26.0880   38.6600 H   0  0  0  0  0  0  0  0  0  0  0  0
   36.2150   25.4930   39.8460 H   0  0  0  0  0  0  0  0  0  0  0  0
   36.6960   23.0700   39.9240 C   0  0  0  0  0  0  0  0  0  0  0  0
   37.5520   22.2940   40.7010 F   0  0  0  0  0  0  0  0  0  0  0  0
   36.0610   22.1670   39.0790 F   0  0  0  0  0  0  0  0  0  0  0  0
   35.8210   23.7040   40.7550 F   0  0  0  0  0  0  0  0  0  0  0  0
   37.2860   31.5090   40.7310 C   0  0  0  0  0  0  0  0  0  0  0  0
   38.2270   30.5580   41.0690 C   0  0  0  0  0  0  0  0  0  0  0  0
   39.5460   30.8400   40.8350 C   0  0  0  0  0  0  0  0  0  0  0  0
   40.3510   30.1470   41.0700 H   0  0  0  0  0  0  0  0  0  0  0  0
   39.9720   32.0420   40.2720 C   0  0  0  0  0  3  0  0  0  0  0  0
   39.0170   32.9860   39.9400 C   0  0  0  0  0  3  0  0  0  0  0  0
   37.6790   32.7140   40.1710 C   0  0  0  0  0  0  0  0  0  0  0  0
   35.9510   31.1960   40.9810 O   0  0  0  0  0  0  0  0  0  0  0  0
   35.6220   31.1810   41.9410 H   0  0  0  0  0  0  0  0  0  0  0  0
   36.7210   33.6610   39.8380 O   0  0  0  0  0  0  0  0  0  0  0  0
   36.3180   34.2620   40.5460 H   0  0  0  0  0  0  0  0  0  0  0  0
  1  7  1  0  0  0  0
  2  8  1  0  0  0  0
  2  1  2  0  0  0  0
  3  2  1  0  0  0  0
  4  3  2  0  0  0  0
  4  5  1  0  0  0  0
  5  6  2  0  0  0  0
  6  1  1  0  0  0  0
  9 10  1  0  0  0  0
  9  3  1  0  0  0  0
 10 16  1  0  0  0  0
 10 15  1  0  0  0  0
 11 18  1  0  0  0  0
 11 10  1  0  0  0  0
 12 13  1  0  0  0  0
 12 19  1  0  0  0  0
 12 11  1  0  0  0  0
 13 20  1  6  0  0  0
 13 14  1  0  0  0  0
 13 23  1  0  0  0  0
 14 22  1  0  0  0  0
 14  9  1  0  0  0  0
 17 11  1  0  0  0  0
 21 14  1  0  0  0  0
 23 24  1  0  0  0  0
 23 26  1  0  0  0  0
 25 23  1  0  0  0  0
 27 34  1  0  0  0  0
 27 28  1  0  0  0  0
 28  5  1  0  0  0  0
 29 28  2  0  0  0  0
 29 30  1  0  0  0  0
 31 29  1  0  0  0  0
 32 33  1  0  0  0  0
 32 31  2  0  0  0  0
 33 27  2  0  0  0  0
 34 35  1  0  0  0  0
 36 33  1  0  0  0  0
 36 37  1  0  0  0  0
M  END
>  <minimizedAffinity>
-6.14171314

$$$$

 OpenBabel03242522043D

 37 39  0  0  1  0  0  0  0  0999 V2000
   33.5430   26.9950   36.3150 C   0  0  0  0  0  0  0  0  0  0  0  0
   34.4890   27.0710   37.3490 C   0  0  0  0  0  0  0  0  0  0  0  0
   34.4300   28.1480   38.2280 C   0  0  0  0  0  0  0  0  0  0  0  0
   33.4530   29.0680   38.0310 N   0  0  0  0  0  0  0  0  0  0  0  0
   32.5520   28.9720   37.0260 C   0  0  0  0  0  0  0  0  0  0  0  0
   32.5960   27.9300   36.1640 N   0  0  0  0  0  0  0  0  0  0  0  0
   33.5990   26.1510   35.6360 H   0  0  0  0  0  0  0  0  0  0  0  0
   35.2640   26.3370   37.5010 H   0  0  0  0  0  0  0  0  0  0  0  0
   35.3340   28.3380   39.3180 N   0  0  0  0  0  0  0  0  0  0  0  0
   36.4260   27.4020   39.5450 C   0  0  0  0  0  0  0  0  0  0  0  0
   36.9100   27.4550   40.9600 C   0  0  0  0  0  0  0  0  0  0  0  0
   37.2020   28.7560   41.4400 N   0  0  0  0  0  0  0  0  0  0  0  0
   36.3650   29.8080   40.9980 C   0  0  2  0  0  0  0  0  0  0  0  0
   35.1760   29.4520   40.1980 C   0  0  0  0  0  0  0  0  0  0  0  0
   37.2640   27.7020   38.8560 H   0  0  0  0  0  0  0  0  0  0  0  0
   36.1740   26.3620   39.2870 H   0  0  0  0  0  0  0  0  0  0  0  0
   36.1200   27.0040   41.5980 H   0  0  0  0  0  0  0  0  0  0  0  0
   37.7930   26.7960   41.0510 H   0  0  0  0  0  0  0  0  0  0  0  0
   38.2240   28.9430   41.2480 H   0  0  0  0  0  0  0  0  0  0  0  0
   36.0040   30.3600   41.9010 H   0  0  0  0  0  0  0  0  0  0  0  0
   34.3400   29.2040   40.9120 H   0  0  0  0  0  0  0  0  0  0  0  0
   34.8180   30.3590   39.6630 H   0  0  0  0  0  0  0  0  0  0  0  0
   37.2010   30.7680   40.1730 C   0  0  0  0  0  0  0  0  0  0  0  0
   37.6070   31.8560   40.9410 F   0  0  0  0  0  0  0  0  0  0  0  0
   36.3490   31.3030   39.2150 F   0  0  0  0  0  0  0  0  0  0  0  0
   38.3090   30.1990   39.6190 F   0  0  0  0  0  0  0  0  0  0  0  0
   30.7810   30.4110   37.9940 C   0  0  0  0  0  0  0  0  0  0  0  0
   31.5600   30.0180   36.9240 C   0  0  0  0  0  0  0  0  0  0  0  0
   31.3760   30.6510   35.7240 C   0  0  0  0  0  0  0  0  0  0  0  0
   31.9460   30.4030   34.8310 H   0  0  0  0  0  0  0  0  0  0  0  0
   30.4410   31.6680   35.5420 C   0  0  0  0  0  3  0  0  0  0  0  0
   29.6690   32.0510   36.6240 C   0  0  0  0  0  3  0  0  0  0  0  0
   29.8430   31.4200   37.8440 C   0  0  0  0  0  0  0  0  0  0  0  0
   30.9880   29.7510   39.2040 O   0  0  0  0  0  0  0  0  0  0  0  0
   31.8390   29.9390   39.7270 H   0  0  0  0  0  0  0  0  0  0  0  0
   29.0690   31.8030   38.9300 O   0  0  0  0  0  0  0  0  0  0  0  0
   29.4410   32.4230   39.6390 H   0  0  0  0  0  0  0  0  0  0  0  0
  1  2  1  0  0  0  0
  2  8  1  0  0  0  0
  2  3  2  0  0  0  0
  3  9  1  0  0  0  0
  4  3  1  0  0  0  0
  5  4  2  0  0  0  0
  6  1  2  0  0  0  0
  6  5  1  0  0  0  0
  7  1  1  0  0  0  0
  9 10  1  0  0  0  0
  9 14  1  0  0  0  0
 10 11  1  0  0  0  0
 11 18  1  0  0  0  0
 11 12  1  0  0  0  0
 11 17  1  0  0  0  0
 13 12  1  0  0  0  0
 13 20  1  1  0  0  0
 14 21  1  0  0  0  0
 14 13  1  0  0  0  0
 15 10  1  0  0  0  0
 16 10  1  0  0  0  0
 19 12  1  0  0  0  0
 22 14  1  0  0  0  0
 23 24  1  0  0  0  0
 23 13  1  0  0  0  0
 25 23  1  0  0  0  0
 26 23  1  0  0  0  0
 27 34  1  0  0  0  0
 28  5  1  0  0  0  0
 28 27  2  0  0  0  0
 29 28  1  0  0  0  0
 30 29  1  0  0  0  0
 31 29  2  0  0  0  0
 31 32  1  0  0  0  0
 32 33  2  0  0  0  0
 33 27  1  0  0  0  0
 33 36  1  0  0  0  0
 34 35  1  0  0  0  0
 36 37  1  0  0  0  0
M  END
>  <minimizedAffinity>
-6.02090693

$$$$

 OpenBabel03242522043D

 37 39  0  0  1  0  0  0  0  0999 V2000
   37.7560   28.2450   43.5510 C   0  0  0  0  0  0  0  0  0  0  0  0
   37.9250   29.4130   42.7910 C   0  0  0  0  0  0  0  0  0  0  0  0
   37.8720   29.3190   41.4040 C   0  0  0  0  0  0  0  0  0  0  0  0
   37.6570   28.0920   40.8650 N   0  0  0  0  0  0  0  0  0  0  0  0
   37.4980   26.9800   41.6200 C   0  0  0  0  0  0  0  0  0  0  0  0
   37.5460   27.0570   42.9700 N   0  0  0  0  0  0  0  0  0  0  0  0
   37.8000   28.3310   44.6310 H   0  0  0  0  0  0  0  0  0  0  0  0
   38.0950   30.3850   43.2250 H   0  0  0  0  0  0  0  0  0  0  0  0
   38.0280   30.4310   40.5220 N   0  0  0  0  0  0  0  0  0  0  0  0
   36.8770   31.2390   40.1400 C   0  0  0  0  0  0  0  0  0  0  0  0
   37.1260   31.9820   38.8650 C   0  0  0  0  0  0  0  0  0  0  0  0
   38.3390   32.7140   38.8300 N   0  0  0  0  0  0  0  0  0  0  0  0
   39.4580   32.1370   39.4770 C   0  0  2  0  0  0  0  0  0  0  0  0
   39.3160   30.7660   40.0050 C   0  0  0  0  0  0  0  0  0  0  0  0
   36.7060   31.9780   40.9710 H   0  0  0  0  0  0  0  0  0  0  0  0
   35.9460   30.6610   40.0460 H   0  0  0  0  0  0  0  0  0  0  0  0
   37.1320   31.2350   38.0420 H   0  0  0  0  0  0  0  0  0  0  0  0
   36.2630   32.6440   38.6730 H   0  0  0  0  0  0  0  0  0  0  0  0
   38.1300   33.6900   39.1760 H   0  0  0  0  0  0  0  0  0  0  0  0
   40.3060   32.1270   38.7490 H   0  0  0  0  0  0  0  0  0  0  0  0
   39.5410   30.0470   39.1650 H   0  0  0  0  0  0  0  0  0  0  0  0
   40.1250   30.5800   40.7460 H   0  0  0  0  0  0  0  0  0  0  0  0
   39.8540   33.0340   40.6350 C   0  0  0  0  0  0  0  0  0  0  0  0
   40.8160   33.9590   40.2370 F   0  0  0  0  0  0  0  0  0  0  0  0
   40.5000   32.2190   41.5560 F   0  0  0  0  0  0  0  0  0  0  0  0
   38.8100   33.7140   41.1880 F   0  0  0  0  0  0  0  0  0  0  0  0
   37.8580   24.5460   41.3210 C   0  0  0  0  0  0  0  0  0  0  0  0
   37.2760   25.7330   40.9230 C   0  0  0  0  0  0  0  0  0  0  0  0
   36.4580   25.7180   39.8250 C   0  0  0  0  0  0  0  0  0  0  0  0
   35.9600   26.6070   39.4450 H   0  0  0  0  0  0  0  0  0  0  0  0
   36.1930   24.5590   39.0980 C   0  0  0  0  0  3  0  0  0  0  0  0
   36.7830   23.3770   39.5090 C   0  0  0  0  0  3  0  0  0  0  0  0
   37.6120   23.3780   40.6180 C   0  0  0  0  0  0  0  0  0  0  0  0
   38.6860   24.5910   42.4400 O   0  0  0  0  0  0  0  0  0  0  0  0
   38.2650   24.7150   43.3570 H   0  0  0  0  0  0  0  0  0  0  0  0
   38.2050   22.1920   41.0300 O   0  0  0  0  0  0  0  0  0  0  0  0
   37.8220   21.6630   41.8040 H   0  0  0  0  0  0  0  0  0  0  0  0
  1  7  1  0  0  0  0
  2  8  1  0  0  0  0
  2  1  2  0  0  0  0
  3  2  1  0  0  0  0
  4  3  2  0  0  0  0
  4  5  1  0  0  0  0
  5  6  2  0  0  0  0
  6  1  1  0  0  0  0
  9  3  1  0  0  0  0
 10  9  1  0  0  0  0
 10 15  1  0  0  0  0
 11 10  1  0  0  0  0
 12 11  1  0  0  0  0
 12 19  1  0  0  0  0
 12 13  1  0  0  0  0
 13 20  1  6  0  0  0
 13 14  1  0  0  0  0
 13 23  1  0  0  0  0
 14  9  1  0  0  0  0
 14 22  1  0  0  0  0
 16 10  1  0  0  0  0
 17 11  1  0  0  0  0
 18 11  1  0  0  0  0
 21 14  1  0  0  0  0
 23 26  1  0  0  0  0
 23 25  1  0  0  0  0
 24 23  1  0  0  0  0
 27 34  1  0  0  0  0
 28 27  1  0  0  0  0
 28  5  1  0  0  0  0
 29 28  2  0  0  0  0
 30 29  1  0  0  0  0
 31 32  2  0  0  0  0
 31 29  1  0  0  0  0
 32 33  1  0  0  0  0
 33 36  1  0  0  0  0
 33 27  2  0  0  0  0
 34 35  1  0  0  0  0
 36 37  1  0  0  0  0
M  END
>  <minimizedAffinity>
-6.00381231

$$$$

 OpenBabel03242522043D

 37 39  0  0  1  0  0  0  0  0999 V2000
   34.8050   28.7070   35.6690 C   0  0  0  0  0  0  0  0  0  0  0  0
   33.4830   29.1640   35.7900 C   0  0  0  0  0  0  0  0  0  0  0  0
   32.9040   29.2010   37.0540 C   0  0  0  0  0  0  0  0  0  0  0  0
   33.6590   28.7890   38.1040 N   0  0  0  0  0  0  0  0  0  0  0  0
   34.9320   28.3520   37.9610 C   0  0  0  0  0  0  0  0  0  0  0  0
   35.5090   28.3120   36.7370 N   0  0  0  0  0  0  0  0  0  0  0  0
   35.2450   28.6830   34.6780 H   0  0  0  0  0  0  0  0  0  0  0  0
   32.8880   29.4900   34.9520 H   0  0  0  0  0  0  0  0  0  0  0  0
   31.5700   29.6440   37.3080 N   0  0  0  0  0  0  0  0  0  0  0  0
   31.1160   29.8760   38.6730 C   0  0  0  0  0  0  0  0  0  0  0  0
   29.6240   29.8190   38.7720 C   0  0  0  0  0  0  0  0  0  0  0  0
   28.9330   30.6180   37.8270 N   0  0  0  0  0  0  0  0  0  0  0  0
   29.4970   30.7140   36.5330 C   0  0  2  0  0  0  0  0  0  0  0  0
   30.6660   29.8670   36.2260 C   0  0  0  0  0  0  0  0  0  0  0  0
   31.4670   30.9050   38.9650 H   0  0  0  0  0  0  0  0  0  0  0  0
   31.5550   29.1830   39.4060 H   0  0  0  0  0  0  0  0  0  0  0  0
   29.3230   28.7580   38.6360 H   0  0  0  0  0  0  0  0  0  0  0  0
   29.3330   30.0910   39.8030 H   0  0  0  0  0  0  0  0  0  0  0  0
   28.7710   31.5630   38.2700 H   0  0  0  0  0  0  0  0  0  0  0  0
   28.6980   30.4600   35.7920 H   0  0  0  0  0  0  0  0  0  0  0  0
   30.2850   28.8610   35.8900 H   0  0  0  0  0  0  0  0  0  0  0  0
   31.1820   30.2760   35.3290 H   0  0  0  0  0  0  0  0  0  0  0  0
   29.9030   32.1570   36.2950 C   0  0  0  0  0  0  0  0  0  0  0  0
   31.1110   32.2250   35.6060 F   0  0  0  0  0  0  0  0  0  0  0  0
   30.1730   32.6970   37.5470 F   0  0  0  0  0  0  0  0  0  0  0  0
   28.9780   32.8840   35.6070 F   0  0  0  0  0  0  0  0  0  0  0  0
   35.6900   28.7300   40.2910 C   0  0  0  0  0  0  0  0  0  0  0  0
   35.6290   27.9420   39.1590 C   0  0  0  0  0  0  0  0  0  0  0  0
   36.2580   26.7260   39.1820 C   0  0  0  0  0  0  0  0  0  0  0  0
   36.2600   26.0440   38.3350 H   0  0  0  0  0  0  0  0  0  0  0  0
   36.9520   26.2560   40.2960 C   0  0  0  0  0  3  0  0  0  0  0  0
   37.0030   27.0570   41.4230 C   0  0  0  0  0  3  0  0  0  0  0  0
   36.3720   28.2900   41.4140 C   0  0  0  0  0  0  0  0  0  0  0  0
   35.0420   29.9620   40.2400 O   0  0  0  0  0  0  0  0  0  0  0  0
   34.0260   29.9840   40.2540 H   0  0  0  0  0  0  0  0  0  0  0  0
   36.4230   29.0930   42.5440 O   0  0  0  0  0  0  0  0  0  0  0  0
   35.6410   29.1350   43.1860 H   0  0  0  0  0  0  0  0  0  0  0  0
  1  2  2  0  0  0  0
  1  6  1  0  0  0  0
  2  3  1  0  0  0  0
  3  9  1  0  0  0  0
  3  4  2  0  0  0  0
  5  4  1  0  0  0  0
  5 28  1  0  0  0  0
  6  5  2  0  0  0  0
  7  1  1  0  0  0  0
  8  2  1  0  0  0  0
  9 10  1  0  0  0  0
 10 11  1  0  0  0  0
 10 15  1  0  0  0  0
 10 16  1  0  0  0  0
 11 18  1  0  0  0  0
 12 19  1  0  0  0  0
 12 11  1  0  0  0  0
 13 20  1  6  0  0  0
 13 12  1  0  0  0  0
 14 13  1  0  0  0  0
 14  9  1  0  0  0  0
 17 11  1  0  0  0  0
 21 14  1  0  0  0  0
 22 14  1  0  0  0  0
 23 13  1  0  0  0  0
 23 25  1  0  0  0  0
 24 23  1  0  0  0  0
 26 23  1  0  0  0  0
 27 33  1  0  0  0  0
 28 29  1  0  0  0  0
 28 27  2  0  0  0  0
 29 31  2  0  0  0  0
 30 29  1  0  0  0  0
 31 32  1  0  0  0  0
 33 32  2  0  0  0  0
 33 36  1  0  0  0  0
 34 35  1  0  0  0  0
 34 27  1  0  0  0  0
 36 37  1  0  0  0  0
M  END
>  <minimizedAffinity>
-5.97272921

$$$$

 OpenBabel03242522043D

 37 39  0  0  1  0  0  0  0  0999 V2000
   37.4050   28.1280   43.6630 C   0  0  0  0  0  0  0  0  0  0  0  0
   37.6540   29.3270   42.9770 C   0  0  0  0  0  0  0  0  0  0  0  0
   37.7380   29.2950   41.5890 C   0  0  0  0  0  0  0  0  0  0  0  0
   37.5730   28.0960   40.9760 N   0  0  0  0  0  0  0  0  0  0  0  0
   37.3350   26.9530   41.6600 C   0  0  0  0  0  0  0  0  0  0  0  0
   37.2490   26.9690   43.0110 N   0  0  0  0  0  0  0  0  0  0  0  0
   37.3410   28.1660   44.7450 H   0  0  0  0  0  0  0  0  0  0  0  0
   37.7840   30.2770   43.4690 H   0  0  0  0  0  0  0  0  0  0  0  0
   37.9870   30.4450   40.7780 N   0  0  0  0  0  0  0  0  0  0  0  0
   39.3120   31.0480   40.7360 C   0  0  0  0  0  0  0  0  0  0  0  0
   39.2530   32.4730   40.2850 C   0  0  0  0  0  0  0  0  0  0  0  0
   38.5200   32.6900   39.0910 N   0  0  0  0  0  0  0  0  0  0  0  0
   37.3670   31.8950   38.8910 C   0  0  2  0  0  0  0  0  0  0  0  0
   36.9360   31.0160   39.9970 C   0  0  0  0  0  0  0  0  0  0  0  0
   39.9200   30.4520   40.0000 H   0  0  0  0  0  0  0  0  0  0  0  0
   39.8500   30.9930   41.6940 H   0  0  0  0  0  0  0  0  0  0  0  0
   38.7880   33.0620   41.1050 H   0  0  0  0  0  0  0  0  0  0  0  0
   40.2870   32.8500   40.1840 H   0  0  0  0  0  0  0  0  0  0  0  0
   39.2010   32.6260   38.2860 H   0  0  0  0  0  0  0  0  0  0  0  0
   36.5140   32.5810   38.6610 H   0  0  0  0  0  0  0  0  0  0  0  0
   36.2900   31.6250   40.6910 H   0  0  0  0  0  0  0  0  0  0  0  0
   36.2480   30.2410   39.5930 H   0  0  0  0  0  0  0  0  0  0  0  0
   37.5960   31.0200   37.6730 C   0  0  0  0  0  0  0  0  0  0  0  0
   37.4060   31.7460   36.5000 F   0  0  0  0  0  0  0  0  0  0  0  0
   36.5800   30.0720   37.6770 F   0  0  0  0  0  0  0  0  0  0  0  0
   38.8340   30.4500   37.6280 F   0  0  0  0  0  0  0  0  0  0  0  0
   37.7220   24.5350   41.2820 C   0  0  0  0  0  0  0  0  0  0  0  0
   37.1780   25.7410   40.8900 C   0  0  0  0  0  0  0  0  0  0  0  0
   36.4620   25.7790   39.7230 C   0  0  0  0  0  0  0  0  0  0  0  0
   36.0000   26.6860   39.3410 H   0  0  0  0  0  0  0  0  0  0  0  0
   36.2640   24.6550   38.9220 C   0  0  0  0  0  3  0  0  0  0  0  0
   36.8160   23.4540   39.3290 C   0  0  0  0  0  3  0  0  0  0  0  0
   37.5420   23.4000   40.5070 C   0  0  0  0  0  0  0  0  0  0  0  0
   38.4460   24.5240   42.4730 O   0  0  0  0  0  0  0  0  0  0  0  0
   37.9440   24.6080   43.3530 H   0  0  0  0  0  0  0  0  0  0  0  0
   38.0960   22.1950   40.9150 O   0  0  0  0  0  0  0  0  0  0  0  0
   37.6450   21.6320   41.6260 H   0  0  0  0  0  0  0  0  0  0  0  0
  1  7  1  0  0  0  0
  2  8  1  0  0  0  0
  2  1  2  0  0  0  0
  3  2  1  0  0  0  0
  4  3  2  0  0  0  0
  4  5  1  0  0  0  0
  5  6  2  0  0  0  0
  6  1  1  0  0  0  0
  9  3  1  0  0  0  0
 10  9  1  0  0  0  0
 10 16  1  0  0  0  0
 11 10  1  0  0  0  0
 11 17  1  0  0  0  0
 12 11  1  0  0  0  0
 13 20  1  6  0  0  0
 13 12  1  0  0  0  0
 13 14  1  0  0  0  0
 14 21  1  0  0  0  0
 14  9  1  0  0  0  0
 15 10  1  0  0  0  0
 18 11  1  0  0  0  0
 19 12  1  0  0  0  0
 22 14  1  0  0  0  0
 23 25  1  0  0  0  0
 23 13  1  0  0  0  0
 24 23  1  0  0  0  0
 26 23  1  0  0  0  0
 27 34  1  0  0  0  0
 28 27  1  0  0  0  0
 28  5  1  0  0  0  0
 29 28  2  0  0  0  0
 30 29  1  0  0  0  0
 31 32  2  0  0  0  0
 31 29  1  0  0  0  0
 32 33  1  0  0  0  0
 33 36  1  0  0  0  0
 33 27  2  0  0  0  0
 34 35  1  0  0  0  0
 36 37  1  0  0  0  0
M  END
>  <minimizedAffinity>
-5.92238522

$$$$
