
 OpenBabel03242521533D

 38 41  0  0  0  0  0  0  0  0999 V2000
   45.9260   32.3590   46.0830 C   0  0  0  0  0  0  0  0  0  0  0  0
   45.6080   33.0150   47.2640 C   0  0  0  0  0  0  0  0  0  0  0  0
   45.8250   32.4610   48.5330 C   0  0  0  0  0  0  0  0  0  0  0  0
   46.3800   31.2050   48.6610 C   0  0  0  0  0  0  0  0  0  0  0  0
   46.7070   30.5130   47.4870 C   0  0  0  0  0  0  0  0  0  0  0  0
   47.1920   29.2450   47.6410 C   0  0  0  0  0  0  0  0  0  0  0  0
   47.4370   28.4920   46.4900 C   0  0  0  0  0  0  0  0  0  0  0  0
   47.1550   29.0900   45.2160 C   0  0  0  0  0  0  0  0  0  0  0  0
   46.6710   30.3700   45.2010 C   0  0  0  0  0  0  0  0  0  0  0  0
   46.4490   31.1360   46.2760 C   0  0  0  0  0  0  0  0  0  0  0  0
   45.1680   34.0110   47.1500 H   0  0  0  0  0  0  0  0  0  0  0  0
   45.5300   33.0780   49.3610 H   0  0  0  0  0  0  0  0  0  0  0  0
   46.5540   30.7780   49.6100 H   0  0  0  0  0  0  0  0  0  0  0  0
   47.3690   28.8690   48.6440 H   0  0  0  0  0  0  0  0  0  0  0  0
   47.8380   27.5010   46.7660 H   0  0  0  0  0  0  0  0  0  0  0  0
   47.4350   28.2780   44.5510 H   0  0  0  0  0  0  0  0  0  0  0  0
   45.2420   34.1410   42.8910 C   0  0  0  0  0  0  0  0  0  0  0  0
   46.5430   34.5470   42.5540 C   0  0  0  0  0  0  0  0  0  0  0  0
   47.5590   34.1580   43.4060 C   0  0  0  0  0  0  0  0  0  0  0  0
   47.1790   33.4380   44.4600 N   0  0  0  0  0  0  0  0  0  0  0  0
   45.9880   33.0410   44.8070 C   0  0  0  0  0  0  0  0  0  0  0  0
   45.0250   33.4180   43.9810 N   0  0  0  0  0  0  0  0  0  0  0  0
   44.4110   34.4290   42.2420 H   0  0  0  0  0  0  0  0  0  0  0  0
   46.7710   35.1310   41.6850 H   0  0  0  0  0  0  0  0  0  0  0  0
   48.9400   34.4130   43.1450 N   0  0  0  0  0  0  0  0  0  0  0  0
   49.4450   34.4290   42.2310 H   0  0  0  0  0  0  0  0  0  0  0  0
   49.4940   34.6060   43.9870 H   0  0  0  0  0  0  0  0  0  0  0  0
   44.8720   29.7610   43.8420 C   0  0  0  0  0  0  0  0  0  0  0  0
   46.1960   30.2840   43.8380 C   0  0  0  0  0  0  0  0  0  0  0  0
   46.6730   30.3730   42.5800 C   0  0  0  0  0  0  0  0  0  0  0  0
   47.7060   30.7360   42.6680 H   0  0  0  0  0  0  0  0  0  0  0  0
   46.0060   30.0240   41.4320 C   0  0  0  0  0  0  0  0  0  0  0  0
   44.7300   29.5250   41.4700 C   0  0  0  0  0  0  0  0  0  0  0  0
   44.1670   29.3980   42.7160 C   0  0  0  0  0  0  0  0  0  0  0  0
   44.0720   29.5290   44.9850 O   0  0  0  0  0  0  0  0  0  0  0  0
   44.4030   28.7890   45.5970 H   0  0  0  0  0  0  0  0  0  0  0  0
   42.8770   28.8860   42.6870 O   0  0  0  0  0  0  0  0  0  0  0  0
   42.7130   28.0190   43.2140 H   0  0  0  0  0  0  0  0  0  0  0  0
  1 10  2  0  0  0  0
  1  2  1  0  0  0  0
  2  3  2  0  0  0  0
  3  4  1  0  0  0  0
  3 12  1  0  0  0  0
  4 13  1  0  0  0  0
  5  6  1  0  0  0  0
  5  4  2  0  0  0  0
  6 14  1  0  0  0  0
  7 15  1  0  0  0  0
  7  6  2  0  0  0  0
  8  7  1  0  0  0  0
  9  8  2  0  0  0  0
  9 10  1  0  0  0  0
 10  5  1  0  0  0  0
 11  2  1  0  0  0  0
 16  8  1  0  0  0  0
 17 22  1  0  0  0  0
 18 17  2  0  0  0  0
 18 19  1  0  0  0  0
 19 20  2  0  0  0  0
 20 21  1  0  0  0  0
 21  1  1  0  0  0  0
 22 21  2  0  0  0  0
 23 17  1  0  0  0  0
 24 18  1  0  0  0  0
 25 19  1  0  0  0  0
 25 27  1  0  0  0  0
 26 25  1  0  0  0  0
 28 35  1  0  0  0  0
 29 28  1  0  0  0  0
 29  9  1  0  0  0  0
 30 31  1  0  0  0  0
 30 29  2  0  0  0  0
 32 33  2  0  0  0  0
 32 30  1  0  0  0  0
 33 34  1  0  0  0  0
 34 28  2  0  0  0  0
 35 36  1  0  0  0  0
 37 34  1  0  0  0  0
 37 38  1  0  0  0  0
M  END
>  <minimizedAffinity>
-4.99082661

>  <minimizedRMSD>
1.52915192

$$$$
