
 OpenBabel03242523233D

 45 48  0  0  1  0  0  0  0  0999 V2000
   47.6560   32.7820   43.6800 C   0  0  0  0  0  0  0  0  0  0  0  0
   48.3920   33.3980   42.7610 C   0  0  0  0  0  0  0  0  0  0  0  0
   49.2720   32.6030   42.0720 C   0  0  0  0  0  0  0  0  0  0  0  0
   49.3060   31.2320   42.4060 N   0  0  0  0  0  0  0  0  0  0  0  0
   48.5520   30.6860   43.3280 C   0  0  0  0  0  0  0  0  0  0  0  0
   47.6640   31.4610   44.0280 N   0  0  0  0  0  0  0  0  0  0  0  0
   49.9450   32.9420   41.2900 H   0  0  0  0  0  0  0  0  0  0  0  0
   48.7170   29.6150   43.4490 H   0  0  0  0  0  0  0  0  0  0  0  0
   48.4410   34.7960   42.4970 C   0  0  1  0  0  0  0  0  0  0  0  0
   49.3260   35.4890   41.7400 C   0  0  0  0  0  0  0  0  0  0  0  0
   47.9630   35.3400   41.1310 C   0  0  1  0  0  0  0  0  0  0  0  0
   48.0870   35.3920   43.3940 H   0  0  0  0  0  0  0  0  0  0  0  0
   50.1600   34.9290   41.2120 H   0  0  0  0  0  0  0  0  0  0  0  0
   49.6630   36.5490   41.8020 H   0  0  0  0  0  0  0  0  0  0  0  0
   47.2730   36.2310   41.2580 H   0  0  0  0  0  0  0  0  0  0  0  0
   48.2260   34.3480   38.6590 C   0  0  0  0  0  0  0  0  0  0  0  0
   47.7820   34.5230   39.9480 C   0  0  0  0  0  0  0  0  0  0  0  0
   46.7420   33.6340   40.3100 C   0  0  0  0  0  0  0  0  0  0  0  0
   46.1640   33.4900   41.2310 H   0  0  0  0  0  0  0  0  0  0  0  0
   46.2180   32.6670   39.4320 C   0  0  0  0  0  0  0  0  0  0  0  0
   46.7460   32.5790   38.1430 C   0  0  0  0  0  0  0  0  0  0  0  0
   47.7570   33.4270   37.7580 C   0  0  0  0  0  0  0  0  0  0  0  0
   49.2400   35.2500   38.3950 O   0  0  0  0  0  0  0  0  0  0  0  0
   50.0690   35.0200   37.8640 H   0  0  0  0  0  0  0  0  0  0  0  0
   48.4020   33.4900   36.5320 O   0  0  0  0  0  0  0  0  0  0  0  0
   49.1480   32.8260   36.3820 H   0  0  0  0  0  0  0  0  0  0  0  0
   46.5910   33.3810   44.5120 C   0  0  0  0  0  0  0  0  0  0  0  0
   46.0700   33.6820   45.5540 O   0  0  0  0  0  0  0  0  0  0  0  0
   44.7260   31.4450   42.9990 Cl  0  0  0  0  0  0  0  0  0  0  0  0
   44.6270   33.2010   42.8260 C   0  0  0  0  0  0  0  0  0  0  0  0
   45.5430   33.9410   43.6000 C   0  0  0  0  0  0  0  0  0  0  0  0
   45.3590   35.2890   43.3830 C   0  0  0  0  0  0  0  0  0  0  0  0
   44.5040   35.9320   42.6020 C   0  0  0  0  0  0  0  0  0  0  0  0
   43.6410   35.1400   41.8750 C   0  0  0  0  0  0  0  0  0  0  0  0
   43.6920   33.7850   41.9780 C   0  0  0  0  0  0  0  0  0  0  0  0
   45.9970   35.9990   43.9610 H   0  0  0  0  0  0  0  0  0  0  0  0
   44.4340   37.0150   42.4930 H   0  0  0  0  0  0  0  0  0  0  0  0
   42.9130   35.6410   41.2120 H   0  0  0  0  0  0  0  0  0  0  0  0
   42.7850   33.1040   41.2110 O   0  0  0  0  0  0  0  0  0  0  0  0
   40.4850   32.3910   40.1830 O   0  0  0  0  0  0  0  0  0  0  0  0
   41.1510   32.7830   41.4830 P   0  0  0  0  0  0  0  0  0  0  0  0
   41.0160   31.5550   42.6440 O   0  0  0  0  0  0  0  0  0  0  0  0
   41.5550   30.7560   42.3970 H   0  0  0  0  0  0  0  0  0  0  0  0
   40.3610   34.1340   42.1530 O   0  0  0  0  0  0  0  0  0  0  0  0
   40.6140   34.2020   43.1050 H   0  0  0  0  0  0  0  0  0  0  0  0
  1  6  1  0  0  0  0
  1 27  1  0  0  0  0
  2  1  2  0  0  0  0
  3  4  2  0  0  0  0
  3  2  1  0  0  0  0
  4  5  1  0  0  0  0
  5  8  1  0  0  0  0
  5  6  2  0  0  0  0
  7  3  1  0  0  0  0
  9  2  1  0  0  0  0
  9 12  1  1  0  0  0
 10 14  1  0  0  0  0
 10  9  1  0  0  0  0
 11 15  1  1  0  0  0
 11 10  1  0  0  0  0
 11  9  1  0  0  0  0
 13 10  1  0  0  0  0
 16 17  1  0  0  0  0
 17 18  2  0  0  0  0
 17 11  1  0  0  0  0
 18 19  1  0  0  0  0
 20 18  1  0  0  0  0
 21 20  2  0  0  0  0
 22 21  1  0  0  0  0
 22 16  2  0  0  0  0
 23 16  1  0  0  0  0
 24 23  1  0  0  0  0
 25 22  1  0  0  0  0
 26 25  1  0  0  0  0
 27 28  2  0  0  0  0
 30 29  1  0  0  0  0
 30 31  1  0  0  0  0
 31 27  1  0  0  0  0
 32 31  2  0  0  0  0
 32 36  1  0  0  0  0
 33 32  1  0  0  0  0
 34 35  1  0  0  0  0
 34 33  2  0  0  0  0
 35 30  2  0  0  0  0
 37 33  1  0  0  0  0
 38 34  1  0  0  0  0
 39 41  1  0  0  0  0
 39 35  1  0  0  0  0
 40 41  2  0  0  0  0
 41 44  1  0  0  0  0
 41 42  1  0  0  0  0
 43 42  1  0  0  0  0
 44 45  1  0  0  0  0
M  END
>  <minimizedAffinity>
-6.71864414

>  <minimizedRMSD>
0.560244381

$$$$
