
 OpenBabel03252506323D

 34 36  0  0  1  0  0  0  0  0999 V2000
   44.6180   35.7950   44.7180 C   0  0  0  0  0  0  0  0  0  0  0  0
   44.5290   35.3960   43.3660 C   0  0  0  0  0  0  0  0  0  0  0  0
   44.8180   34.0750   43.0320 C   0  0  0  0  0  0  0  0  0  0  0  0
   45.1700   33.2520   44.0440 N   0  0  0  0  0  0  0  0  0  0  0  0
   45.2480   33.6460   45.3150 C   0  0  0  0  0  0  0  0  0  0  0  0
   44.9770   34.9120   45.6740 N   0  0  0  0  0  0  0  0  0  0  0  0
   45.6420   32.6780   46.2820 N   0  0  0  0  0  0  0  0  0  0  0  0
   45.4690   32.8410   47.7340 C   0  0  0  0  0  0  0  0  0  0  0  0
   46.7310   32.2060   48.2540 C   0  0  0  0  0  0  0  0  0  0  0  0
   47.3680   31.4660   47.1100 C   0  0  0  0  0  0  0  0  0  0  0  0
   46.2550   31.4020   46.1140 C   0  0  2  0  0  0  0  0  0  0  0  0
   44.3930   36.8280   44.9910 H   0  0  0  0  0  0  0  0  0  0  0  0
   44.7400   33.8060   41.9880 H   0  0  0  0  0  0  0  0  0  0  0  0
   45.3620   33.8910   48.0290 H   0  0  0  0  0  0  0  0  0  0  0  0
   44.6190   32.1900   48.0040 H   0  0  0  0  0  0  0  0  0  0  0  0
   47.3600   33.0240   48.6570 H   0  0  0  0  0  0  0  0  0  0  0  0
   46.5300   31.4960   49.0800 H   0  0  0  0  0  0  0  0  0  0  0  0
   47.7350   30.4640   47.3940 H   0  0  0  0  0  0  0  0  0  0  0  0
   48.2280   32.0940   46.7560 H   0  0  0  0  0  0  0  0  0  0  0  0
   45.5180   30.6540   46.5520 H   0  0  0  0  0  0  0  0  0  0  0  0
   45.7980   30.3370   43.9260 C   0  0  0  0  0  0  0  0  0  0  0  0
   46.6800   31.0140   44.7790 C   0  0  0  0  0  0  0  0  0  0  0  0
   47.9110   31.2100   44.2230 C   0  0  0  0  0  0  0  0  0  0  0  0
   48.6700   31.7130   44.8100 H   0  0  0  0  0  0  0  0  0  0  0  0
   48.3190   30.8190   42.9750 C   0  0  0  0  0  3  0  0  0  0  0  0
   47.4080   30.1550   42.1770 C   0  0  0  0  0  3  0  0  0  0  0  0
   46.1420   29.9120   42.6510 C   0  0  0  0  0  0  0  0  0  0  0  0
   44.5050   30.0600   44.3460 O   0  0  0  0  0  0  0  0  0  0  0  0
   43.7800   30.7850   44.3610 H   0  0  0  0  0  0  0  0  0  0  0  0
   45.2050   29.2420   41.8620 O   0  0  0  0  0  0  0  0  0  0  0  0
   45.2930   29.2680   40.8560 H   0  0  0  0  0  0  0  0  0  0  0  0
   44.1430   36.4100   42.4370 N   0  0  0  0  0  0  0  0  0  0  0  0
   44.4300   37.3800   42.5900 H   0  0  0  0  0  0  0  0  0  0  0  0
   43.5640   36.1270   41.6070 H   0  0  0  0  0  0  0  0  0  0  0  0
  1 12  1  0  0  0  0
  1  6  1  0  0  0  0
  2  1  2  0  0  0  0
  3  2  1  0  0  0  0
  3  4  2  0  0  0  0
  4  5  1  0  0  0  0
  5  6  2  0  0  0  0
  5  7  1  0  0  0  0
  7  8  1  0  0  0  0
  8 15  1  0  0  0  0
  8 14  1  0  0  0  0
  8  9  1  0  0  0  0
  9 16  1  0  0  0  0
  9 17  1  0  0  0  0
 10 18  1  0  0  0  0
 10  9  1  0  0  0  0
 11  7  1  0  0  0  0
 11 20  1  1  0  0  0
 11 10  1  0  0  0  0
 13  3  1  0  0  0  0
 19 10  1  0  0  0  0
 21 28  1  0  0  0  0
 21 22  1  0  0  0  0
 22 11  1  0  0  0  0
 23 22  2  0  0  0  0
 23 24  1  0  0  0  0
 25 23  1  0  0  0  0
 26 27  1  0  0  0  0
 26 25  2  0  0  0  0
 27 21  2  0  0  0  0
 28 29  1  0  0  0  0
 30 27  1  0  0  0  0
 31 30  1  0  0  0  0
 32 33  1  0  0  0  0
 32  2  1  0  0  0  0
 34 32  1  0  0  0  0
M  END
>  <minimizedAffinity>
-4.74263287

>  <minimizedRMSD>
2.81035042

$$$$
