
 OpenBabel03252508173D

 49 53  0  0  1  0  0  0  0  0999 V2000
   46.8430   31.6160   48.2630 C   0  0  1  0  0  0  0  0  0  0  0  0
   46.3570   30.5700   49.2060 C   0  0  0  0  0  0  0  0  0  0  0  0
   47.6270   31.2460   49.4550 C   0  0  1  0  0  0  0  0  0  0  0  0
   46.1000   32.4670   48.2470 H   0  0  0  0  0  0  0  0  0  0  0  0
   45.5130   30.7430   49.9040 H   0  0  0  0  0  0  0  0  0  0  0  0
   46.3680   29.5030   48.8700 H   0  0  0  0  0  0  0  0  0  0  0  0
   47.6330   31.9900   50.2780 H   0  0  0  0  0  0  0  0  0  0  0  0
   48.9470   30.5730   49.2490 C   0  0  2  0  0  0  0  0  0  0  0  0
   49.6370   30.1370   50.5660 C   0  0  0  0  0  0  0  0  0  0  0  0
   50.1870   31.2660   49.8030 C   0  0  1  0  0  0  0  0  0  0  0  0
   49.1200   29.8250   48.4670 H   0  0  0  0  0  0  0  0  0  0  0  0
   49.1020   30.3860   51.5270 H   0  0  0  0  0  0  0  0  0  0  0  0
   50.1080   29.1590   50.6350 H   0  0  0  0  0  0  0  0  0  0  0  0
   50.0010   32.2860   50.2000 H   0  0  0  0  0  0  0  0  0  0  0  0
   52.4660   32.0360   49.0480 C   0  0  0  0  0  0  0  0  0  0  0  0
   51.4700   31.0780   49.0480 C   0  0  0  0  0  0  0  0  0  0  0  0
   51.6840   29.9210   48.3260 C   0  0  0  0  0  0  0  0  0  0  0  0
   50.9650   29.1250   48.2710 H   0  0  0  0  0  0  0  0  0  0  0  0
   52.8530   29.6880   47.6060 C   0  0  0  0  0  3  0  0  0  0  0  0
   53.8390   30.6660   47.6210 C   0  0  0  0  0  3  0  0  0  0  0  0
   53.6420   31.8430   48.3460 C   0  0  0  0  0  0  0  0  0  0  0  0
   52.2400   33.2080   49.7850 O   0  0  0  0  0  0  0  0  0  0  0  0
   52.2820   33.1040   50.8080 H   0  0  0  0  0  0  0  0  0  0  0  0
   54.6460   32.8240   48.3530 O   0  0  0  0  0  0  0  0  0  0  0  0
   55.4030   32.6240   49.0230 H   0  0  0  0  0  0  0  0  0  0  0  0
   47.2340   31.1200   46.9210 C   0  0  0  0  0  0  0  0  0  0  0  0
   46.5030   30.2960   46.6680 H   0  0  0  0  0  0  0  0  0  0  0  0
   48.2110   30.7070   46.7740 H   0  0  0  0  0  0  0  0  0  0  0  0
   46.1150   33.0560   46.1720 C   0  0  0  0  0  3  0  0  0  0  0  0
   46.9520   32.1590   45.8600 C   0  0  0  0  0  3  0  0  0  0  0  0
   44.5420   35.8870   44.4130 C   0  0  0  0  0  0  0  0  0  0  0  0
   45.1750   35.8740   43.1740 C   0  0  0  0  0  0  0  0  0  0  0  0
   46.1040   34.9090   42.9850 C   0  0  0  0  0  0  0  0  0  0  0  0
   46.3820   34.0140   43.9750 N   0  0  0  0  0  0  0  0  0  0  0  0
   45.7540   34.0520   45.1630 C   0  0  0  0  0  0  0  0  0  0  0  0
   44.8430   34.9950   45.3510 N   0  0  0  0  0  0  0  0  0  0  0  0
   43.7910   36.6600   44.5780 H   0  0  0  0  0  0  0  0  0  0  0  0
   44.9480   36.5860   42.3990 H   0  0  0  0  0  0  0  0  0  0  0  0
   46.8470   34.7680   41.7370 C   0  0  0  0  0  0  0  0  0  0  0  0
   48.0510   35.3510   41.4710 C   0  0  0  0  0  0  0  0  0  0  0  0
   48.7380   35.2050   40.2820 C   0  0  0  0  0  0  0  0  0  0  0  0
   48.2050   34.4240   39.2760 C   0  0  0  0  0  0  0  0  0  0  0  0
   46.9990   33.8100   39.4790 C   0  0  0  0  0  0  0  0  0  0  0  0
   46.3590   33.9950   40.6900 C   0  0  0  0  0  0  0  0  0  0  0  0
   48.5040   35.9780   42.2440 H   0  0  0  0  0  0  0  0  0  0  0  0
   49.6890   35.6880   40.1190 H   0  0  0  0  0  0  0  0  0  0  0  0
   48.6770   34.2580   38.3150 H   0  0  0  0  0  0  0  0  0  0  0  0
   46.5600   33.1970   38.7170 H   0  0  0  0  0  0  0  0  0  0  0  0
   45.3940   33.4780   40.8000 H   0  0  0  0  0  0  0  0  0  0  0  0
  1  4  1  1  0  0  0
  1  2  1  0  0  0  0
  1  3  1  0  0  0  0
  2  3  1  0  0  0  0
  2  5  1  0  0  0  0
  3  7  1  1  0  0  0
  6  2  1  0  0  0  0
  8 11  1  6  0  0  0
  8  3  1  0  0  0  0
  8 10  1  0  0  0  0
  8  9  1  0  0  0  0
  9 13  1  0  0  0  0
  9 12  1  0  0  0  0
 10 14  1  1  0  0  0
 10  9  1  0  0  0  0
 15 22  1  0  0  0  0
 16 15  1  0  0  0  0
 16 10  1  0  0  0  0
 17 16  2  0  0  0  0
 18 17  1  0  0  0  0
 19 20  2  0  0  0  0
 19 17  1  0  0  0  0
 20 21  1  0  0  0  0
 21 24  1  0  0  0  0
 21 15  2  0  0  0  0
 22 23  1  0  0  0  0
 24 25  1  0  0  0  0
 26  1  1  0  0  0  0
 27 26  1  0  0  0  0
 28 26  1  0  0  0  0
 30 29  2  0  0  0  0
 30 26  1  0  0  0  0
 31 37  1  0  0  0  0
 31 36  1  0  0  0  0
 32 31  2  0  0  0  0
 33 32  1  0  0  0  0
 33 34  2  0  0  0  0
 34 35  1  0  0  0  0
 35 36  2  0  0  0  0
 35 29  1  0  0  0  0
 38 32  1  0  0  0  0
 39 33  1  0  0  0  0
 40 39  1  0  0  0  0
 40 45  1  0  0  0  0
 41 40  2  0  0  0  0
 42 43  2  0  0  0  0
 42 41  1  0  0  0  0
 43 44  1  0  0  0  0
 44 49  1  0  0  0  0
 44 39  2  0  0  0  0
 46 41  1  0  0  0  0
 47 42  1  0  0  0  0
 48 43  1  0  0  0  0
M  END
>  <minimizedAffinity>
-7.1283536

>  <minimizedRMSD>
0.941971064

$$$$
