
 OpenBabel03242510283D

 20 21  0  0  0  0  0  0  0  0999 V2000
   37.3900   31.7650   40.7400 C   0  0  0  0  0  0  0  0  0  0  0  0
   38.3120   30.8560   41.2060 C   0  0  0  0  0  0  0  0  0  0  0  0
   39.6290   31.1730   41.0490 C   0  0  0  0  0  0  0  0  0  0  0  0
   40.3820   30.5090   41.3910 H   0  0  0  0  0  0  0  0  0  0  0  0
   40.0320   32.3560   40.4490 C   0  0  0  0  0  3  0  0  0  0  0  0
   39.1100   33.2480   39.9920 C   0  0  0  0  0  3  0  0  0  0  0  0
   37.7530   32.9690   40.1290 C   0  0  0  0  0  0  0  0  0  0  0  0
   37.6960   28.0760   43.6780 C   0  0  0  0  0  0  0  0  0  0  0  0
   38.1840   29.2620   43.1060 C   0  0  0  0  0  0  0  0  0  0  0  0
   37.8280   29.6470   41.8200 C   0  0  0  0  0  0  0  0  0  0  0  0
   36.9850   28.7950   41.1820 N   0  0  0  0  0  0  0  0  0  0  0  0
   36.5140   27.6580   41.7240 C   0  0  0  0  0  0  0  0  0  0  0  0
   36.8660   27.2960   42.9690 N   0  0  0  0  0  0  0  0  0  0  0  0
   38.0000   27.8210   44.6750 H   0  0  0  0  0  0  0  0  0  0  0  0
   38.8430   29.8630   43.6920 H   0  0  0  0  0  0  0  0  0  0  0  0
   35.8530   27.1140   41.0560 H   0  0  0  0  0  0  0  0  0  0  0  0
   36.0290   31.4920   40.8730 O   0  0  0  0  0  0  0  0  0  0  0  0
   35.5890   31.6530   41.7660 H   0  0  0  0  0  0  0  0  0  0  0  0
   36.7440   33.8200   39.6920 O   0  0  0  0  0  0  0  0  0  0  0  0
   35.9390   34.0390   40.2570 H   0  0  0  0  0  0  0  0  0  0  0  0
  1 17  1  0  0  0  0
  1  2  1  0  0  0  0
  2 10  1  0  0  0  0
  3  2  2  0  0  0  0
  3  4  1  0  0  0  0
  5  3  1  0  0  0  0
  6  7  1  0  0  0  0
  6  5  2  0  0  0  0
  7  1  2  0  0  0  0
  8 14  1  0  0  0  0
  9  8  1  0  0  0  0
  9 15  1  0  0  0  0
 10  9  2  0  0  0  0
 11 12  2  0  0  0  0
 11 10  1  0  0  0  0
 12 13  1  0  0  0  0
 13  8  2  0  0  0  0
 16 12  1  0  0  0  0
 17 18  1  0  0  0  0
 19  7  1  0  0  0  0
 19 20  1  0  0  0  0
M  END
>  <minimizedAffinity>
-5.04171324

$$$$

 OpenBabel03242510283D

 20 21  0  0  0  0  0  0  0  0999 V2000
   36.4770   28.7210   41.3040 C   0  0  0  0  0  0  0  0  0  0  0  0
   36.7420   27.5310   40.6670 C   0  0  0  0  0  0  0  0  0  0  0  0
   36.2700   27.3890   39.3960 C   0  0  0  0  0  0  0  0  0  0  0  0
   36.4470   26.4920   38.8580 H   0  0  0  0  0  0  0  0  0  0  0  0
   35.5560   28.3940   38.7630 C   0  0  0  0  0  3  0  0  0  0  0  0
   35.3000   29.5690   39.4030 C   0  0  0  0  0  3  0  0  0  0  0  0
   35.7600   29.7600   40.7030 C   0  0  0  0  0  0  0  0  0  0  0  0
   37.7980   24.2630   42.2240 C   0  0  0  0  0  0  0  0  0  0  0  0
   37.0460   25.2190   41.5230 C   0  0  0  0  0  0  0  0  0  0  0  0
   37.4900   26.5270   41.3810 C   0  0  0  0  0  0  0  0  0  0  0  0
   38.6860   26.7920   41.9650 N   0  0  0  0  0  0  0  0  0  0  0  0
   39.4110   25.8810   42.6380 C   0  0  0  0  0  0  0  0  0  0  0  0
   38.9720   24.6180   42.7700 N   0  0  0  0  0  0  0  0  0  0  0  0
   37.4130   23.2640   42.3080 H   0  0  0  0  0  0  0  0  0  0  0  0
   36.1170   24.9090   41.1000 H   0  0  0  0  0  0  0  0  0  0  0  0
   40.3380   26.2860   43.0320 H   0  0  0  0  0  0  0  0  0  0  0  0
   36.9350   28.9200   42.6060 O   0  0  0  0  0  0  0  0  0  0  0  0
   37.9000   29.1750   42.7450 H   0  0  0  0  0  0  0  0  0  0  0  0
   35.5460   30.9250   41.4310 O   0  0  0  0  0  0  0  0  0  0  0  0
   36.2770   31.3740   41.9590 H   0  0  0  0  0  0  0  0  0  0  0  0
  1 17  1  0  0  0  0
  2  1  2  0  0  0  0
  2 10  1  0  0  0  0
  3  2  1  0  0  0  0
  4  3  1  0  0  0  0
  5  3  2  0  0  0  0
  5  6  1  0  0  0  0
  6  7  2  0  0  0  0
  7  1  1  0  0  0  0
  7 19  1  0  0  0  0
  8 14  1  0  0  0  0
  8 13  1  0  0  0  0
  9  8  2  0  0  0  0
 10  9  1  0  0  0  0
 10 11  2  0  0  0  0
 11 12  1  0  0  0  0
 12 13  2  0  0  0  0
 12 16  1  0  0  0  0
 15  9  1  0  0  0  0
 17 18  1  0  0  0  0
 19 20  1  0  0  0  0
M  END
>  <minimizedAffinity>
-4.96864319

$$$$

 OpenBabel03242510283D

 20 21  0  0  0  0  0  0  0  0999 V2000
   37.2160   29.2530   41.6950 C   0  0  0  0  0  0  0  0  0  0  0  0
   38.5030   28.7730   41.6240 C   0  0  0  0  0  0  0  0  0  0  0  0
   39.4430   29.5970   41.0790 C   0  0  0  0  0  0  0  0  0  0  0  0
   40.4510   29.2770   41.0010 H   0  0  0  0  0  0  0  0  0  0  0  0
   39.1270   30.8640   40.6140 C   0  0  0  0  0  3  0  0  0  0  0  0
   37.8480   31.3280   40.6900 C   0  0  0  0  0  3  0  0  0  0  0  0
   36.8530   30.5240   41.2380 C   0  0  0  0  0  0  0  0  0  0  0  0
   39.8360   25.9040   43.6760 C   0  0  0  0  0  0  0  0  0  0  0  0
   39.5990   27.2070   43.2110 C   0  0  0  0  0  0  0  0  0  0  0  0
   38.7660   27.4480   42.1250 C   0  0  0  0  0  0  0  0  0  0  0  0
   38.2150   26.3390   41.5700 N   0  0  0  0  0  0  0  0  0  0  0  0
   38.4390   25.0880   42.0110 C   0  0  0  0  0  0  0  0  0  0  0  0
   39.2470   24.8670   43.0620 N   0  0  0  0  0  0  0  0  0  0  0  0
   40.4880   25.7680   44.5180 H   0  0  0  0  0  0  0  0  0  0  0  0
   40.0810   28.0130   43.7180 H   0  0  0  0  0  0  0  0  0  0  0  0
   37.9080   24.3360   41.4350 H   0  0  0  0  0  0  0  0  0  0  0  0
   36.2140   28.4520   42.2430 O   0  0  0  0  0  0  0  0  0  0  0  0
   36.1400   28.3900   43.2470 H   0  0  0  0  0  0  0  0  0  0  0  0
   35.5240   30.9150   41.3550 O   0  0  0  0  0  0  0  0  0  0  0  0
   34.9910   30.7710   42.1980 H   0  0  0  0  0  0  0  0  0  0  0  0
  1 17  1  0  0  0  0
  2  1  1  0  0  0  0
  2 10  1  0  0  0  0
  3  2  2  0  0  0  0
  4  3  1  0  0  0  0
  5  6  2  0  0  0  0
  5  3  1  0  0  0  0
  6  7  1  0  0  0  0
  7 19  1  0  0  0  0
  7  1  2  0  0  0  0
  8 14  1  0  0  0  0
  9  8  1  0  0  0  0
  9 15  1  0  0  0  0
 10  9  2  0  0  0  0
 11 12  2  0  0  0  0
 11 10  1  0  0  0  0
 12 13  1  0  0  0  0
 13  8  2  0  0  0  0
 16 12  1  0  0  0  0
 17 18  1  0  0  0  0
 19 20  1  0  0  0  0
M  END
>  <minimizedAffinity>
-4.69359446

$$$$

 OpenBabel03242510283D

 20 21  0  0  0  0  0  0  0  0999 V2000
   38.9370   31.8310   41.5240 C   0  0  0  0  0  0  0  0  0  0  0  0
   38.1040   30.7510   41.3460 C   0  0  0  0  0  0  0  0  0  0  0  0
   37.1160   30.8770   40.4150 C   0  0  0  0  0  0  0  0  0  0  0  0
   36.4460   30.0750   40.2360 H   0  0  0  0  0  0  0  0  0  0  0  0
   36.9490   32.0370   39.6750 C   0  0  0  0  0  3  0  0  0  0  0  0
   37.7800   33.1000   39.8610 C   0  0  0  0  0  3  0  0  0  0  0  0
   38.8040   33.0200   40.8000 C   0  0  0  0  0  0  0  0  0  0  0  0
   37.5850   27.8310   43.6740 C   0  0  0  0  0  0  0  0  0  0  0  0
   37.3330   28.9770   42.9040 C   0  0  0  0  0  0  0  0  0  0  0  0
   38.3320   29.5750   42.1450 C   0  0  0  0  0  0  0  0  0  0  0  0
   39.5430   28.9660   42.2150 N   0  0  0  0  0  0  0  0  0  0  0  0
   39.7910   27.8680   42.9510 C   0  0  0  0  0  0  0  0  0  0  0  0
   38.8170   27.2980   43.6800 N   0  0  0  0  0  0  0  0  0  0  0  0
   36.7810   27.4050   44.2430 H   0  0  0  0  0  0  0  0  0  0  0  0
   36.3450   29.3790   42.9170 H   0  0  0  0  0  0  0  0  0  0  0  0
   40.8210   27.5330   42.8740 H   0  0  0  0  0  0  0  0  0  0  0  0
   39.9650   31.7580   42.4640 O   0  0  0  0  0  0  0  0  0  0  0  0
   40.8130   31.2720   42.2150 H   0  0  0  0  0  0  0  0  0  0  0  0
   39.6980   34.0550   41.0550 O   0  0  0  0  0  0  0  0  0  0  0  0
   40.6900   33.9020   41.1400 H   0  0  0  0  0  0  0  0  0  0  0  0
  1 17  1  0  0  0  0
  2  1  1  0  0  0  0
  2 10  1  0  0  0  0
  3  2  2  0  0  0  0
  4  3  1  0  0  0  0
  5  6  2  0  0  0  0
  5  3  1  0  0  0  0
  6  7  1  0  0  0  0
  7 19  1  0  0  0  0
  7  1  2  0  0  0  0
  8 13  1  0  0  0  0
  8 14  1  0  0  0  0
  9 15  1  0  0  0  0
  9  8  2  0  0  0  0
 10 11  2  0  0  0  0
 10  9  1  0  0  0  0
 11 12  1  0  0  0  0
 12 13  2  0  0  0  0
 16 12  1  0  0  0  0
 18 17  1  0  0  0  0
 19 20  1  0  0  0  0
M  END
>  <minimizedAffinity>
-4.63288593

$$$$

 OpenBabel03242510283D

 20 21  0  0  0  0  0  0  0  0999 V2000
   37.6790   29.2410   42.4530 C   0  0  0  0  0  0  0  0  0  0  0  0
   38.9270   29.6260   42.0210 C   0  0  0  0  0  0  0  0  0  0  0  0
   39.9860   28.8740   42.4370 C   0  0  0  0  0  0  0  0  0  0  0  0
   40.9710   29.1250   42.1340 H   0  0  0  0  0  0  0  0  0  0  0  0
   39.8230   27.7680   43.2570 C   0  0  0  0  0  3  0  0  0  0  0  0
   38.5810   27.3970   43.6770 C   0  0  0  0  0  3  0  0  0  0  0  0
   37.4690   28.1340   43.2800 C   0  0  0  0  0  0  0  0  0  0  0  0
   39.9510   32.9650   40.6000 C   0  0  0  0  0  0  0  0  0  0  0  0
   39.8750   31.8500   41.4490 C   0  0  0  0  0  0  0  0  0  0  0  0
   39.0290   30.7840   41.1700 C   0  0  0  0  0  0  0  0  0  0  0  0
   38.3010   30.9140   40.0320 N   0  0  0  0  0  0  0  0  0  0  0  0
   38.3700   31.9800   39.2150 C   0  0  0  0  0  0  0  0  0  0  0  0
   39.1930   33.0050   39.4950 N   0  0  0  0  0  0  0  0  0  0  0  0
   40.6200   33.7640   40.8580 H   0  0  0  0  0  0  0  0  0  0  0  0
   40.4890   31.8440   42.3220 H   0  0  0  0  0  0  0  0  0  0  0  0
   37.7110   31.8970   38.3560 H   0  0  0  0  0  0  0  0  0  0  0  0
   36.5600   29.9750   42.0590 O   0  0  0  0  0  0  0  0  0  0  0  0
   36.1810   29.8200   41.1380 H   0  0  0  0  0  0  0  0  0  0  0  0
   36.1670   27.8280   43.6610 O   0  0  0  0  0  0  0  0  0  0  0  0
   35.4010   27.8230   43.0070 H   0  0  0  0  0  0  0  0  0  0  0  0
  1  7  1  0  0  0  0
  2  3  1  0  0  0  0
  2  1  2  0  0  0  0
  3  5  2  0  0  0  0
  4  3  1  0  0  0  0
  5  6  1  0  0  0  0
  7 19  1  0  0  0  0
  7  6  2  0  0  0  0
  8 14  1  0  0  0  0
  8  9  1  0  0  0  0
  9 15  1  0  0  0  0
 10  9  2  0  0  0  0
 10  2  1  0  0  0  0
 11 10  1  0  0  0  0
 12 13  1  0  0  0  0
 12 11  2  0  0  0  0
 13  8  2  0  0  0  0
 16 12  1  0  0  0  0
 17  1  1  0  0  0  0
 18 17  1  0  0  0  0
 20 19  1  0  0  0  0
M  END
>  <minimizedAffinity>
-4.63043118

$$$$

 OpenBabel03242510283D

 20 21  0  0  0  0  0  0  0  0999 V2000
   38.8540   31.5460   41.3060 C   0  0  0  0  0  0  0  0  0  0  0  0
   37.7020   30.8740   40.9700 C   0  0  0  0  0  0  0  0  0  0  0  0
   36.8470   31.5000   40.1110 C   0  0  0  0  0  0  0  0  0  0  0  0
   35.9440   31.0270   39.8180 H   0  0  0  0  0  0  0  0  0  0  0  0
   37.1180   32.7570   39.5940 C   0  0  0  0  0  3  0  0  0  0  0  0
   38.2620   33.4120   39.9350 C   0  0  0  0  0  3  0  0  0  0  0  0
   39.1660   32.8140   40.8080 C   0  0  0  0  0  0  0  0  0  0  0  0
   36.9890   27.1910   41.3560 C   0  0  0  0  0  0  0  0  0  0  0  0
   37.2010   28.4490   40.7700 C   0  0  0  0  0  0  0  0  0  0  0  0
   37.4800   29.5700   41.5410 C   0  0  0  0  0  0  0  0  0  0  0  0
   37.5300   29.3450   42.8790 N   0  0  0  0  0  0  0  0  0  0  0  0
   37.3280   28.1430   43.4460 C   0  0  0  0  0  0  0  0  0  0  0  0
   37.0580   27.0650   42.6900 N   0  0  0  0  0  0  0  0  0  0  0  0
   36.7760   26.3540   40.7180 H   0  0  0  0  0  0  0  0  0  0  0  0
   37.1400   28.5200   39.7070 H   0  0  0  0  0  0  0  0  0  0  0  0
   37.4090   28.1680   44.5290 H   0  0  0  0  0  0  0  0  0  0  0  0
   39.7640   30.9520   42.1810 O   0  0  0  0  0  0  0  0  0  0  0  0
   40.3950   30.2530   41.8210 H   0  0  0  0  0  0  0  0  0  0  0  0
   40.3570   33.4090   41.2100 O   0  0  0  0  0  0  0  0  0  0  0  0
   41.2310   32.9070   41.2310 H   0  0  0  0  0  0  0  0  0  0  0  0
  1 17  1  0  0  0  0
  2  1  1  0  0  0  0
  2 10  1  0  0  0  0
  3  2  2  0  0  0  0
  4  3  1  0  0  0  0
  5  6  2  0  0  0  0
  5  3  1  0  0  0  0
  6  7  1  0  0  0  0
  7 19  1  0  0  0  0
  7  1  2  0  0  0  0
  8 13  1  0  0  0  0
  9  8  2  0  0  0  0
  9 10  1  0  0  0  0
 10 11  2  0  0  0  0
 11 12  1  0  0  0  0
 12 16  1  0  0  0  0
 13 12  2  0  0  0  0
 14  8  1  0  0  0  0
 15  9  1  0  0  0  0
 18 17  1  0  0  0  0
 19 20  1  0  0  0  0
M  END
>  <minimizedAffinity>
-4.5259738

$$$$

 OpenBabel03242510283D

 20 21  0  0  0  0  0  0  0  0999 V2000
   36.3930   28.7040   41.4170 C   0  0  0  0  0  0  0  0  0  0  0  0
   36.3500   27.8520   40.3380 C   0  0  0  0  0  0  0  0  0  0  0  0
   36.8840   26.6090   40.5080 C   0  0  0  0  0  0  0  0  0  0  0  0
   36.8770   25.9110   39.7090 H   0  0  0  0  0  0  0  0  0  0  0  0
   37.4470   26.2100   41.7100 C   0  0  0  0  0  3  0  0  0  0  0  0
   37.4830   27.0630   42.7720 C   0  0  0  0  0  3  0  0  0  0  0  0
   36.9510   28.3430   42.6470 C   0  0  0  0  0  0  0  0  0  0  0  0
   35.8860   29.1600   36.8320 C   0  0  0  0  0  0  0  0  0  0  0  0
   36.4990   28.7010   38.0080 C   0  0  0  0  0  0  0  0  0  0  0  0
   35.7500   28.3260   39.1170 C   0  0  0  0  0  0  0  0  0  0  0  0
   34.4060   28.4410   38.9640 N   0  0  0  0  0  0  0  0  0  0  0  0
   33.8130   28.8810   37.8410 C   0  0  0  0  0  0  0  0  0  0  0  0
   34.5480   29.2400   36.7740 N   0  0  0  0  0  0  0  0  0  0  0  0
   36.5070   29.4380   36.0010 H   0  0  0  0  0  0  0  0  0  0  0  0
   37.5640   28.6470   38.0270 H   0  0  0  0  0  0  0  0  0  0  0  0
   32.7300   28.9010   37.9150 H   0  0  0  0  0  0  0  0  0  0  0  0
   35.8610   29.9880   41.2990 O   0  0  0  0  0  0  0  0  0  0  0  0
   34.8630   30.1060   41.3720 H   0  0  0  0  0  0  0  0  0  0  0  0
   36.9450   29.2780   43.6770 O   0  0  0  0  0  0  0  0  0  0  0  0
   36.1320   29.8270   43.9030 H   0  0  0  0  0  0  0  0  0  0  0  0
  1  7  1  0  0  0  0
  2  3  1  0  0  0  0
  2  1  2  0  0  0  0
  3  5  2  0  0  0  0
  4  3  1  0  0  0  0
  5  6  1  0  0  0  0
  7  6  2  0  0  0  0
  7 19  1  0  0  0  0
  8  9  1  0  0  0  0
  9 15  1  0  0  0  0
  9 10  2  0  0  0  0
 10  2  1  0  0  0  0
 11 10  1  0  0  0  0
 12 16  1  0  0  0  0
 12 11  2  0  0  0  0
 13  8  2  0  0  0  0
 13 12  1  0  0  0  0
 14  8  1  0  0  0  0
 17 18  1  0  0  0  0
 17  1  1  0  0  0  0
 19 20  1  0  0  0  0
M  END
>  <minimizedAffinity>
-4.38429165

$$$$

 OpenBabel03242510283D

 20 21  0  0  0  0  0  0  0  0999 V2000
   37.0760   28.8220   41.8360 C   0  0  0  0  0  0  0  0  0  0  0  0
   37.5230   29.2630   40.6120 C   0  0  0  0  0  0  0  0  0  0  0  0
   37.7410   28.3160   39.6550 C   0  0  0  0  0  0  0  0  0  0  0  0
   38.0850   28.6000   38.6930 H   0  0  0  0  0  0  0  0  0  0  0  0
   37.5270   26.9680   39.8940 C   0  0  0  0  0  3  0  0  0  0  0  0
   37.0840   26.5450   41.1110 C   0  0  0  0  0  3  0  0  0  0  0  0
   36.8470   27.4730   42.1210 C   0  0  0  0  0  0  0  0  0  0  0  0
   37.1740   32.8180   39.4050 C   0  0  0  0  0  0  0  0  0  0  0  0
   36.9520   31.4410   39.5630 C   0  0  0  0  0  0  0  0  0  0  0  0
   37.7260   30.6770   40.4270 C   0  0  0  0  0  0  0  0  0  0  0  0
   38.6910   31.3650   41.0880 N   0  0  0  0  0  0  0  0  0  0  0  0
   38.9090   32.6830   40.9410 C   0  0  0  0  0  0  0  0  0  0  0  0
   38.1540   33.4120   40.1020 N   0  0  0  0  0  0  0  0  0  0  0  0
   36.5490   33.3660   38.7240 H   0  0  0  0  0  0  0  0  0  0  0  0
   36.1650   30.9940   38.9960 H   0  0  0  0  0  0  0  0  0  0  0  0
   39.7270   33.0480   41.5560 H   0  0  0  0  0  0  0  0  0  0  0  0
   36.8370   29.7480   42.8530 O   0  0  0  0  0  0  0  0  0  0  0  0
   35.9740   30.2690   42.8370 H   0  0  0  0  0  0  0  0  0  0  0  0
   36.3950   27.1310   43.3910 O   0  0  0  0  0  0  0  0  0  0  0  0
   35.6540   27.6320   43.8530 H   0  0  0  0  0  0  0  0  0  0  0  0
  1  7  1  0  0  0  0
  1 17  1  0  0  0  0
  2  1  2  0  0  0  0
  3  5  2  0  0  0  0
  3  2  1  0  0  0  0
  4  3  1  0  0  0  0
  5  6  1  0  0  0  0
  6  7  2  0  0  0  0
  7 19  1  0  0  0  0
  8  9  2  0  0  0  0
  8 13  1  0  0  0  0
  9 10  1  0  0  0  0
 10  2  1  0  0  0  0
 10 11  2  0  0  0  0
 12 11  1  0  0  0  0
 12 16  1  0  0  0  0
 13 12  2  0  0  0  0
 14  8  1  0  0  0  0
 15  9  1  0  0  0  0
 18 17  1  0  0  0  0
 19 20  1  0  0  0  0
M  END
>  <minimizedAffinity>
-4.38153362

$$$$

 OpenBabel03242510283D

 20 21  0  0  0  0  0  0  0  0999 V2000
   37.3660   28.3080   41.0030 C   0  0  0  0  0  0  0  0  0  0  0  0
   37.6720   29.3140   41.8900 C   0  0  0  0  0  0  0  0  0  0  0  0
   37.6360   29.0020   43.2170 C   0  0  0  0  0  0  0  0  0  0  0  0
   37.8640   29.7400   43.9440 H   0  0  0  0  0  0  0  0  0  0  0  0
   37.3070   27.7320   43.6640 C   0  0  0  0  0  3  0  0  0  0  0  0
   37.0070   26.7440   42.7750 C   0  0  0  0  0  3  0  0  0  0  0  0
   37.0290   27.0130   41.4100 C   0  0  0  0  0  0  0  0  0  0  0  0
   39.5430   32.4710   41.0240 C   0  0  0  0  0  0  0  0  0  0  0  0
   39.2480   31.2040   41.5520 C   0  0  0  0  0  0  0  0  0  0  0  0
   38.0060   30.6120   41.3620 C   0  0  0  0  0  0  0  0  0  0  0  0
   37.1260   31.3500   40.6370 N   0  0  0  0  0  0  0  0  0  0  0  0
   37.4030   32.5630   40.1300 C   0  0  0  0  0  0  0  0  0  0  0  0
   38.6080   33.1260   40.3200 N   0  0  0  0  0  0  0  0  0  0  0  0
   40.5170   32.8880   41.1980 H   0  0  0  0  0  0  0  0  0  0  0  0
   40.0100   30.7050   42.1070 H   0  0  0  0  0  0  0  0  0  0  0  0
   36.5690   32.9920   39.5820 H   0  0  0  0  0  0  0  0  0  0  0  0
   37.3870   28.5710   39.6330 O   0  0  0  0  0  0  0  0  0  0  0  0
   38.2760   28.5850   39.1580 H   0  0  0  0  0  0  0  0  0  0  0  0
   36.7370   26.0670   40.4340 O   0  0  0  0  0  0  0  0  0  0  0  0
   37.3030   25.9500   39.6080 H   0  0  0  0  0  0  0  0  0  0  0  0
  1  7  2  0  0  0  0
  1  2  1  0  0  0  0
  2  3  2  0  0  0  0
  3  5  1  0  0  0  0
  3  4  1  0  0  0  0
  6  5  2  0  0  0  0
  7  6  1  0  0  0  0
  8 14  1  0  0  0  0
  8  9  1  0  0  0  0
  9 15  1  0  0  0  0
 10  9  2  0  0  0  0
 10  2  1  0  0  0  0
 11 10  1  0  0  0  0
 12 13  1  0  0  0  0
 12 11  2  0  0  0  0
 13  8  2  0  0  0  0
 16 12  1  0  0  0  0
 17  1  1  0  0  0  0
 18 17  1  0  0  0  0
 19  7  1  0  0  0  0
 20 19  1  0  0  0  0
M  END
>  <minimizedAffinity>
-4.35242081

$$$$
