
 OpenBabel03242515583D

 39 42  0  0  0  0  0  0  0  0999 V2000
   36.9400   26.5250   39.8600 C   0  0  0  0  0  0  0  0  0  0  0  0
   36.8270   25.1120   39.9660 C   0  0  0  0  0  0  0  0  0  0  0  0
   36.8420   24.4380   41.1530 C   0  0  0  0  0  0  0  0  0  0  0  0
   36.9690   25.0990   42.3150 C   0  0  0  0  0  0  0  0  0  0  0  0
   37.0850   26.4910   42.2840 C   0  0  0  0  0  0  0  0  0  0  0  0
   37.2140   27.1300   43.4780 C   0  0  0  0  0  0  0  0  0  0  0  0
   37.3350   28.4940   43.5190 C   0  0  0  0  0  0  0  0  0  0  0  0
   37.3170   29.1540   42.2960 C   0  0  0  0  0  0  0  0  0  0  0  0
   37.1860   28.4480   41.1550 C   0  0  0  0  0  0  0  0  0  0  0  0
   37.0660   27.1300   41.0710 C   0  0  0  0  0  0  0  0  0  0  0  0
   36.7210   24.5240   39.0670 H   0  0  0  0  0  0  0  0  0  0  0  0
   36.7530   23.3630   41.1650 H   0  0  0  0  0  0  0  0  0  0  0  0
   36.9780   24.5420   43.2440 H   0  0  0  0  0  0  0  0  0  0  0  0
   37.2200   26.5380   44.4170 H   0  0  0  0  0  0  0  0  0  0  0  0
   37.4330   28.9190   44.5330 H   0  0  0  0  0  0  0  0  0  0  0  0
   37.4090   30.2240   42.5220 H   0  0  0  0  0  0  0  0  0  0  0  0
   38.3270   27.7450   36.7740 C   0  0  0  0  0  0  0  0  0  0  0  0
   37.1950   28.3450   36.1440 C   0  0  0  0  0  0  0  0  0  0  0  0
   35.9300   28.3340   36.7930 C   0  0  0  0  0  0  0  0  0  0  0  0
   35.8880   27.7410   37.9870 N   0  0  0  0  0  0  0  0  0  0  0  0
   36.8990   27.1870   38.5860 C   0  0  0  0  0  0  0  0  0  0  0  0
   38.1150   27.2000   37.9600 N   0  0  0  0  0  0  0  0  0  0  0  0
   39.2770   27.7660   36.2610 H   0  0  0  0  0  0  0  0  0  0  0  0
   35.1050   28.8010   36.2760 H   0  0  0  0  0  0  0  0  0  0  0  0
   37.4200   28.9330   34.8680 N   0  0  0  0  0  0  0  0  0  0  0  0
   37.9700   29.8360   34.8560 H   0  0  0  0  0  0  0  0  0  0  0  0
   37.0560   28.4860   33.9880 H   0  0  0  0  0  0  0  0  0  0  0  0
   37.2090   29.3540   40.1310 O   0  0  0  0  0  0  0  0  0  0  0  0
   37.6500   31.7770   40.3220 C   0  0  0  0  0  0  0  0  0  0  0  0
   38.0400   30.4830   40.0440 C   0  0  0  0  0  0  0  0  0  0  0  0
   39.3570   30.2890   39.6510 C   0  0  0  0  0  0  0  0  0  0  0  0
   39.6780   29.2650   39.4290 H   0  0  0  0  0  0  0  0  0  0  0  0
   40.2520   31.3250   39.5360 C   0  0  0  0  0  3  0  0  0  0  0  0
   39.8370   32.6090   39.8190 C   0  0  0  0  0  3  0  0  0  0  0  0
   38.5410   32.8240   40.2090 C   0  0  0  0  0  0  0  0  0  0  0  0
   36.3190   32.0060   40.7270 O   0  0  0  0  0  0  0  0  0  0  0  0
   36.0010   31.3830   41.4770 H   0  0  0  0  0  0  0  0  0  0  0  0
   38.0820   34.1040   40.5050 O   0  0  0  0  0  0  0  0  0  0  0  0
   38.7230   34.8670   40.6620 H   0  0  0  0  0  0  0  0  0  0  0  0
  1  2  2  0  0  0  0
  1 10  1  0  0  0  0
  2  3  1  0  0  0  0
  3 12  1  0  0  0  0
  3  4  2  0  0  0  0
  4 13  1  0  0  0  0
  5  4  1  0  0  0  0
  5  6  1  0  0  0  0
  6  7  2  0  0  0  0
  6 14  1  0  0  0  0
  7 15  1  0  0  0  0
  8 16  1  0  0  0  0
  8  7  1  0  0  0  0
  9  8  2  0  0  0  0
 10  9  1  0  0  0  0
 10  5  2  0  0  0  0
 11  2  1  0  0  0  0
 17 22  1  0  0  0  0
 18 17  2  0  0  0  0
 18 19  1  0  0  0  0
 19 20  2  0  0  0  0
 20 21  1  0  0  0  0
 21  1  1  0  0  0  0
 22 21  2  0  0  0  0
 23 17  1  0  0  0  0
 24 19  1  0  0  0  0
 25 18  1  0  0  0  0
 26 25  1  0  0  0  0
 27 25  1  0  0  0  0
 28  9  1  0  0  0  0
 29 36  1  0  0  0  0
 30 28  1  0  0  0  0
 30 29  2  0  0  0  0
 31 30  1  0  0  0  0
 32 31  1  0  0  0  0
 33 31  2  0  0  0  0
 33 34  1  0  0  0  0
 34 35  2  0  0  0  0
 35 29  1  0  0  0  0
 35 38  1  0  0  0  0
 36 37  1  0  0  0  0
 38 39  1  0  0  0  0
M  END
>  <minimizedAffinity>
-7.19623709

$$$$

 OpenBabel03242515583D

 39 42  0  0  0  0  0  0  0  0999 V2000
   37.3820   28.9340   41.6140 C   0  0  0  0  0  0  0  0  0  0  0  0
   37.3070   28.8150   43.0290 C   0  0  0  0  0  0  0  0  0  0  0  0
   37.1340   27.6270   43.6800 C   0  0  0  0  0  0  0  0  0  0  0  0
   37.0210   26.4790   42.9930 C   0  0  0  0  0  0  0  0  0  0  0  0
   37.0870   26.5240   41.5990 C   0  0  0  0  0  0  0  0  0  0  0  0
   36.9680   25.3430   40.9330 C   0  0  0  0  0  0  0  0  0  0  0  0
   37.0200   25.3170   39.5650 C   0  0  0  0  0  0  0  0  0  0  0  0
   37.1960   26.5390   38.9280 C   0  0  0  0  0  0  0  0  0  0  0  0
   37.3050   27.6660   39.6590 C   0  0  0  0  0  0  0  0  0  0  0  0
   37.2610   27.7360   40.9830 C   0  0  0  0  0  0  0  0  0  0  0  0
   37.3910   29.7020   43.6370 H   0  0  0  0  0  0  0  0  0  0  0  0
   37.0840   27.6050   44.7580 H   0  0  0  0  0  0  0  0  0  0  0  0
   36.8850   25.5500   43.5330 H   0  0  0  0  0  0  0  0  0  0  0  0
   36.8290   24.4040   41.5080 H   0  0  0  0  0  0  0  0  0  0  0  0
   36.9150   24.3130   39.1180 H   0  0  0  0  0  0  0  0  0  0  0  0
   37.2290   26.3240   37.8520 H   0  0  0  0  0  0  0  0  0  0  0  0
   39.3430   31.6770   40.3620 C   0  0  0  0  0  0  0  0  0  0  0  0
   38.3460   32.5490   39.8280 C   0  0  0  0  0  0  0  0  0  0  0  0
   36.9720   32.1900   39.9020 C   0  0  0  0  0  0  0  0  0  0  0  0
   36.7020   31.0210   40.4850 N   0  0  0  0  0  0  0  0  0  0  0  0
   37.5850   30.2070   40.9790 C   0  0  0  0  0  0  0  0  0  0  0  0
   38.9050   30.5540   40.9080 N   0  0  0  0  0  0  0  0  0  0  0  0
   40.3800   31.9720   40.2930 H   0  0  0  0  0  0  0  0  0  0  0  0
   36.2570   32.8820   39.4840 H   0  0  0  0  0  0  0  0  0  0  0  0
   38.8130   33.7570   39.2400 N   0  0  0  0  0  0  0  0  0  0  0  0
   39.1760   34.4950   39.9050 H   0  0  0  0  0  0  0  0  0  0  0  0
   38.7970   33.9010   38.1970 H   0  0  0  0  0  0  0  0  0  0  0  0
   37.4610   28.6940   38.7710 O   0  0  0  0  0  0  0  0  0  0  0  0
   37.3000   28.8750   36.3130 C   0  0  0  0  0  0  0  0  0  0  0  0
   36.7450   28.8690   37.5760 C   0  0  0  0  0  0  0  0  0  0  0  0
   35.3710   29.0490   37.6630 C   0  0  0  0  0  0  0  0  0  0  0  0
   34.9190   29.0460   38.6620 H   0  0  0  0  0  0  0  0  0  0  0  0
   34.5780   29.2270   36.5560 C   0  0  0  0  0  3  0  0  0  0  0  0
   35.1580   29.2290   35.3050 C   0  0  0  0  0  3  0  0  0  0  0  0
   36.5130   29.0530   35.1940 C   0  0  0  0  0  0  0  0  0  0  0  0
   38.6930   28.6910   36.1900 O   0  0  0  0  0  0  0  0  0  0  0  0
   39.0540   27.8910   36.7200 H   0  0  0  0  0  0  0  0  0  0  0  0
   37.1370   29.0480   33.9510 O   0  0  0  0  0  0  0  0  0  0  0  0
   36.6070   28.9450   33.0980 H   0  0  0  0  0  0  0  0  0  0  0  0
  1  2  1  0  0  0  0
  2 11  1  0  0  0  0
  2  3  2  0  0  0  0
  3 12  1  0  0  0  0
  4 13  1  0  0  0  0
  4  3  1  0  0  0  0
  5  4  2  0  0  0  0
  6 14  1  0  0  0  0
  6  5  1  0  0  0  0
  7  6  2  0  0  0  0
  8  7  1  0  0  0  0
  8  9  2  0  0  0  0
  9 10  1  0  0  0  0
 10  5  1  0  0  0  0
 10  1  2  0  0  0  0
 15  7  1  0  0  0  0
 16  8  1  0  0  0  0
 17 22  1  0  0  0  0
 18 19  1  0  0  0  0
 18 17  2  0  0  0  0
 19 20  2  0  0  0  0
 20 21  1  0  0  0  0
 21  1  1  0  0  0  0
 22 21  2  0  0  0  0
 23 17  1  0  0  0  0
 24 19  1  0  0  0  0
 25 18  1  0  0  0  0
 25 26  1  0  0  0  0
 27 25  1  0  0  0  0
 28  9  1  0  0  0  0
 29 30  1  0  0  0  0
 30 31  2  0  0  0  0
 30 28  1  0  0  0  0
 31 32  1  0  0  0  0
 33 31  1  0  0  0  0
 34 33  2  0  0  0  0
 35 34  1  0  0  0  0
 35 29  2  0  0  0  0
 36 29  1  0  0  0  0
 36 37  1  0  0  0  0
 38 35  1  0  0  0  0
 39 38  1  0  0  0  0
M  END
>  <minimizedAffinity>
-6.82898998

$$$$

 OpenBabel03242515583D

 39 42  0  0  0  0  0  0  0  0999 V2000
   38.8150   26.5760   40.3930 C   0  0  0  0  0  0  0  0  0  0  0  0
   38.5800   25.1860   40.2130 C   0  0  0  0  0  0  0  0  0  0  0  0
   37.7810   24.4420   41.0320 C   0  0  0  0  0  0  0  0  0  0  0  0
   37.1600   25.0040   42.0820 C   0  0  0  0  0  0  0  0  0  0  0  0
   37.3480   26.3690   42.3170 C   0  0  0  0  0  0  0  0  0  0  0  0
   36.7070   26.9080   43.3890 C   0  0  0  0  0  0  0  0  0  0  0  0
   36.8510   28.2390   43.6790 C   0  0  0  0  0  0  0  0  0  0  0  0
   37.6700   28.9720   42.8300 C   0  0  0  0  0  0  0  0  0  0  0  0
   38.2710   28.3640   41.7880 C   0  0  0  0  0  0  0  0  0  0  0  0
   38.1590   27.0810   41.4710 C   0  0  0  0  0  0  0  0  0  0  0  0
   39.0500   24.6750   39.3870 H   0  0  0  0  0  0  0  0  0  0  0  0
   37.6430   23.3880   40.8410 H   0  0  0  0  0  0  0  0  0  0  0  0
   36.5320   24.3920   42.7170 H   0  0  0  0  0  0  0  0  0  0  0  0
   36.0670   26.2610   44.0250 H   0  0  0  0  0  0  0  0  0  0  0  0
   36.2910   28.5820   44.5660 H   0  0  0  0  0  0  0  0  0  0  0  0
   37.6540   30.0040   43.2020 H   0  0  0  0  0  0  0  0  0  0  0  0
   39.5420   28.4060   37.3830 C   0  0  0  0  0  0  0  0  0  0  0  0
   40.9160   28.7540   37.5590 C   0  0  0  0  0  0  0  0  0  0  0  0
   41.6080   28.3500   38.7340 C   0  0  0  0  0  0  0  0  0  0  0  0
   40.8990   27.6500   39.6200 N   0  0  0  0  0  0  0  0  0  0  0  0
   39.6500   27.3180   39.4900 C   0  0  0  0  0  0  0  0  0  0  0  0
   38.9870   27.7070   38.3590 N   0  0  0  0  0  0  0  0  0  0  0  0
   39.0380   28.7250   36.4820 H   0  0  0  0  0  0  0  0  0  0  0  0
   42.6450   28.6370   38.8200 H   0  0  0  0  0  0  0  0  0  0  0  0
   41.5160   29.5060   36.5110 N   0  0  0  0  0  0  0  0  0  0  0  0
   41.7100   28.9870   35.6100 H   0  0  0  0  0  0  0  0  0  0  0  0
   41.7500   30.5240   36.6330 H   0  0  0  0  0  0  0  0  0  0  0  0
   39.0060   29.3230   41.1480 O   0  0  0  0  0  0  0  0  0  0  0  0
   38.9610   31.7890   41.2670 C   0  0  0  0  0  0  0  0  0  0  0  0
   38.5440   30.5850   40.7400 C   0  0  0  0  0  0  0  0  0  0  0  0
   37.5970   30.6310   39.7270 C   0  0  0  0  0  0  0  0  0  0  0  0
   37.2590   29.6800   39.3000 H   0  0  0  0  0  0  0  0  0  0  0  0
   37.0810   31.8130   39.2530 C   0  0  0  0  0  3  0  0  0  0  0  0
   37.5140   33.0040   39.7970 C   0  0  0  0  0  3  0  0  0  0  0  0
   38.4500   32.9820   40.7990 C   0  0  0  0  0  0  0  0  0  0  0  0
   39.9260   31.7760   42.2950 O   0  0  0  0  0  0  0  0  0  0  0  0
   40.7420   31.1890   42.0900 H   0  0  0  0  0  0  0  0  0  0  0  0
   38.9140   34.1600   41.3740 O   0  0  0  0  0  0  0  0  0  0  0  0
   38.7580   35.0560   40.9340 H   0  0  0  0  0  0  0  0  0  0  0  0
  1 10  1  0  0  0  0
  2  1  2  0  0  0  0
  2  3  1  0  0  0  0
  3  4  2  0  0  0  0
  4  5  1  0  0  0  0
  4 13  1  0  0  0  0
  5  6  1  0  0  0  0
  6  7  2  0  0  0  0
  6 14  1  0  0  0  0
  7 15  1  0  0  0  0
  8 16  1  0  0  0  0
  8  7  1  0  0  0  0
  9  8  2  0  0  0  0
 10  9  1  0  0  0  0
 10  5  2  0  0  0  0
 11  2  1  0  0  0  0
 12  3  1  0  0  0  0
 17 18  2  0  0  0  0
 17 22  1  0  0  0  0
 18 19  1  0  0  0  0
 19 24  1  0  0  0  0
 19 20  2  0  0  0  0
 21 20  1  0  0  0  0
 21  1  1  0  0  0  0
 22 21  2  0  0  0  0
 23 17  1  0  0  0  0
 25 27  1  0  0  0  0
 25 18  1  0  0  0  0
 26 25  1  0  0  0  0
 28  9  1  0  0  0  0
 29 36  1  0  0  0  0
 30 28  1  0  0  0  0
 30 29  2  0  0  0  0
 31 30  1  0  0  0  0
 32 31  1  0  0  0  0
 33 31  2  0  0  0  0
 33 34  1  0  0  0  0
 34 35  2  0  0  0  0
 35 29  1  0  0  0  0
 35 38  1  0  0  0  0
 37 36  1  0  0  0  0
 39 38  1  0  0  0  0
M  END
>  <minimizedAffinity>
-6.79271889

$$$$

 OpenBabel03242515583D

 39 42  0  0  0  0  0  0  0  0999 V2000
   37.5800   27.4300   40.7840 C   0  0  0  0  0  0  0  0  0  0  0  0
   36.7700   26.5080   40.0660 C   0  0  0  0  0  0  0  0  0  0  0  0
   36.7750   25.1610   40.2920 C   0  0  0  0  0  0  0  0  0  0  0  0
   37.5710   24.6260   41.2310 C   0  0  0  0  0  0  0  0  0  0  0  0
   38.3940   25.4760   41.9740 C   0  0  0  0  0  0  0  0  0  0  0  0
   39.1890   24.9010   42.9170 C   0  0  0  0  0  0  0  0  0  0  0  0
   40.0230   25.6770   43.6790 C   0  0  0  0  0  0  0  0  0  0  0  0
   39.9980   27.0430   43.4280 C   0  0  0  0  0  0  0  0  0  0  0  0
   39.1820   27.5360   42.4760 C   0  0  0  0  0  0  0  0  0  0  0  0
   38.3600   26.8220   41.7170 C   0  0  0  0  0  0  0  0  0  0  0  0
   36.1080   26.8760   39.2980 H   0  0  0  0  0  0  0  0  0  0  0  0
   36.1360   24.5140   39.7110 H   0  0  0  0  0  0  0  0  0  0  0  0
   37.5570   23.5550   41.3910 H   0  0  0  0  0  0  0  0  0  0  0  0
   39.1570   23.8020   43.0630 H   0  0  0  0  0  0  0  0  0  0  0  0
   40.6270   25.1200   44.4160 H   0  0  0  0  0  0  0  0  0  0  0  0
   40.7070   27.4980   44.1320 H   0  0  0  0  0  0  0  0  0  0  0  0
   36.2960   30.7670   41.1660 C   0  0  0  0  0  0  0  0  0  0  0  0
   37.1300   31.5210   40.2840 C   0  0  0  0  0  0  0  0  0  0  0  0
   38.1520   30.8680   39.5410 C   0  0  0  0  0  0  0  0  0  0  0  0
   38.2640   29.5530   39.7270 N   0  0  0  0  0  0  0  0  0  0  0  0
   37.5230   28.8410   40.5210 C   0  0  0  0  0  0  0  0  0  0  0  0
   36.5400   29.4690   41.2340 N   0  0  0  0  0  0  0  0  0  0  0  0
   35.5270   31.2860   41.7200 H   0  0  0  0  0  0  0  0  0  0  0  0
   38.7550   31.4810   38.8880 H   0  0  0  0  0  0  0  0  0  0  0  0
   36.8700   32.9170   40.2080 N   0  0  0  0  0  0  0  0  0  0  0  0
   35.9870   33.2050   39.7020 H   0  0  0  0  0  0  0  0  0  0  0  0
   37.5260   33.6200   40.6360 H   0  0  0  0  0  0  0  0  0  0  0  0
   39.3790   28.8880   42.4530 O   0  0  0  0  0  0  0  0  0  0  0  0
   40.8880   30.8430   42.4780 C   0  0  0  0  0  0  0  0  0  0  0  0
   40.5780   29.5440   42.1330 C   0  0  0  0  0  0  0  0  0  0  0  0
   41.5330   28.8350   41.4180 C   0  0  0  0  0  0  0  0  0  0  0  0
   41.2990   27.8010   41.1390 H   0  0  0  0  0  0  0  0  0  0  0  0
   42.7410   29.3820   41.0560 C   0  0  0  0  0  3  0  0  0  0  0  0
   43.0250   30.6830   41.4120 C   0  0  0  0  0  3  0  0  0  0  0  0
   42.0970   31.4030   42.1190 C   0  0  0  0  0  0  0  0  0  0  0  0
   39.9390   31.5900   43.2080 O   0  0  0  0  0  0  0  0  0  0  0  0
   39.5660   31.0970   44.0270 H   0  0  0  0  0  0  0  0  0  0  0  0
   42.3440   32.7180   42.4990 O   0  0  0  0  0  0  0  0  0  0  0  0
   43.2760   33.1050   42.4710 H   0  0  0  0  0  0  0  0  0  0  0  0
  1 10  1  0  0  0  0
  2  3  1  0  0  0  0
  2  1  2  0  0  0  0
  3  4  2  0  0  0  0
  4 13  1  0  0  0  0
  4  5  1  0  0  0  0
  5  6  1  0  0  0  0
  6 14  1  0  0  0  0
  6  7  2  0  0  0  0
  7 15  1  0  0  0  0
  8  7  1  0  0  0  0
  8 16  1  0  0  0  0
  9  8  2  0  0  0  0
 10  5  2  0  0  0  0
 10  9  1  0  0  0  0
 11  2  1  0  0  0  0
 12  3  1  0  0  0  0
 17 22  1  0  0  0  0
 17 23  1  0  0  0  0
 18 17  2  0  0  0  0
 19 20  2  0  0  0  0
 19 18  1  0  0  0  0
 20 21  1  0  0  0  0
 21  1  1  0  0  0  0
 21 22  2  0  0  0  0
 24 19  1  0  0  0  0
 25 18  1  0  0  0  0
 25 27  1  0  0  0  0
 26 25  1  0  0  0  0
 28  9  1  0  0  0  0
 29 36  1  0  0  0  0
 30 28  1  0  0  0  0
 30 29  1  0  0  0  0
 31 30  2  0  0  0  0
 32 31  1  0  0  0  0
 33 34  2  0  0  0  0
 33 31  1  0  0  0  0
 34 35  1  0  0  0  0
 35 29  2  0  0  0  0
 35 38  1  0  0  0  0
 36 37  1  0  0  0  0
 39 38  1  0  0  0  0
M  END
>  <minimizedAffinity>
-6.60911655

$$$$

 OpenBabel03242515583D

 39 42  0  0  0  0  0  0  0  0999 V2000
   37.7650   28.6550   41.7010 C   0  0  0  0  0  0  0  0  0  0  0  0
   38.2960   28.5260   43.0140 C   0  0  0  0  0  0  0  0  0  0  0  0
   38.4260   27.3310   43.6620 C   0  0  0  0  0  0  0  0  0  0  0  0
   38.0470   26.1850   43.0740 C   0  0  0  0  0  0  0  0  0  0  0  0
   37.5170   26.2410   41.7830 C   0  0  0  0  0  0  0  0  0  0  0  0
   37.1410   25.0630   41.2150 C   0  0  0  0  0  0  0  0  0  0  0  0
   36.6100   25.0460   39.9530 C   0  0  0  0  0  0  0  0  0  0  0  0
   36.4880   26.2740   39.3160 C   0  0  0  0  0  0  0  0  0  0  0  0
   36.8830   27.3980   39.9460 C   0  0  0  0  0  0  0  0  0  0  0  0
   37.4010   27.4600   41.1650 C   0  0  0  0  0  0  0  0  0  0  0  0
   38.6190   29.4100   43.5400 H   0  0  0  0  0  0  0  0  0  0  0  0
   38.8370   27.3010   44.6600 H   0  0  0  0  0  0  0  0  0  0  0  0
   38.1610   25.2520   43.6100 H   0  0  0  0  0  0  0  0  0  0  0  0
   37.2670   24.1180   41.7830 H   0  0  0  0  0  0  0  0  0  0  0  0
   36.3370   24.0430   39.5800 H   0  0  0  0  0  0  0  0  0  0  0  0
   36.0650   26.0670   38.3250 H   0  0  0  0  0  0  0  0  0  0  0  0
   38.9640   31.4060   39.7180 C   0  0  0  0  0  0  0  0  0  0  0  0
   37.8400   32.2880   39.7050 C   0  0  0  0  0  0  0  0  0  0  0  0
   36.6480   31.9320   40.3930 C   0  0  0  0  0  0  0  0  0  0  0  0
   36.6630   30.7580   41.0250 N   0  0  0  0  0  0  0  0  0  0  0  0
   37.6670   29.9340   41.0550 C   0  0  0  0  0  0  0  0  0  0  0  0
   38.8130   30.2780   40.3930 N   0  0  0  0  0  0  0  0  0  0  0  0
   39.8580   31.6980   39.1880 H   0  0  0  0  0  0  0  0  0  0  0  0
   35.8270   32.6320   40.3540 H   0  0  0  0  0  0  0  0  0  0  0  0
   37.9990   33.5010   38.9800 N   0  0  0  0  0  0  0  0  0  0  0  0
   38.6300   34.2300   39.4130 H   0  0  0  0  0  0  0  0  0  0  0  0
   37.5100   33.6570   38.0610 H   0  0  0  0  0  0  0  0  0  0  0  0
   36.6380   28.4340   39.0880 O   0  0  0  0  0  0  0  0  0  0  0  0
   34.2470   28.9810   38.8000 C   0  0  0  0  0  0  0  0  0  0  0  0
   35.4810   28.6080   38.3110 C   0  0  0  0  0  0  0  0  0  0  0  0
   35.5810   28.3930   36.9430 C   0  0  0  0  0  0  0  0  0  0  0  0
   36.5580   28.0970   36.5430 H   0  0  0  0  0  0  0  0  0  0  0  0
   34.5120   28.5380   36.0930 C   0  0  0  0  0  3  0  0  0  0  0  0
   33.2880   28.9110   36.6080 C   0  0  0  0  0  3  0  0  0  0  0  0
   33.1660   29.1290   37.9550 C   0  0  0  0  0  0  0  0  0  0  0  0
   34.1130   29.2100   40.1850 O   0  0  0  0  0  0  0  0  0  0  0  0
   34.8370   29.8240   40.5750 H   0  0  0  0  0  0  0  0  0  0  0  0
   31.9490   29.5070   38.5150 O   0  0  0  0  0  0  0  0  0  0  0  0
   31.1920   29.8490   37.9410 H   0  0  0  0  0  0  0  0  0  0  0  0
  1  2  1  0  0  0  0
  2 11  1  0  0  0  0
  2  3  2  0  0  0  0
  3 12  1  0  0  0  0
  4 13  1  0  0  0  0
  4  3  1  0  0  0  0
  5  4  2  0  0  0  0
  6 14  1  0  0  0  0
  6  5  1  0  0  0  0
  7  6  2  0  0  0  0
  8  9  2  0  0  0  0
  8  7  1  0  0  0  0
  9 10  1  0  0  0  0
 10  1  2  0  0  0  0
 10  5  1  0  0  0  0
 15  7  1  0  0  0  0
 16  8  1  0  0  0  0
 17 22  1  0  0  0  0
 18 17  2  0  0  0  0
 18 19  1  0  0  0  0
 19 20  2  0  0  0  0
 20 21  1  0  0  0  0
 21  1  1  0  0  0  0
 22 21  2  0  0  0  0
 23 17  1  0  0  0  0
 24 19  1  0  0  0  0
 25 26  1  0  0  0  0
 25 18  1  0  0  0  0
 27 25  1  0  0  0  0
 28  9  1  0  0  0  0
 29 36  1  0  0  0  0
 30 29  1  0  0  0  0
 30 28  1  0  0  0  0
 31 30  2  0  0  0  0
 32 31  1  0  0  0  0
 33 34  2  0  0  0  0
 33 31  1  0  0  0  0
 34 35  1  0  0  0  0
 35 38  1  0  0  0  0
 35 29  2  0  0  0  0
 36 37  1  0  0  0  0
 39 38  1  0  0  0  0
M  END
>  <minimizedAffinity>
-6.44361258

$$$$

 OpenBabel03242515583D

 39 42  0  0  0  0  0  0  0  0999 V2000
   37.7460   28.3770   39.5700 C   0  0  0  0  0  0  0  0  0  0  0  0
   37.2970   27.2880   38.7730 C   0  0  0  0  0  0  0  0  0  0  0  0
   36.7680   26.1410   39.2890 C   0  0  0  0  0  0  0  0  0  0  0  0
   36.6420   25.9790   40.6170 C   0  0  0  0  0  0  0  0  0  0  0  0
   37.0640   27.0110   41.4590 C   0  0  0  0  0  0  0  0  0  0  0  0
   36.9250   26.8150   42.7980 C   0  0  0  0  0  0  0  0  0  0  0  0
   37.3220   27.7850   43.6800 C   0  0  0  0  0  0  0  0  0  0  0  0
   37.8580   28.9420   43.1280 C   0  0  0  0  0  0  0  0  0  0  0  0
   37.9630   29.0600   41.7890 C   0  0  0  0  0  0  0  0  0  0  0  0
   37.5910   28.1480   40.9010 C   0  0  0  0  0  0  0  0  0  0  0  0
   37.3710   27.3580   37.6990 H   0  0  0  0  0  0  0  0  0  0  0  0
   36.4460   25.3500   38.6290 H   0  0  0  0  0  0  0  0  0  0  0  0
   36.2190   25.0600   41.0010 H   0  0  0  0  0  0  0  0  0  0  0  0
   36.4880   25.8650   43.1690 H   0  0  0  0  0  0  0  0  0  0  0  0
   37.1680   27.5340   44.7430 H   0  0  0  0  0  0  0  0  0  0  0  0
   38.1020   29.6010   43.9700 H   0  0  0  0  0  0  0  0  0  0  0  0
   40.2810   30.3830   37.9940 C   0  0  0  0  0  0  0  0  0  0  0  0
   39.6090   31.6270   37.7940 C   0  0  0  0  0  0  0  0  0  0  0  0
   38.2580   31.7820   38.2130 C   0  0  0  0  0  0  0  0  0  0  0  0
   37.6950   30.7150   38.7810 N   0  0  0  0  0  0  0  0  0  0  0  0
   38.2780   29.5710   38.9760 C   0  0  0  0  0  0  0  0  0  0  0  0
   39.5770   29.4250   38.5740 N   0  0  0  0  0  0  0  0  0  0  0  0
   41.3060   30.2910   37.6670 H   0  0  0  0  0  0  0  0  0  0  0  0
   37.7940   32.7410   38.0400 H   0  0  0  0  0  0  0  0  0  0  0  0
   40.3630   32.6600   37.1700 N   0  0  0  0  0  0  0  0  0  0  0  0
   41.1230   33.1060   37.7540 H   0  0  0  0  0  0  0  0  0  0  0  0
   40.1680   32.9580   36.1800 H   0  0  0  0  0  0  0  0  0  0  0  0
   38.5240   30.2830   41.5480 O   0  0  0  0  0  0  0  0  0  0  0  0
   40.3800   31.9090   41.6620 C   0  0  0  0  0  0  0  0  0  0  0  0
   39.8690   30.6300   41.7500 C   0  0  0  0  0  0  0  0  0  0  0  0
   40.7600   29.6140   42.0680 C   0  0  0  0  0  0  0  0  0  0  0  0
   40.3650   28.5940   42.1420 H   0  0  0  0  0  0  0  0  0  0  0  0
   42.0960   29.8460   42.2890 C   0  0  0  0  0  3  0  0  0  0  0  0
   42.5810   31.1330   42.1930 C   0  0  0  0  0  3  0  0  0  0  0  0
   41.7200   32.1530   41.8810 C   0  0  0  0  0  0  0  0  0  0  0  0
   39.5000   32.9640   41.3440 O   0  0  0  0  0  0  0  0  0  0  0  0
   38.6440   32.9740   41.9100 H   0  0  0  0  0  0  0  0  0  0  0  0
   42.1680   33.4660   41.7750 O   0  0  0  0  0  0  0  0  0  0  0  0
   43.0680   33.7430   42.1390 H   0  0  0  0  0  0  0  0  0  0  0  0
  1 10  1  0  0  0  0
  2  3  1  0  0  0  0
  2  1  2  0  0  0  0
  3  4  2  0  0  0  0
  4 13  1  0  0  0  0
  4  5  1  0  0  0  0
  5  6  1  0  0  0  0
  6 14  1  0  0  0  0
  6  7  2  0  0  0  0
  7 15  1  0  0  0  0
  8  7  1  0  0  0  0
  8 16  1  0  0  0  0
  9  8  2  0  0  0  0
 10  5  2  0  0  0  0
 10  9  1  0  0  0  0
 11  2  1  0  0  0  0
 12  3  1  0  0  0  0
 17 22  1  0  0  0  0
 18 17  2  0  0  0  0
 18 19  1  0  0  0  0
 19 20  2  0  0  0  0
 20 21  1  0  0  0  0
 21  1  1  0  0  0  0
 22 21  2  0  0  0  0
 23 17  1  0  0  0  0
 24 19  1  0  0  0  0
 25 26  1  0  0  0  0
 25 18  1  0  0  0  0
 27 25  1  0  0  0  0
 28 30  1  0  0  0  0
 28  9  1  0  0  0  0
 29 30  2  0  0  0  0
 29 35  1  0  0  0  0
 30 31  1  0  0  0  0
 31 32  1  0  0  0  0
 31 33  2  0  0  0  0
 34 33  1  0  0  0  0
 35 34  2  0  0  0  0
 36 29  1  0  0  0  0
 36 37  1  0  0  0  0
 38 35  1  0  0  0  0
 38 39  1  0  0  0  0
M  END
>  <minimizedAffinity>
-6.34517336

$$$$

 OpenBabel03242515583D

 39 42  0  0  0  0  0  0  0  0999 V2000
   37.5250   30.0130   37.4880 C   0  0  0  0  0  0  0  0  0  0  0  0
   36.8780   30.3590   36.2690 C   0  0  0  0  0  0  0  0  0  0  0  0
   36.6780   29.4800   35.2440 C   0  0  0  0  0  0  0  0  0  0  0  0
   37.0950   28.2070   35.3400 C   0  0  0  0  0  0  0  0  0  0  0  0
   37.7380   27.8000   36.5110 C   0  0  0  0  0  0  0  0  0  0  0  0
   38.1500   26.5050   36.5750 C   0  0  0  0  0  0  0  0  0  0  0  0
   38.7900   26.0410   37.6940 C   0  0  0  0  0  0  0  0  0  0  0  0
   38.9820   26.9560   38.7210 C   0  0  0  0  0  0  0  0  0  0  0  0
   38.5450   28.2240   38.5810 C   0  0  0  0  0  0  0  0  0  0  0  0
   37.9210   28.7130   37.5180 C   0  0  0  0  0  0  0  0  0  0  0  0
   36.5200   31.3670   36.1320 H   0  0  0  0  0  0  0  0  0  0  0  0
   36.1800   29.8060   34.3440 H   0  0  0  0  0  0  0  0  0  0  0  0
   36.9230   27.5300   34.5120 H   0  0  0  0  0  0  0  0  0  0  0  0
   37.9630   25.8290   35.7150 H   0  0  0  0  0  0  0  0  0  0  0  0
   39.0840   24.9780   37.6510 H   0  0  0  0  0  0  0  0  0  0  0  0
   39.4890   26.4120   39.5280 H   0  0  0  0  0  0  0  0  0  0  0  0
   39.2200   32.6400   39.2650 C   0  0  0  0  0  0  0  0  0  0  0  0
   38.3380   32.8900   40.3600 C   0  0  0  0  0  0  0  0  0  0  0  0
   37.1380   32.1390   40.4930 C   0  0  0  0  0  0  0  0  0  0  0  0
   36.9130   31.2220   39.5510 N   0  0  0  0  0  0  0  0  0  0  0  0
   37.6940   30.9720   38.5440 C   0  0  0  0  0  0  0  0  0  0  0  0
   38.8480   31.6940   38.4190 N   0  0  0  0  0  0  0  0  0  0  0  0
   40.1260   33.2240   39.1860 H   0  0  0  0  0  0  0  0  0  0  0  0
   36.5050   32.3640   41.3370 H   0  0  0  0  0  0  0  0  0  0  0  0
   38.7360   33.9070   41.2720 N   0  0  0  0  0  0  0  0  0  0  0  0
   39.5460   33.6750   41.9110 H   0  0  0  0  0  0  0  0  0  0  0  0
   38.2450   34.8370   41.3030 H   0  0  0  0  0  0  0  0  0  0  0  0
   38.8770   28.8810   39.7330 O   0  0  0  0  0  0  0  0  0  0  0  0
   37.4350   28.2850   41.6470 C   0  0  0  0  0  0  0  0  0  0  0  0
   38.6670   28.4160   41.0410 C   0  0  0  0  0  0  0  0  0  0  0  0
   39.7810   28.0550   41.7860 C   0  0  0  0  0  0  0  0  0  0  0  0
   40.7650   28.1540   41.3140 H   0  0  0  0  0  0  0  0  0  0  0  0
   39.6860   27.5860   43.0740 C   0  0  0  0  0  3  0  0  0  0  0  0
   38.4430   27.4650   43.6580 C   0  0  0  0  0  3  0  0  0  0  0  0
   37.3280   27.8150   42.9400 C   0  0  0  0  0  0  0  0  0  0  0  0
   36.2830   28.6400   40.9140 O   0  0  0  0  0  0  0  0  0  0  0  0
   36.2490   28.2320   39.9740 H   0  0  0  0  0  0  0  0  0  0  0  0
   36.0560   27.7080   43.4910 O   0  0  0  0  0  0  0  0  0  0  0  0
   35.8900   27.1680   44.3280 H   0  0  0  0  0  0  0  0  0  0  0  0
  1 10  1  0  0  0  0
  1 21  1  0  0  0  0
  2  1  2  0  0  0  0
  3  4  2  0  0  0  0
  3  2  1  0  0  0  0
  4  5  1  0  0  0  0
  5  6  2  0  0  0  0
  5 10  1  0  0  0  0
  6  7  1  0  0  0  0
  7  8  2  0  0  0  0
  8 16  1  0  0  0  0
  9  8  1  0  0  0  0
  9 28  1  0  0  0  0
 10  9  2  0  0  0  0
 11  2  1  0  0  0  0
 12  3  1  0  0  0  0
 13  4  1  0  0  0  0
 14  6  1  0  0  0  0
 15  7  1  0  0  0  0
 17 18  1  0  0  0  0
 18 19  2  0  0  0  0
 18 25  1  0  0  0  0
 19 24  1  0  0  0  0
 20 19  1  0  0  0  0
 21 20  2  0  0  0  0
 22 21  1  0  0  0  0
 22 17  2  0  0  0  0
 23 17  1  0  0  0  0
 25 27  1  0  0  0  0
 25 26  1  0  0  0  0
 28 30  1  0  0  0  0
 29 35  1  0  0  0  0
 30 29  2  0  0  0  0
 30 31  1  0  0  0  0
 31 33  2  0  0  0  0
 32 31  1  0  0  0  0
 33 34  1  0  0  0  0
 35 38  1  0  0  0  0
 35 34  2  0  0  0  0
 36 29  1  0  0  0  0
 37 36  1  0  0  0  0
 38 39  1  0  0  0  0
M  END
>  <minimizedAffinity>
-6.09098387

$$$$

 OpenBabel03242515583D

 39 42  0  0  0  0  0  0  0  0999 V2000
   39.3370   29.6080   42.2360 C   0  0  0  0  0  0  0  0  0  0  0  0
   38.8230   28.6030   43.1010 C   0  0  0  0  0  0  0  0  0  0  0  0
   37.5490   28.1170   43.0230 C   0  0  0  0  0  0  0  0  0  0  0  0
   36.6930   28.5810   42.0980 C   0  0  0  0  0  0  0  0  0  0  0  0
   37.1340   29.5700   41.2150 C   0  0  0  0  0  0  0  0  0  0  0  0
   36.2420   30.0190   40.2910 C   0  0  0  0  0  0  0  0  0  0  0  0
   36.6070   30.9900   39.3970 C   0  0  0  0  0  0  0  0  0  0  0  0
   37.9080   31.4670   39.4990 C   0  0  0  0  0  0  0  0  0  0  0  0
   38.7330   30.9710   40.4430 C   0  0  0  0  0  0  0  0  0  0  0  0
   38.4200   30.0320   41.3260 C   0  0  0  0  0  0  0  0  0  0  0  0
   39.4620   28.1890   43.8650 H   0  0  0  0  0  0  0  0  0  0  0  0
   37.2200   27.3540   43.7110 H   0  0  0  0  0  0  0  0  0  0  0  0
   35.6880   28.1790   42.0570 H   0  0  0  0  0  0  0  0  0  0  0  0
   35.2170   29.5920   40.2680 H   0  0  0  0  0  0  0  0  0  0  0  0
   35.8160   31.2870   38.6880 H   0  0  0  0  0  0  0  0  0  0  0  0
   38.0250   32.2160   38.7050 H   0  0  0  0  0  0  0  0  0  0  0  0
   42.8950   29.4220   41.7470 C   0  0  0  0  0  0  0  0  0  0  0  0
   43.3530   30.6290   42.3580 C   0  0  0  0  0  0  0  0  0  0  0  0
   42.4210   31.5230   42.9530 C   0  0  0  0  0  0  0  0  0  0  0  0
   41.1400   31.1590   42.8950 N   0  0  0  0  0  0  0  0  0  0  0  0
   40.6920   30.0700   42.3470 C   0  0  0  0  0  0  0  0  0  0  0  0
   41.5900   29.2110   41.7760 N   0  0  0  0  0  0  0  0  0  0  0  0
   43.6220   28.7590   41.3010 H   0  0  0  0  0  0  0  0  0  0  0  0
   42.8160   32.4220   43.4020 H   0  0  0  0  0  0  0  0  0  0  0  0
   44.7560   30.8590   42.3280 N   0  0  0  0  0  0  0  0  0  0  0  0
   45.3470   30.2530   42.9630 H   0  0  0  0  0  0  0  0  0  0  0  0
   45.1770   31.5950   41.7040 H   0  0  0  0  0  0  0  0  0  0  0  0
   39.9240   31.6260   40.3050 O   0  0  0  0  0  0  0  0  0  0  0  0
   41.0820   32.8190   38.4780 C   0  0  0  0  0  0  0  0  0  0  0  0
   40.7160   31.6690   39.1460 C   0  0  0  0  0  0  0  0  0  0  0  0
   41.1730   30.4640   38.6290 C   0  0  0  0  0  0  0  0  0  0  0  0
   40.8890   29.5440   39.1530 H   0  0  0  0  0  0  0  0  0  0  0  0
   41.9550   30.3940   37.5020 C   0  0  0  0  0  3  0  0  0  0  0  0
   42.3060   31.5580   36.8520 C   0  0  0  0  0  3  0  0  0  0  0  0
   41.8670   32.7600   37.3450 C   0  0  0  0  0  0  0  0  0  0  0  0
   40.6370   34.0590   38.9800 O   0  0  0  0  0  0  0  0  0  0  0  0
   40.7980   34.1800   39.9860 H   0  0  0  0  0  0  0  0  0  0  0  0
   42.1990   33.9580   36.7190 O   0  0  0  0  0  0  0  0  0  0  0  0
   42.9410   34.0050   36.0370 H   0  0  0  0  0  0  0  0  0  0  0  0
  1 21  1  0  0  0  0
  1  2  1  0  0  0  0
  2 11  1  0  0  0  0
  3  2  2  0  0  0  0
  3 12  1  0  0  0  0
  4  3  1  0  0  0  0
  5 10  1  0  0  0  0
  5  4  2  0  0  0  0
  6  5  1  0  0  0  0
  7  8  1  0  0  0  0
  7  6  2  0  0  0  0
  8  9  2  0  0  0  0
  9 10  1  0  0  0  0
 10  1  2  0  0  0  0
 13  4  1  0  0  0  0
 14  6  1  0  0  0  0
 15  7  1  0  0  0  0
 16  8  1  0  0  0  0
 17 22  2  0  0  0  0
 17 18  1  0  0  0  0
 18 19  2  0  0  0  0
 19 24  1  0  0  0  0
 20 19  1  0  0  0  0
 21 20  2  0  0  0  0
 22 21  1  0  0  0  0
 23 17  1  0  0  0  0
 25 18  1  0  0  0  0
 25 26  1  0  0  0  0
 27 25  1  0  0  0  0
 28  9  1  0  0  0  0
 29 36  1  0  0  0  0
 29 30  1  0  0  0  0
 30 28  1  0  0  0  0
 31 30  2  0  0  0  0
 31 32  1  0  0  0  0
 33 31  1  0  0  0  0
 34 35  1  0  0  0  0
 34 33  2  0  0  0  0
 35 29  2  0  0  0  0
 36 37  1  0  0  0  0
 38 35  1  0  0  0  0
 39 38  1  0  0  0  0
M  END
>  <minimizedAffinity>
-6.05451393

$$$$

 OpenBabel03242515583D

 39 42  0  0  0  0  0  0  0  0999 V2000
   37.6100   26.2070   40.7650 C   0  0  0  0  0  0  0  0  0  0  0  0
   37.3170   25.2000   41.7250 C   0  0  0  0  0  0  0  0  0  0  0  0
   37.8800   23.9560   41.7120 C   0  0  0  0  0  0  0  0  0  0  0  0
   38.7650   23.6130   40.7620 C   0  0  0  0  0  0  0  0  0  0  0  0
   39.0990   24.5560   39.7870 C   0  0  0  0  0  0  0  0  0  0  0  0
   39.9970   24.1770   38.8390 C   0  0  0  0  0  0  0  0  0  0  0  0
   40.3660   25.0520   37.8520 C   0  0  0  0  0  0  0  0  0  0  0  0
   39.7770   26.3090   37.8870 C   0  0  0  0  0  0  0  0  0  0  0  0
   38.8940   26.6090   38.8610 C   0  0  0  0  0  0  0  0  0  0  0  0
   38.5110   25.7940   39.8340 C   0  0  0  0  0  0  0  0  0  0  0  0
   36.6130   25.4140   42.5150 H   0  0  0  0  0  0  0  0  0  0  0  0
   37.6140   23.2360   42.4710 H   0  0  0  0  0  0  0  0  0  0  0  0
   39.1980   22.6210   40.7750 H   0  0  0  0  0  0  0  0  0  0  0  0
   40.4270   23.1550   38.8720 H   0  0  0  0  0  0  0  0  0  0  0  0
   41.0990   24.6520   37.1300 H   0  0  0  0  0  0  0  0  0  0  0  0
   40.1960   26.8710   37.0430 H   0  0  0  0  0  0  0  0  0  0  0  0
   37.2500   29.5750   41.9730 C   0  0  0  0  0  0  0  0  0  0  0  0
   36.1320   30.0530   41.2230 C   0  0  0  0  0  0  0  0  0  0  0  0
   35.4860   29.2000   40.2860 C   0  0  0  0  0  0  0  0  0  0  0  0
   35.9890   27.9710   40.1690 N   0  0  0  0  0  0  0  0  0  0  0  0
   37.0030   27.5070   40.8350 C   0  0  0  0  0  0  0  0  0  0  0  0
   37.6220   28.3290   41.7360 N   0  0  0  0  0  0  0  0  0  0  0  0
   37.7230   30.2430   42.6790 H   0  0  0  0  0  0  0  0  0  0  0  0
   34.6460   29.6070   39.7440 H   0  0  0  0  0  0  0  0  0  0  0  0
   35.7290   31.3940   41.4750 N   0  0  0  0  0  0  0  0  0  0  0  0
   35.2500   31.5750   42.4010 H   0  0  0  0  0  0  0  0  0  0  0  0
   35.9010   32.1580   40.7740 H   0  0  0  0  0  0  0  0  0  0  0  0
   38.4850   27.8940   38.6360 O   0  0  0  0  0  0  0  0  0  0  0  0
   39.1890   30.0810   37.7280 C   0  0  0  0  0  0  0  0  0  0  0  0
   39.3070   29.0330   38.6170 C   0  0  0  0  0  0  0  0  0  0  0  0
   40.3160   29.1190   39.5660 C   0  0  0  0  0  0  0  0  0  0  0  0
   40.4180   28.2920   40.2790 H   0  0  0  0  0  0  0  0  0  0  0  0
   41.1730   30.1900   39.6370 C   0  0  0  0  0  3  0  0  0  0  0  0
   41.0340   31.2250   38.7360 C   0  0  0  0  0  3  0  0  0  0  0  0
   40.0440   31.1610   37.7900 C   0  0  0  0  0  0  0  0  0  0  0  0
   38.1710   30.0250   36.7530 O   0  0  0  0  0  0  0  0  0  0  0  0
   37.2470   29.7900   37.1320 H   0  0  0  0  0  0  0  0  0  0  0  0
   39.8700   32.1840   36.8630 O   0  0  0  0  0  0  0  0  0  0  0  0
   40.3010   33.0880   36.9910 H   0  0  0  0  0  0  0  0  0  0  0  0
  1 21  1  0  0  0  0
  1  2  1  0  0  0  0
  2 11  1  0  0  0  0
  3  2  2  0  0  0  0
  3 12  1  0  0  0  0
  4 13  1  0  0  0  0
  4  3  1  0  0  0  0
  5 10  1  0  0  0  0
  5  4  2  0  0  0  0
  6 14  1  0  0  0  0
  6  5  1  0  0  0  0
  7  8  1  0  0  0  0
  7  6  2  0  0  0  0
  8  9  2  0  0  0  0
  9 10  1  0  0  0  0
 10  1  2  0  0  0  0
 15  7  1  0  0  0  0
 16  8  1  0  0  0  0
 17 23  1  0  0  0  0
 18 25  1  0  0  0  0
 18 17  2  0  0  0  0
 19 18  1  0  0  0  0
 20 19  2  0  0  0  0
 20 21  1  0  0  0  0
 21 22  2  0  0  0  0
 22 17  1  0  0  0  0
 24 19  1  0  0  0  0
 25 26  1  0  0  0  0
 27 25  1  0  0  0  0
 28  9  1  0  0  0  0
 29 35  2  0  0  0  0
 29 30  1  0  0  0  0
 30 28  1  0  0  0  0
 30 31  2  0  0  0  0
 31 33  1  0  0  0  0
 31 32  1  0  0  0  0
 34 33  2  0  0  0  0
 35 34  1  0  0  0  0
 36 37  1  0  0  0  0
 36 29  1  0  0  0  0
 38 39  1  0  0  0  0
 38 35  1  0  0  0  0
M  END
>  <minimizedAffinity>
-6.03390074

$$$$
