
 OpenBabel03242518333D

 30 32  0  0  0  0  0  0  0  0999 V2000
   37.5680   30.5590   39.4970 C   0  0  0  0  0  0  0  0  0  0  0  0
   36.9880   31.6980   40.0020 C   0  0  0  0  0  0  0  0  0  0  0  0
   37.9330   32.7030   39.9710 C   0  0  0  0  0  0  0  0  0  0  0  0
   39.0600   32.1240   39.4410 C   0  0  0  0  0  0  0  0  0  0  0  0
   38.8290   30.8640   39.1670 O   0  0  0  0  0  0  0  0  0  0  0  0
   35.9590   31.6810   40.3360 H   0  0  0  0  0  0  0  0  0  0  0  0
   37.7460   33.7090   40.3100 H   0  0  0  0  0  0  0  0  0  0  0  0
   40.8240   33.0430   37.9580 C   0  0  0  0  0  0  0  0  0  0  0  0
   40.3190   32.8150   39.2180 C   0  0  0  0  0  0  0  0  0  0  0  0
   41.0810   33.2830   40.2620 C   0  0  0  0  0  0  0  0  0  0  0  0
   40.6890   33.1070   41.2710 H   0  0  0  0  0  0  0  0  0  0  0  0
   42.2860   33.9500   40.1680 C   0  0  0  0  0  3  0  0  0  0  0  0
   42.7630   34.1610   38.8900 C   0  0  0  0  0  3  0  0  0  0  0  0
   42.0400   33.7130   37.7800 C   0  0  0  0  0  0  0  0  0  0  0  0
   40.1250   32.6070   36.8330 O   0  0  0  0  0  0  0  0  0  0  0  0
   40.5080   31.8760   36.2380 H   0  0  0  0  0  0  0  0  0  0  0  0
   42.5510   33.9440   36.5150 O   0  0  0  0  0  0  0  0  0  0  0  0
   43.1800   34.7230   36.3760 H   0  0  0  0  0  0  0  0  0  0  0  0
   37.0470   29.2660   39.3090 O   0  0  0  0  0  0  0  0  0  0  0  0
   36.1740   28.7020   40.2330 C   0  0  0  0  0  0  0  0  0  0  0  0
   34.9740   28.6970   39.9140 O   0  0  0  0  0  0  0  0  0  0  0  0
   36.7790   28.2010   41.4310 C   0  0  0  0  0  0  0  0  0  0  0  0
   37.0230   26.8430   41.3970 C   0  0  0  0  0  0  0  0  0  0  0  0
   37.6130   26.2700   42.5300 C   0  0  0  0  0  0  0  0  0  0  0  0
   37.9110   27.0580   43.5840 N   0  0  0  0  0  0  0  0  0  0  0  0
   37.6450   28.3910   43.5580 C   0  0  0  0  0  0  0  0  0  0  0  0
   37.0760   28.9680   42.4770 N   0  0  0  0  0  0  0  0  0  0  0  0
   36.7990   26.1850   40.5750 H   0  0  0  0  0  0  0  0  0  0  0  0
   37.8260   25.1970   42.5510 H   0  0  0  0  0  0  0  0  0  0  0  0
   37.9090   28.9720   44.4360 H   0  0  0  0  0  0  0  0  0  0  0  0
  1  2  2  0  0  0  0
  2  6  1  0  0  0  0
  3  2  1  0  0  0  0
  3  7  1  0  0  0  0
  4  3  2  0  0  0  0
  5  4  1  0  0  0  0
  5  1  1  0  0  0  0
  8  9  1  0  0  0  0
  9  4  1  0  0  0  0
  9 10  2  0  0  0  0
 10 11  1  0  0  0  0
 12 10  1  0  0  0  0
 13 12  2  0  0  0  0
 14  8  2  0  0  0  0
 14 13  1  0  0  0  0
 15  8  1  0  0  0  0
 16 15  1  0  0  0  0
 17 14  1  0  0  0  0
 18 17  1  0  0  0  0
 19  1  1  0  0  0  0
 19 20  1  0  0  0  0
 20 22  1  0  0  0  0
 21 20  2  0  0  0  0
 22 27  1  0  0  0  0
 23 22  2  0  0  0  0
 23 24  1  0  0  0  0
 24 29  1  0  0  0  0
 24 25  2  0  0  0  0
 26 25  1  0  0  0  0
 26 30  1  0  0  0  0
 27 26  2  0  0  0  0
 28 23  1  0  0  0  0
M  END
>  <minimizedAffinity>
-6.0695076

$$$$

 OpenBabel03242518333D

 30 32  0  0  0  0  0  0  0  0999 V2000
   37.1730   26.9950   42.5260 C   0  0  0  0  0  0  0  0  0  0  0  0
   37.3370   27.7230   43.6800 C   0  0  0  0  0  0  0  0  0  0  0  0
   37.7030   29.0050   43.3230 C   0  0  0  0  0  0  0  0  0  0  0  0
   37.7460   29.0000   41.9500 C   0  0  0  0  0  0  0  0  0  0  0  0
   37.4320   27.8130   41.4970 O   0  0  0  0  0  0  0  0  0  0  0  0
   37.1790   27.2580   44.6440 H   0  0  0  0  0  0  0  0  0  0  0  0
   37.8970   29.7910   44.0350 H   0  0  0  0  0  0  0  0  0  0  0  0
   37.1990   31.1680   40.8750 C   0  0  0  0  0  0  0  0  0  0  0  0
   38.0890   30.1490   41.1290 C   0  0  0  0  0  0  0  0  0  0  0  0
   39.3310   30.2820   40.5550 C   0  0  0  0  0  0  0  0  0  0  0  0
   40.0490   29.4770   40.7500 H   0  0  0  0  0  0  0  0  0  0  0  0
   39.7640   31.3260   39.7610 C   0  0  0  0  0  3  0  0  0  0  0  0
   38.8470   32.3300   39.5270 C   0  0  0  0  0  3  0  0  0  0  0  0
   37.5630   32.2610   40.0800 C   0  0  0  0  0  0  0  0  0  0  0  0
   35.9130   31.1260   41.4120 O   0  0  0  0  0  0  0  0  0  0  0  0
   35.1020   31.0290   40.8050 H   0  0  0  0  0  0  0  0  0  0  0  0
   36.6720   33.2870   39.8220 O   0  0  0  0  0  0  0  0  0  0  0  0
   37.0330   34.2040   39.5990 H   0  0  0  0  0  0  0  0  0  0  0  0
   36.8080   25.6520   42.3300 O   0  0  0  0  0  0  0  0  0  0  0  0
   37.7570   24.6880   42.0110 C   0  0  0  0  0  0  0  0  0  0  0  0
   38.8260   24.7470   42.6410 O   0  0  0  0  0  0  0  0  0  0  0  0
   37.3740   23.7530   40.9950 C   0  0  0  0  0  0  0  0  0  0  0  0
   36.1920   24.0830   40.3620 C   0  0  0  0  0  0  0  0  0  0  0  0
   35.7430   23.2220   39.3540 C   0  0  0  0  0  0  0  0  0  0  0  0
   36.4730   22.1280   39.0530 N   0  0  0  0  0  0  0  0  0  0  0  0
   37.6300   21.8550   39.7130 C   0  0  0  0  0  0  0  0  0  0  0  0
   38.0840   22.6710   40.6890 N   0  0  0  0  0  0  0  0  0  0  0  0
   35.5850   24.9460   40.5770 H   0  0  0  0  0  0  0  0  0  0  0  0
   34.8110   23.4410   38.8230 H   0  0  0  0  0  0  0  0  0  0  0  0
   38.1740   20.9610   39.4250 H   0  0  0  0  0  0  0  0  0  0  0  0
  1  2  2  0  0  0  0
  2  6  1  0  0  0  0
  3  2  1  0  0  0  0
  3  7  1  0  0  0  0
  4  3  2  0  0  0  0
  5  4  1  0  0  0  0
  5  1  1  0  0  0  0
  8  9  1  0  0  0  0
  8 15  1  0  0  0  0
  9  4  1  0  0  0  0
 10 11  1  0  0  0  0
 10  9  2  0  0  0  0
 12 10  1  0  0  0  0
 13 12  2  0  0  0  0
 13 14  1  0  0  0  0
 14  8  2  0  0  0  0
 16 15  1  0  0  0  0
 17 14  1  0  0  0  0
 18 17  1  0  0  0  0
 19  1  1  0  0  0  0
 20 19  1  0  0  0  0
 20 21  2  0  0  0  0
 22 20  1  0  0  0  0
 23 28  1  0  0  0  0
 23 22  2  0  0  0  0
 24 23  1  0  0  0  0
 25 24  2  0  0  0  0
 25 26  1  0  0  0  0
 26 27  2  0  0  0  0
 27 22  1  0  0  0  0
 29 24  1  0  0  0  0
 30 26  1  0  0  0  0
M  END
>  <minimizedAffinity>
-6.06057358

$$$$

 OpenBabel03242518333D

 30 32  0  0  0  0  0  0  0  0999 V2000
   37.4610   27.3870   41.9980 C   0  0  0  0  0  0  0  0  0  0  0  0
   37.5490   27.8560   43.2870 C   0  0  0  0  0  0  0  0  0  0  0  0
   37.8680   29.1970   43.2280 C   0  0  0  0  0  0  0  0  0  0  0  0
   37.9600   29.4880   41.8890 C   0  0  0  0  0  0  0  0  0  0  0  0
   37.7180   28.4150   41.1800 O   0  0  0  0  0  0  0  0  0  0  0  0
   37.3780   27.1880   44.1210 H   0  0  0  0  0  0  0  0  0  0  0  0
   38.0000   29.8180   44.0990 H   0  0  0  0  0  0  0  0  0  0  0  0
   37.3230   31.6230   40.7970 C   0  0  0  0  0  0  0  0  0  0  0  0
   38.2790   30.7990   41.3470 C   0  0  0  0  0  0  0  0  0  0  0  0
   39.5620   31.2910   41.3540 C   0  0  0  0  0  0  0  0  0  0  0  0
   40.3320   30.6440   41.7900 H   0  0  0  0  0  0  0  0  0  0  0  0
   39.9770   32.5160   40.8690 C   0  0  0  0  0  3  0  0  0  0  0  0
   38.9930   33.3160   40.3250 C   0  0  0  0  0  3  0  0  0  0  0  0
   37.6650   32.8800   40.2850 C   0  0  0  0  0  0  0  0  0  0  0  0
   35.9910   31.2140   40.7430 O   0  0  0  0  0  0  0  0  0  0  0  0
   35.5410   31.0370   39.8480 H   0  0  0  0  0  0  0  0  0  0  0  0
   36.7080   33.7120   39.7310 O   0  0  0  0  0  0  0  0  0  0  0  0
   36.8700   34.7090   39.7270 H   0  0  0  0  0  0  0  0  0  0  0  0
   37.1650   26.1040   41.5040 O   0  0  0  0  0  0  0  0  0  0  0  0
   37.8950   24.9920   41.9090 C   0  0  0  0  0  0  0  0  0  0  0  0
   37.2340   24.0440   42.3660 O   0  0  0  0  0  0  0  0  0  0  0  0
   39.3150   25.0890   41.7450 C   0  0  0  0  0  0  0  0  0  0  0  0
   40.0130   24.9780   42.9300 C   0  0  0  0  0  0  0  0  0  0  0  0
   41.4090   25.0620   42.8610 C   0  0  0  0  0  0  0  0  0  0  0  0
   41.9970   25.2450   41.6610 N   0  0  0  0  0  0  0  0  0  0  0  0
   41.2540   25.3470   40.5270 C   0  0  0  0  0  0  0  0  0  0  0  0
   39.9050   25.2690   40.5670 N   0  0  0  0  0  0  0  0  0  0  0  0
   39.5790   24.8330   43.9040 H   0  0  0  0  0  0  0  0  0  0  0  0
   42.0070   24.9800   43.7740 H   0  0  0  0  0  0  0  0  0  0  0  0
   41.7840   25.4920   39.5900 H   0  0  0  0  0  0  0  0  0  0  0  0
  1  2  2  0  0  0  0
  2  6  1  0  0  0  0
  3  2  1  0  0  0  0
  3  7  1  0  0  0  0
  4  3  2  0  0  0  0
  5  4  1  0  0  0  0
  5  1  1  0  0  0  0
  8  9  1  0  0  0  0
  9 10  2  0  0  0  0
  9  4  1  0  0  0  0
 10 11  1  0  0  0  0
 12 10  1  0  0  0  0
 13 12  2  0  0  0  0
 14 13  1  0  0  0  0
 14  8  2  0  0  0  0
 15  8  1  0  0  0  0
 16 15  1  0  0  0  0
 17 14  1  0  0  0  0
 18 17  1  0  0  0  0
 19 20  1  0  0  0  0
 19  1  1  0  0  0  0
 20 21  2  0  0  0  0
 22 20  1  0  0  0  0
 22 23  1  0  0  0  0
 23 28  1  0  0  0  0
 24 23  2  0  0  0  0
 24 29  1  0  0  0  0
 25 24  1  0  0  0  0
 26 27  1  0  0  0  0
 26 25  2  0  0  0  0
 27 22  2  0  0  0  0
 30 26  1  0  0  0  0
M  END
>  <minimizedAffinity>
-5.82009411

$$$$

 OpenBabel03242518333D

 30 32  0  0  0  0  0  0  0  0999 V2000
   36.6730   28.4120   41.7990 C   0  0  0  0  0  0  0  0  0  0  0  0
   35.8110   28.5610   40.7390 C   0  0  0  0  0  0  0  0  0  0  0  0
   36.0720   29.7800   40.1480 C   0  0  0  0  0  0  0  0  0  0  0  0
   37.0960   30.3260   40.8850 C   0  0  0  0  0  0  0  0  0  0  0  0
   37.4380   29.5100   41.8500 O   0  0  0  0  0  0  0  0  0  0  0  0
   35.0920   27.7850   40.5090 H   0  0  0  0  0  0  0  0  0  0  0  0
   35.5390   30.1550   39.2900 H   0  0  0  0  0  0  0  0  0  0  0  0
   38.9770   31.9360   41.0460 C   0  0  0  0  0  0  0  0  0  0  0  0
   37.7060   31.6200   40.6230 C   0  0  0  0  0  0  0  0  0  0  0  0
   37.0420   32.6050   39.9330 C   0  0  0  0  0  0  0  0  0  0  0  0
   36.0280   32.3640   39.5900 H   0  0  0  0  0  0  0  0  0  0  0  0
   37.5210   33.8630   39.6280 C   0  0  0  0  0  3  0  0  0  0  0  0
   38.7980   34.1480   40.0680 C   0  0  0  0  0  3  0  0  0  0  0  0
   39.5340   33.1910   40.7760 C   0  0  0  0  0  0  0  0  0  0  0  0
   39.7330   31.0030   41.7550 O   0  0  0  0  0  0  0  0  0  0  0  0
   39.9780   31.1690   42.7290 H   0  0  0  0  0  0  0  0  0  0  0  0
   40.8110   33.5140   41.2000 O   0  0  0  0  0  0  0  0  0  0  0  0
   41.3300   34.2200   40.6970 H   0  0  0  0  0  0  0  0  0  0  0  0
   36.8230   27.3620   42.7220 O   0  0  0  0  0  0  0  0  0  0  0  0
   38.0130   26.6500   42.8130 C   0  0  0  0  0  0  0  0  0  0  0  0
   38.8150   27.0390   43.6790 O   0  0  0  0  0  0  0  0  0  0  0  0
   38.1570   25.5610   41.8940 C   0  0  0  0  0  0  0  0  0  0  0  0
   37.0540   24.7320   41.8480 C   0  0  0  0  0  0  0  0  0  0  0  0
   37.1100   23.6400   40.9730 C   0  0  0  0  0  0  0  0  0  0  0  0
   38.2190   23.4520   40.2290 N   0  0  0  0  0  0  0  0  0  0  0  0
   39.2750   24.3030   40.3190 C   0  0  0  0  0  0  0  0  0  0  0  0
   39.2450   25.3640   41.1550 N   0  0  0  0  0  0  0  0  0  0  0  0
   36.1540   24.8520   42.4260 H   0  0  0  0  0  0  0  0  0  0  0  0
   36.2600   22.9540   40.9010 H   0  0  0  0  0  0  0  0  0  0  0  0
   40.1380   24.1000   39.6940 H   0  0  0  0  0  0  0  0  0  0  0  0
  1  5  1  0  0  0  0
  1 19  1  0  0  0  0
  2  1  2  0  0  0  0
  3  2  1  0  0  0  0
  3  4  2  0  0  0  0
  4  5  1  0  0  0  0
  6  2  1  0  0  0  0
  7  3  1  0  0  0  0
  8 15  1  0  0  0  0
  9  4  1  0  0  0  0
  9  8  2  0  0  0  0
 10  9  1  0  0  0  0
 11 10  1  0  0  0  0
 12 10  2  0  0  0  0
 12 13  1  0  0  0  0
 13 14  2  0  0  0  0
 14  8  1  0  0  0  0
 14 17  1  0  0  0  0
 15 16  1  0  0  0  0
 18 17  1  0  0  0  0
 19 20  1  0  0  0  0
 20 21  2  0  0  0  0
 22 20  1  0  0  0  0
 23 22  1  0  0  0  0
 23 28  1  0  0  0  0
 24 23  2  0  0  0  0
 25 26  2  0  0  0  0
 25 24  1  0  0  0  0
 26 27  1  0  0  0  0
 27 22  2  0  0  0  0
 29 24  1  0  0  0  0
 30 26  1  0  0  0  0
M  END
>  <minimizedAffinity>
-5.75440264

$$$$

 OpenBabel03242518333D

 30 32  0  0  0  0  0  0  0  0999 V2000
   39.2710   28.2430   42.9430 C   0  0  0  0  0  0  0  0  0  0  0  0
   40.6360   28.3920   42.8940 C   0  0  0  0  0  0  0  0  0  0  0  0
   40.9090   29.5970   42.2800 C   0  0  0  0  0  0  0  0  0  0  0  0
   39.6810   30.1350   41.9780 C   0  0  0  0  0  0  0  0  0  0  0  0
   38.7290   29.3280   42.3750 O   0  0  0  0  0  0  0  0  0  0  0  0
   41.2810   27.6240   43.3000 H   0  0  0  0  0  0  0  0  0  0  0  0
   41.9060   29.9680   42.1090 H   0  0  0  0  0  0  0  0  0  0  0  0
   38.2350   31.8430   40.9080 C   0  0  0  0  0  0  0  0  0  0  0  0
   39.4780   31.4140   41.3170 C   0  0  0  0  0  0  0  0  0  0  0  0
   40.5220   32.2700   41.0630 C   0  0  0  0  0  0  0  0  0  0  0  0
   41.5160   31.9380   41.3850 H   0  0  0  0  0  0  0  0  0  0  0  0
   40.4440   33.5020   40.4450 C   0  0  0  0  0  3  0  0  0  0  0  0
   39.1850   33.9030   40.0480 C   0  0  0  0  0  3  0  0  0  0  0  0
   38.0750   33.0810   40.2750 C   0  0  0  0  0  0  0  0  0  0  0  0
   37.1120   31.0460   41.1210 O   0  0  0  0  0  0  0  0  0  0  0  0
   36.6060   30.6450   40.3340 H   0  0  0  0  0  0  0  0  0  0  0  0
   36.8290   33.5180   39.8620 O   0  0  0  0  0  0  0  0  0  0  0  0
   36.6620   34.5110   39.7750 H   0  0  0  0  0  0  0  0  0  0  0  0
   38.4760   27.2050   43.4610 O   0  0  0  0  0  0  0  0  0  0  0  0
   37.1760   27.0020   43.0120 C   0  0  0  0  0  0  0  0  0  0  0  0
   36.2800   27.5430   43.6790 O   0  0  0  0  0  0  0  0  0  0  0  0
   37.0460   26.1930   41.8370 C   0  0  0  0  0  0  0  0  0  0  0  0
   37.1180   24.8380   42.0910 C   0  0  0  0  0  0  0  0  0  0  0  0
   37.0000   23.9730   40.9970 C   0  0  0  0  0  0  0  0  0  0  0  0
   36.8240   24.4950   39.7650 N   0  0  0  0  0  0  0  0  0  0  0  0
   36.7620   25.8400   39.5770 C   0  0  0  0  0  0  0  0  0  0  0  0
   36.8730   26.6950   40.6170 N   0  0  0  0  0  0  0  0  0  0  0  0
   37.2580   24.3880   43.0590 H   0  0  0  0  0  0  0  0  0  0  0  0
   37.0510   22.8910   41.1480 H   0  0  0  0  0  0  0  0  0  0  0  0
   36.6170   26.1990   38.5630 H   0  0  0  0  0  0  0  0  0  0  0  0
  1 19  1  0  0  0  0
  2  1  2  0  0  0  0
  2  6  1  0  0  0  0
  3  2  1  0  0  0  0
  4  3  2  0  0  0  0
  4  5  1  0  0  0  0
  5  1  1  0  0  0  0
  7  3  1  0  0  0  0
  8 15  1  0  0  0  0
  8  9  1  0  0  0  0
  9  4  1  0  0  0  0
 10  9  2  0  0  0  0
 10 11  1  0  0  0  0
 12 10  1  0  0  0  0
 13 14  1  0  0  0  0
 13 12  2  0  0  0  0
 14  8  2  0  0  0  0
 16 15  1  0  0  0  0
 17 14  1  0  0  0  0
 18 17  1  0  0  0  0
 20 19  1  0  0  0  0
 20 21  2  0  0  0  0
 22 23  1  0  0  0  0
 22 20  1  0  0  0  0
 23 28  1  0  0  0  0
 24 29  1  0  0  0  0
 24 23  2  0  0  0  0
 25 24  1  0  0  0  0
 26 25  2  0  0  0  0
 26 27  1  0  0  0  0
 27 22  2  0  0  0  0
 30 26  1  0  0  0  0
M  END
>  <minimizedAffinity>
-5.6833725

$$$$

 OpenBabel03242518333D

 30 32  0  0  0  0  0  0  0  0999 V2000
   38.4130   28.3310   42.8430 C   0  0  0  0  0  0  0  0  0  0  0  0
   37.2810   28.0550   43.5700 C   0  0  0  0  0  0  0  0  0  0  0  0
   36.7210   26.9010   43.0610 C   0  0  0  0  0  0  0  0  0  0  0  0
   37.5490   26.5210   42.0330 C   0  0  0  0  0  0  0  0  0  0  0  0
   38.5390   27.3710   41.9180 O   0  0  0  0  0  0  0  0  0  0  0  0
   36.9810   28.7090   44.3790 H   0  0  0  0  0  0  0  0  0  0  0  0
   35.8190   26.4540   43.4460 H   0  0  0  0  0  0  0  0  0  0  0  0
   37.9160   24.1260   41.4990 C   0  0  0  0  0  0  0  0  0  0  0  0
   37.3500   25.3450   41.2010 C   0  0  0  0  0  0  0  0  0  0  0  0
   36.5810   25.3870   40.0630 C   0  0  0  0  0  0  0  0  0  0  0  0
   36.1250   26.3530   39.8160 H   0  0  0  0  0  0  0  0  0  0  0  0
   36.3250   24.3380   39.2040 C   0  0  0  0  0  3  0  0  0  0  0  0
   36.9070   23.1300   39.5310 C   0  0  0  0  0  3  0  0  0  0  0  0
   37.7030   23.0140   40.6760 C   0  0  0  0  0  0  0  0  0  0  0  0
   38.7140   23.9810   42.6320 O   0  0  0  0  0  0  0  0  0  0  0  0
   39.7080   23.7830   42.5430 H   0  0  0  0  0  0  0  0  0  0  0  0
   38.2690   21.7860   40.9710 O   0  0  0  0  0  0  0  0  0  0  0  0
   37.8240   20.9470   40.6270 H   0  0  0  0  0  0  0  0  0  0  0  0
   39.3420   29.3820   42.9490 O   0  0  0  0  0  0  0  0  0  0  0  0
   39.8450   30.0140   41.8180 C   0  0  0  0  0  0  0  0  0  0  0  0
   40.9790   29.6600   41.4560 O   0  0  0  0  0  0  0  0  0  0  0  0
   38.9850   30.9920   41.2210 C   0  0  0  0  0  0  0  0  0  0  0  0
   39.5400   32.2540   41.1720 C   0  0  0  0  0  0  0  0  0  0  0  0
   38.7660   33.2730   40.6030 C   0  0  0  0  0  0  0  0  0  0  0  0
   37.5350   32.9780   40.1370 N   0  0  0  0  0  0  0  0  0  0  0  0
   37.0420   31.7140   40.2130 C   0  0  0  0  0  0  0  0  0  0  0  0
   37.7700   30.7140   40.7580 N   0  0  0  0  0  0  0  0  0  0  0  0
   40.5170   32.5260   41.5340 H   0  0  0  0  0  0  0  0  0  0  0  0
   39.1630   34.2910   40.5410 H   0  0  0  0  0  0  0  0  0  0  0  0
   36.0460   31.5380   39.8200 H   0  0  0  0  0  0  0  0  0  0  0  0
  1 19  1  0  0  0  0
  1  2  2  0  0  0  0
  2  6  1  0  0  0  0
  3  7  1  0  0  0  0
  3  2  1  0  0  0  0
  4  3  2  0  0  0  0
  5  4  1  0  0  0  0
  5  1  1  0  0  0  0
  8 15  1  0  0  0  0
  9  8  1  0  0  0  0
  9  4  1  0  0  0  0
 10  9  2  0  0  0  0
 11 10  1  0  0  0  0
 12 13  2  0  0  0  0
 12 10  1  0  0  0  0
 13 14  1  0  0  0  0
 14 17  1  0  0  0  0
 14  8  2  0  0  0  0
 16 15  1  0  0  0  0
 18 17  1  0  0  0  0
 20 19  1  0  0  0  0
 21 20  2  0  0  0  0
 22 20  1  0  0  0  0
 23 22  1  0  0  0  0
 23 28  1  0  0  0  0
 24 23  2  0  0  0  0
 25 26  2  0  0  0  0
 25 24  1  0  0  0  0
 26 27  1  0  0  0  0
 27 22  2  0  0  0  0
 29 24  1  0  0  0  0
 30 26  1  0  0  0  0
M  END
>  <minimizedAffinity>
-5.65890121

$$$$

 OpenBabel03242518333D

 30 32  0  0  0  0  0  0  0  0999 V2000
   37.5460   28.5930   42.3920 C   0  0  0  0  0  0  0  0  0  0  0  0
   37.0060   27.9380   43.4720 C   0  0  0  0  0  0  0  0  0  0  0  0
   36.7670   26.6310   43.0990 C   0  0  0  0  0  0  0  0  0  0  0  0
   37.1780   26.5480   41.7910 C   0  0  0  0  0  0  0  0  0  0  0  0
   37.6340   27.7080   41.3900 O   0  0  0  0  0  0  0  0  0  0  0  0
   36.8410   28.4670   44.4020 H   0  0  0  0  0  0  0  0  0  0  0  0
   36.3430   25.8900   43.7560 H   0  0  0  0  0  0  0  0  0  0  0  0
   37.7070   24.1620   41.3630 C   0  0  0  0  0  0  0  0  0  0  0  0
   37.1150   25.3440   40.9780 C   0  0  0  0  0  0  0  0  0  0  0  0
   36.4570   25.3200   39.7720 C   0  0  0  0  0  0  0  0  0  0  0  0
   35.9810   26.2560   39.4550 H   0  0  0  0  0  0  0  0  0  0  0  0
   36.3340   24.2390   38.9230 C   0  0  0  0  0  3  0  0  0  0  0  0
   36.9390   23.0700   39.3380 C   0  0  0  0  0  3  0  0  0  0  0  0
   37.6260   23.0210   40.5560 C   0  0  0  0  0  0  0  0  0  0  0  0
   38.4000   24.0840   42.5700 O   0  0  0  0  0  0  0  0  0  0  0  0
   39.4060   23.9340   42.5800 H   0  0  0  0  0  0  0  0  0  0  0  0
   38.2190   21.8310   40.9380 O   0  0  0  0  0  0  0  0  0  0  0  0
   37.8490   20.9620   40.5780 H   0  0  0  0  0  0  0  0  0  0  0  0
   37.9660   29.9270   42.2400 O   0  0  0  0  0  0  0  0  0  0  0  0
   37.4150   30.7470   41.2620 C   0  0  0  0  0  0  0  0  0  0  0  0
   36.1750   30.8100   41.2390 O   0  0  0  0  0  0  0  0  0  0  0  0
   38.3550   31.4120   40.4100 C   0  0  0  0  0  0  0  0  0  0  0  0
   38.6090   32.7160   40.7830 C   0  0  0  0  0  0  0  0  0  0  0  0
   39.5180   33.4410   40.0030 C   0  0  0  0  0  0  0  0  0  0  0  0
   40.0930   32.8420   38.9400 N   0  0  0  0  0  0  0  0  0  0  0  0
   39.8020   31.5520   38.6210 C   0  0  0  0  0  0  0  0  0  0  0  0
   38.9290   30.8320   39.3590 N   0  0  0  0  0  0  0  0  0  0  0  0
   38.1690   33.2260   41.6230 H   0  0  0  0  0  0  0  0  0  0  0  0
   39.7520   34.4790   40.2590 H   0  0  0  0  0  0  0  0  0  0  0  0
   40.2980   31.1250   37.7550 H   0  0  0  0  0  0  0  0  0  0  0  0
  1  2  2  0  0  0  0
  2  6  1  0  0  0  0
  3  2  1  0  0  0  0
  3  7  1  0  0  0  0
  4  3  2  0  0  0  0
  5  4  1  0  0  0  0
  5  1  1  0  0  0  0
  8 15  1  0  0  0  0
  9  8  1  0  0  0  0
  9  4  1  0  0  0  0
 10  9  2  0  0  0  0
 11 10  1  0  0  0  0
 12 13  2  0  0  0  0
 12 10  1  0  0  0  0
 13 14  1  0  0  0  0
 14 17  1  0  0  0  0
 14  8  2  0  0  0  0
 15 16  1  0  0  0  0
 18 17  1  0  0  0  0
 19  1  1  0  0  0  0
 20 19  1  0  0  0  0
 21 20  2  0  0  0  0
 22 23  1  0  0  0  0
 22 20  1  0  0  0  0
 23 28  1  0  0  0  0
 24 29  1  0  0  0  0
 24 23  2  0  0  0  0
 25 24  1  0  0  0  0
 26 25  2  0  0  0  0
 26 27  1  0  0  0  0
 27 22  2  0  0  0  0
 30 26  1  0  0  0  0
M  END
>  <minimizedAffinity>
-5.63661051

$$$$

 OpenBabel03242518333D

 30 32  0  0  0  0  0  0  0  0999 V2000
   36.9620   30.2150   41.1140 C   0  0  0  0  0  0  0  0  0  0  0  0
   37.2030   31.4550   40.5730 C   0  0  0  0  0  0  0  0  0  0  0  0
   36.8830   31.4010   39.2320 C   0  0  0  0  0  0  0  0  0  0  0  0
   36.4560   30.1140   39.0130 C   0  0  0  0  0  0  0  0  0  0  0  0
   36.5080   29.4300   40.1280 O   0  0  0  0  0  0  0  0  0  0  0  0
   37.5800   32.2560   41.1960 H   0  0  0  0  0  0  0  0  0  0  0  0
   36.9770   32.2400   38.5610 H   0  0  0  0  0  0  0  0  0  0  0  0
   36.8580   29.4720   36.6510 C   0  0  0  0  0  0  0  0  0  0  0  0
   36.0120   29.5960   37.7300 C   0  0  0  0  0  0  0  0  0  0  0  0
   34.7130   29.1970   37.5210 C   0  0  0  0  0  0  0  0  0  0  0  0
   34.0300   29.2900   38.3740 H   0  0  0  0  0  0  0  0  0  0  0  0
   34.1850   28.6920   36.3500 C   0  0  0  0  0  3  0  0  0  0  0  0
   35.0600   28.5820   35.2880 C   0  0  0  0  0  3  0  0  0  0  0  0
   36.3980   28.9680   35.4290 C   0  0  0  0  0  0  0  0  0  0  0  0
   38.1960   29.8500   36.7610 O   0  0  0  0  0  0  0  0  0  0  0  0
   38.5550   30.6420   36.2320 H   0  0  0  0  0  0  0  0  0  0  0  0
   37.2440   28.8430   34.3410 O   0  0  0  0  0  0  0  0  0  0  0  0
   37.0310   28.1550   33.6320 H   0  0  0  0  0  0  0  0  0  0  0  0
   37.1200   29.7370   42.4270 O   0  0  0  0  0  0  0  0  0  0  0  0
   37.3010   28.3830   42.6830 C   0  0  0  0  0  0  0  0  0  0  0  0
   36.2780   27.6800   42.6410 O   0  0  0  0  0  0  0  0  0  0  0  0
   38.6470   27.9790   42.9600 C   0  0  0  0  0  0  0  0  0  0  0  0
   39.5840   28.9480   42.6610 C   0  0  0  0  0  0  0  0  0  0  0  0
   40.9270   28.6360   42.9030 C   0  0  0  0  0  0  0  0  0  0  0  0
   41.2390   27.4240   43.4060 N   0  0  0  0  0  0  0  0  0  0  0  0
   40.2700   26.5100   43.6800 C   0  0  0  0  0  0  0  0  0  0  0  0
   38.9670   26.7870   43.4560 N   0  0  0  0  0  0  0  0  0  0  0  0
   39.3720   29.9230   42.2590 H   0  0  0  0  0  0  0  0  0  0  0  0
   41.7070   29.3710   42.6820 H   0  0  0  0  0  0  0  0  0  0  0  0
   40.5830   25.5520   44.0850 H   0  0  0  0  0  0  0  0  0  0  0  0
  1 19  1  0  0  0  0
  2  1  2  0  0  0  0
  2  6  1  0  0  0  0
  3  2  1  0  0  0  0
  4  3  2  0  0  0  0
  4  5  1  0  0  0  0
  5  1  1  0  0  0  0
  7  3  1  0  0  0  0
  8 15  1  0  0  0  0
  8  9  1  0  0  0  0
  9  4  1  0  0  0  0
 10  9  2  0  0  0  0
 10 11  1  0  0  0  0
 12 10  1  0  0  0  0
 13 14  1  0  0  0  0
 13 12  2  0  0  0  0
 14  8  2  0  0  0  0
 16 15  1  0  0  0  0
 17 14  1  0  0  0  0
 18 17  1  0  0  0  0
 19 20  1  0  0  0  0
 20 22  1  0  0  0  0
 21 20  2  0  0  0  0
 22 27  1  0  0  0  0
 23 24  1  0  0  0  0
 23 22  2  0  0  0  0
 24 25  2  0  0  0  0
 25 26  1  0  0  0  0
 26 30  1  0  0  0  0
 27 26  2  0  0  0  0
 28 23  1  0  0  0  0
 29 24  1  0  0  0  0
M  END
>  <minimizedAffinity>
-5.63420916

$$$$

 OpenBabel03242518333D

 30 32  0  0  0  0  0  0  0  0999 V2000
   36.7850   28.4420   42.0470 C   0  0  0  0  0  0  0  0  0  0  0  0
   35.8420   28.5590   41.0540 C   0  0  0  0  0  0  0  0  0  0  0  0
   36.0480   29.7640   40.4130 C   0  0  0  0  0  0  0  0  0  0  0  0
   37.1230   30.3330   41.0530 C   0  0  0  0  0  0  0  0  0  0  0  0
   37.5440   29.5450   42.0090 O   0  0  0  0  0  0  0  0  0  0  0  0
   35.1130   27.7740   40.9010 H   0  0  0  0  0  0  0  0  0  0  0  0
   35.4480   30.1130   39.5890 H   0  0  0  0  0  0  0  0  0  0  0  0
   38.9680   31.9900   41.1040 C   0  0  0  0  0  0  0  0  0  0  0  0
   37.7010   31.6220   40.7100 C   0  0  0  0  0  0  0  0  0  0  0  0
   37.0100   32.5510   39.9700 C   0  0  0  0  0  0  0  0  0  0  0  0
   36.0000   32.2690   39.6500 H   0  0  0  0  0  0  0  0  0  0  0  0
   37.4590   33.7990   39.5880 C   0  0  0  0  0  3  0  0  0  0  0  0
   38.7330   34.1370   39.9990 C   0  0  0  0  0  3  0  0  0  0  0  0
   39.4950   33.2400   40.7560 C   0  0  0  0  0  0  0  0  0  0  0  0
   39.7500   31.1180   41.8590 O   0  0  0  0  0  0  0  0  0  0  0  0
   39.9990   31.3450   42.8190 H   0  0  0  0  0  0  0  0  0  0  0  0
   40.7670   33.6150   41.1490 O   0  0  0  0  0  0  0  0  0  0  0  0
   41.2670   34.3010   40.6010 H   0  0  0  0  0  0  0  0  0  0  0  0
   37.0140   27.4180   42.9830 O   0  0  0  0  0  0  0  0  0  0  0  0
   37.5450   26.1940   42.5930 C   0  0  0  0  0  0  0  0  0  0  0  0
   36.7230   25.2960   42.3490 O   0  0  0  0  0  0  0  0  0  0  0  0
   38.9750   26.1330   42.5260 C   0  0  0  0  0  0  0  0  0  0  0  0
   39.5990   26.6170   43.6580 C   0  0  0  0  0  0  0  0  0  0  0  0
   40.9990   26.5940   43.6770 C   0  0  0  0  0  0  0  0  0  0  0  0
   41.6620   26.1090   42.6070 N   0  0  0  0  0  0  0  0  0  0  0  0
   40.9900   25.6470   41.5190 C   0  0  0  0  0  0  0  0  0  0  0  0
   39.6400   25.6580   41.4770 N   0  0  0  0  0  0  0  0  0  0  0  0
   39.1030   27.0110   44.5290 H   0  0  0  0  0  0  0  0  0  0  0  0
   41.5390   26.9670   44.5530 H   0  0  0  0  0  0  0  0  0  0  0  0
   41.5790   25.2680   40.6890 H   0  0  0  0  0  0  0  0  0  0  0  0
  1 19  1  0  0  0  0
  2  1  2  0  0  0  0
  3  4  2  0  0  0  0
  3  2  1  0  0  0  0
  4  5  1  0  0  0  0
  5  1  1  0  0  0  0
  6  2  1  0  0  0  0
  7  3  1  0  0  0  0
  8 15  1  0  0  0  0
  9  4  1  0  0  0  0
  9  8  2  0  0  0  0
 10  9  1  0  0  0  0
 11 10  1  0  0  0  0
 12 10  2  0  0  0  0
 12 13  1  0  0  0  0
 13 14  2  0  0  0  0
 14  8  1  0  0  0  0
 14 17  1  0  0  0  0
 15 16  1  0  0  0  0
 18 17  1  0  0  0  0
 20 19  1  0  0  0  0
 21 20  2  0  0  0  0
 22 20  1  0  0  0  0
 22 23  1  0  0  0  0
 23 24  2  0  0  0  0
 23 28  1  0  0  0  0
 24 29  1  0  0  0  0
 25 24  1  0  0  0  0
 26 25  2  0  0  0  0
 27 26  1  0  0  0  0
 27 22  2  0  0  0  0
 30 26  1  0  0  0  0
M  END
>  <minimizedAffinity>
-5.62793541

$$$$
