
 OpenBabel03252502533D

 33 35  0  0  0  0  0  0  0  0999 V2000
   46.7100   29.8140   44.4330 Br  0  0  0  0  0  0  0  0  0  0  0  0
   46.0900   30.8840   45.9200 C   0  0  0  0  0  0  0  0  0  0  0  0
   46.2840   32.2350   45.8180 C   0  0  0  0  0  0  0  0  0  0  0  0
   45.8210   32.9560   46.9130 C   0  0  0  0  0  0  0  0  0  0  0  0
   45.2200   32.3930   48.0100 C   0  0  0  0  0  0  0  0  0  0  0  0
   45.0630   31.0380   48.0360 C   0  0  0  0  0  0  0  0  0  0  0  0
   45.4920   30.2460   46.9930 C   0  0  0  0  0  0  0  0  0  0  0  0
   45.9260   34.0450   46.9350 H   0  0  0  0  0  0  0  0  0  0  0  0
   44.8720   32.9910   48.8440 H   0  0  0  0  0  0  0  0  0  0  0  0
   44.6040   30.5240   48.8570 H   0  0  0  0  0  0  0  0  0  0  0  0
   44.1590   28.3840   46.3900 C   0  0  0  0  0  0  0  0  0  0  0  0
   45.3380   28.7790   46.9900 C   0  0  0  0  0  0  0  0  0  0  0  0
   46.2060   27.8310   47.4950 C   0  0  0  0  0  0  0  0  0  0  0  0
   47.0930   28.2480   47.9400 H   0  0  0  0  0  0  0  0  0  0  0  0
   45.8580   26.5010   47.3840 C   0  0  0  0  0  3  0  0  0  0  0  0
   44.6810   26.1020   46.7860 C   0  0  0  0  0  3  0  0  0  0  0  0
   43.8110   27.0710   46.2760 C   0  0  0  0  0  0  0  0  0  0  0  0
   43.2050   29.2570   45.8430 O   0  0  0  0  0  0  0  0  0  0  0  0
   43.2110   30.2490   46.0800 H   0  0  0  0  0  0  0  0  0  0  0  0
   42.6590   26.5520   45.6990 O   0  0  0  0  0  0  0  0  0  0  0  0
   41.8300   26.5240   46.3120 H   0  0  0  0  0  0  0  0  0  0  0  0
   46.9100   32.9540   44.7040 C   0  0  0  0  0  0  0  0  0  0  0  0
   47.5870   33.7320   45.1130 H   0  0  0  0  0  0  0  0  0  0  0  0
   47.5560   32.2370   44.1420 H   0  0  0  0  0  0  0  0  0  0  0  0
   44.1350   33.5560   42.2930 C   0  0  0  0  0  0  0  0  0  0  0  0
   44.2030   34.9460   42.1250 C   0  0  0  0  0  0  0  0  0  0  0  0
   45.1820   35.6380   42.8300 C   0  0  0  0  0  0  0  0  0  0  0  0
   46.0300   34.9570   43.6470 N   0  0  0  0  0  0  0  0  0  0  0  0
   45.9350   33.5970   43.7880 C   0  0  0  0  0  0  0  0  0  0  0  0
   44.9870   32.9300   43.1040 N   0  0  0  0  0  0  0  0  0  0  0  0
   43.3580   33.0600   41.7250 H   0  0  0  0  0  0  0  0  0  0  0  0
   43.5310   35.4990   41.4760 H   0  0  0  0  0  0  0  0  0  0  0  0
   45.3160   36.7110   42.7690 H   0  0  0  0  0  0  0  0  0  0  0  0
  1  2  1  0  0  0  0
  2  7  1  0  0  0  0
  3  2  2  0  0  0  0
  3  4  1  0  0  0  0
  4  8  1  0  0  0  0
  4  5  2  0  0  0  0
  5  6  1  0  0  0  0
  5  9  1  0  0  0  0
  6 10  1  0  0  0  0
  7  6  2  0  0  0  0
 11 12  1  0  0  0  0
 12  7  1  0  0  0  0
 12 13  2  0  0  0  0
 13 14  1  0  0  0  0
 15 13  1  0  0  0  0
 16 15  2  0  0  0  0
 17 11  2  0  0  0  0
 17 16  1  0  0  0  0
 18 19  1  0  0  0  0
 18 11  1  0  0  0  0
 20 17  1  0  0  0  0
 20 21  1  0  0  0  0
 22 23  1  0  0  0  0
 22  3  1  0  0  0  0
 24 22  1  0  0  0  0
 25 30  1  0  0  0  0
 26 25  2  0  0  0  0
 26 27  1  0  0  0  0
 27 28  2  0  0  0  0
 28 29  1  0  0  0  0
 29 22  1  0  0  0  0
 30 29  2  0  0  0  0
 31 25  1  0  0  0  0
 32 26  1  0  0  0  0
 33 27  1  0  0  0  0
M  END
>  <minimizedAffinity>
-5.03926897

>  <minimizedRMSD>
1.86725533

$$$$
