
 OpenBabel03252508153D

 39 42  0  0  1  0  0  0  0  0999 V2000
   45.4200   33.0910   46.3150 C   0  0  0  0  0  3  0  0  0  0  0  0
   45.6790   31.8850   45.9940 C   0  0  0  0  0  3  0  0  0  0  0  0
   44.6960   36.1420   44.3850 C   0  0  0  0  0  0  0  0  0  0  0  0
   45.4110   35.9310   43.2130 C   0  0  0  0  0  0  0  0  0  0  0  0
   46.1310   34.7840   43.1100 C   0  0  0  0  0  0  0  0  0  0  0  0
   46.1000   33.9260   44.1600 N   0  0  0  0  0  0  0  0  0  0  0  0
   45.4180   34.1140   45.2880 C   0  0  0  0  0  0  0  0  0  0  0  0
   44.7160   35.2510   45.3710 N   0  0  0  0  0  0  0  0  0  0  0  0
   44.1030   37.0460   44.5230 H   0  0  0  0  0  0  0  0  0  0  0  0
   45.4060   36.6340   42.4110 H   0  0  0  0  0  0  0  0  0  0  0  0
   48.2650   33.9710   42.0010 C   0  0  0  0  0  0  0  0  0  0  0  0
   46.9500   34.3490   41.9900 C   0  0  0  0  0  0  0  0  0  0  0  0
   46.3970   34.2850   40.7220 C   0  0  0  0  0  0  0  0  0  0  0  0
   45.3470   34.5540   40.5240 H   0  0  0  0  0  0  0  0  0  0  0  0
   47.0920   33.8840   39.6010 C   0  0  0  0  0  3  0  0  0  0  0  0
   48.4150   33.5170   39.6900 C   0  0  0  0  0  3  0  0  0  0  0  0
   49.0060   33.5650   40.9280 C   0  0  0  0  0  0  0  0  0  0  0  0
   48.9200   33.9930   43.2020 O   0  0  0  0  0  0  0  0  0  0  0  0
   49.0110   33.1090   43.7030 H   0  0  0  0  0  0  0  0  0  0  0  0
   50.3230   33.2020   41.0310 O   0  0  0  0  0  0  0  0  0  0  0  0
   50.5260   32.1990   41.0260 H   0  0  0  0  0  0  0  0  0  0  0  0
   45.6340   30.8840   47.1390 C   0  0  0  0  0  0  0  0  0  0  0  0
   44.6220   30.4090   47.0130 H   0  0  0  0  0  0  0  0  0  0  0  0
   46.4010   30.1150   47.0250 H   0  0  0  0  0  0  0  0  0  0  0  0
   45.6100   31.6050   48.4440 C   0  0  1  0  0  0  0  0  0  0  0  0
   45.5020   30.7740   49.6790 C   0  0  0  0  0  0  0  0  0  0  0  0
   46.7470   31.4590   49.3900 C   0  0  1  0  0  0  0  0  0  0  0  0
   45.0670   32.5900   48.4680 H   0  0  0  0  0  0  0  0  0  0  0  0
   45.4650   29.6660   49.5430 H   0  0  0  0  0  0  0  0  0  0  0  0
   44.8150   31.1160   50.4740 H   0  0  0  0  0  0  0  0  0  0  0  0
   46.9500   32.3620   50.0420 H   0  0  0  0  0  0  0  0  0  0  0  0
   47.9850   30.8250   48.8890 C   0  0  0  0  0  0  0  0  0  0  0  0
   49.0390   30.5360   49.9910 C   0  0  0  0  0  0  0  0  0  0  0  0
   49.2800   31.6510   49.0310 C   0  0  0  0  0  0  0  0  0  0  0  0
   47.9480   30.0680   48.0800 H   0  0  0  0  0  0  0  0  0  0  0  0
   49.6080   29.6100   49.8970 H   0  0  0  0  0  0  0  0  0  0  0  0
   48.8030   30.8610   51.0230 H   0  0  0  0  0  0  0  0  0  0  0  0
   50.0600   31.4500   48.2770 H   0  0  0  0  0  0  0  0  0  0  0  0
   49.1340   32.6950   49.3170 H   0  0  0  0  0  0  0  0  0  0  0  0
  2  1  2  0  0  0  0
  2 22  1  0  0  0  0
  3  9  1  0  0  0  0
  3  8  1  0  0  0  0
  4  3  2  0  0  0  0
  5  4  1  0  0  0  0
  5  6  2  0  0  0  0
  6  7  1  0  0  0  0
  7  8  2  0  0  0  0
  7  1  1  0  0  0  0
 10  4  1  0  0  0  0
 11 18  1  0  0  0  0
 12 11  1  0  0  0  0
 12  5  1  0  0  0  0
 13 12  2  0  0  0  0
 14 13  1  0  0  0  0
 15 16  2  0  0  0  0
 15 13  1  0  0  0  0
 16 17  1  0  0  0  0
 17 20  1  0  0  0  0
 17 11  2  0  0  0  0
 18 19  1  0  0  0  0
 21 20  1  0  0  0  0
 22 25  1  0  0  0  0
 23 22  1  0  0  0  0
 24 22  1  0  0  0  0
 25 28  1  1  0  0  0
 25 27  1  0  0  0  0
 25 26  1  0  0  0  0
 26 30  1  0  0  0  0
 27 26  1  0  0  0  0
 27 31  1  1  0  0  0
 29 26  1  0  0  0  0
 32 34  1  0  0  0  0
 32 27  1  0  0  0  0
 32 33  1  0  0  0  0
 33 37  1  0  0  0  0
 34 39  1  0  0  0  0
 34 33  1  0  0  0  0
 35 32  1  0  0  0  0
 36 33  1  0  0  0  0
 38 34  1  0  0  0  0
M  END
>  <minimizedAffinity>
-5.84940147

>  <minimizedRMSD>
1.09544742

$$$$
