
 OpenBabel03252508163D

 39 42  0  0  1  0  0  0  0  0999 V2000
   38.2360   28.9920   41.3670 C   0  0  0  0  0  3  0  0  0  0  0  0
   37.7480   29.1080   42.5390 C   0  0  0  0  0  3  0  0  0  0  0  0
   36.6880   31.0890   38.7660 C   0  0  0  0  0  0  0  0  0  0  0  0
   37.6950   32.0020   38.4790 C   0  0  0  0  0  0  0  0  0  0  0  0
   38.8560   31.9030   39.1780 C   0  0  0  0  0  0  0  0  0  0  0  0
   38.9470   30.9180   40.1060 N   0  0  0  0  0  0  0  0  0  0  0  0
   37.9920   30.0360   40.3910 C   0  0  0  0  0  0  0  0  0  0  0  0
   36.8560   30.1510   39.6920 N   0  0  0  0  0  0  0  0  0  0  0  0
   35.7350   31.1230   38.2380 H   0  0  0  0  0  0  0  0  0  0  0  0
   37.5780   32.7600   37.7390 H   0  0  0  0  0  0  0  0  0  0  0  0
   40.7560   33.0240   37.9240 C   0  0  0  0  0  0  0  0  0  0  0  0
   40.0390   32.7380   39.0530 C   0  0  0  0  0  0  0  0  0  0  0  0
   40.5630   33.3540   40.1770 C   0  0  0  0  0  0  0  0  0  0  0  0
   40.1120   33.2360   41.1770 H   0  0  0  0  0  0  0  0  0  0  0  0
   41.6770   34.1650   40.1600 C   0  0  0  0  0  3  0  0  0  0  0  0
   42.3490   34.4070   38.9830 C   0  0  0  0  0  3  0  0  0  0  0  0
   41.8670   33.8160   37.8420 C   0  0  0  0  0  0  0  0  0  0  0  0
   40.3330   32.4700   36.7470 O   0  0  0  0  0  0  0  0  0  0  0  0
   39.7700   33.0530   36.1300 H   0  0  0  0  0  0  0  0  0  0  0  0
   42.5260   34.0500   36.6640 O   0  0  0  0  0  0  0  0  0  0  0  0
   42.3550   34.9510   36.2110 H   0  0  0  0  0  0  0  0  0  0  0  0
   38.0800   27.9730   43.4960 C   0  0  0  0  0  0  0  0  0  0  0  0
   38.4500   28.5170   44.4080 H   0  0  0  0  0  0  0  0  0  0  0  0
   37.1870   27.4040   43.7630 H   0  0  0  0  0  0  0  0  0  0  0  0
   39.2310   27.1850   42.9700 C   0  0  1  0  0  0  0  0  0  0  0  0
   39.6910   26.0230   43.7860 C   0  0  0  0  0  0  0  0  0  0  0  0
   39.0250   25.7840   42.5200 C   0  0  1  0  0  0  0  0  0  0  0  0
   40.0400   27.7620   42.4420 H   0  0  0  0  0  0  0  0  0  0  0  0
   39.1280   25.8100   44.7260 H   0  0  0  0  0  0  0  0  0  0  0  0
   40.7790   25.8780   43.9130 H   0  0  0  0  0  0  0  0  0  0  0  0
   39.7090   25.4400   41.6850 H   0  0  0  0  0  0  0  0  0  0  0  0
   37.6340   25.3100   42.3510 C   0  0  0  0  0  0  0  0  0  0  0  0
   37.4990   24.0530   41.4530 C   0  0  0  0  0  0  0  0  0  0  0  0
   37.0600   25.3750   40.9210 C   0  0  0  0  0  0  0  0  0  0  0  0
   36.9140   25.3530   43.1930 H   0  0  0  0  0  0  0  0  0  0  0  0
   36.7510   23.3150   41.7490 H   0  0  0  0  0  0  0  0  0  0  0  0
   38.4200   23.6540   40.9880 H   0  0  0  0  0  0  0  0  0  0  0  0
   35.9670   25.5060   40.8510 H   0  0  0  0  0  0  0  0  0  0  0  0
   37.6660   25.9340   40.2040 H   0  0  0  0  0  0  0  0  0  0  0  0
  1  2  2  0  0  0  0
  2 22  1  0  0  0  0
  3  8  1  0  0  0  0
  4  3  2  0  0  0  0
  4  5  1  0  0  0  0
  5  6  2  0  0  0  0
  6  7  1  0  0  0  0
  7  1  1  0  0  0  0
  8  7  2  0  0  0  0
  9  3  1  0  0  0  0
 10  4  1  0  0  0  0
 11 12  1  0  0  0  0
 12  5  1  0  0  0  0
 12 13  2  0  0  0  0
 13 14  1  0  0  0  0
 15 13  1  0  0  0  0
 16 15  2  0  0  0  0
 17 11  2  0  0  0  0
 17 16  1  0  0  0  0
 18 11  1  0  0  0  0
 19 18  1  0  0  0  0
 20 17  1  0  0  0  0
 21 20  1  0  0  0  0
 22 24  1  0  0  0  0
 22 23  1  0  0  0  0
 25 28  1  6  0  0  0
 25 22  1  0  0  0  0
 25 26  1  0  0  0  0
 26 30  1  0  0  0  0
 26 29  1  0  0  0  0
 27 31  1  6  0  0  0
 27 25  1  0  0  0  0
 27 26  1  0  0  0  0
 32 27  1  0  0  0  0
 32 35  1  0  0  0  0
 33 36  1  0  0  0  0
 33 32  1  0  0  0  0
 34 33  1  0  0  0  0
 34 32  1  0  0  0  0
 37 33  1  0  0  0  0
 38 34  1  0  0  0  0
 39 34  1  0  0  0  0
M  END
>  <minimizedAffinity>
-6.45558643

$$$$

 OpenBabel03252508163D

 39 42  0  0  1  0  0  0  0  0999 V2000
   38.4540   31.5840   39.3680 C   0  0  0  0  0  3  0  0  0  0  0  0
   37.2970   31.5460   38.8330 C   0  0  0  0  0  3  0  0  0  0  0  0
   39.0010   35.1330   40.1840 C   0  0  0  0  0  0  0  0  0  0  0  0
   40.3620   35.2860   39.9550 C   0  0  0  0  0  0  0  0  0  0  0  0
   41.0620   34.1930   39.5540 C   0  0  0  0  0  0  0  0  0  0  0  0
   40.3800   33.0310   39.4050 N   0  0  0  0  0  0  0  0  0  0  0  0
   39.0760   32.8690   39.6190 C   0  0  0  0  0  0  0  0  0  0  0  0
   38.4040   33.9570   40.0150 N   0  0  0  0  0  0  0  0  0  0  0  0
   38.3900   35.9750   40.5090 H   0  0  0  0  0  0  0  0  0  0  0  0
   40.8570   36.2220   40.0850 H   0  0  0  0  0  0  0  0  0  0  0  0
   43.0860   34.0090   38.0330 C   0  0  0  0  0  0  0  0  0  0  0  0
   42.4830   34.1120   39.2560 C   0  0  0  0  0  0  0  0  0  0  0  0
   43.4010   34.1360   40.2930 C   0  0  0  0  0  0  0  0  0  0  0  0
   43.0940   34.2160   41.3490 H   0  0  0  0  0  0  0  0  0  0  0  0
   44.7650   34.0660   40.1120 C   0  0  0  0  0  3  0  0  0  0  0  0
   45.3000   33.9630   38.8480 C   0  0  0  0  0  3  0  0  0  0  0  0
   44.4280   33.9350   37.7890 C   0  0  0  0  0  0  0  0  0  0  0  0
   42.2780   33.9760   36.9290 O   0  0  0  0  0  0  0  0  0  0  0  0
   42.1490   34.8480   36.4160 H   0  0  0  0  0  0  0  0  0  0  0  0
   44.9480   33.8340   36.5250 O   0  0  0  0  0  0  0  0  0  0  0  0
   45.3390   34.6870   36.1180 H   0  0  0  0  0  0  0  0  0  0  0  0
   36.7210   30.1520   38.6330 C   0  0  0  0  0  0  0  0  0  0  0  0
   36.4260   30.1580   37.5480 H   0  0  0  0  0  0  0  0  0  0  0  0
   37.4810   29.3820   38.7870 H   0  0  0  0  0  0  0  0  0  0  0  0
   35.4630   30.0040   39.4190 C   0  0  1  0  0  0  0  0  0  0  0  0
   34.7390   28.7020   39.3080 C   0  0  0  0  0  0  0  0  0  0  0  0
   35.4050   29.0410   40.5500 C   0  0  1  0  0  0  0  0  0  0  0  0
   34.8130   30.9170   39.5110 H   0  0  0  0  0  0  0  0  0  0  0  0
   35.2000   27.9200   38.6580 H   0  0  0  0  0  0  0  0  0  0  0  0
   33.6390   28.7290   39.2060 H   0  0  0  0  0  0  0  0  0  0  0  0
   34.7090   29.3310   41.3950 H   0  0  0  0  0  0  0  0  0  0  0  0
   36.6800   28.4660   41.0320 C   0  0  0  0  0  0  0  0  0  0  0  0
   36.5940   27.8330   42.4460 C   0  0  0  0  0  0  0  0  0  0  0  0
   37.3030   29.1330   42.2750 C   0  0  0  0  0  0  0  0  0  0  0  0
   37.3650   27.9420   40.3360 H   0  0  0  0  0  0  0  0  0  0  0  0
   37.1700   26.9210   42.6130 H   0  0  0  0  0  0  0  0  0  0  0  0
   35.6270   27.9040   42.9810 H   0  0  0  0  0  0  0  0  0  0  0  0
   38.4020   29.0730   42.3490 H   0  0  0  0  0  0  0  0  0  0  0  0
   36.8440   30.0790   42.5710 H   0  0  0  0  0  0  0  0  0  0  0  0
  1  7  1  0  0  0  0
  2  1  2  0  0  0  0
  3  9  1  0  0  0  0
  4 10  1  0  0  0  0
  4  3  2  0  0  0  0
  5  4  1  0  0  0  0
  6  5  2  0  0  0  0
  6  7  1  0  0  0  0
  7  8  2  0  0  0  0
  8  3  1  0  0  0  0
 11 12  1  0  0  0  0
 12  5  1  0  0  0  0
 12 13  2  0  0  0  0
 13 14  1  0  0  0  0
 15 13  1  0  0  0  0
 16 15  2  0  0  0  0
 17 11  2  0  0  0  0
 17 16  1  0  0  0  0
 18 11  1  0  0  0  0
 19 18  1  0  0  0  0
 20 17  1  0  0  0  0
 21 20  1  0  0  0  0
 22 24  1  0  0  0  0
 22  2  1  0  0  0  0
 22 25  1  0  0  0  0
 23 22  1  0  0  0  0
 25 28  1  1  0  0  0
 25 27  1  0  0  0  0
 26 25  1  0  0  0  0
 26 27  1  0  0  0  0
 27 32  1  0  0  0  0
 27 31  1  1  0  0  0
 29 26  1  0  0  0  0
 30 26  1  0  0  0  0
 32 34  1  0  0  0  0
 32 33  1  0  0  0  0
 33 36  1  0  0  0  0
 33 37  1  0  0  0  0
 34 38  1  0  0  0  0
 34 33  1  0  0  0  0
 34 39  1  0  0  0  0
 35 32  1  0  0  0  0
M  END
>  <minimizedAffinity>
-6.31799746

$$$$

 OpenBabel03252508163D

 39 42  0  0  1  0  0  0  0  0999 V2000
   35.4200   28.9540   40.6800 C   0  0  0  0  0  3  0  0  0  0  0  0
   35.2820   29.3390   39.4720 C   0  0  0  0  0  3  0  0  0  0  0  0
   38.2060   28.8980   43.0880 C   0  0  0  0  0  0  0  0  0  0  0  0
   38.9480   30.0110   42.7120 C   0  0  0  0  0  0  0  0  0  0  0  0
   38.5070   30.7360   41.6510 C   0  0  0  0  0  0  0  0  0  0  0  0
   37.3720   30.3210   41.0360 N   0  0  0  0  0  0  0  0  0  0  0  0
   36.6490   29.2590   41.3860 C   0  0  0  0  0  0  0  0  0  0  0  0
   37.1010   28.5570   42.4320 N   0  0  0  0  0  0  0  0  0  0  0  0
   38.5140   28.2790   43.9300 H   0  0  0  0  0  0  0  0  0  0  0  0
   39.8360   30.3000   43.2270 H   0  0  0  0  0  0  0  0  0  0  0  0
   38.4850   33.0390   40.5840 C   0  0  0  0  0  0  0  0  0  0  0  0
   39.1110   31.9290   41.0810 C   0  0  0  0  0  0  0  0  0  0  0  0
   40.4900   32.0230   40.9980 C   0  0  0  0  0  0  0  0  0  0  0  0
   41.1580   31.2200   41.3520 H   0  0  0  0  0  0  0  0  0  0  0  0
   41.1560   33.1120   40.4760 C   0  0  0  0  0  3  0  0  0  0  0  0
   40.4560   34.1950   39.9930 C   0  0  0  0  0  3  0  0  0  0  0  0
   39.0860   34.1460   40.0540 C   0  0  0  0  0  0  0  0  0  0  0  0
   37.1170   33.0610   40.6120 O   0  0  0  0  0  0  0  0  0  0  0  0
   36.6730   33.5670   41.3770 H   0  0  0  0  0  0  0  0  0  0  0  0
   38.3790   35.2170   39.5770 O   0  0  0  0  0  0  0  0  0  0  0  0
   38.3280   36.0410   40.1810 H   0  0  0  0  0  0  0  0  0  0  0  0
   33.9480   28.9900   38.8290 C   0  0  0  0  0  0  0  0  0  0  0  0
   33.7770   27.9330   39.1690 H   0  0  0  0  0  0  0  0  0  0  0  0
   33.1430   29.6200   39.2160 H   0  0  0  0  0  0  0  0  0  0  0  0
   34.0950   28.9460   37.3460 C   0  0  1  0  0  0  0  0  0  0  0  0
   33.4680   27.7930   36.6340 C   0  0  0  0  0  0  0  0  0  0  0  0
   32.9010   29.1190   36.4780 C   0  0  1  0  0  0  0  0  0  0  0  0
   35.0730   29.3070   36.9230 H   0  0  0  0  0  0  0  0  0  0  0  0
   32.9140   27.0520   37.2580 H   0  0  0  0  0  0  0  0  0  0  0  0
   34.0480   27.3050   35.8300 H   0  0  0  0  0  0  0  0  0  0  0  0
   33.1020   29.6020   35.4740 H   0  0  0  0  0  0  0  0  0  0  0  0
   31.6550   29.6040   37.1080 C   0  0  0  0  0  0  0  0  0  0  0  0
   30.3990   29.4760   36.2060 C   0  0  0  0  0  0  0  0  0  0  0  0
   30.9850   30.8250   36.4450 C   0  0  0  0  0  0  0  0  0  0  0  0
   31.4630   29.4410   38.1880 H   0  0  0  0  0  0  0  0  0  0  0  0
   29.4650   29.1990   36.7000 H   0  0  0  0  0  0  0  0  0  0  0  0
   30.5420   29.0870   35.1800 H   0  0  0  0  0  0  0  0  0  0  0  0
   30.3980   31.4730   37.1180 H   0  0  0  0  0  0  0  0  0  0  0  0
   31.5900   31.3290   35.6870 H   0  0  0  0  0  0  0  0  0  0  0  0
  1  7  1  0  0  0  0
  2  1  2  0  0  0  0
  3  9  1  0  0  0  0
  4  3  1  0  0  0  0
  4 10  1  0  0  0  0
  5  4  2  0  0  0  0
  6  7  2  0  0  0  0
  6  5  1  0  0  0  0
  7  8  1  0  0  0  0
  8  3  2  0  0  0  0
 11 18  1  0  0  0  0
 11 12  1  0  0  0  0
 12  5  1  0  0  0  0
 13 12  2  0  0  0  0
 13 14  1  0  0  0  0
 15 13  1  0  0  0  0
 16 17  1  0  0  0  0
 16 15  2  0  0  0  0
 17 11  2  0  0  0  0
 18 19  1  0  0  0  0
 20 17  1  0  0  0  0
 20 21  1  0  0  0  0
 22 23  1  0  0  0  0
 22 24  1  0  0  0  0
 22  2  1  0  0  0  0
 25 28  1  6  0  0  0
 25 22  1  0  0  0  0
 26 29  1  0  0  0  0
 26 25  1  0  0  0  0
 27 31  1  6  0  0  0
 27 26  1  0  0  0  0
 27 32  1  0  0  0  0
 27 25  1  0  0  0  0
 30 26  1  0  0  0  0
 32 35  1  0  0  0  0
 33 34  1  0  0  0  0
 33 36  1  0  0  0  0
 33 32  1  0  0  0  0
 34 32  1  0  0  0  0
 34 38  1  0  0  0  0
 37 33  1  0  0  0  0
 39 34  1  0  0  0  0
M  END
>  <minimizedAffinity>
-6.31591082

$$$$

 OpenBabel03252508163D

 39 42  0  0  1  0  0  0  0  0999 V2000
   35.4070   28.0740   38.6250 C   0  0  0  0  0  3  0  0  0  0  0  0
   35.9820   27.0460   39.1120 C   0  0  0  0  0  3  0  0  0  0  0  0
   33.1950   26.7350   36.0030 C   0  0  0  0  0  0  0  0  0  0  0  0
   32.2390   27.7350   35.8780 C   0  0  0  0  0  0  0  0  0  0  0  0
   32.3500   28.8200   36.6880 C   0  0  0  0  0  0  0  0  0  0  0  0
   33.3880   28.8470   37.5610 N   0  0  0  0  0  0  0  0  0  0  0  0
   34.3120   27.8980   37.6910 C   0  0  0  0  0  0  0  0  0  0  0  0
   34.1840   26.8370   36.8850 N   0  0  0  0  0  0  0  0  0  0  0  0
   33.1540   25.8410   35.3800 H   0  0  0  0  0  0  0  0  0  0  0  0
   31.4400   27.6710   35.1760 H   0  0  0  0  0  0  0  0  0  0  0  0
   30.7360   30.4370   37.7940 C   0  0  0  0  0  0  0  0  0  0  0  0
   31.4780   29.9810   36.7380 C   0  0  0  0  0  0  0  0  0  0  0  0
   31.3300   30.7740   35.6130 C   0  0  0  0  0  0  0  0  0  0  0  0
   31.8550   30.5580   34.6670 H   0  0  0  0  0  0  0  0  0  0  0  0
   30.5290   31.8950   35.5620 C   0  0  0  0  0  3  0  0  0  0  0  0
   29.8100   32.2920   36.6670 C   0  0  0  0  0  3  0  0  0  0  0  0
   29.9250   31.5360   37.8070 C   0  0  0  0  0  0  0  0  0  0  0  0
   30.8010   29.7320   38.9650 O   0  0  0  0  0  0  0  0  0  0  0  0
   31.4270   30.0840   39.6890 H   0  0  0  0  0  0  0  0  0  0  0  0
   29.2150   31.9220   38.9130 O   0  0  0  0  0  0  0  0  0  0  0  0
   29.5930   32.7040   39.4530 H   0  0  0  0  0  0  0  0  0  0  0  0
   37.1030   27.3360   40.0990 C   0  0  0  0  0  0  0  0  0  0  0  0
   38.0090   27.3950   39.4360 H   0  0  0  0  0  0  0  0  0  0  0  0
   36.9610   28.3030   40.5890 H   0  0  0  0  0  0  0  0  0  0  0  0
   37.3040   26.1650   40.9990 C   0  0  1  0  0  0  0  0  0  0  0  0
   38.5010   26.1890   41.8920 C   0  0  0  0  0  0  0  0  0  0  0  0
   37.1790   26.3310   42.4700 C   0  0  1  0  0  0  0  0  0  0  0  0
   37.0230   25.1560   40.5870 H   0  0  0  0  0  0  0  0  0  0  0  0
   39.1530   27.0930   41.8400 H   0  0  0  0  0  0  0  0  0  0  0  0
   39.0890   25.2600   41.9940 H   0  0  0  0  0  0  0  0  0  0  0  0
   36.8080   25.4180   43.0290 H   0  0  0  0  0  0  0  0  0  0  0  0
   36.5870   27.5890   42.9750 C   0  0  0  0  0  0  0  0  0  0  0  0
   37.5570   28.4460   43.8300 C   0  0  0  0  0  0  0  0  0  0  0  0
   36.4500   27.7130   44.5060 C   0  0  0  0  0  0  0  0  0  0  0  0
   35.8840   28.1760   42.3500 H   0  0  0  0  0  0  0  0  0  0  0  0
   37.4930   29.5290   43.7090 H   0  0  0  0  0  0  0  0  0  0  0  0
   38.5670   28.0370   44.0250 H   0  0  0  0  0  0  0  0  0  0  0  0
   35.6230   28.3500   44.8620 H   0  0  0  0  0  0  0  0  0  0  0  0
   36.6300   26.7900   45.0630 H   0  0  0  0  0  0  0  0  0  0  0  0
  1  2  2  0  0  0  0
  2 22  1  0  0  0  0
  3  8  1  0  0  0  0
  4  3  2  0  0  0  0
  4  5  1  0  0  0  0
  5 12  1  0  0  0  0
  5  6  2  0  0  0  0
  6  7  1  0  0  0  0
  7  1  1  0  0  0  0
  8  7  2  0  0  0  0
  9  3  1  0  0  0  0
 10  4  1  0  0  0  0
 11 17  1  0  0  0  0
 11 18  1  0  0  0  0
 12 11  2  0  0  0  0
 13 12  1  0  0  0  0
 14 13  1  0  0  0  0
 15 13  2  0  0  0  0
 15 16  1  0  0  0  0
 16 17  2  0  0  0  0
 17 20  1  0  0  0  0
 18 19  1  0  0  0  0
 20 21  1  0  0  0  0
 22 24  1  0  0  0  0
 22 25  1  0  0  0  0
 23 22  1  0  0  0  0
 25 28  1  6  0  0  0
 25 26  1  0  0  0  0
 25 27  1  0  0  0  0
 26 30  1  0  0  0  0
 26 27  1  0  0  0  0
 27 32  1  0  0  0  0
 27 31  1  1  0  0  0
 29 26  1  0  0  0  0
 32 33  1  0  0  0  0
 32 34  1  0  0  0  0
 33 37  1  0  0  0  0
 33 34  1  0  0  0  0
 34 38  1  0  0  0  0
 34 39  1  0  0  0  0
 35 32  1  0  0  0  0
 36 33  1  0  0  0  0
M  END
>  <minimizedAffinity>
-6.25756836

$$$$

 OpenBabel03252508163D

 39 42  0  0  1  0  0  0  0  0999 V2000
   38.7420   30.7280   40.7610 C   0  0  0  0  0  3  0  0  0  0  0  0
   37.6490   30.4440   41.3510 C   0  0  0  0  0  3  0  0  0  0  0  0
   38.5190   34.3720   40.2800 C   0  0  0  0  0  0  0  0  0  0  0  0
   39.8190   34.7060   39.9220 C   0  0  0  0  0  0  0  0  0  0  0  0
   40.7380   33.7070   39.8710 C   0  0  0  0  0  0  0  0  0  0  0  0
   40.3180   32.4530   40.1740 N   0  0  0  0  0  0  0  0  0  0  0  0
   39.0770   32.1180   40.5170 C   0  0  0  0  0  0  0  0  0  0  0  0
   38.1870   33.1160   40.5620 N   0  0  0  0  0  0  0  0  0  0  0  0
   37.7420   35.1330   40.3390 H   0  0  0  0  0  0  0  0  0  0  0  0
   40.1030   35.7080   39.6920 H   0  0  0  0  0  0  0  0  0  0  0  0
   42.7130   33.8020   38.2800 C   0  0  0  0  0  0  0  0  0  0  0  0
   42.1450   33.8140   39.5250 C   0  0  0  0  0  0  0  0  0  0  0  0
   43.0880   33.9500   40.5300 C   0  0  0  0  0  0  0  0  0  0  0  0
   42.8110   33.9800   41.5970 H   0  0  0  0  0  0  0  0  0  0  0  0
   44.4430   34.0610   40.3020 C   0  0  0  0  0  3  0  0  0  0  0  0
   44.9420   34.0390   39.0190 C   0  0  0  0  0  3  0  0  0  0  0  0
   44.0440   33.9060   37.9900 C   0  0  0  0  0  0  0  0  0  0  0  0
   41.8780   33.6720   37.2040 O   0  0  0  0  0  0  0  0  0  0  0  0
   41.6190   34.5240   36.7080 H   0  0  0  0  0  0  0  0  0  0  0  0
   44.5280   33.8840   36.7090 O   0  0  0  0  0  0  0  0  0  0  0  0
   44.7900   34.7850   36.2990 H   0  0  0  0  0  0  0  0  0  0  0  0
   37.4010   28.9610   41.5810 C   0  0  0  0  0  0  0  0  0  0  0  0
   36.4130   28.7920   41.0720 H   0  0  0  0  0  0  0  0  0  0  0  0
   38.1610   28.3500   41.0880 H   0  0  0  0  0  0  0  0  0  0  0  0
   37.1860   28.7000   43.0340 C   0  0  1  0  0  0  0  0  0  0  0  0
   36.5900   27.3840   43.4080 C   0  0  0  0  0  0  0  0  0  0  0  0
   37.9810   27.6500   43.7220 C   0  0  1  0  0  0  0  0  0  0  0  0
   36.8700   29.5770   43.6630 H   0  0  0  0  0  0  0  0  0  0  0  0
   36.3640   26.6750   42.5760 H   0  0  0  0  0  0  0  0  0  0  0  0
   35.8050   27.3740   44.1850 H   0  0  0  0  0  0  0  0  0  0  0  0
   38.1870   27.8430   44.8190 H   0  0  0  0  0  0  0  0  0  0  0  0
   39.1490   27.0900   43.0100 C   0  0  0  0  0  0  0  0  0  0  0  0
   40.2480   26.5220   43.9460 C   0  0  0  0  0  0  0  0  0  0  0  0
   40.4950   27.8090   43.2360 C   0  0  0  0  0  0  0  0  0  0  0  0
   39.0220   26.5320   42.0610 H   0  0  0  0  0  0  0  0  0  0  0  0
   40.7580   25.6150   43.6140 H   0  0  0  0  0  0  0  0  0  0  0  0
   40.0930   26.6210   45.0380 H   0  0  0  0  0  0  0  0  0  0  0  0
   41.2160   27.7470   42.4030 H   0  0  0  0  0  0  0  0  0  0  0  0
   40.4250   28.7700   43.7510 H   0  0  0  0  0  0  0  0  0  0  0  0
  1  2  2  0  0  0  0
  2 22  1  0  0  0  0
  3  9  1  0  0  0  0
  3  8  1  0  0  0  0
  4  3  2  0  0  0  0
  5  4  1  0  0  0  0
  5  6  2  0  0  0  0
  6  7  1  0  0  0  0
  7  8  2  0  0  0  0
  7  1  1  0  0  0  0
 10  4  1  0  0  0  0
 11 12  1  0  0  0  0
 12  5  1  0  0  0  0
 12 13  2  0  0  0  0
 13 14  1  0  0  0  0
 15 13  1  0  0  0  0
 16 15  2  0  0  0  0
 17 11  2  0  0  0  0
 17 16  1  0  0  0  0
 18 11  1  0  0  0  0
 19 18  1  0  0  0  0
 20 17  1  0  0  0  0
 21 20  1  0  0  0  0
 22 25  1  0  0  0  0
 23 22  1  0  0  0  0
 24 22  1  0  0  0  0
 25 26  1  0  0  0  0
 25 28  1  1  0  0  0
 25 27  1  0  0  0  0
 26 27  1  0  0  0  0
 26 30  1  0  0  0  0
 27 31  1  1  0  0  0
 29 26  1  0  0  0  0
 32 34  1  0  0  0  0
 32 27  1  0  0  0  0
 32 33  1  0  0  0  0
 33 37  1  0  0  0  0
 34 39  1  0  0  0  0
 34 33  1  0  0  0  0
 35 32  1  0  0  0  0
 36 33  1  0  0  0  0
 38 34  1  0  0  0  0
M  END
>  <minimizedAffinity>
-6.25519896

$$$$

 OpenBabel03252508163D

 39 42  0  0  1  0  0  0  0  0999 V2000
   38.6070   29.7000   42.0130 C   0  0  0  0  0  3  0  0  0  0  0  0
   37.6480   29.2850   42.7440 C   0  0  0  0  0  3  0  0  0  0  0  0
   37.0200   32.2710   39.9090 C   0  0  0  0  0  0  0  0  0  0  0  0
   38.1160   32.9330   39.3680 C   0  0  0  0  0  0  0  0  0  0  0  0
   39.3530   32.5130   39.7380 C   0  0  0  0  0  0  0  0  0  0  0  0
   39.4300   31.4770   40.6100 N   0  0  0  0  0  0  0  0  0  0  0  0
   38.3900   30.8330   41.1350 C   0  0  0  0  0  0  0  0  0  0  0  0
   37.1800   31.2620   40.7580 N   0  0  0  0  0  0  0  0  0  0  0  0
   36.0040   32.5670   39.6490 H   0  0  0  0  0  0  0  0  0  0  0  0
   38.0070   33.7440   38.6840 H   0  0  0  0  0  0  0  0  0  0  0  0
   41.5890   33.6700   40.0640 C   0  0  0  0  0  0  0  0  0  0  0  0
   40.6350   33.0460   39.3070 C   0  0  0  0  0  0  0  0  0  0  0  0
   41.0060   32.9450   37.9770 C   0  0  0  0  0  0  0  0  0  0  0  0
   40.3590   32.4690   37.2200 H   0  0  0  0  0  0  0  0  0  0  0  0
   42.1990   33.4160   37.4730 C   0  0  0  0  0  3  0  0  0  0  0  0
   43.1110   34.0360   38.2980 C   0  0  0  0  0  3  0  0  0  0  0  0
   42.7870   34.1600   39.6250 C   0  0  0  0  0  0  0  0  0  0  0  0
   41.3340   33.8300   41.3990 O   0  0  0  0  0  0  0  0  0  0  0  0
   41.7510   33.1550   42.0390 H   0  0  0  0  0  0  0  0  0  0  0  0
   43.6860   34.7740   40.4560 O   0  0  0  0  0  0  0  0  0  0  0  0
   44.4910   34.2180   40.7550 H   0  0  0  0  0  0  0  0  0  0  0  0
   37.9840   28.1070   43.6470 C   0  0  0  0  0  0  0  0  0  0  0  0
   38.3370   28.6090   44.5890 H   0  0  0  0  0  0  0  0  0  0  0  0
   37.0940   27.5150   43.8760 H   0  0  0  0  0  0  0  0  0  0  0  0
   39.1490   27.3590   43.0950 C   0  0  1  0  0  0  0  0  0  0  0  0
   39.6140   26.1630   43.8580 C   0  0  0  0  0  0  0  0  0  0  0  0
   38.9640   25.9800   42.5740 C   0  0  1  0  0  0  0  0  0  0  0  0
   39.9570   27.9710   42.6060 H   0  0  0  0  0  0  0  0  0  0  0  0
   39.0440   25.8970   44.7800 H   0  0  0  0  0  0  0  0  0  0  0  0
   40.7020   26.0230   43.9900 H   0  0  0  0  0  0  0  0  0  0  0  0
   39.6610   25.6850   41.7310 H   0  0  0  0  0  0  0  0  0  0  0  0
   37.5810   25.5000   42.3670 C   0  0  0  0  0  0  0  0  0  0  0  0
   37.4710   24.2750   41.4210 C   0  0  0  0  0  0  0  0  0  0  0  0
   37.0280   25.6110   40.9310 C   0  0  0  0  0  0  0  0  0  0  0  0
   36.8480   25.5050   43.1980 H   0  0  0  0  0  0  0  0  0  0  0  0
   36.7260   23.5200   41.6780 H   0  0  0  0  0  0  0  0  0  0  0  0
   38.4030   23.9010   40.9560 H   0  0  0  0  0  0  0  0  0  0  0  0
   35.9350   25.7350   40.8490 H   0  0  0  0  0  0  0  0  0  0  0  0
   37.6390   26.2020   40.2450 H   0  0  0  0  0  0  0  0  0  0  0  0
  1  2  2  0  0  0  0
  2 22  1  0  0  0  0
  3  8  1  0  0  0  0
  4  5  1  0  0  0  0
  4  3  2  0  0  0  0
  5  6  2  0  0  0  0
  6  7  1  0  0  0  0
  7  1  1  0  0  0  0
  8  7  2  0  0  0  0
  9  3  1  0  0  0  0
 10  4  1  0  0  0  0
 11 18  1  0  0  0  0
 12  5  1  0  0  0  0
 12 11  2  0  0  0  0
 13 12  1  0  0  0  0
 14 13  1  0  0  0  0
 15 13  2  0  0  0  0
 15 16  1  0  0  0  0
 16 17  2  0  0  0  0
 17 11  1  0  0  0  0
 17 20  1  0  0  0  0
 18 19  1  0  0  0  0
 20 21  1  0  0  0  0
 22 24  1  0  0  0  0
 22 23  1  0  0  0  0
 25 28  1  6  0  0  0
 25 22  1  0  0  0  0
 25 26  1  0  0  0  0
 26 30  1  0  0  0  0
 26 29  1  0  0  0  0
 27 31  1  6  0  0  0
 27 25  1  0  0  0  0
 27 26  1  0  0  0  0
 32 27  1  0  0  0  0
 32 35  1  0  0  0  0
 33 36  1  0  0  0  0
 33 32  1  0  0  0  0
 34 33  1  0  0  0  0
 34 32  1  0  0  0  0
 37 33  1  0  0  0  0
 38 34  1  0  0  0  0
 39 34  1  0  0  0  0
M  END
>  <minimizedAffinity>
-5.93860245

$$$$

 OpenBabel03252508163D

 39 42  0  0  1  0  0  0  0  0999 V2000
   38.4480   31.6440   39.2400 C   0  0  0  0  0  3  0  0  0  0  0  0
   37.3020   31.6460   38.6800 C   0  0  0  0  0  3  0  0  0  0  0  0
   39.0580   35.1500   40.1860 C   0  0  0  0  0  0  0  0  0  0  0  0
   40.4230   35.2860   39.9660 C   0  0  0  0  0  0  0  0  0  0  0  0
   41.1030   34.1960   39.5270 C   0  0  0  0  0  0  0  0  0  0  0  0
   40.4000   33.0520   39.3340 N   0  0  0  0  0  0  0  0  0  0  0  0
   39.0930   32.9080   39.5390 C   0  0  0  0  0  0  0  0  0  0  0  0
   38.4400   33.9930   39.9720 N   0  0  0  0  0  0  0  0  0  0  0  0
   38.4620   35.9910   40.5400 H   0  0  0  0  0  0  0  0  0  0  0  0
   40.9340   36.2070   40.1300 H   0  0  0  0  0  0  0  0  0  0  0  0
   43.1270   34.0090   38.0050 C   0  0  0  0  0  0  0  0  0  0  0  0
   42.5230   34.0980   39.2300 C   0  0  0  0  0  0  0  0  0  0  0  0
   43.4400   34.0900   40.2680 C   0  0  0  0  0  0  0  0  0  0  0  0
   43.1320   34.1550   41.3250 H   0  0  0  0  0  0  0  0  0  0  0  0
   44.8030   34.0030   40.0880 C   0  0  0  0  0  3  0  0  0  0  0  0
   45.3390   33.9160   38.8230 C   0  0  0  0  0  3  0  0  0  0  0  0
   44.4680   33.9200   37.7620 C   0  0  0  0  0  0  0  0  0  0  0  0
   42.3200   34.0090   36.9000 O   0  0  0  0  0  0  0  0  0  0  0  0
   42.2050   34.8910   36.4030 H   0  0  0  0  0  0  0  0  0  0  0  0
   44.9890   33.8340   36.4980 O   0  0  0  0  0  0  0  0  0  0  0  0
   45.3930   34.6890   36.1060 H   0  0  0  0  0  0  0  0  0  0  0  0
   36.7000   30.2720   38.4300 C   0  0  0  0  0  0  0  0  0  0  0  0
   37.5070   29.5780   38.7920 H   0  0  0  0  0  0  0  0  0  0  0  0
   35.8030   30.1150   39.0330 H   0  0  0  0  0  0  0  0  0  0  0  0
   36.5580   30.0380   36.9640 C   0  0  1  0  0  0  0  0  0  0  0  0
   37.0250   28.7220   36.4360 C   0  0  0  0  0  0  0  0  0  0  0  0
   35.6040   29.0120   36.4670 C   0  0  1  0  0  0  0  0  0  0  0  0
   36.7300   30.9230   36.2910 H   0  0  0  0  0  0  0  0  0  0  0  0
   37.4310   27.9930   37.1780 H   0  0  0  0  0  0  0  0  0  0  0  0
   37.6020   28.7170   35.4940 H   0  0  0  0  0  0  0  0  0  0  0  0
   35.1460   29.2300   35.4550 H   0  0  0  0  0  0  0  0  0  0  0  0
   34.6290   28.4520   37.4290 C   0  0  0  0  0  0  0  0  0  0  0  0
   33.4410   27.7080   36.7640 C   0  0  0  0  0  0  0  0  0  0  0  0
   33.2060   29.0450   37.3800 C   0  0  0  0  0  0  0  0  0  0  0  0
   34.9670   28.0140   38.3890 H   0  0  0  0  0  0  0  0  0  0  0  0
   33.0800   26.8100   37.2680 H   0  0  0  0  0  0  0  0  0  0  0  0
   33.3980   27.6970   35.6580 H   0  0  0  0  0  0  0  0  0  0  0  0
   32.6470   29.0250   38.3300 H   0  0  0  0  0  0  0  0  0  0  0  0
   33.1010   29.9460   36.7700 H   0  0  0  0  0  0  0  0  0  0  0  0
  1  7  1  0  0  0  0
  2  1  2  0  0  0  0
  3  9  1  0  0  0  0
  4 10  1  0  0  0  0
  4  3  2  0  0  0  0
  5  4  1  0  0  0  0
  6  5  2  0  0  0  0
  6  7  1  0  0  0  0
  7  8  2  0  0  0  0
  8  3  1  0  0  0  0
 11 12  1  0  0  0  0
 12  5  1  0  0  0  0
 12 13  2  0  0  0  0
 13 14  1  0  0  0  0
 15 13  1  0  0  0  0
 16 15  2  0  0  0  0
 17 11  2  0  0  0  0
 17 16  1  0  0  0  0
 18 11  1  0  0  0  0
 19 18  1  0  0  0  0
 20 17  1  0  0  0  0
 21 20  1  0  0  0  0
 22  2  1  0  0  0  0
 22 23  1  0  0  0  0
 22 24  1  0  0  0  0
 25 28  1  6  0  0  0
 25 22  1  0  0  0  0
 26 27  1  0  0  0  0
 26 25  1  0  0  0  0
 26 29  1  0  0  0  0
 27 31  1  6  0  0  0
 27 25  1  0  0  0  0
 27 32  1  0  0  0  0
 30 26  1  0  0  0  0
 32 35  1  0  0  0  0
 33 36  1  0  0  0  0
 33 34  1  0  0  0  0
 33 32  1  0  0  0  0
 34 32  1  0  0  0  0
 34 38  1  0  0  0  0
 37 33  1  0  0  0  0
 39 34  1  0  0  0  0
M  END
>  <minimizedAffinity>
-5.93737459

$$$$

 OpenBabel03252508163D

 39 42  0  0  1  0  0  0  0  0999 V2000
   36.8430   25.9930   40.7830 C   0  0  0  0  0  3  0  0  0  0  0  0
   37.0490   24.7670   41.0700 C   0  0  0  0  0  3  0  0  0  0  0  0
   37.4520   27.8070   43.9290 C   0  0  0  0  0  0  0  0  0  0  0  0
   37.7870   29.0790   43.4810 C   0  0  0  0  0  0  0  0  0  0  0  0
   37.8210   29.2870   42.1390 C   0  0  0  0  0  0  0  0  0  0  0  0
   37.5230   28.2380   41.3330 N   0  0  0  0  0  0  0  0  0  0  0  0
   37.1980   27.0150   41.7480 C   0  0  0  0  0  0  0  0  0  0  0  0
   37.1710   26.8300   43.0730 N   0  0  0  0  0  0  0  0  0  0  0  0
   37.4110   27.5830   44.9950 H   0  0  0  0  0  0  0  0  0  0  0  0
   38.0140   29.8750   44.1530 H   0  0  0  0  0  0  0  0  0  0  0  0
   37.2810   31.4480   40.9220 C   0  0  0  0  0  0  0  0  0  0  0  0
   38.1430   30.5220   41.4420 C   0  0  0  0  0  0  0  0  0  0  0  0
   39.4680   30.8690   41.2430 C   0  0  0  0  0  0  0  0  0  0  0  0
   40.3010   30.2390   41.5980 H   0  0  0  0  0  0  0  0  0  0  0  0
   39.8730   32.0180   40.5980 C   0  0  0  0  0  3  0  0  0  0  0  0
   38.9460   32.9050   40.0990 C   0  0  0  0  0  3  0  0  0  0  0  0
   37.6190   32.6020   40.2720 C   0  0  0  0  0  0  0  0  0  0  0  0
   35.9400   31.2130   41.0580 O   0  0  0  0  0  0  0  0  0  0  0  0
   35.4560   31.6860   41.8190 H   0  0  0  0  0  0  0  0  0  0  0  0
   36.6860   33.4770   39.7820 O   0  0  0  0  0  0  0  0  0  0  0  0
   36.5140   34.3230   40.3300 H   0  0  0  0  0  0  0  0  0  0  0  0
   36.6650   23.7740   39.9830 C   0  0  0  0  0  0  0  0  0  0  0  0
   37.6570   23.5180   39.5200 H   0  0  0  0  0  0  0  0  0  0  0  0
   36.2300   22.8670   40.4090 H   0  0  0  0  0  0  0  0  0  0  0  0
   35.8620   24.4580   38.9290 C   0  0  1  0  0  0  0  0  0  0  0  0
   35.9190   23.8860   37.5510 C   0  0  0  0  0  0  0  0  0  0  0  0
   34.6960   23.7660   38.3220 C   0  0  1  0  0  0  0  0  0  0  0  0
   35.7980   25.5790   38.9900 H   0  0  0  0  0  0  0  0  0  0  0  0
   36.5430   22.9710   37.4070 H   0  0  0  0  0  0  0  0  0  0  0  0
   36.0110   24.5870   36.7030 H   0  0  0  0  0  0  0  0  0  0  0  0
   33.8560   24.4450   37.9810 H   0  0  0  0  0  0  0  0  0  0  0  0
   34.2050   22.5350   38.9780 C   0  0  0  0  0  0  0  0  0  0  0  0
   32.8250   22.0500   38.4610 C   0  0  0  0  0  0  0  0  0  0  0  0
   32.9150   22.6730   39.8120 C   0  0  0  0  0  0  0  0  0  0  0  0
   34.9050   21.7200   39.2510 H   0  0  0  0  0  0  0  0  0  0  0  0
   32.6840   20.9710   38.3730 H   0  0  0  0  0  0  0  0  0  0  0  0
   32.3150   22.6720   37.7010 H   0  0  0  0  0  0  0  0  0  0  0  0
   32.8130   21.9690   40.6550 H   0  0  0  0  0  0  0  0  0  0  0  0
   32.5890   23.7010   39.9920 H   0  0  0  0  0  0  0  0  0  0  0  0
  1  2  2  0  0  0  0
  1  7  1  0  0  0  0
  3  9  1  0  0  0  0
  4  3  1  0  0  0  0
  4 10  1  0  0  0  0
  5  4  2  0  0  0  0
  6  7  2  0  0  0  0
  6  5  1  0  0  0  0
  7  8  1  0  0  0  0
  8  3  2  0  0  0  0
 11 18  1  0  0  0  0
 11 12  1  0  0  0  0
 12  5  1  0  0  0  0
 13 12  2  0  0  0  0
 13 14  1  0  0  0  0
 15 13  1  0  0  0  0
 16 17  1  0  0  0  0
 16 15  2  0  0  0  0
 17 11  2  0  0  0  0
 18 19  1  0  0  0  0
 20 17  1  0  0  0  0
 20 21  1  0  0  0  0
 22 24  1  0  0  0  0
 22  2  1  0  0  0  0
 23 22  1  0  0  0  0
 25 28  1  1  0  0  0
 25 22  1  0  0  0  0
 26 27  1  0  0  0  0
 26 25  1  0  0  0  0
 27 31  1  6  0  0  0
 27 25  1  0  0  0  0
 27 32  1  0  0  0  0
 29 26  1  0  0  0  0
 30 26  1  0  0  0  0
 32 35  1  0  0  0  0
 32 34  1  0  0  0  0
 33 32  1  0  0  0  0
 33 34  1  0  0  0  0
 34 39  1  0  0  0  0
 34 38  1  0  0  0  0
 36 33  1  0  0  0  0
 37 33  1  0  0  0  0
M  END
>  <minimizedAffinity>
-5.88081264

$$$$

 OpenBabel03252508163D

 39 42  0  0  1  0  0  0  0  0999 V2000
   37.0110   27.7430   39.0080 C   0  0  0  0  0  3  0  0  0  0  0  0
   38.0440   27.0170   39.1880 C   0  0  0  0  0  3  0  0  0  0  0  0
   36.8190   30.2460   36.3130 C   0  0  0  0  0  0  0  0  0  0  0  0
   37.5230   31.3170   36.8500 C   0  0  0  0  0  0  0  0  0  0  0  0
   38.0240   31.1790   38.1050 C   0  0  0  0  0  0  0  0  0  0  0  0
   37.8020   30.0040   38.7440 N   0  0  0  0  0  0  0  0  0  0  0  0
   37.1310   28.9690   38.2430 C   0  0  0  0  0  0  0  0  0  0  0  0
   36.6440   29.1250   37.0060 N   0  0  0  0  0  0  0  0  0  0  0  0
   36.3940   30.3020   35.3120 H   0  0  0  0  0  0  0  0  0  0  0  0
   37.6750   32.2230   36.3090 H   0  0  0  0  0  0  0  0  0  0  0  0
   38.3650   32.9280   39.9120 C   0  0  0  0  0  0  0  0  0  0  0  0
   38.7880   32.1540   38.8660 C   0  0  0  0  0  0  0  0  0  0  0  0
   40.1170   32.3810   38.5490 C   0  0  0  0  0  0  0  0  0  0  0  0
   40.6270   31.8440   37.7320 H   0  0  0  0  0  0  0  0  0  0  0  0
   40.9220   33.2810   39.2130 C   0  0  0  0  0  3  0  0  0  0  0  0
   40.4250   34.0270   40.2580 C   0  0  0  0  0  3  0  0  0  0  0  0
   39.1120   33.8370   40.6080 C   0  0  0  0  0  0  0  0  0  0  0  0
   37.0660   32.7920   40.3170 O   0  0  0  0  0  0  0  0  0  0  0  0
   36.8870   32.1970   41.1250 H   0  0  0  0  0  0  0  0  0  0  0  0
   38.6060   34.5730   41.6470 O   0  0  0  0  0  0  0  0  0  0  0  0
   38.8510   34.2660   42.5910 H   0  0  0  0  0  0  0  0  0  0  0  0
   37.8090   25.7420   39.9830 C   0  0  0  0  0  0  0  0  0  0  0  0
   37.1380   25.1470   39.3050 H   0  0  0  0  0  0  0  0  0  0  0  0
   38.7400   25.1890   40.1320 H   0  0  0  0  0  0  0  0  0  0  0  0
   37.0190   26.0450   41.2110 C   0  0  1  0  0  0  0  0  0  0  0  0
   37.0060   25.0090   42.2860 C   0  0  0  0  0  0  0  0  0  0  0  0
   37.7170   26.2540   42.5060 C   0  0  1  0  0  0  0  0  0  0  0  0
   36.0580   26.6120   41.0670 H   0  0  0  0  0  0  0  0  0  0  0  0
   37.6060   24.0850   42.1060 H   0  0  0  0  0  0  0  0  0  0  0  0
   36.0430   24.7880   42.7800 H   0  0  0  0  0  0  0  0  0  0  0  0
   37.2040   26.9690   43.2190 H   0  0  0  0  0  0  0  0  0  0  0  0
   39.1850   26.4280   42.4800 C   0  0  0  0  0  0  0  0  0  0  0  0
   39.8630   26.2900   43.8690 C   0  0  0  0  0  0  0  0  0  0  0  0
   39.7430   27.6410   43.2510 C   0  0  0  0  0  0  0  0  0  0  0  0
   39.7870   26.0390   41.6340 H   0  0  0  0  0  0  0  0  0  0  0  0
   40.8350   25.7930   43.8940 H   0  0  0  0  0  0  0  0  0  0  0  0
   39.2080   26.1250   44.7450 H   0  0  0  0  0  0  0  0  0  0  0  0
   40.6880   28.0590   42.8650 H   0  0  0  0  0  0  0  0  0  0  0  0
   38.9920   28.3610   43.5880 H   0  0  0  0  0  0  0  0  0  0  0  0
  1  2  2  0  0  0  0
  2 22  1  0  0  0  0
  3  4  2  0  0  0  0
  3  8  1  0  0  0  0
  4  5  1  0  0  0  0
  5  6  2  0  0  0  0
  5 12  1  0  0  0  0
  7  6  1  0  0  0  0
  7  1  1  0  0  0  0
  8  7  2  0  0  0  0
  9  3  1  0  0  0  0
 10  4  1  0  0  0  0
 11 18  1  0  0  0  0
 11 17  1  0  0  0  0
 12 11  2  0  0  0  0
 13 12  1  0  0  0  0
 13 15  2  0  0  0  0
 14 13  1  0  0  0  0
 15 16  1  0  0  0  0
 16 17  2  0  0  0  0
 17 20  1  0  0  0  0
 18 19  1  0  0  0  0
 20 21  1  0  0  0  0
 22 24  1  0  0  0  0
 22 25  1  0  0  0  0
 23 22  1  0  0  0  0
 25 28  1  6  0  0  0
 25 26  1  0  0  0  0
 25 27  1  0  0  0  0
 26 27  1  0  0  0  0
 26 30  1  0  0  0  0
 27 31  1  1  0  0  0
 29 26  1  0  0  0  0
 32 27  1  0  0  0  0
 32 34  1  0  0  0  0
 32 33  1  0  0  0  0
 33 36  1  0  0  0  0
 33 37  1  0  0  0  0
 34 39  1  0  0  0  0
 34 33  1  0  0  0  0
 35 32  1  0  0  0  0
 38 34  1  0  0  0  0
M  END
>  <minimizedAffinity>
-5.86075544

$$$$
