
 OpenBabel03252503033D

 35 36  0  0  0  0  0  0  0  0999 V2000
   38.8360   31.9580   40.1130 C   0  0  0  0  0  0  0  0  0  0  0  0
   39.9110   32.7220   40.5090 C   0  0  0  0  0  0  0  0  0  0  0  0
   40.6980   32.3450   41.5910 C   0  0  0  0  0  0  0  0  0  0  0  0
   40.3560   31.2020   42.2290 N   0  0  0  0  0  0  0  0  0  0  0  0
   39.2960   30.4640   41.8270 C   0  0  0  0  0  0  0  0  0  0  0  0
   38.5440   30.8290   40.7870 N   0  0  0  0  0  0  0  0  0  0  0  0
   38.2350   32.2610   39.2730 H   0  0  0  0  0  0  0  0  0  0  0  0
   41.5500   32.9520   41.9030 H   0  0  0  0  0  0  0  0  0  0  0  0
   37.6780   28.9750   42.9520 C   0  0  0  0  0  0  0  0  0  0  0  0
   38.9730   29.2380   42.5530 C   0  0  0  0  0  0  0  0  0  0  0  0
   39.9800   28.3130   42.8540 C   0  0  0  0  0  0  0  0  0  0  0  0
   41.0070   28.4770   42.5620 H   0  0  0  0  0  0  0  0  0  0  0  0
   39.6780   27.1360   43.5480 C   0  0  0  0  0  3  0  0  0  0  0  0
   38.3580   26.9530   43.9080 C   0  0  0  0  0  3  0  0  0  0  0  0
   37.3150   27.8200   43.6460 C   0  0  0  0  0  0  0  0  0  0  0  0
   36.6560   29.8820   42.6630 O   0  0  0  0  0  0  0  0  0  0  0  0
   36.2730   29.8940   41.7350 H   0  0  0  0  0  0  0  0  0  0  0  0
   36.0170   27.5510   44.0480 O   0  0  0  0  0  0  0  0  0  0  0  0
   35.3060   27.4580   43.3350 H   0  0  0  0  0  0  0  0  0  0  0  0
   40.3290   34.2410   39.6260 S   0  0  0  0  0  0  0  0  0  0  0  0
   42.0920   34.5340   39.7320 C   0  0  0  0  0  0  0  0  0  0  0  0
   42.4460   34.6330   40.7730 H   0  0  0  0  0  0  0  0  0  0  0  0
   42.3860   35.4610   39.1960 H   0  0  0  0  0  0  0  0  0  0  0  0
   42.7500   33.3970   39.1060 N   0  0  0  0  0  0  0  0  0  0  0  0
   43.4070   32.8970   39.7220 H   0  0  0  0  0  0  0  0  0  0  0  0
   43.6400   33.8370   37.7070 S   0  0  0  0  0  0  0  0  0  0  0  0
   42.7690   34.4180   36.6530 O   0  0  0  0  0  0  0  0  0  0  0  0
   42.8600   35.2470   36.1530 H   0  0  0  0  0  0  0  0  0  0  0  0
   44.6590   34.8500   38.1540 O   0  0  0  0  0  0  0  0  0  0  0  0
   45.5730   34.9640   37.8130 H   0  0  0  0  0  0  0  0  0  0  0  0
   44.4840   32.5260   37.1330 O   0  0  0  0  0  0  0  0  0  0  0  0
   43.6590   31.4770   36.7580 C   0  0  0  0  0  0  0  0  0  0  0  0
   43.5220   31.4100   35.6650 H   0  0  0  0  0  0  0  0  0  0  0  0
   44.1700   30.5420   37.1070 H   0  0  0  0  0  0  0  0  0  0  0  0
   42.6900   31.4780   37.3230 H   0  0  0  0  0  0  0  0  0  0  0  0
  1  2  2  0  0  0  0
  1  6  1  0  0  0  0
  2  3  1  0  0  0  0
  3  8  1  0  0  0  0
  3  4  2  0  0  0  0
  5  4  1  0  0  0  0
  5 10  1  0  0  0  0
  6  5  2  0  0  0  0
  7  1  1  0  0  0  0
  9 15  1  0  0  0  0
 10 11  1  0  0  0  0
 10  9  2  0  0  0  0
 11 13  2  0  0  0  0
 12 11  1  0  0  0  0
 13 14  1  0  0  0  0
 15 14  2  0  0  0  0
 15 18  1  0  0  0  0
 16  9  1  0  0  0  0
 17 16  1  0  0  0  0
 19 18  1  0  0  0  0
 20 21  1  0  0  0  0
 20  2  1  0  0  0  0
 21 22  1  0  0  0  0
 23 21  1  0  0  0  0
 24 25  1  0  0  0  0
 24 21  1  0  0  0  0
 26 29  1  0  0  0  0
 26 24  1  0  0  0  0
 27 26  1  0  0  0  0
 28 27  1  0  0  0  0
 30 29  1  0  0  0  0
 31 26  1  0  0  0  0
 32 34  1  0  0  0  0
 32 31  1  0  0  0  0
 32 35  1  0  0  0  0
 33 32  1  0  0  0  0
M  END
>  <minimizedAffinity>
-6.00052738

$$$$

 OpenBabel03252503033D

 35 36  0  0  0  0  0  0  0  0999 V2000
   40.0080   31.9480   41.1370 C   0  0  0  0  0  0  0  0  0  0  0  0
   39.0970   32.8540   40.6430 C   0  0  0  0  0  0  0  0  0  0  0  0
   37.7510   32.5280   40.5330 C   0  0  0  0  0  0  0  0  0  0  0  0
   37.3850   31.2880   40.9310 N   0  0  0  0  0  0  0  0  0  0  0  0
   38.2940   30.4100   41.4130 C   0  0  0  0  0  0  0  0  0  0  0  0
   39.5850   30.7270   41.5180 N   0  0  0  0  0  0  0  0  0  0  0  0
   41.0480   32.2130   41.2170 H   0  0  0  0  0  0  0  0  0  0  0  0
   37.0300   33.2480   40.1410 H   0  0  0  0  0  0  0  0  0  0  0  0
   37.7570   28.0500   40.9170 C   0  0  0  0  0  0  0  0  0  0  0  0
   37.8440   29.0840   41.8280 C   0  0  0  0  0  0  0  0  0  0  0  0
   37.4930   28.8460   43.1630 C   0  0  0  0  0  0  0  0  0  0  0  0
   37.5450   29.6250   43.9100 H   0  0  0  0  0  0  0  0  0  0  0  0
   37.0620   27.5790   43.5690 C   0  0  0  0  0  3  0  0  0  0  0  0
   37.0040   26.6040   42.5930 C   0  0  0  0  0  3  0  0  0  0  0  0
   37.3340   26.7660   41.2620 C   0  0  0  0  0  0  0  0  0  0  0  0
   38.1010   28.2620   39.5810 O   0  0  0  0  0  0  0  0  0  0  0  0
   39.0740   28.2790   39.3320 H   0  0  0  0  0  0  0  0  0  0  0  0
   37.2450   25.7250   40.3510 O   0  0  0  0  0  0  0  0  0  0  0  0
   38.0910   25.4230   39.8870 H   0  0  0  0  0  0  0  0  0  0  0  0
   39.6320   34.4990   40.1230 S   0  0  0  0  0  0  0  0  0  0  0  0
   41.4210   34.5740   40.1100 C   0  0  0  0  0  0  0  0  0  0  0  0
   41.8890   33.5870   40.2690 H   0  0  0  0  0  0  0  0  0  0  0  0
   41.8080   35.2520   40.8990 H   0  0  0  0  0  0  0  0  0  0  0  0
   41.8150   35.0900   38.8070 N   0  0  0  0  0  0  0  0  0  0  0  0
   41.0980   35.6730   38.3500 H   0  0  0  0  0  0  0  0  0  0  0  0
   42.2050   33.8450   37.6940 S   0  0  0  0  0  0  0  0  0  0  0  0
   40.9960   33.1300   37.2100 O   0  0  0  0  0  0  0  0  0  0  0  0
   40.7080   32.9310   36.3030 H   0  0  0  0  0  0  0  0  0  0  0  0
   42.9100   34.5100   36.5430 O   0  0  0  0  0  0  0  0  0  0  0  0
   43.6460   34.1450   36.0060 H   0  0  0  0  0  0  0  0  0  0  0  0
   43.2920   32.7890   38.3780 O   0  0  0  0  0  0  0  0  0  0  0  0
   44.5620   32.8980   37.8350 C   0  0  0  0  0  0  0  0  0  0  0  0
   45.2570   33.4620   38.4820 H   0  0  0  0  0  0  0  0  0  0  0  0
   44.9470   31.8500   37.7360 H   0  0  0  0  0  0  0  0  0  0  0  0
   44.5400   33.2760   36.7790 H   0  0  0  0  0  0  0  0  0  0  0  0
  1  7  1  0  0  0  0
  1  6  1  0  0  0  0
  2  1  2  0  0  0  0
  3  2  1  0  0  0  0
  3  4  2  0  0  0  0
  4  5  1  0  0  0  0
  5  6  2  0  0  0  0
  5 10  1  0  0  0  0
  8  3  1  0  0  0  0
  9 15  2  0  0  0  0
  9 10  1  0  0  0  0
 10 11  2  0  0  0  0
 11 13  1  0  0  0  0
 11 12  1  0  0  0  0
 14 13  2  0  0  0  0
 15 14  1  0  0  0  0
 16  9  1  0  0  0  0
 17 16  1  0  0  0  0
 18 15  1  0  0  0  0
 19 18  1  0  0  0  0
 20  2  1  0  0  0  0
 21 20  1  0  0  0  0
 21 22  1  0  0  0  0
 21 23  1  0  0  0  0
 24 21  1  0  0  0  0
 25 24  1  0  0  0  0
 26 31  1  0  0  0  0
 26 24  1  0  0  0  0
 27 26  1  0  0  0  0
 28 27  1  0  0  0  0
 29 26  1  0  0  0  0
 30 29  1  0  0  0  0
 32 31  1  0  0  0  0
 32 33  1  0  0  0  0
 34 32  1  0  0  0  0
 35 32  1  0  0  0  0
M  END
>  <minimizedAffinity>
-5.99705648

$$$$

 OpenBabel03252503033D

 35 36  0  0  0  0  0  0  0  0999 V2000
   39.1080   33.9020   40.3790 C   0  0  0  0  0  0  0  0  0  0  0  0
   40.4300   33.5260   40.4680 C   0  0  0  0  0  0  0  0  0  0  0  0
   40.7860   32.1920   40.6210 C   0  0  0  0  0  0  0  0  0  0  0  0
   39.7780   31.2910   40.6790 N   0  0  0  0  0  0  0  0  0  0  0  0
   38.4850   31.6780   40.5910 C   0  0  0  0  0  0  0  0  0  0  0  0
   38.1470   32.9600   40.4430 N   0  0  0  0  0  0  0  0  0  0  0  0
   38.8460   34.9390   40.2610 H   0  0  0  0  0  0  0  0  0  0  0  0
   41.8350   31.8960   40.6900 H   0  0  0  0  0  0  0  0  0  0  0  0
   37.3400   29.8210   41.7510 C   0  0  0  0  0  0  0  0  0  0  0  0
   37.4380   30.6620   40.6600 C   0  0  0  0  0  0  0  0  0  0  0  0
   36.5170   30.5300   39.6130 C   0  0  0  0  0  0  0  0  0  0  0  0
   36.5550   31.1650   38.7410 H   0  0  0  0  0  0  0  0  0  0  0  0
   35.5100   29.5600   39.6720 C   0  0  0  0  0  3  0  0  0  0  0  0
   35.4860   28.7620   40.7990 C   0  0  0  0  0  3  0  0  0  0  0  0
   36.3590   28.8360   41.8660 C   0  0  0  0  0  0  0  0  0  0  0  0
   38.2460   29.9330   42.8070 O   0  0  0  0  0  0  0  0  0  0  0  0
   38.1150   30.6700   43.4760 H   0  0  0  0  0  0  0  0  0  0  0  0
   36.2570   27.9900   42.9580 O   0  0  0  0  0  0  0  0  0  0  0  0
   36.0840   28.4010   43.8660 H   0  0  0  0  0  0  0  0  0  0  0  0
   41.7410   34.7650   40.3860 S   0  0  0  0  0  0  0  0  0  0  0  0
   43.3270   33.9520   40.2110 C   0  0  0  0  0  0  0  0  0  0  0  0
   43.2320   32.8670   40.0340 H   0  0  0  0  0  0  0  0  0  0  0  0
   43.9560   34.0840   41.1170 H   0  0  0  0  0  0  0  0  0  0  0  0
   43.9970   34.5690   39.0750 N   0  0  0  0  0  0  0  0  0  0  0  0
   43.7830   35.5690   38.9510 H   0  0  0  0  0  0  0  0  0  0  0  0
   43.6140   33.8050   37.5880 S   0  0  0  0  0  0  0  0  0  0  0  0
   42.6460   34.5990   36.7870 O   0  0  0  0  0  0  0  0  0  0  0  0
   42.6900   34.8860   35.8590 H   0  0  0  0  0  0  0  0  0  0  0  0
   44.9110   33.6580   36.8390 O   0  0  0  0  0  0  0  0  0  0  0  0
   45.1760   32.9200   36.2490 H   0  0  0  0  0  0  0  0  0  0  0  0
   43.0430   32.2690   37.8670 O   0  0  0  0  0  0  0  0  0  0  0  0
   41.9280   31.9640   37.1030 C   0  0  0  0  0  0  0  0  0  0  0  0
   42.1660   31.3260   36.2340 H   0  0  0  0  0  0  0  0  0  0  0  0
   41.2380   31.3940   37.7780 H   0  0  0  0  0  0  0  0  0  0  0  0
   41.3390   32.8780   36.8300 H   0  0  0  0  0  0  0  0  0  0  0  0
  1  6  2  0  0  0  0
  1  2  1  0  0  0  0
  2  3  2  0  0  0  0
  3  4  1  0  0  0  0
  3  8  1  0  0  0  0
  5 10  1  0  0  0  0
  5  4  2  0  0  0  0
  6  5  1  0  0  0  0
  7  1  1  0  0  0  0
  9 15  1  0  0  0  0
  9 16  1  0  0  0  0
 10  9  2  0  0  0  0
 11 13  2  0  0  0  0
 11 10  1  0  0  0  0
 12 11  1  0  0  0  0
 13 14  1  0  0  0  0
 14 15  2  0  0  0  0
 15 18  1  0  0  0  0
 16 17  1  0  0  0  0
 18 19  1  0  0  0  0
 20  2  1  0  0  0  0
 21 20  1  0  0  0  0
 21 23  1  0  0  0  0
 22 21  1  0  0  0  0
 24 21  1  0  0  0  0
 25 24  1  0  0  0  0
 26 31  1  0  0  0  0
 26 24  1  0  0  0  0
 27 26  1  0  0  0  0
 28 27  1  0  0  0  0
 29 26  1  0  0  0  0
 30 29  1  0  0  0  0
 32 34  1  0  0  0  0
 32 31  1  0  0  0  0
 33 32  1  0  0  0  0
 35 32  1  0  0  0  0
M  END
>  <minimizedAffinity>
-5.95262051

$$$$

 OpenBabel03252503033D

 35 36  0  0  0  0  0  0  0  0999 V2000
   38.3950   29.9720   38.9320 C   0  0  0  0  0  0  0  0  0  0  0  0
   37.1740   30.5060   39.2770 C   0  0  0  0  0  0  0  0  0  0  0  0
   37.0410   31.8570   39.5720 C   0  0  0  0  0  0  0  0  0  0  0  0
   38.1620   32.6130   39.5050 N   0  0  0  0  0  0  0  0  0  0  0  0
   39.3540   32.0710   39.1650 C   0  0  0  0  0  0  0  0  0  0  0  0
   39.4760   30.7730   38.8810 N   0  0  0  0  0  0  0  0  0  0  0  0
   38.4840   28.9230   38.7050 H   0  0  0  0  0  0  0  0  0  0  0  0
   36.0720   32.2790   39.8460 H   0  0  0  0  0  0  0  0  0  0  0  0
   41.1390   33.2200   37.9010 C   0  0  0  0  0  0  0  0  0  0  0  0
   40.5310   32.9330   39.1080 C   0  0  0  0  0  0  0  0  0  0  0  0
   41.0590   33.4810   40.2830 C   0  0  0  0  0  0  0  0  0  0  0  0
   40.6170   33.2850   41.2490 H   0  0  0  0  0  0  0  0  0  0  0  0
   42.1860   34.3090   40.2360 C   0  0  0  0  0  3  0  0  0  0  0  0
   42.7300   34.5430   38.9890 C   0  0  0  0  0  3  0  0  0  0  0  0
   42.2640   34.0380   37.7910 C   0  0  0  0  0  0  0  0  0  0  0  0
   40.6310   32.6850   36.7160 O   0  0  0  0  0  0  0  0  0  0  0  0
   39.8190   33.1110   36.3060 H   0  0  0  0  0  0  0  0  0  0  0  0
   42.8770   34.3280   36.5830 O   0  0  0  0  0  0  0  0  0  0  0  0
   42.3380   34.8150   35.8790 H   0  0  0  0  0  0  0  0  0  0  0  0
   35.7050   29.4580   39.3540 S   0  0  0  0  0  0  0  0  0  0  0  0
   35.7810   28.4210   40.8120 C   0  0  0  0  0  0  0  0  0  0  0  0
   36.4680   27.5660   40.6910 H   0  0  0  0  0  0  0  0  0  0  0  0
   34.7840   28.0080   41.0730 H   0  0  0  0  0  0  0  0  0  0  0  0
   36.2460   29.2610   41.9060 N   0  0  0  0  0  0  0  0  0  0  0  0
   36.7900   30.0830   41.6060 H   0  0  0  0  0  0  0  0  0  0  0  0
   37.2360   28.4090   43.0180 S   0  0  0  0  0  0  0  0  0  0  0  0
   36.8570   28.6870   44.4280 O   0  0  0  0  0  0  0  0  0  0  0  0
   36.6660   28.0720   45.1560 H   0  0  0  0  0  0  0  0  0  0  0  0
   37.0580   26.9460   42.7110 O   0  0  0  0  0  0  0  0  0  0  0  0
   37.7360   26.2400   42.7710 H   0  0  0  0  0  0  0  0  0  0  0  0
   38.8360   28.7650   42.7460 O   0  0  0  0  0  0  0  0  0  0  0  0
   39.0600   30.1190   42.5520 C   0  0  0  0  0  0  0  0  0  0  0  0
   39.4770   30.6170   43.4450 H   0  0  0  0  0  0  0  0  0  0  0  0
   39.8140   30.1920   41.7250 H   0  0  0  0  0  0  0  0  0  0  0  0
   38.1590   30.6420   42.1380 H   0  0  0  0  0  0  0  0  0  0  0  0
  1  2  1  0  0  0  0
  2 20  1  0  0  0  0
  2  3  2  0  0  0  0
  3  8  1  0  0  0  0
  4  3  1  0  0  0  0
  5  4  2  0  0  0  0
  6  1  2  0  0  0  0
  6  5  1  0  0  0  0
  7  1  1  0  0  0  0
  9 10  1  0  0  0  0
 10  5  1  0  0  0  0
 10 11  2  0  0  0  0
 11 12  1  0  0  0  0
 13 11  1  0  0  0  0
 14 13  2  0  0  0  0
 15  9  2  0  0  0  0
 15 14  1  0  0  0  0
 16  9  1  0  0  0  0
 17 16  1  0  0  0  0
 18 15  1  0  0  0  0
 19 18  1  0  0  0  0
 20 21  1  0  0  0  0
 21 23  1  0  0  0  0
 21 24  1  0  0  0  0
 22 21  1  0  0  0  0
 24 26  1  0  0  0  0
 25 24  1  0  0  0  0
 26 27  1  0  0  0  0
 27 28  1  0  0  0  0
 29 30  1  0  0  0  0
 29 26  1  0  0  0  0
 31 26  1  0  0  0  0
 32 31  1  0  0  0  0
 32 33  1  0  0  0  0
 34 32  1  0  0  0  0
 35 32  1  0  0  0  0
M  END
>  <minimizedAffinity>
-5.91449881

$$$$

 OpenBabel03252503033D

 35 36  0  0  0  0  0  0  0  0999 V2000
   39.8460   29.1680   37.8590 C   0  0  0  0  0  0  0  0  0  0  0  0
   40.9880   29.8360   38.2400 C   0  0  0  0  0  0  0  0  0  0  0  0
   41.3300   29.9620   39.5810 C   0  0  0  0  0  0  0  0  0  0  0  0
   40.4920   29.4010   40.4830 N   0  0  0  0  0  0  0  0  0  0  0  0
   39.3730   28.7490   40.0910 C   0  0  0  0  0  0  0  0  0  0  0  0
   39.0490   28.6300   38.8020 N   0  0  0  0  0  0  0  0  0  0  0  0
   39.5920   29.0780   36.8170 H   0  0  0  0  0  0  0  0  0  0  0  0
   42.2360   30.4920   39.8810 H   0  0  0  0  0  0  0  0  0  0  0  0
   38.1460   28.8830   42.2300 C   0  0  0  0  0  0  0  0  0  0  0  0
   38.5040   28.1630   41.1080 C   0  0  0  0  0  0  0  0  0  0  0  0
   38.0240   26.8560   40.9540 C   0  0  0  0  0  0  0  0  0  0  0  0
   38.2790   26.2560   40.0930 H   0  0  0  0  0  0  0  0  0  0  0  0
   37.1910   26.2880   41.9240 C   0  0  0  0  0  3  0  0  0  0  0  0
   36.8820   27.0780   43.0130 C   0  0  0  0  0  3  0  0  0  0  0  0
   37.3180   28.3700   43.2300 C   0  0  0  0  0  0  0  0  0  0  0  0
   38.6110   30.1870   42.4060 O   0  0  0  0  0  0  0  0  0  0  0  0
   38.1650   30.9290   41.8970 H   0  0  0  0  0  0  0  0  0  0  0  0
   36.9550   29.0880   44.3580 O   0  0  0  0  0  0  0  0  0  0  0  0
   36.4300   29.9430   44.2310 H   0  0  0  0  0  0  0  0  0  0  0  0
   42.0770   30.5700   36.9990 S   0  0  0  0  0  0  0  0  0  0  0  0
   43.5610   31.1860   37.7900 C   0  0  0  0  0  0  0  0  0  0  0  0
   44.3850   30.4520   37.7790 H   0  0  0  0  0  0  0  0  0  0  0  0
   43.3760   31.4570   38.8510 H   0  0  0  0  0  0  0  0  0  0  0  0
   43.9660   32.3780   37.0600 N   0  0  0  0  0  0  0  0  0  0  0  0
   44.9870   32.4930   36.9720 H   0  0  0  0  0  0  0  0  0  0  0  0
   43.3790   33.8220   37.7760 S   0  0  0  0  0  0  0  0  0  0  0  0
   44.4820   34.6880   38.2680 O   0  0  0  0  0  0  0  0  0  0  0  0
   44.6560   35.6310   38.1060 H   0  0  0  0  0  0  0  0  0  0  0  0
   42.5940   34.5360   36.7100 O   0  0  0  0  0  0  0  0  0  0  0  0
   41.7820   35.0750   36.8290 H   0  0  0  0  0  0  0  0  0  0  0  0
   42.3120   33.4600   38.9970 O   0  0  0  0  0  0  0  0  0  0  0  0
   42.1930   34.4800   39.9280 C   0  0  0  0  0  0  0  0  0  0  0  0
   41.2740   35.0770   39.7930 H   0  0  0  0  0  0  0  0  0  0  0  0
   42.1450   33.9810   40.9300 H   0  0  0  0  0  0  0  0  0  0  0  0
   43.1200   35.1090   39.9870 H   0  0  0  0  0  0  0  0  0  0  0  0
  1  2  2  0  0  0  0
  1  6  1  0  0  0  0
  2  3  1  0  0  0  0
  3  8  1  0  0  0  0
  3  4  2  0  0  0  0
  5  4  1  0  0  0  0
  5 10  1  0  0  0  0
  6  5  2  0  0  0  0
  7  1  1  0  0  0  0
  9 16  1  0  0  0  0
  9 15  1  0  0  0  0
 10  9  2  0  0  0  0
 11 10  1  0  0  0  0
 11 13  2  0  0  0  0
 12 11  1  0  0  0  0
 13 14  1  0  0  0  0
 14 15  2  0  0  0  0
 15 18  1  0  0  0  0
 17 16  1  0  0  0  0
 19 18  1  0  0  0  0
 20 21  1  0  0  0  0
 20  2  1  0  0  0  0
 21 23  1  0  0  0  0
 22 21  1  0  0  0  0
 24 26  1  0  0  0  0
 24 21  1  0  0  0  0
 25 24  1  0  0  0  0
 26 27  1  0  0  0  0
 26 31  1  0  0  0  0
 28 27  1  0  0  0  0
 29 30  1  0  0  0  0
 29 26  1  0  0  0  0
 31 32  1  0  0  0  0
 32 35  1  0  0  0  0
 32 34  1  0  0  0  0
 33 32  1  0  0  0  0
M  END
>  <minimizedAffinity>
-5.52791882

$$$$

 OpenBabel03252503033D

 35 36  0  0  0  0  0  0  0  0999 V2000
   42.2040   32.2970   40.6550 C   0  0  0  0  0  0  0  0  0  0  0  0
   42.3980   33.6470   40.4610 C   0  0  0  0  0  0  0  0  0  0  0  0
   41.4520   34.4190   39.7990 C   0  0  0  0  0  0  0  0  0  0  0  0
   40.3410   33.7840   39.3590 N   0  0  0  0  0  0  0  0  0  0  0  0
   40.1670   32.4570   39.5570 C   0  0  0  0  0  0  0  0  0  0  0  0
   41.0780   31.7200   40.1940 N   0  0  0  0  0  0  0  0  0  0  0  0
   42.9450   31.7110   41.1690 H   0  0  0  0  0  0  0  0  0  0  0  0
   41.6080   35.4890   39.6460 H   0  0  0  0  0  0  0  0  0  0  0  0
   38.7070   31.7230   37.7040 C   0  0  0  0  0  0  0  0  0  0  0  0
   38.9480   31.8230   39.0600 C   0  0  0  0  0  0  0  0  0  0  0  0
   38.0070   31.3080   39.9600 C   0  0  0  0  0  0  0  0  0  0  0  0
   38.1530   31.3640   41.0280 H   0  0  0  0  0  0  0  0  0  0  0  0
   36.8380   30.6990   39.4910 C   0  0  0  0  0  3  0  0  0  0  0  0
   36.6760   30.6410   38.1220 C   0  0  0  0  0  3  0  0  0  0  0  0
   37.5600   31.1260   37.1780 C   0  0  0  0  0  0  0  0  0  0  0  0
   39.6310   32.2290   36.7880 O   0  0  0  0  0  0  0  0  0  0  0  0
   40.4550   31.6900   36.5900 H   0  0  0  0  0  0  0  0  0  0  0  0
   37.3140   31.0230   35.8180 O   0  0  0  0  0  0  0  0  0  0  0  0
   37.9630   30.4910   35.2540 H   0  0  0  0  0  0  0  0  0  0  0  0
   43.8980   34.4520   41.0660 S   0  0  0  0  0  0  0  0  0  0  0  0
   45.2650   34.0770   39.9720 C   0  0  0  0  0  0  0  0  0  0  0  0
   45.3460   33.0000   39.7450 H   0  0  0  0  0  0  0  0  0  0  0  0
   46.2370   34.3950   40.4080 H   0  0  0  0  0  0  0  0  0  0  0  0
   45.0360   34.8150   38.7390 N   0  0  0  0  0  0  0  0  0  0  0  0
   44.3220   35.5530   38.8150 H   0  0  0  0  0  0  0  0  0  0  0  0
   44.5450   33.8010   37.4450 S   0  0  0  0  0  0  0  0  0  0  0  0
   43.2830   34.2710   36.8180 O   0  0  0  0  0  0  0  0  0  0  0  0
   43.0730   34.4360   35.8830 H   0  0  0  0  0  0  0  0  0  0  0  0
   45.6640   33.8240   36.4390 O   0  0  0  0  0  0  0  0  0  0  0  0
   45.9660   33.0840   35.8690 H   0  0  0  0  0  0  0  0  0  0  0  0
   44.4040   32.2310   37.9720 O   0  0  0  0  0  0  0  0  0  0  0  0
   45.0390   31.3250   37.1380 C   0  0  0  0  0  0  0  0  0  0  0  0
   46.0130   30.9870   37.5340 H   0  0  0  0  0  0  0  0  0  0  0  0
   44.3590   30.4360   37.0730 H   0  0  0  0  0  0  0  0  0  0  0  0
   45.0980   31.6930   36.0800 H   0  0  0  0  0  0  0  0  0  0  0  0
  1  7  1  0  0  0  0
  2  1  1  0  0  0  0
  2 20  1  0  0  0  0
  3  2  2  0  0  0  0
  4  5  2  0  0  0  0
  4  3  1  0  0  0  0
  5  6  1  0  0  0  0
  6  1  2  0  0  0  0
  8  3  1  0  0  0  0
  9 10  1  0  0  0  0
 10  5  1  0  0  0  0
 10 11  2  0  0  0  0
 11 12  1  0  0  0  0
 13 11  1  0  0  0  0
 14 13  2  0  0  0  0
 15  9  2  0  0  0  0
 15 14  1  0  0  0  0
 16  9  1  0  0  0  0
 17 16  1  0  0  0  0
 18 15  1  0  0  0  0
 19 18  1  0  0  0  0
 21 23  1  0  0  0  0
 21 20  1  0  0  0  0
 22 21  1  0  0  0  0
 24 25  1  0  0  0  0
 24 21  1  0  0  0  0
 26 31  1  0  0  0  0
 26 24  1  0  0  0  0
 27 26  1  0  0  0  0
 28 27  1  0  0  0  0
 29 26  1  0  0  0  0
 30 29  1  0  0  0  0
 32 33  1  0  0  0  0
 32 31  1  0  0  0  0
 34 32  1  0  0  0  0
 35 32  1  0  0  0  0
M  END
>  <minimizedAffinity>
-5.50509739

$$$$

 OpenBabel03252503033D

 35 36  0  0  0  0  0  0  0  0999 V2000
   39.6110   28.2320   38.7820 C   0  0  0  0  0  0  0  0  0  0  0  0
   38.3770   28.6940   38.3820 C   0  0  0  0  0  0  0  0  0  0  0  0
   38.2200   29.9810   37.8840 C   0  0  0  0  0  0  0  0  0  0  0  0
   39.3310   30.7510   37.8140 N   0  0  0  0  0  0  0  0  0  0  0  0
   40.5360   30.2820   38.2120 C   0  0  0  0  0  0  0  0  0  0  0  0
   40.6820   29.0450   38.6890 N   0  0  0  0  0  0  0  0  0  0  0  0
   39.7180   27.2330   39.1660 H   0  0  0  0  0  0  0  0  0  0  0  0
   37.2410   30.3440   37.5670 H   0  0  0  0  0  0  0  0  0  0  0  0
   41.6410   32.3360   37.3990 C   0  0  0  0  0  0  0  0  0  0  0  0
   41.7010   31.1560   38.1150 C   0  0  0  0  0  0  0  0  0  0  0  0
   42.8990   30.8050   38.7490 C   0  0  0  0  0  0  0  0  0  0  0  0
   42.9930   29.8930   39.3190 H   0  0  0  0  0  0  0  0  0  0  0  0
   44.0200   31.6380   38.6600 C   0  0  0  0  0  3  0  0  0  0  0  0
   43.8720   32.7970   37.9250 C   0  0  0  0  0  3  0  0  0  0  0  0
   42.7240   33.2070   37.2750 C   0  0  0  0  0  0  0  0  0  0  0  0
   40.4580   32.7080   36.7580 O   0  0  0  0  0  0  0  0  0  0  0  0
   39.7190   33.1090   37.3070 H   0  0  0  0  0  0  0  0  0  0  0  0
   42.6690   34.3910   36.5580 O   0  0  0  0  0  0  0  0  0  0  0  0
   42.0130   35.1000   36.8580 H   0  0  0  0  0  0  0  0  0  0  0  0
   36.9220   27.6290   38.4950 S   0  0  0  0  0  0  0  0  0  0  0  0
   35.9330   28.1090   39.9090 C   0  0  0  0  0  0  0  0  0  0  0  0
   35.0840   27.4270   40.0860 H   0  0  0  0  0  0  0  0  0  0  0  0
   35.5140   29.1300   39.7870 H   0  0  0  0  0  0  0  0  0  0  0  0
   36.8140   28.0930   41.0670 N   0  0  0  0  0  0  0  0  0  0  0  0
   36.5280   27.4340   41.8060 H   0  0  0  0  0  0  0  0  0  0  0  0
   36.9450   29.6300   41.8170 S   0  0  0  0  0  0  0  0  0  0  0  0
   35.7830   30.5030   41.5060 O   0  0  0  0  0  0  0  0  0  0  0  0
   35.2030   31.0070   42.1020 H   0  0  0  0  0  0  0  0  0  0  0  0
   37.0210   29.3750   43.2980 O   0  0  0  0  0  0  0  0  0  0  0  0
   37.5400   29.8780   43.9630 H   0  0  0  0  0  0  0  0  0  0  0  0
   38.3750   30.3570   41.3810 O   0  0  0  0  0  0  0  0  0  0  0  0
   39.4430   29.9590   42.1690 C   0  0  0  0  0  0  0  0  0  0  0  0
   40.0890   29.2160   41.6690 H   0  0  0  0  0  0  0  0  0  0  0  0
   40.0500   30.8820   42.3570 H   0  0  0  0  0  0  0  0  0  0  0  0
   39.1180   29.6400   43.1930 H   0  0  0  0  0  0  0  0  0  0  0  0
  1  7  1  0  0  0  0
  2 20  1  0  0  0  0
  2  1  2  0  0  0  0
  3  2  1  0  0  0  0
  4  3  2  0  0  0  0
  4  5  1  0  0  0  0
  5  6  2  0  0  0  0
  6  1  1  0  0  0  0
  8  3  1  0  0  0  0
  9 10  1  0  0  0  0
 10  5  1  0  0  0  0
 10 11  2  0  0  0  0
 11 12  1  0  0  0  0
 13 11  1  0  0  0  0
 14 13  2  0  0  0  0
 15  9  2  0  0  0  0
 15 14  1  0  0  0  0
 16 17  1  0  0  0  0
 16  9  1  0  0  0  0
 18 19  1  0  0  0  0
 18 15  1  0  0  0  0
 20 21  1  0  0  0  0
 21 22  1  0  0  0  0
 21 24  1  0  0  0  0
 23 21  1  0  0  0  0
 24 25  1  0  0  0  0
 24 26  1  0  0  0  0
 26 29  1  0  0  0  0
 27 26  1  0  0  0  0
 27 28  1  0  0  0  0
 29 30  1  0  0  0  0
 31 26  1  0  0  0  0
 31 32  1  0  0  0  0
 32 34  1  0  0  0  0
 32 35  1  0  0  0  0
 33 32  1  0  0  0  0
M  END
>  <minimizedAffinity>
-5.30962038

$$$$

 OpenBabel03252503033D

 35 36  0  0  0  0  0  0  0  0999 V2000
   39.8970   29.0540   39.3450 C   0  0  0  0  0  0  0  0  0  0  0  0
   39.0290   30.0930   39.5930 C   0  0  0  0  0  0  0  0  0  0  0  0
   37.8740   29.8990   40.3400 C   0  0  0  0  0  0  0  0  0  0  0  0
   37.6490   28.6490   40.8070 N   0  0  0  0  0  0  0  0  0  0  0  0
   38.5120   27.6390   40.5530 C   0  0  0  0  0  0  0  0  0  0  0  0
   39.6200   27.8310   39.8360 N   0  0  0  0  0  0  0  0  0  0  0  0
   40.7880   29.2190   38.7640 H   0  0  0  0  0  0  0  0  0  0  0  0
   37.1870   30.7250   40.5360 H   0  0  0  0  0  0  0  0  0  0  0  0
   39.1130   25.6690   41.9170 C   0  0  0  0  0  0  0  0  0  0  0  0
   38.2190   26.3100   41.0820 C   0  0  0  0  0  0  0  0  0  0  0  0
   37.0210   25.6670   40.7440 C   0  0  0  0  0  0  0  0  0  0  0  0
   36.2930   26.1300   40.0950 H   0  0  0  0  0  0  0  0  0  0  0  0
   36.7330   24.3940   41.2480 C   0  0  0  0  0  3  0  0  0  0  0  0
   37.6820   23.8270   42.0750 C   0  0  0  0  0  3  0  0  0  0  0  0
   38.8810   24.4000   42.4490 C   0  0  0  0  0  0  0  0  0  0  0  0
   40.3140   26.2890   42.2670 O   0  0  0  0  0  0  0  0  0  0  0  0
   40.2980   26.9990   42.9770 H   0  0  0  0  0  0  0  0  0  0  0  0
   39.7750   23.7530   43.2870 O   0  0  0  0  0  0  0  0  0  0  0  0
   39.9980   24.1870   44.1730 H   0  0  0  0  0  0  0  0  0  0  0  0
   39.3720   31.7460   38.9480 S   0  0  0  0  0  0  0  0  0  0  0  0
   40.6080   31.6430   37.6570 C   0  0  0  0  0  0  0  0  0  0  0  0
   40.3110   30.9690   36.8350 H   0  0  0  0  0  0  0  0  0  0  0  0
   41.5800   31.2740   38.0500 H   0  0  0  0  0  0  0  0  0  0  0  0
   40.7890   32.9900   37.1350 N   0  0  0  0  0  0  0  0  0  0  0  0
   40.7630   33.0510   36.1060 H   0  0  0  0  0  0  0  0  0  0  0  0
   42.2770   33.6920   37.6210 S   0  0  0  0  0  0  0  0  0  0  0  0
   42.8910   34.5020   36.5370 O   0  0  0  0  0  0  0  0  0  0  0  0
   43.2250   35.4150   36.5510 H   0  0  0  0  0  0  0  0  0  0  0  0
   41.9670   34.5640   38.8080 O   0  0  0  0  0  0  0  0  0  0  0  0
   42.5360   34.7240   39.5920 H   0  0  0  0  0  0  0  0  0  0  0  0
   43.3190   32.5110   38.1510 O   0  0  0  0  0  0  0  0  0  0  0  0
   44.6280   32.7320   37.7550 C   0  0  0  0  0  0  0  0  0  0  0  0
   45.2570   33.1410   38.5650 H   0  0  0  0  0  0  0  0  0  0  0  0
   45.0370   31.7300   37.4650 H   0  0  0  0  0  0  0  0  0  0  0  0
   44.6890   33.3290   36.8080 H   0  0  0  0  0  0  0  0  0  0  0  0
  1  2  2  0  0  0  0
  1  6  1  0  0  0  0
  2  3  1  0  0  0  0
  3  8  1  0  0  0  0
  3  4  2  0  0  0  0
  5  4  1  0  0  0  0
  5 10  1  0  0  0  0
  6  5  2  0  0  0  0
  7  1  1  0  0  0  0
  9 16  1  0  0  0  0
  9 15  1  0  0  0  0
 10  9  2  0  0  0  0
 11 10  1  0  0  0  0
 11 13  2  0  0  0  0
 12 11  1  0  0  0  0
 13 14  1  0  0  0  0
 14 15  2  0  0  0  0
 15 18  1  0  0  0  0
 16 17  1  0  0  0  0
 18 19  1  0  0  0  0
 20  2  1  0  0  0  0
 21 23  1  0  0  0  0
 21 20  1  0  0  0  0
 22 21  1  0  0  0  0
 24 26  1  0  0  0  0
 24 21  1  0  0  0  0
 25 24  1  0  0  0  0
 26 31  1  0  0  0  0
 26 29  1  0  0  0  0
 27 28  1  0  0  0  0
 27 26  1  0  0  0  0
 29 30  1  0  0  0  0
 32 31  1  0  0  0  0
 32 33  1  0  0  0  0
 34 32  1  0  0  0  0
 35 32  1  0  0  0  0
M  END
>  <minimizedAffinity>
-5.30076981

$$$$

 OpenBabel03252503033D

 35 36  0  0  0  0  0  0  0  0999 V2000
   40.5870   30.7030   40.0100 C   0  0  0  0  0  0  0  0  0  0  0  0
   40.5680   31.8610   40.7540 C   0  0  0  0  0  0  0  0  0  0  0  0
   39.3690   32.4780   41.0880 C   0  0  0  0  0  0  0  0  0  0  0  0
   38.2330   31.8890   40.6500 N   0  0  0  0  0  0  0  0  0  0  0  0
   38.2700   30.7520   39.9180 C   0  0  0  0  0  0  0  0  0  0  0  0
   39.4230   30.1620   39.6000 N   0  0  0  0  0  0  0  0  0  0  0  0
   41.5230   30.2350   39.7570 H   0  0  0  0  0  0  0  0  0  0  0  0
   39.3570   33.3970   41.6790 H   0  0  0  0  0  0  0  0  0  0  0  0
   36.7530   29.9850   38.1250 C   0  0  0  0  0  0  0  0  0  0  0  0
   37.0120   30.1590   39.4710 C   0  0  0  0  0  0  0  0  0  0  0  0
   36.0510   29.7590   40.4070 C   0  0  0  0  0  0  0  0  0  0  0  0
   36.2100   29.8750   41.4690 H   0  0  0  0  0  0  0  0  0  0  0  0
   34.8440   29.1890   39.9860 C   0  0  0  0  0  3  0  0  0  0  0  0
   34.6670   29.0530   38.6230 C   0  0  0  0  0  3  0  0  0  0  0  0
   35.5690   29.4240   37.6450 C   0  0  0  0  0  0  0  0  0  0  0  0
   37.6960   30.3760   37.1730 O   0  0  0  0  0  0  0  0  0  0  0  0
   38.4860   29.7790   37.0060 H   0  0  0  0  0  0  0  0  0  0  0  0
   35.3040   29.2480   36.2970 O   0  0  0  0  0  0  0  0  0  0  0  0
   35.9170   28.6430   35.7650 H   0  0  0  0  0  0  0  0  0  0  0  0
   42.1110   32.6120   41.3180 S   0  0  0  0  0  0  0  0  0  0  0  0
   43.0450   33.2000   39.9070 C   0  0  0  0  0  0  0  0  0  0  0  0
   43.5130   32.3800   39.3340 H   0  0  0  0  0  0  0  0  0  0  0  0
   43.8580   33.8910   40.2140 H   0  0  0  0  0  0  0  0  0  0  0  0
   42.1130   33.9160   39.0500 N   0  0  0  0  0  0  0  0  0  0  0  0
   41.1350   33.8890   39.3730 H   0  0  0  0  0  0  0  0  0  0  0  0
   42.1040   33.3210   37.4410 S   0  0  0  0  0  0  0  0  0  0  0  0
   40.7420   32.9210   37.0020 O   0  0  0  0  0  0  0  0  0  0  0  0
   40.2460   33.1670   36.2020 H   0  0  0  0  0  0  0  0  0  0  0  0
   42.6230   34.4350   36.5730 O   0  0  0  0  0  0  0  0  0  0  0  0
   43.1790   34.3520   35.7680 H   0  0  0  0  0  0  0  0  0  0  0  0
   43.1750   32.0580   37.2940 O   0  0  0  0  0  0  0  0  0  0  0  0
   42.6160   30.9470   36.6850 C   0  0  0  0  0  0  0  0  0  0  0  0
   42.9120   30.8450   35.6260 H   0  0  0  0  0  0  0  0  0  0  0  0
   43.0050   30.0580   37.2460 H   0  0  0  0  0  0  0  0  0  0  0  0
   41.5060   30.8940   36.8370 H   0  0  0  0  0  0  0  0  0  0  0  0
  1  2  1  0  0  0  0
  2  3  2  0  0  0  0
  2 20  1  0  0  0  0
  3  8  1  0  0  0  0
  4  3  1  0  0  0  0
  5  4  2  0  0  0  0
  6  5  1  0  0  0  0
  6  1  2  0  0  0  0
  7  1  1  0  0  0  0
  9 10  1  0  0  0  0
 10  5  1  0  0  0  0
 10 11  2  0  0  0  0
 11 12  1  0  0  0  0
 13 11  1  0  0  0  0
 14 13  2  0  0  0  0
 15  9  2  0  0  0  0
 15 14  1  0  0  0  0
 16  9  1  0  0  0  0
 17 16  1  0  0  0  0
 18 15  1  0  0  0  0
 19 18  1  0  0  0  0
 21 23  1  0  0  0  0
 21 20  1  0  0  0  0
 22 21  1  0  0  0  0
 24 25  1  0  0  0  0
 24 21  1  0  0  0  0
 26 24  1  0  0  0  0
 27 26  1  0  0  0  0
 28 27  1  0  0  0  0
 29 26  1  0  0  0  0
 30 29  1  0  0  0  0
 31 26  1  0  0  0  0
 32 35  1  0  0  0  0
 32 34  1  0  0  0  0
 32 31  1  0  0  0  0
 33 32  1  0  0  0  0
M  END
>  <minimizedAffinity>
-5.29952335

$$$$
