
 OpenBabel03242523003D

 33 35  0  0  0  0  0  0  0  0999 V2000
   44.5100   35.2320   45.9730 C   0  0  0  0  0  0  0  0  0  0  0  0
   44.8500   35.1690   44.6230 C   0  0  0  0  0  0  0  0  0  0  0  0
   45.5130   34.0980   44.0660 C   0  0  0  0  0  0  0  0  0  0  0  0
   45.8130   33.1030   44.9300 N   0  0  0  0  0  0  0  0  0  0  0  0
   45.4960   33.1390   46.2380 C   0  0  0  0  0  0  0  0  0  0  0  0
   44.8470   34.2000   46.7560 N   0  0  0  0  0  0  0  0  0  0  0  0
   43.9880   36.1100   46.3330 H   0  0  0  0  0  0  0  0  0  0  0  0
   44.5840   35.9990   43.9690 H   0  0  0  0  0  0  0  0  0  0  0  0
   43.4900   32.7890   42.3240 Cl  0  0  0  0  0  0  0  0  0  0  0  0
   45.0220   33.4340   41.7910 C   0  0  0  0  0  0  0  0  0  0  0  0
   45.8780   34.0130   42.6550 C   0  0  0  0  0  0  0  0  0  0  0  0
   47.0680   34.4940   42.1360 C   0  0  0  0  0  0  0  0  0  0  0  0
   47.3740   34.3970   40.8180 C   0  0  0  0  0  0  0  0  0  0  0  0
   46.4970   33.8070   39.9460 C   0  0  0  0  0  0  0  0  0  0  0  0
   45.3150   33.3260   40.4500 C   0  0  0  0  0  0  0  0  0  0  0  0
   47.7750   34.9640   42.8090 H   0  0  0  0  0  0  0  0  0  0  0  0
   46.7030   33.7070   38.8740 H   0  0  0  0  0  0  0  0  0  0  0  0
   44.6170   32.8590   39.7640 H   0  0  0  0  0  0  0  0  0  0  0  0
   48.6510   34.9130   40.2560 C   0  0  0  0  0  0  0  0  0  0  0  0
   49.6380   34.0010   40.5260 F   0  0  0  0  0  0  0  0  0  0  0  0
   48.9530   36.1680   40.7640 F   0  0  0  0  0  0  0  0  0  0  0  0
   48.4940   35.0460   38.8840 F   0  0  0  0  0  0  0  0  0  0  0  0
   46.9510   32.1540   47.9580 C   0  0  0  0  0  0  0  0  0  0  0  0
   45.8530   32.0240   47.1180 C   0  0  0  0  0  0  0  0  0  0  0  0
   45.1100   30.8610   47.1160 C   0  0  0  0  0  0  0  0  0  0  0  0
   44.2480   30.7460   46.4630 H   0  0  0  0  0  0  0  0  0  0  0  0
   45.4180   29.7740   47.9420 C   0  0  0  0  0  3  0  0  0  0  0  0
   46.5200   29.9770   48.7460 C   0  0  0  0  0  3  0  0  0  0  0  0
   47.3070   31.1060   48.8030 C   0  0  0  0  0  0  0  0  0  0  0  0
   47.6900   33.3260   47.9530 O   0  0  0  0  0  0  0  0  0  0  0  0
   48.5360   33.4480   47.4030 H   0  0  0  0  0  0  0  0  0  0  0  0
   48.3960   31.1860   49.6610 O   0  0  0  0  0  0  0  0  0  0  0  0
   48.7070   32.1010   50.0170 H   0  0  0  0  0  0  0  0  0  0  0  0
  1  7  1  0  0  0  0
  1  6  1  0  0  0  0
  2  1  2  0  0  0  0
  3  2  1  0  0  0  0
  3  4  2  0  0  0  0
  4  5  1  0  0  0  0
  5  6  2  0  0  0  0
  5 24  1  0  0  0  0
  8  2  1  0  0  0  0
 10  9  1  0  0  0  0
 10 11  1  0  0  0  0
 11  3  1  0  0  0  0
 12 11  2  0  0  0  0
 12 16  1  0  0  0  0
 13 12  1  0  0  0  0
 14 15  1  0  0  0  0
 14 13  2  0  0  0  0
 15 10  2  0  0  0  0
 17 14  1  0  0  0  0
 18 15  1  0  0  0  0
 19 20  1  0  0  0  0
 19 21  1  0  0  0  0
 19 13  1  0  0  0  0
 22 19  1  0  0  0  0
 23 29  1  0  0  0  0
 24 23  2  0  0  0  0
 25 24  1  0  0  0  0
 25 27  2  0  0  0  0
 26 25  1  0  0  0  0
 27 28  1  0  0  0  0
 28 29  2  0  0  0  0
 29 32  1  0  0  0  0
 30 23  1  0  0  0  0
 31 30  1  0  0  0  0
 32 33  1  0  0  0  0
M  END
>  <minimizedAffinity>
-6.46344757

>  <minimizedRMSD>
1.53896618

$$$$
