
 OpenBabel03252500513D

 37 39  0  0  0  0  0  0  0  0999 V2000
   44.8440   35.0780   42.4480 C   0  0  0  0  0  0  0  0  0  0  0  0
   45.7620   35.2760   41.6260 O   0  0  0  0  0  0  0  0  0  0  0  0
   44.9040   34.9650   44.8850 C   0  0  0  0  0  0  0  0  0  0  0  0
   45.1570   34.3660   43.6760 C   0  0  0  0  0  0  0  0  0  0  0  0
   45.7140   33.0700   43.6050 C   0  0  0  0  0  0  0  0  0  0  0  0
   45.9820   32.4610   44.8070 N   0  0  0  0  0  0  0  0  0  0  0  0
   45.7330   33.0500   45.9710 C   0  0  0  0  0  0  0  0  0  0  0  0
   45.1990   34.2900   46.0080 N   0  0  0  0  0  0  0  0  0  0  0  0
   44.4860   35.9350   45.0130 H   0  0  0  0  0  0  0  0  0  0  0  0
   45.9200   32.5830   42.6700 H   0  0  0  0  0  0  0  0  0  0  0  0
   46.0320   32.3700   47.2220 C   0  0  0  0  0  0  0  0  0  0  0  0
   47.2970   32.0330   47.5900 C   0  0  0  0  0  0  0  0  0  0  0  0
   47.5950   31.3940   48.7620 C   0  0  0  0  0  0  0  0  0  0  0  0
   46.5580   31.0940   49.5750 N   0  0  0  0  0  0  0  0  0  0  0  0
   45.3200   31.4240   49.2110 C   0  0  0  0  0  0  0  0  0  0  0  0
   45.0020   32.0500   48.0700 N   0  0  0  0  0  0  0  0  0  0  0  0
   48.1300   32.2720   46.9420 H   0  0  0  0  0  0  0  0  0  0  0  0
   48.5950   31.1210   49.0690 H   0  0  0  0  0  0  0  0  0  0  0  0
   44.4720   31.1910   49.8520 H   0  0  0  0  0  0  0  0  0  0  0  0
   43.6980   35.6210   41.9440 O   0  0  0  0  0  0  0  0  0  0  0  0
   42.6440   34.8860   41.4700 C   0  0  0  0  0  0  0  0  0  0  0  0
   42.7860   34.8340   40.3460 H   0  0  0  0  0  0  0  0  0  0  0  0
   42.5880   33.8160   41.7490 H   0  0  0  0  0  0  0  0  0  0  0  0
   41.2900   35.5730   41.6040 C   0  0  0  0  0  0  0  0  0  0  0  0
   41.2890   36.5700   41.1560 H   0  0  0  0  0  0  0  0  0  0  0  0
   41.0050   35.5310   42.6620 H   0  0  0  0  0  0  0  0  0  0  0  0
   40.0480   34.9370   39.4990 C   0  0  0  0  0  0  0  0  0  0  0  0
   40.3170   34.7280   40.8420 C   0  0  0  0  0  0  0  0  0  0  0  0
   39.6380   33.6860   41.4690 C   0  0  0  0  0  0  0  0  0  0  0  0
   39.8670   33.5430   42.5200 H   0  0  0  0  0  0  0  0  0  0  0  0
   38.7240   32.8640   40.8260 C   0  0  0  0  0  3  0  0  0  0  0  0
   38.4820   33.1050   39.4830 C   0  0  0  0  0  3  0  0  0  0  0  0
   39.1330   34.1210   38.8390 C   0  0  0  0  0  0  0  0  0  0  0  0
   40.6890   35.9550   38.8240 O   0  0  0  0  0  0  0  0  0  0  0  0
   40.3480   36.3450   37.9520 H   0  0  0  0  0  0  0  0  0  0  0  0
   38.8300   34.2910   37.4960 O   0  0  0  0  0  0  0  0  0  0  0  0
   38.6040   33.5020   36.8870 H   0  0  0  0  0  0  0  0  0  0  0  0
  1  4  1  0  0  0  0
  2  1  2  0  0  0  0
  3  9  1  0  0  0  0
  3  8  1  0  0  0  0
  4  3  2  0  0  0  0
  5  4  1  0  0  0  0
  5  6  2  0  0  0  0
  6  7  1  0  0  0  0
  7  8  2  0  0  0  0
  7 11  1  0  0  0  0
 10  5  1  0  0  0  0
 11 12  2  0  0  0  0
 11 16  1  0  0  0  0
 12 13  1  0  0  0  0
 13 18  1  0  0  0  0
 13 14  2  0  0  0  0
 15 14  1  0  0  0  0
 15 19  1  0  0  0  0
 16 15  2  0  0  0  0
 17 12  1  0  0  0  0
 20  1  1  0  0  0  0
 21 24  1  0  0  0  0
 21 23  1  0  0  0  0
 21 20  1  0  0  0  0
 22 21  1  0  0  0  0
 24 26  1  0  0  0  0
 25 24  1  0  0  0  0
 27 28  1  0  0  0  0
 28 29  2  0  0  0  0
 28 24  1  0  0  0  0
 29 30  1  0  0  0  0
 31 29  1  0  0  0  0
 32 31  2  0  0  0  0
 33 32  1  0  0  0  0
 33 27  2  0  0  0  0
 34 27  1  0  0  0  0
 35 34  1  0  0  0  0
 36 33  1  0  0  0  0
 37 36  1  0  0  0  0
M  END
>  <minimizedAffinity>
-6.22793674

>  <minimizedRMSD>
0.640351653

$$$$
