
 OpenBabel03252501563D

 23 24  0  0  0  0  0  0  0  0999 V2000
   44.5120   35.5840   44.7660 C   0  0  0  0  0  0  0  0  0  0  0  0
   44.9930   35.3280   43.4720 C   0  0  0  0  0  0  0  0  0  0  0  0
   45.8620   34.2620   43.3100 C   0  0  0  0  0  0  0  0  0  0  0  0
   46.1910   33.5530   44.3810 N   0  0  0  0  0  0  0  0  0  0  0  0
   45.7360   33.7950   45.6170 C   0  0  0  0  0  0  0  0  0  0  0  0
   44.8820   34.8230   45.8360 N   0  0  0  0  0  0  0  0  0  0  0  0
   43.8290   36.3950   44.9530 H   0  0  0  0  0  0  0  0  0  0  0  0
   46.0760   33.1460   46.4280 H   0  0  0  0  0  0  0  0  0  0  0  0
   47.3590   34.6320   41.2730 C   0  0  0  0  0  0  0  0  0  0  0  0
   46.3090   34.0970   41.9520 C   0  0  0  0  0  0  0  0  0  0  0  0
   45.5050   33.1800   41.2480 C   0  0  0  0  0  0  0  0  0  0  0  0
   44.6240   32.6780   41.6370 H   0  0  0  0  0  0  0  0  0  0  0  0
   45.7520   32.8300   39.9460 C   0  0  0  0  0  3  0  0  0  0  0  0
   46.8490   33.4190   39.3110 C   0  0  0  0  0  3  0  0  0  0  0  0
   47.6720   34.3210   39.9420 C   0  0  0  0  0  0  0  0  0  0  0  0
   48.0990   35.5330   42.0550 O   0  0  0  0  0  0  0  0  0  0  0  0
   47.6390   36.2470   42.6260 H   0  0  0  0  0  0  0  0  0  0  0  0
   48.7800   34.9730   39.4340 O   0  0  0  0  0  0  0  0  0  0  0  0
   48.7250   35.8830   38.9600 H   0  0  0  0  0  0  0  0  0  0  0  0
   44.5150   36.2880   42.4290 C   0  0  0  0  0  0  0  0  0  0  0  0
   45.1320   37.2310   42.5900 H   0  0  0  0  0  0  0  0  0  0  0  0
   44.6100   35.9490   41.4060 H   0  0  0  0  0  0  0  0  0  0  0  0
   43.4850   36.6020   42.7030 H   0  0  0  0  0  0  0  0  0  0  0  0
  1  7  1  0  0  0  0
  1  6  1  0  0  0  0
  2  1  2  0  0  0  0
  3  2  1  0  0  0  0
  3  4  2  0  0  0  0
  4  5  1  0  0  0  0
  5  6  2  0  0  0  0
  5  8  1  0  0  0  0
  9 10  1  0  0  0  0
  9 16  1  0  0  0  0
 10  3  1  0  0  0  0
 11 12  1  0  0  0  0
 11 10  2  0  0  0  0
 13 11  1  0  0  0  0
 14 15  1  0  0  0  0
 14 13  2  0  0  0  0
 15  9  2  0  0  0  0
 16 17  1  0  0  0  0
 18 15  1  0  0  0  0
 19 18  1  0  0  0  0
 20 21  1  0  0  0  0
 20 23  1  0  0  0  0
 20  2  1  0  0  0  0
 22 20  1  0  0  0  0
M  END
>  <minimizedAffinity>
-4.67926264

>  <minimizedRMSD>
1.56042552

$$$$
