
 OpenBabel03242523003D

 33 35  0  0  0  0  0  0  0  0999 V2000
   45.1600   33.6410   46.9800 C   0  0  0  0  0  0  0  0  0  0  0  0
   45.4520   34.0800   45.6890 C   0  0  0  0  0  0  0  0  0  0  0  0
   46.0930   33.2950   44.7580 C   0  0  0  0  0  0  0  0  0  0  0  0
   46.4220   32.0560   45.1870 N   0  0  0  0  0  0  0  0  0  0  0  0
   46.1520   31.6080   46.4270 C   0  0  0  0  0  0  0  0  0  0  0  0
   45.5240   32.3980   47.3190 N   0  0  0  0  0  0  0  0  0  0  0  0
   44.6530   34.3210   47.6540 H   0  0  0  0  0  0  0  0  0  0  0  0
   45.1640   35.0880   45.3940 H   0  0  0  0  0  0  0  0  0  0  0  0
   44.1100   32.5000   42.6890 Cl  0  0  0  0  0  0  0  0  0  0  0  0
   45.5650   33.4200   42.3990 C   0  0  0  0  0  0  0  0  0  0  0  0
   46.4070   33.7350   43.4020 C   0  0  0  0  0  0  0  0  0  0  0  0
   47.5350   34.4670   43.0710 C   0  0  0  0  0  0  0  0  0  0  0  0
   47.7950   34.8600   41.7980 C   0  0  0  0  0  0  0  0  0  0  0  0
   46.9320   34.5340   40.7850 C   0  0  0  0  0  0  0  0  0  0  0  0
   45.8120   33.8090   41.1010 C   0  0  0  0  0  0  0  0  0  0  0  0
   48.2290   34.7340   43.8580 H   0  0  0  0  0  0  0  0  0  0  0  0
   47.1030   34.8300   39.7430 H   0  0  0  0  0  0  0  0  0  0  0  0
   45.1260   33.5500   40.3030 H   0  0  0  0  0  0  0  0  0  0  0  0
   49.0050   35.6470   41.4380 C   0  0  0  0  0  0  0  0  0  0  0  0
   50.1100   34.9220   41.7990 F   0  0  0  0  0  0  0  0  0  0  0  0
   48.9880   36.8970   42.0380 F   0  0  0  0  0  0  0  0  0  0  0  0
   48.9970   35.8430   40.0650 F   0  0  0  0  0  0  0  0  0  0  0  0
   45.5500   29.2880   46.9780 C   0  0  0  0  0  0  0  0  0  0  0  0
   46.5380   30.2530   46.8270 C   0  0  0  0  0  0  0  0  0  0  0  0
   47.8620   29.9340   47.0500 C   0  0  0  0  0  0  0  0  0  0  0  0
   48.6460   30.6810   46.9350 H   0  0  0  0  0  0  0  0  0  0  0  0
   48.2700   28.6530   47.4320 C   0  0  0  0  0  3  0  0  0  0  0  0
   47.2340   27.7510   47.5610 C   0  0  0  0  0  3  0  0  0  0  0  0
   45.8940   27.9950   47.3570 C   0  0  0  0  0  0  0  0  0  0  0  0
   44.2220   29.6170   46.7510 O   0  0  0  0  0  0  0  0  0  0  0  0
   43.5820   29.8890   47.4920 H   0  0  0  0  0  0  0  0  0  0  0  0
   44.9450   26.9940   47.5210 O   0  0  0  0  0  0  0  0  0  0  0  0
   44.0630   27.0270   46.9910 H   0  0  0  0  0  0  0  0  0  0  0  0
  1  6  1  0  0  0  0
  1  7  1  0  0  0  0
  2  1  2  0  0  0  0
  3  4  2  0  0  0  0
  3  2  1  0  0  0  0
  4  5  1  0  0  0  0
  5 24  1  0  0  0  0
  5  6  2  0  0  0  0
  8  2  1  0  0  0  0
 10  9  1  0  0  0  0
 10 11  1  0  0  0  0
 11  3  1  0  0  0  0
 12 11  2  0  0  0  0
 12 16  1  0  0  0  0
 13 12  1  0  0  0  0
 14 15  1  0  0  0  0
 14 13  2  0  0  0  0
 15 10  2  0  0  0  0
 17 14  1  0  0  0  0
 18 15  1  0  0  0  0
 19 13  1  0  0  0  0
 19 20  1  0  0  0  0
 19 21  1  0  0  0  0
 22 19  1  0  0  0  0
 23 29  1  0  0  0  0
 24 23  2  0  0  0  0
 24 25  1  0  0  0  0
 25 27  2  0  0  0  0
 26 25  1  0  0  0  0
 27 28  1  0  0  0  0
 29 32  1  0  0  0  0
 29 28  2  0  0  0  0
 30 23  1  0  0  0  0
 30 31  1  0  0  0  0
 33 32  1  0  0  0  0
M  END
>  <minimizedAffinity>
-6.37861633

>  <minimizedRMSD>
1.33256507

$$$$
