
 OpenBabel03252502533D

 33 35  0  0  0  0  0  0  0  0999 V2000
   45.6170   29.8650   44.6220 Br  0  0  0  0  0  0  0  0  0  0  0  0
   45.6220   30.3740   46.4890 C   0  0  0  0  0  0  0  0  0  0  0  0
   46.3220   31.5060   46.8060 C   0  0  0  0  0  0  0  0  0  0  0  0
   46.2930   31.8260   48.1600 C   0  0  0  0  0  0  0  0  0  0  0  0
   45.6330   31.0940   49.1130 C   0  0  0  0  0  0  0  0  0  0  0  0
   44.9570   29.9770   48.7150 C   0  0  0  0  0  0  0  0  0  0  0  0
   44.9320   29.5860   47.3930 C   0  0  0  0  0  0  0  0  0  0  0  0
   46.8210   32.7130   48.5230 H   0  0  0  0  0  0  0  0  0  0  0  0
   45.6340   31.3770   50.1580 H   0  0  0  0  0  0  0  0  0  0  0  0
   44.4180   29.3520   49.3980 H   0  0  0  0  0  0  0  0  0  0  0  0
   44.6170   27.2470   47.6010 C   0  0  0  0  0  0  0  0  0  0  0  0
   44.2120   28.3840   46.9300 C   0  0  0  0  0  0  0  0  0  0  0  0
   43.2390   28.3000   45.9560 C   0  0  0  0  0  0  0  0  0  0  0  0
   43.0000   29.2440   45.4980 H   0  0  0  0  0  0  0  0  0  0  0  0
   42.6960   27.0620   45.6810 C   0  0  0  0  0  3  0  0  0  0  0  0
   43.0970   25.9240   46.3480 C   0  0  0  0  0  3  0  0  0  0  0  0
   44.0840   26.0210   47.3340 C   0  0  0  0  0  0  0  0  0  0  0  0
   45.5970   27.2160   48.6070 O   0  0  0  0  0  0  0  0  0  0  0  0
   46.2450   27.9920   48.7270 H   0  0  0  0  0  0  0  0  0  0  0  0
   44.4070   24.8120   47.9360 O   0  0  0  0  0  0  0  0  0  0  0  0
   45.2310   24.3300   47.5480 H   0  0  0  0  0  0  0  0  0  0  0  0
   47.0660   32.3720   45.8850 C   0  0  0  0  0  0  0  0  0  0  0  0
   47.9510   32.7820   46.4120 H   0  0  0  0  0  0  0  0  0  0  0  0
   47.4580   31.7400   45.0510 H   0  0  0  0  0  0  0  0  0  0  0  0
   44.6240   35.1600   45.5140 C   0  0  0  0  0  0  0  0  0  0  0  0
   44.8580   35.5670   44.1940 C   0  0  0  0  0  0  0  0  0  0  0  0
   45.8310   34.8890   43.4680 C   0  0  0  0  0  0  0  0  0  0  0  0
   46.5160   33.8680   44.0520 N   0  0  0  0  0  0  0  0  0  0  0  0
   46.2620   33.4970   45.3470 C   0  0  0  0  0  0  0  0  0  0  0  0
   45.3190   34.1550   46.0460 N   0  0  0  0  0  0  0  0  0  0  0  0
   43.8580   35.7170   46.0400 H   0  0  0  0  0  0  0  0  0  0  0  0
   44.3170   36.3800   43.7180 H   0  0  0  0  0  0  0  0  0  0  0  0
   46.0860   35.1260   42.4430 H   0  0  0  0  0  0  0  0  0  0  0  0
  1  2  1  0  0  0  0
  2  3  2  0  0  0  0
  2  7  1  0  0  0  0
  3  4  1  0  0  0  0
  4  8  1  0  0  0  0
  4  5  2  0  0  0  0
  5  9  1  0  0  0  0
  6  5  1  0  0  0  0
  6 10  1  0  0  0  0
  7  6  2  0  0  0  0
 11 18  1  0  0  0  0
 12  7  1  0  0  0  0
 12 11  2  0  0  0  0
 13 12  1  0  0  0  0
 14 13  1  0  0  0  0
 15 13  2  0  0  0  0
 15 16  1  0  0  0  0
 16 17  2  0  0  0  0
 17 11  1  0  0  0  0
 17 20  1  0  0  0  0
 18 19  1  0  0  0  0
 21 20  1  0  0  0  0
 22 23  1  0  0  0  0
 22  3  1  0  0  0  0
 24 22  1  0  0  0  0
 25 31  1  0  0  0  0
 25 30  1  0  0  0  0
 26 25  2  0  0  0  0
 27 28  2  0  0  0  0
 27 26  1  0  0  0  0
 28 29  1  0  0  0  0
 29 22  1  0  0  0  0
 29 30  2  0  0  0  0
 32 26  1  0  0  0  0
 33 27  1  0  0  0  0
M  END
>  <minimizedAffinity>
-5.76778173

>  <minimizedRMSD>
0.970677614

$$$$
