
 OpenBabel03252507133D

 44 46  0  0  1  0  0  0  0  0999 V2000
   46.5990   34.6900   42.0490 C   0  0  2  0  0  0  0  0  0  0  0  0
   45.9650   35.7260   42.8990 C   0  0  0  0  0  0  0  0  0  0  0  0
   44.5180   35.8720   42.5200 C   0  0  0  0  0  0  0  0  0  0  0  0
   43.7630   34.7550   42.8630 O   0  0  0  0  0  0  0  0  0  0  0  0
   44.5340   33.6140   42.8550 C   0  0  0  0  0  0  0  0  0  0  0  0
   45.5530   33.6420   41.7380 C   0  0  1  0  0  0  0  0  0  0  0  0
   46.9030   35.2030   41.0940 H   0  0  0  0  0  0  0  0  0  0  0  0
   46.0170   35.5110   43.9880 H   0  0  0  0  0  0  0  0  0  0  0  0
   46.4460   36.7380   42.7860 H   0  0  0  0  0  0  0  0  0  0  0  0
   44.3350   36.2780   41.5290 H   0  0  0  0  0  0  0  0  0  0  0  0
   44.1470   36.7140   43.2130 H   0  0  0  0  0  0  0  0  0  0  0  0
   43.8660   32.7430   42.8000 H   0  0  0  0  0  0  0  0  0  0  0  0
   45.0900   33.5480   43.8200 H   0  0  0  0  0  0  0  0  0  0  0  0
   46.1230   32.6660   41.9000 H   0  0  0  0  0  0  0  0  0  0  0  0
   45.8010   32.9240   39.4650 C   0  0  0  0  0  0  0  0  0  0  0  0
   44.9870   33.5450   40.4360 C   0  0  0  0  0  0  0  0  0  0  0  0
   43.7890   33.9560   39.8920 C   0  0  0  0  0  0  0  0  0  0  0  0
   43.1320   34.4430   40.5650 H   0  0  0  0  0  0  0  0  0  0  0  0
   43.3700   33.8160   38.5900 C   0  0  0  0  0  3  0  0  0  0  0  0
   44.2280   33.1980   37.7070 C   0  0  0  0  0  3  0  0  0  0  0  0
   45.4310   32.7640   38.1650 C   0  0  0  0  0  0  0  0  0  0  0  0
   47.0780   32.4230   39.7920 O   0  0  0  0  0  0  0  0  0  0  0  0
   47.8510   32.4730   39.1720 H   0  0  0  0  0  0  0  0  0  0  0  0
   46.2520   32.1500   37.2290 O   0  0  0  0  0  0  0  0  0  0  0  0
   46.3300   31.1670   37.0860 H   0  0  0  0  0  0  0  0  0  0  0  0
   47.7320   34.1410   42.5180 O   0  0  0  0  0  0  0  0  0  0  0  0
   50.2770   34.7870   42.5330 O   0  0  0  0  0  0  0  0  0  0  0  0
   49.1380   34.3750   41.6850 P   0  0  2  0  0  0  0  0  0  0  0  0
   48.8820   35.6190   40.5490 O   0  0  0  0  0  0  0  0  0  0  0  0
   49.2610   35.4010   39.6620 H   0  0  0  0  0  0  0  0  0  0  0  0
   49.5410   32.9580   40.7880 O   0  0  0  0  0  0  0  0  0  0  0  0
   49.9390   31.2920   42.4070 C   0  0  0  0  0  0  0  0  0  0  0  0
   50.3740   31.9880   41.3040 C   0  0  0  0  0  0  0  0  0  0  0  0
   51.6450   31.6830   40.7530 C   0  0  0  0  0  0  0  0  0  0  0  0
   52.3590   30.7040   41.3620 N   0  0  0  0  0  0  0  0  0  0  0  0
   51.9060   30.0520   42.4280 C   0  0  0  0  0  0  0  0  0  0  0  0
   50.6880   30.3590   42.9400 N   0  0  0  0  0  0  0  0  0  0  0  0
   47.5450   30.7120   42.7680 C   0  0  0  0  0  0  0  0  0  0  0  0
   47.3660   30.3360   41.5600 O   0  0  0  0  0  0  0  0  0  0  0  0
   48.8250   31.2200   43.2830 N   0  0  0  0  0  0  0  0  0  0  0  0
   51.9660   32.2490   39.8790 H   0  0  0  0  0  0  0  0  0  0  0  0
   52.4710   29.2660   42.9220 H   0  0  0  0  0  0  0  0  0  0  0  0
   46.6730   30.6370   43.4260 H   0  0  0  0  0  0  0  0  0  0  0  0
   48.7840   31.4920   44.2830 H   0  0  0  0  0  0  0  0  0  0  0  0
  1  7  1  6  0  0  0
  1 26  1  0  0  0  0
  1  2  1  0  0  0  0
  2  8  1  0  0  0  0
  3  4  1  0  0  0  0
  3  2  1  0  0  0  0
  3 11  1  0  0  0  0
  5  4  1  0  0  0  0
  5 13  1  0  0  0  0
  6 14  1  1  0  0  0
  6  1  1  0  0  0  0
  6  5  1  0  0  0  0
  9  2  1  0  0  0  0
 10  3  1  0  0  0  0
 12  5  1  0  0  0  0
 15 22  1  0  0  0  0
 15 16  1  0  0  0  0
 16  6  1  0  0  0  0
 17 16  2  0  0  0  0
 17 18  1  0  0  0  0
 19 17  1  0  0  0  0
 20 21  1  0  0  0  0
 20 19  2  0  0  0  0
 21 15  2  0  0  0  0
 23 22  1  0  0  0  0
 24 21  1  0  0  0  0
 25 24  1  0  0  0  0
 28 26  1  0  0  0  0
 28 27  2  1  0  0  0
 29 28  1  0  0  0  0
 30 29  1  0  0  0  0
 31 33  1  0  0  0  0
 31 28  1  0  0  0  0
 32 37  1  0  0  0  0
 32 40  1  0  0  0  0
 33 32  2  0  0  0  0
 34 33  1  0  0  0  0
 34 35  2  0  0  0  0
 35 36  1  0  0  0  0
 36 42  1  0  0  0  0
 36 37  2  0  0  0  0
 38 40  1  0  0  0  0
 38 43  1  0  0  0  0
 39 38  2  0  0  0  0
 40 44  1  0  0  0  0
 41 34  1  0  0  0  0
M  END
>  <minimizedAffinity>
-4.75506926

>  <minimizedRMSD>
1.42708838

$$$$
