
 OpenBabel03252504543D

 23 24  0  0  0  0  0  0  0  0999 V2000
   46.7720   34.0470   40.8050 C   0  0  0  0  0  0  0  0  0  0  0  0
   46.2920   35.0290   41.0030 H   0  0  0  0  0  0  0  0  0  0  0  0
   46.0660   33.3000   41.2480 H   0  0  0  0  0  0  0  0  0  0  0  0
   49.9110   35.1240   42.4680 C   0  0  0  0  0  0  0  0  0  0  0  0
   48.6190   35.1680   41.9060 C   0  0  0  0  0  0  0  0  0  0  0  0
   48.1140   33.9820   41.3850 C   0  0  0  0  0  0  0  0  0  0  0  0
   48.8680   32.8560   41.4400 N   0  0  0  0  0  0  0  0  0  0  0  0
   50.1070   32.8590   41.9910 C   0  0  0  0  0  0  0  0  0  0  0  0
   50.6130   33.9930   42.4980 N   0  0  0  0  0  0  0  0  0  0  0  0
   50.2800   36.0720   42.8700 H   0  0  0  0  0  0  0  0  0  0  0  0
   48.0370   36.1000   41.8800 H   0  0  0  0  0  0  0  0  0  0  0  0
   50.7190   31.9680   42.0400 H   0  0  0  0  0  0  0  0  0  0  0  0
   45.8150   33.2400   38.6750 C   0  0  0  0  0  0  0  0  0  0  0  0
   46.9020   33.8080   39.3350 C   0  0  0  0  0  0  0  0  0  0  0  0
   48.0500   34.1300   38.6400 C   0  0  0  0  0  0  0  0  0  0  0  0
   48.8500   34.5660   39.2240 H   0  0  0  0  0  0  0  0  0  0  0  0
   48.1350   33.8940   37.2790 C   0  0  0  0  0  3  0  0  0  0  0  0
   47.0460   33.3260   36.6180 C   0  0  0  0  0  3  0  0  0  0  0  0
   45.8900   33.0010   37.3180 C   0  0  0  0  0  0  0  0  0  0  0  0
   44.6130   32.8830   39.3040 O   0  0  0  0  0  0  0  0  0  0  0  0
   44.6070   33.0370   40.3070 H   0  0  0  0  0  0  0  0  0  0  0  0
   44.8930   32.4470   36.5400 O   0  0  0  0  0  0  0  0  0  0  0  0
   44.5680   31.5060   36.7400 H   0  0  0  0  0  0  0  0  0  0  0  0
  1  2  1  0  0  0  0
  1  3  1  0  0  0  0
  1  6  1  0  0  0  0
  4  9  1  0  0  0  0
  4 10  1  0  0  0  0
  5  4  2  0  0  0  0
  6  7  2  0  0  0  0
  6  5  1  0  0  0  0
  7  8  1  0  0  0  0
  8 12  1  0  0  0  0
  8  9  2  0  0  0  0
 11  5  1  0  0  0  0
 13 20  1  0  0  0  0
 13 14  1  0  0  0  0
 14  1  1  0  0  0  0
 15 16  1  0  0  0  0
 15 14  2  0  0  0  0
 17 15  1  0  0  0  0
 18 17  2  0  0  0  0
 18 19  1  0  0  0  0
 19 13  2  0  0  0  0
 20 21  1  0  0  0  0
 22 23  1  0  0  0  0
 22 19  1  0  0  0  0
M  END
>  <minimizedAffinity>
-3.88363481

>  <minimizedRMSD>
5.53485394

$$$$
