
 OpenBabel03252505203D

 36 39  0  0  0  0  0  0  0  0999 V2000
   38.2550   30.6810   41.0770 C   0  0  0  0  0  0  0  0  0  0  0  0
   37.0190   31.1780   40.6830 C   0  0  0  0  0  0  0  0  0  0  0  0
   36.9780   32.3160   39.9030 C   0  0  0  0  0  0  0  0  0  0  0  0
   38.1800   32.9010   39.5550 C   0  0  0  0  0  0  0  0  0  0  0  0
   39.3860   32.3640   39.9750 C   0  0  0  0  0  0  0  0  0  0  0  0
   39.4200   31.2400   40.7440 N   0  0  0  0  0  0  0  0  0  0  0  0
   36.1240   30.6600   40.9980 H   0  0  0  0  0  0  0  0  0  0  0  0
   36.0160   32.7030   39.5970 H   0  0  0  0  0  0  0  0  0  0  0  0
   38.1130   33.7760   38.9530 H   0  0  0  0  0  0  0  0  0  0  0  0
   37.3690   28.1770   43.6490 C   0  0  0  0  0  0  0  0  0  0  0  0
   38.3810   27.2080   43.5160 C   0  0  0  0  0  0  0  0  0  0  0  0
   39.3270   27.4470   42.5400 C   0  0  0  0  0  0  0  0  0  0  0  0
   39.2680   28.5740   41.7500 N   0  0  0  0  0  0  0  0  0  0  0  0
   38.2660   29.4860   41.9180 C   0  0  0  0  0  0  0  0  0  0  0  0
   37.3310   29.2680   42.8700 N   0  0  0  0  0  0  0  0  0  0  0  0
   36.6030   28.0340   44.4020 H   0  0  0  0  0  0  0  0  0  0  0  0
   38.4350   26.3300   44.1250 H   0  0  0  0  0  0  0  0  0  0  0  0
   40.4670   26.4990   42.3360 C   0  0  0  0  0  0  0  0  0  0  0  0
   41.0610   25.9760   43.6440 C   0  0  0  0  0  0  0  0  0  0  0  0
   40.2820   25.1000   42.6050 C   0  0  0  0  0  0  0  0  0  0  0  0
   41.2070   26.9090   41.6060 H   0  0  0  0  0  0  0  0  0  0  0  0
   42.1450   25.8830   43.6310 H   0  0  0  0  0  0  0  0  0  0  0  0
   40.5410   26.1440   44.5890 H   0  0  0  0  0  0  0  0  0  0  0  0
   39.3070   24.7070   42.9270 H   0  0  0  0  0  0  0  0  0  0  0  0
   40.9450   24.3870   42.0530 H   0  0  0  0  0  0  0  0  0  0  0  0
   41.0090   33.1660   38.2920 C   0  0  0  0  0  0  0  0  0  0  0  0
   40.6560   32.9750   39.6110 C   0  0  0  0  0  0  0  0  0  0  0  0
   41.6010   33.4090   40.5130 C   0  0  0  0  0  0  0  0  0  0  0  0
   41.4100   33.2990   41.5690 H   0  0  0  0  0  0  0  0  0  0  0  0
   42.8000   33.9860   40.1470 C   0  0  0  0  0  3  0  0  0  0  0  0
   43.0940   34.1500   38.8060 C   0  0  0  0  0  3  0  0  0  0  0  0
   42.1930   33.7370   37.8770 C   0  0  0  0  0  0  0  0  0  0  0  0
   40.1390   32.7690   37.2870 O   0  0  0  0  0  0  0  0  0  0  0  0
   40.2230   31.8440   36.8820 H   0  0  0  0  0  0  0  0  0  0  0  0
   42.4780   33.8960   36.5170 O   0  0  0  0  0  0  0  0  0  0  0  0
   43.3610   33.5890   36.1400 H   0  0  0  0  0  0  0  0  0  0  0  0
  1 14  1  0  0  0  0
  2  7  1  0  0  0  0
  2  1  2  0  0  0  0
  3  2  1  0  0  0  0
  4  3  2  0  0  0  0
  4  5  1  0  0  0  0
  5  6  2  0  0  0  0
  6  1  1  0  0  0  0
  8  3  1  0  0  0  0
  9  4  1  0  0  0  0
 10 16  1  0  0  0  0
 11 10  1  0  0  0  0
 11 17  1  0  0  0  0
 12 11  2  0  0  0  0
 13 14  2  0  0  0  0
 13 12  1  0  0  0  0
 14 15  1  0  0  0  0
 15 10  2  0  0  0  0
 18 12  1  0  0  0  0
 18 20  1  0  0  0  0
 18 19  1  0  0  0  0
 19 23  1  0  0  0  0
 20 24  1  0  0  0  0
 20 19  1  0  0  0  0
 21 18  1  0  0  0  0
 22 19  1  0  0  0  0
 25 20  1  0  0  0  0
 26 27  1  0  0  0  0
 27  5  1  0  0  0  0
 27 28  2  0  0  0  0
 28 29  1  0  0  0  0
 30 28  1  0  0  0  0
 31 30  2  0  0  0  0
 32 26  2  0  0  0  0
 32 31  1  0  0  0  0
 33 26  1  0  0  0  0
 34 33  1  0  0  0  0
 35 32  1  0  0  0  0
 36 35  1  0  0  0  0
M  END
>  <minimizedAffinity>
-6.63496304

$$$$

 OpenBabel03252505203D

 36 39  0  0  0  0  0  0  0  0999 V2000
   37.9800   30.7130   39.7850 C   0  0  0  0  0  0  0  0  0  0  0  0
   36.8370   31.4970   39.8940 C   0  0  0  0  0  0  0  0  0  0  0  0
   36.9660   32.8700   39.8500 C   0  0  0  0  0  0  0  0  0  0  0  0
   38.2360   33.3930   39.6980 C   0  0  0  0  0  0  0  0  0  0  0  0
   39.3430   32.5660   39.5940 C   0  0  0  0  0  0  0  0  0  0  0  0
   39.2100   31.2110   39.6380 N   0  0  0  0  0  0  0  0  0  0  0  0
   35.8810   31.0090   40.0100 H   0  0  0  0  0  0  0  0  0  0  0  0
   36.0770   33.4790   39.9350 H   0  0  0  0  0  0  0  0  0  0  0  0
   38.3000   34.4550   39.6670 H   0  0  0  0  0  0  0  0  0  0  0  0
   37.5980   27.1630   38.8260 C   0  0  0  0  0  0  0  0  0  0  0  0
   37.4470   26.5110   40.0630 C   0  0  0  0  0  0  0  0  0  0  0  0
   37.4910   27.3150   41.1850 C   0  0  0  0  0  0  0  0  0  0  0  0
   37.6740   28.6770   41.0790 N   0  0  0  0  0  0  0  0  0  0  0  0
   37.8150   29.2640   39.8550 C   0  0  0  0  0  0  0  0  0  0  0  0
   37.7740   28.4910   38.7460 N   0  0  0  0  0  0  0  0  0  0  0  0
   37.5710   26.5750   37.9170 H   0  0  0  0  0  0  0  0  0  0  0  0
   37.3050   25.4550   40.1560 H   0  0  0  0  0  0  0  0  0  0  0  0
   37.3060   26.7300   42.5490 C   0  0  0  0  0  0  0  0  0  0  0  0
   38.1660   27.4030   43.6190 C   0  0  0  0  0  0  0  0  0  0  0  0
   36.6040   27.4810   43.5530 C   0  0  0  0  0  0  0  0  0  0  0  0
   37.3650   25.6150   42.5220 H   0  0  0  0  0  0  0  0  0  0  0  0
   38.5810   26.7140   44.3510 H   0  0  0  0  0  0  0  0  0  0  0  0
   38.6850   28.3370   43.3980 H   0  0  0  0  0  0  0  0  0  0  0  0
   36.1700   28.4660   43.3260 H   0  0  0  0  0  0  0  0  0  0  0  0
   36.1040   26.8960   44.3650 H   0  0  0  0  0  0  0  0  0  0  0  0
   41.2220   33.3350   38.1840 C   0  0  0  0  0  0  0  0  0  0  0  0
   40.6840   33.1100   39.4330 C   0  0  0  0  0  0  0  0  0  0  0  0
   41.5210   33.4450   40.4730 C   0  0  0  0  0  0  0  0  0  0  0  0
   41.1820   33.3030   41.4870 H   0  0  0  0  0  0  0  0  0  0  0  0
   42.7890   33.9600   40.2980 C   0  0  0  0  0  3  0  0  0  0  0  0
   43.2710   34.1610   39.0180 C   0  0  0  0  0  3  0  0  0  0  0  0
   42.4820   33.8460   37.9590 C   0  0  0  0  0  0  0  0  0  0  0  0
   40.4750   33.0360   37.0530 O   0  0  0  0  0  0  0  0  0  0  0  0
   40.5600   32.1260   36.6170 H   0  0  0  0  0  0  0  0  0  0  0  0
   42.9570   34.0440   36.6580 O   0  0  0  0  0  0  0  0  0  0  0  0
   43.8650   33.6980   36.3860 H   0  0  0  0  0  0  0  0  0  0  0  0
  1 14  1  0  0  0  0
  1  2  1  0  0  0  0
  2  7  1  0  0  0  0
  3  2  2  0  0  0  0
  3  8  1  0  0  0  0
  4  3  1  0  0  0  0
  5  6  1  0  0  0  0
  5  4  2  0  0  0  0
  6  1  2  0  0  0  0
  9  4  1  0  0  0  0
 10 11  1  0  0  0  0
 11 17  1  0  0  0  0
 11 12  2  0  0  0  0
 12 18  1  0  0  0  0
 13 12  1  0  0  0  0
 14 13  2  0  0  0  0
 15 10  2  0  0  0  0
 15 14  1  0  0  0  0
 16 10  1  0  0  0  0
 18 20  1  0  0  0  0
 18 19  1  0  0  0  0
 19 22  1  0  0  0  0
 20 19  1  0  0  0  0
 20 25  1  0  0  0  0
 21 18  1  0  0  0  0
 23 19  1  0  0  0  0
 24 20  1  0  0  0  0
 26 27  1  0  0  0  0
 27  5  1  0  0  0  0
 27 28  2  0  0  0  0
 28 29  1  0  0  0  0
 30 28  1  0  0  0  0
 31 30  2  0  0  0  0
 32 26  2  0  0  0  0
 32 31  1  0  0  0  0
 33 26  1  0  0  0  0
 34 33  1  0  0  0  0
 35 32  1  0  0  0  0
 36 35  1  0  0  0  0
M  END
>  <minimizedAffinity>
-6.46266937

$$$$

 OpenBabel03252505203D

 36 39  0  0  0  0  0  0  0  0999 V2000
   37.1920   27.4100   41.4050 C   0  0  0  0  0  0  0  0  0  0  0  0
   37.1510   27.0930   42.7580 C   0  0  0  0  0  0  0  0  0  0  0  0
   37.5420   28.0470   43.6760 C   0  0  0  0  0  0  0  0  0  0  0  0
   37.9550   29.2740   43.1930 C   0  0  0  0  0  0  0  0  0  0  0  0
   37.9760   29.5380   41.8330 C   0  0  0  0  0  0  0  0  0  0  0  0
   37.5890   28.5930   40.9320 N   0  0  0  0  0  0  0  0  0  0  0  0
   36.8150   26.1100   43.0540 H   0  0  0  0  0  0  0  0  0  0  0  0
   37.5100   27.8010   44.7280 H   0  0  0  0  0  0  0  0  0  0  0  0
   38.2480   29.9880   43.9270 H   0  0  0  0  0  0  0  0  0  0  0  0
   36.6640   24.1240   39.7950 C   0  0  0  0  0  0  0  0  0  0  0  0
   36.0430   24.4590   38.5780 C   0  0  0  0  0  0  0  0  0  0  0  0
   35.8200   25.8030   38.3590 C   0  0  0  0  0  0  0  0  0  0  0  0
   36.1900   26.7490   39.2900 N   0  0  0  0  0  0  0  0  0  0  0  0
   36.7920   26.3740   40.4570 C   0  0  0  0  0  0  0  0  0  0  0  0
   37.0180   25.0610   40.6880 N   0  0  0  0  0  0  0  0  0  0  0  0
   36.8600   23.0810   40.0130 H   0  0  0  0  0  0  0  0  0  0  0  0
   35.7520   23.7320   37.8490 H   0  0  0  0  0  0  0  0  0  0  0  0
   35.1970   26.2740   37.0820 C   0  0  0  0  0  0  0  0  0  0  0  0
   33.7350   25.8540   36.9300 C   0  0  0  0  0  0  0  0  0  0  0  0
   34.2240   27.3300   37.1160 C   0  0  0  0  0  0  0  0  0  0  0  0
   35.8520   26.0480   36.2060 H   0  0  0  0  0  0  0  0  0  0  0  0
   33.4620   25.5640   35.9180 H   0  0  0  0  0  0  0  0  0  0  0  0
   33.1930   25.4360   37.7800 H   0  0  0  0  0  0  0  0  0  0  0  0
   33.9520   27.8220   38.0610 H   0  0  0  0  0  0  0  0  0  0  0  0
   34.1130   27.9450   36.1880 H   0  0  0  0  0  0  0  0  0  0  0  0
   37.5090   31.7300   40.7920 C   0  0  0  0  0  0  0  0  0  0  0  0
   38.4090   30.8290   41.3180 C   0  0  0  0  0  0  0  0  0  0  0  0
   39.7140   31.2670   41.3030 C   0  0  0  0  0  0  0  0  0  0  0  0
   40.4880   30.6250   41.6950 H   0  0  0  0  0  0  0  0  0  0  0  0
   40.1040   32.4950   40.8100 C   0  0  0  0  0  3  0  0  0  0  0  0
   39.1510   33.3540   40.2950 C   0  0  0  0  0  3  0  0  0  0  0  0
   37.8490   32.9670   40.2870 C   0  0  0  0  0  0  0  0  0  0  0  0
   36.1610   31.4050   40.7490 O   0  0  0  0  0  0  0  0  0  0  0  0
   35.7720   30.9650   39.9240 H   0  0  0  0  0  0  0  0  0  0  0  0
   36.8740   33.8270   39.7690 O   0  0  0  0  0  0  0  0  0  0  0  0
   36.9970   34.2540   38.8640 H   0  0  0  0  0  0  0  0  0  0  0  0
  1  2  1  0  0  0  0
  2  7  1  0  0  0  0
  2  3  2  0  0  0  0
  3  8  1  0  0  0  0
  4  3  1  0  0  0  0
  4  9  1  0  0  0  0
  5  4  2  0  0  0  0
  6  1  2  0  0  0  0
  6  5  1  0  0  0  0
 10 16  1  0  0  0  0
 10 15  1  0  0  0  0
 11 10  2  0  0  0  0
 12 11  1  0  0  0  0
 12 13  2  0  0  0  0
 13 14  1  0  0  0  0
 14 15  2  0  0  0  0
 14  1  1  0  0  0  0
 17 11  1  0  0  0  0
 18 20  1  0  0  0  0
 18 12  1  0  0  0  0
 19 18  1  0  0  0  0
 19 20  1  0  0  0  0
 19 23  1  0  0  0  0
 20 24  1  0  0  0  0
 21 18  1  0  0  0  0
 22 19  1  0  0  0  0
 25 20  1  0  0  0  0
 26 27  1  0  0  0  0
 27  5  1  0  0  0  0
 28 27  2  0  0  0  0
 28 29  1  0  0  0  0
 30 28  1  0  0  0  0
 31 30  2  0  0  0  0
 32 31  1  0  0  0  0
 32 26  2  0  0  0  0
 33 26  1  0  0  0  0
 34 33  1  0  0  0  0
 35 32  1  0  0  0  0
 36 35  1  0  0  0  0
M  END
>  <minimizedAffinity>
-6.27192068

$$$$

 OpenBabel03252505203D

 36 39  0  0  0  0  0  0  0  0999 V2000
   37.0720   27.3280   41.2700 C   0  0  0  0  0  0  0  0  0  0  0  0
   36.9660   26.9740   42.6100 C   0  0  0  0  0  0  0  0  0  0  0  0
   37.3010   27.9060   43.5720 C   0  0  0  0  0  0  0  0  0  0  0  0
   37.7270   29.1480   43.1440 C   0  0  0  0  0  0  0  0  0  0  0  0
   37.8140   29.4500   41.7950 C   0  0  0  0  0  0  0  0  0  0  0  0
   37.4820   28.5270   40.8490 N   0  0  0  0  0  0  0  0  0  0  0  0
   36.6250   25.9810   42.8610 H   0  0  0  0  0  0  0  0  0  0  0  0
   37.2190   27.6300   44.6140 H   0  0  0  0  0  0  0  0  0  0  0  0
   37.9760   29.8440   43.9110 H   0  0  0  0  0  0  0  0  0  0  0  0
   35.7980   25.6870   38.2130 C   0  0  0  0  0  0  0  0  0  0  0  0
   36.0610   24.3250   38.4460 C   0  0  0  0  0  0  0  0  0  0  0  0
   36.6750   24.0200   39.6440 C   0  0  0  0  0  0  0  0  0  0  0  0
   37.0060   25.0070   40.5470 N   0  0  0  0  0  0  0  0  0  0  0  0
   36.7290   26.3160   40.2750 C   0  0  0  0  0  0  0  0  0  0  0  0
   36.1270   26.6320   39.1060 N   0  0  0  0  0  0  0  0  0  0  0  0
   35.3170   25.9760   37.2860 H   0  0  0  0  0  0  0  0  0  0  0  0
   35.8080   23.5510   37.7510 H   0  0  0  0  0  0  0  0  0  0  0  0
   36.9690   22.5990   40.0100 C   0  0  0  0  0  0  0  0  0  0  0  0
   37.5630   21.7870   38.8590 C   0  0  0  0  0  0  0  0  0  0  0  0
   38.3330   22.1750   40.1660 C   0  0  0  0  0  0  0  0  0  0  0  0
   36.0990   22.1270   40.5280 H   0  0  0  0  0  0  0  0  0  0  0  0
   37.1970   20.7640   38.8040 H   0  0  0  0  0  0  0  0  0  0  0  0
   37.9070   22.2900   37.9530 H   0  0  0  0  0  0  0  0  0  0  0  0
   39.1650   22.8850   40.0530 H   0  0  0  0  0  0  0  0  0  0  0  0
   38.5170   21.3010   40.8380 H   0  0  0  0  0  0  0  0  0  0  0  0
   37.3800   31.6650   40.7870 C   0  0  0  0  0  0  0  0  0  0  0  0
   38.2610   30.7580   41.3370 C   0  0  0  0  0  0  0  0  0  0  0  0
   39.5600   31.2080   41.4040 C   0  0  0  0  0  0  0  0  0  0  0  0
   40.3190   30.5630   41.8200 H   0  0  0  0  0  0  0  0  0  0  0  0
   39.9630   32.4520   40.9640 C   0  0  0  0  0  3  0  0  0  0  0  0
   39.0300   33.3160   40.4210 C   0  0  0  0  0  3  0  0  0  0  0  0
   37.7340   32.9180   40.3350 C   0  0  0  0  0  0  0  0  0  0  0  0
   36.0400   31.3290   40.6640 O   0  0  0  0  0  0  0  0  0  0  0  0
   35.7010   30.9080   39.8080 H   0  0  0  0  0  0  0  0  0  0  0  0
   36.7790   33.7820   39.7870 O   0  0  0  0  0  0  0  0  0  0  0  0
   36.9470   34.2350   38.9020 H   0  0  0  0  0  0  0  0  0  0  0  0
  1  2  1  0  0  0  0
  2  7  1  0  0  0  0
  2  3  2  0  0  0  0
  3  8  1  0  0  0  0
  4  3  1  0  0  0  0
  4  9  1  0  0  0  0
  5  4  2  0  0  0  0
  6  1  2  0  0  0  0
  6  5  1  0  0  0  0
 10 11  2  0  0  0  0
 10 15  1  0  0  0  0
 11 12  1  0  0  0  0
 12 18  1  0  0  0  0
 12 13  2  0  0  0  0
 14 13  1  0  0  0  0
 14  1  1  0  0  0  0
 15 14  2  0  0  0  0
 16 10  1  0  0  0  0
 17 11  1  0  0  0  0
 18 20  1  0  0  0  0
 18 21  1  0  0  0  0
 19 18  1  0  0  0  0
 19 20  1  0  0  0  0
 20 25  1  0  0  0  0
 22 19  1  0  0  0  0
 23 19  1  0  0  0  0
 24 20  1  0  0  0  0
 26 27  1  0  0  0  0
 27 28  2  0  0  0  0
 27  5  1  0  0  0  0
 28 29  1  0  0  0  0
 30 28  1  0  0  0  0
 31 30  2  0  0  0  0
 32 31  1  0  0  0  0
 32 26  2  0  0  0  0
 33 26  1  0  0  0  0
 34 33  1  0  0  0  0
 35 32  1  0  0  0  0
 36 35  1  0  0  0  0
M  END
>  <minimizedAffinity>
-6.26585674

$$$$

 OpenBabel03252505203D

 36 39  0  0  0  0  0  0  0  0999 V2000
   37.6340   29.1140   40.9460 C   0  0  0  0  0  0  0  0  0  0  0  0
   37.6340   30.4060   41.4570 C   0  0  0  0  0  0  0  0  0  0  0  0
   37.0840   31.4200   40.7000 C   0  0  0  0  0  0  0  0  0  0  0  0
   36.5600   31.0900   39.4650 C   0  0  0  0  0  0  0  0  0  0  0  0
   36.5850   29.7840   39.0030 C   0  0  0  0  0  0  0  0  0  0  0  0
   37.1290   28.7870   39.7550 N   0  0  0  0  0  0  0  0  0  0  0  0
   38.0640   30.5810   42.4320 H   0  0  0  0  0  0  0  0  0  0  0  0
   37.0840   32.4260   41.0970 H   0  0  0  0  0  0  0  0  0  0  0  0
   36.1420   31.8950   38.9070 H   0  0  0  0  0  0  0  0  0  0  0  0
   39.8450   27.3270   43.3090 C   0  0  0  0  0  0  0  0  0  0  0  0
   39.3760   26.0020   43.2500 C   0  0  0  0  0  0  0  0  0  0  0  0
   38.3080   25.7720   42.4050 C   0  0  0  0  0  0  0  0  0  0  0  0
   37.7480   26.7950   41.6700 N   0  0  0  0  0  0  0  0  0  0  0  0
   38.2400   28.0650   41.7610 C   0  0  0  0  0  0  0  0  0  0  0  0
   39.2860   28.3070   42.5840 N   0  0  0  0  0  0  0  0  0  0  0  0
   40.6810   27.5570   43.9590 H   0  0  0  0  0  0  0  0  0  0  0  0
   39.8040   25.2020   43.8160 H   0  0  0  0  0  0  0  0  0  0  0  0
   37.7520   24.3940   42.2380 C   0  0  0  0  0  0  0  0  0  0  0  0
   36.6570   24.3070   41.1740 C   0  0  0  0  0  0  0  0  0  0  0  0
   38.0690   23.6390   41.0570 C   0  0  0  0  0  0  0  0  0  0  0  0
   37.4940   23.9400   43.2260 H   0  0  0  0  0  0  0  0  0  0  0  0
   35.8350   23.6450   41.4380 H   0  0  0  0  0  0  0  0  0  0  0  0
   36.4840   25.1440   40.4950 H   0  0  0  0  0  0  0  0  0  0  0  0
   38.7420   24.0450   40.2880 H   0  0  0  0  0  0  0  0  0  0  0  0
   38.0320   22.5250   41.1440 H   0  0  0  0  0  0  0  0  0  0  0  0
   36.8330   29.3430   36.5830 C   0  0  0  0  0  0  0  0  0  0  0  0
   36.0340   29.4290   37.7030 C   0  0  0  0  0  0  0  0  0  0  0  0
   34.7060   29.1520   37.4660 C   0  0  0  0  0  0  0  0  0  0  0  0
   34.0060   29.1960   38.2870 H   0  0  0  0  0  0  0  0  0  0  0  0
   34.2030   28.8180   36.2260 C   0  0  0  0  0  3  0  0  0  0  0  0
   35.0580   28.7490   35.1420 C   0  0  0  0  0  3  0  0  0  0  0  0
   36.3780   29.0130   35.3250 C   0  0  0  0  0  0  0  0  0  0  0  0
   38.1920   29.6000   36.6910 O   0  0  0  0  0  0  0  0  0  0  0  0
   38.5440   30.5350   36.5260 H   0  0  0  0  0  0  0  0  0  0  0  0
   37.2550   28.9470   34.2360 O   0  0  0  0  0  0  0  0  0  0  0  0
   37.0360   29.4230   33.3740 H   0  0  0  0  0  0  0  0  0  0  0  0
  1  2  1  0  0  0  0
  1 14  1  0  0  0  0
  2  7  1  0  0  0  0
  3  8  1  0  0  0  0
  3  2  2  0  0  0  0
  4  3  1  0  0  0  0
  5  4  2  0  0  0  0
  5  6  1  0  0  0  0
  6  1  2  0  0  0  0
  9  4  1  0  0  0  0
 10 16  1  0  0  0  0
 11 10  1  0  0  0  0
 11 17  1  0  0  0  0
 12 11  2  0  0  0  0
 13 14  2  0  0  0  0
 13 12  1  0  0  0  0
 14 15  1  0  0  0  0
 15 10  2  0  0  0  0
 18 12  1  0  0  0  0
 18 21  1  0  0  0  0
 19 22  1  0  0  0  0
 19 18  1  0  0  0  0
 20 25  1  0  0  0  0
 20 19  1  0  0  0  0
 20 18  1  0  0  0  0
 23 19  1  0  0  0  0
 24 20  1  0  0  0  0
 26 33  1  0  0  0  0
 26 27  1  0  0  0  0
 27  5  1  0  0  0  0
 28 27  2  0  0  0  0
 28 29  1  0  0  0  0
 30 28  1  0  0  0  0
 31 32  1  0  0  0  0
 31 30  2  0  0  0  0
 32 26  2  0  0  0  0
 34 33  1  0  0  0  0
 35 32  1  0  0  0  0
 36 35  1  0  0  0  0
M  END
>  <minimizedAffinity>
-6.16382027

$$$$

 OpenBabel03252505203D

 36 39  0  0  0  0  0  0  0  0999 V2000
   37.9870   29.0590   41.5100 C   0  0  0  0  0  0  0  0  0  0  0  0
   36.6060   29.1680   41.3940 C   0  0  0  0  0  0  0  0  0  0  0  0
   36.0760   30.2850   40.7820 C   0  0  0  0  0  0  0  0  0  0  0  0
   36.9570   31.2420   40.3150 C   0  0  0  0  0  0  0  0  0  0  0  0
   38.3260   31.0840   40.4570 C   0  0  0  0  0  0  0  0  0  0  0  0
   38.8440   29.9790   41.0610 N   0  0  0  0  0  0  0  0  0  0  0  0
   35.9860   28.3740   41.7850 H   0  0  0  0  0  0  0  0  0  0  0  0
   35.0020   30.3700   40.6910 H   0  0  0  0  0  0  0  0  0  0  0  0
   36.5160   32.0910   39.8470 H   0  0  0  0  0  0  0  0  0  0  0  0
   40.0620   26.8350   43.6110 C   0  0  0  0  0  0  0  0  0  0  0  0
   39.5050   25.5640   43.3800 C   0  0  0  0  0  0  0  0  0  0  0  0
   38.4290   25.5180   42.5170 C   0  0  0  0  0  0  0  0  0  0  0  0
   37.9420   26.6630   41.9240 N   0  0  0  0  0  0  0  0  0  0  0  0
   38.5170   27.8740   42.1790 C   0  0  0  0  0  0  0  0  0  0  0  0
   39.5720   27.9370   43.0230 N   0  0  0  0  0  0  0  0  0  0  0  0
   40.9080   26.9220   44.2820 H   0  0  0  0  0  0  0  0  0  0  0  0
   39.8760   24.6700   43.8350 H   0  0  0  0  0  0  0  0  0  0  0  0
   37.7820   24.2130   42.1730 C   0  0  0  0  0  0  0  0  0  0  0  0
   36.7080   24.3360   41.0920 C   0  0  0  0  0  0  0  0  0  0  0  0
   38.0730   23.5890   40.9120 C   0  0  0  0  0  0  0  0  0  0  0  0
   37.4720   23.6620   43.0930 H   0  0  0  0  0  0  0  0  0  0  0  0
   35.8370   23.7070   41.2620 H   0  0  0  0  0  0  0  0  0  0  0  0
   36.6080   25.2600   40.5200 H   0  0  0  0  0  0  0  0  0  0  0  0
   38.7890   24.0370   40.2080 H   0  0  0  0  0  0  0  0  0  0  0  0
   37.9570   22.4780   40.8600 H   0  0  0  0  0  0  0  0  0  0  0  0
   39.8630   31.9660   38.7330 C   0  0  0  0  0  0  0  0  0  0  0  0
   39.2600   32.0880   39.9670 C   0  0  0  0  0  0  0  0  0  0  0  0
   39.6240   33.2210   40.6590 C   0  0  0  0  0  0  0  0  0  0  0  0
   39.2010   33.3990   41.6350 H   0  0  0  0  0  0  0  0  0  0  0  0
   40.5110   34.1610   40.1760 C   0  0  0  0  0  3  0  0  0  0  0  0
   41.0830   33.9790   38.9300 C   0  0  0  0  0  3  0  0  0  0  0  0
   40.7550   32.8760   38.2080 C   0  0  0  0  0  0  0  0  0  0  0  0
   39.5780   30.8650   37.9380 O   0  0  0  0  0  0  0  0  0  0  0  0
   40.1610   30.0390   37.9920 H   0  0  0  0  0  0  0  0  0  0  0  0
   41.3260   32.6800   36.9460 O   0  0  0  0  0  0  0  0  0  0  0  0
   42.3230   32.7580   36.8170 H   0  0  0  0  0  0  0  0  0  0  0  0
  1 14  1  0  0  0  0
  2  1  1  0  0  0  0
  2  7  1  0  0  0  0
  3  2  2  0  0  0  0
  4  5  2  0  0  0  0
  4  3  1  0  0  0  0
  5  6  1  0  0  0  0
  6  1  2  0  0  0  0
  8  3  1  0  0  0  0
  9  4  1  0  0  0  0
 10 16  1  0  0  0  0
 11 10  1  0  0  0  0
 11 17  1  0  0  0  0
 12 11  2  0  0  0  0
 13 14  2  0  0  0  0
 13 12  1  0  0  0  0
 14 15  1  0  0  0  0
 15 10  2  0  0  0  0
 18 12  1  0  0  0  0
 18 21  1  0  0  0  0
 19 22  1  0  0  0  0
 19 18  1  0  0  0  0
 20 19  1  0  0  0  0
 20 18  1  0  0  0  0
 23 19  1  0  0  0  0
 24 20  1  0  0  0  0
 25 20  1  0  0  0  0
 26 27  1  0  0  0  0
 27  5  1  0  0  0  0
 27 28  2  0  0  0  0
 28 29  1  0  0  0  0
 30 28  1  0  0  0  0
 31 30  2  0  0  0  0
 32 26  2  0  0  0  0
 32 31  1  0  0  0  0
 33 34  1  0  0  0  0
 33 26  1  0  0  0  0
 35 32  1  0  0  0  0
 36 35  1  0  0  0  0
M  END
>  <minimizedAffinity>
-6.07356215

$$$$

 OpenBabel03252505203D

 36 39  0  0  0  0  0  0  0  0999 V2000
   34.9290   28.2230   38.2590 C   0  0  0  0  0  0  0  0  0  0  0  0
   34.9550   26.9700   37.6580 C   0  0  0  0  0  0  0  0  0  0  0  0
   33.9230   26.6160   36.8130 C   0  0  0  0  0  0  0  0  0  0  0  0
   32.9120   27.5360   36.6100 C   0  0  0  0  0  0  0  0  0  0  0  0
   32.9350   28.7730   37.2350 C   0  0  0  0  0  0  0  0  0  0  0  0
   33.9560   29.1170   38.0680 N   0  0  0  0  0  0  0  0  0  0  0  0
   35.7830   26.3080   37.8680 H   0  0  0  0  0  0  0  0  0  0  0  0
   33.9440   25.6420   36.3450 H   0  0  0  0  0  0  0  0  0  0  0  0
   32.1320   27.2320   35.9530 H   0  0  0  0  0  0  0  0  0  0  0  0
   37.9260   29.8270   39.7120 C   0  0  0  0  0  0  0  0  0  0  0  0
   38.1190   29.1190   40.9120 C   0  0  0  0  0  0  0  0  0  0  0  0
   37.2060   28.1200   41.1830 C   0  0  0  0  0  0  0  0  0  0  0  0
   36.1700   27.8470   40.3160 N   0  0  0  0  0  0  0  0  0  0  0  0
   36.0240   28.5620   39.1620 C   0  0  0  0  0  0  0  0  0  0  0  0
   36.9110   29.5440   38.8810 N   0  0  0  0  0  0  0  0  0  0  0  0
   38.6170   30.6210   39.4550 H   0  0  0  0  0  0  0  0  0  0  0  0
   38.9200   29.3230   41.5910 H   0  0  0  0  0  0  0  0  0  0  0  0
   37.3370   27.2810   42.4150 C   0  0  0  0  0  0  0  0  0  0  0  0
   37.6160   28.0970   43.6770 C   0  0  0  0  0  0  0  0  0  0  0  0
   36.2940   27.3040   43.4030 C   0  0  0  0  0  0  0  0  0  0  0  0
   38.0240   26.4170   42.2430 H   0  0  0  0  0  0  0  0  0  0  0  0
   38.3230   27.6290   44.3590 H   0  0  0  0  0  0  0  0  0  0  0  0
   37.5150   29.1840   43.6610 H   0  0  0  0  0  0  0  0  0  0  0  0
   35.3840   27.9030   43.2540 H   0  0  0  0  0  0  0  0  0  0  0  0
   36.1890   26.3970   44.0480 H   0  0  0  0  0  0  0  0  0  0  0  0
   31.0850   30.1850   38.0680 C   0  0  0  0  0  0  0  0  0  0  0  0
   31.8730   29.7470   37.0260 C   0  0  0  0  0  0  0  0  0  0  0  0
   31.5590   30.3110   35.8100 C   0  0  0  0  0  0  0  0  0  0  0  0
   32.1250   30.0270   34.9360 H   0  0  0  0  0  0  0  0  0  0  0  0
   30.5480   31.2340   35.6330 C   0  0  0  0  0  3  0  0  0  0  0  0
   29.7930   31.6320   36.7200 C   0  0  0  0  0  3  0  0  0  0  0  0
   30.0650   31.1030   37.9420 C   0  0  0  0  0  0  0  0  0  0  0  0
   31.3030   29.6890   39.3450 O   0  0  0  0  0  0  0  0  0  0  0  0
   30.7880   28.8790   39.6680 H   0  0  0  0  0  0  0  0  0  0  0  0
   29.3080   31.4970   39.0510 O   0  0  0  0  0  0  0  0  0  0  0  0
   28.3010   31.4910   39.0110 H   0  0  0  0  0  0  0  0  0  0  0  0
  1 14  1  0  0  0  0
  2  7  1  0  0  0  0
  2  1  2  0  0  0  0
  3  2  1  0  0  0  0
  4  3  2  0  0  0  0
  4  5  1  0  0  0  0
  5  6  2  0  0  0  0
  6  1  1  0  0  0  0
  8  3  1  0  0  0  0
  9  4  1  0  0  0  0
 10 11  1  0  0  0  0
 11 12  2  0  0  0  0
 11 17  1  0  0  0  0
 12 18  1  0  0  0  0
 13 12  1  0  0  0  0
 14 13  2  0  0  0  0
 15 14  1  0  0  0  0
 15 10  2  0  0  0  0
 16 10  1  0  0  0  0
 18 20  1  0  0  0  0
 18 19  1  0  0  0  0
 19 22  1  0  0  0  0
 20 19  1  0  0  0  0
 20 25  1  0  0  0  0
 21 18  1  0  0  0  0
 23 19  1  0  0  0  0
 24 20  1  0  0  0  0
 26 33  1  0  0  0  0
 27  5  1  0  0  0  0
 27 26  2  0  0  0  0
 28 27  1  0  0  0  0
 29 28  1  0  0  0  0
 30 28  2  0  0  0  0
 30 31  1  0  0  0  0
 31 32  2  0  0  0  0
 32 26  1  0  0  0  0
 32 35  1  0  0  0  0
 33 34  1  0  0  0  0
 36 35  1  0  0  0  0
M  END
>  <minimizedAffinity>
-6.01140451

$$$$

 OpenBabel03252505203D

 36 39  0  0  0  0  0  0  0  0999 V2000
   34.2690   28.2060   37.9610 C   0  0  0  0  0  0  0  0  0  0  0  0
   34.2370   27.0690   37.1630 C   0  0  0  0  0  0  0  0  0  0  0  0
   33.2180   26.9310   36.2430 C   0  0  0  0  0  0  0  0  0  0  0  0
   32.2780   27.9410   36.1670 C   0  0  0  0  0  0  0  0  0  0  0  0
   32.3560   29.0540   36.9880 C   0  0  0  0  0  0  0  0  0  0  0  0
   33.3650   29.1860   37.8930 N   0  0  0  0  0  0  0  0  0  0  0  0
   35.0110   26.3250   37.2840 H   0  0  0  0  0  0  0  0  0  0  0  0
   33.1930   26.0470   35.6220 H   0  0  0  0  0  0  0  0  0  0  0  0
   31.5060   27.8040   35.4470 H   0  0  0  0  0  0  0  0  0  0  0  0
   37.0040   27.3500   40.2970 C   0  0  0  0  0  0  0  0  0  0  0  0
   37.3630   28.5970   40.8410 C   0  0  0  0  0  0  0  0  0  0  0  0
   36.6580   29.6890   40.3780 C   0  0  0  0  0  0  0  0  0  0  0  0
   35.6620   29.5470   39.4360 N   0  0  0  0  0  0  0  0  0  0  0  0
   35.3490   28.3150   38.9380 C   0  0  0  0  0  0  0  0  0  0  0  0
   36.0300   27.2340   39.3810 N   0  0  0  0  0  0  0  0  0  0  0  0
   37.5300   26.4630   40.6290 H   0  0  0  0  0  0  0  0  0  0  0  0
   38.1350   28.7160   41.5720 H   0  0  0  0  0  0  0  0  0  0  0  0
   36.9340   31.0580   40.9150 C   0  0  0  0  0  0  0  0  0  0  0  0
   38.3560   31.5440   40.6330 C   0  0  0  0  0  0  0  0  0  0  0  0
   37.0620   32.1630   40.0050 C   0  0  0  0  0  0  0  0  0  0  0  0
   36.6000   31.1510   41.9760 H   0  0  0  0  0  0  0  0  0  0  0  0
   38.8040   32.1000   41.4540 H   0  0  0  0  0  0  0  0  0  0  0  0
   38.9940   30.9990   39.9350 H   0  0  0  0  0  0  0  0  0  0  0  0
   36.9280   32.0270   38.9230 H   0  0  0  0  0  0  0  0  0  0  0  0
   36.8270   33.1790   40.4080 H   0  0  0  0  0  0  0  0  0  0  0  0
   30.6150   30.4810   38.0090 C   0  0  0  0  0  0  0  0  0  0  0  0
   31.3700   30.1230   36.9130 C   0  0  0  0  0  0  0  0  0  0  0  0
   31.0980   30.8580   35.7810 C   0  0  0  0  0  0  0  0  0  0  0  0
   31.6420   30.6460   34.8730 H   0  0  0  0  0  0  0  0  0  0  0  0
   30.1590   31.8670   35.7310 C   0  0  0  0  0  3  0  0  0  0  0  0
   29.4340   32.1780   36.8660 C   0  0  0  0  0  3  0  0  0  0  0  0
   29.6660   31.4800   38.0080 C   0  0  0  0  0  0  0  0  0  0  0  0
   30.7950   29.8130   39.2110 O   0  0  0  0  0  0  0  0  0  0  0  0
   30.2220   29.0070   39.4330 H   0  0  0  0  0  0  0  0  0  0  0  0
   28.9390   31.7840   39.1650 O   0  0  0  0  0  0  0  0  0  0  0  0
   27.9340   31.8570   39.1340 H   0  0  0  0  0  0  0  0  0  0  0  0
  1 14  1  0  0  0  0
  2  7  1  0  0  0  0
  2  1  2  0  0  0  0
  3  2  1  0  0  0  0
  4  3  2  0  0  0  0
  4  5  1  0  0  0  0
  5  6  2  0  0  0  0
  6  1  1  0  0  0  0
  8  3  1  0  0  0  0
  9  4  1  0  0  0  0
 10 16  1  0  0  0  0
 10 11  1  0  0  0  0
 11 17  1  0  0  0  0
 12 11  2  0  0  0  0
 12 18  1  0  0  0  0
 13 12  1  0  0  0  0
 14 15  1  0  0  0  0
 14 13  2  0  0  0  0
 15 10  2  0  0  0  0
 18 21  1  0  0  0  0
 19 18  1  0  0  0  0
 19 22  1  0  0  0  0
 20 25  1  0  0  0  0
 20 19  1  0  0  0  0
 20 18  1  0  0  0  0
 23 19  1  0  0  0  0
 24 20  1  0  0  0  0
 26 33  1  0  0  0  0
 27  5  1  0  0  0  0
 27 26  2  0  0  0  0
 28 27  1  0  0  0  0
 29 28  1  0  0  0  0
 30 28  2  0  0  0  0
 30 31  1  0  0  0  0
 31 32  2  0  0  0  0
 32 26  1  0  0  0  0
 32 35  1  0  0  0  0
 33 34  1  0  0  0  0
 36 35  1  0  0  0  0
M  END
>  <minimizedAffinity>
-5.83556366

$$$$

 OpenBabel03252505203D

 36 39  0  0  0  0  0  0  0  0999 V2000
   37.7820   29.7250   39.9430 C   0  0  0  0  0  0  0  0  0  0  0  0
   36.6230   29.7880   39.1790 C   0  0  0  0  0  0  0  0  0  0  0  0
   36.6410   30.5070   38.0010 C   0  0  0  0  0  0  0  0  0  0  0  0
   37.8220   31.1290   37.6440 C   0  0  0  0  0  0  0  0  0  0  0  0
   38.9500   31.0340   38.4430 C   0  0  0  0  0  0  0  0  0  0  0  0
   38.9260   30.3230   39.6050 N   0  0  0  0  0  0  0  0  0  0  0  0
   35.7400   29.2730   39.5280 H   0  0  0  0  0  0  0  0  0  0  0  0
   35.7390   30.5560   37.4060 H   0  0  0  0  0  0  0  0  0  0  0  0
   37.8030   31.6740   36.7300 H   0  0  0  0  0  0  0  0  0  0  0  0
   37.9950   28.8250   43.5220 C   0  0  0  0  0  0  0  0  0  0  0  0
   37.6470   27.4620   43.5310 C   0  0  0  0  0  0  0  0  0  0  0  0
   37.3420   26.9030   42.3070 C   0  0  0  0  0  0  0  0  0  0  0  0
   37.3820   27.6530   41.1510 N   0  0  0  0  0  0  0  0  0  0  0  0
   37.7270   28.9730   41.1930 C   0  0  0  0  0  0  0  0  0  0  0  0
   38.0290   29.5360   42.3850 N   0  0  0  0  0  0  0  0  0  0  0  0
   38.2430   29.3090   44.4590 H   0  0  0  0  0  0  0  0  0  0  0  0
   37.6140   26.8720   44.4230 H   0  0  0  0  0  0  0  0  0  0  0  0
   36.9930   25.4520   42.1970 C   0  0  0  0  0  0  0  0  0  0  0  0
   37.3430   24.8460   40.8380 C   0  0  0  0  0  0  0  0  0  0  0  0
   38.0410   24.4690   42.1880 C   0  0  0  0  0  0  0  0  0  0  0  0
   35.9510   25.2600   42.5510 H   0  0  0  0  0  0  0  0  0  0  0  0
   36.6050   24.1380   40.4670 H   0  0  0  0  0  0  0  0  0  0  0  0
   37.9660   25.4000   40.1340 H   0  0  0  0  0  0  0  0  0  0  0  0
   39.0960   24.7630   42.2940 H   0  0  0  0  0  0  0  0  0  0  0  0
   37.7750   23.4430   42.5440 H   0  0  0  0  0  0  0  0  0  0  0  0
   41.1580   31.0310   37.3320 C   0  0  0  0  0  0  0  0  0  0  0  0
   40.1980   31.6860   38.0730 C   0  0  0  0  0  0  0  0  0  0  0  0
   40.5360   32.9770   38.4130 C   0  0  0  0  0  0  0  0  0  0  0  0
   39.8440   33.5660   38.9950 H   0  0  0  0  0  0  0  0  0  0  0  0
   41.7250   33.5760   38.0520 C   0  0  0  0  0  3  0  0  0  0  0  0
   42.6470   32.8650   37.3080 C   0  0  0  0  0  3  0  0  0  0  0  0
   42.3590   31.5870   36.9470 C   0  0  0  0  0  0  0  0  0  0  0  0
   40.9350   29.7230   36.9270 O   0  0  0  0  0  0  0  0  0  0  0  0
   41.2580   28.9540   37.5020 H   0  0  0  0  0  0  0  0  0  0  0  0
   43.2840   30.8550   36.1940 O   0  0  0  0  0  0  0  0  0  0  0  0
   44.2500   30.8080   36.4760 H   0  0  0  0  0  0  0  0  0  0  0  0
  1 14  1  0  0  0  0
  2  7  1  0  0  0  0
  2  1  2  0  0  0  0
  3  2  1  0  0  0  0
  4  3  2  0  0  0  0
  4  5  1  0  0  0  0
  5  6  2  0  0  0  0
  6  1  1  0  0  0  0
  8  3  1  0  0  0  0
  9  4  1  0  0  0  0
 10 11  1  0  0  0  0
 10 16  1  0  0  0  0
 11 17  1  0  0  0  0
 12 11  2  0  0  0  0
 13 14  2  0  0  0  0
 13 12  1  0  0  0  0
 14 15  1  0  0  0  0
 15 10  2  0  0  0  0
 18 12  1  0  0  0  0
 18 21  1  0  0  0  0
 19 20  1  0  0  0  0
 19 18  1  0  0  0  0
 20 18  1  0  0  0  0
 20 24  1  0  0  0  0
 20 25  1  0  0  0  0
 22 19  1  0  0  0  0
 23 19  1  0  0  0  0
 26 27  1  0  0  0  0
 27 28  2  0  0  0  0
 27  5  1  0  0  0  0
 28 29  1  0  0  0  0
 30 28  1  0  0  0  0
 31 30  2  0  0  0  0
 32 31  1  0  0  0  0
 32 26  2  0  0  0  0
 33 26  1  0  0  0  0
 33 34  1  0  0  0  0
 35 36  1  0  0  0  0
 35 32  1  0  0  0  0
M  END
>  <minimizedAffinity>
-5.83393717

$$$$
