
 OpenBabel03242514453D

 23 24  0  0  0  0  0  0  0  0999 V2000
   45.2850   35.3540   44.0040 C   0  0  0  0  0  0  0  0  0  0  0  0
   46.2990   34.5050   43.5700 C   0  0  0  0  0  0  0  0  0  0  0  0
   46.7180   33.4740   44.4330 C   0  0  0  0  0  0  0  0  0  0  0  0
   46.1000   33.3730   45.6450 N   0  0  0  0  0  0  0  0  0  0  0  0
   45.1110   34.2330   46.0190 C   0  0  0  0  0  0  0  0  0  0  0  0
   44.7120   35.2170   45.1930 N   0  0  0  0  0  0  0  0  0  0  0  0
   47.4920   32.7640   44.1990 H   0  0  0  0  0  0  0  0  0  0  0  0
   44.6940   34.0530   47.0080 H   0  0  0  0  0  0  0  0  0  0  0  0
   46.3680   33.9830   41.1830 C   0  0  0  0  0  0  0  0  0  0  0  0
   46.9720   34.5990   42.2740 C   0  0  0  0  0  0  0  0  0  0  0  0
   48.1640   35.2880   42.2020 C   0  0  0  0  0  0  0  0  0  0  0  0
   48.5840   35.7480   43.0960 H   0  0  0  0  0  0  0  0  0  0  0  0
   48.7760   35.3600   40.9690 C   0  0  0  0  0  3  0  0  0  0  0  0
   48.2050   34.7620   39.8640 C   0  0  0  0  0  3  0  0  0  0  0  0
   47.0120   34.0760   39.9560 C   0  0  0  0  0  0  0  0  0  0  0  0
   45.1680   33.3000   41.3060 O   0  0  0  0  0  0  0  0  0  0  0  0
   44.3170   33.8510   41.2020 H   0  0  0  0  0  0  0  0  0  0  0  0
   46.3920   33.4500   38.8590 O   0  0  0  0  0  0  0  0  0  0  0  0
   47.0130   32.8610   38.2960 H   0  0  0  0  0  0  0  0  0  0  0  0
   44.8690   36.4340   43.0580 C   0  0  0  0  0  0  0  0  0  0  0  0
   45.2140   36.2310   42.0300 H   0  0  0  0  0  0  0  0  0  0  0  0
   43.7640   36.4820   43.0500 H   0  0  0  0  0  0  0  0  0  0  0  0
   45.2770   37.4060   43.4450 H   0  0  0  0  0  0  0  0  0  0  0  0
  1  6  1  0  0  0  0
  2  1  2  0  0  0  0
  2  3  1  0  0  0  0
  3  4  2  0  0  0  0
  4  5  1  0  0  0  0
  5  8  1  0  0  0  0
  6  5  2  0  0  0  0
  7  3  1  0  0  0  0
  9 16  1  0  0  0  0
  9 10  1  0  0  0  0
 10  2  1  0  0  0  0
 11 10  2  0  0  0  0
 11 12  1  0  0  0  0
 13 11  1  0  0  0  0
 14 15  1  0  0  0  0
 14 13  2  0  0  0  0
 15  9  2  0  0  0  0
 17 16  1  0  0  0  0
 18 15  1  0  0  0  0
 19 18  1  0  0  0  0
 20 23  1  0  0  0  0
 20  1  1  0  0  0  0
 21 20  1  0  0  0  0
 22 20  1  0  0  0  0
M  END
>  <minimizedAffinity>
-5.18859959

>  <minimizedRMSD>
1.27445793

$$$$
