
 OpenBabel03252508153D

 39 42  0  0  1  0  0  0  0  0999 V2000
   46.0790   33.1180   46.0310 C   0  0  0  0  0  3  0  0  0  0  0  0
   46.7900   32.1270   45.6570 C   0  0  0  0  0  3  0  0  0  0  0  0
   44.4600   35.9960   44.4030 C   0  0  0  0  0  0  0  0  0  0  0  0
   44.7720   35.7960   43.0640 C   0  0  0  0  0  0  0  0  0  0  0  0
   45.5310   34.7160   42.7460 C   0  0  0  0  0  0  0  0  0  0  0  0
   45.9310   33.9090   43.7610 N   0  0  0  0  0  0  0  0  0  0  0  0
   45.6380   34.0870   45.0470 C   0  0  0  0  0  0  0  0  0  0  0  0
   44.8900   35.1570   45.3400 N   0  0  0  0  0  0  0  0  0  0  0  0
   43.8550   36.8470   44.7150 H   0  0  0  0  0  0  0  0  0  0  0  0
   44.4340   36.4580   42.2990 H   0  0  0  0  0  0  0  0  0  0  0  0
   47.2030   34.5120   40.8470 C   0  0  0  0  0  0  0  0  0  0  0  0
   45.9800   34.3060   41.4260 C   0  0  0  0  0  0  0  0  0  0  0  0
   45.1160   33.6140   40.5940 C   0  0  0  0  0  0  0  0  0  0  0  0
   44.0880   33.3580   40.8950 H   0  0  0  0  0  0  0  0  0  0  0  0
   45.4500   33.1810   39.3290 C   0  0  0  0  0  3  0  0  0  0  0  0
   46.7020   33.4260   38.8130 C   0  0  0  0  0  3  0  0  0  0  0  0
   47.5940   34.1100   39.6010 C   0  0  0  0  0  0  0  0  0  0  0  0
   48.1430   35.1870   41.5760 O   0  0  0  0  0  0  0  0  0  0  0  0
   48.8450   34.6310   42.0650 H   0  0  0  0  0  0  0  0  0  0  0  0
   48.8440   34.3600   39.0990 O   0  0  0  0  0  0  0  0  0  0  0  0
   49.5080   33.5810   39.1080 H   0  0  0  0  0  0  0  0  0  0  0  0
   47.1800   31.1560   46.7600 C   0  0  0  0  0  0  0  0  0  0  0  0
   46.4850   30.2900   46.5860 H   0  0  0  0  0  0  0  0  0  0  0  0
   48.2100   30.8100   46.6390 H   0  0  0  0  0  0  0  0  0  0  0  0
   46.8290   31.7290   48.0910 C   0  0  1  0  0  0  0  0  0  0  0  0
   46.2330   30.7990   49.0960 C   0  0  0  0  0  0  0  0  0  0  0  0
   47.5780   31.3020   49.3020 C   0  0  1  0  0  0  0  0  0  0  0  0
   46.4280   32.7800   48.0990 H   0  0  0  0  0  0  0  0  0  0  0  0
   46.1100   29.7330   48.7910 H   0  0  0  0  0  0  0  0  0  0  0  0
   45.3750   31.1610   49.6900 H   0  0  0  0  0  0  0  0  0  0  0  0
   47.6690   32.0870   50.1130 H   0  0  0  0  0  0  0  0  0  0  0  0
   48.8260   30.5340   49.1060 C   0  0  0  0  0  0  0  0  0  0  0  0
   49.6260   30.2830   50.4120 C   0  0  0  0  0  0  0  0  0  0  0  0
   50.1410   31.2750   49.4260 C   0  0  0  0  0  0  0  0  0  0  0  0
   48.8730   29.7050   48.3720 H   0  0  0  0  0  0  0  0  0  0  0  0
   50.1170   29.3130   50.5080 H   0  0  0  0  0  0  0  0  0  0  0  0
   49.2320   30.7250   51.3470 H   0  0  0  0  0  0  0  0  0  0  0  0
   51.0260   30.9450   48.8570 H   0  0  0  0  0  0  0  0  0  0  0  0
   50.0380   32.3510   49.5880 H   0  0  0  0  0  0  0  0  0  0  0  0
  2  1  2  0  0  0  0
  2 22  1  0  0  0  0
  3  9  1  0  0  0  0
  3  8  1  0  0  0  0
  4  3  2  0  0  0  0
  5  4  1  0  0  0  0
  5  6  2  0  0  0  0
  6  7  1  0  0  0  0
  7  8  2  0  0  0  0
  7  1  1  0  0  0  0
 10  4  1  0  0  0  0
 11 12  1  0  0  0  0
 11 18  1  0  0  0  0
 12  5  1  0  0  0  0
 13 14  1  0  0  0  0
 13 12  2  0  0  0  0
 15 13  1  0  0  0  0
 16 15  2  0  0  0  0
 16 17  1  0  0  0  0
 17 11  2  0  0  0  0
 18 19  1  0  0  0  0
 20 21  1  0  0  0  0
 20 17  1  0  0  0  0
 22 25  1  0  0  0  0
 23 22  1  0  0  0  0
 24 22  1  0  0  0  0
 25 28  1  1  0  0  0
 25 26  1  0  0  0  0
 25 27  1  0  0  0  0
 26 27  1  0  0  0  0
 26 30  1  0  0  0  0
 27 31  1  1  0  0  0
 29 26  1  0  0  0  0
 32 27  1  0  0  0  0
 32 34  1  0  0  0  0
 32 33  1  0  0  0  0
 33 36  1  0  0  0  0
 33 37  1  0  0  0  0
 34 39  1  0  0  0  0
 34 33  1  0  0  0  0
 35 32  1  0  0  0  0
 38 34  1  0  0  0  0
M  END
>  <minimizedAffinity>
-6.08233976

>  <minimizedRMSD>
0.951289177

$$$$
