
 OpenBabel03242512153D

 23 24  0  0  0  0  0  0  0  0999 V2000
   46.6260   34.6770   41.6070 C   0  0  0  0  0  0  0  0  0  0  0  0
   46.6010   35.6460   41.0690 H   0  0  0  0  0  0  0  0  0  0  0  0
   46.0420   33.9080   41.0880 H   0  0  0  0  0  0  0  0  0  0  0  0
   45.9340   34.9170   42.9300 C   0  0  0  0  0  0  0  0  0  0  0  0
   46.0060   33.8990   43.8790 C   0  0  0  0  0  0  0  0  0  0  0  0
   45.3790   34.1030   45.1110 C   0  0  0  0  0  0  0  0  0  0  0  0
   44.7380   35.2760   45.3090 N   0  0  0  0  0  0  0  0  0  0  0  0
   44.6840   36.2530   44.3610 C   0  0  0  0  0  0  0  0  0  0  0  0
   45.2830   36.0710   43.1740 N   0  0  0  0  0  0  0  0  0  0  0  0
   46.5330   32.9580   43.6920 H   0  0  0  0  0  0  0  0  0  0  0  0
   45.4180   33.3220   45.8770 H   0  0  0  0  0  0  0  0  0  0  0  0
   44.1590   37.1960   44.5480 H   0  0  0  0  0  0  0  0  0  0  0  0
   48.3630   33.0070   41.4960 C   0  0  0  0  0  0  0  0  0  0  0  0
   48.0430   34.3020   41.8660 C   0  0  0  0  0  0  0  0  0  0  0  0
   49.0230   35.1200   42.4190 C   0  0  0  0  0  0  0  0  0  0  0  0
   48.6890   36.1300   42.6840 H   0  0  0  0  0  0  0  0  0  0  0  0
   50.2990   34.5970   42.5780 C   0  0  0  0  0  0  0  0  0  0  0  0
   50.5860   33.3120   42.2030 C   0  0  0  0  0  0  0  0  0  0  0  0
   49.6250   32.4750   41.6490 C   0  0  0  0  0  0  0  0  0  0  0  0
   47.4490   32.1000   40.9290 O   0  0  0  0  0  0  0  0  0  0  0  0
   46.6300   31.9020   41.5200 H   0  0  0  0  0  0  0  0  0  0  0  0
   50.0040   31.1870   41.2970 O   0  0  0  0  0  0  0  0  0  0  0  0
   49.4460   30.4230   41.6780 H   0  0  0  0  0  0  0  0  0  0  0  0
  1 14  1  0  0  0  0
  1  4  1  0  0  0  0
  2  1  1  0  0  0  0
  3  1  1  0  0  0  0
  4  9  2  0  0  0  0
  4  5  1  0  0  0  0
  5  6  2  0  0  0  0
  6  7  1  0  0  0  0
  6 11  1  0  0  0  0
  8 12  1  0  0  0  0
  8  7  2  0  0  0  0
  9  8  1  0  0  0  0
 10  5  1  0  0  0  0
 13 19  2  0  0  0  0
 13 14  1  0  0  0  0
 14 15  2  0  0  0  0
 15 17  1  0  0  0  0
 15 16  1  0  0  0  0
 18 17  2  0  0  0  0
 19 18  1  0  0  0  0
 20 13  1  0  0  0  0
 20 21  1  0  0  0  0
 22 19  1  0  0  0  0
 22 23  1  0  0  0  0
M  END
>  <minimizedAffinity>
-4.80126524

>  <minimizedRMSD>
4.7387104

$$$$
