
 OpenBabel03252500583D

 40 42  0  0  0  0  0  0  0  0999 V2000
   43.7690   35.0590   40.2180 O   0  0  0  0  0  0  0  0  0  0  0  0
   43.3090   34.8250   41.6470 P   0  0  1  0  0  0  0  0  0  0  0  0
   43.2510   33.1520   41.9390 O   0  0  0  0  0  0  0  0  0  0  0  0
   44.1680   32.7890   42.1110 H   0  0  0  0  0  0  0  0  0  0  0  0
   44.4290   35.4860   42.7360 O   0  0  0  0  0  0  0  0  0  0  0  0
   46.4490   34.3600   43.1370 C   0  0  0  0  0  0  0  0  0  0  0  0
   45.2380   34.7920   43.6110 C   0  0  0  0  0  0  0  0  0  0  0  0
   44.9170   34.4920   44.9540 C   0  0  0  0  0  0  0  0  0  0  0  0
   45.8230   33.8040   45.6710 N   0  0  0  0  0  0  0  0  0  0  0  0
   46.9990   33.3940   45.1830 C   0  0  0  0  0  0  0  0  0  0  0  0
   47.3080   33.6760   43.9130 N   0  0  0  0  0  0  0  0  0  0  0  0
   43.9590   34.8430   45.3010 H   0  0  0  0  0  0  0  0  0  0  0  0
   47.6300   32.8500   45.8710 H   0  0  0  0  0  0  0  0  0  0  0  0
   46.8570   34.6290   41.7610 C   0  0  0  0  0  0  0  0  0  0  0  0
   46.9820   33.7010   41.1310 H   0  0  0  0  0  0  0  0  0  0  0  0
   46.1330   35.2730   41.2180 H   0  0  0  0  0  0  0  0  0  0  0  0
   48.2040   35.3050   41.7650 C   0  0  0  0  0  0  0  0  0  0  0  0
   48.6280   35.3220   42.7930 H   0  0  0  0  0  0  0  0  0  0  0  0
   48.0760   36.3860   41.4780 H   0  0  0  0  0  0  0  0  0  0  0  0
   48.9450   34.8730   41.0930 H   0  0  0  0  0  0  0  0  0  0  0  0
   41.7460   35.4350   41.8580 O   0  0  0  0  0  0  0  0  0  0  0  0
   40.6790   34.7310   41.3000 C   0  0  0  0  0  0  0  0  0  0  0  0
   39.9580   35.4040   40.3100 C   0  0  0  0  0  0  0  0  0  0  0  0
   38.8750   34.8070   39.6810 C   0  0  0  0  0  0  0  0  0  0  0  0
   38.5360   33.5510   40.0560 N   0  0  0  0  0  0  0  0  0  0  0  0
   39.2280   32.9170   40.9990 C   0  0  0  0  0  0  0  0  0  0  0  0
   40.2710   33.4880   41.6070 N   0  0  0  0  0  0  0  0  0  0  0  0
   40.1530   36.4060   39.9450 H   0  0  0  0  0  0  0  0  0  0  0  0
   38.2910   35.3030   38.9060 H   0  0  0  0  0  0  0  0  0  0  0  0
   39.7260   30.7230   42.0330 C   0  0  0  0  0  0  0  0  0  0  0  0
   38.8400   31.5640   41.3820 C   0  0  0  0  0  0  0  0  0  0  0  0
   37.5930   31.0270   41.1330 C   0  0  0  0  0  0  0  0  0  0  0  0
   36.8440   31.6440   40.6190 H   0  0  0  0  0  0  0  0  0  0  0  0
   37.2340   29.7450   41.4990 C   0  0  0  0  0  3  0  0  0  0  0  0
   38.1600   28.9300   42.1550 C   0  0  0  0  0  3  0  0  0  0  0  0
   39.4210   29.4350   42.4220 C   0  0  0  0  0  0  0  0  0  0  0  0
   41.0110   31.1910   42.3220 O   0  0  0  0  0  0  0  0  0  0  0  0
   41.8070   31.0240   41.7200 H   0  0  0  0  0  0  0  0  0  0  0  0
   40.3990   28.6650   43.0800 O   0  0  0  0  0  0  0  0  0  0  0  0
   41.3750   28.6600   42.7950 H   0  0  0  0  0  0  0  0  0  0  0  0
  2  1  2  6  0  0  0
  2 21  1  0  0  0  0
  2  3  1  0  0  0  0
  2  5  1  0  0  0  0
  3  4  1  0  0  0  0
  5  7  1  0  0  0  0
  6  7  2  0  0  0  0
  6 11  1  0  0  0  0
  7  8  1  0  0  0  0
  8 12  1  0  0  0  0
  8  9  2  0  0  0  0
 10  9  1  0  0  0  0
 10 13  1  0  0  0  0
 11 10  2  0  0  0  0
 14 17  1  0  0  0  0
 14  6  1  0  0  0  0
 15 14  1  0  0  0  0
 16 14  1  0  0  0  0
 17 18  1  0  0  0  0
 19 17  1  0  0  0  0
 20 17  1  0  0  0  0
 22 27  1  0  0  0  0
 22 21  1  0  0  0  0
 23 22  2  0  0  0  0
 24 25  2  0  0  0  0
 24 23  1  0  0  0  0
 25 26  1  0  0  0  0
 26 31  1  0  0  0  0
 26 27  2  0  0  0  0
 28 23  1  0  0  0  0
 29 24  1  0  0  0  0
 30 37  1  0  0  0  0
 30 36  1  0  0  0  0
 31 30  2  0  0  0  0
 32 31  1  0  0  0  0
 32 34  2  0  0  0  0
 33 32  1  0  0  0  0
 34 35  1  0  0  0  0
 35 36  2  0  0  0  0
 36 39  1  0  0  0  0
 38 37  1  0  0  0  0
 40 39  1  0  0  0  0
M  END
>  <minimizedAffinity>
-6.35341692

>  <minimizedRMSD>
1.07795107

$$$$
