
 OpenBabel03252506323D

 34 36  0  0  1  0  0  0  0  0999 V2000
   44.4780   35.8000   44.3110 C   0  0  0  0  0  0  0  0  0  0  0  0
   44.3430   35.4100   42.9600 C   0  0  0  0  0  0  0  0  0  0  0  0
   44.6850   34.1100   42.5960 C   0  0  0  0  0  0  0  0  0  0  0  0
   45.1320   33.2980   43.5790 N   0  0  0  0  0  0  0  0  0  0  0  0
   45.2520   33.6840   44.8500 C   0  0  0  0  0  0  0  0  0  0  0  0
   44.9320   34.9290   45.2380 N   0  0  0  0  0  0  0  0  0  0  0  0
   45.7460   32.7290   45.7840 N   0  0  0  0  0  0  0  0  0  0  0  0
   45.6380   32.8680   47.2450 C   0  0  0  0  0  0  0  0  0  0  0  0
   46.9570   32.2980   47.6930 C   0  0  0  0  0  0  0  0  0  0  0  0
   47.5750   31.6050   46.5100 C   0  0  0  0  0  0  0  0  0  0  0  0
   46.4180   31.4900   45.5690 C   0  0  2  0  0  0  0  0  0  0  0  0
   44.2120   36.8170   44.6080 H   0  0  0  0  0  0  0  0  0  0  0  0
   44.5700   33.8470   41.5540 H   0  0  0  0  0  0  0  0  0  0  0  0
   45.4900   33.9080   47.5570 H   0  0  0  0  0  0  0  0  0  0  0  0
   44.8400   32.1700   47.5480 H   0  0  0  0  0  0  0  0  0  0  0  0
   47.5610   33.1460   48.0740 H   0  0  0  0  0  0  0  0  0  0  0  0
   46.8370   31.5710   48.5190 H   0  0  0  0  0  0  0  0  0  0  0  0
   48.0090   30.6220   46.7630 H   0  0  0  0  0  0  0  0  0  0  0  0
   48.3810   32.2820   46.1210 H   0  0  0  0  0  0  0  0  0  0  0  0
   45.7460   30.6980   46.0340 H   0  0  0  0  0  0  0  0  0  0  0  0
   47.6970   31.9390   43.4970 C   0  0  0  0  0  0  0  0  0  0  0  0
   46.7960   31.1380   44.2100 C   0  0  0  0  0  0  0  0  0  0  0  0
   46.3350   30.0790   43.4810 C   0  0  0  0  0  0  0  0  0  0  0  0
   45.6200   29.4070   43.9400 H   0  0  0  0  0  0  0  0  0  0  0  0
   46.6700   29.7640   42.1920 C   0  0  0  0  0  3  0  0  0  0  0  0
   47.5630   30.5880   41.5380 C   0  0  0  0  0  3  0  0  0  0  0  0
   48.0800   31.6810   42.1900 C   0  0  0  0  0  0  0  0  0  0  0  0
   48.2550   33.0570   44.1010 O   0  0  0  0  0  0  0  0  0  0  0  0
   49.0170   32.9750   44.7820 H   0  0  0  0  0  0  0  0  0  0  0  0
   48.9860   32.5280   41.5480 O   0  0  0  0  0  0  0  0  0  0  0  0
   49.5490   32.1710   40.7880 H   0  0  0  0  0  0  0  0  0  0  0  0
   43.8560   36.4110   42.0640 N   0  0  0  0  0  0  0  0  0  0  0  0
   44.0980   37.3930   42.2150 H   0  0  0  0  0  0  0  0  0  0  0  0
   43.2520   36.1040   41.2610 H   0  0  0  0  0  0  0  0  0  0  0  0
  1 12  1  0  0  0  0
  1  6  1  0  0  0  0
  2  1  2  0  0  0  0
  3  2  1  0  0  0  0
  3  4  2  0  0  0  0
  4  5  1  0  0  0  0
  5  6  2  0  0  0  0
  5  7  1  0  0  0  0
  7  8  1  0  0  0  0
  8 15  1  0  0  0  0
  8 14  1  0  0  0  0
  8  9  1  0  0  0  0
  9 16  1  0  0  0  0
  9 17  1  0  0  0  0
 10 18  1  0  0  0  0
 10  9  1  0  0  0  0
 11  7  1  0  0  0  0
 11 20  1  1  0  0  0
 11 10  1  0  0  0  0
 13  3  1  0  0  0  0
 19 10  1  0  0  0  0
 21 28  1  0  0  0  0
 21 22  1  0  0  0  0
 22 11  1  0  0  0  0
 23 24  1  0  0  0  0
 23 22  2  0  0  0  0
 25 23  1  0  0  0  0
 26 27  1  0  0  0  0
 26 25  2  0  0  0  0
 27 21  2  0  0  0  0
 28 29  1  0  0  0  0
 30 27  1  0  0  0  0
 31 30  1  0  0  0  0
 32 33  1  0  0  0  0
 32  2  1  0  0  0  0
 34 32  1  0  0  0  0
M  END
>  <minimizedAffinity>
-4.51690435

>  <minimizedRMSD>
2.08538413

$$$$
