
 OpenBabel03252508153D

 39 42  0  0  1  0  0  0  0  0999 V2000
   45.7560   33.0820   46.2060 C   0  0  0  0  0  3  0  0  0  0  0  0
   46.0810   31.9370   45.7490 C   0  0  0  0  0  3  0  0  0  0  0  0
   44.4740   36.1590   44.6410 C   0  0  0  0  0  0  0  0  0  0  0  0
   45.0820   36.1340   43.3930 C   0  0  0  0  0  0  0  0  0  0  0  0
   45.9190   35.1010   43.1170 C   0  0  0  0  0  0  0  0  0  0  0  0
   46.1000   34.1660   44.0820 N   0  0  0  0  0  0  0  0  0  0  0  0
   45.5240   34.1740   45.2820 C   0  0  0  0  0  0  0  0  0  0  0  0
   44.7040   35.2010   45.5350 N   0  0  0  0  0  0  0  0  0  0  0  0
   43.7940   36.9650   44.9180 H   0  0  0  0  0  0  0  0  0  0  0  0
   44.9080   36.8930   42.6630 H   0  0  0  0  0  0  0  0  0  0  0  0
   46.2380   34.2270   40.7550 C   0  0  0  0  0  0  0  0  0  0  0  0
   46.6610   34.8650   41.8890 C   0  0  0  0  0  0  0  0  0  0  0  0
   47.9660   35.3150   41.7820 C   0  0  0  0  0  0  0  0  0  0  0  0
   48.4730   35.8510   42.6010 H   0  0  0  0  0  0  0  0  0  0  0  0
   48.7490   35.1410   40.6620 C   0  0  0  0  0  3  0  0  0  0  0  0
   48.2530   34.4880   39.5560 C   0  0  0  0  0  3  0  0  0  0  0  0
   46.9640   34.0240   39.6150 C   0  0  0  0  0  0  0  0  0  0  0  0
   44.9610   33.7380   40.7420 O   0  0  0  0  0  0  0  0  0  0  0  0
   44.2470   34.3050   40.2840 H   0  0  0  0  0  0  0  0  0  0  0  0
   46.4590   33.3720   38.5210 O   0  0  0  0  0  0  0  0  0  0  0  0
   46.1610   33.9550   37.7350 H   0  0  0  0  0  0  0  0  0  0  0  0
   46.2790   30.8520   46.7970 C   0  0  0  0  0  0  0  0  0  0  0  0
   45.4510   30.1290   46.5660 H   0  0  0  0  0  0  0  0  0  0  0  0
   47.2380   30.3440   46.6670 H   0  0  0  0  0  0  0  0  0  0  0  0
   46.0030   31.4010   48.1560 C   0  0  1  0  0  0  0  0  0  0  0  0
   45.7580   30.4170   49.2520 C   0  0  0  0  0  0  0  0  0  0  0  0
   46.9840   31.1920   49.2520 C   0  0  1  0  0  0  0  0  0  0  0  0
   45.3980   32.3480   48.2050 H   0  0  0  0  0  0  0  0  0  0  0  0
   45.8180   29.3350   48.9840 H   0  0  0  0  0  0  0  0  0  0  0  0
   44.9340   30.6230   49.9580 H   0  0  0  0  0  0  0  0  0  0  0  0
   47.0210   32.0150   50.0300 H   0  0  0  0  0  0  0  0  0  0  0  0
   48.3260   30.6860   48.8910 C   0  0  0  0  0  0  0  0  0  0  0  0
   49.2530   30.4260   50.1070 C   0  0  0  0  0  0  0  0  0  0  0  0
   49.5170   31.6040   49.2330 C   0  0  0  0  0  0  0  0  0  0  0  0
   48.4570   29.9720   48.0530 H   0  0  0  0  0  0  0  0  0  0  0  0
   49.9070   29.5540   50.0490 H   0  0  0  0  0  0  0  0  0  0  0  0
   48.8630   30.6760   51.1120 H   0  0  0  0  0  0  0  0  0  0  0  0
   50.4000   31.5060   48.5790 H   0  0  0  0  0  0  0  0  0  0  0  0
   49.2470   32.6170   49.5410 H   0  0  0  0  0  0  0  0  0  0  0  0
  2  1  2  0  0  0  0
  2 22  1  0  0  0  0
  3  9  1  0  0  0  0
  3  8  1  0  0  0  0
  4  3  2  0  0  0  0
  5  4  1  0  0  0  0
  5  6  2  0  0  0  0
  6  7  1  0  0  0  0
  7  8  2  0  0  0  0
  7  1  1  0  0  0  0
 10  4  1  0  0  0  0
 11 12  1  0  0  0  0
 12  5  1  0  0  0  0
 13 12  2  0  0  0  0
 13 14  1  0  0  0  0
 15 13  1  0  0  0  0
 16 17  1  0  0  0  0
 16 15  2  0  0  0  0
 17 11  2  0  0  0  0
 18 11  1  0  0  0  0
 19 18  1  0  0  0  0
 20 17  1  0  0  0  0
 21 20  1  0  0  0  0
 22 25  1  0  0  0  0
 23 22  1  0  0  0  0
 24 22  1  0  0  0  0
 25 28  1  1  0  0  0
 25 26  1  0  0  0  0
 25 27  1  0  0  0  0
 26 27  1  0  0  0  0
 26 30  1  0  0  0  0
 27 31  1  1  0  0  0
 29 26  1  0  0  0  0
 32 34  1  0  0  0  0
 32 27  1  0  0  0  0
 32 33  1  0  0  0  0
 33 37  1  0  0  0  0
 34 39  1  0  0  0  0
 34 33  1  0  0  0  0
 35 32  1  0  0  0  0
 36 33  1  0  0  0  0
 38 34  1  0  0  0  0
M  END
>  <minimizedAffinity>
-6.44927311

>  <minimizedRMSD>
0.534982681

$$$$
