
 OpenBabel03252508153D

 39 42  0  0  1  0  0  0  0  0999 V2000
   45.7560   33.0810   46.2070 C   0  0  0  0  0  3  0  0  0  0  0  0
   46.0810   31.9360   45.7490 C   0  0  0  0  0  3  0  0  0  0  0  0
   44.4740   36.1590   44.6420 C   0  0  0  0  0  0  0  0  0  0  0  0
   45.0820   36.1340   43.3930 C   0  0  0  0  0  0  0  0  0  0  0  0
   45.9190   35.1010   43.1180 C   0  0  0  0  0  0  0  0  0  0  0  0
   46.1000   34.1650   44.0830 N   0  0  0  0  0  0  0  0  0  0  0  0
   45.5240   34.1740   45.2830 C   0  0  0  0  0  0  0  0  0  0  0  0
   44.7030   35.2010   45.5350 N   0  0  0  0  0  0  0  0  0  0  0  0
   43.7950   36.9650   44.9180 H   0  0  0  0  0  0  0  0  0  0  0  0
   44.9080   36.8930   42.6640 H   0  0  0  0  0  0  0  0  0  0  0  0
   46.2380   34.2280   40.7550 C   0  0  0  0  0  0  0  0  0  0  0  0
   46.6610   34.8650   41.8900 C   0  0  0  0  0  0  0  0  0  0  0  0
   47.9660   35.3150   41.7830 C   0  0  0  0  0  0  0  0  0  0  0  0
   48.4720   35.8510   42.6020 H   0  0  0  0  0  0  0  0  0  0  0  0
   48.7490   35.1410   40.6630 C   0  0  0  0  0  3  0  0  0  0  0  0
   48.2530   34.4880   39.5560 C   0  0  0  0  0  3  0  0  0  0  0  0
   46.9640   34.0230   39.6160 C   0  0  0  0  0  0  0  0  0  0  0  0
   44.9600   33.7370   40.7430 O   0  0  0  0  0  0  0  0  0  0  0  0
   44.2460   34.3040   40.2840 H   0  0  0  0  0  0  0  0  0  0  0  0
   46.4590   33.3720   38.5220 O   0  0  0  0  0  0  0  0  0  0  0  0
   46.1610   33.9550   37.7350 H   0  0  0  0  0  0  0  0  0  0  0  0
   46.2790   30.8520   46.7970 C   0  0  0  0  0  0  0  0  0  0  0  0
   45.4500   30.1280   46.5660 H   0  0  0  0  0  0  0  0  0  0  0  0
   47.2370   30.3430   46.6670 H   0  0  0  0  0  0  0  0  0  0  0  0
   46.0030   31.4010   48.1560 C   0  0  1  0  0  0  0  0  0  0  0  0
   45.7580   30.4160   49.2520 C   0  0  0  0  0  0  0  0  0  0  0  0
   46.9840   31.1910   49.2520 C   0  0  1  0  0  0  0  0  0  0  0  0
   45.3970   32.3470   48.2060 H   0  0  0  0  0  0  0  0  0  0  0  0
   45.8190   29.3340   48.9840 H   0  0  0  0  0  0  0  0  0  0  0  0
   44.9340   30.6220   49.9580 H   0  0  0  0  0  0  0  0  0  0  0  0
   47.0210   32.0140   50.0300 H   0  0  0  0  0  0  0  0  0  0  0  0
   48.3260   30.6850   48.8910 C   0  0  0  0  0  0  0  0  0  0  0  0
   49.2530   30.4260   50.1070 C   0  0  0  0  0  0  0  0  0  0  0  0
   49.5170   31.6040   49.2330 C   0  0  0  0  0  0  0  0  0  0  0  0
   48.4570   29.9720   48.0530 H   0  0  0  0  0  0  0  0  0  0  0  0
   49.9080   29.5540   50.0490 H   0  0  0  0  0  0  0  0  0  0  0  0
   48.8630   30.6760   51.1120 H   0  0  0  0  0  0  0  0  0  0  0  0
   50.3990   31.5070   48.5790 H   0  0  0  0  0  0  0  0  0  0  0  0
   49.2460   32.6170   49.5410 H   0  0  0  0  0  0  0  0  0  0  0  0
  2  1  2  0  0  0  0
  2 22  1  0  0  0  0
  3  9  1  0  0  0  0
  3  8  1  0  0  0  0
  4  3  2  0  0  0  0
  5  4  1  0  0  0  0
  5  6  2  0  0  0  0
  6  7  1  0  0  0  0
  7  8  2  0  0  0  0
  7  1  1  0  0  0  0
 10  4  1  0  0  0  0
 11 12  1  0  0  0  0
 12  5  1  0  0  0  0
 13 12  2  0  0  0  0
 13 14  1  0  0  0  0
 15 13  1  0  0  0  0
 16 17  1  0  0  0  0
 16 15  2  0  0  0  0
 17 11  2  0  0  0  0
 18 11  1  0  0  0  0
 19 18  1  0  0  0  0
 20 17  1  0  0  0  0
 21 20  1  0  0  0  0
 22 25  1  0  0  0  0
 23 22  1  0  0  0  0
 24 22  1  0  0  0  0
 25 28  1  1  0  0  0
 25 26  1  0  0  0  0
 25 27  1  0  0  0  0
 26 27  1  0  0  0  0
 26 30  1  0  0  0  0
 27 31  1  1  0  0  0
 29 26  1  0  0  0  0
 32 34  1  0  0  0  0
 32 27  1  0  0  0  0
 32 33  1  0  0  0  0
 33 37  1  0  0  0  0
 34 39  1  0  0  0  0
 34 33  1  0  0  0  0
 35 32  1  0  0  0  0
 36 33  1  0  0  0  0
 38 34  1  0  0  0  0
M  END
>  <minimizedAffinity>
-6.44942999

>  <minimizedRMSD>
0.637373209

$$$$
