
 OpenBabel03252503413D

 23 24  0  0  0  0  0  0  0  0999 V2000
   44.6900   35.4130   44.8030 C   0  0  0  0  0  0  0  0  0  0  0  0
   44.7860   34.8840   43.5140 C   0  0  0  0  0  0  0  0  0  0  0  0
   45.2470   33.5810   43.3860 C   0  0  0  0  0  0  0  0  0  0  0  0
   45.5780   32.8950   44.5130 N   0  0  0  0  0  0  0  0  0  0  0  0
   45.4740   33.4270   45.7390 C   0  0  0  0  0  0  0  0  0  0  0  0
   45.0300   34.6890   45.9000 N   0  0  0  0  0  0  0  0  0  0  0  0
   44.3440   36.4210   45.0630 H   0  0  0  0  0  0  0  0  0  0  0  0
   45.2990   33.2380   42.3780 H   0  0  0  0  0  0  0  0  0  0  0  0
   47.0260   31.9680   46.9760 C   0  0  0  0  0  0  0  0  0  0  0  0
   45.8410   32.6500   46.9180 C   0  0  0  0  0  0  0  0  0  0  0  0
   45.0170   32.5730   48.0120 C   0  0  0  0  0  0  0  0  0  0  0  0
   44.0720   33.0760   48.0530 H   0  0  0  0  0  0  0  0  0  0  0  0
   45.3900   31.8280   49.1180 C   0  0  0  0  0  3  0  0  0  0  0  0
   46.5940   31.1460   49.1510 C   0  0  0  0  0  3  0  0  0  0  0  0
   47.4370   31.2140   48.0550 C   0  0  0  0  0  0  0  0  0  0  0  0
   47.8640   32.0530   45.8470 O   0  0  0  0  0  0  0  0  0  0  0  0
   48.5900   32.7410   45.7610 H   0  0  0  0  0  0  0  0  0  0  0  0
   48.6780   30.5680   47.9750 O   0  0  0  0  0  0  0  0  0  0  0  0
   49.4590   31.0110   47.4960 H   0  0  0  0  0  0  0  0  0  0  0  0
   44.3720   35.8120   42.4380 C   0  0  0  0  0  0  0  0  0  0  0  0
   43.2660   35.9240   42.3940 H   0  0  0  0  0  0  0  0  0  0  0  0
   44.7580   35.3960   41.4850 H   0  0  0  0  0  0  0  0  0  0  0  0
   44.7600   36.8220   42.6740 H   0  0  0  0  0  0  0  0  0  0  0  0
  1  7  1  0  0  0  0
  1  6  1  0  0  0  0
  2  1  2  0  0  0  0
  3  2  1  0  0  0  0
  3  4  2  0  0  0  0
  4  5  1  0  0  0  0
  5  6  2  0  0  0  0
  5 10  1  0  0  0  0
  8  3  1  0  0  0  0
  9 15  1  0  0  0  0
 10  9  2  0  0  0  0
 10 11  1  0  0  0  0
 11 12  1  0  0  0  0
 11 13  2  0  0  0  0
 13 14  1  0  0  0  0
 15 14  2  0  0  0  0
 16  9  1  0  0  0  0
 17 16  1  0  0  0  0
 18 15  1  0  0  0  0
 19 18  1  0  0  0  0
 20 23  1  0  0  0  0
 20  2  1  0  0  0  0
 21 20  1  0  0  0  0
 22 20  1  0  0  0  0
M  END
>  <minimizedAffinity>
-4.51140928

>  <minimizedRMSD>
0.991678715

$$$$
