
 OpenBabel03252505303D

 29 30  0  0  0  0  0  0  0  0999 V2000
   46.8160   29.0350   44.1500 O   0  0  0  0  0  0  0  0  0  0  0  0
   46.5530   28.3190   45.2800 C   0  0  0  0  0  0  0  0  0  0  0  0
   46.8130   28.9180   46.1950 H   0  0  0  0  0  0  0  0  0  0  0  0
   47.2170   27.4170   45.3600 H   0  0  0  0  0  0  0  0  0  0  0  0
   44.0670   28.7650   45.2220 C   0  0  0  0  0  0  0  0  0  0  0  0
   45.1330   27.9260   45.4570 C   0  0  0  0  0  0  0  0  0  0  0  0
   44.8590   26.6370   45.8900 C   0  0  0  0  0  0  0  0  0  0  0  0
   45.6430   25.9260   46.0960 H   0  0  0  0  0  0  0  0  0  0  0  0
   43.5820   26.1390   46.1010 C   0  0  0  0  0  3  0  0  0  0  0  0
   42.5220   26.9990   45.8580 C   0  0  0  0  0  3  0  0  0  0  0  0
   42.8050   28.2930   45.4240 C   0  0  0  0  0  0  0  0  0  0  0  0
   44.3430   30.0530   44.7890 O   0  0  0  0  0  0  0  0  0  0  0  0
   44.3270   30.8830   45.3630 H   0  0  0  0  0  0  0  0  0  0  0  0
   41.7540   29.1610   45.1800 O   0  0  0  0  0  0  0  0  0  0  0  0
   41.4630   29.2770   44.2200 H   0  0  0  0  0  0  0  0  0  0  0  0
   48.9630   29.6940   45.4320 O   0  0  0  0  0  0  0  0  0  0  0  0
   47.8620   30.3040   44.5630 P   0  0  2  0  0  0  0  0  0  0  0  0
   46.9560   31.4450   45.4130 O   0  0  0  0  0  0  0  0  0  0  0  0
   47.5380   31.7340   46.1870 H   0  0  0  0  0  0  0  0  0  0  0  0
   48.6020   30.9990   43.2260 O   0  0  0  0  0  0  0  0  0  0  0  0
   47.7020   34.4140   42.9840 C   0  0  0  0  0  0  0  0  0  0  0  0
   47.6290   34.6890   41.5980 C   0  0  0  0  0  0  0  0  0  0  0  0
   47.9150   33.5960   40.7460 C   0  0  0  0  0  0  0  0  0  0  0  0
   48.2340   32.3880   41.3170 N   0  0  0  0  0  0  0  0  0  0  0  0
   48.2840   32.2020   42.6350 C   0  0  0  0  0  0  0  0  0  0  0  0
   48.0190   33.2110   43.4550 N   0  0  0  0  0  0  0  0  0  0  0  0
   47.4720   35.2870   43.6040 H   0  0  0  0  0  0  0  0  0  0  0  0
   47.3700   35.6600   41.1970 H   0  0  0  0  0  0  0  0  0  0  0  0
   47.8780   33.7280   39.6750 H   0  0  0  0  0  0  0  0  0  0  0  0
  1 17  1  0  0  0  0
  1  2  1  0  0  0  0
  2  4  1  0  0  0  0
  2  6  1  0  0  0  0
  2  3  1  0  0  0  0
  5 11  2  0  0  0  0
  5  6  1  0  0  0  0
  6  7  2  0  0  0  0
  7  8  1  0  0  0  0
  7  9  1  0  0  0  0
 10  9  2  0  0  0  0
 11 10  1  0  0  0  0
 12  5  1  0  0  0  0
 12 13  1  0  0  0  0
 14 11  1  0  0  0  0
 15 14  1  0  0  0  0
 17 18  1  0  0  0  0
 17 16  2  1  0  0  0
 18 19  1  0  0  0  0
 20 17  1  0  0  0  0
 21 26  1  0  0  0  0
 21 27  1  0  0  0  0
 22 21  2  0  0  0  0
 23 24  2  0  0  0  0
 23 22  1  0  0  0  0
 24 25  1  0  0  0  0
 25 20  1  0  0  0  0
 25 26  2  0  0  0  0
 28 22  1  0  0  0  0
 29 23  1  0  0  0  0
M  END
>  <minimizedAffinity>
-3.21843863

>  <minimizedRMSD>
3.48390985

$$$$
