
 OpenBabel03242516363D

 46 49  0  0  1  0  0  0  0  0999 V2000
   36.5520   29.6250   41.6280 C   0  0  1  0  0  0  0  0  0  0  0  0
   37.8300   30.1800   40.8140 C   0  0  1  0  0  0  0  0  0  0  0  0
   38.6170   29.0950   40.9430 O   0  0  0  0  0  0  0  0  0  0  0  0
   37.7840   28.1160   40.3370 C   0  0  0  0  0  0  0  0  0  0  0  0
   36.5550   28.1870   41.2080 C   0  0  1  0  0  0  0  0  0  0  0  0
   35.6910   30.2160   41.3710 H   0  0  0  0  0  0  0  0  0  0  0  0
   37.9660   31.1280   41.3250 H   0  0  0  0  0  0  0  0  0  0  0  0
   37.5120   28.3630   39.3080 H   0  0  0  0  0  0  0  0  0  0  0  0
   38.2520   27.1270   40.3150 H   0  0  0  0  0  0  0  0  0  0  0  0
   35.6340   27.9030   40.6230 H   0  0  0  0  0  0  0  0  0  0  0  0
   36.9550   29.6780   42.9680 O   0  0  0  0  0  0  0  0  0  0  0  0
   36.3060   30.2760   43.4190 H   0  0  0  0  0  0  0  0  0  0  0  0
   37.3590   30.2570   39.5040 O   0  0  0  0  0  0  0  0  0  0  0  0
   38.0450   32.5080   39.7660 C   0  0  2  0  0  0  0  0  0  0  0  0
   39.3990   32.0200   39.1860 C   0  0  1  0  0  0  0  0  0  0  0  0
   39.1500   32.2160   37.8590 O   0  0  0  0  0  0  0  0  0  0  0  0
   37.9110   31.5760   37.6470 C   0  0  0  0  0  0  0  0  0  0  0  0
   37.1880   31.5180   39.0130 C   0  0  1  0  0  0  0  0  0  0  0  0
   38.0180   32.3890   40.8460 H   0  0  0  0  0  0  0  0  0  0  0  0
   39.4240   30.9520   39.5200 H   0  0  0  0  0  0  0  0  0  0  0  0
   37.3070   32.1800   36.9530 H   0  0  0  0  0  0  0  0  0  0  0  0
   38.0590   30.5640   37.2290 H   0  0  0  0  0  0  0  0  0  0  0  0
   36.1410   31.8510   38.9600 H   0  0  0  0  0  0  0  0  0  0  0  0
   42.4660   33.3400   41.0020 C   0  0  0  0  0  0  0  0  0  0  0  0
   41.4610   32.4380   40.6640 C   0  0  0  0  0  0  0  0  0  0  0  0
   40.5200   32.7940   39.7260 C   0  0  0  0  0  0  0  0  0  0  0  0
   40.6360   34.0430   39.1730 N   0  0  0  0  0  0  0  0  0  0  0  0
   41.6130   34.9020   39.5120 C   0  0  0  0  0  0  0  0  0  0  0  0
   42.5270   34.5490   40.4270 N   0  0  0  0  0  0  0  0  0  0  0  0
   43.1390   32.9360   41.7500 H   0  0  0  0  0  0  0  0  0  0  0  0
   41.3210   31.4520   41.0620 H   0  0  0  0  0  0  0  0  0  0  0  0
   41.6860   35.8810   39.0640 H   0  0  0  0  0  0  0  0  0  0  0  0
   37.7270   33.7480   39.2740 O   0  0  0  0  0  0  0  0  0  0  0  0
   38.5540   34.1340   38.8700 H   0  0  0  0  0  0  0  0  0  0  0  0
   36.7140   27.3380   42.2850 O   0  0  0  0  0  0  0  0  0  0  0  0
   38.6910   26.6340   43.1900 C   0  0  0  0  0  0  0  0  0  0  0  0
   37.5770   26.2900   42.4250 C   0  0  0  0  0  0  0  0  0  0  0  0
   37.5030   25.0010   41.9370 C   0  0  0  0  0  0  0  0  0  0  0  0
   36.6080   24.8210   41.3560 H   0  0  0  0  0  0  0  0  0  0  0  0
   38.4930   24.0760   42.1920 C   0  0  0  0  0  3  0  0  0  0  0  0
   39.6120   24.4130   42.9590 C   0  0  0  0  0  3  0  0  0  0  0  0
   39.6990   25.6990   43.4520 C   0  0  0  0  0  0  0  0  0  0  0  0
   38.9320   27.8880   43.7620 O   0  0  0  0  0  0  0  0  0  0  0  0
   38.2280   28.6190   43.6310 H   0  0  0  0  0  0  0  0  0  0  0  0
   40.8180   25.9930   44.2040 O   0  0  0  0  0  0  0  0  0  0  0  0
   41.6170   26.3990   43.7320 H   0  0  0  0  0  0  0  0  0  0  0  0
  1  6  1  6  0  0  0
  1 11  1  0  0  0  0
  2  3  1  0  0  0  0
  2  7  1  1  0  0  0
  2  1  1  0  0  0  0
  4  3  1  0  0  0  0
  4  5  1  0  0  0  0
  5 10  1  6  0  0  0
  5  1  1  0  0  0  0
  5 35  1  0  0  0  0
  8  4  1  0  0  0  0
  9  4  1  0  0  0  0
 11 12  1  0  0  0  0
 13  2  1  0  0  0  0
 14 19  1  1  0  0  0
 15 20  1  1  0  0  0
 15 26  1  0  0  0  0
 15 14  1  0  0  0  0
 16 15  1  0  0  0  0
 17 16  1  0  0  0  0
 17 18  1  0  0  0  0
 18 23  1  6  0  0  0
 18 13  1  0  0  0  0
 18 14  1  0  0  0  0
 21 17  1  0  0  0  0
 22 17  1  0  0  0  0
 24 30  1  0  0  0  0
 25 24  1  0  0  0  0
 25 31  1  0  0  0  0
 26 25  2  0  0  0  0
 27 28  2  0  0  0  0
 27 26  1  0  0  0  0
 28 29  1  0  0  0  0
 29 24  2  0  0  0  0
 32 28  1  0  0  0  0
 33 14  1  0  0  0  0
 34 33  1  0  0  0  0
 35 37  1  0  0  0  0
 36 42  1  0  0  0  0
 36 43  1  0  0  0  0
 37 36  2  0  0  0  0
 38 40  2  0  0  0  0
 38 37  1  0  0  0  0
 39 38  1  0  0  0  0
 40 41  1  0  0  0  0
 41 42  2  0  0  0  0
 42 45  1  0  0  0  0
 44 43  1  0  0  0  0
 46 45  1  0  0  0  0
M  END
>  <minimizedAffinity>
-6.61488295

$$$$

 OpenBabel03242516363D

 46 49  0  0  1  0  0  0  0  0999 V2000
   37.7060   32.3300   39.6710 C   0  0  1  0  0  0  0  0  0  0  0  0
   38.9270   32.6790   40.6680 C   0  0  1  0  0  0  0  0  0  0  0  0
   38.9830   31.4970   41.3120 O   0  0  0  0  0  0  0  0  0  0  0  0
   39.2170   30.6310   40.2100 C   0  0  0  0  0  0  0  0  0  0  0  0
   38.0030   30.8960   39.3560 C   0  0  1  0  0  0  0  0  0  0  0  0
   37.7120   33.0300   38.8560 H   0  0  0  0  0  0  0  0  0  0  0  0
   38.5540   33.6100   41.0840 H   0  0  0  0  0  0  0  0  0  0  0  0
   40.1180   30.8880   39.6470 H   0  0  0  0  0  0  0  0  0  0  0  0
   39.3210   29.5860   40.5170 H   0  0  0  0  0  0  0  0  0  0  0  0
   38.2380   30.7300   38.2650 H   0  0  0  0  0  0  0  0  0  0  0  0
   36.5750   32.3590   40.4980 O   0  0  0  0  0  0  0  0  0  0  0  0
   35.9820   33.0550   40.1140 H   0  0  0  0  0  0  0  0  0  0  0  0
   40.0160   32.7890   39.8060 O   0  0  0  0  0  0  0  0  0  0  0  0
   42.3780   32.9330   39.9020 C   0  0  2  0  0  0  0  0  0  0  0  0
   42.2850   33.2170   38.3790 C   0  0  1  0  0  0  0  0  0  0  0  0
   42.1680   34.5760   38.4190 O   0  0  0  0  0  0  0  0  0  0  0  0
   41.1240   34.8010   39.3390 C   0  0  0  0  0  0  0  0  0  0  0  0
   41.0490   33.5580   40.2560 C   0  0  1  0  0  0  0  0  0  0  0  0
   42.4330   31.8640   40.0960 H   0  0  0  0  0  0  0  0  0  0  0  0
   41.3580   32.6600   38.0940 H   0  0  0  0  0  0  0  0  0  0  0  0
   41.3680   35.6790   39.9550 H   0  0  0  0  0  0  0  0  0  0  0  0
   40.1670   34.9680   38.8130 H   0  0  0  0  0  0  0  0  0  0  0  0
   40.9970   33.8140   41.3250 H   0  0  0  0  0  0  0  0  0  0  0  0
   44.8610   31.3010   36.3440 C   0  0  0  0  0  0  0  0  0  0  0  0
   43.6410   31.5490   36.9680 C   0  0  0  0  0  0  0  0  0  0  0  0
   43.4680   32.7180   37.6720 C   0  0  0  0  0  0  0  0  0  0  0  0
   44.5330   33.5810   37.7150 N   0  0  0  0  0  0  0  0  0  0  0  0
   45.7040   33.3240   37.1060 C   0  0  0  0  0  0  0  0  0  0  0  0
   45.8660   32.1840   36.4220 N   0  0  0  0  0  0  0  0  0  0  0  0
   44.8640   30.3490   35.8250 H   0  0  0  0  0  0  0  0  0  0  0  0
   42.7770   30.9150   36.9680 H   0  0  0  0  0  0  0  0  0  0  0  0
   46.5290   34.0180   37.1530 H   0  0  0  0  0  0  0  0  0  0  0  0
   43.3410   33.7170   40.4840 O   0  0  0  0  0  0  0  0  0  0  0  0
   43.9120   34.0860   39.7520 H   0  0  0  0  0  0  0  0  0  0  0  0
   36.9790   30.0600   39.7530 O   0  0  0  0  0  0  0  0  0  0  0  0
   36.7840   28.9470   41.7400 C   0  0  0  0  0  0  0  0  0  0  0  0
   37.0590   28.8490   40.3760 C   0  0  0  0  0  0  0  0  0  0  0  0
   37.3620   27.6020   39.8670 C   0  0  0  0  0  0  0  0  0  0  0  0
   37.5610   27.6170   38.8030 H   0  0  0  0  0  0  0  0  0  0  0  0
   37.3930   26.4830   40.6730 C   0  0  0  0  0  3  0  0  0  0  0  0
   37.1180   26.5740   42.0400 C   0  0  0  0  0  3  0  0  0  0  0  0
   36.8150   27.8140   42.5620 C   0  0  0  0  0  0  0  0  0  0  0  0
   36.4600   30.1240   42.4240 O   0  0  0  0  0  0  0  0  0  0  0  0
   36.3990   30.9910   41.8850 H   0  0  0  0  0  0  0  0  0  0  0  0
   36.5490   27.8630   43.9150 O   0  0  0  0  0  0  0  0  0  0  0  0
   37.3140   28.0740   44.5450 H   0  0  0  0  0  0  0  0  0  0  0  0
  1  6  1  6  0  0  0
  1 11  1  0  0  0  0
  1  2  1  0  0  0  0
  2  7  1  1  0  0  0
  2  3  1  0  0  0  0
  4  9  1  0  0  0  0
  4  3  1  0  0  0  0
  5 10  1  6  0  0  0
  5  1  1  0  0  0  0
  5 35  1  0  0  0  0
  5  4  1  0  0  0  0
  8  4  1  0  0  0  0
 12 11  1  0  0  0  0
 13 18  1  0  0  0  0
 13  2  1  0  0  0  0
 14 19  1  1  0  0  0
 14 18  1  0  0  0  0
 14 33  1  0  0  0  0
 15 20  1  6  0  0  0
 15 16  1  0  0  0  0
 15 14  1  0  0  0  0
 16 17  1  0  0  0  0
 17 21  1  0  0  0  0
 17 18  1  0  0  0  0
 18 23  1  1  0  0  0
 22 17  1  0  0  0  0
 24 29  2  0  0  0  0
 24 25  1  0  0  0  0
 25 31  1  0  0  0  0
 25 26  2  0  0  0  0
 26 27  1  0  0  0  0
 26 15  1  0  0  0  0
 28 32  1  0  0  0  0
 28 27  2  0  0  0  0
 29 28  1  0  0  0  0
 30 24  1  0  0  0  0
 34 33  1  0  0  0  0
 35 37  1  0  0  0  0
 36 43  1  0  0  0  0
 36 42  1  0  0  0  0
 37 36  2  0  0  0  0
 38 37  1  0  0  0  0
 38 40  2  0  0  0  0
 39 38  1  0  0  0  0
 40 41  1  0  0  0  0
 41 42  2  0  0  0  0
 42 45  1  0  0  0  0
 44 43  1  0  0  0  0
 45 46  1  0  0  0  0
M  END
>  <minimizedAffinity>
-6.43511152

$$$$

 OpenBabel03242516363D

 46 49  0  0  1  0  0  0  0  0999 V2000
   39.3790   32.1700   41.5380 C   0  0  1  0  0  0  0  0  0  0  0  0
   38.6350   31.2650   40.4280 C   0  0  1  0  0  0  0  0  0  0  0  0
   39.5360   31.4090   39.4380 O   0  0  0  0  0  0  0  0  0  0  0  0
   40.6920   30.8950   40.0860 C   0  0  0  0  0  0  0  0  0  0  0  0
   40.8110   31.8230   41.2680 C   0  0  1  0  0  0  0  0  0  0  0  0
   38.9820   31.9280   42.5080 H   0  0  0  0  0  0  0  0  0  0  0  0
   37.6500   31.7220   40.4600 H   0  0  0  0  0  0  0  0  0  0  0  0
   40.5640   29.8700   40.4410 H   0  0  0  0  0  0  0  0  0  0  0  0
   41.5700   30.8980   39.4330 H   0  0  0  0  0  0  0  0  0  0  0  0
   41.3030   31.3000   42.1380 H   0  0  0  0  0  0  0  0  0  0  0  0
   39.1700   33.4840   41.0990 O   0  0  0  0  0  0  0  0  0  0  0  0
   38.6830   33.9370   41.8350 H   0  0  0  0  0  0  0  0  0  0  0  0
   38.7280   29.9790   40.9570 O   0  0  0  0  0  0  0  0  0  0  0  0
   37.0050   28.4150   41.3960 C   0  0  2  0  0  0  0  0  0  0  0  0
   38.1650   27.4130   41.6410 C   0  0  1  0  0  0  0  0  0  0  0  0
   38.3560   27.6260   42.9750 O   0  0  0  0  0  0  0  0  0  0  0  0
   38.4730   29.0270   43.0830 C   0  0  0  0  0  0  0  0  0  0  0  0
   37.7600   29.6400   41.8560 C   0  0  1  0  0  0  0  0  0  0  0  0
   36.7220   28.4340   40.3460 H   0  0  0  0  0  0  0  0  0  0  0  0
   38.9640   27.8130   40.9680 H   0  0  0  0  0  0  0  0  0  0  0  0
   37.9580   29.3630   43.9950 H   0  0  0  0  0  0  0  0  0  0  0  0
   39.5350   29.3300   43.1210 H   0  0  0  0  0  0  0  0  0  0  0  0
   37.0740   30.4590   42.1210 H   0  0  0  0  0  0  0  0  0  0  0  0
   37.6030   23.6650   41.3580 C   0  0  0  0  0  0  0  0  0  0  0  0
   38.1340   24.8510   41.8570 C   0  0  0  0  0  0  0  0  0  0  0  0
   37.7730   26.0480   41.2820 C   0  0  0  0  0  0  0  0  0  0  0  0
   36.8940   25.9920   40.2310 N   0  0  0  0  0  0  0  0  0  0  0  0
   36.3910   24.8360   39.7630 C   0  0  0  0  0  0  0  0  0  0  0  0
   36.7470   23.6730   40.3270 N   0  0  0  0  0  0  0  0  0  0  0  0
   37.9680   22.7990   41.8990 H   0  0  0  0  0  0  0  0  0  0  0  0
   38.8220   24.9560   42.6720 H   0  0  0  0  0  0  0  0  0  0  0  0
   35.7000   24.8150   38.9340 H   0  0  0  0  0  0  0  0  0  0  0  0
   35.9950   28.2190   42.3030 O   0  0  0  0  0  0  0  0  0  0  0  0
   36.1410   27.3270   42.7290 H   0  0  0  0  0  0  0  0  0  0  0  0
   41.5480   32.9320   40.9020 O   0  0  0  0  0  0  0  0  0  0  0  0
   42.1540   33.6510   38.8190 C   0  0  0  0  0  0  0  0  0  0  0  0
   42.5620   33.0190   39.9940 C   0  0  0  0  0  0  0  0  0  0  0  0
   43.8710   32.5890   40.0740 C   0  0  0  0  0  0  0  0  0  0  0  0
   44.1020   32.1110   41.0170 H   0  0  0  0  0  0  0  0  0  0  0  0
   44.7550   32.7730   39.0310 C   0  0  0  0  0  3  0  0  0  0  0  0
   44.3540   33.4060   37.8520 C   0  0  0  0  0  3  0  0  0  0  0  0
   43.0470   33.8400   37.7580 C   0  0  0  0  0  0  0  0  0  0  0  0
   40.8720   34.1480   38.5640 O   0  0  0  0  0  0  0  0  0  0  0  0
   40.1690   34.0640   39.3020 H   0  0  0  0  0  0  0  0  0  0  0  0
   42.6890   34.4590   36.5780 O   0  0  0  0  0  0  0  0  0  0  0  0
   42.2780   33.8920   35.8470 H   0  0  0  0  0  0  0  0  0  0  0  0
  1  6  1  1  0  0  0
  2  7  1  6  0  0  0
  2 13  1  0  0  0  0
  2  1  1  0  0  0  0
  3  4  1  0  0  0  0
  3  2  1  0  0  0  0
  4  8  1  0  0  0  0
  4  5  1  0  0  0  0
  5  1  1  0  0  0  0
  5 10  1  1  0  0  0
  9  4  1  0  0  0  0
 11  1  1  0  0  0  0
 11 12  1  0  0  0  0
 13 18  1  0  0  0  0
 14 19  1  6  0  0  0
 14 15  1  0  0  0  0
 14 18  1  0  0  0  0
 14 33  1  0  0  0  0
 15 20  1  6  0  0  0
 15 16  1  0  0  0  0
 16 17  1  0  0  0  0
 17 22  1  0  0  0  0
 17 21  1  0  0  0  0
 18 23  1  1  0  0  0
 18 17  1  0  0  0  0
 24 25  1  0  0  0  0
 24 30  1  0  0  0  0
 25 31  1  0  0  0  0
 26 15  1  0  0  0  0
 26 25  2  0  0  0  0
 27 26  1  0  0  0  0
 28 27  2  0  0  0  0
 28 29  1  0  0  0  0
 29 24  2  0  0  0  0
 32 28  1  0  0  0  0
 33 34  1  0  0  0  0
 35  5  1  0  0  0  0
 36 37  1  0  0  0  0
 37 38  2  0  0  0  0
 37 35  1  0  0  0  0
 38 39  1  0  0  0  0
 40 38  1  0  0  0  0
 41 40  2  0  0  0  0
 42 41  1  0  0  0  0
 42 36  2  0  0  0  0
 43 36  1  0  0  0  0
 43 44  1  0  0  0  0
 45 42  1  0  0  0  0
 46 45  1  0  0  0  0
M  END
>  <minimizedAffinity>
-6.4195261

$$$$

 OpenBabel03242516363D

 46 49  0  0  1  0  0  0  0  0999 V2000
   37.2810   29.5940   42.3180 C   0  0  1  0  0  0  0  0  0  0  0  0
   38.8190   30.0360   42.1070 C   0  0  1  0  0  0  0  0  0  0  0  0
   39.3390   28.8080   41.9180 O   0  0  0  0  0  0  0  0  0  0  0  0
   38.5790   28.3930   40.7920 C   0  0  0  0  0  0  0  0  0  0  0  0
   37.1740   28.4720   41.3320 C   0  0  1  0  0  0  0  0  0  0  0  0
   36.6490   30.4500   42.1680 H   0  0  0  0  0  0  0  0  0  0  0  0
   38.9480   30.6510   42.9930 H   0  0  0  0  0  0  0  0  0  0  0  0
   38.6770   29.0670   39.9370 H   0  0  0  0  0  0  0  0  0  0  0  0
   38.8630   27.3950   40.4440 H   0  0  0  0  0  0  0  0  0  0  0  0
   36.4400   28.6900   40.5040 H   0  0  0  0  0  0  0  0  0  0  0  0
   37.2620   29.0340   43.6020 O   0  0  0  0  0  0  0  0  0  0  0  0
   36.6150   29.5780   44.1210 H   0  0  0  0  0  0  0  0  0  0  0  0
   38.7860   30.7170   40.8920 O   0  0  0  0  0  0  0  0  0  0  0  0
   39.9320   32.7910   40.8900 C   0  0  2  0  0  0  0  0  0  0  0  0
   40.1690   32.5010   39.3840 C   0  0  1  0  0  0  0  0  0  0  0  0
   39.0470   33.0840   38.8710 O   0  0  0  0  0  0  0  0  0  0  0  0
   37.9980   32.5330   39.6360 C   0  0  0  0  0  0  0  0  0  0  0  0
   38.6080   32.0670   40.9790 C   0  0  1  0  0  0  0  0  0  0  0  0
   40.7190   32.3540   41.4990 H   0  0  0  0  0  0  0  0  0  0  0  0
   40.1870   31.3830   39.3610 H   0  0  0  0  0  0  0  0  0  0  0  0
   37.2500   33.3130   39.8390 H   0  0  0  0  0  0  0  0  0  0  0  0
   37.5220   31.6910   39.1000 H   0  0  0  0  0  0  0  0  0  0  0  0
   38.0270   32.3980   41.8520 H   0  0  0  0  0  0  0  0  0  0  0  0
   43.0560   34.0730   37.4750 C   0  0  0  0  0  0  0  0  0  0  0  0
   41.7930   33.5190   37.6700 C   0  0  0  0  0  0  0  0  0  0  0  0
   41.4330   33.0820   38.9230 C   0  0  0  0  0  0  0  0  0  0  0  0
   42.3630   33.2230   39.9210 N   0  0  0  0  0  0  0  0  0  0  0  0
   43.5780   33.7600   39.7140 C   0  0  0  0  0  0  0  0  0  0  0  0
   43.9230   34.1840   38.4900 N   0  0  0  0  0  0  0  0  0  0  0  0
   43.2100   34.3760   36.4450 H   0  0  0  0  0  0  0  0  0  0  0  0
   41.0280   33.3850   36.9310 H   0  0  0  0  0  0  0  0  0  0  0  0
   44.2960   33.8610   40.5140 H   0  0  0  0  0  0  0  0  0  0  0  0
   39.6600   34.1200   41.0910 O   0  0  0  0  0  0  0  0  0  0  0  0
   39.9300   34.6110   40.2650 H   0  0  0  0  0  0  0  0  0  0  0  0
   36.8570   27.2770   41.9460 O   0  0  0  0  0  0  0  0  0  0  0  0
   38.2700   25.5590   42.4730 C   0  0  0  0  0  0  0  0  0  0  0  0
   37.2650   26.0160   41.6200 C   0  0  0  0  0  0  0  0  0  0  0  0
   36.8420   25.1730   40.6120 C   0  0  0  0  0  0  0  0  0  0  0  0
   36.0620   25.6060   39.9990 H   0  0  0  0  0  0  0  0  0  0  0  0
   37.3890   23.9180   40.4450 C   0  0  0  0  0  3  0  0  0  0  0  0
   38.3950   23.4540   41.2960 C   0  0  0  0  0  3  0  0  0  0  0  0
   38.8280   24.2870   42.3080 C   0  0  0  0  0  0  0  0  0  0  0  0
   38.8190   26.2750   43.5430 O   0  0  0  0  0  0  0  0  0  0  0  0
   38.4460   27.2070   43.7380 H   0  0  0  0  0  0  0  0  0  0  0  0
   39.8230   23.7920   43.1260 O   0  0  0  0  0  0  0  0  0  0  0  0
   40.7850   24.0070   42.8930 H   0  0  0  0  0  0  0  0  0  0  0  0
  1  6  1  6  0  0  0
  1 11  1  0  0  0  0
  2  1  1  0  0  0  0
  2  7  1  1  0  0  0
  3  2  1  0  0  0  0
  4  5  1  0  0  0  0
  4  3  1  0  0  0  0
  5 10  1  6  0  0  0
  5 35  1  0  0  0  0
  5  1  1  0  0  0  0
  8  4  1  0  0  0  0
  9  4  1  0  0  0  0
 11 12  1  0  0  0  0
 13 18  1  0  0  0  0
 13  2  1  0  0  0  0
 14 18  1  0  0  0  0
 14 33  1  0  0  0  0
 14 19  1  1  0  0  0
 15 20  1  6  0  0  0
 15 14  1  0  0  0  0
 16 15  1  0  0  0  0
 16 17  1  0  0  0  0
 17 21  1  0  0  0  0
 17 18  1  0  0  0  0
 18 23  1  1  0  0  0
 22 17  1  0  0  0  0
 24 25  2  0  0  0  0
 24 29  1  0  0  0  0
 25 26  1  0  0  0  0
 26 15  1  0  0  0  0
 26 27  2  0  0  0  0
 28 27  1  0  0  0  0
 28 32  1  0  0  0  0
 29 28  2  0  0  0  0
 30 24  1  0  0  0  0
 31 25  1  0  0  0  0
 34 33  1  0  0  0  0
 36 43  1  0  0  0  0
 37 35  1  0  0  0  0
 37 36  2  0  0  0  0
 38 37  1  0  0  0  0
 39 38  1  0  0  0  0
 40 38  2  0  0  0  0
 40 41  1  0  0  0  0
 41 42  2  0  0  0  0
 42 36  1  0  0  0  0
 42 45  1  0  0  0  0
 43 44  1  0  0  0  0
 46 45  1  0  0  0  0
M  END
>  <minimizedAffinity>
-6.39120007

$$$$

 OpenBabel03242516363D

 46 49  0  0  1  0  0  0  0  0999 V2000
   38.5790   33.3410   40.4430 C   0  0  1  0  0  0  0  0  0  0  0  0
   37.8240   32.1920   39.5990 C   0  0  1  0  0  0  0  0  0  0  0  0
   38.7410   32.0450   38.6240 O   0  0  0  0  0  0  0  0  0  0  0  0
   39.8740   31.6950   39.4070 C   0  0  0  0  0  0  0  0  0  0  0  0
   40.0040   32.9000   40.3030 C   0  0  1  0  0  0  0  0  0  0  0  0
   38.1650   33.3750   41.4350 H   0  0  0  0  0  0  0  0  0  0  0  0
   36.8510   32.6640   39.4900 H   0  0  0  0  0  0  0  0  0  0  0  0
   39.7130   30.8040   40.0200 H   0  0  0  0  0  0  0  0  0  0  0  0
   40.7600   31.5030   38.7940 H   0  0  0  0  0  0  0  0  0  0  0  0
   40.4700   32.6160   41.2900 H   0  0  0  0  0  0  0  0  0  0  0  0
   38.4130   34.4960   39.6670 O   0  0  0  0  0  0  0  0  0  0  0  0
   37.9300   35.1400   40.2470 H   0  0  0  0  0  0  0  0  0  0  0  0
   37.8740   31.0910   40.4520 O   0  0  0  0  0  0  0  0  0  0  0  0
   35.8770   29.8780   40.0620 C   0  0  2  0  0  0  0  0  0  0  0  0
   36.7830   28.6220   40.1630 C   0  0  1  0  0  0  0  0  0  0  0  0
   36.6950   28.3970   41.5060 O   0  0  0  0  0  0  0  0  0  0  0  0
   36.9980   29.6490   42.0800 C   0  0  0  0  0  0  0  0  0  0  0  0
   36.6860   30.7270   41.0150 C   0  0  1  0  0  0  0  0  0  0  0  0
   35.8480   30.2570   39.0440 H   0  0  0  0  0  0  0  0  0  0  0  0
   37.7660   29.0140   39.8010 H   0  0  0  0  0  0  0  0  0  0  0  0
   36.3460   29.8140   42.9510 H   0  0  0  0  0  0  0  0  0  0  0  0
   38.0570   29.6920   42.3930 H   0  0  0  0  0  0  0  0  0  0  0  0
   36.0920   31.5640   41.4120 H   0  0  0  0  0  0  0  0  0  0  0  0
   35.9080   25.3260   38.4830 C   0  0  0  0  0  0  0  0  0  0  0  0
   36.5350   26.1840   39.3830 C   0  0  0  0  0  0  0  0  0  0  0  0
   36.2790   27.5340   39.3200 C   0  0  0  0  0  0  0  0  0  0  0  0
   35.4040   27.9560   38.3520 N   0  0  0  0  0  0  0  0  0  0  0  0
   34.8070   27.1120   37.4920 C   0  0  0  0  0  0  0  0  0  0  0  0
   35.0610   25.7980   37.5580 N   0  0  0  0  0  0  0  0  0  0  0  0
   36.1960   24.2930   38.6420 H   0  0  0  0  0  0  0  0  0  0  0  0
   37.2250   25.9130   40.1570 H   0  0  0  0  0  0  0  0  0  0  0  0
   34.1210   27.4660   36.7370 H   0  0  0  0  0  0  0  0  0  0  0  0
   34.6700   29.6550   40.6730 O   0  0  0  0  0  0  0  0  0  0  0  0
   34.5760   28.6690   40.8050 H   0  0  0  0  0  0  0  0  0  0  0  0
   40.7770   33.8540   39.6700 O   0  0  0  0  0  0  0  0  0  0  0  0
   42.6220   33.8670   38.3220 C   0  0  0  0  0  0  0  0  0  0  0  0
   42.1370   33.9570   39.6260 C   0  0  0  0  0  0  0  0  0  0  0  0
   43.0520   34.1290   40.6450 C   0  0  0  0  0  0  0  0  0  0  0  0
   42.5900   34.1890   41.6220 H   0  0  0  0  0  0  0  0  0  0  0  0
   44.4050   34.2110   40.3920 C   0  0  0  0  0  3  0  0  0  0  0  0
   44.8990   34.1220   39.0870 C   0  0  0  0  0  3  0  0  0  0  0  0
   43.9950   33.9490   38.0600 C   0  0  0  0  0  0  0  0  0  0  0  0
   41.8440   33.6920   37.1720 O   0  0  0  0  0  0  0  0  0  0  0  0
   40.8280   33.6440   37.2830 H   0  0  0  0  0  0  0  0  0  0  0  0
   44.5210   33.8660   36.7870 O   0  0  0  0  0  0  0  0  0  0  0  0
   44.7250   32.9470   36.4130 H   0  0  0  0  0  0  0  0  0  0  0  0
  1  6  1  1  0  0  0
  2  7  1  6  0  0  0
  2  1  1  0  0  0  0
  2 13  1  0  0  0  0
  3  4  1  0  0  0  0
  3  2  1  0  0  0  0
  4  8  1  0  0  0  0
  4  5  1  0  0  0  0
  5  1  1  0  0  0  0
  5 10  1  1  0  0  0
  9  4  1  0  0  0  0
 11 12  1  0  0  0  0
 11  1  1  0  0  0  0
 13 18  1  0  0  0  0
 14 19  1  6  0  0  0
 14 15  1  0  0  0  0
 14 33  1  0  0  0  0
 14 18  1  0  0  0  0
 15 20  1  6  0  0  0
 15 16  1  0  0  0  0
 16 17  1  0  0  0  0
 17 22  1  0  0  0  0
 17 21  1  0  0  0  0
 18 23  1  1  0  0  0
 18 17  1  0  0  0  0
 24 30  1  0  0  0  0
 24 25  1  0  0  0  0
 25 31  1  0  0  0  0
 26 25  2  0  0  0  0
 26 15  1  0  0  0  0
 27 26  1  0  0  0  0
 28 29  1  0  0  0  0
 28 27  2  0  0  0  0
 29 24  2  0  0  0  0
 32 28  1  0  0  0  0
 33 34  1  0  0  0  0
 35  5  1  0  0  0  0
 36 37  1  0  0  0  0
 37 35  1  0  0  0  0
 37 38  2  0  0  0  0
 38 39  1  0  0  0  0
 40 38  1  0  0  0  0
 41 40  2  0  0  0  0
 42 36  2  0  0  0  0
 42 41  1  0  0  0  0
 43 44  1  0  0  0  0
 43 36  1  0  0  0  0
 45 42  1  0  0  0  0
 46 45  1  0  0  0  0
M  END
>  <minimizedAffinity>
-6.34137392

$$$$

 OpenBabel03242516363D

 46 49  0  0  1  0  0  0  0  0999 V2000
   38.5480   32.5040   40.3160 C   0  0  1  0  0  0  0  0  0  0  0  0
   38.6410   31.0580   39.6050 C   0  0  1  0  0  0  0  0  0  0  0  0
   39.9020   31.1590   39.1440 O   0  0  0  0  0  0  0  0  0  0  0  0
   40.5920   31.3720   40.3680 C   0  0  0  0  0  0  0  0  0  0  0  0
   39.9350   32.6340   40.8670 C   0  0  1  0  0  0  0  0  0  0  0  0
   37.7330   32.4950   41.0180 H   0  0  0  0  0  0  0  0  0  0  0  0
   37.7390   31.1000   39.0020 H   0  0  0  0  0  0  0  0  0  0  0  0
   40.4350   30.5710   41.0930 H   0  0  0  0  0  0  0  0  0  0  0  0
   41.6730   31.4650   40.2250 H   0  0  0  0  0  0  0  0  0  0  0  0
   39.9530   32.6750   41.9940 H   0  0  0  0  0  0  0  0  0  0  0  0
   38.4290   33.4000   39.2460 O   0  0  0  0  0  0  0  0  0  0  0  0
   37.5690   33.8730   39.3890 H   0  0  0  0  0  0  0  0  0  0  0  0
   38.6120   30.1740   40.6830 O   0  0  0  0  0  0  0  0  0  0  0  0
   36.6590   28.8350   40.6660 C   0  0  2  0  0  0  0  0  0  0  0  0
   37.5700   27.7400   41.2820 C   0  0  1  0  0  0  0  0  0  0  0  0
   37.3980   28.0310   42.6030 O   0  0  0  0  0  0  0  0  0  0  0  0
   37.6480   29.4170   42.6810 C   0  0  0  0  0  0  0  0  0  0  0  0
   37.3940   30.0070   41.2740 C   0  0  1  0  0  0  0  0  0  0  0  0
   36.6920   28.8040   39.5800 H   0  0  0  0  0  0  0  0  0  0  0  0
   38.5710   28.0020   40.8550 H   0  0  0  0  0  0  0  0  0  0  0  0
   36.9390   29.8720   43.3880 H   0  0  0  0  0  0  0  0  0  0  0  0
   38.6840   29.6110   43.0150 H   0  0  0  0  0  0  0  0  0  0  0  0
   36.7650   30.9100   41.2940 H   0  0  0  0  0  0  0  0  0  0  0  0
   36.6310   24.0660   41.0160 C   0  0  0  0  0  0  0  0  0  0  0  0
   37.1280   25.2270   41.6020 C   0  0  0  0  0  0  0  0  0  0  0  0
   37.1350   26.3990   40.8820 C   0  0  0  0  0  0  0  0  0  0  0  0
   36.6410   26.3450   39.6040 N   0  0  0  0  0  0  0  0  0  0  0  0
   36.1650   25.2140   39.0540 C   0  0  0  0  0  0  0  0  0  0  0  0
   36.1610   24.0760   39.7610 N   0  0  0  0  0  0  0  0  0  0  0  0
   36.6830   23.2180   41.6890 H   0  0  0  0  0  0  0  0  0  0  0  0
   37.5250   25.3290   42.5930 H   0  0  0  0  0  0  0  0  0  0  0  0
   35.7810   25.1950   38.0450 H   0  0  0  0  0  0  0  0  0  0  0  0
   35.4170   28.8140   41.2470 O   0  0  0  0  0  0  0  0  0  0  0  0
   35.3260   27.9470   41.7340 H   0  0  0  0  0  0  0  0  0  0  0  0
   40.5950   33.7270   40.3410 O   0  0  0  0  0  0  0  0  0  0  0  0
   42.1450   33.8320   38.6650 C   0  0  0  0  0  0  0  0  0  0  0  0
   41.9190   33.8600   40.0410 C   0  0  0  0  0  0  0  0  0  0  0  0
   43.0130   34.0100   40.8700 C   0  0  0  0  0  0  0  0  0  0  0  0
   42.7480   34.0210   41.9200 H   0  0  0  0  0  0  0  0  0  0  0  0
   44.2900   34.1290   40.3650 C   0  0  0  0  0  3  0  0  0  0  0  0
   44.5230   34.1020   38.9870 C   0  0  0  0  0  3  0  0  0  0  0  0
   43.4400   33.9520   38.1460 C   0  0  0  0  0  0  0  0  0  0  0  0
   41.1610   33.6870   37.6800 O   0  0  0  0  0  0  0  0  0  0  0  0
   40.1870   33.6140   37.9820 H   0  0  0  0  0  0  0  0  0  0  0  0
   43.7110   33.9300   36.7930 O   0  0  0  0  0  0  0  0  0  0  0  0
   43.8490   33.0310   36.3480 H   0  0  0  0  0  0  0  0  0  0  0  0
  1  5  1  0  0  0  0
  1  6  1  1  0  0  0
  2  7  1  6  0  0  0
  2  1  1  0  0  0  0
  2 13  1  0  0  0  0
  3  2  1  0  0  0  0
  3  4  1  0  0  0  0
  4  5  1  0  0  0  0
  4  8  1  0  0  0  0
  5 10  1  1  0  0  0
  9  4  1  0  0  0  0
 11 12  1  0  0  0  0
 11  1  1  0  0  0  0
 13 18  1  0  0  0  0
 14 19  1  6  0  0  0
 14 33  1  0  0  0  0
 14 18  1  0  0  0  0
 14 15  1  0  0  0  0
 15 20  1  6  0  0  0
 15 16  1  0  0  0  0
 16 17  1  0  0  0  0
 17 22  1  0  0  0  0
 17 21  1  0  0  0  0
 18 23  1  1  0  0  0
 18 17  1  0  0  0  0
 24 25  1  0  0  0  0
 24 30  1  0  0  0  0
 25 31  1  0  0  0  0
 26 15  1  0  0  0  0
 26 25  2  0  0  0  0
 27 26  1  0  0  0  0
 28 27  2  0  0  0  0
 28 29  1  0  0  0  0
 29 24  2  0  0  0  0
 32 28  1  0  0  0  0
 33 34  1  0  0  0  0
 35  5  1  0  0  0  0
 36 37  1  0  0  0  0
 37 35  1  0  0  0  0
 37 38  2  0  0  0  0
 38 39  1  0  0  0  0
 40 38  1  0  0  0  0
 41 40  2  0  0  0  0
 42 36  2  0  0  0  0
 42 41  1  0  0  0  0
 43 44  1  0  0  0  0
 43 36  1  0  0  0  0
 45 42  1  0  0  0  0
 46 45  1  0  0  0  0
M  END
>  <minimizedAffinity>
-6.2703352

$$$$

 OpenBabel03242516363D

 46 49  0  0  1  0  0  0  0  0999 V2000
   37.2120   27.8640   40.1010 C   0  0  1  0  0  0  0  0  0  0  0  0
   36.5580   28.9320   41.1200 C   0  0  1  0  0  0  0  0  0  0  0  0
   36.8610   28.3000   42.2700 O   0  0  0  0  0  0  0  0  0  0  0  0
   38.2750   28.2370   42.1490 C   0  0  0  0  0  0  0  0  0  0  0  0
   38.4330   27.4570   40.8690 C   0  0  1  0  0  0  0  0  0  0  0  0
   37.3590   28.3380   39.1470 H   0  0  0  0  0  0  0  0  0  0  0  0
   35.5690   29.0120   40.6800 H   0  0  0  0  0  0  0  0  0  0  0  0
   38.7390   29.2200   42.0330 H   0  0  0  0  0  0  0  0  0  0  0  0
   38.7460   27.7630   43.0150 H   0  0  0  0  0  0  0  0  0  0  0  0
   39.3900   27.7390   40.3440 H   0  0  0  0  0  0  0  0  0  0  0  0
   36.3180   26.7860   40.1210 O   0  0  0  0  0  0  0  0  0  0  0  0
   36.0080   26.6800   39.1850 H   0  0  0  0  0  0  0  0  0  0  0  0
   37.3810   30.0490   40.9750 O   0  0  0  0  0  0  0  0  0  0  0  0
   37.7150   32.3460   40.5050 C   0  0  2  0  0  0  0  0  0  0  0  0
   38.6750   31.8380   39.3970 C   0  0  1  0  0  0  0  0  0  0  0  0
   37.7830   31.7240   38.3710 O   0  0  0  0  0  0  0  0  0  0  0  0
   36.7260   30.9690   38.9210 C   0  0  0  0  0  0  0  0  0  0  0  0
   36.7810   31.1580   40.4550 C   0  0  1  0  0  0  0  0  0  0  0  0
   38.2370   32.4610   41.4510 H   0  0  0  0  0  0  0  0  0  0  0  0
   39.0400   30.8730   39.8290 H   0  0  0  0  0  0  0  0  0  0  0  0
   35.7690   31.3640   38.5510 H   0  0  0  0  0  0  0  0  0  0  0  0
   36.8210   29.9030   38.6460 H   0  0  0  0  0  0  0  0  0  0  0  0
   35.8010   31.3980   40.8950 H   0  0  0  0  0  0  0  0  0  0  0  0
   41.6740   33.8150   38.1540 C   0  0  0  0  0  0  0  0  0  0  0  0
   40.7490   32.7750   38.2010 C   0  0  0  0  0  0  0  0  0  0  0  0
   39.7680   32.7860   39.1640 C   0  0  0  0  0  0  0  0  0  0  0  0
   39.7650   33.8440   40.0360 N   0  0  0  0  0  0  0  0  0  0  0  0
   40.6670   34.8400   39.9760 C   0  0  0  0  0  0  0  0  0  0  0  0
   41.6210   34.8230   39.0350 N   0  0  0  0  0  0  0  0  0  0  0  0
   42.3900   33.6840   37.3510 H   0  0  0  0  0  0  0  0  0  0  0  0
   40.7020   31.9260   37.5480 H   0  0  0  0  0  0  0  0  0  0  0  0
   40.6470   35.6640   40.6740 H   0  0  0  0  0  0  0  0  0  0  0  0
   36.9920   33.4240   40.0630 O   0  0  0  0  0  0  0  0  0  0  0  0
   37.4390   33.7700   39.2390 H   0  0  0  0  0  0  0  0  0  0  0  0
   38.4300   26.1070   41.1580 O   0  0  0  0  0  0  0  0  0  0  0  0
   38.3460   23.8390   40.8840 C   0  0  0  0  0  0  0  0  0  0  0  0
   38.7480   25.0600   40.3430 C   0  0  0  0  0  0  0  0  0  0  0  0
   39.3820   25.0440   39.1160 C   0  0  0  0  0  0  0  0  0  0  0  0
   39.6590   26.0320   38.7710 H   0  0  0  0  0  0  0  0  0  0  0  0
   39.6150   23.8640   38.4410 C   0  0  0  0  0  3  0  0  0  0  0  0
   39.2150   22.6370   38.9770 C   0  0  0  0  0  3  0  0  0  0  0  0
   38.5810   22.6390   40.2030 C   0  0  0  0  0  0  0  0  0  0  0  0
   37.6940   23.6660   42.1100 O   0  0  0  0  0  0  0  0  0  0  0  0
   37.4710   24.5010   42.6570 H   0  0  0  0  0  0  0  0  0  0  0  0
   38.2010   21.4090   40.6990 O   0  0  0  0  0  0  0  0  0  0  0  0
   38.8380   20.9280   41.3220 H   0  0  0  0  0  0  0  0  0  0  0  0
  1  6  1  6  0  0  0
  1 11  1  0  0  0  0
  1  5  1  0  0  0  0
  1  2  1  0  0  0  0
  2  7  1  6  0  0  0
  2  3  1  0  0  0  0
  4  3  1  0  0  0  0
  4  9  1  0  0  0  0
  5 10  1  6  0  0  0
  5 35  1  0  0  0  0
  5  4  1  0  0  0  0
  8  4  1  0  0  0  0
 12 11  1  0  0  0  0
 13  2  1  0  0  0  0
 14 19  1  1  0  0  0
 15 20  1  1  0  0  0
 15 14  1  0  0  0  0
 16 17  1  0  0  0  0
 16 15  1  0  0  0  0
 17 18  1  0  0  0  0
 18 14  1  0  0  0  0
 18 23  1  1  0  0  0
 18 13  1  0  0  0  0
 21 17  1  0  0  0  0
 22 17  1  0  0  0  0
 24 25  2  0  0  0  0
 24 29  1  0  0  0  0
 25 26  1  0  0  0  0
 26 15  1  0  0  0  0
 26 27  2  0  0  0  0
 28 27  1  0  0  0  0
 28 32  1  0  0  0  0
 29 28  2  0  0  0  0
 30 24  1  0  0  0  0
 31 25  1  0  0  0  0
 33 14  1  0  0  0  0
 34 33  1  0  0  0  0
 36 43  1  0  0  0  0
 37 36  1  0  0  0  0
 37 35  1  0  0  0  0
 38 37  2  0  0  0  0
 39 38  1  0  0  0  0
 40 41  2  0  0  0  0
 40 38  1  0  0  0  0
 41 42  1  0  0  0  0
 42 45  1  0  0  0  0
 42 36  2  0  0  0  0
 43 44  1  0  0  0  0
 45 46  1  0  0  0  0
M  END
>  <minimizedAffinity>
-6.22397566

$$$$

 OpenBabel03242516363D

 46 49  0  0  1  0  0  0  0  0999 V2000
   37.5350   29.4880   39.8640 C   0  0  1  0  0  0  0  0  0  0  0  0
   36.6080   30.6640   40.4670 C   0  0  1  0  0  0  0  0  0  0  0  0
   36.1990   30.0240   41.5790 O   0  0  0  0  0  0  0  0  0  0  0  0
   37.4570   29.7580   42.1830 C   0  0  0  0  0  0  0  0  0  0  0  0
   38.1320   28.9300   41.1190 C   0  0  1  0  0  0  0  0  0  0  0  0
   38.2070   29.9110   39.1390 H   0  0  0  0  0  0  0  0  0  0  0  0
   35.9980   30.8720   39.5930 H   0  0  0  0  0  0  0  0  0  0  0  0
   38.0440   30.6610   42.3660 H   0  0  0  0  0  0  0  0  0  0  0  0
   37.3560   29.2440   43.1440 H   0  0  0  0  0  0  0  0  0  0  0  0
   39.2520   29.0600   41.1630 H   0  0  0  0  0  0  0  0  0  0  0  0
   36.6170   28.5490   39.3760 O   0  0  0  0  0  0  0  0  0  0  0  0
   36.8110   28.4640   38.4070 H   0  0  0  0  0  0  0  0  0  0  0  0
   37.5330   31.6480   40.8120 O   0  0  0  0  0  0  0  0  0  0  0  0
   38.7520   33.5780   40.1820 C   0  0  2  0  0  0  0  0  0  0  0  0
   39.5750   32.6010   39.2990 C   0  0  1  0  0  0  0  0  0  0  0  0
   38.8300   32.6590   38.1580 O   0  0  0  0  0  0  0  0  0  0  0  0
   37.5120   32.4210   38.6000 C   0  0  0  0  0  0  0  0  0  0  0  0
   37.4560   32.8060   40.0960 C   0  0  1  0  0  0  0  0  0  0  0  0
   39.1670   33.6410   41.1840 H   0  0  0  0  0  0  0  0  0  0  0  0
   39.5010   31.6460   39.8770 H   0  0  0  0  0  0  0  0  0  0  0  0
   36.8210   33.0700   38.0420 H   0  0  0  0  0  0  0  0  0  0  0  0
   37.2340   31.3620   38.4480 H   0  0  0  0  0  0  0  0  0  0  0  0
   36.5930   33.4420   40.3450 H   0  0  0  0  0  0  0  0  0  0  0  0
   43.2110   33.6220   39.7320 C   0  0  0  0  0  0  0  0  0  0  0  0
   41.9390   33.2030   40.1130 C   0  0  0  0  0  0  0  0  0  0  0  0
   40.9620   33.0540   39.1570 C   0  0  0  0  0  0  0  0  0  0  0  0
   41.3120   33.3350   37.8610 N   0  0  0  0  0  0  0  0  0  0  0  0
   42.5460   33.7390   37.5120 C   0  0  0  0  0  0  0  0  0  0  0  0
   43.4940   33.8830   38.4480 N   0  0  0  0  0  0  0  0  0  0  0  0
   43.8830   33.6980   40.5800 H   0  0  0  0  0  0  0  0  0  0  0  0
   41.6090   32.9690   41.1060 H   0  0  0  0  0  0  0  0  0  0  0  0
   42.8010   33.9560   36.4850 H   0  0  0  0  0  0  0  0  0  0  0  0
   38.5410   34.7630   39.5250 O   0  0  0  0  0  0  0  0  0  0  0  0
   39.1770   34.8000   38.7560 H   0  0  0  0  0  0  0  0  0  0  0  0
   37.8010   27.6020   41.3000 O   0  0  0  0  0  0  0  0  0  0  0  0
   38.2050   25.3610   41.4960 C   0  0  0  0  0  0  0  0  0  0  0  0
   38.4840   26.6380   41.9820 C   0  0  0  0  0  0  0  0  0  0  0  0
   39.3700   26.7490   43.0350 C   0  0  0  0  0  0  0  0  0  0  0  0
   39.5290   27.7730   43.3480 H   0  0  0  0  0  0  0  0  0  0  0  0
   39.9650   25.6380   43.5960 C   0  0  0  0  0  3  0  0  0  0  0  0
   39.6890   24.3550   43.1140 C   0  0  0  0  0  3  0  0  0  0  0  0
   38.8050   24.2310   42.0620 C   0  0  0  0  0  0  0  0  0  0  0  0
   37.3370   25.0620   40.4410 O   0  0  0  0  0  0  0  0  0  0  0  0
   36.8750   25.8410   39.9640 H   0  0  0  0  0  0  0  0  0  0  0  0
   38.5600   22.9480   41.6150 O   0  0  0  0  0  0  0  0  0  0  0  0
   37.7650   22.4520   42.0010 H   0  0  0  0  0  0  0  0  0  0  0  0
  1  6  1  6  0  0  0
  1  2  1  0  0  0  0
  1  5  1  0  0  0  0
  2  7  1  6  0  0  0
  2 13  1  0  0  0  0
  2  3  1  0  0  0  0
  3  4  1  0  0  0  0
  4  8  1  0  0  0  0
  4  9  1  0  0  0  0
  5 10  1  1  0  0  0
  5 35  1  0  0  0  0
  5  4  1  0  0  0  0
 11  1  1  0  0  0  0
 12 11  1  0  0  0  0
 14 19  1  1  0  0  0
 15 20  1  1  0  0  0
 15 14  1  0  0  0  0
 16 17  1  0  0  0  0
 16 15  1  0  0  0  0
 17 18  1  0  0  0  0
 18 14  1  0  0  0  0
 18 23  1  1  0  0  0
 18 13  1  0  0  0  0
 21 17  1  0  0  0  0
 22 17  1  0  0  0  0
 24 25  1  0  0  0  0
 24 30  1  0  0  0  0
 25 31  1  0  0  0  0
 26 15  1  0  0  0  0
 26 25  2  0  0  0  0
 27 26  1  0  0  0  0
 28 27  2  0  0  0  0
 28 29  1  0  0  0  0
 29 24  2  0  0  0  0
 32 28  1  0  0  0  0
 33 14  1  0  0  0  0
 34 33  1  0  0  0  0
 35 37  1  0  0  0  0
 36 37  2  0  0  0  0
 36 42  1  0  0  0  0
 37 38  1  0  0  0  0
 38 39  1  0  0  0  0
 38 40  2  0  0  0  0
 41 40  1  0  0  0  0
 42 41  2  0  0  0  0
 43 36  1  0  0  0  0
 44 43  1  0  0  0  0
 45 46  1  0  0  0  0
 45 42  1  0  0  0  0
M  END
>  <minimizedAffinity>
-6.19971943

$$$$

 OpenBabel03242516363D

 46 49  0  0  1  0  0  0  0  0999 V2000
   38.3730   28.7440   40.4820 C   0  0  1  0  0  0  0  0  0  0  0  0
   36.9470   29.4360   40.7860 C   0  0  1  0  0  0  0  0  0  0  0  0
   36.6770   28.8020   41.9430 O   0  0  0  0  0  0  0  0  0  0  0  0
   37.8100   29.1920   42.7050 C   0  0  0  0  0  0  0  0  0  0  0  0
   38.9380   28.6480   41.8660 C   0  0  1  0  0  0  0  0  0  0  0  0
   38.9060   29.3450   39.7670 H   0  0  0  0  0  0  0  0  0  0  0  0
   36.4570   29.2570   39.8340 H   0  0  0  0  0  0  0  0  0  0  0  0
   37.9150   30.2770   42.7930 H   0  0  0  0  0  0  0  0  0  0  0  0
   37.7850   28.7910   43.7230 H   0  0  0  0  0  0  0  0  0  0  0  0
   39.8700   29.2700   41.9990 H   0  0  0  0  0  0  0  0  0  0  0  0
   38.0390   27.4480   40.0680 O   0  0  0  0  0  0  0  0  0  0  0  0
   38.4060   27.3580   39.1510 H   0  0  0  0  0  0  0  0  0  0  0  0
   37.2900   30.7600   41.0540 O   0  0  0  0  0  0  0  0  0  0  0  0
   37.6950   32.8890   40.0970 C   0  0  2  0  0  0  0  0  0  0  0  0
   38.8270   32.1700   39.3160 C   0  0  1  0  0  0  0  0  0  0  0  0
   38.1180   31.7760   38.2190 O   0  0  0  0  0  0  0  0  0  0  0  0
   36.9860   31.1320   38.7600 C   0  0  0  0  0  0  0  0  0  0  0  0
   36.7840   31.6860   40.1890 C   0  0  1  0  0  0  0  0  0  0  0  0
   38.0530   33.2500   41.0580 H   0  0  0  0  0  0  0  0  0  0  0  0
   39.1170   31.3530   40.0230 H   0  0  0  0  0  0  0  0  0  0  0  0
   36.1020   31.3870   38.1550 H   0  0  0  0  0  0  0  0  0  0  0  0
   37.1260   30.0360   38.7720 H   0  0  0  0  0  0  0  0  0  0  0  0
   35.7450   31.9840   40.3930 H   0  0  0  0  0  0  0  0  0  0  0  0
   41.4680   34.9030   39.2780 C   0  0  0  0  0  0  0  0  0  0  0  0
   40.3440   34.2080   39.7150 C   0  0  0  0  0  0  0  0  0  0  0  0
   39.9420   33.0800   39.0380 C   0  0  0  0  0  0  0  0  0  0  0  0
   40.6910   32.7070   37.9510 N   0  0  0  0  0  0  0  0  0  0  0  0
   41.7740   33.3920   37.5440 C   0  0  0  0  0  0  0  0  0  0  0  0
   42.1610   34.4900   38.2080 N   0  0  0  0  0  0  0  0  0  0  0  0
   41.6750   35.7690   39.8970 H   0  0  0  0  0  0  0  0  0  0  0  0
   39.7220   34.4510   40.5530 H   0  0  0  0  0  0  0  0  0  0  0  0
   42.3500   33.0800   36.6850 H   0  0  0  0  0  0  0  0  0  0  0  0
   37.0550   33.7980   39.2950 O   0  0  0  0  0  0  0  0  0  0  0  0
   37.6320   33.9540   38.4950 H   0  0  0  0  0  0  0  0  0  0  0  0
   39.1840   27.3400   42.2300 O   0  0  0  0  0  0  0  0  0  0  0  0
   41.0440   26.1270   41.6870 C   0  0  0  0  0  0  0  0  0  0  0  0
   40.3430   26.7880   42.6950 C   0  0  0  0  0  0  0  0  0  0  0  0
   40.8880   26.7930   43.9630 C   0  0  0  0  0  0  0  0  0  0  0  0
   40.2790   27.3260   44.6820 H   0  0  0  0  0  0  0  0  0  0  0  0
   42.0870   26.1670   44.2350 C   0  0  0  0  0  3  0  0  0  0  0  0
   42.7950   25.5040   43.2290 C   0  0  0  0  0  3  0  0  0  0  0  0
   42.2610   25.4910   41.9570 C   0  0  0  0  0  0  0  0  0  0  0  0
   40.6440   26.0210   40.3500 O   0  0  0  0  0  0  0  0  0  0  0  0
   39.7730   26.4790   40.0720 H   0  0  0  0  0  0  0  0  0  0  0  0
   42.9900   24.8260   40.9920 O   0  0  0  0  0  0  0  0  0  0  0  0
   42.7700   23.8540   40.8130 H   0  0  0  0  0  0  0  0  0  0  0  0
  1  6  1  6  0  0  0
  1  2  1  0  0  0  0
  1  5  1  0  0  0  0
  2  7  1  6  0  0  0
  2 13  1  0  0  0  0
  2  3  1  0  0  0  0
  3  4  1  0  0  0  0
  4  8  1  0  0  0  0
  4  9  1  0  0  0  0
  5 10  1  1  0  0  0
  5 35  1  0  0  0  0
  5  4  1  0  0  0  0
 11  1  1  0  0  0  0
 12 11  1  0  0  0  0
 14 18  1  0  0  0  0
 14 19  1  1  0  0  0
 15 20  1  1  0  0  0
 15 14  1  0  0  0  0
 16 17  1  0  0  0  0
 16 15  1  0  0  0  0
 17 22  1  0  0  0  0
 17 18  1  0  0  0  0
 18 23  1  1  0  0  0
 18 13  1  0  0  0  0
 21 17  1  0  0  0  0
 24 25  1  0  0  0  0
 24 30  1  0  0  0  0
 25 31  1  0  0  0  0
 26 15  1  0  0  0  0
 26 25  2  0  0  0  0
 27 26  1  0  0  0  0
 28 27  2  0  0  0  0
 28 29  1  0  0  0  0
 29 24  2  0  0  0  0
 32 28  1  0  0  0  0
 33 14  1  0  0  0  0
 34 33  1  0  0  0  0
 35 37  1  0  0  0  0
 36 42  2  0  0  0  0
 36 37  1  0  0  0  0
 37 38  2  0  0  0  0
 38 40  1  0  0  0  0
 38 39  1  0  0  0  0
 41 40  2  0  0  0  0
 42 41  1  0  0  0  0
 43 36  1  0  0  0  0
 44 43  1  0  0  0  0
 45 42  1  0  0  0  0
 46 45  1  0  0  0  0
M  END
>  <minimizedAffinity>
-6.13997221

$$$$
