
 OpenBabel03242512463D

 40 42  0  0  1  0  0  0  0  0999 V2000
   42.3170   27.5060   42.6110 C   0  0  0  0  0  0  0  0  0  0  0  0
   42.0910   28.8380   42.9860 C   0  0  0  0  0  0  0  0  0  0  0  0
   40.7840   29.3230   42.8570 C   0  0  0  0  0  0  0  0  0  0  0  0
   39.8190   28.4770   42.3780 N   0  0  0  0  0  0  0  0  0  0  0  0
   40.0920   27.2260   42.0390 C   0  0  0  0  0  0  0  0  0  0  0  0
   41.3360   26.7360   42.1520 N   0  0  0  0  0  0  0  0  0  0  0  0
   38.9990   26.3970   41.5570 N   0  0  0  0  0  0  0  0  0  0  0  0
   39.3140   25.3320   40.6410 C   0  0  0  0  0  0  0  0  0  0  0  0
   38.4620   24.1640   40.8770 C   0  0  0  0  0  0  0  0  0  0  0  0
   37.5980   24.1510   42.0970 C   0  0  0  0  0  0  0  0  0  0  0  0
   36.9540   25.4580   42.4220 C   0  0  0  0  0  0  0  0  0  0  0  0
   37.6730   26.6840   42.0580 C   0  0  2  0  0  0  0  0  0  0  0  0
   42.8720   29.4810   43.3610 H   0  0  0  0  0  0  0  0  0  0  0  0
   40.5310   30.3410   43.1260 H   0  0  0  0  0  0  0  0  0  0  0  0
   39.2980   25.7180   39.6180 H   0  0  0  0  0  0  0  0  0  0  0  0
   40.4060   25.0590   40.8090 H   0  0  0  0  0  0  0  0  0  0  0  0
   37.7850   23.9930   39.9930 H   0  0  0  0  0  0  0  0  0  0  0  0
   39.0730   23.2320   40.9200 H   0  0  0  0  0  0  0  0  0  0  0  0
   38.2380   23.8560   42.9560 H   0  0  0  0  0  0  0  0  0  0  0  0
   36.8390   23.3600   41.9660 H   0  0  0  0  0  0  0  0  0  0  0  0
   36.6350   25.4240   43.4830 H   0  0  0  0  0  0  0  0  0  0  0  0
   35.9780   25.4610   41.8500 H   0  0  0  0  0  0  0  0  0  0  0  0
   37.7990   27.2820   43.0250 H   0  0  0  0  0  0  0  0  0  0  0  0
   36.5850   28.8740   41.5760 C   0  0  0  0  0  0  0  0  0  0  0  0
   36.9430   27.5820   41.1560 C   0  0  0  0  0  0  0  0  0  0  0  0
   36.5020   27.3540   39.8750 C   0  0  0  0  0  0  0  0  0  0  0  0
   36.7060   26.3910   39.4380 H   0  0  0  0  0  0  0  0  0  0  0  0
   35.8070   28.2290   39.0740 C   0  0  0  0  0  3  0  0  0  0  0  0
   35.5040   29.4740   39.5790 C   0  0  0  0  0  3  0  0  0  0  0  0
   35.8970   29.8130   40.8550 C   0  0  0  0  0  0  0  0  0  0  0  0
   36.9570   29.2720   42.8600 O   0  0  0  0  0  0  0  0  0  0  0  0
   37.6790   29.9930   42.9650 H   0  0  0  0  0  0  0  0  0  0  0  0
   35.5950   31.0630   41.3690 O   0  0  0  0  0  0  0  0  0  0  0  0
   35.7940   31.9260   40.8440 H   0  0  0  0  0  0  0  0  0  0  0  0
   43.6090   27.0840   42.7570 O   0  0  0  0  0  0  0  0  0  0  0  0
   44.0020   25.8570   43.2650 C   0  0  0  0  0  0  0  0  0  0  0  0
   45.1880   25.5620   43.5940 O   0  0  0  0  0  0  0  0  0  0  0  0
   43.1250   24.7750   43.4780 N   0  0  0  0  0  0  0  0  0  0  0  0
   42.5480   24.1680   44.0810 H   0  0  0  0  0  0  0  0  0  0  0  0
   42.8130   24.1890   42.6630 H   0  0  0  0  0  0  0  0  0  0  0  0
  1 35  1  0  0  0  0
  1  2  1  0  0  0  0
  2 13  1  0  0  0  0
  3  2  2  0  0  0  0
  3 14  1  0  0  0  0
  4  3  1  0  0  0  0
  5  6  1  0  0  0  0
  5  4  2  0  0  0  0
  6  1  2  0  0  0  0
  7  5  1  0  0  0  0
  7 12  1  0  0  0  0
  8 16  1  0  0  0  0
  8  9  1  0  0  0  0
  8  7  1  0  0  0  0
  9 18  1  0  0  0  0
  9 10  1  0  0  0  0
 10 11  1  0  0  0  0
 10 19  1  0  0  0  0
 11 21  1  0  0  0  0
 12 11  1  0  0  0  0
 12 23  1  1  0  0  0
 15  8  1  0  0  0  0
 17  9  1  0  0  0  0
 20 10  1  0  0  0  0
 22 11  1  0  0  0  0
 24 31  1  0  0  0  0
 25 24  1  0  0  0  0
 25 12  1  0  0  0  0
 26 25  2  0  0  0  0
 27 26  1  0  0  0  0
 28 29  2  0  0  0  0
 28 26  1  0  0  0  0
 29 30  1  0  0  0  0
 30 33  1  0  0  0  0
 30 24  2  0  0  0  0
 31 32  1  0  0  0  0
 34 33  1  0  0  0  0
 35 36  1  0  0  0  0
 36 38  1  0  0  0  0
 36 37  2  0  0  0  0
 38 39  1  0  0  0  0
 40 38  1  0  0  0  0
M  END
>  <minimizedAffinity>
-6.77042055

$$$$

 OpenBabel03242512463D

 40 42  0  0  1  0  0  0  0  0999 V2000
   37.2270   25.8960   42.0740 C   0  0  0  0  0  0  0  0  0  0  0  0
   37.4630   26.8750   43.0490 C   0  0  0  0  0  0  0  0  0  0  0  0
   37.2690   28.2100   42.6710 C   0  0  0  0  0  0  0  0  0  0  0  0
   36.8660   28.4720   41.3890 N   0  0  0  0  0  0  0  0  0  0  0  0
   36.6580   27.5030   40.5090 C   0  0  0  0  0  0  0  0  0  0  0  0
   36.8370   26.2170   40.8450 N   0  0  0  0  0  0  0  0  0  0  0  0
   36.2140   27.8770   39.1760 N   0  0  0  0  0  0  0  0  0  0  0  0
   36.5650   27.0110   38.0810 C   0  0  0  0  0  0  0  0  0  0  0  0
   35.4920   26.9600   37.0840 C   0  0  0  0  0  0  0  0  0  0  0  0
   34.1790   27.5880   37.4230 C   0  0  0  0  0  0  0  0  0  0  0  0
   34.2750   28.8850   38.1560 C   0  0  0  0  0  0  0  0  0  0  0  0
   35.4230   29.0810   39.0500 C   0  0  2  0  0  0  0  0  0  0  0  0
   37.7810   26.6380   44.0520 H   0  0  0  0  0  0  0  0  0  0  0  0
   37.4310   29.0220   43.3680 H   0  0  0  0  0  0  0  0  0  0  0  0
   37.5460   27.2990   37.6920 H   0  0  0  0  0  0  0  0  0  0  0  0
   36.7410   25.9750   38.5180 H   0  0  0  0  0  0  0  0  0  0  0  0
   35.8390   27.4230   36.1180 H   0  0  0  0  0  0  0  0  0  0  0  0
   35.2680   25.9050   36.8010 H   0  0  0  0  0  0  0  0  0  0  0  0
   33.6200   26.8700   38.0590 H   0  0  0  0  0  0  0  0  0  0  0  0
   33.6090   27.7080   36.4840 H   0  0  0  0  0  0  0  0  0  0  0  0
   33.2950   29.0760   38.6370 H   0  0  0  0  0  0  0  0  0  0  0  0
   34.3370   29.6780   37.3540 H   0  0  0  0  0  0  0  0  0  0  0  0
   34.9900   29.3110   40.0840 H   0  0  0  0  0  0  0  0  0  0  0  0
   36.4280   31.2770   39.6640 C   0  0  0  0  0  0  0  0  0  0  0  0
   36.2610   30.2420   38.7300 C   0  0  0  0  0  0  0  0  0  0  0  0
   36.9550   30.5180   37.5770 C   0  0  0  0  0  0  0  0  0  0  0  0
   36.9000   29.8030   36.7740 H   0  0  0  0  0  0  0  0  0  0  0  0
   37.7190   31.6330   37.3210 C   0  0  0  0  0  3  0  0  0  0  0  0
   37.8200   32.5920   38.3050 C   0  0  0  0  0  3  0  0  0  0  0  0
   37.1650   32.4200   39.5040 C   0  0  0  0  0  0  0  0  0  0  0  0
   35.7880   31.1570   40.8970 O   0  0  0  0  0  0  0  0  0  0  0  0
   36.3560   31.0000   41.7370 H   0  0  0  0  0  0  0  0  0  0  0  0
   37.2620   33.3810   40.4960 O   0  0  0  0  0  0  0  0  0  0  0  0
   38.1720   33.7580   40.7980 H   0  0  0  0  0  0  0  0  0  0  0  0
   37.4310   24.6120   42.4950 O   0  0  0  0  0  0  0  0  0  0  0  0
   38.5510   23.8440   42.2240 C   0  0  0  0  0  0  0  0  0  0  0  0
   38.7570   23.2310   41.1360 O   0  0  0  0  0  0  0  0  0  0  0  0
   39.6090   23.6450   43.1340 N   0  0  0  0  0  0  0  0  0  0  0  0
   40.5590   23.8330   43.4900 H   0  0  0  0  0  0  0  0  0  0  0  0
   39.4940   22.9610   43.9240 H   0  0  0  0  0  0  0  0  0  0  0  0
  1 35  1  0  0  0  0
  1  2  1  0  0  0  0
  2 13  1  0  0  0  0
  3  2  2  0  0  0  0
  3 14  1  0  0  0  0
  4  3  1  0  0  0  0
  5  6  1  0  0  0  0
  5  4  2  0  0  0  0
  6  1  2  0  0  0  0
  7  5  1  0  0  0  0
  8 16  1  0  0  0  0
  8  7  1  0  0  0  0
  9 10  1  0  0  0  0
  9  8  1  0  0  0  0
 10 19  1  0  0  0  0
 10 11  1  0  0  0  0
 11 21  1  0  0  0  0
 11 12  1  0  0  0  0
 12  7  1  0  0  0  0
 12 23  1  1  0  0  0
 15  8  1  0  0  0  0
 17  9  1  0  0  0  0
 18  9  1  0  0  0  0
 20 10  1  0  0  0  0
 22 11  1  0  0  0  0
 24 31  1  0  0  0  0
 25 12  1  0  0  0  0
 25 24  2  0  0  0  0
 26 25  1  0  0  0  0
 27 26  1  0  0  0  0
 28 26  2  0  0  0  0
 28 29  1  0  0  0  0
 29 30  2  0  0  0  0
 30 24  1  0  0  0  0
 30 33  1  0  0  0  0
 31 32  1  0  0  0  0
 33 34  1  0  0  0  0
 36 35  1  0  0  0  0
 36 38  1  0  0  0  0
 37 36  2  0  0  0  0
 38 39  1  0  0  0  0
 38 40  1  0  0  0  0
M  END
>  <minimizedAffinity>
-6.75157881

$$$$

 OpenBabel03242512463D

 40 42  0  0  1  0  0  0  0  0999 V2000
   37.1500   26.4590   41.9070 C   0  0  0  0  0  0  0  0  0  0  0  0
   37.0430   27.2980   43.0250 C   0  0  0  0  0  0  0  0  0  0  0  0
   37.1950   28.6730   42.8060 C   0  0  0  0  0  0  0  0  0  0  0  0
   37.4350   29.1070   41.5290 N   0  0  0  0  0  0  0  0  0  0  0  0
   37.5260   28.2650   40.5100 C   0  0  0  0  0  0  0  0  0  0  0  0
   37.3850   26.9430   40.6930 N   0  0  0  0  0  0  0  0  0  0  0  0
   37.7660   28.8200   39.1880 N   0  0  0  0  0  0  0  0  0  0  0  0
   38.4610   28.0010   38.2290 C   0  0  0  0  0  0  0  0  0  0  0  0
   37.9430   28.2180   36.8760 C   0  0  0  0  0  0  0  0  0  0  0  0
   36.6990   29.0320   36.7140 C   0  0  0  0  0  0  0  0  0  0  0  0
   36.6130   30.2270   37.6050 C   0  0  0  0  0  0  0  0  0  0  0  0
   37.2600   30.1480   38.9200 C   0  0  2  0  0  0  0  0  0  0  0  0
   36.8520   26.9260   44.0200 H   0  0  0  0  0  0  0  0  0  0  0  0
   37.1260   29.3840   43.6190 H   0  0  0  0  0  0  0  0  0  0  0  0
   39.5390   28.1480   38.3420 H   0  0  0  0  0  0  0  0  0  0  0  0
   38.3020   26.9170   38.5380 H   0  0  0  0  0  0  0  0  0  0  0  0
   38.7330   28.6940   36.2300 H   0  0  0  0  0  0  0  0  0  0  0  0
   37.7450   27.2450   36.3690 H   0  0  0  0  0  0  0  0  0  0  0  0
   35.8360   28.3690   36.9370 H   0  0  0  0  0  0  0  0  0  0  0  0
   36.6230   29.3260   35.6530 H   0  0  0  0  0  0  0  0  0  0  0  0
   35.5510   30.5420   37.6460 H   0  0  0  0  0  0  0  0  0  0  0  0
   37.1170   31.0620   37.0340 H   0  0  0  0  0  0  0  0  0  0  0  0
   36.4450   30.3610   39.6930 H   0  0  0  0  0  0  0  0  0  0  0  0
   38.0620   32.1860   40.1090 C   0  0  0  0  0  0  0  0  0  0  0  0
   38.2840   31.1700   39.1650 C   0  0  0  0  0  0  0  0  0  0  0  0
   39.5140   31.3240   38.5730 C   0  0  0  0  0  0  0  0  0  0  0  0
   39.8020   30.6110   37.8200 H   0  0  0  0  0  0  0  0  0  0  0  0
   40.4350   32.3120   38.8310 C   0  0  0  0  0  3  0  0  0  0  0  0
   40.1220   33.2640   39.7770 C   0  0  0  0  0  3  0  0  0  0  0  0
   38.9130   33.2080   40.4350 C   0  0  0  0  0  0  0  0  0  0  0  0
   36.8540   32.1800   40.8060 O   0  0  0  0  0  0  0  0  0  0  0  0
   36.8620   31.9570   41.8080 H   0  0  0  0  0  0  0  0  0  0  0  0
   38.5920   34.1610   41.3860 O   0  0  0  0  0  0  0  0  0  0  0  0
   39.2420   34.4080   42.1460 H   0  0  0  0  0  0  0  0  0  0  0  0
   36.9930   25.1280   42.1770 O   0  0  0  0  0  0  0  0  0  0  0  0
   37.9610   24.1520   42.0050 C   0  0  0  0  0  0  0  0  0  0  0  0
   37.9550   23.2880   41.0800 O   0  0  0  0  0  0  0  0  0  0  0  0
   39.0800   23.9970   42.8460 N   0  0  0  0  0  0  0  0  0  0  0  0
   40.0820   24.1080   43.0690 H   0  0  0  0  0  0  0  0  0  0  0  0
   38.9680   23.5340   43.7830 H   0  0  0  0  0  0  0  0  0  0  0  0
  1 35  1  0  0  0  0
  1  2  1  0  0  0  0
  2 13  1  0  0  0  0
  3  2  2  0  0  0  0
  3 14  1  0  0  0  0
  4  3  1  0  0  0  0
  5  6  1  0  0  0  0
  5  4  2  0  0  0  0
  6  1  2  0  0  0  0
  7  5  1  0  0  0  0
  8 15  1  0  0  0  0
  8 16  1  0  0  0  0
  8  7  1  0  0  0  0
  9  8  1  0  0  0  0
 10  9  1  0  0  0  0
 10 19  1  0  0  0  0
 10 11  1  0  0  0  0
 11 21  1  0  0  0  0
 11 12  1  0  0  0  0
 12 25  1  0  0  0  0
 12  7  1  0  0  0  0
 12 23  1  1  0  0  0
 17  9  1  0  0  0  0
 18  9  1  0  0  0  0
 20 10  1  0  0  0  0
 22 11  1  0  0  0  0
 24 30  1  0  0  0  0
 24 31  1  0  0  0  0
 25 24  2  0  0  0  0
 26 28  2  0  0  0  0
 26 25  1  0  0  0  0
 27 26  1  0  0  0  0
 28 29  1  0  0  0  0
 29 30  2  0  0  0  0
 30 33  1  0  0  0  0
 31 32  1  0  0  0  0
 33 34  1  0  0  0  0
 36 35  1  0  0  0  0
 36 38  1  0  0  0  0
 37 36  2  0  0  0  0
 38 39  1  0  0  0  0
 38 40  1  0  0  0  0
M  END
>  <minimizedAffinity>
-6.47083807

$$$$

 OpenBabel03242512463D

 40 42  0  0  1  0  0  0  0  0999 V2000
   36.3640   29.8970   36.0620 C   0  0  0  0  0  0  0  0  0  0  0  0
   35.3470   29.1220   36.6360 C   0  0  0  0  0  0  0  0  0  0  0  0
   35.3530   28.9970   38.0310 C   0  0  0  0  0  0  0  0  0  0  0  0
   36.3390   29.6320   38.7380 N   0  0  0  0  0  0  0  0  0  0  0  0
   37.2770   30.3520   38.1390 C   0  0  0  0  0  0  0  0  0  0  0  0
   37.2940   30.4870   36.8050 N   0  0  0  0  0  0  0  0  0  0  0  0
   38.2720   31.0040   38.9740 N   0  0  0  0  0  0  0  0  0  0  0  0
   39.5750   31.2400   38.4090 C   0  0  0  0  0  0  0  0  0  0  0  0
   40.1380   32.5050   38.8900 C   0  0  0  0  0  0  0  0  0  0  0  0
   39.2520   33.4240   39.6680 C   0  0  0  0  0  0  0  0  0  0  0  0
   38.3440   32.7460   40.6400 C   0  0  0  0  0  0  0  0  0  0  0  0
   37.8710   31.3970   40.3070 C   0  0  2  0  0  0  0  0  0  0  0  0
   34.5830   28.6340   36.0530 H   0  0  0  0  0  0  0  0  0  0  0  0
   34.6000   28.4160   38.5480 H   0  0  0  0  0  0  0  0  0  0  0  0
   40.2050   30.3610   38.5730 H   0  0  0  0  0  0  0  0  0  0  0  0
   39.4480   31.2750   37.2790 H   0  0  0  0  0  0  0  0  0  0  0  0
   41.0460   32.3080   39.5260 H   0  0  0  0  0  0  0  0  0  0  0  0
   40.5390   33.1050   38.0410 H   0  0  0  0  0  0  0  0  0  0  0  0
   38.6270   33.9820   38.9390 H   0  0  0  0  0  0  0  0  0  0  0  0
   39.8960   34.1610   40.1800 H   0  0  0  0  0  0  0  0  0  0  0  0
   37.5310   33.4550   40.8950 H   0  0  0  0  0  0  0  0  0  0  0  0
   38.9380   32.6650   41.5980 H   0  0  0  0  0  0  0  0  0  0  0  0
   36.7290   31.4450   40.3160 H   0  0  0  0  0  0  0  0  0  0  0  0
   37.1950   29.6800   41.9820 C   0  0  0  0  0  0  0  0  0  0  0  0
   38.2090   30.3650   41.2940 C   0  0  0  0  0  0  0  0  0  0  0  0
   39.4470   29.9290   41.7030 C   0  0  0  0  0  0  0  0  0  0  0  0
   40.3130   30.3850   41.2560 H   0  0  0  0  0  0  0  0  0  0  0  0
   39.7100   28.9630   42.6460 C   0  0  0  0  0  3  0  0  0  0  0  0
   38.6440   28.3490   43.2650 C   0  0  0  0  0  3  0  0  0  0  0  0
   37.3560   28.7080   42.9330 C   0  0  0  0  0  0  0  0  0  0  0  0
   35.8710   30.0020   41.6870 O   0  0  0  0  0  0  0  0  0  0  0  0
   35.2920   29.3140   41.1910 H   0  0  0  0  0  0  0  0  0  0  0  0
   36.2800   28.0940   43.5510 O   0  0  0  0  0  0  0  0  0  0  0  0
   36.2080   27.0700   43.6230 H   0  0  0  0  0  0  0  0  0  0  0  0
   36.3120   29.9860   34.6980 O   0  0  0  0  0  0  0  0  0  0  0  0
   36.5510   31.1300   33.9560 C   0  0  0  0  0  0  0  0  0  0  0  0
   36.1020   31.3390   32.7910 O   0  0  0  0  0  0  0  0  0  0  0  0
   37.3310   32.2130   34.4080 N   0  0  0  0  0  0  0  0  0  0  0  0
   37.4440   33.1620   34.7980 H   0  0  0  0  0  0  0  0  0  0  0  0
   38.3800   32.1420   34.3910 H   0  0  0  0  0  0  0  0  0  0  0  0
  1  2  2  0  0  0  0
  1  6  1  0  0  0  0
  2  3  1  0  0  0  0
  3 14  1  0  0  0  0
  3  4  2  0  0  0  0
  5  4  1  0  0  0  0
  5  7  1  0  0  0  0
  6  5  2  0  0  0  0
  7 12  1  0  0  0  0
  8 15  1  0  0  0  0
  8  9  1  0  0  0  0
  8  7  1  0  0  0  0
  9 17  1  0  0  0  0
  9 10  1  0  0  0  0
 10 20  1  0  0  0  0
 10 11  1  0  0  0  0
 11 21  1  0  0  0  0
 11 22  1  0  0  0  0
 12 23  1  6  0  0  0
 12 11  1  0  0  0  0
 12 25  1  0  0  0  0
 13  2  1  0  0  0  0
 16  8  1  0  0  0  0
 18  9  1  0  0  0  0
 19 10  1  0  0  0  0
 24 30  1  0  0  0  0
 25 26  1  0  0  0  0
 25 24  2  0  0  0  0
 26 28  2  0  0  0  0
 27 26  1  0  0  0  0
 28 29  1  0  0  0  0
 30 29  2  0  0  0  0
 30 33  1  0  0  0  0
 31 24  1  0  0  0  0
 32 31  1  0  0  0  0
 33 34  1  0  0  0  0
 35  1  1  0  0  0  0
 36 38  1  0  0  0  0
 36 35  1  0  0  0  0
 37 36  2  0  0  0  0
 38 39  1  0  0  0  0
 40 38  1  0  0  0  0
M  END
>  <minimizedAffinity>
-6.29306412

$$$$

 OpenBabel03242512463D

 40 42  0  0  1  0  0  0  0  0999 V2000
   38.4640   31.4420   38.9360 C   0  0  0  0  0  0  0  0  0  0  0  0
   37.5560   31.2320   37.8890 C   0  0  0  0  0  0  0  0  0  0  0  0
   36.8080   30.0480   37.9220 C   0  0  0  0  0  0  0  0  0  0  0  0
   37.0090   29.1800   38.9620 N   0  0  0  0  0  0  0  0  0  0  0  0
   37.8830   29.4320   39.9250 C   0  0  0  0  0  0  0  0  0  0  0  0
   38.6120   30.5580   39.9170 N   0  0  0  0  0  0  0  0  0  0  0  0
   38.0140   28.4590   40.9970 N   0  0  0  0  0  0  0  0  0  0  0  0
   39.2860   28.3590   41.6650 C   0  0  0  0  0  0  0  0  0  0  0  0
   39.1120   28.0720   43.0910 C   0  0  0  0  0  0  0  0  0  0  0  0
   37.7340   28.1430   43.6660 C   0  0  0  0  0  0  0  0  0  0  0  0
   36.6610   27.5840   42.7910 C   0  0  0  0  0  0  0  0  0  0  0  0
   36.8440   27.6800   41.3380 C   0  0  2  0  0  0  0  0  0  0  0  0
   37.4200   31.9360   37.0830 H   0  0  0  0  0  0  0  0  0  0  0  0
   36.0870   29.8150   37.1490 H   0  0  0  0  0  0  0  0  0  0  0  0
   39.9240   27.6530   41.1240 H   0  0  0  0  0  0  0  0  0  0  0  0
   39.8140   29.3580   41.5290 H   0  0  0  0  0  0  0  0  0  0  0  0
   39.5170   27.0490   43.3330 H   0  0  0  0  0  0  0  0  0  0  0  0
   39.7420   28.7540   43.7090 H   0  0  0  0  0  0  0  0  0  0  0  0
   37.5060   29.2130   43.8550 H   0  0  0  0  0  0  0  0  0  0  0  0
   37.7490   27.6320   44.6450 H   0  0  0  0  0  0  0  0  0  0  0  0
   35.6910   27.9840   43.1470 H   0  0  0  0  0  0  0  0  0  0  0  0
   36.6070   26.4850   43.0490 H   0  0  0  0  0  0  0  0  0  0  0  0
   35.9340   28.2430   40.9350 H   0  0  0  0  0  0  0  0  0  0  0  0
   37.3700   25.2460   41.2310 C   0  0  0  0  0  0  0  0  0  0  0  0
   36.8320   26.3950   40.6290 C   0  0  0  0  0  0  0  0  0  0  0  0
   36.3580   26.1030   39.3730 C   0  0  0  0  0  0  0  0  0  0  0  0
   35.9270   26.9060   38.7990 H   0  0  0  0  0  0  0  0  0  0  0  0
   36.3820   24.8790   38.7470 C   0  0  0  0  0  3  0  0  0  0  0  0
   36.9330   23.8120   39.4230 C   0  0  0  0  0  3  0  0  0  0  0  0
   37.4400   23.9900   40.6910 C   0  0  0  0  0  0  0  0  0  0  0  0
   37.8980   25.3660   42.5160 O   0  0  0  0  0  0  0  0  0  0  0  0
   37.4050   24.9200   43.2970 H   0  0  0  0  0  0  0  0  0  0  0  0
   37.9940   22.9220   41.3760 O   0  0  0  0  0  0  0  0  0  0  0  0
   37.5050   22.0200   41.4620 H   0  0  0  0  0  0  0  0  0  0  0  0
   39.1670   32.6120   38.8550 O   0  0  0  0  0  0  0  0  0  0  0  0
   40.4930   32.7300   38.4730 C   0  0  0  0  0  0  0  0  0  0  0  0
   41.4740   32.7300   39.2730 O   0  0  0  0  0  0  0  0  0  0  0  0
   40.9180   32.8670   37.1370 N   0  0  0  0  0  0  0  0  0  0  0  0
   41.3190   32.4990   36.2600 H   0  0  0  0  0  0  0  0  0  0  0  0
   40.8340   33.7990   36.6580 H   0  0  0  0  0  0  0  0  0  0  0  0
  1  6  1  0  0  0  0
  2  3  1  0  0  0  0
  2  1  2  0  0  0  0
  3  4  2  0  0  0  0
  4  5  1  0  0  0  0
  5  7  1  0  0  0  0
  6  5  2  0  0  0  0
  7 12  1  0  0  0  0
  7  8  1  0  0  0  0
  8  9  1  0  0  0  0
  9 17  1  0  0  0  0
  9 10  1  0  0  0  0
  9 18  1  0  0  0  0
 10 19  1  0  0  0  0
 10 20  1  0  0  0  0
 11 22  1  0  0  0  0
 11 21  1  0  0  0  0
 11 10  1  0  0  0  0
 12 23  1  6  0  0  0
 12 11  1  0  0  0  0
 13  2  1  0  0  0  0
 14  3  1  0  0  0  0
 15  8  1  0  0  0  0
 16  8  1  0  0  0  0
 24 31  1  0  0  0  0
 25 24  2  0  0  0  0
 25 12  1  0  0  0  0
 26 25  1  0  0  0  0
 27 26  1  0  0  0  0
 28 26  2  0  0  0  0
 28 29  1  0  0  0  0
 29 30  2  0  0  0  0
 30 24  1  0  0  0  0
 30 33  1  0  0  0  0
 31 32  1  0  0  0  0
 33 34  1  0  0  0  0
 35  1  1  0  0  0  0
 36 35  1  0  0  0  0
 36 37  2  0  0  0  0
 38 36  1  0  0  0  0
 39 38  1  0  0  0  0
 40 38  1  0  0  0  0
M  END
>  <minimizedAffinity>
-6.28917885

$$$$

 OpenBabel03242512463D

 40 42  0  0  1  0  0  0  0  0999 V2000
   40.5980   31.2960   37.8260 C   0  0  0  0  0  0  0  0  0  0  0  0
   41.4790   30.2430   37.5410 C   0  0  0  0  0  0  0  0  0  0  0  0
   41.2350   29.0200   38.1780 C   0  0  0  0  0  0  0  0  0  0  0  0
   40.1660   28.9300   39.0290 N   0  0  0  0  0  0  0  0  0  0  0  0
   39.3670   29.9610   39.2600 C   0  0  0  0  0  0  0  0  0  0  0  0
   39.5790   31.1440   38.6630 N   0  0  0  0  0  0  0  0  0  0  0  0
   38.2470   29.7660   40.1660 N   0  0  0  0  0  0  0  0  0  0  0  0
   37.7680   30.9070   40.9020 C   0  0  0  0  0  0  0  0  0  0  0  0
   36.3130   30.8580   41.0630 C   0  0  0  0  0  0  0  0  0  0  0  0
   35.5490   29.8230   40.3000 C   0  0  0  0  0  0  0  0  0  0  0  0
   36.2050   28.4840   40.2310 C   0  0  0  0  0  0  0  0  0  0  0  0
   37.6730   28.4410   40.2400 C   0  0  2  0  0  0  0  0  0  0  0  0
   42.3130   30.3440   36.8650 H   0  0  0  0  0  0  0  0  0  0  0  0
   41.8700   28.1600   38.0090 H   0  0  0  0  0  0  0  0  0  0  0  0
   38.3340   31.0000   41.8330 H   0  0  0  0  0  0  0  0  0  0  0  0
   38.0650   31.8330   40.3110 H   0  0  0  0  0  0  0  0  0  0  0  0
   36.0470   30.7280   42.1490 H   0  0  0  0  0  0  0  0  0  0  0  0
   35.8540   31.8390   40.7990 H   0  0  0  0  0  0  0  0  0  0  0  0
   35.4200   30.2010   39.2630 H   0  0  0  0  0  0  0  0  0  0  0  0
   34.5430   29.7460   40.7490 H   0  0  0  0  0  0  0  0  0  0  0  0
   35.7450   27.9240   39.3930 H   0  0  0  0  0  0  0  0  0  0  0  0
   35.8490   27.9300   41.1500 H   0  0  0  0  0  0  0  0  0  0  0  0
   37.9830   27.8840   39.2900 H   0  0  0  0  0  0  0  0  0  0  0  0
   38.9270   26.4550   41.0750 C   0  0  0  0  0  0  0  0  0  0  0  0
   38.2590   27.6630   41.3370 C   0  0  0  0  0  0  0  0  0  0  0  0
   38.2560   27.9280   42.6850 C   0  0  0  0  0  0  0  0  0  0  0  0
   37.7640   28.8250   43.0200 H   0  0  0  0  0  0  0  0  0  0  0  0
   38.8120   27.1550   43.6780 C   0  0  0  0  0  3  0  0  0  0  0  0
   39.4460   25.9870   43.3160 C   0  0  0  0  0  3  0  0  0  0  0  0
   39.5100   25.6210   41.9900 C   0  0  0  0  0  0  0  0  0  0  0  0
   39.0220   26.0350   39.7490 O   0  0  0  0  0  0  0  0  0  0  0  0
   39.9400   26.0470   39.2900 H   0  0  0  0  0  0  0  0  0  0  0  0
   40.1450   24.4480   41.6210 O   0  0  0  0  0  0  0  0  0  0  0  0
   41.0910   24.2150   41.9560 H   0  0  0  0  0  0  0  0  0  0  0  0
   40.8820   32.4670   37.1780 O   0  0  0  0  0  0  0  0  0  0  0  0
   41.8230   33.4010   37.5770 C   0  0  0  0  0  0  0  0  0  0  0  0
   42.0850   33.6880   38.7820 O   0  0  0  0  0  0  0  0  0  0  0  0
   42.6100   34.1560   36.6860 N   0  0  0  0  0  0  0  0  0  0  0  0
   43.4910   34.3620   36.1890 H   0  0  0  0  0  0  0  0  0  0  0  0
   42.1890   34.9850   36.1940 H   0  0  0  0  0  0  0  0  0  0  0  0
  1  6  1  0  0  0  0
  2  1  2  0  0  0  0
  2  3  1  0  0  0  0
  3  4  2  0  0  0  0
  4  5  1  0  0  0  0
  5  7  1  0  0  0  0
  6  5  2  0  0  0  0
  7 12  1  0  0  0  0
  7  8  1  0  0  0  0
  8  9  1  0  0  0  0
  8 15  1  0  0  0  0
  9 17  1  0  0  0  0
 10 20  1  0  0  0  0
 10  9  1  0  0  0  0
 11 12  1  0  0  0  0
 11 10  1  0  0  0  0
 11 22  1  0  0  0  0
 12 23  1  6  0  0  0
 12 25  1  0  0  0  0
 13  2  1  0  0  0  0
 14  3  1  0  0  0  0
 16  8  1  0  0  0  0
 18  9  1  0  0  0  0
 19 10  1  0  0  0  0
 21 11  1  0  0  0  0
 24 25  2  0  0  0  0
 24 30  1  0  0  0  0
 25 26  1  0  0  0  0
 26 27  1  0  0  0  0
 26 28  2  0  0  0  0
 29 28  1  0  0  0  0
 30 29  2  0  0  0  0
 31 24  1  0  0  0  0
 32 31  1  0  0  0  0
 33 34  1  0  0  0  0
 33 30  1  0  0  0  0
 35 36  1  0  0  0  0
 35  1  1  0  0  0  0
 36 37  2  0  0  0  0
 38 36  1  0  0  0  0
 39 38  1  0  0  0  0
 40 38  1  0  0  0  0
M  END
>  <minimizedAffinity>
-5.98275948

$$$$

 OpenBabel03242512463D

 40 42  0  0  1  0  0  0  0  0999 V2000
   39.3830   28.5320   42.0630 C   0  0  0  0  0  0  0  0  0  0  0  0
   40.5980   28.6400   42.7540 C   0  0  0  0  0  0  0  0  0  0  0  0
   41.3700   29.7830   42.5090 C   0  0  0  0  0  0  0  0  0  0  0  0
   40.8960   30.7120   41.6210 N   0  0  0  0  0  0  0  0  0  0  0  0
   39.7380   30.5550   40.9960 C   0  0  0  0  0  0  0  0  0  0  0  0
   38.9800   29.4690   41.2130 N   0  0  0  0  0  0  0  0  0  0  0  0
   39.3090   31.6020   40.0840 N   0  0  0  0  0  0  0  0  0  0  0  0
   38.4600   31.2310   38.9830 C   0  0  0  0  0  0  0  0  0  0  0  0
   37.4810   32.2810   38.6930 C   0  0  0  0  0  0  0  0  0  0  0  0
   37.3550   33.4180   39.6560 C   0  0  0  0  0  0  0  0  0  0  0  0
   38.6480   33.9180   40.2080 C   0  0  0  0  0  0  0  0  0  0  0  0
   39.7420   32.9520   40.3680 C   0  0  2  0  0  0  0  0  0  0  0  0
   40.9460   27.8920   43.4490 H   0  0  0  0  0  0  0  0  0  0  0  0
   42.3200   29.9390   43.0050 H   0  0  0  0  0  0  0  0  0  0  0  0
   39.0800   30.9280   38.1340 H   0  0  0  0  0  0  0  0  0  0  0  0
   37.9250   30.2710   39.2820 H   0  0  0  0  0  0  0  0  0  0  0  0
   37.6830   32.7300   37.6800 H   0  0  0  0  0  0  0  0  0  0  0  0
   36.4590   31.8490   38.5870 H   0  0  0  0  0  0  0  0  0  0  0  0
   36.7270   33.0690   40.5030 H   0  0  0  0  0  0  0  0  0  0  0  0
   36.8030   34.2300   39.1500 H   0  0  0  0  0  0  0  0  0  0  0  0
   38.4240   34.4970   41.1260 H   0  0  0  0  0  0  0  0  0  0  0  0
   39.0020   34.7050   39.4770 H   0  0  0  0  0  0  0  0  0  0  0  0
   40.0420   32.9860   41.4720 H   0  0  0  0  0  0  0  0  0  0  0  0
   42.1580   33.5650   40.3330 C   0  0  0  0  0  0  0  0  0  0  0  0
   40.9700   33.2850   39.6380 C   0  0  0  0  0  0  0  0  0  0  0  0
   41.1700   33.3930   38.2820 C   0  0  0  0  0  0  0  0  0  0  0  0
   40.3290   33.2120   37.6350 H   0  0  0  0  0  0  0  0  0  0  0  0
   42.3430   33.7220   37.6450 C   0  0  0  0  0  3  0  0  0  0  0  0
   43.4540   33.9780   38.4190 C   0  0  0  0  0  3  0  0  0  0  0  0
   43.3700   33.9010   39.7910 C   0  0  0  0  0  0  0  0  0  0  0  0
   42.1310   33.5010   41.7260 O   0  0  0  0  0  0  0  0  0  0  0  0
   42.6380   32.7430   42.1960 H   0  0  0  0  0  0  0  0  0  0  0  0
   44.4820   34.1570   40.5740 O   0  0  0  0  0  0  0  0  0  0  0  0
   45.3910   33.7100   40.3870 H   0  0  0  0  0  0  0  0  0  0  0  0
   38.6700   27.3990   42.3390 O   0  0  0  0  0  0  0  0  0  0  0  0
   37.3430   27.3580   42.7330 C   0  0  0  0  0  0  0  0  0  0  0  0
   36.6780   26.2960   42.9110 O   0  0  0  0  0  0  0  0  0  0  0  0
   36.5610   28.5030   42.9840 N   0  0  0  0  0  0  0  0  0  0  0  0
   36.1070   29.1830   43.6140 H   0  0  0  0  0  0  0  0  0  0  0  0
   36.1680   29.0520   42.1780 H   0  0  0  0  0  0  0  0  0  0  0  0
  1 35  1  0  0  0  0
  1  2  1  0  0  0  0
  2 13  1  0  0  0  0
  3  2  2  0  0  0  0
  3 14  1  0  0  0  0
  4  3  1  0  0  0  0
  5  6  1  0  0  0  0
  5  4  2  0  0  0  0
  6  1  2  0  0  0  0
  7 12  1  0  0  0  0
  7  5  1  0  0  0  0
  8 16  1  0  0  0  0
  8  7  1  0  0  0  0
  9  8  1  0  0  0  0
  9 10  1  0  0  0  0
 10 11  1  0  0  0  0
 10 19  1  0  0  0  0
 11 12  1  0  0  0  0
 11 21  1  0  0  0  0
 12 23  1  1  0  0  0
 15  8  1  0  0  0  0
 17  9  1  0  0  0  0
 18  9  1  0  0  0  0
 20 10  1  0  0  0  0
 22 11  1  0  0  0  0
 24 31  1  0  0  0  0
 25 24  2  0  0  0  0
 25 12  1  0  0  0  0
 26 25  1  0  0  0  0
 27 26  1  0  0  0  0
 28 26  2  0  0  0  0
 28 29  1  0  0  0  0
 29 30  2  0  0  0  0
 30 24  1  0  0  0  0
 30 33  1  0  0  0  0
 31 32  1  0  0  0  0
 34 33  1  0  0  0  0
 35 36  1  0  0  0  0
 36 37  2  0  0  0  0
 36 38  1  0  0  0  0
 38 39  1  0  0  0  0
 40 38  1  0  0  0  0
M  END
>  <minimizedAffinity>
-5.8549304

$$$$

 OpenBabel03242512463D

 40 42  0  0  1  0  0  0  0  0999 V2000
   42.0720   30.9810   37.3630 C   0  0  0  0  0  0  0  0  0  0  0  0
   42.0750   29.6120   37.0620 C   0  0  0  0  0  0  0  0  0  0  0  0
   41.0940   28.8240   37.6760 C   0  0  0  0  0  0  0  0  0  0  0  0
   40.2040   29.4320   38.5220 N   0  0  0  0  0  0  0  0  0  0  0  0
   40.2500   30.7330   38.7680 C   0  0  0  0  0  0  0  0  0  0  0  0
   41.1800   31.5100   38.1930 N   0  0  0  0  0  0  0  0  0  0  0  0
   39.2530   31.2920   39.6660 N   0  0  0  0  0  0  0  0  0  0  0  0
   39.6070   32.4660   40.4200 C   0  0  0  0  0  0  0  0  0  0  0  0
   38.4580   33.3610   40.5740 C   0  0  0  0  0  0  0  0  0  0  0  0
   37.2190   33.0660   39.7900 C   0  0  0  0  0  0  0  0  0  0  0  0
   36.8640   31.6190   39.7010 C   0  0  0  0  0  0  0  0  0  0  0  0
   37.9610   30.6440   39.7140 C   0  0  2  0  0  0  0  0  0  0  0  0
   42.7890   29.1610   36.3910 H   0  0  0  0  0  0  0  0  0  0  0  0
   41.0310   27.7580   37.4950 H   0  0  0  0  0  0  0  0  0  0  0  0
   40.0880   32.1630   41.3550 H   0  0  0  0  0  0  0  0  0  0  0  0
   40.4380   32.9920   39.8470 H   0  0  0  0  0  0  0  0  0  0  0  0
   38.1550   33.4200   41.6580 H   0  0  0  0  0  0  0  0  0  0  0  0
   38.7400   34.4100   40.3260 H   0  0  0  0  0  0  0  0  0  0  0  0
   37.3780   33.4500   38.7600 H   0  0  0  0  0  0  0  0  0  0  0  0
   36.3920   33.6480   40.2340 H   0  0  0  0  0  0  0  0  0  0  0  0
   36.1640   31.4940   38.8510 H   0  0  0  0  0  0  0  0  0  0  0  0
   36.2220   31.4120   40.6080 H   0  0  0  0  0  0  0  0  0  0  0  0
   37.8560   30.0280   38.7560 H   0  0  0  0  0  0  0  0  0  0  0  0
   37.6800   28.3000   40.5150 C   0  0  0  0  0  0  0  0  0  0  0  0
   37.8960   29.6590   40.7990 C   0  0  0  0  0  0  0  0  0  0  0  0
   38.0060   29.8540   42.1550 C   0  0  0  0  0  0  0  0  0  0  0  0
   38.1640   30.8590   42.5070 H   0  0  0  0  0  0  0  0  0  0  0  0
   37.9240   28.8940   43.1360 C   0  0  0  0  0  3  0  0  0  0  0  0
   37.7100   27.5880   42.7520 C   0  0  0  0  0  3  0  0  0  0  0  0
   37.5840   27.2750   41.4170 C   0  0  0  0  0  0  0  0  0  0  0  0
   37.5450   27.9250   39.1790 O   0  0  0  0  0  0  0  0  0  0  0  0
   38.2890   27.3690   38.7430 H   0  0  0  0  0  0  0  0  0  0  0  0
   37.3680   25.9650   41.0250 O   0  0  0  0  0  0  0  0  0  0  0  0
   37.9510   25.1910   41.3760 H   0  0  0  0  0  0  0  0  0  0  0  0
   43.0490   31.7040   36.7360 O   0  0  0  0  0  0  0  0  0  0  0  0
   43.3900   33.0150   37.0230 C   0  0  0  0  0  0  0  0  0  0  0  0
   44.4940   33.3780   37.5250 O   0  0  0  0  0  0  0  0  0  0  0  0
   42.5430   34.1170   36.7930 N   0  0  0  0  0  0  0  0  0  0  0  0
   42.2380   34.9420   36.2540 H   0  0  0  0  0  0  0  0  0  0  0  0
   41.7540   34.3150   37.4600 H   0  0  0  0  0  0  0  0  0  0  0  0
  1  6  1  0  0  0  0
  2  1  2  0  0  0  0
  2  3  1  0  0  0  0
  3  4  2  0  0  0  0
  4  5  1  0  0  0  0
  5  7  1  0  0  0  0
  6  5  2  0  0  0  0
  7 12  1  0  0  0  0
  7  8  1  0  0  0  0
  8  9  1  0  0  0  0
  8 15  1  0  0  0  0
  9 17  1  0  0  0  0
 10 20  1  0  0  0  0
 10  9  1  0  0  0  0
 11 12  1  0  0  0  0
 11 10  1  0  0  0  0
 11 22  1  0  0  0  0
 12 23  1  6  0  0  0
 12 25  1  0  0  0  0
 13  2  1  0  0  0  0
 14  3  1  0  0  0  0
 16  8  1  0  0  0  0
 18  9  1  0  0  0  0
 19 10  1  0  0  0  0
 21 11  1  0  0  0  0
 24 25  2  0  0  0  0
 24 30  1  0  0  0  0
 25 26  1  0  0  0  0
 26 27  1  0  0  0  0
 26 28  2  0  0  0  0
 29 28  1  0  0  0  0
 30 29  2  0  0  0  0
 31 24  1  0  0  0  0
 32 31  1  0  0  0  0
 33 34  1  0  0  0  0
 33 30  1  0  0  0  0
 35 36  1  0  0  0  0
 35  1  1  0  0  0  0
 36 37  2  0  0  0  0
 38 36  1  0  0  0  0
 38 40  1  0  0  0  0
 39 38  1  0  0  0  0
M  END
>  <minimizedAffinity>
-5.79315138

$$$$

 OpenBabel03242512463D

 40 42  0  0  1  0  0  0  0  0999 V2000
   40.7840   31.4910   38.4610 C   0  0  0  0  0  0  0  0  0  0  0  0
   39.4920   31.9780   38.7020 C   0  0  0  0  0  0  0  0  0  0  0  0
   38.7470   31.3370   39.7000 C   0  0  0  0  0  0  0  0  0  0  0  0
   39.3200   30.2880   40.3690 N   0  0  0  0  0  0  0  0  0  0  0  0
   40.5480   29.8710   40.0970 C   0  0  0  0  0  0  0  0  0  0  0  0
   41.2820   30.4680   39.1460 N   0  0  0  0  0  0  0  0  0  0  0  0
   41.0780   28.7620   40.8710 N   0  0  0  0  0  0  0  0  0  0  0  0
   42.0610   27.9140   40.2490 C   0  0  0  0  0  0  0  0  0  0  0  0
   43.0590   27.4610   41.2210 C   0  0  0  0  0  0  0  0  0  0  0  0
   43.0540   28.0790   42.5830 C   0  0  0  0  0  0  0  0  0  0  0  0
   41.6980   28.3150   43.1580 C   0  0  0  0  0  0  0  0  0  0  0  0
   40.6010   28.6070   42.2280 C   0  0  2  0  0  0  0  0  0  0  0  0
   39.0680   32.8070   38.1580 H   0  0  0  0  0  0  0  0  0  0  0  0
   37.7410   31.6550   39.9440 H   0  0  0  0  0  0  0  0  0  0  0  0
   41.5530   27.1150   39.6990 H   0  0  0  0  0  0  0  0  0  0  0  0
   42.5620   28.5280   39.4320 H   0  0  0  0  0  0  0  0  0  0  0  0
   42.9810   26.3470   41.3650 H   0  0  0  0  0  0  0  0  0  0  0  0
   44.0900   27.5990   40.8210 H   0  0  0  0  0  0  0  0  0  0  0  0
   43.5750   29.0570   42.5060 H   0  0  0  0  0  0  0  0  0  0  0  0
   43.6580   27.4360   43.2470 H   0  0  0  0  0  0  0  0  0  0  0  0
   41.8010   29.0560   43.9760 H   0  0  0  0  0  0  0  0  0  0  0  0
   41.4310   27.3580   43.6980 H   0  0  0  0  0  0  0  0  0  0  0  0
   40.1660   29.6150   42.5500 H   0  0  0  0  0  0  0  0  0  0  0  0
   38.2580   28.0670   42.8850 C   0  0  0  0  0  0  0  0  0  0  0  0
   39.4710   27.6740   42.2950 C   0  0  0  0  0  0  0  0  0  0  0  0
   39.3930   26.3740   41.8570 C   0  0  0  0  0  0  0  0  0  0  0  0
   40.2660   25.9470   41.3920 H   0  0  0  0  0  0  0  0  0  0  0  0
   38.3090   25.5340   41.9560 C   0  0  0  0  0  3  0  0  0  0  0  0
   37.1650   26.0150   42.5530 C   0  0  0  0  0  3  0  0  0  0  0  0
   37.1280   27.3070   43.0300 C   0  0  0  0  0  0  0  0  0  0  0  0
   38.1640   29.3650   43.3860 O   0  0  0  0  0  0  0  0  0  0  0  0
   37.5570   30.0380   42.9050 H   0  0  0  0  0  0  0  0  0  0  0  0
   35.9810   27.7970   43.6300 O   0  0  0  0  0  0  0  0  0  0  0  0
   35.0560   27.7030   43.1880 H   0  0  0  0  0  0  0  0  0  0  0  0
   41.4680   32.1520   37.4780 O   0  0  0  0  0  0  0  0  0  0  0  0
   42.2960   33.2460   37.6690 C   0  0  0  0  0  0  0  0  0  0  0  0
   42.8370   33.5540   38.7700 O   0  0  0  0  0  0  0  0  0  0  0  0
   42.6390   34.1600   36.6540 N   0  0  0  0  0  0  0  0  0  0  0  0
   43.2860   34.5460   35.9480 H   0  0  0  0  0  0  0  0  0  0  0  0
   41.9500   34.8990   36.3630 H   0  0  0  0  0  0  0  0  0  0  0  0
  1  2  2  0  0  0  0
  1  6  1  0  0  0  0
  2  3  1  0  0  0  0
  3 14  1  0  0  0  0
  3  4  2  0  0  0  0
  5  4  1  0  0  0  0
  5  7  1  0  0  0  0
  6  5  2  0  0  0  0
  7 12  1  0  0  0  0
  8  7  1  0  0  0  0
  8  9  1  0  0  0  0
  9 17  1  0  0  0  0
  9 10  1  0  0  0  0
 10 11  1  0  0  0  0
 10 20  1  0  0  0  0
 11 22  1  0  0  0  0
 11 21  1  0  0  0  0
 12 25  1  0  0  0  0
 12 23  1  1  0  0  0
 12 11  1  0  0  0  0
 13  2  1  0  0  0  0
 15  8  1  0  0  0  0
 16  8  1  0  0  0  0
 18  9  1  0  0  0  0
 19 10  1  0  0  0  0
 24 30  1  0  0  0  0
 24 31  1  0  0  0  0
 25 24  2  0  0  0  0
 26 28  2  0  0  0  0
 26 25  1  0  0  0  0
 27 26  1  0  0  0  0
 28 29  1  0  0  0  0
 29 30  2  0  0  0  0
 30 33  1  0  0  0  0
 32 31  1  0  0  0  0
 34 33  1  0  0  0  0
 35 36  1  0  0  0  0
 35  1  1  0  0  0  0
 36 37  2  0  0  0  0
 38 36  1  0  0  0  0
 39 38  1  0  0  0  0
 40 38  1  0  0  0  0
M  END
>  <minimizedAffinity>
-5.77131081

$$$$
