
 OpenBabel03242520423D

 41 44  0  0  1  0  0  0  0  0999 V2000
   45.9330   33.4990   45.4930 C   0  0  0  0  0  0  0  0  0  0  0  0
   46.7880   33.6120   44.3720 C   0  0  0  0  0  0  0  0  0  0  0  0
   47.5080   32.4520   43.9620 C   0  0  0  0  0  0  0  0  0  0  0  0
   47.3400   31.2920   44.6690 N   0  0  0  0  0  0  0  0  0  0  0  0
   46.5060   31.2460   45.7340 C   0  0  0  0  0  0  0  0  0  0  0  0
   45.8150   32.3400   46.1350 N   0  0  0  0  0  0  0  0  0  0  0  0
   46.3990   30.0200   46.3950 N   0  0  0  0  0  0  0  0  0  0  0  0
   47.5430   29.4000   46.9740 C   0  0  2  0  0  0  0  0  0  0  0  0
   47.3490   27.9880   47.4060 C   0  0  0  0  0  0  0  0  0  0  0  0
   46.0470   27.6220   47.8240 N   0  0  0  0  0  0  0  0  0  0  0  0
   45.1050   28.6810   47.8370 C   0  0  0  0  0  0  0  0  0  0  0  0
   45.1140   29.3660   46.4980 C   0  0  0  0  0  0  0  0  0  0  0  0
   45.3860   34.3770   45.8060 H   0  0  0  0  0  0  0  0  0  0  0  0
   46.8620   34.5590   43.8760 H   0  0  0  0  0  0  0  0  0  0  0  0
   48.1560   32.5370   43.1130 H   0  0  0  0  0  0  0  0  0  0  0  0
   48.2980   29.3200   46.1310 H   0  0  0  0  0  0  0  0  0  0  0  0
   47.6640   27.2500   46.6390 H   0  0  0  0  0  0  0  0  0  0  0  0
   48.0640   27.8210   48.2620 H   0  0  0  0  0  0  0  0  0  0  0  0
   45.9870   26.9170   48.5650 H   0  0  0  0  0  0  0  0  0  0  0  0
   45.2130   29.3570   48.6810 H   0  0  0  0  0  0  0  0  0  0  0  0
   44.0900   28.1990   47.9850 H   0  0  0  0  0  0  0  0  0  0  0  0
   44.9190   28.6350   45.7060 H   0  0  0  0  0  0  0  0  0  0  0  0
   44.3480   30.1740   46.5530 H   0  0  0  0  0  0  0  0  0  0  0  0
   48.1630   30.2480   48.0270 C   0  0  0  0  0  0  0  0  0  0  0  0
   48.0490   31.5830   48.3320 C   0  0  0  0  0  0  0  0  0  0  0  0
   48.7990   31.9130   49.3920 N   0  0  0  0  0  0  0  0  0  0  0  0
   49.3960   30.7830   49.7670 C   0  0  0  0  0  0  0  0  0  0  0  0
   49.0200   29.7880   48.9570 N   0  0  0  0  0  0  0  0  0  0  0  0
   47.4340   32.2810   47.7840 H   0  0  0  0  0  0  0  0  0  0  0  0
   48.9120   32.8450   49.8480 H   0  0  0  0  0  0  0  0  0  0  0  0
   51.1520   31.5580   51.4020 C   0  0  0  0  0  0  0  0  0  0  0  0
   50.3390   30.5610   50.8860 C   0  0  0  0  0  0  0  0  0  0  0  0
   50.3800   29.2720   51.4170 C   0  0  0  0  0  0  0  0  0  0  0  0
   49.7450   28.4830   51.0170 H   0  0  0  0  0  0  0  0  0  0  0  0
   51.2450   29.0530   52.4490 C   0  0  0  0  0  0  0  0  0  0  0  0
   52.0510   30.0310   52.9660 C   0  0  0  0  0  0  0  0  0  0  0  0
   52.0150   31.3220   52.4400 C   0  0  0  0  0  0  0  0  0  0  0  0
   51.0530   32.8240   50.8170 O   0  0  0  0  0  0  0  0  0  0  0  0
   50.2560   33.4040   51.0700 H   0  0  0  0  0  0  0  0  0  0  0  0
   52.8160   32.3170   52.9440 O   0  0  0  0  0  0  0  0  0  0  0  0
   52.7450   32.7330   53.8620 H   0  0  0  0  0  0  0  0  0  0  0  0
  1 13  1  0  0  0  0
  1  6  1  0  0  0  0
  2  1  2  0  0  0  0
  3  2  1  0  0  0  0
  3  4  2  0  0  0  0
  4  5  1  0  0  0  0
  5  6  2  0  0  0  0
  5  7  1  0  0  0  0
  7 12  1  0  0  0  0
  7  8  1  0  0  0  0
  8 16  1  6  0  0  0
  8  9  1  0  0  0  0
  8 24  1  0  0  0  0
  9 10  1  0  0  0  0
  9 18  1  0  0  0  0
 10 11  1  0  0  0  0
 10 19  1  0  0  0  0
 11 21  1  0  0  0  0
 11 20  1  0  0  0  0
 12 23  1  0  0  0  0
 12 11  1  0  0  0  0
 14  2  1  0  0  0  0
 15  3  1  0  0  0  0
 17  9  1  0  0  0  0
 22 12  1  0  0  0  0
 24 25  2  0  0  0  0
 24 28  1  0  0  0  0
 25 26  1  0  0  0  0
 26 27  1  0  0  0  0
 26 30  1  0  0  0  0
 27 32  1  0  0  0  0
 28 27  2  0  0  0  0
 29 25  1  0  0  0  0
 31 37  1  0  0  0  0
 32 31  2  0  0  0  0
 32 33  1  0  0  0  0
 33 35  2  0  0  0  0
 34 33  1  0  0  0  0
 35 36  1  0  0  0  0
 37 40  1  0  0  0  0
 37 36  2  0  0  0  0
 38 39  1  0  0  0  0
 38 31  1  0  0  0  0
 40 41  1  0  0  0  0
M  END
>  <minimizedAffinity>
-6.1023798

>  <minimizedRMSD>
1.81959903

$$$$
