
 OpenBabel03252505303D

 29 30  0  0  0  0  0  0  0  0999 V2000
   45.1620   31.0130   46.8630 O   0  0  0  0  0  0  0  0  0  0  0  0
   45.1520   30.2150   47.9680 C   0  0  0  0  0  0  0  0  0  0  0  0
   44.1010   30.0670   48.3380 H   0  0  0  0  0  0  0  0  0  0  0  0
   45.6680   30.7080   48.8360 H   0  0  0  0  0  0  0  0  0  0  0  0
   46.9990   28.5810   47.4200 C   0  0  0  0  0  0  0  0  0  0  0  0
   45.6920   28.8490   47.7600 C   0  0  0  0  0  0  0  0  0  0  0  0
   44.8290   27.7730   47.9120 C   0  0  0  0  0  0  0  0  0  0  0  0
   43.7930   27.9070   48.1760 H   0  0  0  0  0  0  0  0  0  0  0  0
   45.1980   26.4460   47.7450 C   0  0  0  0  0  3  0  0  0  0  0  0
   46.5170   26.1980   47.4020 C   0  0  0  0  0  3  0  0  0  0  0  0
   47.3790   27.2830   47.2500 C   0  0  0  0  0  0  0  0  0  0  0  0
   47.8600   29.6570   47.2690 O   0  0  0  0  0  0  0  0  0  0  0  0
   48.1550   30.0550   46.3900 H   0  0  0  0  0  0  0  0  0  0  0  0
   48.6990   27.0450   46.9090 O   0  0  0  0  0  0  0  0  0  0  0  0
   49.3800   27.0570   47.6540 H   0  0  0  0  0  0  0  0  0  0  0  0
   46.8240   32.2430   48.4150 O   0  0  0  0  0  0  0  0  0  0  0  0
   45.8080   32.5170   47.3060 P   0  0  2  0  0  0  0  0  0  0  0  0
   44.5290   33.4720   47.8520 O   0  0  0  0  0  0  0  0  0  0  0  0
   44.8730   33.9420   48.6770 H   0  0  0  0  0  0  0  0  0  0  0  0
   46.6250   33.2700   46.0470 O   0  0  0  0  0  0  0  0  0  0  0  0
   44.4670   35.6760   44.6030 C   0  0  0  0  0  0  0  0  0  0  0  0
   44.8890   35.8040   43.2580 C   0  0  0  0  0  0  0  0  0  0  0  0
   45.9840   34.9890   42.8840 C   0  0  0  0  0  0  0  0  0  0  0  0
   46.5360   34.1610   43.8330 N   0  0  0  0  0  0  0  0  0  0  0  0
   46.0840   34.0930   45.0840 C   0  0  0  0  0  0  0  0  0  0  0  0
   45.0590   34.8470   45.4580 N   0  0  0  0  0  0  0  0  0  0  0  0
   43.6180   36.3240   44.8460 H   0  0  0  0  0  0  0  0  0  0  0  0
   44.4190   36.4700   42.5470 H   0  0  0  0  0  0  0  0  0  0  0  0
   46.3620   35.0300   41.8740 H   0  0  0  0  0  0  0  0  0  0  0  0
  1 17  1  0  0  0  0
  1  2  1  0  0  0  0
  2  3  1  0  0  0  0
  2  4  1  0  0  0  0
  5  6  1  0  0  0  0
  6  7  2  0  0  0  0
  6  2  1  0  0  0  0
  7  8  1  0  0  0  0
  9  7  1  0  0  0  0
 10  9  2  0  0  0  0
 11 10  1  0  0  0  0
 11  5  2  0  0  0  0
 12  5  1  0  0  0  0
 13 12  1  0  0  0  0
 14 11  1  0  0  0  0
 14 15  1  0  0  0  0
 17 18  1  0  0  0  0
 17 16  2  1  0  0  0
 18 19  1  0  0  0  0
 20 17  1  0  0  0  0
 21 27  1  0  0  0  0
 21 26  1  0  0  0  0
 22 21  2  0  0  0  0
 23 22  1  0  0  0  0
 23 24  2  0  0  0  0
 24 25  1  0  0  0  0
 25 26  2  0  0  0  0
 25 20  1  0  0  0  0
 28 22  1  0  0  0  0
 29 23  1  0  0  0  0
M  END
>  <minimizedAffinity>
-4.7465744

>  <minimizedRMSD>
1.79024673

$$$$
