
 OpenBabel03242520253D

 26 27  0  0  0  0  0  0  0  0999 V2000
   40.0390   27.9280   42.7320 C   0  0  0  0  0  0  0  0  0  0  0  0
   38.8510   27.4580   42.1500 C   0  0  0  0  0  0  0  0  0  0  0  0
   38.5210   26.1290   42.3760 C   0  0  0  0  0  0  0  0  0  0  0  0
   39.3520   25.3700   43.1350 N   0  0  0  0  0  0  0  0  0  0  0  0
   40.4820   25.8480   43.6790 C   0  0  0  0  0  0  0  0  0  0  0  0
   40.8380   27.1260   43.4850 N   0  0  0  0  0  0  0  0  0  0  0  0
   40.3130   28.9640   42.5660 H   0  0  0  0  0  0  0  0  0  0  0  0
   41.1010   25.1870   44.2760 H   0  0  0  0  0  0  0  0  0  0  0  0
   37.1560   29.2950   41.8300 C   0  0  0  0  0  0  0  0  0  0  0  0
   38.0670   28.4010   41.3590 C   0  0  0  0  0  0  0  0  0  0  0  0
   38.3060   28.3500   39.9830 C   0  0  0  0  0  0  0  0  0  0  0  0
   39.0220   27.6600   39.5160 H   0  0  0  0  0  0  0  0  0  0  0  0
   37.6460   29.1750   39.1030 C   0  0  0  0  0  3  0  0  0  0  0  0
   36.7220   30.0840   39.5690 C   0  0  0  0  0  3  0  0  0  0  0  0
   36.4940   30.1260   40.9290 C   0  0  0  0  0  0  0  0  0  0  0  0
   36.9630   29.3010   43.1960 O   0  0  0  0  0  0  0  0  0  0  0  0
   36.1030   28.9790   43.6510 H   0  0  0  0  0  0  0  0  0  0  0  0
   35.5650   31.0310   41.4610 O   0  0  0  0  0  0  0  0  0  0  0  0
   34.5830   30.9240   41.1800 H   0  0  0  0  0  0  0  0  0  0  0  0
   37.3410   25.6670   41.7950 O   0  0  0  0  0  0  0  0  0  0  0  0
   38.0830   24.6230   39.4810 O   0  0  0  0  0  0  0  0  0  0  0  0
   37.4030   24.2740   40.7870 P   0  0  0  0  0  0  0  0  0  0  0  0
   38.2060   23.0540   41.6120 O   0  0  0  0  0  0  0  0  0  0  0  0
   37.7650   22.1780   41.3830 H   0  0  0  0  0  0  0  0  0  0  0  0
   35.8020   23.8240   40.4480 O   0  0  0  0  0  0  0  0  0  0  0  0
   35.5030   24.3700   39.6710 H   0  0  0  0  0  0  0  0  0  0  0  0
  1  6  1  0  0  0  0
  2  3  1  0  0  0  0
  2  1  2  0  0  0  0
  3  4  2  0  0  0  0
  4  5  1  0  0  0  0
  5  8  1  0  0  0  0
  6  5  2  0  0  0  0
  7  1  1  0  0  0  0
  9 16  1  0  0  0  0
 10  9  1  0  0  0  0
 10  2  1  0  0  0  0
 11 10  2  0  0  0  0
 12 11  1  0  0  0  0
 13 14  2  0  0  0  0
 13 11  1  0  0  0  0
 14 15  1  0  0  0  0
 15 18  1  0  0  0  0
 15  9  2  0  0  0  0
 16 17  1  0  0  0  0
 19 18  1  0  0  0  0
 20  3  1  0  0  0  0
 21 22  2  0  0  0  0
 22 23  1  0  0  0  0
 22 20  1  0  0  0  0
 24 23  1  0  0  0  0
 25 22  1  0  0  0  0
 26 25  1  0  0  0  0
M  END
>  <minimizedAffinity>
-5.5424695

$$$$

 OpenBabel03242520253D

 26 27  0  0  0  0  0  0  0  0999 V2000
   37.7870   29.1990   43.0120 C   0  0  0  0  0  0  0  0  0  0  0  0
   37.6600   29.3130   41.6180 C   0  0  0  0  0  0  0  0  0  0  0  0
   37.1550   28.2130   40.9380 C   0  0  0  0  0  0  0  0  0  0  0  0
   36.8190   27.1050   41.6470 N   0  0  0  0  0  0  0  0  0  0  0  0
   36.9520   27.0260   42.9810 C   0  0  0  0  0  0  0  0  0  0  0  0
   37.4350   28.0650   43.6750 N   0  0  0  0  0  0  0  0  0  0  0  0
   38.1790   30.0490   43.5590 H   0  0  0  0  0  0  0  0  0  0  0  0
   36.6630   26.1100   43.4860 H   0  0  0  0  0  0  0  0  0  0  0  0
   37.2630   31.6310   40.7110 C   0  0  0  0  0  0  0  0  0  0  0  0
   38.0660   30.5720   41.0030 C   0  0  0  0  0  0  0  0  0  0  0  0
   39.4280   30.6610   40.7000 C   0  0  0  0  0  0  0  0  0  0  0  0
   40.1490   29.8570   40.9000 H   0  0  0  0  0  0  0  0  0  0  0  0
   39.9670   31.7840   40.1180 C   0  0  0  0  0  3  0  0  0  0  0  0
   39.1630   32.8610   39.8180 C   0  0  0  0  0  3  0  0  0  0  0  0
   37.8210   32.7630   40.1220 C   0  0  0  0  0  0  0  0  0  0  0  0
   35.9290   31.4860   41.0330 O   0  0  0  0  0  0  0  0  0  0  0  0
   35.1810   31.3970   40.3390 H   0  0  0  0  0  0  0  0  0  0  0  0
   36.9530   33.8280   39.8410 O   0  0  0  0  0  0  0  0  0  0  0  0
   36.8330   34.0940   38.8560 H   0  0  0  0  0  0  0  0  0  0  0  0
   37.0320   28.3310   39.5550 O   0  0  0  0  0  0  0  0  0  0  0  0
   35.5830   29.8260   37.9240 O   0  0  0  0  0  0  0  0  0  0  0  0
   35.4830   28.6610   38.8850 P   0  0  0  0  0  0  0  0  0  0  0  0
   34.9180   27.2700   38.1360 O   0  0  0  0  0  0  0  0  0  0  0  0
   33.9230   27.2150   38.2840 H   0  0  0  0  0  0  0  0  0  0  0  0
   34.4640   29.1150   40.1640 O   0  0  0  0  0  0  0  0  0  0  0  0
   34.6020   30.0890   40.3170 H   0  0  0  0  0  0  0  0  0  0  0  0
  1  7  1  0  0  0  0
  1  6  1  0  0  0  0
  2  1  2  0  0  0  0
  3  2  1  0  0  0  0
  3  4  2  0  0  0  0
  4  5  1  0  0  0  0
  5  8  1  0  0  0  0
  5  6  2  0  0  0  0
  9 10  1  0  0  0  0
  9 16  1  0  0  0  0
 10  2  1  0  0  0  0
 11 12  1  0  0  0  0
 11 10  2  0  0  0  0
 13 11  1  0  0  0  0
 14 13  2  0  0  0  0
 14 15  1  0  0  0  0
 15  9  2  0  0  0  0
 17 16  1  0  0  0  0
 18 15  1  0  0  0  0
 19 18  1  0  0  0  0
 20  3  1  0  0  0  0
 21 22  2  0  0  0  0
 22 20  1  0  0  0  0
 22 25  1  0  0  0  0
 23 24  1  0  0  0  0
 23 22  1  0  0  0  0
 25 26  1  0  0  0  0
M  END
>  <minimizedAffinity>
-5.51934767

$$$$

 OpenBabel03242520253D

 26 27  0  0  0  0  0  0  0  0999 V2000
   39.9290   29.0170   37.3060 C   0  0  0  0  0  0  0  0  0  0  0  0
   39.9730   30.1150   38.1810 C   0  0  0  0  0  0  0  0  0  0  0  0
   38.9250   30.2470   39.0810 C   0  0  0  0  0  0  0  0  0  0  0  0
   37.9300   29.3220   39.0650 N   0  0  0  0  0  0  0  0  0  0  0  0
   37.9160   28.2830   38.2160 C   0  0  0  0  0  0  0  0  0  0  0  0
   38.9090   28.1190   37.3310 N   0  0  0  0  0  0  0  0  0  0  0  0
   40.7400   28.8980   36.5960 H   0  0  0  0  0  0  0  0  0  0  0  0
   37.0910   27.5800   38.2580 H   0  0  0  0  0  0  0  0  0  0  0  0
   41.1620   32.1820   37.3620 C   0  0  0  0  0  0  0  0  0  0  0  0
   41.1110   31.0210   38.0710 C   0  0  0  0  0  0  0  0  0  0  0  0
   42.2470   30.6210   38.7830 C   0  0  0  0  0  0  0  0  0  0  0  0
   42.2960   29.7010   39.3800 H   0  0  0  0  0  0  0  0  0  0  0  0
   43.4020   31.3670   38.7800 C   0  0  0  0  0  3  0  0  0  0  0  0
   43.4630   32.5430   38.0660 C   0  0  0  0  0  3  0  0  0  0  0  0
   42.3370   32.9290   37.3680 C   0  0  0  0  0  0  0  0  0  0  0  0
   40.0120   32.5250   36.6820 O   0  0  0  0  0  0  0  0  0  0  0  0
   39.9300   32.5170   35.6610 H   0  0  0  0  0  0  0  0  0  0  0  0
   42.3400   34.1170   36.6240 O   0  0  0  0  0  0  0  0  0  0  0  0
   42.9960   34.1810   35.8350 H   0  0  0  0  0  0  0  0  0  0  0  0
   38.9720   31.3380   39.9460 O   0  0  0  0  0  0  0  0  0  0  0  0
   38.3780   33.8870   40.3320 O   0  0  0  0  0  0  0  0  0  0  0  0
   37.8240   32.6050   39.7490 P   0  0  0  0  0  0  0  0  0  0  0  0
   37.4690   32.7540   38.1160 O   0  0  0  0  0  0  0  0  0  0  0  0
   36.4910   32.9770   38.0270 H   0  0  0  0  0  0  0  0  0  0  0  0
   36.4400   32.1750   40.6330 O   0  0  0  0  0  0  0  0  0  0  0  0
   36.5920   32.4630   41.5730 H   0  0  0  0  0  0  0  0  0  0  0  0
  1  6  2  0  0  0  0
  1  2  1  0  0  0  0
  2  3  2  0  0  0  0
  3 20  1  0  0  0  0
  4  3  1  0  0  0  0
  5  8  1  0  0  0  0
  5  4  2  0  0  0  0
  6  5  1  0  0  0  0
  7  1  1  0  0  0  0
  9 15  2  0  0  0  0
  9 10  1  0  0  0  0
 10  2  1  0  0  0  0
 10 11  2  0  0  0  0
 11 12  1  0  0  0  0
 13 11  1  0  0  0  0
 14 13  2  0  0  0  0
 15 14  1  0  0  0  0
 16  9  1  0  0  0  0
 17 16  1  0  0  0  0
 18 15  1  0  0  0  0
 19 18  1  0  0  0  0
 22 20  1  0  0  0  0
 22 21  2  0  0  0  0
 22 25  1  0  0  0  0
 23 22  1  0  0  0  0
 24 23  1  0  0  0  0
 25 26  1  0  0  0  0
M  END
>  <minimizedAffinity>
-5.45154381

$$$$

 OpenBabel03242520253D

 26 27  0  0  0  0  0  0  0  0999 V2000
   41.0320   29.4710   42.3180 C   0  0  0  0  0  0  0  0  0  0  0  0
   39.7960   29.4410   41.6510 C   0  0  0  0  0  0  0  0  0  0  0  0
   39.5480   30.4530   40.7350 C   0  0  0  0  0  0  0  0  0  0  0  0
   40.4990   31.4020   40.5370 N   0  0  0  0  0  0  0  0  0  0  0  0
   41.6720   31.4050   41.1900 C   0  0  0  0  0  0  0  0  0  0  0  0
   41.9510   30.4450   42.0830 N   0  0  0  0  0  0  0  0  0  0  0  0
   41.2420   28.6880   43.0380 H   0  0  0  0  0  0  0  0  0  0  0  0
   42.3890   32.1930   40.9840 H   0  0  0  0  0  0  0  0  0  0  0  0
   37.7360   28.4430   42.7070 C   0  0  0  0  0  0  0  0  0  0  0  0
   38.8800   28.3520   41.9760 C   0  0  0  0  0  0  0  0  0  0  0  0
   39.2510   27.1050   41.4660 C   0  0  0  0  0  0  0  0  0  0  0  0
   40.1560   26.9380   40.8670 H   0  0  0  0  0  0  0  0  0  0  0  0
   38.4920   25.9790   41.6850 C   0  0  0  0  0  3  0  0  0  0  0  0
   37.3320   26.0610   42.4230 C   0  0  0  0  0  3  0  0  0  0  0  0
   36.9750   27.2970   42.9210 C   0  0  0  0  0  0  0  0  0  0  0  0
   37.4210   29.6990   43.1840 O   0  0  0  0  0  0  0  0  0  0  0  0
   37.4540   29.9580   44.1750 H   0  0  0  0  0  0  0  0  0  0  0  0
   35.8050   27.4410   43.6800 O   0  0  0  0  0  0  0  0  0  0  0  0
   35.7510   26.9340   44.5710 H   0  0  0  0  0  0  0  0  0  0  0  0
   38.3210   30.4190   40.0770 O   0  0  0  0  0  0  0  0  0  0  0  0
   36.9680   32.3040   38.8060 O   0  0  0  0  0  0  0  0  0  0  0  0
   37.2790   31.7830   40.1930 P   0  0  0  0  0  0  0  0  0  0  0  0
   35.8930   31.3260   41.0210 O   0  0  0  0  0  0  0  0  0  0  0  0
   35.6030   32.1000   41.5980 H   0  0  0  0  0  0  0  0  0  0  0  0
   38.1190   32.9910   41.0370 O   0  0  0  0  0  0  0  0  0  0  0  0
   38.6770   33.4780   40.3730 H   0  0  0  0  0  0  0  0  0  0  0  0
  1  7  1  0  0  0  0
  2 10  1  0  0  0  0
  2  1  2  0  0  0  0
  3  2  1  0  0  0  0
  4  3  2  0  0  0  0
  4  5  1  0  0  0  0
  5  6  2  0  0  0  0
  6  1  1  0  0  0  0
  8  5  1  0  0  0  0
  9 15  1  0  0  0  0
  9 16  1  0  0  0  0
 10  9  2  0  0  0  0
 11 13  2  0  0  0  0
 11 10  1  0  0  0  0
 12 11  1  0  0  0  0
 13 14  1  0  0  0  0
 14 15  2  0  0  0  0
 15 18  1  0  0  0  0
 16 17  1  0  0  0  0
 18 19  1  0  0  0  0
 20 22  1  0  0  0  0
 20  3  1  0  0  0  0
 21 22  2  0  0  0  0
 22 23  1  0  0  0  0
 22 25  1  0  0  0  0
 23 24  1  0  0  0  0
 26 25  1  0  0  0  0
M  END
>  <minimizedAffinity>
-5.32375622

$$$$

 OpenBabel03242520253D

 26 27  0  0  0  0  0  0  0  0999 V2000
   37.0280   27.5310   41.0410 C   0  0  0  0  0  0  0  0  0  0  0  0
   36.5630   28.7460   40.5130 C   0  0  0  0  0  0  0  0  0  0  0  0
   36.8630   29.8990   41.2250 C   0  0  0  0  0  0  0  0  0  0  0  0
   37.5760   29.7900   42.3750 N   0  0  0  0  0  0  0  0  0  0  0  0
   38.0070   28.6120   42.8560 C   0  0  0  0  0  0  0  0  0  0  0  0
   37.7400   27.4750   42.1990 N   0  0  0  0  0  0  0  0  0  0  0  0
   36.8030   26.6200   40.4980 H   0  0  0  0  0  0  0  0  0  0  0  0
   38.5740   28.5960   43.7810 H   0  0  0  0  0  0  0  0  0  0  0  0
   34.4790   28.9440   39.1090 C   0  0  0  0  0  0  0  0  0  0  0  0
   35.8080   28.6960   39.2660 C   0  0  0  0  0  0  0  0  0  0  0  0
   36.5630   28.3550   38.1390 C   0  0  0  0  0  0  0  0  0  0  0  0
   37.6390   28.1380   38.1730 H   0  0  0  0  0  0  0  0  0  0  0  0
   35.9970   28.2650   36.8900 C   0  0  0  0  0  3  0  0  0  0  0  0
   34.6540   28.5140   36.7200 C   0  0  0  0  0  3  0  0  0  0  0  0
   33.9180   28.8500   37.8380 C   0  0  0  0  0  0  0  0  0  0  0  0
   33.7870   29.2760   40.2550 O   0  0  0  0  0  0  0  0  0  0  0  0
   33.0870   28.6690   40.6940 H   0  0  0  0  0  0  0  0  0  0  0  0
   32.5450   29.1150   37.7270 O   0  0  0  0  0  0  0  0  0  0  0  0
   31.9380   28.3490   37.4110 H   0  0  0  0  0  0  0  0  0  0  0  0
   36.3990   31.1020   40.6980 O   0  0  0  0  0  0  0  0  0  0  0  0
   38.0620   31.6420   38.7130 O   0  0  0  0  0  0  0  0  0  0  0  0
   37.5320   32.2020   40.0160 P   0  0  0  0  0  0  0  0  0  0  0  0
   36.7770   33.6850   39.8050 O   0  0  0  0  0  0  0  0  0  0  0  0
   37.4480   34.4100   40.0020 H   0  0  0  0  0  0  0  0  0  0  0  0
   38.8290   32.3320   41.1030 O   0  0  0  0  0  0  0  0  0  0  0  0
   39.4490   31.5780   40.9110 H   0  0  0  0  0  0  0  0  0  0  0  0
  1  6  1  0  0  0  0
  2  1  2  0  0  0  0
  2  3  1  0  0  0  0
  3  4  2  0  0  0  0
  4  5  1  0  0  0  0
  5  8  1  0  0  0  0
  6  5  2  0  0  0  0
  7  1  1  0  0  0  0
  9 10  1  0  0  0  0
  9 16  1  0  0  0  0
 10  2  1  0  0  0  0
 11 12  1  0  0  0  0
 11 10  2  0  0  0  0
 13 11  1  0  0  0  0
 14 13  2  0  0  0  0
 14 15  1  0  0  0  0
 15  9  2  0  0  0  0
 16 17  1  0  0  0  0
 18 15  1  0  0  0  0
 19 18  1  0  0  0  0
 20  3  1  0  0  0  0
 21 22  2  0  0  0  0
 22 20  1  0  0  0  0
 22 25  1  0  0  0  0
 23 24  1  0  0  0  0
 23 22  1  0  0  0  0
 26 25  1  0  0  0  0
M  END
>  <minimizedAffinity>
-5.28445625

$$$$

 OpenBabel03242520253D

 26 27  0  0  0  0  0  0  0  0999 V2000
   36.3460   27.9470   38.0150 C   0  0  0  0  0  0  0  0  0  0  0  0
   37.0750   28.6900   38.9580 C   0  0  0  0  0  0  0  0  0  0  0  0
   37.5260   29.9410   38.5630 C   0  0  0  0  0  0  0  0  0  0  0  0
   37.2420   30.3710   37.3060 N   0  0  0  0  0  0  0  0  0  0  0  0
   36.5430   29.6370   36.4270 C   0  0  0  0  0  0  0  0  0  0  0  0
   36.0890   28.4230   36.7680 N   0  0  0  0  0  0  0  0  0  0  0  0
   35.9860   26.9660   38.3070 H   0  0  0  0  0  0  0  0  0  0  0  0
   36.3500   30.0410   35.4380 H   0  0  0  0  0  0  0  0  0  0  0  0
   36.5140   28.2300   41.3720 C   0  0  0  0  0  0  0  0  0  0  0  0
   37.2970   28.0870   40.2680 C   0  0  0  0  0  0  0  0  0  0  0  0
   38.4400   27.2860   40.3570 C   0  0  0  0  0  0  0  0  0  0  0  0
   39.1270   27.1140   39.5180 H   0  0  0  0  0  0  0  0  0  0  0  0
   38.7860   26.6480   41.5240 C   0  0  0  0  0  3  0  0  0  0  0  0
   38.0010   26.7860   42.6470 C   0  0  0  0  0  3  0  0  0  0  0  0
   36.8760   27.5780   42.5480 C   0  0  0  0  0  0  0  0  0  0  0  0
   35.4010   29.0310   41.2240 O   0  0  0  0  0  0  0  0  0  0  0  0
   35.2930   29.9460   41.6720 H   0  0  0  0  0  0  0  0  0  0  0  0
   36.0380   27.7560   43.6580 O   0  0  0  0  0  0  0  0  0  0  0  0
   36.4360   28.2190   44.4840 H   0  0  0  0  0  0  0  0  0  0  0  0
   38.2500   30.6740   39.5010 O   0  0  0  0  0  0  0  0  0  0  0  0
   38.6030   32.8290   40.9930 O   0  0  0  0  0  0  0  0  0  0  0  0
   37.6180   32.1780   40.0470 P   0  0  0  0  0  0  0  0  0  0  0  0
   37.2960   33.1380   38.7100 O   0  0  0  0  0  0  0  0  0  0  0  0
   36.4570   33.6650   38.8960 H   0  0  0  0  0  0  0  0  0  0  0  0
   36.1950   31.8450   40.9100 O   0  0  0  0  0  0  0  0  0  0  0  0
   36.4630   31.6230   41.8430 H   0  0  0  0  0  0  0  0  0  0  0  0
  1  7  1  0  0  0  0
  1  2  1  0  0  0  0
  2 10  1  0  0  0  0
  3  2  2  0  0  0  0
  3 20  1  0  0  0  0
  4  3  1  0  0  0  0
  5  6  1  0  0  0  0
  5  4  2  0  0  0  0
  6  1  2  0  0  0  0
  8  5  1  0  0  0  0
  9 15  1  0  0  0  0
 10 11  1  0  0  0  0
 10  9  2  0  0  0  0
 11 13  2  0  0  0  0
 12 11  1  0  0  0  0
 13 14  1  0  0  0  0
 15 14  2  0  0  0  0
 15 18  1  0  0  0  0
 16  9  1  0  0  0  0
 16 17  1  0  0  0  0
 18 19  1  0  0  0  0
 20 22  1  0  0  0  0
 22 25  1  0  0  0  0
 22 21  2  0  0  0  0
 23 24  1  0  0  0  0
 23 22  1  0  0  0  0
 25 26  1  0  0  0  0
M  END
>  <minimizedAffinity>
-5.27371502

$$$$

 OpenBabel03242520253D

 26 27  0  0  0  0  0  0  0  0999 V2000
   37.6690   33.2080   39.5470 C   0  0  0  0  0  0  0  0  0  0  0  0
   37.8770   31.8460   39.8180 C   0  0  0  0  0  0  0  0  0  0  0  0
   39.0400   31.5080   40.4950 C   0  0  0  0  0  0  0  0  0  0  0  0
   39.8990   32.4970   40.8520 N   0  0  0  0  0  0  0  0  0  0  0  0
   39.6730   33.7910   40.5780 C   0  0  0  0  0  0  0  0  0  0  0  0
   38.5610   34.1610   39.9270 N   0  0  0  0  0  0  0  0  0  0  0  0
   36.7650   33.4910   39.0190 H   0  0  0  0  0  0  0  0  0  0  0  0
   40.4010   34.5320   40.8930 H   0  0  0  0  0  0  0  0  0  0  0  0
   35.7930   30.4520   40.0850 C   0  0  0  0  0  0  0  0  0  0  0  0
   36.8570   30.9050   39.3670 C   0  0  0  0  0  0  0  0  0  0  0  0
   37.0250   30.4440   38.0570 C   0  0  0  0  0  0  0  0  0  0  0  0
   37.8530   30.7550   37.4070 H   0  0  0  0  0  0  0  0  0  0  0  0
   36.1490   29.5530   37.4860 C   0  0  0  0  0  3  0  0  0  0  0  0
   35.0690   29.0890   38.2040 C   0  0  0  0  0  3  0  0  0  0  0  0
   34.9120   29.5500   39.4950 C   0  0  0  0  0  0  0  0  0  0  0  0
   35.6790   30.9420   41.3700 O   0  0  0  0  0  0  0  0  0  0  0  0
   35.8210   30.3740   42.2110 H   0  0  0  0  0  0  0  0  0  0  0  0
   33.8310   29.1140   40.2740 O   0  0  0  0  0  0  0  0  0  0  0  0
   33.7820   28.1130   40.4990 H   0  0  0  0  0  0  0  0  0  0  0  0
   39.2420   30.1550   40.7600 O   0  0  0  0  0  0  0  0  0  0  0  0
   37.7850   29.3710   42.8230 O   0  0  0  0  0  0  0  0  0  0  0  0
   39.2150   29.6160   42.3940 P   0  0  0  0  0  0  0  0  0  0  0  0
   40.1580   28.2340   42.5150 O   0  0  0  0  0  0  0  0  0  0  0  0
   40.6350   28.2560   43.4020 H   0  0  0  0  0  0  0  0  0  0  0  0
   39.8490   30.8670   43.3500 O   0  0  0  0  0  0  0  0  0  0  0  0
   39.1000   31.4930   43.5470 H   0  0  0  0  0  0  0  0  0  0  0  0
  1  2  2  0  0  0  0
  1  6  1  0  0  0  0
  2  3  1  0  0  0  0
  3 20  1  0  0  0  0
  3  4  2  0  0  0  0
  5  4  1  0  0  0  0
  5  8  1  0  0  0  0
  6  5  2  0  0  0  0
  7  1  1  0  0  0  0
  9 16  1  0  0  0  0
 10  2  1  0  0  0  0
 10  9  2  0  0  0  0
 11 10  1  0  0  0  0
 12 11  1  0  0  0  0
 13 11  2  0  0  0  0
 13 14  1  0  0  0  0
 14 15  2  0  0  0  0
 15  9  1  0  0  0  0
 15 18  1  0  0  0  0
 16 17  1  0  0  0  0
 18 19  1  0  0  0  0
 20 22  1  0  0  0  0
 22 23  1  0  0  0  0
 22 21  2  0  0  0  0
 22 25  1  0  0  0  0
 23 24  1  0  0  0  0
 25 26  1  0  0  0  0
M  END
>  <minimizedAffinity>
-5.24656248

$$$$

 OpenBabel03242520253D

 26 27  0  0  0  0  0  0  0  0999 V2000
   36.4340   30.1340   37.9740 C   0  0  0  0  0  0  0  0  0  0  0  0
   37.3610   29.9940   39.0200 C   0  0  0  0  0  0  0  0  0  0  0  0
   37.3920   28.7720   39.6770 C   0  0  0  0  0  0  0  0  0  0  0  0
   36.5380   27.7950   39.2780 N   0  0  0  0  0  0  0  0  0  0  0  0
   35.6620   27.9580   38.2740 C   0  0  0  0  0  0  0  0  0  0  0  0
   35.6000   29.1220   37.6140 N   0  0  0  0  0  0  0  0  0  0  0  0
   36.3960   31.0820   37.4500 H   0  0  0  0  0  0  0  0  0  0  0  0
   35.0090   27.1350   38.0060 H   0  0  0  0  0  0  0  0  0  0  0  0
   37.9420   32.1350   40.2180 C   0  0  0  0  0  0  0  0  0  0  0  0
   38.2090   31.1410   39.3280 C   0  0  0  0  0  0  0  0  0  0  0  0
   39.4110   31.1860   38.6150 C   0  0  0  0  0  0  0  0  0  0  0  0
   39.7080   30.4290   37.8770 H   0  0  0  0  0  0  0  0  0  0  0  0
   40.3180   32.2040   38.7910 C   0  0  0  0  0  3  0  0  0  0  0  0
   40.0580   33.2140   39.6900 C   0  0  0  0  0  3  0  0  0  0  0  0
   38.8700   33.1590   40.3890 C   0  0  0  0  0  0  0  0  0  0  0  0
   36.7420   32.0360   40.8930 O   0  0  0  0  0  0  0  0  0  0  0  0
   35.9510   32.6710   40.7450 H   0  0  0  0  0  0  0  0  0  0  0  0
   38.5500   34.1600   41.3180 O   0  0  0  0  0  0  0  0  0  0  0  0
   38.4350   35.1170   40.9630 H   0  0  0  0  0  0  0  0  0  0  0  0
   38.3120   28.6400   40.7150 O   0  0  0  0  0  0  0  0  0  0  0  0
   38.8970   28.4040   43.2840 O   0  0  0  0  0  0  0  0  0  0  0  0
   37.7290   28.4550   42.3230 P   0  0  0  0  0  0  0  0  0  0  0  0
   36.6870   29.7250   42.6610 O   0  0  0  0  0  0  0  0  0  0  0  0
   35.9370   29.3720   43.2350 H   0  0  0  0  0  0  0  0  0  0  0  0
   36.9160   26.9670   42.3980 O   0  0  0  0  0  0  0  0  0  0  0  0
   37.6010   26.2670   42.5700 H   0  0  0  0  0  0  0  0  0  0  0  0
  1  2  1  0  0  0  0
  2 10  1  0  0  0  0
  2  3  2  0  0  0  0
  3 20  1  0  0  0  0
  4  3  1  0  0  0  0
  5  4  2  0  0  0  0
  6  1  2  0  0  0  0
  6  5  1  0  0  0  0
  7  1  1  0  0  0  0
  8  5  1  0  0  0  0
  9 15  1  0  0  0  0
  9 16  1  0  0  0  0
 10  9  2  0  0  0  0
 11 13  2  0  0  0  0
 11 10  1  0  0  0  0
 12 11  1  0  0  0  0
 13 14  1  0  0  0  0
 14 15  2  0  0  0  0
 15 18  1  0  0  0  0
 17 16  1  0  0  0  0
 19 18  1  0  0  0  0
 20 22  1  0  0  0  0
 22 25  1  0  0  0  0
 22 23  1  0  0  0  0
 22 21  2  0  0  0  0
 23 24  1  0  0  0  0
 25 26  1  0  0  0  0
M  END
>  <minimizedAffinity>
-5.13888931

$$$$

 OpenBabel03242520253D

 26 27  0  0  0  0  0  0  0  0999 V2000
   37.3240   32.4930   38.9700 C   0  0  0  0  0  0  0  0  0  0  0  0
   37.5410   31.1170   39.1520 C   0  0  0  0  0  0  0  0  0  0  0  0
   38.2620   30.7350   40.2750 C   0  0  0  0  0  0  0  0  0  0  0  0
   38.7120   31.6980   41.1210 N   0  0  0  0  0  0  0  0  0  0  0  0
   38.4880   33.0060   40.9190 C   0  0  0  0  0  0  0  0  0  0  0  0
   37.7960   33.4170   39.8480 N   0  0  0  0  0  0  0  0  0  0  0  0
   36.7630   32.8090   38.0980 H   0  0  0  0  0  0  0  0  0  0  0  0
   38.8750   33.7240   41.6360 H   0  0  0  0  0  0  0  0  0  0  0  0
   37.6320   29.7330   37.0470 C   0  0  0  0  0  0  0  0  0  0  0  0
   36.9930   30.2080   38.1510 C   0  0  0  0  0  0  0  0  0  0  0  0
   35.6740   29.8080   38.3860 C   0  0  0  0  0  0  0  0  0  0  0  0
   35.0830   30.1410   39.2480 H   0  0  0  0  0  0  0  0  0  0  0  0
   35.0160   28.9530   37.5330 C   0  0  0  0  0  3  0  0  0  0  0  0
   35.6530   28.4660   36.4140 C   0  0  0  0  0  3  0  0  0  0  0  0
   36.9540   28.8670   36.1920 C   0  0  0  0  0  0  0  0  0  0  0  0
   38.9310   30.1620   36.8690 O   0  0  0  0  0  0  0  0  0  0  0  0
   39.2230   30.7980   36.1210 H   0  0  0  0  0  0  0  0  0  0  0  0
   37.6550   28.4040   35.0690 O   0  0  0  0  0  0  0  0  0  0  0  0
   37.2920   28.6620   34.1440 H   0  0  0  0  0  0  0  0  0  0  0  0
   38.4760   29.3700   40.4510 O   0  0  0  0  0  0  0  0  0  0  0  0
   36.5300   27.6890   41.0700 O   0  0  0  0  0  0  0  0  0  0  0  0
   37.6110   28.5480   41.6900 P   0  0  0  0  0  0  0  0  0  0  0  0
   38.6990   27.6430   42.5900 O   0  0  0  0  0  0  0  0  0  0  0  0
   38.4090   27.6700   43.5540 H   0  0  0  0  0  0  0  0  0  0  0  0
   36.8630   29.7280   42.6530 O   0  0  0  0  0  0  0  0  0  0  0  0
   36.0020   29.9630   42.2130 H   0  0  0  0  0  0  0  0  0  0  0  0
  1  2  2  0  0  0  0
  1  6  1  0  0  0  0
  2  3  1  0  0  0  0
  3 20  1  0  0  0  0
  3  4  2  0  0  0  0
  5  4  1  0  0  0  0
  5  8  1  0  0  0  0
  6  5  2  0  0  0  0
  7  1  1  0  0  0  0
  9 10  1  0  0  0  0
 10 11  2  0  0  0  0
 10  2  1  0  0  0  0
 11 12  1  0  0  0  0
 13 11  1  0  0  0  0
 14 13  2  0  0  0  0
 15 14  1  0  0  0  0
 15  9  2  0  0  0  0
 16  9  1  0  0  0  0
 17 16  1  0  0  0  0
 18 15  1  0  0  0  0
 19 18  1  0  0  0  0
 20 22  1  0  0  0  0
 21 22  2  0  0  0  0
 22 23  1  0  0  0  0
 22 25  1  0  0  0  0
 23 24  1  0  0  0  0
 26 25  1  0  0  0  0
M  END
>  <minimizedAffinity>
-5.1002264

$$$$
