
 OpenBabel03252503413D

 23 24  0  0  0  0  0  0  0  0999 V2000
   45.5450   34.1570   40.8320 C   0  0  0  0  0  0  0  0  0  0  0  0
   45.9750   34.7900   42.0000 C   0  0  0  0  0  0  0  0  0  0  0  0
   45.0130   35.4060   42.7900 C   0  0  0  0  0  0  0  0  0  0  0  0
   43.7150   35.3590   42.3880 N   0  0  0  0  0  0  0  0  0  0  0  0
   43.3300   34.7430   41.2610 C   0  0  0  0  0  0  0  0  0  0  0  0
   44.2360   34.1350   40.4710 N   0  0  0  0  0  0  0  0  0  0  0  0
   46.1830   33.6300   40.1120 H   0  0  0  0  0  0  0  0  0  0  0  0
   45.4060   35.8720   43.6650 H   0  0  0  0  0  0  0  0  0  0  0  0
   41.0840   33.7330   41.3110 C   0  0  0  0  0  0  0  0  0  0  0  0
   41.9240   34.7190   40.8720 C   0  0  0  0  0  0  0  0  0  0  0  0
   41.3900   35.6830   40.0540 C   0  0  0  0  0  0  0  0  0  0  0  0
   41.9740   36.4930   39.6640 H   0  0  0  0  0  0  0  0  0  0  0  0
   40.0500   35.6370   39.7000 C   0  0  0  0  0  3  0  0  0  0  0  0
   39.2230   34.6270   40.1580 C   0  0  0  0  0  3  0  0  0  0  0  0
   39.7480   33.6490   40.9840 C   0  0  0  0  0  0  0  0  0  0  0  0
   41.6430   32.7500   42.1500 O   0  0  0  0  0  0  0  0  0  0  0  0
   41.6270   32.8180   43.1520 H   0  0  0  0  0  0  0  0  0  0  0  0
   39.0060   32.5800   41.5070 O   0  0  0  0  0  0  0  0  0  0  0  0
   39.1950   32.2350   42.4460 H   0  0  0  0  0  0  0  0  0  0  0  0
   47.4340   34.7150   42.2380 C   0  0  0  0  0  0  0  0  0  0  0  0
   47.7430   33.7030   42.5800 H   0  0  0  0  0  0  0  0  0  0  0  0
   47.6770   35.4760   43.0070 H   0  0  0  0  0  0  0  0  0  0  0  0
   47.9570   34.8720   41.2740 H   0  0  0  0  0  0  0  0  0  0  0  0
  1  2  1  0  0  0  0
  2 20  1  0  0  0  0
  2  3  2  0  0  0  0
  3  8  1  0  0  0  0
  4  3  1  0  0  0  0
  5  4  2  0  0  0  0
  6  1  2  0  0  0  0
  6  5  1  0  0  0  0
  7  1  1  0  0  0  0
  9 16  1  0  0  0  0
 10  5  1  0  0  0  0
 10  9  2  0  0  0  0
 11 10  1  0  0  0  0
 12 11  1  0  0  0  0
 13 11  2  0  0  0  0
 13 14  1  0  0  0  0
 14 15  2  0  0  0  0
 15  9  1  0  0  0  0
 15 18  1  0  0  0  0
 16 17  1  0  0  0  0
 18 19  1  0  0  0  0
 20 21  1  0  0  0  0
 20 22  1  0  0  0  0
 23 20  1  0  0  0  0
M  END
>  <minimizedAffinity>
-5.12615776

>  <minimizedRMSD>
7.30195427

$$$$
