
 OpenBabel03252502533D

 33 35  0  0  0  0  0  0  0  0999 V2000
   46.1080   29.9310   44.6080 Br  0  0  0  0  0  0  0  0  0  0  0  0
   45.8260   30.6460   46.3840 C   0  0  0  0  0  0  0  0  0  0  0  0
   46.3240   31.8980   46.6190 C   0  0  0  0  0  0  0  0  0  0  0  0
   46.0950   32.3630   47.9100 C   0  0  0  0  0  0  0  0  0  0  0  0
   45.4330   31.6540   48.8790 C   0  0  0  0  0  0  0  0  0  0  0  0
   44.9660   30.4120   48.5650 C   0  0  0  0  0  0  0  0  0  0  0  0
   45.1490   29.8730   47.3100 C   0  0  0  0  0  0  0  0  0  0  0  0
   46.4510   33.3550   48.2050 H   0  0  0  0  0  0  0  0  0  0  0  0
   45.2740   32.0530   49.8740 H   0  0  0  0  0  0  0  0  0  0  0  0
   44.4390   29.7960   49.2670 H   0  0  0  0  0  0  0  0  0  0  0  0
   45.4990   27.5310   47.3790 C   0  0  0  0  0  0  0  0  0  0  0  0
   44.6570   28.5320   46.9380 C   0  0  0  0  0  0  0  0  0  0  0  0
   43.5110   28.2110   46.2390 C   0  0  0  0  0  0  0  0  0  0  0  0
   42.9290   29.0660   45.9430 H   0  0  0  0  0  0  0  0  0  0  0  0
   43.2440   26.8790   45.9990 C   0  0  0  0  0  3  0  0  0  0  0  0
   44.0820   25.8760   46.4380 C   0  0  0  0  0  3  0  0  0  0  0  0
   45.2390   26.2130   47.1450 C   0  0  0  0  0  0  0  0  0  0  0  0
   46.6880   27.7410   48.0980 O   0  0  0  0  0  0  0  0  0  0  0  0
   47.1270   28.6590   48.1190 H   0  0  0  0  0  0  0  0  0  0  0  0
   46.0060   25.1210   47.5350 O   0  0  0  0  0  0  0  0  0  0  0  0
   46.7880   24.8850   46.9090 H   0  0  0  0  0  0  0  0  0  0  0  0
   47.0470   32.7530   45.6710 C   0  0  0  0  0  0  0  0  0  0  0  0
   47.9070   33.2210   46.1920 H   0  0  0  0  0  0  0  0  0  0  0  0
   47.4770   32.1040   44.8710 H   0  0  0  0  0  0  0  0  0  0  0  0
   44.5000   35.4210   45.1470 C   0  0  0  0  0  0  0  0  0  0  0  0
   44.7380   35.7800   43.8140 C   0  0  0  0  0  0  0  0  0  0  0  0
   45.7500   35.1140   43.1320 C   0  0  0  0  0  0  0  0  0  0  0  0
   46.4660   34.1480   43.7690 N   0  0  0  0  0  0  0  0  0  0  0  0
   46.2070   33.8210   45.0740 C   0  0  0  0  0  0  0  0  0  0  0  0
   45.2260   34.4680   45.7320 N   0  0  0  0  0  0  0  0  0  0  0  0
   43.7030   35.9660   45.6370 H   0  0  0  0  0  0  0  0  0  0  0  0
   44.1720   36.5500   43.2970 H   0  0  0  0  0  0  0  0  0  0  0  0
   46.0110   35.3180   42.1020 H   0  0  0  0  0  0  0  0  0  0  0  0
  1  2  1  0  0  0  0
  2  3  2  0  0  0  0
  2  7  1  0  0  0  0
  3  4  1  0  0  0  0
  4  8  1  0  0  0  0
  4  5  2  0  0  0  0
  5  9  1  0  0  0  0
  6  5  1  0  0  0  0
  6 10  1  0  0  0  0
  7  6  2  0  0  0  0
 11 18  1  0  0  0  0
 12  7  1  0  0  0  0
 12 11  2  0  0  0  0
 13 12  1  0  0  0  0
 14 13  1  0  0  0  0
 15 13  2  0  0  0  0
 15 16  1  0  0  0  0
 16 17  2  0  0  0  0
 17 11  1  0  0  0  0
 17 20  1  0  0  0  0
 18 19  1  0  0  0  0
 21 20  1  0  0  0  0
 22 23  1  0  0  0  0
 22  3  1  0  0  0  0
 24 22  1  0  0  0  0
 25 31  1  0  0  0  0
 25 30  1  0  0  0  0
 26 25  2  0  0  0  0
 27 28  2  0  0  0  0
 27 26  1  0  0  0  0
 28 29  1  0  0  0  0
 29 22  1  0  0  0  0
 29 30  2  0  0  0  0
 32 26  1  0  0  0  0
 33 27  1  0  0  0  0
M  END
>  <minimizedAffinity>
-5.58404207

>  <minimizedRMSD>
0.788035691

$$$$
