
 OpenBabel03252501553D

 23 24  0  0  0  0  0  0  0  0999 V2000
   44.6060   35.4710   45.0950 C   0  0  0  0  0  0  0  0  0  0  0  0
   45.2880   35.4420   43.8690 C   0  0  0  0  0  0  0  0  0  0  0  0
   46.2180   34.4350   43.6750 C   0  0  0  0  0  0  0  0  0  0  0  0
   46.4140   33.5650   44.6550 N   0  0  0  0  0  0  0  0  0  0  0  0
   45.7670   33.5890   45.8280 C   0  0  0  0  0  0  0  0  0  0  0  0
   44.8440   34.5500   46.0730 N   0  0  0  0  0  0  0  0  0  0  0  0
   43.8660   36.2260   45.3010 H   0  0  0  0  0  0  0  0  0  0  0  0
   46.0090   32.8220   46.5680 H   0  0  0  0  0  0  0  0  0  0  0  0
   46.5190   34.0310   41.1700 C   0  0  0  0  0  0  0  0  0  0  0  0
   46.8720   34.5070   42.3950 C   0  0  0  0  0  0  0  0  0  0  0  0
   48.0710   35.2420   42.4640 C   0  0  0  0  0  0  0  0  0  0  0  0
   48.5010   35.6710   43.3630 H   0  0  0  0  0  0  0  0  0  0  0  0
   48.8560   35.4770   41.3660 C   0  0  0  0  0  0  0  0  0  0  0  0
   48.4310   34.9600   40.1390 C   0  0  0  0  0  0  0  0  0  0  0  0
   47.2730   34.2340   40.0040 C   0  0  0  0  0  0  0  0  0  0  0  0
   45.3140   33.3140   41.2010 O   0  0  0  0  0  0  0  0  0  0  0  0
   45.1260   32.6150   41.9250 H   0  0  0  0  0  0  0  0  0  0  0  0
   46.7420   33.6700   38.8600 O   0  0  0  0  0  0  0  0  0  0  0  0
   46.9630   32.7130   38.5530 H   0  0  0  0  0  0  0  0  0  0  0  0
   44.9300   36.5530   42.9320 C   0  0  0  0  0  0  0  0  0  0  0  0
   45.4720   37.4680   43.3380 H   0  0  0  0  0  0  0  0  0  0  0  0
   45.1930   36.3910   41.8960 H   0  0  0  0  0  0  0  0  0  0  0  0
   43.8570   36.7960   43.0880 H   0  0  0  0  0  0  0  0  0  0  0  0
  1  7  1  0  0  0  0
  1  6  1  0  0  0  0
  2  1  2  0  0  0  0
  3  2  1  0  0  0  0
  3  4  2  0  0  0  0
  4  5  1  0  0  0  0
  5  6  2  0  0  0  0
  5  8  1  0  0  0  0
  9 16  1  0  0  0  0
  9 10  1  0  0  0  0
 10 11  2  0  0  0  0
 10  3  1  0  0  0  0
 11 12  1  0  0  0  0
 13 11  1  0  0  0  0
 14 13  2  0  0  0  0
 15 14  1  0  0  0  0
 15  9  2  0  0  0  0
 16 17  1  0  0  0  0
 18 15  1  0  0  0  0
 19 18  1  0  0  0  0
 20 23  1  0  0  0  0
 20 21  1  0  0  0  0
 20  2  1  0  0  0  0
 22 20  1  0  0  0  0
M  END
>  <minimizedAffinity>
-5.32649565

>  <minimizedRMSD>
2.14635944

$$$$
