
 OpenBabel03252508173D

 49 53  0  0  1  0  0  0  0  0999 V2000
   46.8750   31.5840   48.3210 C   0  0  1  0  0  0  0  0  0  0  0  0
   46.4000   30.5460   49.2770 C   0  0  0  0  0  0  0  0  0  0  0  0
   47.6930   31.1910   49.4810 C   0  0  1  0  0  0  0  0  0  0  0  0
   46.1510   32.4520   48.3350 H   0  0  0  0  0  0  0  0  0  0  0  0
   45.5860   30.7360   50.0070 H   0  0  0  0  0  0  0  0  0  0  0  0
   46.3730   29.4800   48.9380 H   0  0  0  0  0  0  0  0  0  0  0  0
   47.7460   31.9320   50.3060 H   0  0  0  0  0  0  0  0  0  0  0  0
   48.9880   30.4890   49.2250 C   0  0  2  0  0  0  0  0  0  0  0  0
   49.7360   30.0690   50.5160 C   0  0  0  0  0  0  0  0  0  0  0  0
   50.2670   31.1710   49.7000 C   0  0  1  0  0  0  0  0  0  0  0  0
   49.1080   29.7210   48.4530 H   0  0  0  0  0  0  0  0  0  0  0  0
   49.2550   30.3490   51.4950 H   0  0  0  0  0  0  0  0  0  0  0  0
   50.1930   29.0840   50.5820 H   0  0  0  0  0  0  0  0  0  0  0  0
   50.1200   32.2020   50.0830 H   0  0  0  0  0  0  0  0  0  0  0  0
   52.5190   31.8800   48.8180 C   0  0  0  0  0  0  0  0  0  0  0  0
   51.5070   30.9420   48.8860 C   0  0  0  0  0  0  0  0  0  0  0  0
   51.6630   29.7670   48.1780 C   0  0  0  0  0  0  0  0  0  0  0  0
   50.9270   28.9850   48.1740 H   0  0  0  0  0  0  0  0  0  0  0  0
   52.7900   29.4970   47.4050 C   0  0  0  0  0  3  0  0  0  0  0  0
   53.7920   30.4540   47.3520 C   0  0  0  0  0  3  0  0  0  0  0  0
   53.6550   31.6500   48.0620 C   0  0  0  0  0  0  0  0  0  0  0  0
   52.3530   33.0690   49.5400 O   0  0  0  0  0  0  0  0  0  0  0  0
   52.4450   32.9850   50.5620 H   0  0  0  0  0  0  0  0  0  0  0  0
   54.6770   32.6100   47.9990 O   0  0  0  0  0  0  0  0  0  0  0  0
   55.4640   32.4080   48.6350 H   0  0  0  0  0  0  0  0  0  0  0  0
   47.2040   31.0850   46.9640 C   0  0  0  0  0  0  0  0  0  0  0  0
   46.4330   30.2930   46.7260 H   0  0  0  0  0  0  0  0  0  0  0  0
   48.1580   30.6340   46.7840 H   0  0  0  0  0  0  0  0  0  0  0  0
   46.0890   33.0320   46.2380 C   0  0  0  0  0  3  0  0  0  0  0  0
   46.9330   32.1440   45.9200 C   0  0  0  0  0  3  0  0  0  0  0  0
   44.5300   35.8930   44.5150 C   0  0  0  0  0  0  0  0  0  0  0  0
   45.1810   35.9080   43.2850 C   0  0  0  0  0  0  0  0  0  0  0  0
   46.1170   34.9500   43.0890 C   0  0  0  0  0  0  0  0  0  0  0  0
   46.3840   34.0360   44.0660 N   0  0  0  0  0  0  0  0  0  0  0  0
   45.7400   34.0470   45.2440 C   0  0  0  0  0  0  0  0  0  0  0  0
   44.8220   34.9830   45.4390 N   0  0  0  0  0  0  0  0  0  0  0  0
   43.7740   36.6590   44.6850 H   0  0  0  0  0  0  0  0  0  0  0  0
   44.9620   36.6340   42.5220 H   0  0  0  0  0  0  0  0  0  0  0  0
   46.8780   34.8370   41.8500 C   0  0  0  0  0  0  0  0  0  0  0  0
   48.0810   35.4360   41.6110 C   0  0  0  0  0  0  0  0  0  0  0  0
   48.7850   35.3160   40.4290 C   0  0  0  0  0  0  0  0  0  0  0  0
   48.2740   34.5480   39.4020 C   0  0  0  0  0  0  0  0  0  0  0  0
   47.0710   33.9190   39.5780 C   0  0  0  0  0  0  0  0  0  0  0  0
   46.4120   34.0780   40.7830 C   0  0  0  0  0  0  0  0  0  0  0  0
   48.5170   36.0530   42.4010 H   0  0  0  0  0  0  0  0  0  0  0  0
   49.7330   35.8100   40.2880 H   0  0  0  0  0  0  0  0  0  0  0  0
   48.7600   34.4020   38.4460 H   0  0  0  0  0  0  0  0  0  0  0  0
   46.6470   33.3160   38.8000 H   0  0  0  0  0  0  0  0  0  0  0  0
   45.4510   33.5500   40.8710 H   0  0  0  0  0  0  0  0  0  0  0  0
  1  4  1  1  0  0  0
  1  2  1  0  0  0  0
  1  3  1  0  0  0  0
  2  3  1  0  0  0  0
  2  5  1  0  0  0  0
  3  7  1  1  0  0  0
  6  2  1  0  0  0  0
  8 11  1  6  0  0  0
  8  3  1  0  0  0  0
  8 10  1  0  0  0  0
  8  9  1  0  0  0  0
  9 13  1  0  0  0  0
  9 12  1  0  0  0  0
 10 14  1  1  0  0  0
 10  9  1  0  0  0  0
 15 16  1  0  0  0  0
 15 22  1  0  0  0  0
 16 10  1  0  0  0  0
 17 16  2  0  0  0  0
 18 17  1  0  0  0  0
 19 17  1  0  0  0  0
 20 19  2  0  0  0  0
 20 21  1  0  0  0  0
 21 15  2  0  0  0  0
 22 23  1  0  0  0  0
 24 21  1  0  0  0  0
 24 25  1  0  0  0  0
 26  1  1  0  0  0  0
 27 26  1  0  0  0  0
 28 26  1  0  0  0  0
 30 29  2  0  0  0  0
 30 26  1  0  0  0  0
 31 37  1  0  0  0  0
 31 36  1  0  0  0  0
 32 31  2  0  0  0  0
 33 32  1  0  0  0  0
 33 34  2  0  0  0  0
 34 35  1  0  0  0  0
 35 36  2  0  0  0  0
 35 29  1  0  0  0  0
 38 32  1  0  0  0  0
 39 33  1  0  0  0  0
 40 39  1  0  0  0  0
 40 45  1  0  0  0  0
 41 40  2  0  0  0  0
 42 43  2  0  0  0  0
 42 41  1  0  0  0  0
 43 44  1  0  0  0  0
 44 49  1  0  0  0  0
 44 39  2  0  0  0  0
 46 41  1  0  0  0  0
 47 42  1  0  0  0  0
 48 43  1  0  0  0  0
M  END
>  <minimizedAffinity>
-7.16372538

>  <minimizedRMSD>
0.951104939

$$$$
