
 OpenBabel03252508153D

 39 42  0  0  1  0  0  0  0  0999 V2000
   46.0800   33.1180   46.0370 C   0  0  0  0  0  3  0  0  0  0  0  0
   46.7940   32.1300   45.6630 C   0  0  0  0  0  3  0  0  0  0  0  0
   44.4590   35.9960   44.4090 C   0  0  0  0  0  0  0  0  0  0  0  0
   44.7710   35.7970   43.0700 C   0  0  0  0  0  0  0  0  0  0  0  0
   45.5320   34.7170   42.7520 C   0  0  0  0  0  0  0  0  0  0  0  0
   45.9310   33.9110   43.7670 N   0  0  0  0  0  0  0  0  0  0  0  0
   45.6390   34.0880   45.0530 C   0  0  0  0  0  0  0  0  0  0  0  0
   44.8900   35.1570   45.3460 N   0  0  0  0  0  0  0  0  0  0  0  0
   43.8540   36.8470   44.7220 H   0  0  0  0  0  0  0  0  0  0  0  0
   44.4340   36.4590   42.3050 H   0  0  0  0  0  0  0  0  0  0  0  0
   47.2030   34.5140   40.8530 C   0  0  0  0  0  0  0  0  0  0  0  0
   45.9810   34.3080   41.4320 C   0  0  0  0  0  0  0  0  0  0  0  0
   45.1180   33.6150   40.6000 C   0  0  0  0  0  0  0  0  0  0  0  0
   44.0890   33.3570   40.9020 H   0  0  0  0  0  0  0  0  0  0  0  0
   45.4520   33.1830   39.3350 C   0  0  0  0  0  3  0  0  0  0  0  0
   46.7040   33.4290   38.8180 C   0  0  0  0  0  3  0  0  0  0  0  0
   47.5940   34.1130   39.6070 C   0  0  0  0  0  0  0  0  0  0  0  0
   48.1430   35.1920   41.5810 O   0  0  0  0  0  0  0  0  0  0  0  0
   48.8450   34.6370   42.0710 H   0  0  0  0  0  0  0  0  0  0  0  0
   48.8430   34.3650   39.1040 O   0  0  0  0  0  0  0  0  0  0  0  0
   49.5080   33.5880   39.1130 H   0  0  0  0  0  0  0  0  0  0  0  0
   47.1850   31.1580   46.7660 C   0  0  0  0  0  0  0  0  0  0  0  0
   46.4860   30.2940   46.5940 H   0  0  0  0  0  0  0  0  0  0  0  0
   48.2130   30.8100   46.6430 H   0  0  0  0  0  0  0  0  0  0  0  0
   46.8380   31.7330   48.0970 C   0  0  1  0  0  0  0  0  0  0  0  0
   46.2270   30.8100   49.0990 C   0  0  0  0  0  0  0  0  0  0  0  0
   47.5780   31.2930   49.3090 C   0  0  1  0  0  0  0  0  0  0  0  0
   46.4530   32.7900   48.1070 H   0  0  0  0  0  0  0  0  0  0  0  0
   46.0890   29.7470   48.7910 H   0  0  0  0  0  0  0  0  0  0  0  0
   45.3720   31.1830   49.6920 H   0  0  0  0  0  0  0  0  0  0  0  0
   47.6790   32.0750   50.1220 H   0  0  0  0  0  0  0  0  0  0  0  0
   48.8160   30.5070   49.1140 C   0  0  0  0  0  0  0  0  0  0  0  0
   49.6330   30.2820   50.4140 C   0  0  0  0  0  0  0  0  0  0  0  0
   50.1420   31.2430   49.3950 C   0  0  0  0  0  0  0  0  0  0  0  0
   48.8440   29.6590   48.4010 H   0  0  0  0  0  0  0  0  0  0  0  0
   50.1160   29.3100   50.5280 H   0  0  0  0  0  0  0  0  0  0  0  0
   49.2580   30.7530   51.3430 H   0  0  0  0  0  0  0  0  0  0  0  0
   51.0160   30.8890   48.8210 H   0  0  0  0  0  0  0  0  0  0  0  0
   50.0520   32.3240   49.5310 H   0  0  0  0  0  0  0  0  0  0  0  0
  2  1  2  0  0  0  0
  2 22  1  0  0  0  0
  3  9  1  0  0  0  0
  3  8  1  0  0  0  0
  4  3  2  0  0  0  0
  5  4  1  0  0  0  0
  5  6  2  0  0  0  0
  6  7  1  0  0  0  0
  7  8  2  0  0  0  0
  7  1  1  0  0  0  0
 10  4  1  0  0  0  0
 11 12  1  0  0  0  0
 11 18  1  0  0  0  0
 12  5  1  0  0  0  0
 13 14  1  0  0  0  0
 13 12  2  0  0  0  0
 15 13  1  0  0  0  0
 16 15  2  0  0  0  0
 16 17  1  0  0  0  0
 17 11  2  0  0  0  0
 18 19  1  0  0  0  0
 20 21  1  0  0  0  0
 20 17  1  0  0  0  0
 22 25  1  0  0  0  0
 23 22  1  0  0  0  0
 24 22  1  0  0  0  0
 25 28  1  1  0  0  0
 25 26  1  0  0  0  0
 25 27  1  0  0  0  0
 26 27  1  0  0  0  0
 26 30  1  0  0  0  0
 27 31  1  1  0  0  0
 29 26  1  0  0  0  0
 32 27  1  0  0  0  0
 32 34  1  0  0  0  0
 32 33  1  0  0  0  0
 33 36  1  0  0  0  0
 33 37  1  0  0  0  0
 34 39  1  0  0  0  0
 34 33  1  0  0  0  0
 35 32  1  0  0  0  0
 38 34  1  0  0  0  0
M  END
>  <minimizedAffinity>
-6.08744478

>  <minimizedRMSD>
1.09524357

$$$$
