
 OpenBabel03252507133D

 44 46  0  0  1  0  0  0  0  0999 V2000
   41.1490   33.6730   40.6510 C   0  0  2  0  0  0  0  0  0  0  0  0
   39.8610   34.4030   40.7100 C   0  0  0  0  0  0  0  0  0  0  0  0
   38.7650   33.5380   40.1540 C   0  0  0  0  0  0  0  0  0  0  0  0
   38.4830   32.4470   40.9700 O   0  0  0  0  0  0  0  0  0  0  0  0
   39.5980   32.0590   41.6800 C   0  0  0  0  0  0  0  0  0  0  0  0
   40.8570   32.2020   40.8560 C   0  0  1  0  0  0  0  0  0  0  0  0
   41.5560   33.8260   39.6130 H   0  0  0  0  0  0  0  0  0  0  0  0
   39.5670   34.7190   41.7340 H   0  0  0  0  0  0  0  0  0  0  0  0
   39.8730   35.3580   40.1110 H   0  0  0  0  0  0  0  0  0  0  0  0
   38.8330   33.3250   39.0910 H   0  0  0  0  0  0  0  0  0  0  0  0
   37.8350   34.2140   40.2200 H   0  0  0  0  0  0  0  0  0  0  0  0
   39.4400   31.0330   42.0420 H   0  0  0  0  0  0  0  0  0  0  0  0
   39.7020   32.7160   42.5760 H   0  0  0  0  0  0  0  0  0  0  0  0
   41.6710   31.8880   41.5930 H   0  0  0  0  0  0  0  0  0  0  0  0
   41.7440   31.7050   38.6860 C   0  0  0  0  0  0  0  0  0  0  0  0
   40.9460   31.2860   39.7710 C   0  0  0  0  0  0  0  0  0  0  0  0
   40.3890   30.0490   39.5300 C   0  0  0  0  0  0  0  0  0  0  0  0
   39.7650   29.6770   40.3010 H   0  0  0  0  0  0  0  0  0  0  0  0
   40.5430   29.2660   38.4090 C   0  0  0  0  0  3  0  0  0  0  0  0
   41.3400   29.7510   37.3970 C   0  0  0  0  0  3  0  0  0  0  0  0
   41.9270   30.9670   37.5570 C   0  0  0  0  0  0  0  0  0  0  0  0
   42.4150   32.9440   38.7080 O   0  0  0  0  0  0  0  0  0  0  0  0
   42.5250   33.5120   37.9010 H   0  0  0  0  0  0  0  0  0  0  0  0
   42.7180   31.4040   36.5030 O   0  0  0  0  0  0  0  0  0  0  0  0
   43.7070   31.3080   36.4470 H   0  0  0  0  0  0  0  0  0  0  0  0
   42.1230   34.1080   41.4680 O   0  0  0  0  0  0  0  0  0  0  0  0
   43.5910   36.2770   41.6390 O   0  0  0  0  0  0  0  0  0  0  0  0
   43.3220   35.0580   40.8480 P   0  0  2  0  0  0  0  0  0  0  0  0
   42.8480   35.5630   39.2910 O   0  0  0  0  0  0  0  0  0  0  0  0
   43.5830   35.4920   38.6330 H   0  0  0  0  0  0  0  0  0  0  0  0
   44.7680   34.1380   40.6520 O   0  0  0  0  0  0  0  0  0  0  0  0
   45.2570   33.1420   42.7310 C   0  0  0  0  0  0  0  0  0  0  0  0
   45.6530   33.9530   41.6940 C   0  0  0  0  0  0  0  0  0  0  0  0
   46.9360   34.5550   41.7390 C   0  0  0  0  0  0  0  0  0  0  0  0
   47.7040   34.2830   42.8240 N   0  0  0  0  0  0  0  0  0  0  0  0
   47.2870   33.4940   43.8100 C   0  0  0  0  0  0  0  0  0  0  0  0
   46.0560   32.9280   43.7470 N   0  0  0  0  0  0  0  0  0  0  0  0
   43.8240   31.1350   42.3950 C   0  0  0  0  0  0  0  0  0  0  0  0
   44.4800   30.7330   41.3730 O   0  0  0  0  0  0  0  0  0  0  0  0
   44.1490   32.3570   43.1430 N   0  0  0  0  0  0  0  0  0  0  0  0
   47.2250   35.1920   40.9040 H   0  0  0  0  0  0  0  0  0  0  0  0
   47.8960   33.2720   44.6820 H   0  0  0  0  0  0  0  0  0  0  0  0
   42.9800   30.5070   42.6980 H   0  0  0  0  0  0  0  0  0  0  0  0
   43.5020   32.5370   43.9340 H   0  0  0  0  0  0  0  0  0  0  0  0
  1  7  1  6  0  0  0
  1  2  1  0  0  0  0
  1  6  1  0  0  0  0
  1 26  1  0  0  0  0
  2  8  1  0  0  0  0
  3 11  1  0  0  0  0
  3  2  1  0  0  0  0
  3  4  1  0  0  0  0
  4  5  1  0  0  0  0
  5 12  1  0  0  0  0
  5 13  1  0  0  0  0
  6 14  1  1  0  0  0
  6  5  1  0  0  0  0
  9  2  1  0  0  0  0
 10  3  1  0  0  0  0
 15 22  1  0  0  0  0
 15 16  1  0  0  0  0
 16  6  1  0  0  0  0
 17 16  2  0  0  0  0
 17 18  1  0  0  0  0
 19 17  1  0  0  0  0
 20 21  1  0  0  0  0
 20 19  2  0  0  0  0
 21 15  2  0  0  0  0
 23 22  1  0  0  0  0
 24 21  1  0  0  0  0
 25 24  1  0  0  0  0
 28 26  1  0  0  0  0
 28 27  2  1  0  0  0
 29 28  1  0  0  0  0
 30 29  1  0  0  0  0
 31 28  1  0  0  0  0
 31 33  1  0  0  0  0
 32 40  1  0  0  0  0
 32 37  1  0  0  0  0
 33 34  1  0  0  0  0
 33 32  2  0  0  0  0
 34 35  2  0  0  0  0
 35 36  1  0  0  0  0
 36 42  1  0  0  0  0
 37 36  2  0  0  0  0
 38 43  1  0  0  0  0
 38 40  1  0  0  0  0
 39 38  2  0  0  0  0
 40 44  1  0  0  0  0
 41 34  1  0  0  0  0
M  END
>  <minimizedAffinity>
-5.39050961

>  <minimizedRMSD>
5.55090189

$$$$
