
 OpenBabel03252505113D

 46 49  0  0  1  0  0  0  0  0999 V2000
   44.5650   35.6820   44.5110 C   0  0  0  0  0  0  0  0  0  0  0  0
   45.0880   35.5160   43.2110 C   0  0  0  0  0  0  0  0  0  0  0  0
   46.0750   34.4880   43.0130 C   0  0  0  0  0  0  0  0  0  0  0  0
   46.4450   33.7440   44.0740 N   0  0  0  0  0  0  0  0  0  0  0  0
   45.9280   33.9320   45.2900 C   0  0  0  0  0  0  0  0  0  0  0  0
   44.9800   34.9030   45.5270 N   0  0  0  0  0  0  0  0  0  0  0  0
   43.8210   36.4430   44.7040 H   0  0  0  0  0  0  0  0  0  0  0  0
   44.7530   36.1370   42.4160 H   0  0  0  0  0  0  0  0  0  0  0  0
   46.3770   33.0850   46.4260 C   0  0  2  0  0  0  0  0  0  0  0  0
   46.9560   31.8450   45.7790 C   0  0  0  0  0  0  0  0  0  0  0  0
   46.1290   30.6310   45.8440 C   0  0  0  0  0  0  0  0  0  0  0  0
   45.8560   30.4210   47.3330 C   0  0  0  0  0  0  0  0  0  0  0  0
   45.0240   31.4780   47.9010 C   0  0  0  0  0  0  0  0  0  0  0  0
   45.3430   32.8400   47.3900 C   0  0  0  0  0  0  0  0  0  0  0  0
   47.2060   33.6710   46.9010 H   0  0  0  0  0  0  0  0  0  0  0  0
   47.9160   31.6280   46.2970 H   0  0  0  0  0  0  0  0  0  0  0  0
   47.2500   32.0070   44.7160 H   0  0  0  0  0  0  0  0  0  0  0  0
   45.1890   30.7320   45.2890 H   0  0  0  0  0  0  0  0  0  0  0  0
   46.7270   29.7770   45.5310 H   0  0  0  0  0  0  0  0  0  0  0  0
   46.8040   30.2510   47.8410 H   0  0  0  0  0  0  0  0  0  0  0  0
   45.2400   29.4980   47.3680 H   0  0  0  0  0  0  0  0  0  0  0  0
   44.2190   31.4620   48.6220 H   0  0  0  0  0  0  0  0  0  0  0  0
   44.6100   33.9720   47.8530 N   0  0  0  0  0  0  0  0  0  0  0  0
   45.2160   34.4750   48.5160 H   0  0  0  0  0  0  0  0  0  0  0  0
   43.6430   34.1020   47.4700 H   0  0  0  0  0  0  0  0  0  0  0  0
   46.6280   34.2930   41.6870 C   0  0  0  0  0  0  0  0  0  0  0  0
   47.7880   34.9030   41.3670 C   0  0  0  0  0  0  0  0  0  0  0  0
   48.2690   34.6890   40.0690 C   0  0  0  0  0  0  0  0  0  0  0  0
   47.5100   33.8760   39.2460 C   0  0  0  0  0  0  0  0  0  0  0  0
   46.3280   33.2550   39.5760 C   0  0  0  0  0  0  0  0  0  0  0  0
   45.9130   33.5000   40.8490 N   0  0  0  0  0  0  0  0  0  0  0  0
   48.3360   35.5280   42.0550 H   0  0  0  0  0  0  0  0  0  0  0  0
   49.1940   35.1570   39.7640 H   0  0  0  0  0  0  0  0  0  0  0  0
   47.9500   33.7650   38.2630 H   0  0  0  0  0  0  0  0  0  0  0  0
   45.6350   32.4690   38.7030 O   0  0  0  0  0  0  0  0  0  0  0  0
   45.6030   32.7540   36.2650 C   0  0  0  0  0  0  0  0  0  0  0  0
   45.9180   32.1350   37.4330 C   0  0  0  0  0  0  0  0  0  0  0  0
   46.6600   30.9520   37.3230 C   0  0  0  0  0  0  0  0  0  0  0  0
   46.9840   30.3480   38.1850 H   0  0  0  0  0  0  0  0  0  0  0  0
   47.0580   30.4270   36.1080 C   0  0  0  0  0  3  0  0  0  0  0  0
   46.7040   31.1070   34.9550 C   0  0  0  0  0  3  0  0  0  0  0  0
   45.9740   32.2740   35.0230 C   0  0  0  0  0  0  0  0  0  0  0  0
   44.8670   33.9270   36.3960 O   0  0  0  0  0  0  0  0  0  0  0  0
   44.2250   34.1390   35.6400 H   0  0  0  0  0  0  0  0  0  0  0  0
   45.5910   32.9990   33.9090 O   0  0  0  0  0  0  0  0  0  0  0  0
   44.5940   32.9970   33.6830 H   0  0  0  0  0  0  0  0  0  0  0  0
  1  7  1  0  0  0  0
  1  6  1  0  0  0  0
  2  1  2  0  0  0  0
  3  2  1  0  0  0  0
  3  4  2  0  0  0  0
  4  5  1  0  0  0  0
  5  6  2  0  0  0  0
  5  9  1  0  0  0  0
  8  2  1  0  0  0  0
  9 15  1  1  0  0  0
  9 14  1  0  0  0  0
 10 11  1  0  0  0  0
 10 16  1  0  0  0  0
 10  9  1  0  0  0  0
 11 12  1  0  0  0  0
 12 21  1  0  0  0  0
 12 20  1  0  0  0  0
 12 13  1  0  0  0  0
 13 22  1  0  0  0  0
 14 23  1  0  0  0  0
 14 13  2  0  0  0  0
 17 10  1  0  0  0  0
 18 11  1  0  0  0  0
 19 11  1  0  0  0  0
 23 24  1  0  0  0  0
 25 23  1  0  0  0  0
 26  3  1  0  0  0  0
 27 26  1  0  0  0  0
 27 32  1  0  0  0  0
 28 27  2  0  0  0  0
 29 30  2  0  0  0  0
 29 28  1  0  0  0  0
 30 31  1  0  0  0  0
 31 26  2  0  0  0  0
 33 28  1  0  0  0  0
 34 29  1  0  0  0  0
 35 30  1  0  0  0  0
 36 43  1  0  0  0  0
 36 37  1  0  0  0  0
 37 35  1  0  0  0  0
 38 37  2  0  0  0  0
 38 39  1  0  0  0  0
 40 38  1  0  0  0  0
 41 42  1  0  0  0  0
 41 40  2  0  0  0  0
 42 36  2  0  0  0  0
 44 43  1  0  0  0  0
 45 42  1  0  0  0  0
 46 45  1  0  0  0  0
M  END
>  <minimizedAffinity>
-8.170681

>  <minimizedRMSD>
0.919853806

$$$$
