
 OpenBabel03242518363D

 37 40  0  0  1  0  0  0  0  0999 V2000
   48.7870   32.9110   41.4260 C   0  0  0  0  0  0  0  0  0  0  0  0
   47.8420   33.9350   41.3820 C   0  0  0  0  0  0  0  0  0  0  0  0
   47.7060   34.3590   40.0690 C   0  0  0  0  0  0  0  0  0  0  0  0
   48.5820   33.5640   39.3760 C   0  0  0  0  0  0  0  0  0  0  0  0
   49.2070   32.7250   40.1720 O   0  0  0  0  0  0  0  0  0  0  0  0
   47.3480   34.2740   42.2970 H   0  0  0  0  0  0  0  0  0  0  0  0
   47.0360   35.1450   39.7490 H   0  0  0  0  0  0  0  0  0  0  0  0
   48.7940   33.6350   37.9200 C   0  0  2  0  0  0  0  0  0  0  0  0
   47.8020   34.3280   37.0720 C   0  0  0  0  0  0  0  0  0  0  0  0
   47.7590   32.8330   37.1000 C   0  0  1  0  0  0  0  0  0  0  0  0
   49.8520   33.4580   37.6360 H   0  0  0  0  0  0  0  0  0  0  0  0
   46.9660   34.8630   37.5360 H   0  0  0  0  0  0  0  0  0  0  0  0
   48.2110   34.8610   36.1680 H   0  0  0  0  0  0  0  0  0  0  0  0
   46.9190   32.3560   37.6550 H   0  0  0  0  0  0  0  0  0  0  0  0
   47.6100   32.0170   34.7810 C   0  0  0  0  0  0  0  0  0  0  0  0
   48.3480   32.1210   35.9400 C   0  0  0  0  0  0  0  0  0  0  0  0
   49.6030   31.5480   35.9440 C   0  0  0  0  0  0  0  0  0  0  0  0
   50.2050   31.6140   36.8390 H   0  0  0  0  0  0  0  0  0  0  0  0
   50.0840   30.9010   34.8230 C   0  0  0  0  0  3  0  0  0  0  0  0
   49.3550   30.7910   33.6600 C   0  0  0  0  0  3  0  0  0  0  0  0
   48.0970   31.3610   33.6450 C   0  0  0  0  0  0  0  0  0  0  0  0
   46.3390   32.5870   34.7490 O   0  0  0  0  0  0  0  0  0  0  0  0
   45.7340   32.4040   33.9700 H   0  0  0  0  0  0  0  0  0  0  0  0
   47.3300   31.2710   32.4860 O   0  0  0  0  0  0  0  0  0  0  0  0
   46.8050   30.3980   32.3970 H   0  0  0  0  0  0  0  0  0  0  0  0
   49.2800   32.1510   42.5040 O   0  0  0  0  0  0  0  0  0  0  0  0
   49.3930   30.7520   42.3800 C   0  0  0  0  0  0  0  0  0  0  0  0
   48.3110   30.1320   42.2000 O   0  0  0  0  0  0  0  0  0  0  0  0
   50.7030   30.2090   42.4720 C   0  0  0  0  0  0  0  0  0  0  0  0
   51.2790   29.8910   41.2730 C   0  0  0  0  0  0  0  0  0  0  0  0
   52.5650   29.3520   41.2880 C   0  0  0  0  0  0  0  0  0  0  0  0
   53.1680   29.1770   42.4760 N   0  0  0  0  0  0  0  0  0  0  0  0
   52.5780   29.4990   43.6300 C   0  0  0  0  0  0  0  0  0  0  0  0
   51.3350   30.0180   43.6130 N   0  0  0  0  0  0  0  0  0  0  0  0
   50.8640   29.9990   40.2650 H   0  0  0  0  0  0  0  0  0  0  0  0
   53.0800   29.0770   40.3720 H   0  0  0  0  0  0  0  0  0  0  0  0
   53.1510   29.3180   44.5420 H   0  0  0  0  0  0  0  0  0  0  0  0
  1 26  1  0  0  0  0
  2  1  2  0  0  0  0
  2  6  1  0  0  0  0
  3  2  1  0  0  0  0
  4  3  2  0  0  0  0
  4  5  1  0  0  0  0
  5  1  1  0  0  0  0
  7  3  1  0  0  0  0
  8 11  1  6  0  0  0
  8  4  1  0  0  0  0
  9 10  1  0  0  0  0
  9 12  1  0  0  0  0
  9  8  1  0  0  0  0
 10 14  1  1  0  0  0
 10  8  1  0  0  0  0
 13  9  1  0  0  0  0
 15 16  1  0  0  0  0
 16 17  2  0  0  0  0
 16 10  1  0  0  0  0
 17 18  1  0  0  0  0
 19 17  1  0  0  0  0
 20 19  2  0  0  0  0
 21 20  1  0  0  0  0
 21 15  2  0  0  0  0
 22 15  1  0  0  0  0
 23 22  1  0  0  0  0
 24 21  1  0  0  0  0
 25 24  1  0  0  0  0
 27 29  1  0  0  0  0
 27 26  1  0  0  0  0
 28 27  2  0  0  0  0
 29 34  1  0  0  0  0
 30 31  1  0  0  0  0
 30 29  2  0  0  0  0
 31 32  2  0  0  0  0
 32 33  1  0  0  0  0
 33 37  1  0  0  0  0
 34 33  2  0  0  0  0
 35 30  1  0  0  0  0
 36 31  1  0  0  0  0
M  END
>  <minimizedAffinity>
-3.85980177

>  <minimizedRMSD>
5.21417284

$$$$
