
 OpenBabel03252506323D

 34 36  0  0  1  0  0  0  0  0999 V2000
   39.6150   34.2970   41.3870 C   0  0  0  0  0  0  0  0  0  0  0  0
   40.7100   35.0300   40.8770 C   0  0  0  0  0  0  0  0  0  0  0  0
   41.9290   34.3800   40.6930 C   0  0  0  0  0  0  0  0  0  0  0  0
   41.9790   33.0710   41.0220 N   0  0  0  0  0  0  0  0  0  0  0  0
   40.9350   32.3960   41.5030 C   0  0  0  0  0  0  0  0  0  0  0  0
   39.7440   32.9880   41.6930 N   0  0  0  0  0  0  0  0  0  0  0  0
   41.1290   31.0210   41.8190 N   0  0  0  0  0  0  0  0  0  0  0  0
   40.0360   30.0610   42.0420 C   0  0  0  0  0  0  0  0  0  0  0  0
   40.6040   29.2230   43.1570 C   0  0  0  0  0  0  0  0  0  0  0  0
   42.0660   29.5570   43.2730 C   0  0  0  0  0  0  0  0  0  0  0  0
   42.3310   30.2730   41.9880 C   0  0  2  0  0  0  0  0  0  0  0  0
   38.6550   34.7960   41.5350 H   0  0  0  0  0  0  0  0  0  0  0  0
   42.7440   34.9720   40.3010 H   0  0  0  0  0  0  0  0  0  0  0  0
   39.0940   30.5530   42.3100 H   0  0  0  0  0  0  0  0  0  0  0  0
   39.9980   29.4410   41.1310 H   0  0  0  0  0  0  0  0  0  0  0  0
   40.0210   29.4640   44.0690 H   0  0  0  0  0  0  0  0  0  0  0  0
   40.4920   28.1400   42.9610 H   0  0  0  0  0  0  0  0  0  0  0  0
   42.7040   28.6650   43.3960 H   0  0  0  0  0  0  0  0  0  0  0  0
   42.1760   30.2240   44.1690 H   0  0  0  0  0  0  0  0  0  0  0  0
   42.2950   29.4610   41.1920 H   0  0  0  0  0  0  0  0  0  0  0  0
   44.3020   31.1330   40.7610 C   0  0  0  0  0  0  0  0  0  0  0  0
   43.5960   30.9900   41.9620 C   0  0  0  0  0  0  0  0  0  0  0  0
   44.2390   31.5520   43.0260 C   0  0  0  0  0  0  0  0  0  0  0  0
   43.7800   31.4820   44.0050 H   0  0  0  0  0  0  0  0  0  0  0  0
   45.4450   32.2030   43.0060 C   0  0  0  0  0  3  0  0  0  0  0  0
   46.0960   32.3130   41.7940 C   0  0  0  0  0  3  0  0  0  0  0  0
   45.5260   31.7770   40.6650 C   0  0  0  0  0  0  0  0  0  0  0  0
   43.7800   30.6130   39.5850 O   0  0  0  0  0  0  0  0  0  0  0  0
   43.0200   31.0840   39.0810 H   0  0  0  0  0  0  0  0  0  0  0  0
   46.1680   31.8780   39.4290 O   0  0  0  0  0  0  0  0  0  0  0  0
   46.8220   32.6320   39.2680 H   0  0  0  0  0  0  0  0  0  0  0  0
   40.4630   36.4070   40.5890 N   0  0  0  0  0  0  0  0  0  0  0  0
   39.8090   36.9410   41.1680 H   0  0  0  0  0  0  0  0  0  0  0  0
   40.9690   36.8410   39.7770 H   0  0  0  0  0  0  0  0  0  0  0  0
  1 12  1  0  0  0  0
  1  6  1  0  0  0  0
  2  1  2  0  0  0  0
  3  2  1  0  0  0  0
  3  4  2  0  0  0  0
  4  5  1  0  0  0  0
  5  6  2  0  0  0  0
  5  7  1  0  0  0  0
  7 11  1  0  0  0  0
  7  8  1  0  0  0  0
  8 14  1  0  0  0  0
  8  9  1  0  0  0  0
  9 10  1  0  0  0  0
  9 16  1  0  0  0  0
 10 18  1  0  0  0  0
 10 19  1  0  0  0  0
 11 20  1  6  0  0  0
 11 10  1  0  0  0  0
 13  3  1  0  0  0  0
 15  8  1  0  0  0  0
 17  9  1  0  0  0  0
 21 22  1  0  0  0  0
 22 11  1  0  0  0  0
 22 23  2  0  0  0  0
 23 24  1  0  0  0  0
 25 23  1  0  0  0  0
 26 25  2  0  0  0  0
 27 21  2  0  0  0  0
 27 26  1  0  0  0  0
 28 21  1  0  0  0  0
 29 28  1  0  0  0  0
 30 27  1  0  0  0  0
 31 30  1  0  0  0  0
 32  2  1  0  0  0  0
 32 33  1  0  0  0  0
 34 32  1  0  0  0  0
M  END
>  <minimizedAffinity>
-3.4703505

>  <minimizedRMSD>
6.38157654

$$$$
