
 OpenBabel03252505193D

 36 39  0  0  0  0  0  0  0  0999 V2000
   46.2060   32.7060   47.0520 C   0  0  0  0  0  0  0  0  0  0  0  0
   45.0720   32.4640   47.8170 C   0  0  0  0  0  0  0  0  0  0  0  0
   45.1860   31.6750   48.9440 C   0  0  0  0  0  0  0  0  0  0  0  0
   46.4330   31.1670   49.2500 C   0  0  0  0  0  0  0  0  0  0  0  0
   47.5330   31.4400   48.4530 C   0  0  0  0  0  0  0  0  0  0  0  0
   47.4150   32.2190   47.3420 N   0  0  0  0  0  0  0  0  0  0  0  0
   44.1320   32.8990   47.5090 H   0  0  0  0  0  0  0  0  0  0  0  0
   44.3030   31.4870   49.5390 H   0  0  0  0  0  0  0  0  0  0  0  0
   46.4870   30.5640   50.1260 H   0  0  0  0  0  0  0  0  0  0  0  0
   44.8990   35.1460   44.6020 C   0  0  0  0  0  0  0  0  0  0  0  0
   45.7920   35.0260   43.5210 C   0  0  0  0  0  0  0  0  0  0  0  0
   46.8180   34.1160   43.6780 C   0  0  0  0  0  0  0  0  0  0  0  0
   46.9440   33.3760   44.8340 N   0  0  0  0  0  0  0  0  0  0  0  0
   46.0510   33.5280   45.8550 C   0  0  0  0  0  0  0  0  0  0  0  0
   45.0400   34.4160   45.7180 N   0  0  0  0  0  0  0  0  0  0  0  0
   44.0770   35.8490   44.5270 H   0  0  0  0  0  0  0  0  0  0  0  0
   45.7020   35.5960   42.6200 H   0  0  0  0  0  0  0  0  0  0  0  0
   47.8040   33.8830   42.5770 C   0  0  0  0  0  0  0  0  0  0  0  0
   48.0430   35.1160   41.7070 C   0  0  0  0  0  0  0  0  0  0  0  0
   49.1100   34.4760   42.6580 C   0  0  0  0  0  0  0  0  0  0  0  0
   47.5720   32.9430   42.0190 H   0  0  0  0  0  0  0  0  0  0  0  0
   48.1530   34.8950   40.6470 H   0  0  0  0  0  0  0  0  0  0  0  0
   47.6690   36.0920   42.0220 H   0  0  0  0  0  0  0  0  0  0  0  0
   49.4100   35.0730   43.5320 H   0  0  0  0  0  0  0  0  0  0  0  0
   49.9340   33.9620   42.1040 H   0  0  0  0  0  0  0  0  0  0  0  0
   49.4300   29.9200   48.0020 C   0  0  0  0  0  0  0  0  0  0  0  0
   48.8500   30.9080   48.7710 C   0  0  0  0  0  0  0  0  0  0  0  0
   49.6240   31.3200   49.8320 C   0  0  0  0  0  0  0  0  0  0  0  0
   49.2490   32.0900   50.4870 H   0  0  0  0  0  0  0  0  0  0  0  0
   50.8710   30.8020   50.1160 C   0  0  0  0  0  3  0  0  0  0  0  0
   51.3980   29.8140   49.3060 C   0  0  0  0  0  3  0  0  0  0  0  0
   50.6720   29.3730   48.2450 C   0  0  0  0  0  0  0  0  0  0  0  0
   48.7490   29.4210   46.9030 O   0  0  0  0  0  0  0  0  0  0  0  0
   48.1580   28.6030   47.0030 H   0  0  0  0  0  0  0  0  0  0  0  0
   51.1920   28.3720   47.4160 O   0  0  0  0  0  0  0  0  0  0  0  0
   51.5670   27.5240   47.8140 H   0  0  0  0  0  0  0  0  0  0  0  0
  1  6  2  0  0  0  0
  1  2  1  0  0  0  0
  2  3  2  0  0  0  0
  3  4  1  0  0  0  0
  3  8  1  0  0  0  0
  4  9  1  0  0  0  0
  5 27  1  0  0  0  0
  5  4  2  0  0  0  0
  6  5  1  0  0  0  0
  7  2  1  0  0  0  0
 10 15  1  0  0  0  0
 11 12  1  0  0  0  0
 11 10  2  0  0  0  0
 12 13  2  0  0  0  0
 13 14  1  0  0  0  0
 14  1  1  0  0  0  0
 15 14  2  0  0  0  0
 16 10  1  0  0  0  0
 17 11  1  0  0  0  0
 18 20  1  0  0  0  0
 18 12  1  0  0  0  0
 19 23  1  0  0  0  0
 19 18  1  0  0  0  0
 19 20  1  0  0  0  0
 20 24  1  0  0  0  0
 21 18  1  0  0  0  0
 22 19  1  0  0  0  0
 25 20  1  0  0  0  0
 26 32  2  0  0  0  0
 26 27  1  0  0  0  0
 27 28  2  0  0  0  0
 28 30  1  0  0  0  0
 28 29  1  0  0  0  0
 31 30  2  0  0  0  0
 32 31  1  0  0  0  0
 33 34  1  0  0  0  0
 33 26  1  0  0  0  0
 35 36  1  0  0  0  0
 35 32  1  0  0  0  0
M  END
>  <minimizedAffinity>
-6.45352316

>  <minimizedRMSD>
1.71926153

$$$$
