
 OpenBabel03242520573D

 43 45  0  0  0  0  0  0  0  0999 V2000
   51.4070   31.7780   50.9470 C   0  0  0  0  0  0  0  0  0  0  0  0
   51.5930   30.5810   51.6920 C   0  0  0  0  0  0  0  0  0  0  0  0
   50.6820   29.5440   51.5470 C   0  0  0  0  0  0  0  0  0  0  0  0
   49.6670   29.7330   50.7040 N   0  0  0  0  0  0  0  0  0  0  0  0
   49.4900   30.8680   49.9990 C   0  0  0  0  0  0  0  0  0  0  0  0
   50.3560   31.8890   50.1170 N   0  0  0  0  0  0  0  0  0  0  0  0
   52.0460   32.6480   50.9750 H   0  0  0  0  0  0  0  0  0  0  0  0
   52.4050   30.7540   53.8620 C   0  0  0  0  0  0  0  0  0  0  0  0
   52.7840   30.6790   52.5140 C   0  0  0  0  0  0  0  0  0  0  0  0
   54.1320   30.7280   52.2250 C   0  0  0  0  0  0  0  0  0  0  0  0
   54.2760   30.6590   51.1510 H   0  0  0  0  0  0  0  0  0  0  0  0
   55.0630   30.8470   53.2330 C   0  0  0  0  0  0  0  0  0  0  0  0
   54.6820   30.9210   54.5550 C   0  0  0  0  0  0  0  0  0  0  0  0
   53.3460   30.8750   54.8840 C   0  0  0  0  0  0  0  0  0  0  0  0
   51.0960   30.7230   54.3790 O   0  0  0  0  0  0  0  0  0  0  0  0
   50.3690   31.3000   53.9630 H   0  0  0  0  0  0  0  0  0  0  0  0
   53.0630   30.9540   56.2200 O   0  0  0  0  0  0  0  0  0  0  0  0
   52.0850   31.0800   56.5070 H   0  0  0  0  0  0  0  0  0  0  0  0
   48.3450   31.0140   49.1010 C   0  0  0  0  0  0  0  0  0  0  0  0
   47.9870   32.1760   48.6060 C   0  0  0  0  0  0  0  0  0  0  0  0
   46.8200   32.2880   47.6980 C   0  0  0  0  0  0  0  0  0  0  0  0
   46.5640   31.2670   47.4300 H   0  0  0  0  0  0  0  0  0  0  0  0
   45.9510   32.6560   48.3210 H   0  0  0  0  0  0  0  0  0  0  0  0
   46.8940   32.6530   45.3910 C   0  0  0  0  0  0  0  0  0  0  0  0
   46.6140   31.5220   44.9550 O   0  0  0  0  0  0  0  0  0  0  0  0
   47.0190   33.2110   46.6650 N   0  0  0  0  0  0  0  0  0  0  0  0
   47.2380   34.2070   46.7580 H   0  0  0  0  0  0  0  0  0  0  0  0
   45.0190   34.9030   44.5200 Cl  0  0  0  0  0  0  0  0  0  0  0  0
   46.3720   34.3960   43.5560 C   0  0  0  0  0  0  0  0  0  0  0  0
   47.0910   33.3690   44.1260 C   0  0  0  0  0  0  0  0  0  0  0  0
   48.2110   32.8470   43.4710 C   0  0  0  0  0  0  0  0  0  0  0  0
   48.6060   33.3650   42.2350 C   0  0  0  0  0  0  0  0  0  0  0  0
   47.8690   34.3950   41.6820 C   0  0  0  0  0  0  0  0  0  0  0  0
   48.3090   35.0860   40.1390 Cl  0  0  0  0  0  0  0  0  0  0  0  0
   46.7650   34.9020   42.3390 C   0  0  0  0  0  0  0  0  0  0  0  0
   48.8480   32.0580   43.8040 H   0  0  0  0  0  0  0  0  0  0  0  0
   49.4500   33.0120   41.6850 H   0  0  0  0  0  0  0  0  0  0  0  0
   46.1360   35.7040   41.9760 H   0  0  0  0  0  0  0  0  0  0  0  0
   50.8240   28.3910   52.2350 O   0  0  0  0  0  0  0  0  0  0  0  0
   51.6580   27.3710   51.6420 C   0  0  0  0  0  0  0  0  0  0  0  0
   52.1210   27.8170   50.4110 F   0  0  0  0  0  0  0  0  0  0  0  0
   52.7510   27.2430   52.5020 F   0  0  0  0  0  0  0  0  0  0  0  0
   51.0230   26.1370   51.5480 F   0  0  0  0  0  0  0  0  0  0  0  0
  1  7  1  0  0  0  0
  1  2  1  0  0  0  0
  2  9  1  0  0  0  0
  3  2  2  0  0  0  0
  3 39  1  0  0  0  0
  4  3  1  0  0  0  0
  5  6  1  0  0  0  0
  5  4  2  0  0  0  0
  6  1  2  0  0  0  0
  8 15  1  0  0  0  0
  8 14  1  0  0  0  0
  9  8  2  0  0  0  0
 10  9  1  0  0  0  0
 10 12  2  0  0  0  0
 11 10  1  0  0  0  0
 12 13  1  0  0  0  0
 13 14  2  0  0  0  0
 14 17  1  0  0  0  0
 16 15  1  0  0  0  0
 17 18  1  0  0  0  0
 19  5  1  0  0  0  0
 20 19  2  0  0  0  0
 21 23  1  0  0  0  0
 21 20  1  0  0  0  0
 22 21  1  0  0  0  0
 24 26  1  0  0  0  0
 25 24  2  0  0  0  0
 26 27  1  0  0  0  0
 26 21  1  0  0  0  0
 29 30  1  0  0  0  0
 29 28  1  0  0  0  0
 30 24  1  0  0  0  0
 31 36  1  0  0  0  0
 31 30  2  0  0  0  0
 32 31  1  0  0  0  0
 33 32  2  0  0  0  0
 33 35  1  0  0  0  0
 34 33  1  0  0  0  0
 35 29  2  0  0  0  0
 37 32  1  0  0  0  0
 38 35  1  0  0  0  0
 40 39  1  0  0  0  0
 40 42  1  0  0  0  0
 41 40  1  0  0  0  0
 43 40  1  0  0  0  0
M  END
>  <minimizedAffinity>
-7.72768879

>  <minimizedRMSD>
0.55262059

$$$$
