
 OpenBabel03252503413D

 23 24  0  0  0  0  0  0  0  0999 V2000
   46.7200   28.9780   41.9470 C   0  0  0  0  0  0  0  0  0  0  0  0
   46.6440   29.6290   43.1810 C   0  0  0  0  0  0  0  0  0  0  0  0
   46.3860   30.9930   43.1750 C   0  0  0  0  0  0  0  0  0  0  0  0
   46.2210   31.6180   41.9780 N   0  0  0  0  0  0  0  0  0  0  0  0
   46.2980   30.9680   40.8080 C   0  0  0  0  0  0  0  0  0  0  0  0
   46.5470   29.6450   40.7760 N   0  0  0  0  0  0  0  0  0  0  0  0
   46.9160   27.9110   41.7920 H   0  0  0  0  0  0  0  0  0  0  0  0
   46.3420   31.4290   44.1470 H   0  0  0  0  0  0  0  0  0  0  0  0
   44.9130   31.6650   38.8940 C   0  0  0  0  0  0  0  0  0  0  0  0
   46.1140   31.6830   39.5490 C   0  0  0  0  0  0  0  0  0  0  0  0
   47.1340   32.4000   38.9750 C   0  0  0  0  0  0  0  0  0  0  0  0
   48.1060   32.4690   39.4190 H   0  0  0  0  0  0  0  0  0  0  0  0
   46.9310   33.0700   37.7790 C   0  0  0  0  0  3  0  0  0  0  0  0
   45.7070   33.0340   37.1360 C   0  0  0  0  0  3  0  0  0  0  0  0
   44.6680   32.3150   37.7040 C   0  0  0  0  0  0  0  0  0  0  0  0
   43.8740   30.9260   39.4920 O   0  0  0  0  0  0  0  0  0  0  0  0
   43.2060   31.3380   40.1180 H   0  0  0  0  0  0  0  0  0  0  0  0
   43.3870   32.2090   37.1440 O   0  0  0  0  0  0  0  0  0  0  0  0
   42.5650   32.1820   37.7440 H   0  0  0  0  0  0  0  0  0  0  0  0
   46.8570   28.7500   44.3520 C   0  0  0  0  0  0  0  0  0  0  0  0
   45.9710   28.1060   44.5490 H   0  0  0  0  0  0  0  0  0  0  0  0
   47.0570   29.4090   45.2210 H   0  0  0  0  0  0  0  0  0  0  0  0
   47.6830   28.0490   44.1220 H   0  0  0  0  0  0  0  0  0  0  0  0
  1  2  1  0  0  0  0
  2 20  1  0  0  0  0
  3  2  2  0  0  0  0
  3  8  1  0  0  0  0
  4  3  1  0  0  0  0
  5  4  2  0  0  0  0
  6  5  1  0  0  0  0
  6  1  2  0  0  0  0
  7  1  1  0  0  0  0
  9 16  1  0  0  0  0
  9 10  1  0  0  0  0
 10  5  1  0  0  0  0
 11 12  1  0  0  0  0
 11 10  2  0  0  0  0
 13 11  1  0  0  0  0
 14 15  1  0  0  0  0
 14 13  2  0  0  0  0
 15  9  2  0  0  0  0
 16 17  1  0  0  0  0
 18 15  1  0  0  0  0
 18 19  1  0  0  0  0
 20 21  1  0  0  0  0
 20 22  1  0  0  0  0
 23 20  1  0  0  0  0
M  END
>  <minimizedAffinity>
-1.69819629

>  <minimizedRMSD>
8.56626225

$$$$
