
 OpenBabel03252503423D

 23 24  0  0  0  0  0  0  0  0999 V2000
   38.0570   27.0640   40.9590 C   0  0  0  0  0  0  0  0  0  0  0  0
   37.2480   26.7900   42.0640 C   0  0  0  0  0  0  0  0  0  0  0  0
   36.8340   27.8630   42.8420 C   0  0  0  0  0  0  0  0  0  0  0  0
   37.2340   29.1140   42.4890 N   0  0  0  0  0  0  0  0  0  0  0  0
   38.0110   29.3490   41.4210 C   0  0  0  0  0  0  0  0  0  0  0  0
   38.4310   28.3310   40.6450 N   0  0  0  0  0  0  0  0  0  0  0  0
   38.4590   26.3260   40.2550 H   0  0  0  0  0  0  0  0  0  0  0  0
   36.2210   27.5860   43.6700 H   0  0  0  0  0  0  0  0  0  0  0  0
   37.5070   31.6230   40.6210 C   0  0  0  0  0  0  0  0  0  0  0  0
   38.4140   30.7090   41.0830 C   0  0  0  0  0  0  0  0  0  0  0  0
   39.7160   31.1240   41.2130 C   0  0  0  0  0  0  0  0  0  0  0  0
   40.4920   30.4760   41.5660 H   0  0  0  0  0  0  0  0  0  0  0  0
   40.0720   32.4220   40.8840 C   0  0  0  0  0  3  0  0  0  0  0  0
   39.1350   33.3270   40.4190 C   0  0  0  0  0  3  0  0  0  0  0  0
   37.8180   32.9230   40.2830 C   0  0  0  0  0  0  0  0  0  0  0  0
   36.1750   31.1860   40.4910 O   0  0  0  0  0  0  0  0  0  0  0  0
   35.4940   31.2990   41.2200 H   0  0  0  0  0  0  0  0  0  0  0  0
   36.7840   33.7510   39.8230 O   0  0  0  0  0  0  0  0  0  0  0  0
   35.8480   33.6680   40.2140 H   0  0  0  0  0  0  0  0  0  0  0  0
   36.9380   25.3550   42.2570 C   0  0  0  0  0  0  0  0  0  0  0  0
   36.1870   24.9940   41.5200 H   0  0  0  0  0  0  0  0  0  0  0  0
   36.5520   25.2420   43.2900 H   0  0  0  0  0  0  0  0  0  0  0  0
   37.8540   24.7670   42.0560 H   0  0  0  0  0  0  0  0  0  0  0  0
  1  2  1  0  0  0  0
  2 20  1  0  0  0  0
  2  3  2  0  0  0  0
  3  8  1  0  0  0  0
  4  3  1  0  0  0  0
  5  4  2  0  0  0  0
  6  1  2  0  0  0  0
  6  5  1  0  0  0  0
  7  1  1  0  0  0  0
  9 10  1  0  0  0  0
 10 11  2  0  0  0  0
 10  5  1  0  0  0  0
 11 12  1  0  0  0  0
 13 11  1  0  0  0  0
 14 13  2  0  0  0  0
 15 14  1  0  0  0  0
 15  9  2  0  0  0  0
 16  9  1  0  0  0  0
 16 17  1  0  0  0  0
 18 19  1  0  0  0  0
 18 15  1  0  0  0  0
 20 22  1  0  0  0  0
 21 20  1  0  0  0  0
 23 20  1  0  0  0  0
M  END
>  <minimizedAffinity>
-5.00464249

$$$$

 OpenBabel03252503423D

 23 24  0  0  0  0  0  0  0  0999 V2000
   38.0510   30.0150   39.0910 C   0  0  0  0  0  0  0  0  0  0  0  0
   36.9110   30.5830   39.6640 C   0  0  0  0  0  0  0  0  0  0  0  0
   36.9990   31.8970   40.1050 C   0  0  0  0  0  0  0  0  0  0  0  0
   38.1800   32.5550   39.9570 N   0  0  0  0  0  0  0  0  0  0  0  0
   39.2590   31.9850   39.4030 C   0  0  0  0  0  0  0  0  0  0  0  0
   39.2100   30.7120   38.9630 N   0  0  0  0  0  0  0  0  0  0  0  0
   38.1360   28.9950   38.6980 H   0  0  0  0  0  0  0  0  0  0  0  0
   36.0960   32.2700   40.5320 H   0  0  0  0  0  0  0  0  0  0  0  0
   41.0010   33.0620   38.0350 C   0  0  0  0  0  0  0  0  0  0  0  0
   40.5050   32.7320   39.2660 C   0  0  0  0  0  0  0  0  0  0  0  0
   41.2250   33.1310   40.3640 C   0  0  0  0  0  0  0  0  0  0  0  0
   40.9120   32.9160   41.3650 H   0  0  0  0  0  0  0  0  0  0  0  0
   42.4060   33.8390   40.2050 C   0  0  0  0  0  3  0  0  0  0  0  0
   42.8860   34.1610   38.9480 C   0  0  0  0  0  3  0  0  0  0  0  0
   42.1690   33.7650   37.8320 C   0  0  0  0  0  0  0  0  0  0  0  0
   40.2530   32.6470   36.9160 O   0  0  0  0  0  0  0  0  0  0  0  0
   39.5610   33.2280   36.4800 H   0  0  0  0  0  0  0  0  0  0  0  0
   42.5580   34.0340   36.5110 O   0  0  0  0  0  0  0  0  0  0  0  0
   41.8570   34.2380   35.8020 H   0  0  0  0  0  0  0  0  0  0  0  0
   35.7390   29.6820   39.7220 C   0  0  0  0  0  0  0  0  0  0  0  0
   35.2690   29.5540   38.7220 H   0  0  0  0  0  0  0  0  0  0  0  0
   35.0180   30.1310   40.4350 H   0  0  0  0  0  0  0  0  0  0  0  0
   36.0860   28.6710   40.0150 H   0  0  0  0  0  0  0  0  0  0  0  0
  1  2  1  0  0  0  0
  2 20  1  0  0  0  0
  2  3  2  0  0  0  0
  3  8  1  0  0  0  0
  4  3  1  0  0  0  0
  5  4  2  0  0  0  0
  6  1  2  0  0  0  0
  6  5  1  0  0  0  0
  7  1  1  0  0  0  0
  9 10  1  0  0  0  0
 10  5  1  0  0  0  0
 10 11  2  0  0  0  0
 11 12  1  0  0  0  0
 13 11  1  0  0  0  0
 14 13  2  0  0  0  0
 15  9  2  0  0  0  0
 15 14  1  0  0  0  0
 16  9  1  0  0  0  0
 17 16  1  0  0  0  0
 18 15  1  0  0  0  0
 19 18  1  0  0  0  0
 20 23  1  0  0  0  0
 20 22  1  0  0  0  0
 21 20  1  0  0  0  0
M  END
>  <minimizedAffinity>
-4.99411201

$$$$

 OpenBabel03252503423D

 23 24  0  0  0  0  0  0  0  0999 V2000
   37.5400   28.4410   42.8400 C   0  0  0  0  0  0  0  0  0  0  0  0
   37.2630   27.4260   41.9210 C   0  0  0  0  0  0  0  0  0  0  0  0
   37.2000   27.7730   40.5780 C   0  0  0  0  0  0  0  0  0  0  0  0
   37.4100   29.0720   40.2330 N   0  0  0  0  0  0  0  0  0  0  0  0
   37.6740   30.0260   41.1360 C   0  0  0  0  0  0  0  0  0  0  0  0
   37.7430   29.7250   42.4470 N   0  0  0  0  0  0  0  0  0  0  0  0
   37.6220   28.3220   43.9270 H   0  0  0  0  0  0  0  0  0  0  0  0
   36.9850   26.9550   39.9300 H   0  0  0  0  0  0  0  0  0  0  0  0
   39.0110   32.0940   41.0970 C   0  0  0  0  0  0  0  0  0  0  0  0
   37.8920   31.4060   40.7160 C   0  0  0  0  0  0  0  0  0  0  0  0
   36.9850   32.0650   39.9250 C   0  0  0  0  0  0  0  0  0  0  0  0
   36.0820   31.6050   39.5800 H   0  0  0  0  0  0  0  0  0  0  0  0
   37.2160   33.3770   39.5400 C   0  0  0  0  0  3  0  0  0  0  0  0
   38.3570   34.0510   39.9390 C   0  0  0  0  0  3  0  0  0  0  0  0
   39.2810   33.3970   40.7370 C   0  0  0  0  0  0  0  0  0  0  0  0
   39.9350   31.4070   41.9080 O   0  0  0  0  0  0  0  0  0  0  0  0
   40.7160   30.9030   41.5330 H   0  0  0  0  0  0  0  0  0  0  0  0
   40.4690   33.9790   41.2010 O   0  0  0  0  0  0  0  0  0  0  0  0
   41.3160   33.4180   41.2840 H   0  0  0  0  0  0  0  0  0  0  0  0
   37.0710   26.0880   42.5230 C   0  0  0  0  0  0  0  0  0  0  0  0
   38.0360   25.6390   42.8470 H   0  0  0  0  0  0  0  0  0  0  0  0
   36.5860   25.4520   41.7550 H   0  0  0  0  0  0  0  0  0  0  0  0
   36.4750   26.2010   43.4500 H   0  0  0  0  0  0  0  0  0  0  0  0
  1  7  1  0  0  0  0
  2 20  1  0  0  0  0
  2  1  2  0  0  0  0
  3  2  1  0  0  0  0
  4  3  2  0  0  0  0
  4  5  1  0  0  0  0
  5  6  2  0  0  0  0
  6  1  1  0  0  0  0
  8  3  1  0  0  0  0
  9 16  1  0  0  0  0
 10  9  2  0  0  0  0
 10  5  1  0  0  0  0
 11 10  1  0  0  0  0
 12 11  1  0  0  0  0
 13 11  2  0  0  0  0
 13 14  1  0  0  0  0
 14 15  2  0  0  0  0
 15  9  1  0  0  0  0
 15 18  1  0  0  0  0
 17 16  1  0  0  0  0
 18 19  1  0  0  0  0
 20 21  1  0  0  0  0
 20 23  1  0  0  0  0
 22 20  1  0  0  0  0
M  END
>  <minimizedAffinity>
-4.88785219

$$$$

 OpenBabel03252503423D

 23 24  0  0  0  0  0  0  0  0999 V2000
   37.5410   26.5130   40.5440 C   0  0  0  0  0  0  0  0  0  0  0  0
   37.1040   26.2050   41.8340 C   0  0  0  0  0  0  0  0  0  0  0  0
   36.8090   27.2630   42.6840 C   0  0  0  0  0  0  0  0  0  0  0  0
   36.9590   28.5320   42.2170 N   0  0  0  0  0  0  0  0  0  0  0  0
   37.3800   28.7990   40.9730 C   0  0  0  0  0  0  0  0  0  0  0  0
   37.6750   27.7970   40.1220 N   0  0  0  0  0  0  0  0  0  0  0  0
   37.8100   25.7900   39.7640 H   0  0  0  0  0  0  0  0  0  0  0  0
   36.4820   26.9610   43.6520 H   0  0  0  0  0  0  0  0  0  0  0  0
   38.3640   31.0490   41.1570 C   0  0  0  0  0  0  0  0  0  0  0  0
   37.5250   30.1780   40.5180 C   0  0  0  0  0  0  0  0  0  0  0  0
   36.8280   30.6530   39.4360 C   0  0  0  0  0  0  0  0  0  0  0  0
   36.1500   30.0420   38.8760 H   0  0  0  0  0  0  0  0  0  0  0  0
   36.9850   31.9680   39.0260 C   0  0  0  0  0  3  0  0  0  0  0  0
   37.8400   32.8290   39.6900 C   0  0  0  0  0  3  0  0  0  0  0  0
   38.5500   32.3630   40.7830 C   0  0  0  0  0  0  0  0  0  0  0  0
   39.0740   30.5510   42.2670 O   0  0  0  0  0  0  0  0  0  0  0  0
   39.9950   30.1610   42.1900 H   0  0  0  0  0  0  0  0  0  0  0  0
   39.4430   33.1430   41.5310 O   0  0  0  0  0  0  0  0  0  0  0  0
   40.2900   32.7280   41.9150 H   0  0  0  0  0  0  0  0  0  0  0  0
   37.0160   24.7570   42.1230 C   0  0  0  0  0  0  0  0  0  0  0  0
   36.1340   24.2920   41.6290 H   0  0  0  0  0  0  0  0  0  0  0  0
   36.9450   24.6480   43.2240 H   0  0  0  0  0  0  0  0  0  0  0  0
   37.8980   24.2540   41.6810 H   0  0  0  0  0  0  0  0  0  0  0  0
  1  2  1  0  0  0  0
  2 20  1  0  0  0  0
  2  3  2  0  0  0  0
  3  8  1  0  0  0  0
  4  3  1  0  0  0  0
  5  4  2  0  0  0  0
  6  1  2  0  0  0  0
  6  5  1  0  0  0  0
  7  1  1  0  0  0  0
  9 16  1  0  0  0  0
 10  5  1  0  0  0  0
 10  9  2  0  0  0  0
 11 10  1  0  0  0  0
 12 11  1  0  0  0  0
 13 11  2  0  0  0  0
 13 14  1  0  0  0  0
 14 15  2  0  0  0  0
 15  9  1  0  0  0  0
 15 18  1  0  0  0  0
 17 16  1  0  0  0  0
 18 19  1  0  0  0  0
 20 22  1  0  0  0  0
 21 20  1  0  0  0  0
 23 20  1  0  0  0  0
M  END
>  <minimizedAffinity>
-4.76599789

$$$$

 OpenBabel03252503423D

 23 24  0  0  0  0  0  0  0  0999 V2000
   39.8590   27.3420   41.6700 C   0  0  0  0  0  0  0  0  0  0  0  0
   39.3710   27.0230   42.9390 C   0  0  0  0  0  0  0  0  0  0  0  0
   38.4950   27.9190   43.5360 C   0  0  0  0  0  0  0  0  0  0  0  0
   38.1610   29.0510   42.8590 N   0  0  0  0  0  0  0  0  0  0  0  0
   38.6440   29.3320   41.6400 C   0  0  0  0  0  0  0  0  0  0  0  0
   39.4960   28.4840   41.0310 N   0  0  0  0  0  0  0  0  0  0  0  0
   40.5520   26.7360   41.0740 H   0  0  0  0  0  0  0  0  0  0  0  0
   38.1610   27.6180   44.5030 H   0  0  0  0  0  0  0  0  0  0  0  0
   38.7480   31.7740   41.3440 C   0  0  0  0  0  0  0  0  0  0  0  0
   38.2570   30.5590   40.9530 C   0  0  0  0  0  0  0  0  0  0  0  0
   37.3860   30.5420   39.8920 C   0  0  0  0  0  0  0  0  0  0  0  0
   36.9540   29.6370   39.5190 H   0  0  0  0  0  0  0  0  0  0  0  0
   37.0350   31.7230   39.2580 C   0  0  0  0  0  3  0  0  0  0  0  0
   37.5460   32.9400   39.6730 C   0  0  0  0  0  3  0  0  0  0  0  0
   38.4250   32.9720   40.7420 C   0  0  0  0  0  0  0  0  0  0  0  0
   39.6400   31.7800   42.4340 O   0  0  0  0  0  0  0  0  0  0  0  0
   40.6350   31.7300   42.3200 H   0  0  0  0  0  0  0  0  0  0  0  0
   39.0050   34.1440   41.2480 O   0  0  0  0  0  0  0  0  0  0  0  0
   39.9610   34.1330   41.5980 H   0  0  0  0  0  0  0  0  0  0  0  0
   39.8690   25.7400   43.4840 C   0  0  0  0  0  0  0  0  0  0  0  0
   39.3840   24.8680   42.9920 H   0  0  0  0  0  0  0  0  0  0  0  0
   39.6520   25.7430   44.5710 H   0  0  0  0  0  0  0  0  0  0  0  0
   40.9470   25.6500   43.2440 H   0  0  0  0  0  0  0  0  0  0  0  0
  1  2  1  0  0  0  0
  2 20  1  0  0  0  0
  2  3  2  0  0  0  0
  3  8  1  0  0  0  0
  4  3  1  0  0  0  0
  5  4  2  0  0  0  0
  6  5  1  0  0  0  0
  6  1  2  0  0  0  0
  7  1  1  0  0  0  0
  9 16  1  0  0  0  0
 10  9  1  0  0  0  0
 10  5  1  0  0  0  0
 11 10  2  0  0  0  0
 12 11  1  0  0  0  0
 13 14  2  0  0  0  0
 13 11  1  0  0  0  0
 14 15  1  0  0  0  0
 15 18  1  0  0  0  0
 15  9  2  0  0  0  0
 17 16  1  0  0  0  0
 18 19  1  0  0  0  0
 20 22  1  0  0  0  0
 21 20  1  0  0  0  0
 23 20  1  0  0  0  0
M  END
>  <minimizedAffinity>
-4.75377369

$$$$

 OpenBabel03252503423D

 23 24  0  0  0  0  0  0  0  0999 V2000
   38.9690   29.0130   42.8210 C   0  0  0  0  0  0  0  0  0  0  0  0
   37.5790   28.8940   42.7540 C   0  0  0  0  0  0  0  0  0  0  0  0
   36.9060   29.7060   41.8510 C   0  0  0  0  0  0  0  0  0  0  0  0
   37.6300   30.5660   41.0860 N   0  0  0  0  0  0  0  0  0  0  0  0
   38.9650   30.6600   41.1700 C   0  0  0  0  0  0  0  0  0  0  0  0
   39.6500   29.8870   42.0350 N   0  0  0  0  0  0  0  0  0  0  0  0
   39.6350   28.4430   43.4800 H   0  0  0  0  0  0  0  0  0  0  0  0
   35.8490   29.5680   41.8500 H   0  0  0  0  0  0  0  0  0  0  0  0
   39.5650   31.5800   38.9660 C   0  0  0  0  0  0  0  0  0  0  0  0
   39.6980   31.5990   40.3270 C   0  0  0  0  0  0  0  0  0  0  0  0
   40.5460   32.5340   40.8660 C   0  0  0  0  0  0  0  0  0  0  0  0
   40.7100   32.6200   41.9210 H   0  0  0  0  0  0  0  0  0  0  0  0
   41.2300   33.4140   40.0420 C   0  0  0  0  0  3  0  0  0  0  0  0
   41.0780   33.3740   38.6680 C   0  0  0  0  0  3  0  0  0  0  0  0
   40.2260   32.4370   38.1110 C   0  0  0  0  0  0  0  0  0  0  0  0
   38.6930   30.6170   38.4240 O   0  0  0  0  0  0  0  0  0  0  0  0
   37.7270   30.8070   38.2330 H   0  0  0  0  0  0  0  0  0  0  0  0
   39.9940   32.3040   36.7340 O   0  0  0  0  0  0  0  0  0  0  0  0
   39.0690   32.0550   36.3920 H   0  0  0  0  0  0  0  0  0  0  0  0
   37.0040   27.8930   43.6800 C   0  0  0  0  0  0  0  0  0  0  0  0
   37.1880   26.8540   43.3280 H   0  0  0  0  0  0  0  0  0  0  0  0
   35.9150   28.0950   43.7400 H   0  0  0  0  0  0  0  0  0  0  0  0
   37.5270   27.9710   44.6530 H   0  0  0  0  0  0  0  0  0  0  0  0
  1  7  1  0  0  0  0
  2  1  1  0  0  0  0
  2 20  1  0  0  0  0
  3  2  2  0  0  0  0
  4  5  2  0  0  0  0
  4  3  1  0  0  0  0
  5  6  1  0  0  0  0
  6  1  2  0  0  0  0
  8  3  1  0  0  0  0
  9 10  1  0  0  0  0
 10 11  2  0  0  0  0
 10  5  1  0  0  0  0
 11 12  1  0  0  0  0
 13 11  1  0  0  0  0
 14 13  2  0  0  0  0
 15 14  1  0  0  0  0
 15  9  2  0  0  0  0
 16  9  1  0  0  0  0
 17 16  1  0  0  0  0
 18 15  1  0  0  0  0
 19 18  1  0  0  0  0
 20 22  1  0  0  0  0
 20 23  1  0  0  0  0
 21 20  1  0  0  0  0
M  END
>  <minimizedAffinity>
-4.62846851

$$$$

 OpenBabel03252503423D

 23 24  0  0  0  0  0  0  0  0999 V2000
   40.7260   32.2210   37.5260 C   0  0  0  0  0  0  0  0  0  0  0  0
   41.2000   33.3560   38.1880 C   0  0  0  0  0  0  0  0  0  0  0  0
   40.5620   33.7300   39.3630 C   0  0  0  0  0  0  0  0  0  0  0  0
   39.5180   32.9780   39.8020 N   0  0  0  0  0  0  0  0  0  0  0  0
   39.0830   31.8920   39.1470 C   0  0  0  0  0  0  0  0  0  0  0  0
   39.6800   31.5000   38.0050 N   0  0  0  0  0  0  0  0  0  0  0  0
   41.1250   31.8040   36.5940 H   0  0  0  0  0  0  0  0  0  0  0  0
   40.9700   34.6040   39.8170 H   0  0  0  0  0  0  0  0  0  0  0  0
   37.9230   30.6960   40.9600 C   0  0  0  0  0  0  0  0  0  0  0  0
   37.9580   31.1170   39.6600 C   0  0  0  0  0  0  0  0  0  0  0  0
   36.8960   30.7810   38.8580 C   0  0  0  0  0  0  0  0  0  0  0  0
   36.8400   31.0680   37.8290 H   0  0  0  0  0  0  0  0  0  0  0  0
   35.8400   30.0430   39.3710 C   0  0  0  0  0  3  0  0  0  0  0  0
   35.8280   29.6300   40.6910 C   0  0  0  0  0  3  0  0  0  0  0  0
   36.8940   29.9620   41.5110 C   0  0  0  0  0  0  0  0  0  0  0  0
   39.0180   31.0460   41.7730 O   0  0  0  0  0  0  0  0  0  0  0  0
   39.0310   31.8760   42.3370 H   0  0  0  0  0  0  0  0  0  0  0  0
   36.9900   29.5980   42.8610 O   0  0  0  0  0  0  0  0  0  0  0  0
   37.4130   30.2340   43.5350 H   0  0  0  0  0  0  0  0  0  0  0  0
   42.3470   34.0180   37.5260 C   0  0  0  0  0  0  0  0  0  0  0  0
   43.2900   33.4450   37.6680 H   0  0  0  0  0  0  0  0  0  0  0  0
   42.4380   35.0300   37.9700 H   0  0  0  0  0  0  0  0  0  0  0  0
   42.1680   34.0230   36.4330 H   0  0  0  0  0  0  0  0  0  0  0  0
  1  6  2  0  0  0  0
  1  2  1  0  0  0  0
  2  3  2  0  0  0  0
  3  4  1  0  0  0  0
  3  8  1  0  0  0  0
  5 10  1  0  0  0  0
  5  4  2  0  0  0  0
  6  5  1  0  0  0  0
  7  1  1  0  0  0  0
  9 15  1  0  0  0  0
  9 16  1  0  0  0  0
 10  9  2  0  0  0  0
 11 13  2  0  0  0  0
 11 10  1  0  0  0  0
 12 11  1  0  0  0  0
 13 14  1  0  0  0  0
 14 15  2  0  0  0  0
 15 18  1  0  0  0  0
 16 17  1  0  0  0  0
 18 19  1  0  0  0  0
 20 21  1  0  0  0  0
 20 22  1  0  0  0  0
 20  2  1  0  0  0  0
 23 20  1  0  0  0  0
M  END
>  <minimizedAffinity>
-4.62129545

$$$$

 OpenBabel03252503423D

 23 24  0  0  0  0  0  0  0  0999 V2000
   38.7180   31.3760   40.1550 C   0  0  0  0  0  0  0  0  0  0  0  0
   37.3980   31.8300   40.2050 C   0  0  0  0  0  0  0  0  0  0  0  0
   36.4810   31.0670   40.9160 C   0  0  0  0  0  0  0  0  0  0  0  0
   36.9140   29.9290   41.5220 N   0  0  0  0  0  0  0  0  0  0  0  0
   38.1880   29.5170   41.4580 C   0  0  0  0  0  0  0  0  0  0  0  0
   39.1040   30.2320   40.7770 N   0  0  0  0  0  0  0  0  0  0  0  0
   39.5500   31.8670   39.6370 H   0  0  0  0  0  0  0  0  0  0  0  0
   35.4930   31.4670   40.9140 H   0  0  0  0  0  0  0  0  0  0  0  0
   37.9570   27.1040   41.8960 C   0  0  0  0  0  0  0  0  0  0  0  0
   38.6040   28.2870   42.1250 C   0  0  0  0  0  0  0  0  0  0  0  0
   39.6570   28.2710   43.0050 C   0  0  0  0  0  0  0  0  0  0  0  0
   40.2190   29.1490   43.2430 H   0  0  0  0  0  0  0  0  0  0  0  0
   40.0310   27.0880   43.6250 C   0  0  0  0  0  3  0  0  0  0  0  0
   39.3600   25.9040   43.3760 C   0  0  0  0  0  3  0  0  0  0  0  0
   38.2960   25.9070   42.4900 C   0  0  0  0  0  0  0  0  0  0  0  0
   36.8780   27.1330   40.9910 O   0  0  0  0  0  0  0  0  0  0  0  0
   36.9860   26.9390   40.0130 H   0  0  0  0  0  0  0  0  0  0  0  0
   37.5440   24.7700   42.1610 O   0  0  0  0  0  0  0  0  0  0  0  0
   37.1910   24.6450   41.2140 H   0  0  0  0  0  0  0  0  0  0  0  0
   37.1550   33.0930   39.4730 C   0  0  0  0  0  0  0  0  0  0  0  0
   37.5610   33.9710   40.0230 H   0  0  0  0  0  0  0  0  0  0  0  0
   36.0580   33.1890   39.3450 H   0  0  0  0  0  0  0  0  0  0  0  0
   37.7160   33.0600   38.5180 H   0  0  0  0  0  0  0  0  0  0  0  0
  1  2  2  0  0  0  0
  1  6  1  0  0  0  0
  2  3  1  0  0  0  0
  3  4  2  0  0  0  0
  5  4  1  0  0  0  0
  5 10  1  0  0  0  0
  6  5  2  0  0  0  0
  7  1  1  0  0  0  0
  8  3  1  0  0  0  0
  9 10  2  0  0  0  0
  9 15  1  0  0  0  0
 10 11  1  0  0  0  0
 11 12  1  0  0  0  0
 11 13  2  0  0  0  0
 14 13  1  0  0  0  0
 15 14  2  0  0  0  0
 16  9  1  0  0  0  0
 17 16  1  0  0  0  0
 18 15  1  0  0  0  0
 19 18  1  0  0  0  0
 20 21  1  0  0  0  0
 20  2  1  0  0  0  0
 22 20  1  0  0  0  0
 23 20  1  0  0  0  0
M  END
>  <minimizedAffinity>
-4.5451746

$$$$

 OpenBabel03252503423D

 23 24  0  0  0  0  0  0  0  0999 V2000
   36.7210   24.8000   40.0550 C   0  0  0  0  0  0  0  0  0  0  0  0
   37.9800   24.3220   40.4240 C   0  0  0  0  0  0  0  0  0  0  0  0
   39.0060   25.2470   40.5590 C   0  0  0  0  0  0  0  0  0  0  0  0
   38.7320   26.5590   40.3280 N   0  0  0  0  0  0  0  0  0  0  0  0
   37.5130   26.9910   39.9760 C   0  0  0  0  0  0  0  0  0  0  0  0
   36.4940   26.1210   39.8360 N   0  0  0  0  0  0  0  0  0  0  0  0
   35.8180   24.1950   39.9110 H   0  0  0  0  0  0  0  0  0  0  0  0
   39.9410   24.8180   40.8400 H   0  0  0  0  0  0  0  0  0  0  0  0
   36.5740   29.1680   40.6390 C   0  0  0  0  0  0  0  0  0  0  0  0
   37.2680   28.4100   39.7380 C   0  0  0  0  0  0  0  0  0  0  0  0
   37.7240   29.0350   38.6050 C   0  0  0  0  0  0  0  0  0  0  0  0
   38.2760   28.5190   37.8470 H   0  0  0  0  0  0  0  0  0  0  0  0
   37.4770   30.3840   38.4040 C   0  0  0  0  0  3  0  0  0  0  0  0
   36.7720   31.1300   39.3310 C   0  0  0  0  0  3  0  0  0  0  0  0
   36.3070   30.5120   40.4790 C   0  0  0  0  0  0  0  0  0  0  0  0
   36.1110   28.5160   41.7980 O   0  0  0  0  0  0  0  0  0  0  0  0
   36.6360   28.4900   42.6520 H   0  0  0  0  0  0  0  0  0  0  0  0
   35.5820   31.1660   41.4860 O   0  0  0  0  0  0  0  0  0  0  0  0
   35.7180   30.9130   42.4630 H   0  0  0  0  0  0  0  0  0  0  0  0
   38.0460   22.8570   40.6230 C   0  0  0  0  0  0  0  0  0  0  0  0
   37.5640   22.5490   41.5780 H   0  0  0  0  0  0  0  0  0  0  0  0
   39.1190   22.5770   40.6240 H   0  0  0  0  0  0  0  0  0  0  0  0
   37.4570   22.3650   39.8250 H   0  0  0  0  0  0  0  0  0  0  0  0
  1  2  1  0  0  0  0
  2  3  2  0  0  0  0
  2 20  1  0  0  0  0
  3  8  1  0  0  0  0
  4  3  1  0  0  0  0
  5  4  2  0  0  0  0
  6  5  1  0  0  0  0
  6  1  2  0  0  0  0
  7  1  1  0  0  0  0
  9 16  1  0  0  0  0
 10  5  1  0  0  0  0
 10  9  2  0  0  0  0
 11 10  1  0  0  0  0
 12 11  1  0  0  0  0
 13 11  2  0  0  0  0
 13 14  1  0  0  0  0
 14 15  2  0  0  0  0
 15  9  1  0  0  0  0
 15 18  1  0  0  0  0
 16 17  1  0  0  0  0
 18 19  1  0  0  0  0
 20 22  1  0  0  0  0
 20 21  1  0  0  0  0
 23 20  1  0  0  0  0
M  END
>  <minimizedAffinity>
-4.4682498

$$$$
