
 OpenBabel03252505303D

 29 30  0  0  0  0  0  0  0  0999 V2000
   45.5680   30.6850   46.6560 O   0  0  0  0  0  0  0  0  0  0  0  0
   45.1010   29.9560   47.7090 C   0  0  0  0  0  0  0  0  0  0  0  0
   44.2290   30.4750   48.1920 H   0  0  0  0  0  0  0  0  0  0  0  0
   45.8600   29.8920   48.5350 H   0  0  0  0  0  0  0  0  0  0  0  0
   43.8580   28.3150   46.2430 C   0  0  0  0  0  0  0  0  0  0  0  0
   44.6080   28.6000   47.3630 C   0  0  0  0  0  0  0  0  0  0  0  0
   44.9140   27.5520   48.2180 C   0  0  0  0  0  0  0  0  0  0  0  0
   45.4950   27.7000   49.1150 H   0  0  0  0  0  0  0  0  0  0  0  0
   44.5150   26.2400   48.0200 C   0  0  0  0  0  3  0  0  0  0  0  0
   43.7620   25.9740   46.8870 C   0  0  0  0  0  3  0  0  0  0  0  0
   43.4570   27.0310   46.0320 C   0  0  0  0  0  0  0  0  0  0  0  0
   43.5520   29.3640   45.3880 O   0  0  0  0  0  0  0  0  0  0  0  0
   42.6680   29.8460   45.3430 H   0  0  0  0  0  0  0  0  0  0  0  0
   42.7040   26.7770   44.8980 O   0  0  0  0  0  0  0  0  0  0  0  0
   43.2010   26.6740   44.0250 H   0  0  0  0  0  0  0  0  0  0  0  0
   47.0130   31.9890   48.3590 O   0  0  0  0  0  0  0  0  0  0  0  0
   46.0050   32.2190   47.2320 P   0  0  2  0  0  0  0  0  0  0  0  0
   44.6000   32.9640   47.7940 O   0  0  0  0  0  0  0  0  0  0  0  0
   44.8560   33.4090   48.6640 H   0  0  0  0  0  0  0  0  0  0  0  0
   46.7600   33.1620   46.0660 O   0  0  0  0  0  0  0  0  0  0  0  0
   44.4690   35.5580   44.8270 C   0  0  0  0  0  0  0  0  0  0  0  0
   44.8260   35.7590   43.4720 C   0  0  0  0  0  0  0  0  0  0  0  0
   45.9260   34.9960   43.0150 C   0  0  0  0  0  0  0  0  0  0  0  0
   46.5450   34.1460   43.9000 N   0  0  0  0  0  0  0  0  0  0  0  0
   46.1520   34.0080   45.1650 C   0  0  0  0  0  0  0  0  0  0  0  0
   45.1230   34.7120   45.6170 N   0  0  0  0  0  0  0  0  0  0  0  0
   43.6130   36.1680   45.1350 H   0  0  0  0  0  0  0  0  0  0  0  0
   44.3040   36.4410   42.8140 H   0  0  0  0  0  0  0  0  0  0  0  0
   46.2570   35.0940   41.9920 H   0  0  0  0  0  0  0  0  0  0  0  0
  1 17  1  0  0  0  0
  1  2  1  0  0  0  0
  2  3  1  0  0  0  0
  2  4  1  0  0  0  0
  5  6  1  0  0  0  0
  6  2  1  0  0  0  0
  6  7  2  0  0  0  0
  7  8  1  0  0  0  0
  9  7  1  0  0  0  0
 10  9  2  0  0  0  0
 11  5  2  0  0  0  0
 11 10  1  0  0  0  0
 12  5  1  0  0  0  0
 13 12  1  0  0  0  0
 14 11  1  0  0  0  0
 15 14  1  0  0  0  0
 17 18  1  0  0  0  0
 17 16  2  1  0  0  0
 18 19  1  0  0  0  0
 20 17  1  0  0  0  0
 21 27  1  0  0  0  0
 21 26  1  0  0  0  0
 22 21  2  0  0  0  0
 23 22  1  0  0  0  0
 23 24  2  0  0  0  0
 24 25  1  0  0  0  0
 25 26  2  0  0  0  0
 25 20  1  0  0  0  0
 28 22  1  0  0  0  0
 29 23  1  0  0  0  0
M  END
>  <minimizedAffinity>
-5.00629663

>  <minimizedRMSD>
0.813462377

$$$$
