
 OpenBabel03252503413D

 23 24  0  0  0  0  0  0  0  0999 V2000
   44.7780   35.3780   44.5650 C   0  0  0  0  0  0  0  0  0  0  0  0
   44.7190   34.7980   43.2960 C   0  0  0  0  0  0  0  0  0  0  0  0
   45.0720   33.4600   43.1820 C   0  0  0  0  0  0  0  0  0  0  0  0
   45.4530   32.7910   44.3030 N   0  0  0  0  0  0  0  0  0  0  0  0
   45.4990   33.3720   45.5100 C   0  0  0  0  0  0  0  0  0  0  0  0
   45.1640   34.6690   45.6580 N   0  0  0  0  0  0  0  0  0  0  0  0
   44.5310   36.4170   44.8120 H   0  0  0  0  0  0  0  0  0  0  0  0
   45.0070   33.0800   42.1880 H   0  0  0  0  0  0  0  0  0  0  0  0
   46.9900   31.7670   46.6360 C   0  0  0  0  0  0  0  0  0  0  0  0
   45.9150   32.6120   46.6840 C   0  0  0  0  0  0  0  0  0  0  0  0
   45.2450   32.7130   47.8770 C   0  0  0  0  0  0  0  0  0  0  0  0
   44.3940   33.3490   48.0050 H   0  0  0  0  0  0  0  0  0  0  0  0
   45.6630   31.9780   48.9770 C   0  0  0  0  0  3  0  0  0  0  0  0
   46.7520   31.1320   48.9020 C   0  0  0  0  0  3  0  0  0  0  0  0
   47.4370   31.0190   47.7040 C   0  0  0  0  0  0  0  0  0  0  0  0
   47.6690   31.6710   45.4070 O   0  0  0  0  0  0  0  0  0  0  0  0
   48.4640   32.2400   45.1790 H   0  0  0  0  0  0  0  0  0  0  0  0
   48.5550   30.1940   47.5110 O   0  0  0  0  0  0  0  0  0  0  0  0
   49.3150   30.4930   46.9040 H   0  0  0  0  0  0  0  0  0  0  0  0
   44.2780   35.7160   42.2220 C   0  0  0  0  0  0  0  0  0  0  0  0
   43.1840   35.9100   42.2700 H   0  0  0  0  0  0  0  0  0  0  0  0
   44.5450   35.2400   41.2570 H   0  0  0  0  0  0  0  0  0  0  0  0
   44.7580   36.7020   42.3820 H   0  0  0  0  0  0  0  0  0  0  0  0
  1  7  1  0  0  0  0
  1  6  1  0  0  0  0
  2  1  2  0  0  0  0
  3  2  1  0  0  0  0
  3  4  2  0  0  0  0
  4  5  1  0  0  0  0
  5  6  2  0  0  0  0
  5 10  1  0  0  0  0
  8  3  1  0  0  0  0
  9 10  2  0  0  0  0
  9 15  1  0  0  0  0
 10 11  1  0  0  0  0
 11 12  1  0  0  0  0
 11 13  2  0  0  0  0
 14 13  1  0  0  0  0
 15 14  2  0  0  0  0
 16  9  1  0  0  0  0
 17 16  1  0  0  0  0
 18 15  1  0  0  0  0
 19 18  1  0  0  0  0
 20 21  1  0  0  0  0
 20 23  1  0  0  0  0
 20  2  1  0  0  0  0
 22 20  1  0  0  0  0
M  END
>  <minimizedAffinity>
-4.63301373

>  <minimizedRMSD>
1.07509816

$$$$
