
 OpenBabel03242516173D

 46 50  0  0  1  0  0  0  0  0999 V2000
   40.3240   27.4440   43.3380 C   0  0  0  0  0  0  0  0  0  0  0  0
   39.1750   26.8770   42.7800 C   0  0  0  0  0  0  0  0  0  0  0  0
   39.2480   25.5370   42.4070 C   0  0  0  0  0  0  0  0  0  0  0  0
   40.4120   24.8430   42.5970 N   0  0  0  0  0  0  0  0  0  0  0  0
   41.4750   25.4470   43.1350 C   0  0  0  0  0  0  0  0  0  0  0  0
   41.4500   26.7150   43.5020 N   0  0  0  0  0  0  0  0  0  0  0  0
   42.7090   24.7710   43.3570 N   0  0  0  0  0  0  0  0  0  0  0  0
   40.2530   28.4800   43.6230 H   0  0  0  0  0  0  0  0  0  0  0  0
   43.2410   24.8550   42.4640 H   0  0  0  0  0  0  0  0  0  0  0  0
   42.9150   24.3200   44.2840 H   0  0  0  0  0  0  0  0  0  0  0  0
   37.9460   27.6890   42.5910 C   0  0  0  0  0  0  0  0  0  0  0  0
   36.7020   27.2060   43.3170 C   0  0  0  0  0  0  0  0  0  0  0  0
   37.3950   28.4430   43.6790 C   0  0  0  0  0  0  0  0  0  0  0  0
   35.7070   27.2840   42.8340 H   0  0  0  0  0  0  0  0  0  0  0  0
   36.8160   26.2390   43.8480 H   0  0  0  0  0  0  0  0  0  0  0  0
   37.5760   28.4030   44.7600 H   0  0  0  0  0  0  0  0  0  0  0  0
   36.8600   29.4030   43.4140 H   0  0  0  0  0  0  0  0  0  0  0  0
   37.6520   28.1300   41.1880 C   0  0  0  0  0  0  0  0  0  0  0  0
   38.8700   28.4340   40.3360 C   0  0  0  0  0  0  0  0  0  0  0  0
   38.3340   28.7410   38.9440 C   0  0  0  0  0  0  0  0  0  0  0  0
   37.7830   30.0260   39.0020 O   0  0  0  0  0  0  0  0  0  0  0  0
   36.5830   29.8190   39.7240 C   0  0  0  0  0  0  0  0  0  0  0  0
   36.8990   29.4720   41.1670 C   0  0  0  0  0  0  0  0  0  0  0  0
   36.9920   27.3830   40.7190 H   0  0  0  0  0  0  0  0  0  0  0  0
   39.5180   27.5260   40.2050 H   0  0  0  0  0  0  0  0  0  0  0  0
   39.4140   29.2810   40.7670 H   0  0  0  0  0  0  0  0  0  0  0  0
   39.0990   28.6330   38.1560 H   0  0  0  0  0  0  0  0  0  0  0  0
   37.5180   28.0170   38.7490 H   0  0  0  0  0  0  0  0  0  0  0  0
   36.0660   30.8150   39.7470 H   0  0  0  0  0  0  0  0  0  0  0  0
   35.9110   29.1120   39.2430 H   0  0  0  0  0  0  0  0  0  0  0  0
   35.9410   29.2880   41.6780 H   0  0  0  0  0  0  0  0  0  0  0  0
   37.5190   30.2770   41.5840 H   0  0  0  0  0  0  0  0  0  0  0  0
   38.1670   24.8440   41.7710 C   0  0  2  0  0  3  0  0  0  0  0  0
   37.2990   24.0580   42.3310 O   0  0  0  0  0  1  0  0  0  0  0  0
   37.5140   24.6040   40.5020 C   0  0  0  0  0  0  0  0  0  0  0  0
   37.8730   25.0520   39.2630 C   0  0  0  0  0  0  0  0  0  0  0  0
   38.8180   25.6080   39.2080 H   0  0  0  0  0  0  0  0  0  0  0  0
   37.0570   24.7980   38.1410 C   0  0  0  0  0  3  0  0  0  0  0  0
   35.8980   24.1040   38.2650 C   0  0  0  0  0  0  0  0  0  0  0  0
   35.1530   23.8870   37.1710 N   0  0  0  0  0  0  0  0  0  0  0  0
   33.9780   23.1970   37.2350 C   0  0  0  0  0  0  0  0  0  0  0  0
   33.3460   23.0010   36.3690 H   0  0  0  0  0  0  0  0  0  0  0  0
   33.5500   22.7110   38.4760 C   0  0  0  0  0  3  0  0  0  0  0  0
   34.2980   22.9160   39.6370 C   0  0  0  0  0  3  0  0  0  0  0  0
   35.4620   23.6220   39.4620 C   0  0  0  0  0  0  0  0  0  0  0  0
   36.3080   23.9070   40.5060 C   0  0  0  0  0  3  0  0  0  0  0  0
  1  6  1  0  0  0  0
  1  8  1  0  0  0  0
  2  1  2  0  0  0  0
  3  4  2  0  0  0  0
  3  2  1  0  0  0  0
  4  5  1  0  0  0  0
  5  7  1  0  0  0  0
  5  6  2  0  0  0  0
  7 10  1  0  0  0  0
  9  7  1  0  0  0  0
 11  2  1  0  0  0  0
 11 12  1  0  0  0  0
 11 13  1  0  0  0  0
 12 13  1  0  0  0  0
 12 15  1  0  0  0  0
 13 16  1  0  0  0  0
 14 12  1  0  0  0  0
 17 13  1  0  0  0  0
 18 11  1  0  0  0  0
 19 26  1  0  0  0  0
 19 18  1  0  0  0  0
 20 21  1  0  0  0  0
 20 19  1  0  0  0  0
 21 22  1  0  0  0  0
 22 29  1  0  0  0  0
 22 23  1  0  0  0  0
 23 18  1  0  0  0  0
 23 32  1  0  0  0  0
 23 31  1  0  0  0  0
 24 18  1  0  0  0  0
 25 19  1  0  0  0  0
 27 20  1  0  0  0  0
 28 20  1  0  0  0  0
 30 22  1  0  0  0  0
 33 34  1  6  0  0  0
 33  3  1  0  0  0  0
 35 46  1  0  0  0  0
 35 33  1  0  0  0  0
 36 35  2  0  0  0  0
 37 36  1  0  0  0  0
 38 39  2  0  0  0  0
 38 36  1  0  0  0  0
 39 45  1  0  0  0  0
 40 41  2  0  0  0  0
 40 39  1  0  0  0  0
 41 43  1  0  0  0  0
 42 41  1  0  0  0  0
 43 44  2  0  0  0  0
 45 44  1  0  0  0  0
 45 46  2  0  0  0  0
M  END
>  <minimizedAffinity>
-6.34302092

$$$$

 OpenBabel03242516173D

 46 50  0  0  1  0  0  0  0  0999 V2000
   40.2220   29.2590   42.5560 C   0  0  0  0  0  0  0  0  0  0  0  0
   38.9260   29.1730   42.0440 C   0  0  0  0  0  0  0  0  0  0  0  0
   38.4270   30.3000   41.3950 C   0  0  0  0  0  0  0  0  0  0  0  0
   39.2060   31.4200   41.2850 N   0  0  0  0  0  0  0  0  0  0  0  0
   40.4380   31.4350   41.7990 C   0  0  0  0  0  0  0  0  0  0  0  0
   40.9500   30.3890   42.4230 N   0  0  0  0  0  0  0  0  0  0  0  0
   41.2910   32.5720   41.7110 N   0  0  0  0  0  0  0  0  0  0  0  0
   40.5950   28.3800   43.0550 H   0  0  0  0  0  0  0  0  0  0  0  0
   41.0520   33.1680   42.5320 H   0  0  0  0  0  0  0  0  0  0  0  0
   41.9810   32.6650   40.9230 H   0  0  0  0  0  0  0  0  0  0  0  0
   38.1280   27.9320   42.2070 C   0  0  0  0  0  0  0  0  0  0  0  0
   38.0830   27.3380   43.6040 C   0  0  0  0  0  0  0  0  0  0  0  0
   36.9120   27.9400   42.9650 C   0  0  0  0  0  0  0  0  0  0  0  0
   38.0970   26.2390   43.7460 H   0  0  0  0  0  0  0  0  0  0  0  0
   38.7270   27.8480   44.3500 H   0  0  0  0  0  0  0  0  0  0  0  0
   36.4990   28.6680   43.6750 H   0  0  0  0  0  0  0  0  0  0  0  0
   36.1030   27.2190   42.6400 H   0  0  0  0  0  0  0  0  0  0  0  0
   38.3090   26.8840   41.1480 C   0  0  0  0  0  0  0  0  0  0  0  0
   39.0000   27.3540   39.8830 C   0  0  0  0  0  0  0  0  0  0  0  0
   39.1740   26.1100   39.0210 C   0  0  0  0  0  0  0  0  0  0  0  0
   37.9150   25.8170   38.4850 O   0  0  0  0  0  0  0  0  0  0  0  0
   37.2160   25.2900   39.5980 C   0  0  0  0  0  0  0  0  0  0  0  0
   36.9540   26.3870   40.6130 C   0  0  0  0  0  0  0  0  0  0  0  0
   38.8140   26.0160   41.6000 H   0  0  0  0  0  0  0  0  0  0  0  0
   40.0440   27.7110   40.0920 H   0  0  0  0  0  0  0  0  0  0  0  0
   38.3850   28.1150   39.3930 H   0  0  0  0  0  0  0  0  0  0  0  0
   39.9550   26.2280   38.2500 H   0  0  0  0  0  0  0  0  0  0  0  0
   39.4670   25.2880   39.7020 H   0  0  0  0  0  0  0  0  0  0  0  0
   36.2120   24.9780   39.2070 H   0  0  0  0  0  0  0  0  0  0  0  0
   37.6910   24.4080   40.0220 H   0  0  0  0  0  0  0  0  0  0  0  0
   36.4420   25.9240   41.4700 H   0  0  0  0  0  0  0  0  0  0  0  0
   36.4100   27.1960   40.1070 H   0  0  0  0  0  0  0  0  0  0  0  0
   37.0940   30.3740   40.8730 C   0  0  2  0  0  3  0  0  0  0  0  0
   36.0850   31.0130   41.3820 O   0  0  0  0  0  1  0  0  0  0  0  0
   36.2300   29.9370   39.7980 C   0  0  0  0  0  0  0  0  0  0  0  0
   35.0060   29.3360   39.8830 C   0  0  0  0  0  0  0  0  0  0  0  0
   34.5900   29.2340   40.8940 H   0  0  0  0  0  0  0  0  0  0  0  0
   34.3430   28.8860   38.7230 C   0  0  0  0  0  3  0  0  0  0  0  0
   34.9030   29.0380   37.4960 C   0  0  0  0  0  0  0  0  0  0  0  0
   34.2360   28.5940   36.4200 N   0  0  0  0  0  0  0  0  0  0  0  0
   34.7500   28.7190   35.1630 C   0  0  0  0  0  0  0  0  0  0  0  0
   34.2390   28.3710   34.2660 H   0  0  0  0  0  0  0  0  0  0  0  0
   36.0020   29.3250   35.0050 C   0  0  0  0  0  3  0  0  0  0  0  0
   36.7260   29.8000   36.1000 C   0  0  0  0  0  3  0  0  0  0  0  0
   36.1190   29.6250   37.3190 C   0  0  0  0  0  0  0  0  0  0  0  0
   36.7030   30.0380   38.4920 C   0  0  0  0  0  3  0  0  0  0  0  0
  1  8  1  0  0  0  0
  2 11  1  0  0  0  0
  2  1  2  0  0  0  0
  3  2  1  0  0  0  0
  4  3  2  0  0  0  0
  4  5  1  0  0  0  0
  5  6  2  0  0  0  0
  6  1  1  0  0  0  0
  7  5  1  0  0  0  0
  7  9  1  0  0  0  0
 10  7  1  0  0  0  0
 11 13  1  0  0  0  0
 11 12  1  0  0  0  0
 12 14  1  0  0  0  0
 12 15  1  0  0  0  0
 13 12  1  0  0  0  0
 13 16  1  0  0  0  0
 17 13  1  0  0  0  0
 18 24  1  0  0  0  0
 18 11  1  0  0  0  0
 19 25  1  0  0  0  0
 19 18  1  0  0  0  0
 20 28  1  0  0  0  0
 20 19  1  0  0  0  0
 21 20  1  0  0  0  0
 21 22  1  0  0  0  0
 22 30  1  0  0  0  0
 22 23  1  0  0  0  0
 23 18  1  0  0  0  0
 23 31  1  0  0  0  0
 26 19  1  0  0  0  0
 27 20  1  0  0  0  0
 29 22  1  0  0  0  0
 32 23  1  0  0  0  0
 33 34  1  1  0  0  0
 33  3  1  0  0  0  0
 35 36  1  0  0  0  0
 35 33  1  0  0  0  0
 36 37  1  0  0  0  0
 38 36  2  0  0  0  0
 39 38  1  0  0  0  0
 40 39  2  0  0  0  0
 41 40  1  0  0  0  0
 42 41  1  0  0  0  0
 43 41  2  0  0  0  0
 43 44  1  0  0  0  0
 44 45  2  0  0  0  0
 45 39  1  0  0  0  0
 45 46  1  0  0  0  0
 46 35  2  0  0  0  0
M  END
>  <minimizedAffinity>
-6.30363178

$$$$

 OpenBabel03242516173D

 46 50  0  0  1  0  0  0  0  0999 V2000
   35.9090   29.5620   36.7800 C   0  0  0  0  0  0  0  0  0  0  0  0
   36.5080   29.5390   38.0410 C   0  0  0  0  0  0  0  0  0  0  0  0
   35.7090   29.1490   39.1140 C   0  0  0  0  0  0  0  0  0  0  0  0
   34.4010   28.8110   38.8970 N   0  0  0  0  0  0  0  0  0  0  0  0
   33.8900   28.8560   37.6630 C   0  0  0  0  0  0  0  0  0  0  0  0
   34.6120   29.2200   36.6190 N   0  0  0  0  0  0  0  0  0  0  0  0
   32.5370   28.5130   37.3820 N   0  0  0  0  0  0  0  0  0  0  0  0
   36.5390   29.8640   35.9600 H   0  0  0  0  0  0  0  0  0  0  0  0
   31.9880   29.3860   37.5310 H   0  0  0  0  0  0  0  0  0  0  0  0
   32.2810   27.5350   37.0900 H   0  0  0  0  0  0  0  0  0  0  0  0
   37.9310   29.9280   38.2110 C   0  0  0  0  0  0  0  0  0  0  0  0
   38.9180   28.7930   38.4260 C   0  0  0  0  0  0  0  0  0  0  0  0
   38.9010   29.6030   37.2070 C   0  0  0  0  0  0  0  0  0  0  0  0
   39.7690   28.9180   39.1270 H   0  0  0  0  0  0  0  0  0  0  0  0
   38.4610   27.7870   38.5240 H   0  0  0  0  0  0  0  0  0  0  0  0
   38.8700   28.9050   36.3610 H   0  0  0  0  0  0  0  0  0  0  0  0
   39.7640   30.3220   37.0800 H   0  0  0  0  0  0  0  0  0  0  0  0
   38.1960   31.0940   39.1170 C   0  0  0  0  0  0  0  0  0  0  0  0
   37.2860   32.2900   38.9160 C   0  0  0  0  0  0  0  0  0  0  0  0
   37.6610   33.2830   40.0080 C   0  0  0  0  0  0  0  0  0  0  0  0
   38.8730   33.8640   39.6190 O   0  0  0  0  0  0  0  0  0  0  0  0
   39.8070   32.8260   39.8520 C   0  0  0  0  0  0  0  0  0  0  0  0
   39.5880   31.6980   38.8610 C   0  0  0  0  0  0  0  0  0  0  0  0
   38.1870   30.7350   40.1580 H   0  0  0  0  0  0  0  0  0  0  0  0
   36.2120   32.0290   39.1170 H   0  0  0  0  0  0  0  0  0  0  0  0
   37.4380   32.7000   37.9130 H   0  0  0  0  0  0  0  0  0  0  0  0
   36.8690   34.0250   40.2050 H   0  0  0  0  0  0  0  0  0  0  0  0
   37.8330   32.6930   40.9300 H   0  0  0  0  0  0  0  0  0  0  0  0
   40.8130   33.2630   39.6140 H   0  0  0  0  0  0  0  0  0  0  0  0
   39.8300   32.4960   40.8890 H   0  0  0  0  0  0  0  0  0  0  0  0
   40.3110   30.9050   39.1020 H   0  0  0  0  0  0  0  0  0  0  0  0
   39.6540   32.1180   37.8480 H   0  0  0  0  0  0  0  0  0  0  0  0
   36.1740   29.1350   40.4690 C   0  0  2  0  0  3  0  0  0  0  0  0
   35.8770   29.9790   41.4100 O   0  0  0  0  0  1  0  0  0  0  0  0
   37.0140   28.4320   41.4140 C   0  0  0  0  0  0  0  0  0  0  0  0
   37.6540   28.9260   42.5140 C   0  0  0  0  0  0  0  0  0  0  0  0
   37.4500   29.9770   42.7570 H   0  0  0  0  0  0  0  0  0  0  0  0
   38.5180   28.1090   43.2730 C   0  0  0  0  0  3  0  0  0  0  0  0
   38.7340   26.8150   42.9280 C   0  0  0  0  0  0  0  0  0  0  0  0
   39.5650   26.0750   43.6790 N   0  0  0  0  0  0  0  0  0  0  0  0
   39.8200   24.7690   43.3800 C   0  0  0  0  0  0  0  0  0  0  0  0
   40.4880   24.1370   43.9650 H   0  0  0  0  0  0  0  0  0  0  0  0
   39.1980   24.1990   42.2630 C   0  0  0  0  0  3  0  0  0  0  0  0
   38.3270   24.9370   41.4580 C   0  0  0  0  0  3  0  0  0  0  0  0
   38.1390   26.2400   41.8460 C   0  0  0  0  0  0  0  0  0  0  0  0
   37.3130   27.0950   41.1590 C   0  0  0  0  0  3  0  0  0  0  0  0
  1  2  1  0  0  0  0
  2 11  1  0  0  0  0
  2  3  2  0  0  0  0
  3 33  1  0  0  0  0
  4  3  1  0  0  0  0
  5  4  2  0  0  0  0
  6  1  2  0  0  0  0
  6  5  1  0  0  0  0
  7  9  1  0  0  0  0
  7  5  1  0  0  0  0
  8  1  1  0  0  0  0
 10  7  1  0  0  0  0
 11 12  1  0  0  0  0
 11 18  1  0  0  0  0
 12 15  1  0  0  0  0
 12 14  1  0  0  0  0
 13 11  1  0  0  0  0
 13 12  1  0  0  0  0
 16 13  1  0  0  0  0
 17 13  1  0  0  0  0
 18 24  1  0  0  0  0
 19 18  1  0  0  0  0
 19 25  1  0  0  0  0
 19 20  1  0  0  0  0
 20 27  1  0  0  0  0
 20 28  1  0  0  0  0
 21 22  1  0  0  0  0
 21 20  1  0  0  0  0
 22 30  1  0  0  0  0
 23 31  1  0  0  0  0
 23 18  1  0  0  0  0
 23 22  1  0  0  0  0
 26 19  1  0  0  0  0
 29 22  1  0  0  0  0
 32 23  1  0  0  0  0
 33 34  1  6  0  0  0
 33 35  1  0  0  0  0
 35 36  1  0  0  0  0
 36 37  1  0  0  0  0
 36 38  2  0  0  0  0
 39 38  1  0  0  0  0
 39 40  1  0  0  0  0
 41 40  2  0  0  0  0
 41 42  1  0  0  0  0
 43 41  1  0  0  0  0
 44 45  1  0  0  0  0
 44 43  2  0  0  0  0
 45 39  2  0  0  0  0
 46 35  2  0  0  0  0
 46 45  1  0  0  0  0
M  END
>  <minimizedAffinity>
-6.2327733

$$$$

 OpenBabel03242516173D

 46 50  0  0  1  0  0  0  0  0999 V2000
   38.5920   32.1190   38.3800 C   0  0  0  0  0  0  0  0  0  0  0  0
   37.8470   30.9850   38.7110 C   0  0  0  0  0  0  0  0  0  0  0  0
   37.3910   30.8880   40.0240 C   0  0  0  0  0  0  0  0  0  0  0  0
   37.6840   31.8830   40.9180 N   0  0  0  0  0  0  0  0  0  0  0  0
   38.4030   32.9410   40.5350 C   0  0  0  0  0  0  0  0  0  0  0  0
   38.8550   33.0720   39.3010 N   0  0  0  0  0  0  0  0  0  0  0  0
   38.7340   34.0040   41.4230 N   0  0  0  0  0  0  0  0  0  0  0  0
   38.9360   32.1810   37.3610 H   0  0  0  0  0  0  0  0  0  0  0  0
   39.6110   33.7090   41.9020 H   0  0  0  0  0  0  0  0  0  0  0  0
   38.1260   34.8610   41.4840 H   0  0  0  0  0  0  0  0  0  0  0  0
   37.5740   29.9360   37.6960 C   0  0  0  0  0  0  0  0  0  0  0  0
   36.1120   29.6670   37.3810 C   0  0  0  0  0  0  0  0  0  0  0  0
   37.0250   30.2830   36.4180 C   0  0  0  0  0  0  0  0  0  0  0  0
   35.7620   28.6340   37.1870 H   0  0  0  0  0  0  0  0  0  0  0  0
   35.3880   30.2250   38.0110 H   0  0  0  0  0  0  0  0  0  0  0  0
   36.5390   31.1970   36.0560 H   0  0  0  0  0  0  0  0  0  0  0  0
   37.3260   29.6350   35.5410 H   0  0  0  0  0  0  0  0  0  0  0  0
   38.3720   28.6720   37.8170 C   0  0  0  0  0  0  0  0  0  0  0  0
   39.7110   28.8160   38.5150 C   0  0  0  0  0  0  0  0  0  0  0  0
   40.2740   27.4050   38.6230 C   0  0  0  0  0  0  0  0  0  0  0  0
   40.7300   27.0580   37.3460 O   0  0  0  0  0  0  0  0  0  0  0  0
   39.5270   26.8250   36.6370 C   0  0  0  0  0  0  0  0  0  0  0  0
   38.7820   28.1310   36.4360 C   0  0  0  0  0  0  0  0  0  0  0  0
   37.7380   27.9040   38.2890 H   0  0  0  0  0  0  0  0  0  0  0  0
   39.5880   29.1620   39.5760 H   0  0  0  0  0  0  0  0  0  0  0  0
   40.3580   29.4770   37.9290 H   0  0  0  0  0  0  0  0  0  0  0  0
   41.0520   27.3120   39.4000 H   0  0  0  0  0  0  0  0  0  0  0  0
   39.4270   26.7420   38.8870 H   0  0  0  0  0  0  0  0  0  0  0  0
   39.8380   26.4810   35.6150 H   0  0  0  0  0  0  0  0  0  0  0  0
   38.9170   26.0390   37.0770 H   0  0  0  0  0  0  0  0  0  0  0  0
   37.8420   27.8960   35.9130 H   0  0  0  0  0  0  0  0  0  0  0  0
   39.4540   28.8320   35.9230 H   0  0  0  0  0  0  0  0  0  0  0  0
   36.6670   29.7550   40.5170 C   0  0  2  0  0  3  0  0  0  0  0  0
   35.3800   29.6400   40.6450 O   0  0  0  0  0  1  0  0  0  0  0  0
   36.8040   28.4150   41.0460 C   0  0  0  0  0  0  0  0  0  0  0  0
   37.1060   28.0310   42.3210 C   0  0  0  0  0  0  0  0  0  0  0  0
   37.1860   28.8400   43.0600 H   0  0  0  0  0  0  0  0  0  0  0  0
   37.2960   26.6710   42.6380 C   0  0  0  0  0  3  0  0  0  0  0  0
   37.1850   25.7110   41.6850 C   0  0  0  0  0  0  0  0  0  0  0  0
   37.3750   24.4290   42.0330 N   0  0  0  0  0  0  0  0  0  0  0  0
   37.2760   23.4220   41.1180 C   0  0  0  0  0  0  0  0  0  0  0  0
   37.4240   22.3700   41.3620 H   0  0  0  0  0  0  0  0  0  0  0  0
   36.9710   23.7460   39.7910 C   0  0  0  0  0  3  0  0  0  0  0  0
   36.7660   25.0680   39.3910 C   0  0  0  0  0  3  0  0  0  0  0  0
   36.8880   26.0030   40.3890 C   0  0  0  0  0  0  0  0  0  0  0  0
   36.7160   27.3460   40.1570 C   0  0  0  0  0  3  0  0  0  0  0  0
  1  2  2  0  0  0  0
  1  6  1  0  0  0  0
  2  3  1  0  0  0  0
  3 33  1  0  0  0  0
  3  4  2  0  0  0  0
  5  4  1  0  0  0  0
  5  7  1  0  0  0  0
  6  5  2  0  0  0  0
  7 10  1  0  0  0  0
  7  9  1  0  0  0  0
  8  1  1  0  0  0  0
 11 18  1  0  0  0  0
 11  2  1  0  0  0  0
 12 11  1  0  0  0  0
 12 15  1  0  0  0  0
 13 12  1  0  0  0  0
 13 11  1  0  0  0  0
 14 12  1  0  0  0  0
 16 13  1  0  0  0  0
 17 13  1  0  0  0  0
 18 24  1  0  0  0  0
 18 19  1  0  0  0  0
 19 20  1  0  0  0  0
 19 25  1  0  0  0  0
 20 28  1  0  0  0  0
 20 27  1  0  0  0  0
 21 20  1  0  0  0  0
 22 30  1  0  0  0  0
 22 21  1  0  0  0  0
 23 22  1  0  0  0  0
 23 18  1  0  0  0  0
 26 19  1  0  0  0  0
 29 22  1  0  0  0  0
 31 23  1  0  0  0  0
 32 23  1  0  0  0  0
 33 34  1  1  0  0  0
 33 35  1  0  0  0  0
 35 36  1  0  0  0  0
 36 38  2  0  0  0  0
 36 37  1  0  0  0  0
 39 40  1  0  0  0  0
 39 38  1  0  0  0  0
 41 42  1  0  0  0  0
 41 40  2  0  0  0  0
 43 41  1  0  0  0  0
 44 43  2  0  0  0  0
 44 45  1  0  0  0  0
 45 39  2  0  0  0  0
 46 45  1  0  0  0  0
 46 35  2  0  0  0  0
M  END
>  <minimizedAffinity>
-6.23243046

$$$$

 OpenBabel03242516173D

 46 50  0  0  1  0  0  0  0  0999 V2000
   39.8270   32.2050   40.4800 C   0  0  0  0  0  0  0  0  0  0  0  0
   39.0370   31.1420   40.9240 C   0  0  0  0  0  0  0  0  0  0  0  0
   39.4840   30.4480   42.0460 C   0  0  0  0  0  0  0  0  0  0  0  0
   40.6490   30.8240   42.6570 N   0  0  0  0  0  0  0  0  0  0  0  0
   41.3570   31.8510   42.1790 C   0  0  0  0  0  0  0  0  0  0  0  0
   40.9710   32.5360   41.1180 N   0  0  0  0  0  0  0  0  0  0  0  0
   42.5740   32.2860   42.7780 N   0  0  0  0  0  0  0  0  0  0  0  0
   39.4690   32.7340   39.6130 H   0  0  0  0  0  0  0  0  0  0  0  0
   43.3240   31.7020   42.3490 H   0  0  0  0  0  0  0  0  0  0  0  0
   42.5750   33.0540   43.4960 H   0  0  0  0  0  0  0  0  0  0  0  0
   37.7880   30.7770   40.2090 C   0  0  0  0  0  0  0  0  0  0  0  0
   36.5110   30.7940   41.0330 C   0  0  0  0  0  0  0  0  0  0  0  0
   36.7740   31.7600   39.9650 C   0  0  0  0  0  0  0  0  0  0  0  0
   35.7280   30.0270   40.8660 H   0  0  0  0  0  0  0  0  0  0  0  0
   36.6550   30.9940   42.1140 H   0  0  0  0  0  0  0  0  0  0  0  0
   36.6070   32.7580   40.3890 H   0  0  0  0  0  0  0  0  0  0  0  0
   36.1580   31.6340   39.0240 H   0  0  0  0  0  0  0  0  0  0  0  0
   37.8660   29.5830   39.3040 C   0  0  0  0  0  0  0  0  0  0  0  0
   39.2530   29.2500   38.7890 C   0  0  0  0  0  0  0  0  0  0  0  0
   39.1020   27.9550   38.0020 C   0  0  0  0  0  0  0  0  0  0  0  0
   38.4940   28.2940   36.7890 O   0  0  0  0  0  0  0  0  0  0  0  0
   37.1550   28.5470   37.1690 C   0  0  0  0  0  0  0  0  0  0  0  0
   37.0820   29.8140   38.0000 C   0  0  0  0  0  0  0  0  0  0  0  0
   37.3960   28.7280   39.8150 H   0  0  0  0  0  0  0  0  0  0  0  0
   39.9560   29.0010   39.6280 H   0  0  0  0  0  0  0  0  0  0  0  0
   39.6170   30.0740   38.1660 H   0  0  0  0  0  0  0  0  0  0  0  0
   40.0570   27.4180   37.8730 H   0  0  0  0  0  0  0  0  0  0  0  0
   38.4070   27.3120   38.5770 H   0  0  0  0  0  0  0  0  0  0  0  0
   36.6030   28.7650   36.2160 H   0  0  0  0  0  0  0  0  0  0  0  0
   36.6740   27.6910   37.6380 H   0  0  0  0  0  0  0  0  0  0  0  0
   36.0310   29.9510   38.3000 H   0  0  0  0  0  0  0  0  0  0  0  0
   37.5250   30.6320   37.4150 H   0  0  0  0  0  0  0  0  0  0  0  0
   38.8070   29.3010   42.5750 C   0  0  2  0  0  3  0  0  0  0  0  0
   37.8760   29.2860   43.4810 O   0  0  0  0  0  1  0  0  0  0  0  0
   38.7170   27.8590   42.5100 C   0  0  0  0  0  0  0  0  0  0  0  0
   39.4490   26.9290   43.1930 C   0  0  0  0  0  0  0  0  0  0  0  0
   40.1480   27.3250   43.9420 H   0  0  0  0  0  0  0  0  0  0  0  0
   39.2920   25.5530   42.9300 C   0  0  0  0  0  3  0  0  0  0  0  0
   38.4120   25.1190   41.9920 C   0  0  0  0  0  0  0  0  0  0  0  0
   38.2970   23.8000   41.7750 N   0  0  0  0  0  0  0  0  0  0  0  0
   37.4300   23.3060   40.8450 C   0  0  0  0  0  0  0  0  0  0  0  0
   37.3080   22.2420   40.6400 H   0  0  0  0  0  0  0  0  0  0  0  0
   36.6490   24.2030   40.1070 C   0  0  0  0  0  3  0  0  0  0  0  0
   36.7410   25.5830   40.3050 C   0  0  0  0  0  3  0  0  0  0  0  0
   37.6430   25.9750   41.2630 C   0  0  0  0  0  0  0  0  0  0  0  0
   37.8500   27.2960   41.5760 C   0  0  0  0  0  3  0  0  0  0  0  0
  1  2  2  0  0  0  0
  1  6  1  0  0  0  0
  2  3  1  0  0  0  0
  3 33  1  0  0  0  0
  3  4  2  0  0  0  0
  5  4  1  0  0  0  0
  5  7  1  0  0  0  0
  6  5  2  0  0  0  0
  7 10  1  0  0  0  0
  8  1  1  0  0  0  0
  9  7  1  0  0  0  0
 11  2  1  0  0  0  0
 11 12  1  0  0  0  0
 12 15  1  0  0  0  0
 13 11  1  0  0  0  0
 13 16  1  0  0  0  0
 13 12  1  0  0  0  0
 14 12  1  0  0  0  0
 17 13  1  0  0  0  0
 18 24  1  0  0  0  0
 18 11  1  0  0  0  0
 19 18  1  0  0  0  0
 19 25  1  0  0  0  0
 20 28  1  0  0  0  0
 20 19  1  0  0  0  0
 21 22  1  0  0  0  0
 21 20  1  0  0  0  0
 22 30  1  0  0  0  0
 22 23  1  0  0  0  0
 23 31  1  0  0  0  0
 23 18  1  0  0  0  0
 26 19  1  0  0  0  0
 27 20  1  0  0  0  0
 29 22  1  0  0  0  0
 32 23  1  0  0  0  0
 33 34  1  1  0  0  0
 35 33  1  0  0  0  0
 35 36  1  0  0  0  0
 36 37  1  0  0  0  0
 38 36  2  0  0  0  0
 39 38  1  0  0  0  0
 40 39  1  0  0  0  0
 41 40  2  0  0  0  0
 42 41  1  0  0  0  0
 43 44  2  0  0  0  0
 43 41  1  0  0  0  0
 44 45  1  0  0  0  0
 45 46  1  0  0  0  0
 45 39  2  0  0  0  0
 46 35  2  0  0  0  0
M  END
>  <minimizedAffinity>
-6.1212368

$$$$

 OpenBabel03242516173D

 46 50  0  0  1  0  0  0  0  0999 V2000
   37.5840   31.3040   37.4090 C   0  0  0  0  0  0  0  0  0  0  0  0
   37.3850   30.1860   38.2210 C   0  0  0  0  0  0  0  0  0  0  0  0
   37.0630   30.4220   39.5560 C   0  0  0  0  0  0  0  0  0  0  0  0
   36.9580   31.7090   40.0100 N   0  0  0  0  0  0  0  0  0  0  0  0
   37.1630   32.7340   39.1790 C   0  0  0  0  0  0  0  0  0  0  0  0
   37.4700   32.5550   37.9070 N   0  0  0  0  0  0  0  0  0  0  0  0
   37.0640   34.0920   39.5980 N   0  0  0  0  0  0  0  0  0  0  0  0
   37.8300   31.1060   36.3790 H   0  0  0  0  0  0  0  0  0  0  0  0
   38.0040   34.3400   39.9740 H   0  0  0  0  0  0  0  0  0  0  0  0
   36.1620   34.6210   39.4920 H   0  0  0  0  0  0  0  0  0  0  0  0
   37.5250   28.8140   37.6690 C   0  0  0  0  0  0  0  0  0  0  0  0
   38.7420   28.5610   36.7940 C   0  0  0  0  0  0  0  0  0  0  0  0
   38.5800   27.9530   38.1160 C   0  0  0  0  0  0  0  0  0  0  0  0
   38.6630   27.9090   35.9020 H   0  0  0  0  0  0  0  0  0  0  0  0
   39.3600   29.4580   36.5840 H   0  0  0  0  0  0  0  0  0  0  0  0
   39.5010   28.1560   38.6760 H   0  0  0  0  0  0  0  0  0  0  0  0
   38.3630   26.8430   38.1230 H   0  0  0  0  0  0  0  0  0  0  0  0
   36.2800   28.1950   37.1050 C   0  0  0  0  0  0  0  0  0  0  0  0
   35.0310   29.0500   37.2020 C   0  0  0  0  0  0  0  0  0  0  0  0
   33.9430   28.2750   36.4710 C   0  0  0  0  0  0  0  0  0  0  0  0
   33.5580   27.2310   37.3190 O   0  0  0  0  0  0  0  0  0  0  0  0
   34.6490   26.3340   37.2270 C   0  0  0  0  0  0  0  0  0  0  0  0
   35.8740   26.9360   37.8910 C   0  0  0  0  0  0  0  0  0  0  0  0
   36.4870   27.8770   36.0710 H   0  0  0  0  0  0  0  0  0  0  0  0
   35.1420   30.0080   36.6270 H   0  0  0  0  0  0  0  0  0  0  0  0
   34.7850   29.2170   38.2550 H   0  0  0  0  0  0  0  0  0  0  0  0
   33.0980   28.9120   36.1590 H   0  0  0  0  0  0  0  0  0  0  0  0
   34.4130   27.8390   35.5670 H   0  0  0  0  0  0  0  0  0  0  0  0
   34.3640   25.4420   37.8450 H   0  0  0  0  0  0  0  0  0  0  0  0
   34.8320   25.9860   36.2120 H   0  0  0  0  0  0  0  0  0  0  0  0
   36.7010   26.2210   37.7650 H   0  0  0  0  0  0  0  0  0  0  0  0
   35.6100   27.1880   38.9270 H   0  0  0  0  0  0  0  0  0  0  0  0
   36.8890   29.3720   40.5140 C   0  0  2  0  0  3  0  0  0  0  0  0
   35.7730   28.8150   40.8760 O   0  0  0  0  0  1  0  0  0  0  0  0
   37.5820   28.5020   41.4400 C   0  0  0  0  0  0  0  0  0  0  0  0
   38.2800   28.8410   42.5650 C   0  0  0  0  0  0  0  0  0  0  0  0
   38.2540   29.9030   42.8450 H   0  0  0  0  0  0  0  0  0  0  0  0
   38.9790   27.8630   43.3000 C   0  0  0  0  0  3  0  0  0  0  0  0
   38.9780   26.5630   42.9090 C   0  0  0  0  0  0  0  0  0  0  0  0
   39.6580   25.6670   43.6400 N   0  0  0  0  0  0  0  0  0  0  0  0
   39.6920   24.3470   43.2950 C   0  0  0  0  0  0  0  0  0  0  0  0
   40.2330   23.5910   43.8630 H   0  0  0  0  0  0  0  0  0  0  0  0
   39.0000   23.9320   42.1520 C   0  0  0  0  0  3  0  0  0  0  0  0
   38.2800   24.8350   41.3670 C   0  0  0  0  0  3  0  0  0  0  0  0
   38.3100   26.1370   41.8020 C   0  0  0  0  0  0  0  0  0  0  0  0
   37.6530   27.1440   41.1390 C   0  0  0  0  0  3  0  0  0  0  0  0
  1  6  2  0  0  0  0
  1  2  1  0  0  0  0
  2  3  2  0  0  0  0
  3  4  1  0  0  0  0
  3 33  1  0  0  0  0
  5  7  1  0  0  0  0
  5  4  2  0  0  0  0
  6  5  1  0  0  0  0
  7  9  1  0  0  0  0
  8  1  1  0  0  0  0
 10  7  1  0  0  0  0
 11 13  1  0  0  0  0
 11  2  1  0  0  0  0
 12 11  1  0  0  0  0
 12 13  1  0  0  0  0
 13 17  1  0  0  0  0
 13 16  1  0  0  0  0
 14 12  1  0  0  0  0
 15 12  1  0  0  0  0
 18 19  1  0  0  0  0
 18 11  1  0  0  0  0
 18 23  1  0  0  0  0
 19 26  1  0  0  0  0
 20 19  1  0  0  0  0
 20 21  1  0  0  0  0
 22 21  1  0  0  0  0
 22 29  1  0  0  0  0
 22 23  1  0  0  0  0
 23 32  1  0  0  0  0
 24 18  1  0  0  0  0
 25 19  1  0  0  0  0
 27 20  1  0  0  0  0
 28 20  1  0  0  0  0
 30 22  1  0  0  0  0
 31 23  1  0  0  0  0
 33 34  1  1  0  0  0
 33 35  1  0  0  0  0
 35 36  1  0  0  0  0
 36 37  1  0  0  0  0
 36 38  2  0  0  0  0
 39 38  1  0  0  0  0
 39 40  1  0  0  0  0
 41 40  2  0  0  0  0
 41 42  1  0  0  0  0
 43 41  1  0  0  0  0
 44 45  1  0  0  0  0
 44 43  2  0  0  0  0
 45 39  2  0  0  0  0
 46 35  2  0  0  0  0
 46 45  1  0  0  0  0
M  END
>  <minimizedAffinity>
-6.10782957

$$$$

 OpenBabel03242516173D

 46 50  0  0  1  0  0  0  0  0999 V2000
   36.7320   25.2910   41.4810 C   0  0  0  0  0  0  0  0  0  0  0  0
   37.5590   26.3800   41.7680 C   0  0  0  0  0  0  0  0  0  0  0  0
   38.9050   26.2580   41.4330 C   0  0  0  0  0  0  0  0  0  0  0  0
   39.3570   25.1040   40.8510 N   0  0  0  0  0  0  0  0  0  0  0  0
   38.5120   24.0990   40.6050 C   0  0  0  0  0  0  0  0  0  0  0  0
   37.2280   24.1730   40.9070 N   0  0  0  0  0  0  0  0  0  0  0  0
   38.9280   22.8790   40.0000 N   0  0  0  0  0  0  0  0  0  0  0  0
   35.6940   25.4000   41.7440 H   0  0  0  0  0  0  0  0  0  0  0  0
   39.2590   22.2750   40.7820 H   0  0  0  0  0  0  0  0  0  0  0  0
   38.8600   22.7470   38.9590 H   0  0  0  0  0  0  0  0  0  0  0  0
   37.0080   27.6000   42.4110 C   0  0  0  0  0  0  0  0  0  0  0  0
   36.2000   27.3850   43.6800 C   0  0  0  0  0  0  0  0  0  0  0  0
   37.5070   28.0440   43.6800 C   0  0  0  0  0  0  0  0  0  0  0  0
   35.3010   28.0020   43.8810 H   0  0  0  0  0  0  0  0  0  0  0  0
   36.0270   26.3230   43.9500 H   0  0  0  0  0  0  0  0  0  0  0  0
   38.1170   27.5410   44.4400 H   0  0  0  0  0  0  0  0  0  0  0  0
   37.4970   29.1590   43.8690 H   0  0  0  0  0  0  0  0  0  0  0  0
   36.3750   28.6050   41.4950 C   0  0  0  0  0  0  0  0  0  0  0  0
   36.6220   28.3790   40.0160 C   0  0  0  0  0  0  0  0  0  0  0  0
   35.7960   29.4360   39.2930 C   0  0  0  0  0  0  0  0  0  0  0  0
   36.4790   30.6470   39.4450 O   0  0  0  0  0  0  0  0  0  0  0  0
   36.2320   30.9780   40.7990 C   0  0  0  0  0  0  0  0  0  0  0  0
   36.9620   30.0110   41.7120 C   0  0  0  0  0  0  0  0  0  0  0  0
   35.3010   28.6650   41.7330 H   0  0  0  0  0  0  0  0  0  0  0  0
   36.2000   27.3960   39.6730 H   0  0  0  0  0  0  0  0  0  0  0  0
   37.6920   28.4740   39.8070 H   0  0  0  0  0  0  0  0  0  0  0  0
   35.6000   29.1790   38.2380 H   0  0  0  0  0  0  0  0  0  0  0  0
   34.8290   29.5060   39.8290 H   0  0  0  0  0  0  0  0  0  0  0  0
   36.7090   31.9810   40.9600 H   0  0  0  0  0  0  0  0  0  0  0  0
   35.1730   31.0780   41.0290 H   0  0  0  0  0  0  0  0  0  0  0  0
   36.7140   30.2860   42.7480 H   0  0  0  0  0  0  0  0  0  0  0  0
   38.0290   30.0350   41.4500 H   0  0  0  0  0  0  0  0  0  0  0  0
   39.8770   27.2700   41.7220 C   0  0  2  0  0  3  0  0  0  0  0  0
   40.9470   27.1490   42.4470 O   0  0  0  0  0  1  0  0  0  0  0  0
   40.2270   28.6570   41.5010 C   0  0  0  0  0  0  0  0  0  0  0  0
   40.6610   29.5790   42.4100 C   0  0  0  0  0  0  0  0  0  0  0  0
   40.8360   29.2050   43.4280 H   0  0  0  0  0  0  0  0  0  0  0  0
   40.8640   30.9220   42.0320 C   0  0  0  0  0  3  0  0  0  0  0  0
   40.6320   31.3310   40.7590 C   0  0  0  0  0  0  0  0  0  0  0  0
   40.8370   32.6190   40.4450 N   0  0  0  0  0  0  0  0  0  0  0  0
   40.6210   33.0870   39.1820 C   0  0  0  0  0  0  0  0  0  0  0  0
   40.7760   34.1250   38.8890 H   0  0  0  0  0  0  0  0  0  0  0  0
   40.1740   32.1940   38.2010 C   0  0  0  0  0  3  0  0  0  0  0  0
   39.9480   30.8470   38.4890 C   0  0  0  0  0  3  0  0  0  0  0  0
   40.1970   30.4800   39.7890 C   0  0  0  0  0  0  0  0  0  0  0  0
   40.0240   29.1910   40.2310 C   0  0  0  0  0  3  0  0  0  0  0  0
  1  8  1  0  0  0  0
  1  2  1  0  0  0  0
  2 11  1  0  0  0  0
  3 33  1  0  0  0  0
  3  2  2  0  0  0  0
  4  3  1  0  0  0  0
  5  4  2  0  0  0  0
  5  6  1  0  0  0  0
  6  1  2  0  0  0  0
  7  5  1  0  0  0  0
  7  9  1  0  0  0  0
 10  7  1  0  0  0  0
 11 13  1  0  0  0  0
 11 12  1  0  0  0  0
 12 14  1  0  0  0  0
 12 15  1  0  0  0  0
 13 12  1  0  0  0  0
 13 17  1  0  0  0  0
 13 16  1  0  0  0  0
 18 23  1  0  0  0  0
 18 24  1  0  0  0  0
 18 11  1  0  0  0  0
 19 18  1  0  0  0  0
 20 21  1  0  0  0  0
 20 28  1  0  0  0  0
 20 19  1  0  0  0  0
 21 22  1  0  0  0  0
 22 29  1  0  0  0  0
 22 30  1  0  0  0  0
 22 23  1  0  0  0  0
 23 31  1  0  0  0  0
 25 19  1  0  0  0  0
 26 19  1  0  0  0  0
 27 20  1  0  0  0  0
 32 23  1  0  0  0  0
 33 34  1  1  0  0  0
 35 33  1  0  0  0  0
 35 36  1  0  0  0  0
 36 37  1  0  0  0  0
 38 36  2  0  0  0  0
 39 38  1  0  0  0  0
 40 39  1  0  0  0  0
 41 40  2  0  0  0  0
 42 41  1  0  0  0  0
 43 44  2  0  0  0  0
 43 41  1  0  0  0  0
 44 45  1  0  0  0  0
 45 46  1  0  0  0  0
 45 39  2  0  0  0  0
 46 35  2  0  0  0  0
M  END
>  <minimizedAffinity>
-6.01391459

$$$$

 OpenBabel03242516173D

 46 50  0  0  1  0  0  0  0  0999 V2000
   39.6590   28.8850   42.7650 C   0  0  0  0  0  0  0  0  0  0  0  0
   38.6010   28.9410   41.8560 C   0  0  0  0  0  0  0  0  0  0  0  0
   38.4930   30.0930   41.0800 C   0  0  0  0  0  0  0  0  0  0  0  0
   39.4060   31.1020   41.2350 N   0  0  0  0  0  0  0  0  0  0  0  0
   40.3940   30.9840   42.1250 C   0  0  0  0  0  0  0  0  0  0  0  0
   40.5330   29.9090   42.8800 N   0  0  0  0  0  0  0  0  0  0  0  0
   41.3710   32.0000   42.3240 N   0  0  0  0  0  0  0  0  0  0  0  0
   39.7300   27.9880   43.3570 H   0  0  0  0  0  0  0  0  0  0  0  0
   40.9580   32.6560   43.0220 H   0  0  0  0  0  0  0  0  0  0  0  0
   42.2860   31.9740   41.8060 H   0  0  0  0  0  0  0  0  0  0  0  0
   37.6370   27.8170   41.7450 C   0  0  0  0  0  0  0  0  0  0  0  0
   37.0830   27.2730   43.0510 C   0  0  0  0  0  0  0  0  0  0  0  0
   36.2570   28.0020   42.0860 C   0  0  0  0  0  0  0  0  0  0  0  0
   36.9090   26.1860   43.1750 H   0  0  0  0  0  0  0  0  0  0  0  0
   37.5240   27.7170   43.9670 H   0  0  0  0  0  0  0  0  0  0  0  0
   35.7430   28.7960   42.6420 H   0  0  0  0  0  0  0  0  0  0  0  0
   35.5030   27.3810   41.5160 H   0  0  0  0  0  0  0  0  0  0  0  0
   38.0000   26.7250   40.7820 C   0  0  0  0  0  0  0  0  0  0  0  0
   36.8780   26.2640   39.8720 C   0  0  0  0  0  0  0  0  0  0  0  0
   37.5050   25.2540   38.9210 C   0  0  0  0  0  0  0  0  0  0  0  0
   37.6880   24.0760   39.6530 O   0  0  0  0  0  0  0  0  0  0  0  0
   38.7870   24.3940   40.4870 C   0  0  0  0  0  0  0  0  0  0  0  0
   38.3740   25.4270   41.5190 C   0  0  0  0  0  0  0  0  0  0  0  0
   38.8910   27.0410   40.2160 H   0  0  0  0  0  0  0  0  0  0  0  0
   36.5130   27.0980   39.2130 H   0  0  0  0  0  0  0  0  0  0  0  0
   36.0770   25.8240   40.4750 H   0  0  0  0  0  0  0  0  0  0  0  0
   36.9120   25.1040   38.0020 H   0  0  0  0  0  0  0  0  0  0  0  0
   38.5000   25.6540   38.6410 H   0  0  0  0  0  0  0  0  0  0  0  0
   39.0180   23.4560   41.0580 H   0  0  0  0  0  0  0  0  0  0  0  0
   39.6810   24.6690   39.9310 H   0  0  0  0  0  0  0  0  0  0  0  0
   39.2650   25.6660   42.1200 H   0  0  0  0  0  0  0  0  0  0  0  0
   37.5130   25.0280   42.0740 H   0  0  0  0  0  0  0  0  0  0  0  0
   37.4250   30.3120   40.1500 C   0  0  2  0  0  3  0  0  0  0  0  0
   36.3860   31.0740   40.3120 O   0  0  0  0  0  1  0  0  0  0  0  0
   36.9190   29.9570   38.8420 C   0  0  0  0  0  0  0  0  0  0  0  0
   37.5330   30.0870   37.6290 C   0  0  0  0  0  0  0  0  0  0  0  0
   38.5730   30.4390   37.6520 H   0  0  0  0  0  0  0  0  0  0  0  0
   36.8460   29.7780   36.4370 C   0  0  0  0  0  3  0  0  0  0  0  0
   35.5600   29.3460   36.4660 C   0  0  0  0  0  0  0  0  0  0  0  0
   34.9460   29.0640   35.3070 N   0  0  0  0  0  0  0  0  0  0  0  0
   33.6540   28.6260   35.2750 C   0  0  0  0  0  0  0  0  0  0  0  0
   33.1220   28.3880   34.3540 H   0  0  0  0  0  0  0  0  0  0  0  0
   32.9650   28.4730   36.4830 C   0  0  0  0  0  3  0  0  0  0  0  0
   33.5700   28.7550   37.7090 C   0  0  0  0  0  3  0  0  0  0  0  0
   34.8710   29.1890   37.6300 C   0  0  0  0  0  0  0  0  0  0  0  0
   35.6040   29.5070   38.7470 C   0  0  0  0  0  3  0  0  0  0  0  0
  1  6  1  0  0  0  0
  1  8  1  0  0  0  0
  2  1  2  0  0  0  0
  3  4  2  0  0  0  0
  3  2  1  0  0  0  0
  4  5  1  0  0  0  0
  5  7  1  0  0  0  0
  5  6  2  0  0  0  0
  7  9  1  0  0  0  0
 10  7  1  0  0  0  0
 11  2  1  0  0  0  0
 11 13  1  0  0  0  0
 11 12  1  0  0  0  0
 12 14  1  0  0  0  0
 12 15  1  0  0  0  0
 13 16  1  0  0  0  0
 13 12  1  0  0  0  0
 17 13  1  0  0  0  0
 18 23  1  0  0  0  0
 18 11  1  0  0  0  0
 19 26  1  0  0  0  0
 19 18  1  0  0  0  0
 20 21  1  0  0  0  0
 20 19  1  0  0  0  0
 21 22  1  0  0  0  0
 22 29  1  0  0  0  0
 22 23  1  0  0  0  0
 23 32  1  0  0  0  0
 23 31  1  0  0  0  0
 24 18  1  0  0  0  0
 25 19  1  0  0  0  0
 27 20  1  0  0  0  0
 28 20  1  0  0  0  0
 30 22  1  0  0  0  0
 33 34  1  1  0  0  0
 33  3  1  0  0  0  0
 35 33  1  0  0  0  0
 36 37  1  0  0  0  0
 36 35  2  0  0  0  0
 38 39  2  0  0  0  0
 38 36  1  0  0  0  0
 39 45  1  0  0  0  0
 40 39  1  0  0  0  0
 41 40  2  0  0  0  0
 41 43  1  0  0  0  0
 42 41  1  0  0  0  0
 43 44  2  0  0  0  0
 45 44  1  0  0  0  0
 45 46  2  0  0  0  0
 46 35  1  0  0  0  0
M  END
>  <minimizedAffinity>
-6.00731993

$$$$

 OpenBabel03242516173D

 46 50  0  0  1  0  0  0  0  0999 V2000
   36.8580   30.1450   37.4560 C   0  0  0  0  0  0  0  0  0  0  0  0
   37.0230   29.7030   38.7700 C   0  0  0  0  0  0  0  0  0  0  0  0
   38.1120   30.2100   39.4760 C   0  0  0  0  0  0  0  0  0  0  0  0
   38.9570   31.1000   38.8710 N   0  0  0  0  0  0  0  0  0  0  0  0
   38.7410   31.4810   37.6090 C   0  0  0  0  0  0  0  0  0  0  0  0
   37.7230   31.0250   36.9030 N   0  0  0  0  0  0  0  0  0  0  0  0
   39.5880   32.4050   36.9320 N   0  0  0  0  0  0  0  0  0  0  0  0
   36.0120   29.7460   36.9230 H   0  0  0  0  0  0  0  0  0  0  0  0
   40.3570   31.8350   36.5220 H   0  0  0  0  0  0  0  0  0  0  0  0
   39.3640   33.4330   36.9270 H   0  0  0  0  0  0  0  0  0  0  0  0
   36.0760   28.7270   39.3650 C   0  0  0  0  0  0  0  0  0  0  0  0
   35.4720   29.1060   40.7070 C   0  0  0  0  0  0  0  0  0  0  0  0
   34.6810   29.0390   39.4770 C   0  0  0  0  0  0  0  0  0  0  0  0
   35.3030   28.3320   41.4830 H   0  0  0  0  0  0  0  0  0  0  0  0
   35.8700   30.0410   41.1510 H   0  0  0  0  0  0  0  0  0  0  0  0
   34.1370   29.9880   39.3960 H   0  0  0  0  0  0  0  0  0  0  0  0
   33.9570   28.1730   39.4030 H   0  0  0  0  0  0  0  0  0  0  0  0
   36.4890   27.2860   39.3130 C   0  0  0  0  0  0  0  0  0  0  0  0
   37.8410   27.0210   38.6790 C   0  0  0  0  0  0  0  0  0  0  0  0
   38.0910   25.5280   38.8450 C   0  0  0  0  0  0  0  0  0  0  0  0
   37.2800   24.8810   37.9060 O   0  0  0  0  0  0  0  0  0  0  0  0
   35.9870   25.0120   38.4670 C   0  0  0  0  0  0  0  0  0  0  0  0
   35.5450   26.4630   38.4190 C   0  0  0  0  0  0  0  0  0  0  0  0
   36.4170   26.8660   40.3290 H   0  0  0  0  0  0  0  0  0  0  0  0
   38.6690   27.5210   39.2500 H   0  0  0  0  0  0  0  0  0  0  0  0
   37.8150   27.3230   37.6270 H   0  0  0  0  0  0  0  0  0  0  0  0
   39.1570   25.2590   38.7550 H   0  0  0  0  0  0  0  0  0  0  0  0
   37.7400   25.2570   39.8600 H   0  0  0  0  0  0  0  0  0  0  0  0
   35.2990   24.4510   37.7790 H   0  0  0  0  0  0  0  0  0  0  0  0
   35.9010   24.5630   39.4540 H   0  0  0  0  0  0  0  0  0  0  0  0
   34.5530   26.5190   38.8940 H   0  0  0  0  0  0  0  0  0  0  0  0
   35.5980   26.8010   37.3750 H   0  0  0  0  0  0  0  0  0  0  0  0
   38.4360   29.8010   40.8100 C   0  0  2  0  0  3  0  0  0  0  0  0
   38.2680   30.4810   41.9040 O   0  0  0  0  0  1  0  0  0  0  0  0
   38.9930   28.7270   41.6050 C   0  0  0  0  0  0  0  0  0  0  0  0
   38.5390   28.2240   42.7910 C   0  0  0  0  0  0  0  0  0  0  0  0
   37.5890   28.6370   43.1560 H   0  0  0  0  0  0  0  0  0  0  0  0
   39.2690   27.2330   43.4790 C   0  0  0  0  0  3  0  0  0  0  0  0
   40.4390   26.7580   42.9820 C   0  0  0  0  0  0  0  0  0  0  0  0
   41.0990   25.8160   43.6720 N   0  0  0  0  0  0  0  0  0  0  0  0
   42.2790   25.3010   43.2210 C   0  0  0  0  0  0  0  0  0  0  0  0
   42.8450   24.5360   43.7530 H   0  0  0  0  0  0  0  0  0  0  0  0
   42.8030   25.7740   42.0130 C   0  0  0  0  0  3  0  0  0  0  0  0
   42.1440   26.7530   41.2660 C   0  0  0  0  0  3  0  0  0  0  0  0
   40.9650   27.2030   41.8080 C   0  0  0  0  0  0  0  0  0  0  0  0
   40.2000   28.1650   41.1960 C   0  0  0  0  0  3  0  0  0  0  0  0
  1  2  1  0  0  0  0
  2 11  1  0  0  0  0
  2  3  2  0  0  0  0
  3 33  1  0  0  0  0
  4  3  1  0  0  0  0
  5  4  2  0  0  0  0
  6  1  2  0  0  0  0
  6  5  1  0  0  0  0
  7  5  1  0  0  0  0
  8  1  1  0  0  0  0
  9  7  1  0  0  0  0
 10  7  1  0  0  0  0
 11 13  1  0  0  0  0
 11 12  1  0  0  0  0
 12 15  1  0  0  0  0
 12 14  1  0  0  0  0
 13 12  1  0  0  0  0
 16 13  1  0  0  0  0
 17 13  1  0  0  0  0
 18 11  1  0  0  0  0
 18 24  1  0  0  0  0
 19 20  1  0  0  0  0
 19 25  1  0  0  0  0
 19 18  1  0  0  0  0
 20 28  1  0  0  0  0
 21 22  1  0  0  0  0
 21 20  1  0  0  0  0
 22 30  1  0  0  0  0
 23 22  1  0  0  0  0
 23 31  1  0  0  0  0
 23 18  1  0  0  0  0
 26 19  1  0  0  0  0
 27 20  1  0  0  0  0
 29 22  1  0  0  0  0
 32 23  1  0  0  0  0
 33 35  1  0  0  0  0
 33 34  1  6  0  0  0
 35 36  1  0  0  0  0
 36 37  1  0  0  0  0
 36 38  2  0  0  0  0
 39 38  1  0  0  0  0
 39 40  1  0  0  0  0
 41 40  2  0  0  0  0
 41 42  1  0  0  0  0
 43 41  1  0  0  0  0
 44 45  1  0  0  0  0
 44 43  2  0  0  0  0
 45 39  2  0  0  0  0
 46 35  2  0  0  0  0
 46 45  1  0  0  0  0
M  END
>  <minimizedAffinity>
-5.9665885

$$$$
