
 OpenBabel03242523163D

 30 33  0  0  0  0  0  0  0  0999 V2000
   46.2650   34.4510   43.6160 C   0  0  0  0  0  0  0  0  0  0  0  0
   47.4050   33.8780   43.1680 C   0  0  0  0  0  0  0  0  0  0  0  0
   47.8150   32.7580   43.8540 C   0  0  0  0  0  0  0  0  0  0  0  0
   47.0390   32.3190   44.9270 N   0  0  0  0  0  0  0  0  0  0  0  0
   45.9180   32.9340   45.3190 C   0  0  0  0  0  0  0  0  0  0  0  0
   45.4940   34.0480   44.6520 N   0  0  0  0  0  0  0  0  0  0  0  0
   48.7270   32.2370   43.5540 H   0  0  0  0  0  0  0  0  0  0  0  0
   45.5660   32.3520   46.1570 H   0  0  0  0  0  0  0  0  0  0  0  0
   48.2160   34.3680   42.1170 C   0  0  0  0  0  0  0  0  0  0  0  0
   48.4970   35.6420   41.7210 C   0  0  0  0  0  0  0  0  0  0  0  0
   49.6470   34.9630   42.4710 C   0  0  0  0  0  0  0  0  0  0  0  0
   48.5900   33.4480   41.4900 H   0  0  0  0  0  0  0  0  0  0  0  0
   48.0420   36.5510   42.2380 H   0  0  0  0  0  0  0  0  0  0  0  0
   48.8110   35.9450   40.6860 H   0  0  0  0  0  0  0  0  0  0  0  0
   49.7540   35.2900   43.5300 H   0  0  0  0  0  0  0  0  0  0  0  0
   50.5190   34.6670   41.9240 H   0  0  0  0  0  0  0  0  0  0  0  0
   45.5170   35.5820   43.0580 C   0  0  0  0  0  0  0  0  0  0  0  0
   45.2800   36.7800   42.9230 O   0  0  0  0  0  0  0  0  0  0  0  0
   44.4070   35.2580   42.1240 C   0  0  0  0  0  0  0  0  0  0  0  0
   44.7180   34.4790   41.0090 C   0  0  0  0  0  0  0  0  0  0  0  0
   45.7390   34.0790   40.8960 H   0  0  0  0  0  0  0  0  0  0  0  0
   43.8770   34.1080   39.9680 C   0  0  0  0  0  3  0  0  0  0  0  0
   42.5840   34.5860   40.0760 C   0  0  0  0  0  0  0  0  0  0  0  0
   41.7130   34.2810   39.0990 N   0  0  0  0  0  0  0  0  0  0  0  0
   40.4220   34.7280   39.1240 C   0  0  0  0  0  0  0  0  0  0  0  0
   39.7090   34.4900   38.3440 H   0  0  0  0  0  0  0  0  0  0  0  0
   40.0280   35.5130   40.1960 C   0  0  0  0  0  3  0  0  0  0  0  0
   40.9130   35.8450   41.2290 C   0  0  0  0  0  3  0  0  0  0  0  0
   42.2130   35.3630   41.1500 C   0  0  0  0  0  0  0  0  0  0  0  0
   43.0810   35.7050   42.1640 C   0  0  0  0  0  3  0  0  0  0  0  0
  1  6  1  0  0  0  0
  2  1  2  0  0  0  0
  2  3  1  0  0  0  0
  3  4  2  0  0  0  0
  4  5  1  0  0  0  0
  5  8  1  0  0  0  0
  6  5  2  0  0  0  0
  7  3  1  0  0  0  0
  9 11  1  0  0  0  0
  9  2  1  0  0  0  0
 10  9  1  0  0  0  0
 10 13  1  0  0  0  0
 10 11  1  0  0  0  0
 11 15  1  0  0  0  0
 12  9  1  0  0  0  0
 14 10  1  0  0  0  0
 16 11  1  0  0  0  0
 17  1  1  0  0  0  0
 18 17  2  0  0  0  0
 19 30  1  0  0  0  0
 19 17  1  0  0  0  0
 20 19  2  0  0  0  0
 21 20  1  0  0  0  0
 22 23  2  0  0  0  0
 22 20  1  0  0  0  0
 23 29  1  0  0  0  0
 24 25  2  0  0  0  0
 24 23  1  0  0  0  0
 25 27  1  0  0  0  0
 26 25  1  0  0  0  0
 27 28  2  0  0  0  0
 29 28  1  0  0  0  0
 29 30  2  0  0  0  0
M  END
>  <minimizedAffinity>
-6.33497

>  <minimizedRMSD>
0.765524328

$$$$
