
 OpenBabel03242516163D

 46 50  0  0  1  0  0  0  0  0999 V2000
   46.4220   34.9030   42.4030 C   0  0  0  0  0  0  0  0  0  0  0  0
   46.9440   33.9000   43.2240 C   0  0  0  0  0  0  0  0  0  0  0  0
   46.2320   33.5950   44.3810 C   0  0  0  0  0  0  0  0  0  0  0  0
   45.0760   34.2710   44.6640 N   0  0  0  0  0  0  0  0  0  0  0  0
   44.6330   35.2200   43.8350 C   0  0  0  0  0  0  0  0  0  0  0  0
   45.2770   35.5420   42.7280 N   0  0  0  0  0  0  0  0  0  0  0  0
   43.4360   35.9520   44.0800 N   0  0  0  0  0  0  0  0  0  0  0  0
   46.9830   35.1270   41.5110 H   0  0  0  0  0  0  0  0  0  0  0  0
   43.7140   36.7530   44.6860 H   0  0  0  0  0  0  0  0  0  0  0  0
   42.5200   35.6360   43.6690 H   0  0  0  0  0  0  0  0  0  0  0  0
   48.2110   33.2120   42.8650 C   0  0  0  0  0  0  0  0  0  0  0  0
   48.9550   33.7570   41.6580 C   0  0  0  0  0  0  0  0  0  0  0  0
   49.4710   33.8760   43.0230 C   0  0  0  0  0  0  0  0  0  0  0  0
   49.4700   33.0660   40.9600 H   0  0  0  0  0  0  0  0  0  0  0  0
   48.4280   34.5640   41.1090 H   0  0  0  0  0  0  0  0  0  0  0  0
   49.7260   34.9320   43.1760 H   0  0  0  0  0  0  0  0  0  0  0  0
   50.3630   33.2260   43.2710 H   0  0  0  0  0  0  0  0  0  0  0  0
   48.1800   31.7130   42.8870 C   0  0  0  0  0  0  0  0  0  0  0  0
   49.5370   31.0360   42.8750 C   0  0  0  0  0  0  0  0  0  0  0  0
   49.2570   29.5460   43.0190 C   0  0  0  0  0  0  0  0  0  0  0  0
   48.7850   29.1070   41.7780 O   0  0  0  0  0  0  0  0  0  0  0  0
   47.4720   29.6350   41.7390 C   0  0  0  0  0  0  0  0  0  0  0  0
   47.5230   31.1460   41.6150 C   0  0  0  0  0  0  0  0  0  0  0  0
   47.5610   31.3890   43.7400 H   0  0  0  0  0  0  0  0  0  0  0  0
   50.1410   31.3090   43.7820 H   0  0  0  0  0  0  0  0  0  0  0  0
   50.0530   31.2730   41.9390 H   0  0  0  0  0  0  0  0  0  0  0  0
   50.1340   28.9780   43.3740 H   0  0  0  0  0  0  0  0  0  0  0  0
   48.4420   29.4450   43.7630 H   0  0  0  0  0  0  0  0  0  0  0  0
   47.0200   29.2570   40.7830 H   0  0  0  0  0  0  0  0  0  0  0  0
   46.8460   29.2860   42.5570 H   0  0  0  0  0  0  0  0  0  0  0  0
   46.4850   31.5110   41.6230 H   0  0  0  0  0  0  0  0  0  0  0  0
   48.1140   31.3950   40.7240 H   0  0  0  0  0  0  0  0  0  0  0  0
   46.6800   32.6320   45.3420 C   0  0  2  0  0  3  0  0  0  0  0  0
   47.2590   32.8680   46.4800 O   0  0  0  0  0  1  0  0  0  0  0  0
   46.7820   31.2160   45.6240 C   0  0  0  0  0  0  0  0  0  0  0  0
   45.9400   30.2100   45.2410 C   0  0  0  0  0  0  0  0  0  0  0  0
   45.1190   30.5000   44.5720 H   0  0  0  0  0  0  0  0  0  0  0  0
   46.1430   28.8900   45.6920 C   0  0  0  0  0  3  0  0  0  0  0  0
   47.1760   28.5870   46.5170 C   0  0  0  0  0  0  0  0  0  0  0  0
   47.3290   27.3170   46.9220 N   0  0  0  0  0  0  0  0  0  0  0  0
   48.3500   26.9530   47.7520 C   0  0  0  0  0  0  0  0  0  0  0  0
   48.5080   25.9330   48.1020 H   0  0  0  0  0  0  0  0  0  0  0  0
   49.2480   27.9360   48.1840 C   0  0  0  0  0  3  0  0  0  0  0  0
   49.1210   29.2680   47.7840 C   0  0  0  0  0  3  0  0  0  0  0  0
   48.0620   29.5260   46.9500 C   0  0  0  0  0  0  0  0  0  0  0  0
   47.8020   30.7860   46.4700 C   0  0  0  0  0  3  0  0  0  0  0  0
  1  6  2  0  0  0  0
  1  2  1  0  0  0  0
  2  3  2  0  0  0  0
  3  4  1  0  0  0  0
  3 33  1  0  0  0  0
  5  7  1  0  0  0  0
  5  4  2  0  0  0  0
  6  5  1  0  0  0  0
  7  9  1  0  0  0  0
  8  1  1  0  0  0  0
 10  7  1  0  0  0  0
 11 18  1  0  0  0  0
 11 13  1  0  0  0  0
 11  2  1  0  0  0  0
 12 11  1  0  0  0  0
 12 13  1  0  0  0  0
 13 16  1  0  0  0  0
 13 17  1  0  0  0  0
 14 12  1  0  0  0  0
 15 12  1  0  0  0  0
 18 24  1  0  0  0  0
 19 18  1  0  0  0  0
 19 20  1  0  0  0  0
 19 25  1  0  0  0  0
 20 27  1  0  0  0  0
 20 28  1  0  0  0  0
 21 20  1  0  0  0  0
 22 21  1  0  0  0  0
 22 30  1  0  0  0  0
 23 31  1  0  0  0  0
 23 22  1  0  0  0  0
 23 18  1  0  0  0  0
 26 19  1  0  0  0  0
 29 22  1  0  0  0  0
 32 23  1  0  0  0  0
 33 35  1  0  0  0  0
 33 34  1  6  0  0  0
 35 46  1  0  0  0  0
 36 35  2  0  0  0  0
 36 38  1  0  0  0  0
 37 36  1  0  0  0  0
 38 39  2  0  0  0  0
 39 40  1  0  0  0  0
 39 45  1  0  0  0  0
 40 41  2  0  0  0  0
 41 42  1  0  0  0  0
 41 43  1  0  0  0  0
 44 43  2  0  0  0  0
 45 44  1  0  0  0  0
 46 45  2  0  0  0  0
M  END
>  <minimizedAffinity>
-5.12251329

>  <minimizedRMSD>
4.21622562

$$$$
