
 OpenBabel03252508513D

 31 34  0  0  0  0  0  0  0  0999 V2000
   46.0670   34.2110   41.0370 C   0  0  0  0  0  0  0  0  0  0  0  0
   46.6090   34.8550   42.1450 C   0  0  0  0  0  0  0  0  0  0  0  0
   47.9450   35.2700   42.0210 C   0  0  0  0  0  0  0  0  0  0  0  0
   48.6110   35.0260   40.8580 N   0  0  0  0  0  0  0  0  0  0  0  0
   48.0390   34.4060   39.8320 C   0  0  0  0  0  0  0  0  0  0  0  0
   46.7630   33.9920   39.9100 N   0  0  0  0  0  0  0  0  0  0  0  0
   48.4020   35.7750   42.8630 H   0  0  0  0  0  0  0  0  0  0  0  0
   48.5330   34.1950   38.8950 H   0  0  0  0  0  0  0  0  0  0  0  0
   45.8110   35.0630   43.3310 C   0  0  0  0  0  0  0  0  0  0  0  0
   45.0840   36.2270   43.5580 C   0  0  0  0  0  0  0  0  0  0  0  0
   44.4890   35.9950   44.7800 C   0  0  0  0  0  0  0  0  0  0  0  0
   44.8300   34.7720   45.2660 N   0  0  0  0  0  0  0  0  0  0  0  0
   45.6270   34.2360   44.3680 N   0  0  0  0  0  0  0  0  0  0  0  0
   44.9600   37.1380   42.9730 H   0  0  0  0  0  0  0  0  0  0  0  0
   43.8250   36.6690   45.3260 H   0  0  0  0  0  0  0  0  0  0  0  0
   44.5100   34.3520   46.1800 H   0  0  0  0  0  0  0  0  0  0  0  0
   44.7540   33.7830   41.1110 O   0  0  0  0  0  0  0  0  0  0  0  0
   43.6470   34.4150   40.6240 C   0  0  0  0  0  0  0  0  0  0  0  0
   43.4450   35.6780   40.5490 O   0  0  0  0  0  0  0  0  0  0  0  0
   42.4500   33.7100   40.0860 C   0  0  0  0  0  0  0  0  0  0  0  0
   42.2880   33.4530   38.7460 C   0  0  0  0  0  0  0  0  0  0  0  0
   43.0270   33.7510   38.0180 H   0  0  0  0  0  0  0  0  0  0  0  0
   41.1560   32.7920   38.2550 C   0  0  0  0  0  3  0  0  0  0  0  0
   40.1700   32.3800   39.1230 C   0  0  0  0  0  0  0  0  0  0  0  0
   39.0710   31.7420   38.6850 N   0  0  0  0  0  0  0  0  0  0  0  0
   38.1160   31.3500   39.5620 C   0  0  0  0  0  0  0  0  0  0  0  0
   37.2620   30.8410   39.1240 H   0  0  0  0  0  0  0  0  0  0  0  0
   38.1840   31.5610   40.9410 C   0  0  0  0  0  3  0  0  0  0  0  0
   39.3160   32.2160   41.3770 C   0  0  0  0  0  3  0  0  0  0  0  0
   40.2830   32.6120   40.4750 C   0  0  0  0  0  0  0  0  0  0  0  0
   41.4250   33.2670   40.8720 C   0  0  0  0  0  3  0  0  0  0  0  0
  1 17  1  0  0  0  0
  1  2  1  0  0  0  0
  2  9  1  0  0  0  0
  3  2  2  0  0  0  0
  3  7  1  0  0  0  0
  4  3  1  0  0  0  0
  5  6  1  0  0  0  0
  5  4  2  0  0  0  0
  6  1  2  0  0  0  0
  8  5  1  0  0  0  0
  9 10  1  0  0  0  0
  9 13  2  0  0  0  0
 10 11  2  0  0  0  0
 11 12  1  0  0  0  0
 11 15  1  0  0  0  0
 12 16  1  0  0  0  0
 13 12  1  0  0  0  0
 14 10  1  0  0  0  0
 18 17  1  0  0  0  0
 19 18  2  0  0  0  0
 20 18  1  0  0  0  0
 20 31  1  0  0  0  0
 21 20  2  0  0  0  0
 22 21  1  0  0  0  0
 23 21  1  0  0  0  0
 23 24  2  0  0  0  0
 24 30  1  0  0  0  0
 25 24  1  0  0  0  0
 25 26  2  0  0  0  0
 26 28  1  0  0  0  0
 27 26  1  0  0  0  0
 28 29  2  0  0  0  0
 30 31  2  0  0  0  0
 30 29  1  0  0  0  0
M  END
>  <minimizedAffinity>
-6.19194746

>  <minimizedRMSD>
1.44860172

$$$$
