
 OpenBabel03252507163D

 32 35  0  0  0  0  0  0  0  0999 V2000
   45.1390   36.1700   43.5120 C   0  0  0  0  0  0  0  0  0  0  0  0
   45.7590   34.9650   43.1320 C   0  0  0  0  0  0  0  0  0  0  0  0
   45.7860   33.9530   44.0900 C   0  0  0  0  0  0  0  0  0  0  0  0
   45.2370   34.1600   45.2920 N   0  0  0  0  0  0  0  0  0  0  0  0
   44.6420   35.3370   45.6370 C   0  0  0  0  0  0  0  0  0  0  0  0
   44.6100   36.3110   44.7330 N   0  0  0  0  0  0  0  0  0  0  0  0
   45.0810   37.0070   42.8160 H   0  0  0  0  0  0  0  0  0  0  0  0
   44.2600   35.3110   46.6500 H   0  0  0  0  0  0  0  0  0  0  0  0
   46.4230   32.6800   43.7310 C   0  0  0  0  0  0  0  0  0  0  0  0
   45.6400   31.6020   43.3930 C   0  0  0  0  0  0  0  0  0  0  0  0
   46.2940   30.4290   43.0640 C   0  0  0  0  0  0  0  0  0  0  0  0
   47.6680   30.2660   43.0500 C   0  0  0  0  0  0  0  0  0  0  0  0
   48.3850   31.4070   43.4030 C   0  0  0  0  0  0  0  0  0  0  0  0
   47.7510   32.5490   43.7240 N   0  0  0  0  0  0  0  0  0  0  0  0
   44.5570   31.6420   43.3780 H   0  0  0  0  0  0  0  0  0  0  0  0
   45.7110   29.5480   42.7900 H   0  0  0  0  0  0  0  0  0  0  0  0
   48.1480   29.3510   42.7920 H   0  0  0  0  0  0  0  0  0  0  0  0
   49.4660   31.3690   43.4190 H   0  0  0  0  0  0  0  0  0  0  0  0
   46.3260   34.8000   41.8370 C   0  0  0  0  0  0  0  0  0  0  0  0
   47.4820   35.2920   41.6470 O   0  0  0  0  0  0  0  0  0  0  0  0
   45.6410   34.1040   40.7530 C   0  0  0  0  0  0  0  0  0  0  0  0
   46.2820   33.4180   39.7330 C   0  0  0  0  0  0  0  0  0  0  0  0
   47.3620   33.4190   39.7740 H   0  0  0  0  0  0  0  0  0  0  0  0
   45.5000   32.7950   38.7600 C   0  0  0  0  0  3  0  0  0  0  0  0
   44.1230   32.8610   38.8120 C   0  0  0  0  0  0  0  0  0  0  0  0
   43.4200   32.2450   37.8500 N   0  0  0  0  0  0  0  0  0  0  0  0
   42.0560   32.2690   37.8390 C   0  0  0  0  0  0  0  0  0  0  0  0
   41.5750   31.7450   37.0260 H   0  0  0  0  0  0  0  0  0  0  0  0
   41.3670   32.9490   38.8480 C   0  0  0  0  0  3  0  0  0  0  0  0
   42.1090   33.5890   39.8470 C   0  0  0  0  0  3  0  0  0  0  0  0
   43.4820   33.5390   39.8210 C   0  0  0  0  0  0  0  0  0  0  0  0
   44.2440   34.1590   40.7900 C   0  0  0  0  0  3  0  0  0  0  0  0
  1  6  1  0  0  0  0
  2  1  2  0  0  0  0
  2  3  1  0  0  0  0
  3  4  2  0  0  0  0
  4  5  1  0  0  0  0
  5  8  1  0  0  0  0
  6  5  2  0  0  0  0
  7  1  1  0  0  0  0
  9  3  1  0  0  0  0
 10  9  2  0  0  0  0
 11 10  1  0  0  0  0
 12 11  2  0  0  0  0
 12 13  1  0  0  0  0
 13 18  1  0  0  0  0
 13 14  2  0  0  0  0
 14  9  1  0  0  0  0
 15 10  1  0  0  0  0
 16 11  1  0  0  0  0
 17 12  1  0  0  0  0
 19  2  1  0  0  0  0
 20 19  2  0  0  0  0
 21 32  1  0  0  0  0
 21 19  1  0  0  0  0
 22 23  1  0  0  0  0
 22 21  2  0  0  0  0
 24 25  2  0  0  0  0
 24 22  1  0  0  0  0
 25 31  1  0  0  0  0
 26 25  1  0  0  0  0
 27 26  2  0  0  0  0
 27 29  1  0  0  0  0
 28 27  1  0  0  0  0
 29 30  2  0  0  0  0
 31 30  1  0  0  0  0
 31 32  2  0  0  0  0
M  END
>  <minimizedAffinity>
-5.19373989

>  <minimizedRMSD>
0.590119958

$$$$
