
 OpenBabel03242519103D

 50 54  0  0  1  0  0  0  0  0999 V2000
   49.1760   32.0900   36.9920 C   0  0  0  0  0  0  0  0  0  0  0  0
   48.3000   32.9060   37.7300 C   0  0  0  0  0  0  0  0  0  0  0  0
   47.0730   33.0420   37.1530 C   0  0  0  0  0  0  0  0  0  0  0  0
   46.6490   32.4790   35.9790 C   0  0  0  0  0  0  0  0  0  0  0  0
   47.5380   31.6870   35.2860 C   0  0  0  0  0  0  0  0  0  0  0  0
   48.7950   31.5030   35.8090 C   0  0  0  0  0  0  0  0  0  0  0  0
   46.3470   33.6660   37.6790 H   0  0  0  0  0  0  0  0  0  0  0  0
   45.6520   32.6410   35.5900 H   0  0  0  0  0  0  0  0  0  0  0  0
   47.2710   31.2130   34.3560 H   0  0  0  0  0  0  0  0  0  0  0  0
   50.2170   31.1570   33.8480 C   0  0  0  0  0  0  0  0  0  0  0  0
   49.9450   32.3260   33.4440 O   0  0  0  0  0  0  0  0  0  0  0  0
   49.7040   30.6740   35.0720 N   0  0  0  0  0  0  0  0  0  0  0  0
   49.9750   29.7440   35.4290 H   0  0  0  0  0  0  0  0  0  0  0  0
   51.0810   30.3600   32.9800 C   0  0  0  0  0  0  0  0  0  0  0  0
   50.5320   29.2910   32.3090 C   0  0  0  0  0  0  0  0  0  0  0  0
   49.4960   29.0030   32.3830 H   0  0  0  0  0  0  0  0  0  0  0  0
   51.3070   28.4910   31.4640 C   0  0  0  0  0  3  0  0  0  0  0  0
   52.6520   28.7690   31.2930 C   0  0  0  0  0  0  0  0  0  0  0  0
   53.3670   27.9750   30.4720 N   0  0  0  0  0  0  0  0  0  0  0  0
   54.6950   28.1930   30.2580 C   0  0  0  0  0  0  0  0  0  0  0  0
   55.2250   27.5320   29.5920 H   0  0  0  0  0  0  0  0  0  0  0  0
   55.2820   29.2570   30.9140 C   0  0  0  0  0  3  0  0  0  0  0  0
   54.5490   30.0880   31.7700 C   0  0  0  0  0  3  0  0  0  0  0  0
   53.1950   29.8460   31.9730 C   0  0  0  0  0  0  0  0  0  0  0  0
   52.4220   30.6350   32.8080 C   0  0  0  0  0  3  0  0  0  0  0  0
   48.6450   33.5250   38.9440 N   0  0  0  0  0  0  0  0  0  0  0  0
   49.4650   34.1610   38.7650 H   0  0  0  0  0  0  0  0  0  0  0  0
   47.5820   34.3830   42.2300 N   0  0  0  0  0  0  0  0  0  0  0  0
   47.6770   34.7630   40.8350 C   0  0  0  0  0  0  0  0  0  0  0  0
   48.1120   33.4400   40.2630 C   0  0  2  0  0  0  0  0  0  0  0  0
   49.2410   33.0530   41.1960 C   0  0  0  0  0  0  0  0  0  0  0  0
   48.7540   33.6090   42.5150 C   0  0  0  0  0  0  0  0  0  0  0  0
   46.7010   35.0970   40.4390 H   0  0  0  0  0  0  0  0  0  0  0  0
   48.4700   35.5100   40.6680 H   0  0  0  0  0  0  0  0  0  0  0  0
   47.2910   32.7040   40.3930 H   0  0  0  0  0  0  0  0  0  0  0  0
   50.1980   33.5600   40.9130 H   0  0  0  0  0  0  0  0  0  0  0  0
   49.3680   31.9610   41.2200 H   0  0  0  0  0  0  0  0  0  0  0  0
   49.5330   34.1950   43.0540 H   0  0  0  0  0  0  0  0  0  0  0  0
   48.4500   32.7460   43.1430 H   0  0  0  0  0  0  0  0  0  0  0  0
   44.7330   35.8850   44.1050 C   0  0  0  0  0  0  0  0  0  0  0  0
   45.6670   35.6950   43.0980 C   0  0  0  0  0  0  0  0  0  0  0  0
   46.6000   34.6570   43.1940 C   0  0  0  0  0  0  0  0  0  0  0  0
   46.5290   33.8740   44.3030 N   0  0  0  0  0  0  0  0  0  0  0  0
   45.6270   34.0560   45.2770 C   0  0  0  0  0  0  0  0  0  0  0  0
   44.7240   35.0720   45.1700 N   0  0  0  0  0  0  0  0  0  0  0  0
   44.0660   36.7180   43.9210 H   0  0  0  0  0  0  0  0  0  0  0  0
   45.7780   36.2730   42.2000 H   0  0  0  0  0  0  0  0  0  0  0  0
   45.5560   33.4490   46.1590 H   0  0  0  0  0  0  0  0  0  0  0  0
   51.5710   31.7200   37.9600 N   0  0  0  0  0  0  0  0  0  0  0  0
   50.5160   31.8860   37.5350 C   0  0  0  0  0  0  0  0  0  0  0  0
  1 50  1  0  0  0  0
  1  2  1  0  0  0  0
  2 26  1  0  0  0  0
  3  7  1  0  0  0  0
  3  2  2  0  0  0  0
  4  3  1  0  0  0  0
  5  6  1  0  0  0  0
  5  4  2  0  0  0  0
  6  1  2  0  0  0  0
  8  4  1  0  0  0  0
  9  5  1  0  0  0  0
 10 12  1  0  0  0  0
 11 10  2  0  0  0  0
 12 13  1  0  0  0  0
 12  6  1  0  0  0  0
 14 10  1  0  0  0  0
 15 16  1  0  0  0  0
 15 14  2  0  0  0  0
 17 15  1  0  0  0  0
 18 17  2  0  0  0  0
 18 24  1  0  0  0  0
 19 18  1  0  0  0  0
 20 19  2  0  0  0  0
 20 22  1  0  0  0  0
 21 20  1  0  0  0  0
 22 23  2  0  0  0  0
 23 24  1  0  0  0  0
 24 25  2  0  0  0  0
 25 14  1  0  0  0  0
 26 30  1  0  0  0  0
 27 26  1  0  0  0  0
 28 32  1  0  0  0  0
 28 42  1  0  0  0  0
 29 28  1  0  0  0  0
 30 35  1  1  0  0  0
 30 29  1  0  0  0  0
 30 31  1  0  0  0  0
 31 37  1  0  0  0  0
 31 32  1  0  0  0  0
 32 38  1  0  0  0  0
 32 39  1  0  0  0  0
 33 29  1  0  0  0  0
 34 29  1  0  0  0  0
 36 31  1  0  0  0  0
 40 45  1  0  0  0  0
 41 42  1  0  0  0  0
 41 40  2  0  0  0  0
 42 43  2  0  0  0  0
 43 44  1  0  0  0  0
 44 48  1  0  0  0  0
 45 44  2  0  0  0  0
 46 40  1  0  0  0  0
 47 41  1  0  0  0  0
 50 49  3  0  0  0  0
M  END
>  <minimizedAffinity>
-6.197896

>  <minimizedRMSD>
0.994997382

$$$$
