
 OpenBabel03252508503D

 31 34  0  0  0  0  0  0  0  0999 V2000
   45.7570   34.2580   41.0300 C   0  0  0  0  0  0  0  0  0  0  0  0
   46.4080   34.7460   42.1580 C   0  0  0  0  0  0  0  0  0  0  0  0
   47.7950   34.9250   42.0360 C   0  0  0  0  0  0  0  0  0  0  0  0
   48.4040   34.6200   40.8560 N   0  0  0  0  0  0  0  0  0  0  0  0
   47.7270   34.1560   39.8110 C   0  0  0  0  0  0  0  0  0  0  0  0
   46.3990   33.9710   39.8860 N   0  0  0  0  0  0  0  0  0  0  0  0
   48.3380   35.3030   42.8940 H   0  0  0  0  0  0  0  0  0  0  0  0
   48.1720   33.9040   38.8600 H   0  0  0  0  0  0  0  0  0  0  0  0
   45.6630   35.0370   43.3610 C   0  0  0  0  0  0  0  0  0  0  0  0
   45.1420   36.2960   43.6400 C   0  0  0  0  0  0  0  0  0  0  0  0
   44.5240   36.1200   44.8600 C   0  0  0  0  0  0  0  0  0  0  0  0
   44.6600   34.8390   45.2960 N   0  0  0  0  0  0  0  0  0  0  0  0
   45.3510   34.2140   44.3690 N   0  0  0  0  0  0  0  0  0  0  0  0
   45.1670   37.2380   43.0910 H   0  0  0  0  0  0  0  0  0  0  0  0
   43.9860   36.8730   45.4400 H   0  0  0  0  0  0  0  0  0  0  0  0
   44.2810   34.4430   46.1990 H   0  0  0  0  0  0  0  0  0  0  0  0
   44.3880   34.0640   41.1000 O   0  0  0  0  0  0  0  0  0  0  0  0
   43.4080   34.9400   40.7360 C   0  0  0  0  0  0  0  0  0  0  0  0
   43.3100   36.1750   41.0610 O   0  0  0  0  0  0  0  0  0  0  0  0
   42.2470   34.5840   39.8720 C   0  0  0  0  0  0  0  0  0  0  0  0
   41.8570   35.3600   38.8070 C   0  0  0  0  0  0  0  0  0  0  0  0
   42.3780   36.2680   38.5450 H   0  0  0  0  0  0  0  0  0  0  0  0
   40.7620   35.0130   38.0060 C   0  0  0  0  0  3  0  0  0  0  0  0
   40.0470   33.8690   38.2770 C   0  0  0  0  0  0  0  0  0  0  0  0
   38.9910   33.5070   37.5290 N   0  0  0  0  0  0  0  0  0  0  0  0
   38.3060   32.3750   37.8190 C   0  0  0  0  0  0  0  0  0  0  0  0
   37.4670   32.1570   37.1640 H   0  0  0  0  0  0  0  0  0  0  0  0
   38.6190   31.5180   38.8760 C   0  0  0  0  0  3  0  0  0  0  0  0
   39.7040   31.9010   39.6360 C   0  0  0  0  0  3  0  0  0  0  0  0
   40.3960   33.0550   39.3320 C   0  0  0  0  0  0  0  0  0  0  0  0
   41.4820   33.4700   40.0660 C   0  0  0  0  0  3  0  0  0  0  0  0
  1 17  1  0  0  0  0
  1  2  1  0  0  0  0
  2  9  1  0  0  0  0
  3  2  2  0  0  0  0
  3  7  1  0  0  0  0
  4  3  1  0  0  0  0
  5  6  1  0  0  0  0
  5  4  2  0  0  0  0
  6  1  2  0  0  0  0
  8  5  1  0  0  0  0
  9 10  1  0  0  0  0
  9 13  2  0  0  0  0
 10 11  2  0  0  0  0
 11 12  1  0  0  0  0
 11 15  1  0  0  0  0
 12 16  1  0  0  0  0
 13 12  1  0  0  0  0
 14 10  1  0  0  0  0
 18 19  2  0  0  0  0
 18 17  1  0  0  0  0
 20 31  1  0  0  0  0
 20 18  1  0  0  0  0
 21 20  2  0  0  0  0
 22 21  1  0  0  0  0
 23 24  2  0  0  0  0
 23 21  1  0  0  0  0
 24 30  1  0  0  0  0
 25 26  2  0  0  0  0
 25 24  1  0  0  0  0
 26 28  1  0  0  0  0
 27 26  1  0  0  0  0
 28 29  2  0  0  0  0
 30 29  1  0  0  0  0
 30 31  2  0  0  0  0
M  END
>  <minimizedAffinity>
-6.27428246

>  <minimizedRMSD>
1.75636387

$$$$
