
 OpenBabel03252507173D

 32 35  0  0  0  0  0  0  0  0999 V2000
   45.2100   36.1940   43.4480 C   0  0  0  0  0  0  0  0  0  0  0  0
   45.8320   34.9850   43.0830 C   0  0  0  0  0  0  0  0  0  0  0  0
   45.8100   33.9660   44.0340 C   0  0  0  0  0  0  0  0  0  0  0  0
   45.2170   34.1690   45.2160 N   0  0  0  0  0  0  0  0  0  0  0  0
   44.6210   35.3510   45.5460 C   0  0  0  0  0  0  0  0  0  0  0  0
   44.6350   36.3310   44.6480 N   0  0  0  0  0  0  0  0  0  0  0  0
   45.1880   37.0360   42.7570 H   0  0  0  0  0  0  0  0  0  0  0  0
   44.1990   35.3210   46.5430 H   0  0  0  0  0  0  0  0  0  0  0  0
   46.4480   32.6880   43.6900 C   0  0  0  0  0  0  0  0  0  0  0  0
   45.6650   31.6040   43.3720 C   0  0  0  0  0  0  0  0  0  0  0  0
   46.3200   30.4280   43.0570 C   0  0  0  0  0  0  0  0  0  0  0  0
   47.6940   30.2670   43.0390 C   0  0  0  0  0  0  0  0  0  0  0  0
   48.4100   31.4140   43.3720 C   0  0  0  0  0  0  0  0  0  0  0  0
   47.7770   32.5590   43.6800 N   0  0  0  0  0  0  0  0  0  0  0  0
   44.5820   31.6430   43.3620 H   0  0  0  0  0  0  0  0  0  0  0  0
   45.7370   29.5420   42.8000 H   0  0  0  0  0  0  0  0  0  0  0  0
   48.1740   29.3490   42.7920 H   0  0  0  0  0  0  0  0  0  0  0  0
   49.4910   31.3790   43.3830 H   0  0  0  0  0  0  0  0  0  0  0  0
   46.4470   34.8230   41.8110 C   0  0  0  0  0  0  0  0  0  0  0  0
   47.5780   35.3790   41.6430 O   0  0  0  0  0  0  0  0  0  0  0  0
   45.8390   34.0610   40.7260 C   0  0  0  0  0  0  0  0  0  0  0  0
   46.5500   33.3240   39.7900 C   0  0  0  0  0  0  0  0  0  0  0  0
   47.6240   33.3370   39.9010 H   0  0  0  0  0  0  0  0  0  0  0  0
   45.8360   32.6420   38.8040 C   0  0  0  0  0  3  0  0  0  0  0  0
   44.4590   32.7010   38.7620 C   0  0  0  0  0  0  0  0  0  0  0  0
   43.8230   32.0250   37.7910 N   0  0  0  0  0  0  0  0  0  0  0  0
   42.4620   32.0370   37.6900 C   0  0  0  0  0  0  0  0  0  0  0  0
   42.0390   31.4640   36.8770 H   0  0  0  0  0  0  0  0  0  0  0  0
   41.7060   32.7670   38.6110 C   0  0  0  0  0  3  0  0  0  0  0  0
   42.3770   33.4680   39.6200 C   0  0  0  0  0  3  0  0  0  0  0  0
   43.7480   33.4280   39.6860 C   0  0  0  0  0  0  0  0  0  0  0  0
   44.4420   34.1080   40.6660 C   0  0  0  0  0  3  0  0  0  0  0  0
  1  6  1  0  0  0  0
  2  1  2  0  0  0  0
  2  3  1  0  0  0  0
  3  4  2  0  0  0  0
  4  5  1  0  0  0  0
  5  8  1  0  0  0  0
  6  5  2  0  0  0  0
  7  1  1  0  0  0  0
  9  3  1  0  0  0  0
 10  9  2  0  0  0  0
 11 10  1  0  0  0  0
 12 11  2  0  0  0  0
 12 13  1  0  0  0  0
 13 18  1  0  0  0  0
 13 14  2  0  0  0  0
 14  9  1  0  0  0  0
 15 10  1  0  0  0  0
 16 11  1  0  0  0  0
 17 12  1  0  0  0  0
 19  2  1  0  0  0  0
 20 19  2  0  0  0  0
 21 19  1  0  0  0  0
 22 23  1  0  0  0  0
 22 21  2  0  0  0  0
 24 22  1  0  0  0  0
 25 24  2  0  0  0  0
 25 31  1  0  0  0  0
 26 25  1  0  0  0  0
 27 26  2  0  0  0  0
 27 29  1  0  0  0  0
 28 27  1  0  0  0  0
 29 30  2  0  0  0  0
 30 31  1  0  0  0  0
 31 32  2  0  0  0  0
 32 21  1  0  0  0  0
M  END
>  <minimizedAffinity>
-5.10695982

>  <minimizedRMSD>
0.346045703

$$$$
