
 OpenBabel03242519103D

 50 54  0  0  1  0  0  0  0  0999 V2000
   49.2280   32.0880   37.0220 C   0  0  0  0  0  0  0  0  0  0  0  0
   48.3500   32.9010   37.7610 C   0  0  0  0  0  0  0  0  0  0  0  0
   47.1260   33.0430   37.1780 C   0  0  0  0  0  0  0  0  0  0  0  0
   46.7090   32.4890   35.9970 C   0  0  0  0  0  0  0  0  0  0  0  0
   47.6000   31.6990   35.3050 C   0  0  0  0  0  0  0  0  0  0  0  0
   48.8540   31.5100   35.8330 C   0  0  0  0  0  0  0  0  0  0  0  0
   46.3990   33.6640   37.7040 H   0  0  0  0  0  0  0  0  0  0  0  0
   45.7140   32.6550   35.6040 H   0  0  0  0  0  0  0  0  0  0  0  0
   47.3370   31.2320   34.3700 H   0  0  0  0  0  0  0  0  0  0  0  0
   50.2480   31.1540   33.8540 C   0  0  0  0  0  0  0  0  0  0  0  0
   49.9470   32.3100   33.4340 O   0  0  0  0  0  0  0  0  0  0  0  0
   49.7650   30.6850   35.0960 N   0  0  0  0  0  0  0  0  0  0  0  0
   50.0590   29.7670   35.4650 H   0  0  0  0  0  0  0  0  0  0  0  0
   51.1120   30.3570   32.9860 C   0  0  0  0  0  0  0  0  0  0  0  0
   50.5660   29.2850   32.3190 C   0  0  0  0  0  0  0  0  0  0  0  0
   49.5310   28.9930   32.3950 H   0  0  0  0  0  0  0  0  0  0  0  0
   51.3420   28.4850   31.4740 C   0  0  0  0  0  3  0  0  0  0  0  0
   52.6860   28.7680   31.3000 C   0  0  0  0  0  0  0  0  0  0  0  0
   53.4000   27.9760   30.4790 N   0  0  0  0  0  0  0  0  0  0  0  0
   54.7280   28.1970   30.2620 C   0  0  0  0  0  0  0  0  0  0  0  0
   55.2590   27.5350   29.5970 H   0  0  0  0  0  0  0  0  0  0  0  0
   55.3130   29.2630   30.9150 C   0  0  0  0  0  3  0  0  0  0  0  0
   54.5800   30.0940   31.7700 C   0  0  0  0  0  3  0  0  0  0  0  0
   53.2250   29.8480   31.9770 C   0  0  0  0  0  0  0  0  0  0  0  0
   52.4520   30.6360   32.8100 C   0  0  0  0  0  3  0  0  0  0  0  0
   48.6890   33.5120   38.9810 N   0  0  0  0  0  0  0  0  0  0  0  0
   49.4840   34.1780   38.8030 H   0  0  0  0  0  0  0  0  0  0  0  0
   47.6550   34.2740   42.2990 N   0  0  0  0  0  0  0  0  0  0  0  0
   47.7230   34.6860   40.9120 C   0  0  0  0  0  0  0  0  0  0  0  0
   48.1770   33.3860   40.3050 C   0  0  2  0  0  0  0  0  0  0  0  0
   49.3270   33.0020   41.2130 C   0  0  0  0  0  0  0  0  0  0  0  0
   48.8470   33.5180   42.5510 C   0  0  0  0  0  0  0  0  0  0  0  0
   46.7340   35.0080   40.5370 H   0  0  0  0  0  0  0  0  0  0  0  0
   48.4970   35.4540   40.7510 H   0  0  0  0  0  0  0  0  0  0  0  0
   47.3740   32.6300   40.4290 H   0  0  0  0  0  0  0  0  0  0  0  0
   50.2690   33.5360   40.9280 H   0  0  0  0  0  0  0  0  0  0  0  0
   49.4770   31.9130   41.2110 H   0  0  0  0  0  0  0  0  0  0  0  0
   49.6210   34.1090   43.0920 H   0  0  0  0  0  0  0  0  0  0  0  0
   48.5700   32.6360   43.1640 H   0  0  0  0  0  0  0  0  0  0  0  0
   44.7670   35.6360   44.2200 C   0  0  0  0  0  0  0  0  0  0  0  0
   45.6870   35.4860   43.1930 C   0  0  0  0  0  0  0  0  0  0  0  0
   46.6810   34.5050   43.2820 C   0  0  0  0  0  0  0  0  0  0  0  0
   46.6820   33.7380   44.4040 N   0  0  0  0  0  0  0  0  0  0  0  0
   45.7940   33.8830   45.3970 C   0  0  0  0  0  0  0  0  0  0  0  0
   44.8310   34.8420   45.2970 N   0  0  0  0  0  0  0  0  0  0  0  0
   44.0480   36.4260   44.0400 H   0  0  0  0  0  0  0  0  0  0  0  0
   45.7430   36.0540   42.2840 H   0  0  0  0  0  0  0  0  0  0  0  0
   45.7800   33.2870   46.2890 H   0  0  0  0  0  0  0  0  0  0  0  0
   51.6180   31.7080   38.0010 N   0  0  0  0  0  0  0  0  0  0  0  0
   50.5650   31.8780   37.5710 C   0  0  0  0  0  0  0  0  0  0  0  0
  1 50  1  0  0  0  0
  1  2  1  0  0  0  0
  2 26  1  0  0  0  0
  3  7  1  0  0  0  0
  3  2  2  0  0  0  0
  4  3  1  0  0  0  0
  5  6  1  0  0  0  0
  5  4  2  0  0  0  0
  6  1  2  0  0  0  0
  8  4  1  0  0  0  0
  9  5  1  0  0  0  0
 10 12  1  0  0  0  0
 11 10  2  0  0  0  0
 12 13  1  0  0  0  0
 12  6  1  0  0  0  0
 14 10  1  0  0  0  0
 15 16  1  0  0  0  0
 15 14  2  0  0  0  0
 17 15  1  0  0  0  0
 18 17  2  0  0  0  0
 18 24  1  0  0  0  0
 19 18  1  0  0  0  0
 20 19  2  0  0  0  0
 20 22  1  0  0  0  0
 21 20  1  0  0  0  0
 22 23  2  0  0  0  0
 23 24  1  0  0  0  0
 24 25  2  0  0  0  0
 25 14  1  0  0  0  0
 26 30  1  0  0  0  0
 27 26  1  0  0  0  0
 28 32  1  0  0  0  0
 28 42  1  0  0  0  0
 29 28  1  0  0  0  0
 30 35  1  1  0  0  0
 30 29  1  0  0  0  0
 30 31  1  0  0  0  0
 31 32  1  0  0  0  0
 32 38  1  0  0  0  0
 32 39  1  0  0  0  0
 33 29  1  0  0  0  0
 34 29  1  0  0  0  0
 36 31  1  0  0  0  0
 37 31  1  0  0  0  0
 40 45  1  0  0  0  0
 41 42  1  0  0  0  0
 41 40  2  0  0  0  0
 42 43  2  0  0  0  0
 43 44  1  0  0  0  0
 44 48  1  0  0  0  0
 45 44  2  0  0  0  0
 46 40  1  0  0  0  0
 47 41  1  0  0  0  0
 50 49  3  0  0  0  0
M  END
>  <minimizedAffinity>
-6.2031908

>  <minimizedRMSD>
1.39202845

$$$$
