
 OpenBabel03252503333D

 44 47  0  0  1  0  0  0  0  0999 V2000
   39.3870   27.3690   41.0840 C   0  0  0  0  0  0  0  0  0  0  0  0
   38.3000   26.4660   40.9010 C   0  0  0  0  0  0  0  0  0  0  0  0
   38.3070   25.3170   41.7170 C   0  0  0  0  0  0  0  0  0  0  0  0
   39.3150   25.1610   42.5840 N   0  0  0  0  0  0  0  0  0  0  0  0
   40.3290   26.0500   42.7210 C   0  0  0  0  0  0  0  0  0  0  0  0
   40.3550   27.1620   41.9570 N   0  0  0  0  0  0  0  0  0  0  0  0
   38.5320   29.5250   40.7420 C   0  0  0  0  0  0  0  0  0  0  0  0
   37.7520   29.2340   41.7120 O   0  0  0  0  0  0  0  0  0  0  0  0
   39.4590   28.5640   40.2940 N   0  0  0  0  0  0  0  0  0  0  0  0
   38.4050   30.8190   40.1770 N   0  0  0  0  0  0  0  0  0  0  0  0
   37.2030   31.6250   40.4630 C   0  0  0  0  0  0  0  0  0  0  0  0
   37.0540   32.4310   39.2100 C   0  0  0  0  0  0  0  0  0  0  0  0
   38.2390   32.0930   38.3530 C   0  0  0  0  0  0  0  0  0  0  0  0
   39.2710   31.5910   39.3330 C   0  0  1  0  0  0  0  0  0  0  0  0
   37.5260   26.6880   40.1630 H   0  0  0  0  0  0  0  0  0  0  0  0
   41.1130   25.8470   43.4540 H   0  0  0  0  0  0  0  0  0  0  0  0
   40.0750   28.7980   39.4760 H   0  0  0  0  0  0  0  0  0  0  0  0
   36.3290   30.9790   40.5570 H   0  0  0  0  0  0  0  0  0  0  0  0
   37.3670   32.2480   41.3750 H   0  0  0  0  0  0  0  0  0  0  0  0
   37.0430   33.5320   39.4210 H   0  0  0  0  0  0  0  0  0  0  0  0
   36.0680   32.2300   38.7010 H   0  0  0  0  0  0  0  0  0  0  0  0
   37.9020   31.0940   37.8980 H   0  0  0  0  0  0  0  0  0  0  0  0
   38.4670   32.6600   37.5120 H   0  0  0  0  0  0  0  0  0  0  0  0
   40.0060   31.0940   38.7150 H   0  0  0  0  0  0  0  0  0  0  0  0
   41.2680   33.1140   39.8850 C   0  0  0  0  0  0  0  0  0  0  0  0
   41.6750   32.7240   38.7700 O   0  0  0  0  0  0  0  0  0  0  0  0
   39.9230   32.6250   40.1240 N   0  0  0  0  0  0  0  0  0  0  0  0
   39.3830   33.0580   40.9360 H   0  0  0  0  0  0  0  0  0  0  0  0
   42.0120   33.9250   40.7960 C   0  0  0  0  0  0  0  0  0  0  0  0
   41.6470   35.2510   40.8550 C   0  0  0  0  0  0  0  0  0  0  0  0
   40.8640   35.6930   40.2760 H   0  0  0  0  0  0  0  0  0  0  0  0
   42.3390   36.0940   41.7270 C   0  0  0  0  0  3  0  0  0  0  0  0
   43.3560   35.5560   42.4900 C   0  0  0  0  0  0  0  0  0  0  0  0
   43.9910   36.4110   43.3140 N   0  0  0  0  0  0  0  0  0  0  0  0
   45.0000   35.9400   44.0890 C   0  0  0  0  0  0  0  0  0  0  0  0
   45.5660   36.5540   44.7800 H   0  0  0  0  0  0  0  0  0  0  0  0
   45.3790   34.6070   44.0400 C   0  0  0  0  0  3  0  0  0  0  0  0
   44.7360   33.7250   43.2010 C   0  0  0  0  0  3  0  0  0  0  0  0
   43.7070   34.2230   42.4160 C   0  0  0  0  0  0  0  0  0  0  0  0
   43.0280   33.3860   41.5570 C   0  0  0  0  0  3  0  0  0  0  0  0
   37.1810   24.4100   41.5070 C   0  0  0  0  0  0  0  0  0  0  0  0
   36.4570   24.8400   40.4040 F   0  0  0  0  0  0  0  0  0  0  0  0
   36.3170   24.5790   42.6060 F   0  0  0  0  0  0  0  0  0  0  0  0
   37.5420   23.1090   41.3160 F   0  0  0  0  0  0  0  0  0  0  0  0
  1  6  1  0  0  0  0
  2  1  2  0  0  0  0
  2  3  1  0  0  0  0
  3  4  2  0  0  0  0
  4  5  1  0  0  0  0
  5 16  1  0  0  0  0
  6  5  2  0  0  0  0
  7  8  2  0  0  0  0
  9  7  1  0  0  0  0
  9  1  1  0  0  0  0
 10 11  1  0  0  0  0
 10  7  1  0  0  0  0
 11 18  1  0  0  0  0
 11 19  1  0  0  0  0
 12 20  1  0  0  0  0
 12 11  1  0  0  0  0
 13 12  1  0  0  0  0
 13 14  1  0  0  0  0
 14 24  1  6  0  0  0
 14 27  1  0  0  0  0
 14 10  1  0  0  0  0
 15  2  1  0  0  0  0
 17  9  1  0  0  0  0
 21 12  1  0  0  0  0
 22 13  1  0  0  0  0
 23 13  1  0  0  0  0
 25 27  1  0  0  0  0
 25 29  1  0  0  0  0
 26 25  2  0  0  0  0
 27 28  1  0  0  0  0
 29 30  2  0  0  0  0
 29 40  1  0  0  0  0
 30 32  1  0  0  0  0
 31 30  1  0  0  0  0
 32 33  2  0  0  0  0
 33 34  1  0  0  0  0
 34 35  2  0  0  0  0
 35 36  1  0  0  0  0
 37 35  1  0  0  0  0
 38 37  2  0  0  0  0
 39 33  1  0  0  0  0
 39 38  1  0  0  0  0
 40 39  2  0  0  0  0
 41  3  1  0  0  0  0
 41 43  1  0  0  0  0
 42 41  1  0  0  0  0
 44 41  1  0  0  0  0
M  END
>  <minimizedAffinity>
-7.3491869

$$$$

 OpenBabel03252503333D

 44 47  0  0  1  0  0  0  0  0999 V2000
   40.3260   30.6670   39.6470 C   0  0  0  0  0  0  0  0  0  0  0  0
   40.4580   31.9970   40.1420 C   0  0  0  0  0  0  0  0  0  0  0  0
   40.6550   33.0000   39.1720 C   0  0  0  0  0  0  0  0  0  0  0  0
   40.7040   32.6360   37.8840 N   0  0  0  0  0  0  0  0  0  0  0  0
   40.5730   31.3550   37.4630 C   0  0  0  0  0  0  0  0  0  0  0  0
   40.3830   30.3680   38.3630 N   0  0  0  0  0  0  0  0  0  0  0  0
   38.8040   29.5760   41.0590 C   0  0  0  0  0  0  0  0  0  0  0  0
   37.9960   30.4950   40.6910 O   0  0  0  0  0  0  0  0  0  0  0  0
   40.1240   29.5850   40.5660 N   0  0  0  0  0  0  0  0  0  0  0  0
   38.3040   28.5960   41.9530 N   0  0  0  0  0  0  0  0  0  0  0  0
   37.0450   28.8470   42.6810 C   0  0  0  0  0  0  0  0  0  0  0  0
   37.2610   28.0970   43.9580 C   0  0  0  0  0  0  0  0  0  0  0  0
   38.5810   27.3980   43.8150 C   0  0  0  0  0  0  0  0  0  0  0  0
   38.7830   27.2950   42.3220 C   0  0  1  0  0  0  0  0  0  0  0  0
   40.4030   32.1870   41.2160 H   0  0  0  0  0  0  0  0  0  0  0  0
   40.6250   31.1440   36.3930 H   0  0  0  0  0  0  0  0  0  0  0  0
   40.7920   28.8440   40.8970 H   0  0  0  0  0  0  0  0  0  0  0  0
   36.9530   29.9070   42.9200 H   0  0  0  0  0  0  0  0  0  0  0  0
   36.1780   28.4710   42.0850 H   0  0  0  0  0  0  0  0  0  0  0  0
   36.4520   27.3420   44.1410 H   0  0  0  0  0  0  0  0  0  0  0  0
   37.2170   28.7810   44.8540 H   0  0  0  0  0  0  0  0  0  0  0  0
   39.3080   28.2550   44.0500 H   0  0  0  0  0  0  0  0  0  0  0  0
   38.8700   26.6620   44.4900 H   0  0  0  0  0  0  0  0  0  0  0  0
   39.8310   27.0540   42.2120 H   0  0  0  0  0  0  0  0  0  0  0  0
   38.2730   24.8560   41.6880 C   0  0  0  0  0  0  0  0  0  0  0  0
   39.1360   24.6120   42.5570 O   0  0  0  0  0  0  0  0  0  0  0  0
   37.9790   26.2770   41.6620 N   0  0  0  0  0  0  0  0  0  0  0  0
   37.1150   26.5870   41.1190 H   0  0  0  0  0  0  0  0  0  0  0  0
   37.6590   23.8830   40.8410 C   0  0  0  0  0  0  0  0  0  0  0  0
   38.4640   22.8390   40.4450 C   0  0  0  0  0  0  0  0  0  0  0  0
   39.4890   22.7190   40.7270 H   0  0  0  0  0  0  0  0  0  0  0  0
   37.9200   21.8560   39.6160 C   0  0  0  0  0  3  0  0  0  0  0  0
   36.5990   21.9790   39.2330 C   0  0  0  0  0  0  0  0  0  0  0  0
   36.1240   21.0050   38.4320 N   0  0  0  0  0  0  0  0  0  0  0  0
   34.8330   21.0710   38.0240 C   0  0  0  0  0  0  0  0  0  0  0  0
   34.3660   20.3350   37.3800 H   0  0  0  0  0  0  0  0  0  0  0  0
   34.0100   22.1180   38.4140 C   0  0  0  0  0  3  0  0  0  0  0  0
   34.4870   23.1170   39.2310 C   0  0  0  0  0  3  0  0  0  0  0  0
   35.8080   23.0340   39.6400 C   0  0  0  0  0  0  0  0  0  0  0  0
   36.3400   24.0080   40.4590 C   0  0  0  0  0  3  0  0  0  0  0  0
   40.7870   34.3530   39.7080 C   0  0  0  0  0  0  0  0  0  0  0  0
   39.5270   34.9270   39.7920 F   0  0  0  0  0  0  0  0  0  0  0  0
   41.4730   35.1070   38.7370 F   0  0  0  0  0  0  0  0  0  0  0  0
   41.3800   34.4100   40.9350 F   0  0  0  0  0  0  0  0  0  0  0  0
  1  2  1  0  0  0  0
  1  9  1  0  0  0  0
  2 15  1  0  0  0  0
  3 41  1  0  0  0  0
  3  2  2  0  0  0  0
  4  3  1  0  0  0  0
  5  4  2  0  0  0  0
  5  6  1  0  0  0  0
  6  1  2  0  0  0  0
  7 10  1  0  0  0  0
  8  7  2  0  0  0  0
  9 17  1  0  0  0  0
  9  7  1  0  0  0  0
 10 14  1  0  0  0  0
 10 11  1  0  0  0  0
 11 18  1  0  0  0  0
 11 12  1  0  0  0  0
 12 20  1  0  0  0  0
 12 21  1  0  0  0  0
 13 12  1  0  0  0  0
 13 22  1  0  0  0  0
 13 23  1  0  0  0  0
 14 24  1  6  0  0  0
 14 13  1  0  0  0  0
 16  5  1  0  0  0  0
 19 11  1  0  0  0  0
 25 26  2  0  0  0  0
 27 25  1  0  0  0  0
 27 14  1  0  0  0  0
 28 27  1  0  0  0  0
 29 25  1  0  0  0  0
 30 31  1  0  0  0  0
 30 29  2  0  0  0  0
 32 30  1  0  0  0  0
 33 32  2  0  0  0  0
 33 39  1  0  0  0  0
 34 33  1  0  0  0  0
 35 37  1  0  0  0  0
 35 34  2  0  0  0  0
 36 35  1  0  0  0  0
 37 38  2  0  0  0  0
 38 39  1  0  0  0  0
 39 40  2  0  0  0  0
 40 29  1  0  0  0  0
 41 42  1  0  0  0  0
 41 44  1  0  0  0  0
 43 41  1  0  0  0  0
M  END
>  <minimizedAffinity>
-6.91757917

$$$$

 OpenBabel03252503333D

 44 47  0  0  1  0  0  0  0  0999 V2000
   39.9770   31.2240   40.7070 C   0  0  0  0  0  0  0  0  0  0  0  0
   39.3330   32.4820   40.8900 C   0  0  0  0  0  0  0  0  0  0  0  0
   39.6210   33.4700   39.9270 C   0  0  0  0  0  0  0  0  0  0  0  0
   40.4630   33.1590   38.9320 N   0  0  0  0  0  0  0  0  0  0  0  0
   41.0520   31.9450   38.8010 C   0  0  0  0  0  0  0  0  0  0  0  0
   40.7980   30.9750   39.7050 N   0  0  0  0  0  0  0  0  0  0  0  0
   38.4700   29.5880   41.4470 C   0  0  0  0  0  0  0  0  0  0  0  0
   37.7010   30.0670   40.5460 O   0  0  0  0  0  0  0  0  0  0  0  0
   39.7400   30.1630   41.6420 N   0  0  0  0  0  0  0  0  0  0  0  0
   37.9790   28.4900   42.1990 N   0  0  0  0  0  0  0  0  0  0  0  0
   36.5370   28.1750   42.1730 C   0  0  0  0  0  0  0  0  0  0  0  0
   36.3140   27.5960   43.5350 C   0  0  0  0  0  0  0  0  0  0  0  0
   37.6630   27.5340   44.1900 C   0  0  0  0  0  0  0  0  0  0  0  0
   38.6330   27.5240   43.0330 C   0  0  1  0  0  0  0  0  0  0  0  0
   38.6620   32.6330   41.7390 H   0  0  0  0  0  0  0  0  0  0  0  0
   41.7250   31.7750   37.9590 H   0  0  0  0  0  0  0  0  0  0  0  0
   40.3550   29.7850   42.4060 H   0  0  0  0  0  0  0  0  0  0  0  0
   35.9520   29.0930   42.0940 H   0  0  0  0  0  0  0  0  0  0  0  0
   36.3160   27.4610   41.3440 H   0  0  0  0  0  0  0  0  0  0  0  0
   35.8720   26.5660   43.4830 H   0  0  0  0  0  0  0  0  0  0  0  0
   35.5630   28.1960   44.1250 H   0  0  0  0  0  0  0  0  0  0  0  0
   37.7870   28.6210   44.5370 H   0  0  0  0  0  0  0  0  0  0  0  0
   37.8050   26.9970   45.0680 H   0  0  0  0  0  0  0  0  0  0  0  0
   39.5870   27.7590   43.4840 H   0  0  0  0  0  0  0  0  0  0  0  0
   39.6860   25.9810   41.2660 C   0  0  0  0  0  0  0  0  0  0  0  0
   40.5650   26.8690   41.2390 O   0  0  0  0  0  0  0  0  0  0  0  0
   38.7310   26.2570   42.3230 N   0  0  0  0  0  0  0  0  0  0  0  0
   38.0590   25.4740   42.5900 H   0  0  0  0  0  0  0  0  0  0  0  0
   39.6250   24.8550   40.3880 C   0  0  0  0  0  0  0  0  0  0  0  0
   40.4390   24.9150   39.2790 C   0  0  0  0  0  0  0  0  0  0  0  0
   41.0920   25.7300   39.0460 H   0  0  0  0  0  0  0  0  0  0  0  0
   40.4230   23.8430   38.3840 C   0  0  0  0  0  3  0  0  0  0  0  0
   39.5920   22.7740   38.6550 C   0  0  0  0  0  0  0  0  0  0  0  0
   39.6140   21.7690   37.7600 N   0  0  0  0  0  0  0  0  0  0  0  0
   38.8190   20.6910   37.9730 C   0  0  0  0  0  0  0  0  0  0  0  0
   38.7710   19.8360   37.3080 H   0  0  0  0  0  0  0  0  0  0  0  0
   37.9940   20.6170   39.0860 C   0  0  0  0  0  3  0  0  0  0  0  0
   37.9640   21.6400   40.0050 C   0  0  0  0  0  3  0  0  0  0  0  0
   38.7840   22.7340   39.7730 C   0  0  0  0  0  0  0  0  0  0  0  0
   38.7950   23.7890   40.6610 C   0  0  0  0  0  3  0  0  0  0  0  0
   38.9480   34.7480   40.1390 C   0  0  0  0  0  0  0  0  0  0  0  0
   38.8020   34.9580   41.5040 F   0  0  0  0  0  0  0  0  0  0  0  0
   37.6370   34.6010   39.6470 F   0  0  0  0  0  0  0  0  0  0  0  0
   39.5980   35.8170   39.5970 F   0  0  0  0  0  0  0  0  0  0  0  0
  1  2  1  0  0  0  0
  1  9  1  0  0  0  0
  2 15  1  0  0  0  0
  3 41  1  0  0  0  0
  3  2  2  0  0  0  0
  4  3  1  0  0  0  0
  5  4  2  0  0  0  0
  5  6  1  0  0  0  0
  6  1  2  0  0  0  0
  7  9  1  0  0  0  0
  7 10  1  0  0  0  0
  8  7  2  0  0  0  0
  9 17  1  0  0  0  0
 10 14  1  0  0  0  0
 11 10  1  0  0  0  0
 11 12  1  0  0  0  0
 12 21  1  0  0  0  0
 12 13  1  0  0  0  0
 13 22  1  0  0  0  0
 13 23  1  0  0  0  0
 14 24  1  1  0  0  0
 14 13  1  0  0  0  0
 16  5  1  0  0  0  0
 18 11  1  0  0  0  0
 19 11  1  0  0  0  0
 20 12  1  0  0  0  0
 25 27  1  0  0  0  0
 26 25  2  0  0  0  0
 27 28  1  0  0  0  0
 27 14  1  0  0  0  0
 29 40  1  0  0  0  0
 29 25  1  0  0  0  0
 30 29  2  0  0  0  0
 31 30  1  0  0  0  0
 32 33  2  0  0  0  0
 32 30  1  0  0  0  0
 33 39  1  0  0  0  0
 34 35  2  0  0  0  0
 34 33  1  0  0  0  0
 35 37  1  0  0  0  0
 36 35  1  0  0  0  0
 37 38  2  0  0  0  0
 39 38  1  0  0  0  0
 39 40  2  0  0  0  0
 41 42  1  0  0  0  0
 43 41  1  0  0  0  0
 44 41  1  0  0  0  0
M  END
>  <minimizedAffinity>
-6.76643133

$$$$

 OpenBabel03252503333D

 44 47  0  0  1  0  0  0  0  0999 V2000
   42.3510   32.0960   42.2590 C   0  0  0  0  0  0  0  0  0  0  0  0
   42.9450   33.3310   41.8680 C   0  0  0  0  0  0  0  0  0  0  0  0
   44.3370   33.4370   42.0650 C   0  0  0  0  0  0  0  0  0  0  0  0
   44.9840   32.3910   42.5930 N   0  0  0  0  0  0  0  0  0  0  0  0
   44.3730   31.2350   42.9500 C   0  0  0  0  0  0  0  0  0  0  0  0
   43.0420   31.0980   42.7760 N   0  0  0  0  0  0  0  0  0  0  0  0
   40.6110   31.6820   40.7440 C   0  0  0  0  0  0  0  0  0  0  0  0
   41.5360   31.7150   39.8640 O   0  0  0  0  0  0  0  0  0  0  0  0
   40.9400   31.9040   42.0950 N   0  0  0  0  0  0  0  0  0  0  0  0
   39.2940   31.4210   40.2880 N   0  0  0  0  0  0  0  0  0  0  0  0
   38.9820   31.5430   38.8510 C   0  0  0  0  0  0  0  0  0  0  0  0
   37.5470   31.9670   38.8710 C   0  0  0  0  0  0  0  0  0  0  0  0
   37.1270   31.9550   40.3120 C   0  0  0  0  0  0  0  0  0  0  0  0
   38.1020   31.0080   40.9710 C   0  0  1  0  0  0  0  0  0  0  0  0
   42.3250   34.1250   41.4450 H   0  0  0  0  0  0  0  0  0  0  0  0
   44.9760   30.4300   43.3740 H   0  0  0  0  0  0  0  0  0  0  0  0
   40.1690   31.9080   42.8100 H   0  0  0  0  0  0  0  0  0  0  0  0
   39.5680   32.3480   38.4050 H   0  0  0  0  0  0  0  0  0  0  0  0
   39.1500   30.5650   38.3380 H   0  0  0  0  0  0  0  0  0  0  0  0
   36.8970   31.2680   38.2830 H   0  0  0  0  0  0  0  0  0  0  0  0
   37.4020   32.9700   38.3760 H   0  0  0  0  0  0  0  0  0  0  0  0
   37.5580   32.9560   40.6730 H   0  0  0  0  0  0  0  0  0  0  0  0
   36.1250   32.0300   40.5750 H   0  0  0  0  0  0  0  0  0  0  0  0
   37.9900   31.2040   42.0270 H   0  0  0  0  0  0  0  0  0  0  0  0
   37.7260   28.5840   41.7420 C   0  0  0  0  0  0  0  0  0  0  0  0
   37.5860   29.1260   42.8600 O   0  0  0  0  0  0  0  0  0  0  0  0
   37.8580   29.5960   40.7110 N   0  0  0  0  0  0  0  0  0  0  0  0
   37.7700   29.2750   39.6980 H   0  0  0  0  0  0  0  0  0  0  0  0
   37.7510   27.1750   41.5070 C   0  0  0  0  0  0  0  0  0  0  0  0
   37.0340   26.4060   42.3950 C   0  0  0  0  0  0  0  0  0  0  0  0
   36.4770   26.7910   43.2230 H   0  0  0  0  0  0  0  0  0  0  0  0
   37.0210   25.0210   42.2170 C   0  0  0  0  0  3  0  0  0  0  0  0
   37.7290   24.4890   41.1570 C   0  0  0  0  0  0  0  0  0  0  0  0
   37.6840   23.1500   41.0310 N   0  0  0  0  0  0  0  0  0  0  0  0
   38.3600   22.5700   40.0080 C   0  0  0  0  0  0  0  0  0  0  0  0
   38.3810   21.5010   39.8280 H   0  0  0  0  0  0  0  0  0  0  0  0
   39.0870   23.3320   39.1060 C   0  0  0  0  0  3  0  0  0  0  0  0
   39.1390   24.7020   39.2270 C   0  0  0  0  0  3  0  0  0  0  0  0
   38.4420   25.2780   40.2780 C   0  0  0  0  0  0  0  0  0  0  0  0
   38.4590   26.6470   40.4490 C   0  0  0  0  0  3  0  0  0  0  0  0
   44.9180   34.7140   41.6560 C   0  0  0  0  0  0  0  0  0  0  0  0
   45.9440   35.0410   42.5300 F   0  0  0  0  0  0  0  0  0  0  0  0
   43.9280   35.6930   41.8650 F   0  0  0  0  0  0  0  0  0  0  0  0
   45.4060   34.7210   40.3820 F   0  0  0  0  0  0  0  0  0  0  0  0
  1  6  1  0  0  0  0
  2  3  1  0  0  0  0
  2  1  2  0  0  0  0
  3  4  2  0  0  0  0
  4  5  1  0  0  0  0
  5 16  1  0  0  0  0
  6  5  2  0  0  0  0
  7  9  1  0  0  0  0
  8  7  2  0  0  0  0
  9  1  1  0  0  0  0
  9 17  1  0  0  0  0
 10  7  1  0  0  0  0
 10 14  1  0  0  0  0
 11 12  1  0  0  0  0
 11 10  1  0  0  0  0
 12 13  1  0  0  0  0
 13 23  1  0  0  0  0
 13 22  1  0  0  0  0
 13 14  1  0  0  0  0
 14 24  1  1  0  0  0
 15  2  1  0  0  0  0
 18 11  1  0  0  0  0
 19 11  1  0  0  0  0
 20 12  1  0  0  0  0
 21 12  1  0  0  0  0
 25 26  2  0  0  0  0
 27 14  1  0  0  0  0
 27 25  1  0  0  0  0
 28 27  1  0  0  0  0
 29 25  1  0  0  0  0
 29 30  1  0  0  0  0
 30 31  1  0  0  0  0
 32 30  2  0  0  0  0
 33 32  1  0  0  0  0
 34 33  1  0  0  0  0
 35 34  2  0  0  0  0
 36 35  1  0  0  0  0
 37 38  2  0  0  0  0
 37 35  1  0  0  0  0
 38 39  1  0  0  0  0
 39 40  1  0  0  0  0
 39 33  2  0  0  0  0
 40 29  2  0  0  0  0
 41 43  1  0  0  0  0
 41  3  1  0  0  0  0
 41 42  1  0  0  0  0
 44 41  1  0  0  0  0
M  END
>  <minimizedAffinity>
-6.69268513

$$$$

 OpenBabel03252503333D

 44 47  0  0  1  0  0  0  0  0999 V2000
   36.6700   25.4550   38.6940 C   0  0  0  0  0  0  0  0  0  0  0  0
   35.6830   24.4530   38.4610 C   0  0  0  0  0  0  0  0  0  0  0  0
   35.4070   23.5940   39.5440 C   0  0  0  0  0  0  0  0  0  0  0  0
   36.0790   23.7790   40.6870 N   0  0  0  0  0  0  0  0  0  0  0  0
   37.0100   24.7480   40.8610 C   0  0  0  0  0  0  0  0  0  0  0  0
   37.3000   25.5890   39.8460 N   0  0  0  0  0  0  0  0  0  0  0  0
   36.0080   27.3420   37.4710 C   0  0  0  0  0  0  0  0  0  0  0  0
   34.9530   27.2830   38.1880 O   0  0  0  0  0  0  0  0  0  0  0  0
   37.0130   26.3710   37.6460 N   0  0  0  0  0  0  0  0  0  0  0  0
   36.0930   28.4020   36.5320 N   0  0  0  0  0  0  0  0  0  0  0  0
   34.8780   29.1560   36.1720 C   0  0  0  0  0  0  0  0  0  0  0  0
   35.1550   29.5490   34.7540 C   0  0  0  0  0  0  0  0  0  0  0  0
   36.5470   29.0740   34.4540 C   0  0  0  0  0  0  0  0  0  0  0  0
   37.1990   28.9630   35.8110 C   0  0  1  0  0  0  0  0  0  0  0  0
   35.1930   24.3870   37.4870 H   0  0  0  0  0  0  0  0  0  0  0  0
   37.5120   24.8300   41.8270 H   0  0  0  0  0  0  0  0  0  0  0  0
   37.8650   26.4070   37.0310 H   0  0  0  0  0  0  0  0  0  0  0  0
   34.0090   28.4970   36.1780 H   0  0  0  0  0  0  0  0  0  0  0  0
   34.7500   30.0280   36.8590 H   0  0  0  0  0  0  0  0  0  0  0  0
   35.0960   30.6600   34.6100 H   0  0  0  0  0  0  0  0  0  0  0  0
   34.3820   29.1310   34.0480 H   0  0  0  0  0  0  0  0  0  0  0  0
   36.3570   27.9630   34.2390 H   0  0  0  0  0  0  0  0  0  0  0  0
   37.0440   29.3900   33.5970 H   0  0  0  0  0  0  0  0  0  0  0  0
   38.0840   28.3700   35.6330 H   0  0  0  0  0  0  0  0  0  0  0  0
   38.3620   30.3580   37.6310 C   0  0  0  0  0  0  0  0  0  0  0  0
   38.8770   29.2590   37.9260 O   0  0  0  0  0  0  0  0  0  0  0  0
   37.5790   30.2320   36.4160 N   0  0  0  0  0  0  0  0  0  0  0  0
   37.2650   31.1340   35.9420 H   0  0  0  0  0  0  0  0  0  0  0  0
   38.5180   31.5670   38.3760 C   0  0  0  0  0  0  0  0  0  0  0  0
   37.3620   32.1060   38.8950 C   0  0  0  0  0  0  0  0  0  0  0  0
   36.3870   31.6830   38.7760 H   0  0  0  0  0  0  0  0  0  0  0  0
   37.4510   33.2880   39.6330 C   0  0  0  0  0  3  0  0  0  0  0  0
   38.6960   33.8600   39.8070 C   0  0  0  0  0  0  0  0  0  0  0  0
   38.7260   34.9990   40.5250 N   0  0  0  0  0  0  0  0  0  0  0  0
   39.9210   35.6070   40.7300 C   0  0  0  0  0  0  0  0  0  0  0  0
   40.0410   36.5250   41.2940 H   0  0  0  0  0  0  0  0  0  0  0  0
   41.0940   35.0770   40.2130 C   0  0  0  0  0  3  0  0  0  0  0  0
   41.0730   33.9130   39.4780 C   0  0  0  0  0  3  0  0  0  0  0  0
   39.8430   33.3040   39.2780 C   0  0  0  0  0  0  0  0  0  0  0  0
   39.7620   32.1370   38.5490 C   0  0  0  0  0  3  0  0  0  0  0  0
   34.3930   22.5770   39.2760 C   0  0  0  0  0  0  0  0  0  0  0  0
   33.7560   22.8830   38.0810 F   0  0  0  0  0  0  0  0  0  0  0  0
   33.4060   22.7210   40.2690 F   0  0  0  0  0  0  0  0  0  0  0  0
   34.8840   21.3070   39.2000 F   0  0  0  0  0  0  0  0  0  0  0  0
  1  6  1  0  0  0  0
  2  1  2  0  0  0  0
  2  3  1  0  0  0  0
  3  4  2  0  0  0  0
  4  5  1  0  0  0  0
  5 16  1  0  0  0  0
  6  5  2  0  0  0  0
  7  9  1  0  0  0  0
  7  8  2  0  0  0  0
  9  1  1  0  0  0  0
 10  7  1  0  0  0  0
 11 18  1  0  0  0  0
 11 10  1  0  0  0  0
 11 19  1  0  0  0  0
 12 11  1  0  0  0  0
 13 12  1  0  0  0  0
 13 14  1  0  0  0  0
 14 24  1  6  0  0  0
 14 27  1  0  0  0  0
 14 10  1  0  0  0  0
 15  2  1  0  0  0  0
 17  9  1  0  0  0  0
 20 12  1  0  0  0  0
 21 12  1  0  0  0  0
 22 13  1  0  0  0  0
 23 13  1  0  0  0  0
 25 26  2  0  0  0  0
 25 29  1  0  0  0  0
 27 25  1  0  0  0  0
 28 27  1  0  0  0  0
 29 40  2  0  0  0  0
 29 30  1  0  0  0  0
 30 32  2  0  0  0  0
 31 30  1  0  0  0  0
 32 33  1  0  0  0  0
 33 34  1  0  0  0  0
 34 35  2  0  0  0  0
 35 36  1  0  0  0  0
 37 35  1  0  0  0  0
 38 37  2  0  0  0  0
 39 38  1  0  0  0  0
 39 33  2  0  0  0  0
 40 39  1  0  0  0  0
 41  3  1  0  0  0  0
 41 43  1  0  0  0  0
 42 41  1  0  0  0  0
 44 41  1  0  0  0  0
M  END
>  <minimizedAffinity>
-6.66547108

$$$$

 OpenBabel03252503333D

 44 47  0  0  1  0  0  0  0  0999 V2000
   36.2140   26.4940   38.5320 C   0  0  0  0  0  0  0  0  0  0  0  0
   36.1820   25.0720   38.4450 C   0  0  0  0  0  0  0  0  0  0  0  0
   36.1440   24.5330   37.1430 C   0  0  0  0  0  0  0  0  0  0  0  0
   36.1410   25.3810   36.1060 N   0  0  0  0  0  0  0  0  0  0  0  0
   36.1720   26.7290   36.2410 C   0  0  0  0  0  0  0  0  0  0  0  0
   36.2090   27.2800   37.4730 N   0  0  0  0  0  0  0  0  0  0  0  0
   37.5310   27.0200   40.3990 C   0  0  0  0  0  0  0  0  0  0  0  0
   38.4460   26.3810   39.7780 O   0  0  0  0  0  0  0  0  0  0  0  0
   36.2520   27.1250   39.8190 N   0  0  0  0  0  0  0  0  0  0  0  0
   37.8760   27.5870   41.6530 N   0  0  0  0  0  0  0  0  0  0  0  0
   39.1050   27.1460   42.3390 C   0  0  0  0  0  0  0  0  0  0  0  0
   38.7380   27.3020   43.7820 C   0  0  0  0  0  0  0  0  0  0  0  0
   37.3670   27.9130   43.8010 C   0  0  0  0  0  0  0  0  0  0  0  0
   37.2500   28.5950   42.4580 C   0  0  1  0  0  0  0  0  0  0  0  0
   36.1880   24.4690   39.3560 H   0  0  0  0  0  0  0  0  0  0  0  0
   36.1670   27.3490   35.3420 H   0  0  0  0  0  0  0  0  0  0  0  0
   35.4950   27.6250   40.3500 H   0  0  0  0  0  0  0  0  0  0  0  0
   39.2860   26.0870   42.1470 H   0  0  0  0  0  0  0  0  0  0  0  0
   39.9670   27.7840   42.0280 H   0  0  0  0  0  0  0  0  0  0  0  0
   39.4560   27.9700   44.3250 H   0  0  0  0  0  0  0  0  0  0  0  0
   38.7920   26.3200   44.3340 H   0  0  0  0  0  0  0  0  0  0  0  0
   36.7140   26.9900   43.6060 H   0  0  0  0  0  0  0  0  0  0  0  0
   36.9670   28.2950   44.6800 H   0  0  0  0  0  0  0  0  0  0  0  0
   36.1930   28.7930   42.3520 H   0  0  0  0  0  0  0  0  0  0  0  0
   37.9110   30.7340   41.1930 C   0  0  0  0  0  0  0  0  0  0  0  0
   36.9400   30.4220   40.4720 O   0  0  0  0  0  0  0  0  0  0  0  0
   37.9910   29.8430   42.3350 N   0  0  0  0  0  0  0  0  0  0  0  0
   38.6380   30.1280   43.1330 H   0  0  0  0  0  0  0  0  0  0  0  0
   38.8140   31.8110   40.9380 C   0  0  0  0  0  0  0  0  0  0  0  0
   40.1530   31.4880   40.9520 C   0  0  0  0  0  0  0  0  0  0  0  0
   40.5410   30.5080   41.1380 H   0  0  0  0  0  0  0  0  0  0  0  0
   41.0850   32.4990   40.7090 C   0  0  0  0  0  3  0  0  0  0  0  0
   40.6180   33.7760   40.4650 C   0  0  0  0  0  0  0  0  0  0  0  0
   41.5570   34.7130   40.2380 N   0  0  0  0  0  0  0  0  0  0  0  0
   41.1600   35.9860   39.9920 C   0  0  0  0  0  0  0  0  0  0  0  0
   41.8430   36.8050   39.7990 H   0  0  0  0  0  0  0  0  0  0  0  0
   39.8150   36.3270   39.9750 C   0  0  0  0  0  3  0  0  0  0  0  0
   38.8480   35.3760   40.2060 C   0  0  0  0  0  3  0  0  0  0  0  0
   39.2720   34.0790   40.4550 C   0  0  0  0  0  0  0  0  0  0  0  0
   38.3470   33.0850   40.6950 C   0  0  0  0  0  3  0  0  0  0  0  0
   36.1120   23.0740   37.0840 C   0  0  0  0  0  0  0  0  0  0  0  0
   34.9110   22.6300   37.6200 F   0  0  0  0  0  0  0  0  0  0  0  0
   37.1050   22.6120   37.9690 F   0  0  0  0  0  0  0  0  0  0  0  0
   36.2480   22.5640   35.8270 F   0  0  0  0  0  0  0  0  0  0  0  0
  1  9  1  0  0  0  0
  2  1  1  0  0  0  0
  2 15  1  0  0  0  0
  3  2  2  0  0  0  0
  4  5  2  0  0  0  0
  4  3  1  0  0  0  0
  5  6  1  0  0  0  0
  6  1  2  0  0  0  0
  7 10  1  0  0  0  0
  8  7  2  0  0  0  0
  9 17  1  0  0  0  0
  9  7  1  0  0  0  0
 10 11  1  0  0  0  0
 10 14  1  0  0  0  0
 11 12  1  0  0  0  0
 12 13  1  0  0  0  0
 12 20  1  0  0  0  0
 12 21  1  0  0  0  0
 13 23  1  0  0  0  0
 14 24  1  6  0  0  0
 14 13  1  0  0  0  0
 16  5  1  0  0  0  0
 18 11  1  0  0  0  0
 19 11  1  0  0  0  0
 22 13  1  0  0  0  0
 25 27  1  0  0  0  0
 26 25  2  0  0  0  0
 27 14  1  0  0  0  0
 27 28  1  0  0  0  0
 29 30  1  0  0  0  0
 29 25  1  0  0  0  0
 30 31  1  0  0  0  0
 32 30  2  0  0  0  0
 33 32  1  0  0  0  0
 34 33  2  0  0  0  0
 35 34  1  0  0  0  0
 36 35  1  0  0  0  0
 37 35  2  0  0  0  0
 37 38  1  0  0  0  0
 38 39  2  0  0  0  0
 39 33  1  0  0  0  0
 39 40  1  0  0  0  0
 40 29  2  0  0  0  0
 41  3  1  0  0  0  0
 41 42  1  0  0  0  0
 41 43  1  0  0  0  0
 44 41  1  0  0  0  0
M  END
>  <minimizedAffinity>
-6.6636796

$$$$

 OpenBabel03252503333D

 44 47  0  0  1  0  0  0  0  0999 V2000
   37.4470   23.6780   40.9670 C   0  0  0  0  0  0  0  0  0  0  0  0
   38.0460   22.4100   40.7080 C   0  0  0  0  0  0  0  0  0  0  0  0
   37.4250   21.6250   39.7160 C   0  0  0  0  0  0  0  0  0  0  0  0
   36.3420   22.1170   39.1030 N   0  0  0  0  0  0  0  0  0  0  0  0
   35.8090   23.3310   39.3840 C   0  0  0  0  0  0  0  0  0  0  0  0
   36.3760   24.1110   40.3290 N   0  0  0  0  0  0  0  0  0  0  0  0
   39.1950   25.1480   41.4960 C   0  0  0  0  0  0  0  0  0  0  0  0
   39.6280   24.8530   40.3300 O   0  0  0  0  0  0  0  0  0  0  0  0
   38.0130   24.5400   41.9620 N   0  0  0  0  0  0  0  0  0  0  0  0
   39.9500   26.0820   42.2490 N   0  0  0  0  0  0  0  0  0  0  0  0
   41.3310   26.4020   41.8410 C   0  0  0  0  0  0  0  0  0  0  0  0
   41.9870   26.7100   43.1510 C   0  0  0  0  0  0  0  0  0  0  0  0
   40.9040   26.6400   44.1870 C   0  0  0  0  0  0  0  0  0  0  0  0
   39.6320   26.8680   43.4060 C   0  0  1  0  0  0  0  0  0  0  0  0
   38.9320   22.1020   41.2670 H   0  0  0  0  0  0  0  0  0  0  0  0
   34.9230   23.6580   38.8360 H   0  0  0  0  0  0  0  0  0  0  0  0
   37.6790   24.7630   42.9340 H   0  0  0  0  0  0  0  0  0  0  0  0
   41.8140   25.5190   41.4190 H   0  0  0  0  0  0  0  0  0  0  0  0
   41.3310   27.2630   41.1300 H   0  0  0  0  0  0  0  0  0  0  0  0
   42.4480   27.7330   43.1560 H   0  0  0  0  0  0  0  0  0  0  0  0
   42.8470   26.0110   43.3600 H   0  0  0  0  0  0  0  0  0  0  0  0
   40.8310   25.5060   44.3490 H   0  0  0  0  0  0  0  0  0  0  0  0
   41.0640   26.9980   45.1500 H   0  0  0  0  0  0  0  0  0  0  0  0
   38.8470   26.5480   44.0770 H   0  0  0  0  0  0  0  0  0  0  0  0
   38.1890   28.7140   42.3470 C   0  0  0  0  0  0  0  0  0  0  0  0
   37.2980   27.8400   42.4130 O   0  0  0  0  0  0  0  0  0  0  0  0
   39.3950   28.2470   43.0060 N   0  0  0  0  0  0  0  0  0  0  0  0
   40.1520   28.9710   43.2060 H   0  0  0  0  0  0  0  0  0  0  0  0
   38.0480   29.9880   41.7170 C   0  0  0  0  0  0  0  0  0  0  0  0
   36.7970   30.2750   41.2170 C   0  0  0  0  0  0  0  0  0  0  0  0
   35.9540   29.6180   41.2720 H   0  0  0  0  0  0  0  0  0  0  0  0
   36.5970   31.5060   40.5890 C   0  0  0  0  0  3  0  0  0  0  0  0
   37.6650   32.3780   40.5010 C   0  0  0  0  0  0  0  0  0  0  0  0
   37.4190   33.5500   39.8860 N   0  0  0  0  0  0  0  0  0  0  0  0
   38.4290   34.4480   39.7700 C   0  0  0  0  0  0  0  0  0  0  0  0
   38.3240   35.4150   39.2920 H   0  0  0  0  0  0  0  0  0  0  0  0
   39.6930   34.1730   40.2690 C   0  0  0  0  0  3  0  0  0  0  0  0
   39.9540   32.9780   40.8980 C   0  0  0  0  0  3  0  0  0  0  0  0
   38.9100   32.0720   41.0090 C   0  0  0  0  0  0  0  0  0  0  0  0
   39.1140   30.8570   41.6300 C   0  0  0  0  0  3  0  0  0  0  0  0
   38.0600   20.3320   39.4730 C   0  0  0  0  0  0  0  0  0  0  0  0
   38.0860   19.6140   40.6600 F   0  0  0  0  0  0  0  0  0  0  0  0
   39.4100   20.5950   39.1720 F   0  0  0  0  0  0  0  0  0  0  0  0
   37.4440   19.5800   38.5170 F   0  0  0  0  0  0  0  0  0  0  0  0
  1  9  1  0  0  0  0
  2  1  1  0  0  0  0
  2 15  1  0  0  0  0
  3  2  2  0  0  0  0
  4  5  2  0  0  0  0
  4  3  1  0  0  0  0
  5  6  1  0  0  0  0
  6  1  2  0  0  0  0
  7  9  1  0  0  0  0
  7 10  1  0  0  0  0
  8  7  2  0  0  0  0
  9 17  1  0  0  0  0
 10 14  1  0  0  0  0
 11 10  1  0  0  0  0
 11 12  1  0  0  0  0
 12 20  1  0  0  0  0
 12 21  1  0  0  0  0
 12 13  1  0  0  0  0
 13 22  1  0  0  0  0
 13 23  1  0  0  0  0
 14 24  1  1  0  0  0
 14 13  1  0  0  0  0
 16  5  1  0  0  0  0
 18 11  1  0  0  0  0
 19 11  1  0  0  0  0
 25 26  2  0  0  0  0
 25 27  1  0  0  0  0
 27 28  1  0  0  0  0
 27 14  1  0  0  0  0
 29 25  1  0  0  0  0
 30 31  1  0  0  0  0
 30 29  2  0  0  0  0
 32 30  1  0  0  0  0
 33 32  2  0  0  0  0
 33 39  1  0  0  0  0
 34 33  1  0  0  0  0
 35 34  2  0  0  0  0
 35 37  1  0  0  0  0
 36 35  1  0  0  0  0
 37 38  2  0  0  0  0
 38 39  1  0  0  0  0
 39 40  2  0  0  0  0
 40 29  1  0  0  0  0
 41  3  1  0  0  0  0
 41 42  1  0  0  0  0
 43 41  1  0  0  0  0
 44 41  1  0  0  0  0
M  END
>  <minimizedAffinity>
-6.63499403

$$$$

 OpenBabel03252503333D

 44 47  0  0  1  0  0  0  0  0999 V2000
   39.0720   31.8560   40.9200 C   0  0  0  0  0  0  0  0  0  0  0  0
   38.8600   33.2220   40.5750 C   0  0  0  0  0  0  0  0  0  0  0  0
   40.0100   34.0370   40.5450 C   0  0  0  0  0  0  0  0  0  0  0  0
   41.1910   33.4780   40.8370 N   0  0  0  0  0  0  0  0  0  0  0  0
   41.3420   32.1700   41.1590 C   0  0  0  0  0  0  0  0  0  0  0  0
   40.2630   31.3600   41.1970 N   0  0  0  0  0  0  0  0  0  0  0  0
   37.5210   30.6060   39.6820 C   0  0  0  0  0  0  0  0  0  0  0  0
   38.1010   31.1240   38.6680 O   0  0  0  0  0  0  0  0  0  0  0  0
   37.9560   30.9570   40.9750 N   0  0  0  0  0  0  0  0  0  0  0  0
   36.4610   29.7000   39.4270 N   0  0  0  0  0  0  0  0  0  0  0  0
   35.8480   29.6530   38.0860 C   0  0  0  0  0  0  0  0  0  0  0  0
   34.4350   29.2660   38.3950 C   0  0  0  0  0  0  0  0  0  0  0  0
   34.3820   29.0250   39.8760 C   0  0  0  0  0  0  0  0  0  0  0  0
   35.8130   28.7200   40.2510 C   0  0  1  0  0  0  0  0  0  0  0  0
   37.8520   33.5790   40.3550 H   0  0  0  0  0  0  0  0  0  0  0  0
   42.3420   31.7940   41.3820 H   0  0  0  0  0  0  0  0  0  0  0  0
   37.4550   30.5510   41.8050 H   0  0  0  0  0  0  0  0  0  0  0  0
   35.8370   30.6490   37.6410 H   0  0  0  0  0  0  0  0  0  0  0  0
   36.3830   28.9110   37.4460 H   0  0  0  0  0  0  0  0  0  0  0  0
   34.1290   28.3350   37.8500 H   0  0  0  0  0  0  0  0  0  0  0  0
   33.7030   30.0500   38.0480 H   0  0  0  0  0  0  0  0  0  0  0  0
   34.3050   30.1010   40.2690 H   0  0  0  0  0  0  0  0  0  0  0  0
   33.5590   28.5630   40.3110 H   0  0  0  0  0  0  0  0  0  0  0  0
   35.8330   28.8200   41.3260 H   0  0  0  0  0  0  0  0  0  0  0  0
   37.4210   26.7270   40.4720 C   0  0  0  0  0  0  0  0  0  0  0  0
   37.7790   27.3300   41.5060 O   0  0  0  0  0  0  0  0  0  0  0  0
   36.2760   27.3910   39.8790 N   0  0  0  0  0  0  0  0  0  0  0  0
   35.7440   26.8630   39.1200 H   0  0  0  0  0  0  0  0  0  0  0  0
   38.0430   25.5520   39.9460 C   0  0  0  0  0  0  0  0  0  0  0  0
   39.0790   25.7660   39.0650 C   0  0  0  0  0  0  0  0  0  0  0  0
   39.4320   26.7300   38.7620 H   0  0  0  0  0  0  0  0  0  0  0  0
   39.7260   24.6570   38.5170 C   0  0  0  0  0  3  0  0  0  0  0  0
   39.2960   23.3970   38.8860 C   0  0  0  0  0  0  0  0  0  0  0  0
   39.9520   22.3630   38.3280 N   0  0  0  0  0  0  0  0  0  0  0  0
   39.5750   21.1020   38.6540 C   0  0  0  0  0  0  0  0  0  0  0  0
   40.0440   20.2100   38.2550 H   0  0  0  0  0  0  0  0  0  0  0  0
   38.5330   20.8710   39.5390 C   0  0  0  0  0  3  0  0  0  0  0  0
   37.8550   21.9220   40.1140 C   0  0  0  0  0  3  0  0  0  0  0  0
   38.2550   23.2050   39.7710 C   0  0  0  0  0  0  0  0  0  0  0  0
   37.6110   24.2960   40.3160 C   0  0  0  0  0  3  0  0  0  0  0  0
   39.7630   35.4320   40.1900 C   0  0  0  0  0  0  0  0  0  0  0  0
   40.6800   35.8190   39.2230 F   0  0  0  0  0  0  0  0  0  0  0  0
   40.0790   36.2000   41.3270 F   0  0  0  0  0  0  0  0  0  0  0  0
   38.5040   35.6730   39.7250 F   0  0  0  0  0  0  0  0  0  0  0  0
  1  9  1  0  0  0  0
  1  6  1  0  0  0  0
  2  1  2  0  0  0  0
  3  2  1  0  0  0  0
  3  4  2  0  0  0  0
  4  5  1  0  0  0  0
  5  6  2  0  0  0  0
  5 16  1  0  0  0  0
  7  9  1  0  0  0  0
  8  7  2  0  0  0  0
  9 17  1  0  0  0  0
 10  7  1  0  0  0  0
 10 14  1  0  0  0  0
 11 12  1  0  0  0  0
 11 10  1  0  0  0  0
 12 13  1  0  0  0  0
 13 14  1  0  0  0  0
 13 22  1  0  0  0  0
 13 23  1  0  0  0  0
 14 24  1  1  0  0  0
 15  2  1  0  0  0  0
 18 11  1  0  0  0  0
 19 11  1  0  0  0  0
 20 12  1  0  0  0  0
 21 12  1  0  0  0  0
 25 26  2  0  0  0  0
 27 14  1  0  0  0  0
 27 25  1  0  0  0  0
 28 27  1  0  0  0  0
 29 40  1  0  0  0  0
 29 25  1  0  0  0  0
 30 29  2  0  0  0  0
 31 30  1  0  0  0  0
 32 33  2  0  0  0  0
 32 30  1  0  0  0  0
 33 39  1  0  0  0  0
 34 35  2  0  0  0  0
 34 33  1  0  0  0  0
 35 37  1  0  0  0  0
 36 35  1  0  0  0  0
 37 38  2  0  0  0  0
 39 38  1  0  0  0  0
 39 40  2  0  0  0  0
 41  3  1  0  0  0  0
 41 43  1  0  0  0  0
 42 41  1  0  0  0  0
 44 41  1  0  0  0  0
M  END
>  <minimizedAffinity>
-6.60875034

$$$$

 OpenBabel03252503333D

 44 47  0  0  1  0  0  0  0  0999 V2000
   37.5160   24.9890   39.3330 C   0  0  0  0  0  0  0  0  0  0  0  0
   37.8210   23.6390   39.6730 C   0  0  0  0  0  0  0  0  0  0  0  0
   38.3820   22.8550   38.6450 C   0  0  0  0  0  0  0  0  0  0  0  0
   38.5830   23.4240   37.4500 N   0  0  0  0  0  0  0  0  0  0  0  0
   38.2760   24.7160   37.1750 C   0  0  0  0  0  0  0  0  0  0  0  0
   37.7370   25.4960   38.1350 N   0  0  0  0  0  0  0  0  0  0  0  0
   37.9060   26.2680   41.2590 C   0  0  0  0  0  0  0  0  0  0  0  0
   39.0990   25.8210   41.1620 O   0  0  0  0  0  0  0  0  0  0  0  0
   36.9410   25.8560   40.3190 N   0  0  0  0  0  0  0  0  0  0  0  0
   37.6350   27.1610   42.3260 N   0  0  0  0  0  0  0  0  0  0  0  0
   38.5870   27.2680   43.4480 C   0  0  0  0  0  0  0  0  0  0  0  0
   37.6880   27.6030   44.5970 C   0  0  0  0  0  0  0  0  0  0  0  0
   36.3120   27.7600   44.0200 C   0  0  0  0  0  0  0  0  0  0  0  0
   36.5580   28.0780   42.5640 C   0  0  1  0  0  0  0  0  0  0  0  0
   37.6170   23.2710   40.6810 H   0  0  0  0  0  0  0  0  0  0  0  0
   38.4720   25.1020   36.1730 H   0  0  0  0  0  0  0  0  0  0  0  0
   35.9540   26.2030   40.4230 H   0  0  0  0  0  0  0  0  0  0  0  0
   39.0460   26.2980   43.6470 H   0  0  0  0  0  0  0  0  0  0  0  0
   39.3470   28.0570   43.2320 H   0  0  0  0  0  0  0  0  0  0  0  0
   37.9960   28.5560   45.1030 H   0  0  0  0  0  0  0  0  0  0  0  0
   37.7420   26.8230   45.4090 H   0  0  0  0  0  0  0  0  0  0  0  0
   35.9890   26.6630   43.9260 H   0  0  0  0  0  0  0  0  0  0  0  0
   35.5430   28.1770   44.5820 H   0  0  0  0  0  0  0  0  0  0  0  0
   35.5990   27.9190   42.0920 H   0  0  0  0  0  0  0  0  0  0  0  0
   37.1800   29.9990   40.9720 C   0  0  0  0  0  0  0  0  0  0  0  0
   36.6420   29.2600   40.1200 O   0  0  0  0  0  0  0  0  0  0  0  0
   37.0090   29.4360   42.2990 N   0  0  0  0  0  0  0  0  0  0  0  0
   37.2320   30.0680   43.1290 H   0  0  0  0  0  0  0  0  0  0  0  0
   37.8640   31.2210   40.6890 C   0  0  0  0  0  0  0  0  0  0  0  0
   37.0960   32.2250   40.1440 C   0  0  0  0  0  0  0  0  0  0  0  0
   36.0510   32.1440   39.9280 H   0  0  0  0  0  0  0  0  0  0  0  0
   37.7090   33.4440   39.8450 C   0  0  0  0  0  3  0  0  0  0  0  0
   39.0570   33.5830   40.1110 C   0  0  0  0  0  0  0  0  0  0  0  0
   39.5980   34.7760   39.8040 N   0  0  0  0  0  0  0  0  0  0  0  0
   40.9190   34.9730   40.0430 C   0  0  0  0  0  0  0  0  0  0  0  0
   41.4390   35.8990   39.8280 H   0  0  0  0  0  0  0  0  0  0  0  0
   41.7040   33.9700   40.5920 C   0  0  0  0  0  3  0  0  0  0  0  0
   41.1600   32.7470   40.9090 C   0  0  0  0  0  3  0  0  0  0  0  0
   39.8090   32.5630   40.6580 C   0  0  0  0  0  0  0  0  0  0  0  0
   39.2090   31.3580   40.9550 C   0  0  0  0  0  3  0  0  0  0  0  0
   38.6840   21.4760   39.0220 C   0  0  0  0  0  0  0  0  0  0  0  0
   39.9670   21.1640   38.5960 F   0  0  0  0  0  0  0  0  0  0  0  0
   37.8320   20.6540   38.2600 F   0  0  0  0  0  0  0  0  0  0  0  0
   38.5920   21.2320   40.3610 F   0  0  0  0  0  0  0  0  0  0  0  0
  1  2  1  0  0  0  0
  1  9  1  0  0  0  0
  2 15  1  0  0  0  0
  3 41  1  0  0  0  0
  3  2  2  0  0  0  0
  4  3  1  0  0  0  0
  5  4  2  0  0  0  0
  5  6  1  0  0  0  0
  6  1  2  0  0  0  0
  7 10  1  0  0  0  0
  8  7  2  0  0  0  0
  9 17  1  0  0  0  0
  9  7  1  0  0  0  0
 10 14  1  0  0  0  0
 10 11  1  0  0  0  0
 11 18  1  0  0  0  0
 11 12  1  0  0  0  0
 12 20  1  0  0  0  0
 12 21  1  0  0  0  0
 13 23  1  0  0  0  0
 13 12  1  0  0  0  0
 14 24  1  6  0  0  0
 14 13  1  0  0  0  0
 16  5  1  0  0  0  0
 19 11  1  0  0  0  0
 22 13  1  0  0  0  0
 25 27  1  0  0  0  0
 26 25  2  0  0  0  0
 27 14  1  0  0  0  0
 27 28  1  0  0  0  0
 29 40  1  0  0  0  0
 29 25  1  0  0  0  0
 30 29  2  0  0  0  0
 31 30  1  0  0  0  0
 32 33  2  0  0  0  0
 32 30  1  0  0  0  0
 33 39  1  0  0  0  0
 34 35  2  0  0  0  0
 34 33  1  0  0  0  0
 35 37  1  0  0  0  0
 36 35  1  0  0  0  0
 37 38  2  0  0  0  0
 39 38  1  0  0  0  0
 39 40  2  0  0  0  0
 41 44  1  0  0  0  0
 42 41  1  0  0  0  0
 43 41  1  0  0  0  0
M  END
>  <minimizedAffinity>
-6.57618284

$$$$
