
 OpenBabel03242519103D

 50 54  0  0  1  0  0  0  0  0999 V2000
   49.2700   32.0840   36.9870 C   0  0  0  0  0  0  0  0  0  0  0  0
   48.3950   32.9030   37.7220 C   0  0  0  0  0  0  0  0  0  0  0  0
   47.1760   33.0600   37.1310 C   0  0  0  0  0  0  0  0  0  0  0  0
   46.7610   32.5140   35.9460 C   0  0  0  0  0  0  0  0  0  0  0  0
   47.6490   31.7170   35.2570 C   0  0  0  0  0  0  0  0  0  0  0  0
   48.8970   31.5130   35.7930 C   0  0  0  0  0  0  0  0  0  0  0  0
   46.4520   33.6870   37.6540 H   0  0  0  0  0  0  0  0  0  0  0  0
   45.7720   32.6910   35.5470 H   0  0  0  0  0  0  0  0  0  0  0  0
   47.3890   31.2560   34.3190 H   0  0  0  0  0  0  0  0  0  0  0  0
   50.2810   31.1370   33.8110 C   0  0  0  0  0  0  0  0  0  0  0  0
   49.9770   32.2880   33.3800 O   0  0  0  0  0  0  0  0  0  0  0  0
   49.8050   30.6810   35.0600 N   0  0  0  0  0  0  0  0  0  0  0  0
   50.1020   29.7670   35.4380 H   0  0  0  0  0  0  0  0  0  0  0  0
   51.1400   30.3310   32.9460 C   0  0  0  0  0  0  0  0  0  0  0  0
   52.4930   30.5790   32.9470 C   0  0  0  0  0  0  0  0  0  0  0  0
   52.9640   31.3380   33.5520 H   0  0  0  0  0  0  0  0  0  0  0  0
   53.3660   29.8420   32.1420 C   0  0  0  0  0  3  0  0  0  0  0  0
   52.8700   28.8410   31.3240 C   0  0  0  0  0  0  0  0  0  0  0  0
   53.7410   28.1520   30.5620 N   0  0  0  0  0  0  0  0  0  0  0  0
   53.3200   27.1540   29.7340 C   0  0  0  0  0  0  0  0  0  0  0  0
   54.0550   26.6310   29.1430 H   0  0  0  0  0  0  0  0  0  0  0  0
   51.9690   26.8750   29.7060 C   0  0  0  0  0  3  0  0  0  0  0  0
   51.0560   27.5850   30.4930 C   0  0  0  0  0  3  0  0  0  0  0  0
   51.5070   28.5990   31.3300 C   0  0  0  0  0  0  0  0  0  0  0  0
   50.6490   29.3330   32.1300 C   0  0  0  0  0  3  0  0  0  0  0  0
   48.7310   33.5060   38.9470 N   0  0  0  0  0  0  0  0  0  0  0  0
   49.5630   34.1320   38.7850 H   0  0  0  0  0  0  0  0  0  0  0  0
   47.6300   34.3520   42.2220 N   0  0  0  0  0  0  0  0  0  0  0  0
   47.7480   34.7390   40.8320 C   0  0  0  0  0  0  0  0  0  0  0  0
   48.1790   33.4170   40.2580 C   0  0  2  0  0  0  0  0  0  0  0  0
   49.2910   33.0130   41.2030 C   0  0  0  0  0  0  0  0  0  0  0  0
   48.7910   33.5650   42.5200 C   0  0  0  0  0  0  0  0  0  0  0  0
   46.7800   35.0850   40.4240 H   0  0  0  0  0  0  0  0  0  0  0  0
   48.5500   35.4810   40.6820 H   0  0  0  0  0  0  0  0  0  0  0  0
   47.3500   32.6870   40.3700 H   0  0  0  0  0  0  0  0  0  0  0  0
   50.2570   33.5140   40.9370 H   0  0  0  0  0  0  0  0  0  0  0  0
   49.4080   31.9210   41.2210 H   0  0  0  0  0  0  0  0  0  0  0  0
   49.5660   34.1410   43.0730 H   0  0  0  0  0  0  0  0  0  0  0  0
   48.4700   32.7010   43.1370 H   0  0  0  0  0  0  0  0  0  0  0  0
   44.7500   35.8480   44.0540 C   0  0  0  0  0  0  0  0  0  0  0  0
   45.6940   35.6560   43.0570 C   0  0  0  0  0  0  0  0  0  0  0  0
   46.6360   34.6270   43.1740 C   0  0  0  0  0  0  0  0  0  0  0  0
   46.5620   33.8570   44.2920 N   0  0  0  0  0  0  0  0  0  0  0  0
   45.6500   34.0420   45.2560 C   0  0  0  0  0  0  0  0  0  0  0  0
   44.7390   35.0480   45.1280 N   0  0  0  0  0  0  0  0  0  0  0  0
   44.0760   36.6720   43.8540 H   0  0  0  0  0  0  0  0  0  0  0  0
   45.8080   36.2230   42.1530 H   0  0  0  0  0  0  0  0  0  0  0  0
   45.5770   33.4450   46.1440 H   0  0  0  0  0  0  0  0  0  0  0  0
   51.6480   31.6750   37.9820 N   0  0  0  0  0  0  0  0  0  0  0  0
   50.6000   31.8580   37.5450 C   0  0  0  0  0  0  0  0  0  0  0  0
  1 50  1  0  0  0  0
  1  2  1  0  0  0  0
  2 26  1  0  0  0  0
  3  7  1  0  0  0  0
  3  2  2  0  0  0  0
  4  3  1  0  0  0  0
  5  6  1  0  0  0  0
  5  4  2  0  0  0  0
  6  1  2  0  0  0  0
  8  4  1  0  0  0  0
  9  5  1  0  0  0  0
 10 12  1  0  0  0  0
 11 10  2  0  0  0  0
 12 13  1  0  0  0  0
 12  6  1  0  0  0  0
 14 15  1  0  0  0  0
 14 10  1  0  0  0  0
 15 16  1  0  0  0  0
 17 15  2  0  0  0  0
 18 24  1  0  0  0  0
 18 17  1  0  0  0  0
 19 18  2  0  0  0  0
 20 19  1  0  0  0  0
 21 20  1  0  0  0  0
 22 20  2  0  0  0  0
 22 23  1  0  0  0  0
 23 24  2  0  0  0  0
 24 25  1  0  0  0  0
 25 14  2  0  0  0  0
 26 30  1  0  0  0  0
 27 26  1  0  0  0  0
 28 32  1  0  0  0  0
 28 42  1  0  0  0  0
 29 28  1  0  0  0  0
 30 35  1  1  0  0  0
 30 29  1  0  0  0  0
 30 31  1  0  0  0  0
 31 37  1  0  0  0  0
 31 32  1  0  0  0  0
 32 38  1  0  0  0  0
 32 39  1  0  0  0  0
 33 29  1  0  0  0  0
 34 29  1  0  0  0  0
 36 31  1  0  0  0  0
 40 45  1  0  0  0  0
 41 42  1  0  0  0  0
 41 40  2  0  0  0  0
 42 43  2  0  0  0  0
 43 44  1  0  0  0  0
 44 48  1  0  0  0  0
 45 44  2  0  0  0  0
 46 40  1  0  0  0  0
 47 41  1  0  0  0  0
 50 49  3  0  0  0  0
M  END
>  <minimizedAffinity>
-6.00435066

>  <minimizedRMSD>
1.06063461

$$$$
