
 OpenBabel03242519113D

 50 54  0  0  1  0  0  0  0  0999 V2000
   49.1780   32.0900   36.9930 C   0  0  0  0  0  0  0  0  0  0  0  0
   48.3020   32.9060   37.7310 C   0  0  0  0  0  0  0  0  0  0  0  0
   47.0750   33.0430   37.1530 C   0  0  0  0  0  0  0  0  0  0  0  0
   46.6510   32.4800   35.9790 C   0  0  0  0  0  0  0  0  0  0  0  0
   47.5400   31.6870   35.2870 C   0  0  0  0  0  0  0  0  0  0  0  0
   48.7970   31.5040   35.8090 C   0  0  0  0  0  0  0  0  0  0  0  0
   46.3490   33.6660   37.6800 H   0  0  0  0  0  0  0  0  0  0  0  0
   45.6550   32.6410   35.5910 H   0  0  0  0  0  0  0  0  0  0  0  0
   47.2740   31.2140   34.3560 H   0  0  0  0  0  0  0  0  0  0  0  0
   50.2180   31.1570   33.8480 C   0  0  0  0  0  0  0  0  0  0  0  0
   49.9440   32.3260   33.4430 O   0  0  0  0  0  0  0  0  0  0  0  0
   49.7060   30.6750   35.0720 N   0  0  0  0  0  0  0  0  0  0  0  0
   49.9780   29.7450   35.4300 H   0  0  0  0  0  0  0  0  0  0  0  0
   51.0820   30.3600   32.9790 C   0  0  0  0  0  0  0  0  0  0  0  0
   50.5340   29.2910   32.3090 C   0  0  0  0  0  0  0  0  0  0  0  0
   49.4970   29.0030   32.3830 H   0  0  0  0  0  0  0  0  0  0  0  0
   51.3080   28.4910   31.4640 C   0  0  0  0  0  3  0  0  0  0  0  0
   52.6530   28.7690   31.2930 C   0  0  0  0  0  0  0  0  0  0  0  0
   53.3680   27.9750   30.4730 N   0  0  0  0  0  0  0  0  0  0  0  0
   54.6970   28.1940   30.2580 C   0  0  0  0  0  0  0  0  0  0  0  0
   55.2270   27.5320   29.5920 H   0  0  0  0  0  0  0  0  0  0  0  0
   55.2830   29.2570   30.9150 C   0  0  0  0  0  3  0  0  0  0  0  0
   54.5510   30.0870   31.7700 C   0  0  0  0  0  3  0  0  0  0  0  0
   53.1950   29.8460   31.9720 C   0  0  0  0  0  0  0  0  0  0  0  0
   52.4220   30.6350   32.8070 C   0  0  0  0  0  3  0  0  0  0  0  0
   48.6460   33.5250   38.9450 N   0  0  0  0  0  0  0  0  0  0  0  0
   49.4670   34.1600   38.7670 H   0  0  0  0  0  0  0  0  0  0  0  0
   47.5830   34.3830   42.2300 N   0  0  0  0  0  0  0  0  0  0  0  0
   47.6780   34.7630   40.8350 C   0  0  0  0  0  0  0  0  0  0  0  0
   48.1130   33.4400   40.2640 C   0  0  2  0  0  0  0  0  0  0  0  0
   49.2420   33.0530   41.1970 C   0  0  0  0  0  0  0  0  0  0  0  0
   48.7550   33.6090   42.5160 C   0  0  0  0  0  0  0  0  0  0  0  0
   46.7020   35.0970   40.4390 H   0  0  0  0  0  0  0  0  0  0  0  0
   48.4710   35.5100   40.6690 H   0  0  0  0  0  0  0  0  0  0  0  0
   47.2930   32.7040   40.3930 H   0  0  0  0  0  0  0  0  0  0  0  0
   50.1990   33.5600   40.9140 H   0  0  0  0  0  0  0  0  0  0  0  0
   49.3690   31.9610   41.2210 H   0  0  0  0  0  0  0  0  0  0  0  0
   49.5330   34.1960   43.0550 H   0  0  0  0  0  0  0  0  0  0  0  0
   48.4500   32.7470   43.1440 H   0  0  0  0  0  0  0  0  0  0  0  0
   44.7330   35.8850   44.1040 C   0  0  0  0  0  0  0  0  0  0  0  0
   45.6680   35.6960   43.0970 C   0  0  0  0  0  0  0  0  0  0  0  0
   46.6000   34.6570   43.1940 C   0  0  0  0  0  0  0  0  0  0  0  0
   46.5290   33.8740   44.3030 N   0  0  0  0  0  0  0  0  0  0  0  0
   45.6260   34.0560   45.2770 C   0  0  0  0  0  0  0  0  0  0  0  0
   44.7240   35.0730   45.1690 N   0  0  0  0  0  0  0  0  0  0  0  0
   44.0660   36.7180   43.9200 H   0  0  0  0  0  0  0  0  0  0  0  0
   45.7790   36.2730   42.1990 H   0  0  0  0  0  0  0  0  0  0  0  0
   45.5550   33.4490   46.1580 H   0  0  0  0  0  0  0  0  0  0  0  0
   51.5730   31.7200   37.9610 N   0  0  0  0  0  0  0  0  0  0  0  0
   50.5170   31.8860   37.5360 C   0  0  0  0  0  0  0  0  0  0  0  0
  1 50  1  0  0  0  0
  1  2  1  0  0  0  0
  2 26  1  0  0  0  0
  3  7  1  0  0  0  0
  3  2  2  0  0  0  0
  4  3  1  0  0  0  0
  5  6  1  0  0  0  0
  5  4  2  0  0  0  0
  6  1  2  0  0  0  0
  8  4  1  0  0  0  0
  9  5  1  0  0  0  0
 10 12  1  0  0  0  0
 11 10  2  0  0  0  0
 12 13  1  0  0  0  0
 12  6  1  0  0  0  0
 14 10  1  0  0  0  0
 15 16  1  0  0  0  0
 15 14  2  0  0  0  0
 17 15  1  0  0  0  0
 18 17  2  0  0  0  0
 18 24  1  0  0  0  0
 19 18  1  0  0  0  0
 20 19  2  0  0  0  0
 20 22  1  0  0  0  0
 21 20  1  0  0  0  0
 22 23  2  0  0  0  0
 23 24  1  0  0  0  0
 24 25  2  0  0  0  0
 25 14  1  0  0  0  0
 26 30  1  0  0  0  0
 27 26  1  0  0  0  0
 28 32  1  0  0  0  0
 28 42  1  0  0  0  0
 29 28  1  0  0  0  0
 30 35  1  1  0  0  0
 30 29  1  0  0  0  0
 30 31  1  0  0  0  0
 31 37  1  0  0  0  0
 31 32  1  0  0  0  0
 32 38  1  0  0  0  0
 32 39  1  0  0  0  0
 33 29  1  0  0  0  0
 34 29  1  0  0  0  0
 36 31  1  0  0  0  0
 40 45  1  0  0  0  0
 41 42  1  0  0  0  0
 41 40  2  0  0  0  0
 42 43  2  0  0  0  0
 43 44  1  0  0  0  0
 44 48  1  0  0  0  0
 45 44  2  0  0  0  0
 46 40  1  0  0  0  0
 47 41  1  0  0  0  0
 50 49  3  0  0  0  0
M  END
>  <minimizedAffinity>
-6.19874954

>  <minimizedRMSD>
0.94156605

$$$$
