
 OpenBabel03242523163D

 30 33  0  0  0  0  0  0  0  0999 V2000
   46.2640   34.4510   43.6170 C   0  0  0  0  0  0  0  0  0  0  0  0
   47.4040   33.8780   43.1680 C   0  0  0  0  0  0  0  0  0  0  0  0
   47.8140   32.7570   43.8550 C   0  0  0  0  0  0  0  0  0  0  0  0
   47.0390   32.3180   44.9280 N   0  0  0  0  0  0  0  0  0  0  0  0
   45.9180   32.9340   45.3200 C   0  0  0  0  0  0  0  0  0  0  0  0
   45.4940   34.0490   44.6530 N   0  0  0  0  0  0  0  0  0  0  0  0
   48.7260   32.2370   43.5540 H   0  0  0  0  0  0  0  0  0  0  0  0
   45.5650   32.3520   46.1580 H   0  0  0  0  0  0  0  0  0  0  0  0
   48.2160   34.3670   42.1170 C   0  0  0  0  0  0  0  0  0  0  0  0
   48.4970   35.6410   41.7210 C   0  0  0  0  0  0  0  0  0  0  0  0
   49.6460   34.9620   42.4710 C   0  0  0  0  0  0  0  0  0  0  0  0
   48.5890   33.4470   41.4900 H   0  0  0  0  0  0  0  0  0  0  0  0
   48.0410   36.5500   42.2380 H   0  0  0  0  0  0  0  0  0  0  0  0
   48.8100   35.9440   40.6860 H   0  0  0  0  0  0  0  0  0  0  0  0
   49.7530   35.2890   43.5300 H   0  0  0  0  0  0  0  0  0  0  0  0
   50.5180   34.6650   41.9240 H   0  0  0  0  0  0  0  0  0  0  0  0
   45.5170   35.5820   43.0590 C   0  0  0  0  0  0  0  0  0  0  0  0
   45.2800   36.7800   42.9230 O   0  0  0  0  0  0  0  0  0  0  0  0
   44.4070   35.2580   42.1240 C   0  0  0  0  0  0  0  0  0  0  0  0
   44.7180   34.4790   41.0090 C   0  0  0  0  0  0  0  0  0  0  0  0
   45.7400   34.0800   40.8960 H   0  0  0  0  0  0  0  0  0  0  0  0
   43.8760   34.1100   39.9670 C   0  0  0  0  0  3  0  0  0  0  0  0
   42.5850   34.5870   40.0750 C   0  0  0  0  0  0  0  0  0  0  0  0
   41.7130   34.2810   39.0980 N   0  0  0  0  0  0  0  0  0  0  0  0
   40.4220   34.7280   39.1230 C   0  0  0  0  0  0  0  0  0  0  0  0
   39.7090   34.4910   38.3430 H   0  0  0  0  0  0  0  0  0  0  0  0
   40.0280   35.5120   40.1960 C   0  0  0  0  0  3  0  0  0  0  0  0
   40.9140   35.8450   41.2300 C   0  0  0  0  0  3  0  0  0  0  0  0
   42.2130   35.3630   41.1500 C   0  0  0  0  0  0  0  0  0  0  0  0
   43.0800   35.7040   42.1640 C   0  0  0  0  0  3  0  0  0  0  0  0
  1  6  1  0  0  0  0
  2  1  2  0  0  0  0
  2  3  1  0  0  0  0
  3  4  2  0  0  0  0
  4  5  1  0  0  0  0
  5  8  1  0  0  0  0
  6  5  2  0  0  0  0
  7  3  1  0  0  0  0
  9 11  1  0  0  0  0
  9  2  1  0  0  0  0
 10  9  1  0  0  0  0
 10 13  1  0  0  0  0
 10 11  1  0  0  0  0
 11 15  1  0  0  0  0
 12  9  1  0  0  0  0
 14 10  1  0  0  0  0
 16 11  1  0  0  0  0
 17  1  1  0  0  0  0
 18 17  2  0  0  0  0
 19 30  1  0  0  0  0
 19 17  1  0  0  0  0
 20 19  2  0  0  0  0
 21 20  1  0  0  0  0
 22 23  2  0  0  0  0
 22 20  1  0  0  0  0
 23 29  1  0  0  0  0
 24 25  2  0  0  0  0
 24 23  1  0  0  0  0
 25 27  1  0  0  0  0
 26 25  1  0  0  0  0
 27 28  2  0  0  0  0
 29 28  1  0  0  0  0
 29 30  2  0  0  0  0
M  END
>  <minimizedAffinity>
-6.33462858

>  <minimizedRMSD>
1.05425489

$$$$
