
 OpenBabel03252507173D

 32 35  0  0  0  0  0  0  0  0999 V2000
   44.6420   35.9110   43.4000 C   0  0  0  0  0  0  0  0  0  0  0  0
   45.0150   34.6770   42.8320 C   0  0  0  0  0  0  0  0  0  0  0  0
   45.3100   33.6480   43.7250 C   0  0  0  0  0  0  0  0  0  0  0  0
   45.2280   33.8660   45.0420 N   0  0  0  0  0  0  0  0  0  0  0  0
   44.8640   35.0710   45.5680 C   0  0  0  0  0  0  0  0  0  0  0  0
   44.5800   36.0600   44.7270 N   0  0  0  0  0  0  0  0  0  0  0  0
   44.3970   36.7610   42.7640 H   0  0  0  0  0  0  0  0  0  0  0  0
   44.8580   35.0490   46.6510 H   0  0  0  0  0  0  0  0  0  0  0  0
   45.7020   32.3460   43.1710 C   0  0  0  0  0  0  0  0  0  0  0  0
   44.7500   31.3710   42.9950 C   0  0  0  0  0  0  0  0  0  0  0  0
   45.1760   30.1650   42.4700 C   0  0  0  0  0  0  0  0  0  0  0  0
   46.4810   29.8740   42.1120 C   0  0  0  0  0  0  0  0  0  0  0  0
   47.3790   30.9180   42.3220 C   0  0  0  0  0  0  0  0  0  0  0  0
   46.9680   32.0910   42.8330 N   0  0  0  0  0  0  0  0  0  0  0  0
   43.7060   31.5140   43.2480 H   0  0  0  0  0  0  0  0  0  0  0  0
   44.4530   29.3620   42.3140 H   0  0  0  0  0  0  0  0  0  0  0  0
   46.7840   28.9360   41.7090 H   0  0  0  0  0  0  0  0  0  0  0  0
   48.4220   30.7770   42.0700 H   0  0  0  0  0  0  0  0  0  0  0  0
   45.0830   34.5020   41.4220 C   0  0  0  0  0  0  0  0  0  0  0  0
   46.2370   34.5510   40.8910 O   0  0  0  0  0  0  0  0  0  0  0  0
   43.9060   34.2740   40.5910 C   0  0  0  0  0  0  0  0  0  0  0  0
   42.9960   35.2580   40.2320 C   0  0  0  0  0  0  0  0  0  0  0  0
   43.2040   36.2480   40.6100 H   0  0  0  0  0  0  0  0  0  0  0  0
   41.9120   34.8970   39.4320 C   0  0  0  0  0  3  0  0  0  0  0  0
   41.7500   33.5940   39.0090 C   0  0  0  0  0  0  0  0  0  0  0  0
   40.6880   33.3020   38.2400 N   0  0  0  0  0  0  0  0  0  0  0  0
   40.4660   32.0350   37.7870 C   0  0  0  0  0  0  0  0  0  0  0  0
   39.5870   31.8940   37.1740 H   0  0  0  0  0  0  0  0  0  0  0  0
   41.3580   31.0110   38.1230 C   0  0  0  0  0  3  0  0  0  0  0  0
   42.4610   31.3250   38.9250 C   0  0  0  0  0  3  0  0  0  0  0  0
   42.6480   32.6140   39.3610 C   0  0  0  0  0  0  0  0  0  0  0  0
   43.7240   32.9580   40.1520 C   0  0  0  0  0  3  0  0  0  0  0  0
  1  6  1  0  0  0  0
  2  1  2  0  0  0  0
  2  3  1  0  0  0  0
  3  4  2  0  0  0  0
  4  5  1  0  0  0  0
  5  8  1  0  0  0  0
  6  5  2  0  0  0  0
  7  1  1  0  0  0  0
  9  3  1  0  0  0  0
 10  9  1  0  0  0  0
 10 15  1  0  0  0  0
 11 10  2  0  0  0  0
 12 13  2  0  0  0  0
 12 11  1  0  0  0  0
 13 14  1  0  0  0  0
 14  9  2  0  0  0  0
 16 11  1  0  0  0  0
 17 12  1  0  0  0  0
 18 13  1  0  0  0  0
 19  2  1  0  0  0  0
 20 19  2  0  0  0  0
 21 19  1  0  0  0  0
 22 21  1  0  0  0  0
 22 23  1  0  0  0  0
 24 22  2  0  0  0  0
 25 31  1  0  0  0  0
 25 24  1  0  0  0  0
 26 25  2  0  0  0  0
 27 29  2  0  0  0  0
 27 26  1  0  0  0  0
 28 27  1  0  0  0  0
 29 30  1  0  0  0  0
 30 31  2  0  0  0  0
 31 32  1  0  0  0  0
 32 21  2  0  0  0  0
M  END
>  <minimizedAffinity>
-4.8722949

>  <minimizedRMSD>
2.08551073

$$$$
