
 OpenBabel03252507173D

 32 35  0  0  0  0  0  0  0  0999 V2000
   45.3550   36.1950   43.3680 C   0  0  0  0  0  0  0  0  0  0  0  0
   45.9810   34.9810   43.0250 C   0  0  0  0  0  0  0  0  0  0  0  0
   45.8810   33.9480   43.9550 C   0  0  0  0  0  0  0  0  0  0  0  0
   45.2150   34.1440   45.0990 N   0  0  0  0  0  0  0  0  0  0  0  0
   44.6180   35.3310   45.4090 C   0  0  0  0  0  0  0  0  0  0  0  0
   44.7050   36.3240   44.5300 N   0  0  0  0  0  0  0  0  0  0  0  0
   45.3910   37.0480   42.6900 H   0  0  0  0  0  0  0  0  0  0  0  0
   44.1310   35.2930   46.3760 H   0  0  0  0  0  0  0  0  0  0  0  0
   46.5200   32.6660   43.6330 C   0  0  0  0  0  0  0  0  0  0  0  0
   45.7460   31.6080   43.2200 C   0  0  0  0  0  0  0  0  0  0  0  0
   46.4000   30.4260   42.9310 C   0  0  0  0  0  0  0  0  0  0  0  0
   47.7680   30.2350   43.0260 C   0  0  0  0  0  0  0  0  0  0  0  0
   48.4760   31.3560   43.4500 C   0  0  0  0  0  0  0  0  0  0  0  0
   47.8410   32.5070   43.7330 N   0  0  0  0  0  0  0  0  0  0  0  0
   44.6680   31.6710   43.1190 H   0  0  0  0  0  0  0  0  0  0  0  0
   45.8240   29.5600   42.6010 H   0  0  0  0  0  0  0  0  0  0  0  0
   48.2490   29.3120   42.7970 H   0  0  0  0  0  0  0  0  0  0  0  0
   49.5510   31.2960   43.5530 H   0  0  0  0  0  0  0  0  0  0  0  0
   46.6750   34.8290   41.7920 C   0  0  0  0  0  0  0  0  0  0  0  0
   47.8570   35.2930   41.7350 O   0  0  0  0  0  0  0  0  0  0  0  0
   46.0900   34.1750   40.6270 C   0  0  0  0  0  0  0  0  0  0  0  0
   44.7330   33.9340   40.4620 C   0  0  0  0  0  0  0  0  0  0  0  0
   44.0960   34.2660   41.2700 H   0  0  0  0  0  0  0  0  0  0  0  0
   44.3110   33.2970   39.2940 C   0  0  0  0  0  3  0  0  0  0  0  0
   45.2200   32.9180   38.3300 C   0  0  0  0  0  0  0  0  0  0  0  0
   44.7590   32.3090   37.2250 N   0  0  0  0  0  0  0  0  0  0  0  0
   45.6010   31.9070   36.2300 C   0  0  0  0  0  0  0  0  0  0  0  0
   45.1400   31.4250   35.3790 H   0  0  0  0  0  0  0  0  0  0  0  0
   46.9760   32.1290   36.3540 C   0  0  0  0  0  3  0  0  0  0  0  0
   47.4480   32.7640   37.5090 C   0  0  0  0  0  3  0  0  0  0  0  0
   46.5650   33.1540   38.4870 C   0  0  0  0  0  0  0  0  0  0  0  0
   46.9950   33.7820   39.6370 C   0  0  0  0  0  3  0  0  0  0  0  0
  1  6  1  0  0  0  0
  2  1  2  0  0  0  0
  2  3  1  0  0  0  0
  3  4  2  0  0  0  0
  4  5  1  0  0  0  0
  5  8  1  0  0  0  0
  6  5  2  0  0  0  0
  7  1  1  0  0  0  0
  9 14  1  0  0  0  0
  9  3  1  0  0  0  0
 10  9  2  0  0  0  0
 11 12  2  0  0  0  0
 11 10  1  0  0  0  0
 12 13  1  0  0  0  0
 13 18  1  0  0  0  0
 13 14  2  0  0  0  0
 15 10  1  0  0  0  0
 16 11  1  0  0  0  0
 17 12  1  0  0  0  0
 19  2  1  0  0  0  0
 20 19  2  0  0  0  0
 21 19  1  0  0  0  0
 22 21  1  0  0  0  0
 22 23  1  0  0  0  0
 24 22  2  0  0  0  0
 25 31  1  0  0  0  0
 25 24  1  0  0  0  0
 26 25  2  0  0  0  0
 27 29  2  0  0  0  0
 27 26  1  0  0  0  0
 28 27  1  0  0  0  0
 29 30  1  0  0  0  0
 30 31  2  0  0  0  0
 31 32  1  0  0  0  0
 32 21  2  0  0  0  0
M  END
>  <minimizedAffinity>
-5.16713905

>  <minimizedRMSD>
0.366690278

$$$$
