
 OpenBabel03242523173D

 30 33  0  0  0  0  0  0  0  0999 V2000
   37.7690   25.9120   42.1610 C   0  0  0  0  0  0  0  0  0  0  0  0
   39.0430   25.5290   42.4070 C   0  0  0  0  0  0  0  0  0  0  0  0
   39.5470   24.5680   41.5600 C   0  0  0  0  0  0  0  0  0  0  0  0
   38.7230   24.0830   40.5450 N   0  0  0  0  0  0  0  0  0  0  0  0
   37.4690   24.5080   40.3560 C   0  0  0  0  0  0  0  0  0  0  0  0
   36.9480   25.4600   41.1860 N   0  0  0  0  0  0  0  0  0  0  0  0
   40.5680   24.2040   41.6940 H   0  0  0  0  0  0  0  0  0  0  0  0
   37.1160   23.9460   39.5040 H   0  0  0  0  0  0  0  0  0  0  0  0
   39.8490   25.9830   43.4790 C   0  0  0  0  0  0  0  0  0  0  0  0
   41.1940   25.9130   43.6800 C   0  0  0  0  0  0  0  0  0  0  0  0
   40.7040   27.3080   43.2810 C   0  0  0  0  0  0  0  0  0  0  0  0
   39.1360   26.3920   44.3180 H   0  0  0  0  0  0  0  0  0  0  0  0
   41.8930   25.4050   42.9340 H   0  0  0  0  0  0  0  0  0  0  0  0
   41.7020   25.9320   44.6810 H   0  0  0  0  0  0  0  0  0  0  0  0
   40.8970   27.5690   42.2160 H   0  0  0  0  0  0  0  0  0  0  0  0
   40.6970   28.0850   44.0180 H   0  0  0  0  0  0  0  0  0  0  0  0
   36.9800   26.9650   42.8070 C   0  0  0  0  0  0  0  0  0  0  0  0
   36.2050   27.3870   43.6620 O   0  0  0  0  0  0  0  0  0  0  0  0
   37.0640   28.3260   42.2130 C   0  0  0  0  0  0  0  0  0  0  0  0
   36.0130   28.7280   41.3880 C   0  0  0  0  0  0  0  0  0  0  0  0
   35.1410   28.0650   41.2610 H   0  0  0  0  0  0  0  0  0  0  0  0
   35.8990   29.9110   40.6690 C   0  0  0  0  0  3  0  0  0  0  0  0
   36.9720   30.7710   40.8070 C   0  0  0  0  0  0  0  0  0  0  0  0
   36.9420   31.9330   40.1300 N   0  0  0  0  0  0  0  0  0  0  0  0
   37.9700   32.8300   40.2000 C   0  0  0  0  0  0  0  0  0  0  0  0
   37.9600   33.7700   39.6610 H   0  0  0  0  0  0  0  0  0  0  0  0
   39.0580   32.5090   40.9970 C   0  0  0  0  0  3  0  0  0  0  0  0
   39.1160   31.3070   41.7130 C   0  0  0  0  0  3  0  0  0  0  0  0
   38.0420   30.4340   41.6040 C   0  0  0  0  0  0  0  0  0  0  0  0
   38.1120   29.2490   42.3020 C   0  0  0  0  0  3  0  0  0  0  0  0
  1  2  1  0  0  0  0
  1 17  1  0  0  0  0
  2  9  1  0  0  0  0
  3  7  1  0  0  0  0
  3  2  2  0  0  0  0
  4  3  1  0  0  0  0
  5  4  2  0  0  0  0
  5  6  1  0  0  0  0
  6  1  2  0  0  0  0
  8  5  1  0  0  0  0
  9 10  1  0  0  0  0
  9 12  1  0  0  0  0
 10 14  1  0  0  0  0
 11  9  1  0  0  0  0
 11 10  1  0  0  0  0
 11 16  1  0  0  0  0
 13 10  1  0  0  0  0
 15 11  1  0  0  0  0
 17 18  2  0  0  0  0
 19 30  1  0  0  0  0
 19 17  1  0  0  0  0
 20 19  2  0  0  0  0
 21 20  1  0  0  0  0
 22 23  2  0  0  0  0
 22 20  1  0  0  0  0
 23 29  1  0  0  0  0
 24 25  2  0  0  0  0
 24 23  1  0  0  0  0
 25 27  1  0  0  0  0
 26 25  1  0  0  0  0
 27 28  2  0  0  0  0
 29 28  1  0  0  0  0
 29 30  2  0  0  0  0
M  END
>  <minimizedAffinity>
-5.68029356

$$$$

 OpenBabel03242523173D

 30 33  0  0  0  0  0  0  0  0999 V2000
   38.3230   26.2480   42.6920 C   0  0  0  0  0  0  0  0  0  0  0  0
   38.4200   25.3050   41.7260 C   0  0  0  0  0  0  0  0  0  0  0  0
   39.5670   24.5450   41.7530 C   0  0  0  0  0  0  0  0  0  0  0  0
   40.5080   24.8030   42.7490 N   0  0  0  0  0  0  0  0  0  0  0  0
   40.3490   25.7530   43.6770 C   0  0  0  0  0  0  0  0  0  0  0  0
   39.2180   26.5200   43.6680 N   0  0  0  0  0  0  0  0  0  0  0  0
   39.7210   23.7630   41.0060 H   0  0  0  0  0  0  0  0  0  0  0  0
   41.2380   25.6920   44.2860 H   0  0  0  0  0  0  0  0  0  0  0  0
   37.4860   25.0930   40.6840 C   0  0  0  0  0  0  0  0  0  0  0  0
   37.3840   24.0940   39.7630 C   0  0  0  0  0  0  0  0  0  0  0  0
   36.3490   24.0020   40.8880 C   0  0  0  0  0  0  0  0  0  0  0  0
   36.7830   26.0320   40.6330 H   0  0  0  0  0  0  0  0  0  0  0  0
   38.1340   23.2370   39.7130 H   0  0  0  0  0  0  0  0  0  0  0  0
   36.8860   24.1850   38.7600 H   0  0  0  0  0  0  0  0  0  0  0  0
   36.5870   23.2370   41.6620 H   0  0  0  0  0  0  0  0  0  0  0  0
   35.3250   24.2250   40.6690 H   0  0  0  0  0  0  0  0  0  0  0  0
   37.2050   27.1460   42.9970 C   0  0  0  0  0  0  0  0  0  0  0  0
   36.1890   27.4640   43.6110 O   0  0  0  0  0  0  0  0  0  0  0  0
   37.1260   28.4080   42.2150 C   0  0  0  0  0  0  0  0  0  0  0  0
   36.0590   28.5430   41.3270 C   0  0  0  0  0  0  0  0  0  0  0  0
   35.2860   27.7560   41.2860 H   0  0  0  0  0  0  0  0  0  0  0  0
   35.8110   29.5860   40.4440 C   0  0  0  0  0  3  0  0  0  0  0  0
   36.7550   30.5950   40.4700 C   0  0  0  0  0  0  0  0  0  0  0  0
   36.5920   31.6350   39.6330 N   0  0  0  0  0  0  0  0  0  0  0  0
   37.4890   32.6640   39.5860 C   0  0  0  0  0  0  0  0  0  0  0  0
   37.3710   33.5090   38.9170 H   0  0  0  0  0  0  0  0  0  0  0  0
   38.5840   32.6100   40.4340 C   0  0  0  0  0  3  0  0  0  0  0  0
   38.7780   31.5410   41.3170 C   0  0  0  0  0  3  0  0  0  0  0  0
   37.8340   30.5230   41.3210 C   0  0  0  0  0  0  0  0  0  0  0  0
   38.0390   29.4690   42.1830 C   0  0  0  0  0  3  0  0  0  0  0  0
  1 17  1  0  0  0  0
  1  6  1  0  0  0  0
  2  3  1  0  0  0  0
  2  1  2  0  0  0  0
  3  4  2  0  0  0  0
  4  5  1  0  0  0  0
  5  8  1  0  0  0  0
  6  5  2  0  0  0  0
  7  3  1  0  0  0  0
  9 11  1  0  0  0  0
  9  2  1  0  0  0  0
 10  9  1  0  0  0  0
 10 11  1  0  0  0  0
 11 15  1  0  0  0  0
 12  9  1  0  0  0  0
 13 10  1  0  0  0  0
 14 10  1  0  0  0  0
 16 11  1  0  0  0  0
 17 18  2  0  0  0  0
 19 17  1  0  0  0  0
 20 19  2  0  0  0  0
 21 20  1  0  0  0  0
 22 23  2  0  0  0  0
 22 20  1  0  0  0  0
 23 29  1  0  0  0  0
 24 23  1  0  0  0  0
 25 24  2  0  0  0  0
 25 27  1  0  0  0  0
 26 25  1  0  0  0  0
 27 28  2  0  0  0  0
 28 29  1  0  0  0  0
 29 30  2  0  0  0  0
 30 19  1  0  0  0  0
M  END
>  <minimizedAffinity>
-5.64384174

$$$$

 OpenBabel03242523173D

 30 33  0  0  0  0  0  0  0  0999 V2000
   36.6070   30.5470   39.7290 C   0  0  0  0  0  0  0  0  0  0  0  0
   36.9440   30.6420   38.4220 C   0  0  0  0  0  0  0  0  0  0  0  0
   37.6620   31.7640   38.0750 C   0  0  0  0  0  0  0  0  0  0  0  0
   37.9750   32.6850   39.0750 N   0  0  0  0  0  0  0  0  0  0  0  0
   37.6100   32.5280   40.3530 C   0  0  0  0  0  0  0  0  0  0  0  0
   36.8960   31.4230   40.7180 N   0  0  0  0  0  0  0  0  0  0  0  0
   37.9710   31.9150   37.0390 H   0  0  0  0  0  0  0  0  0  0  0  0
   38.0040   33.3980   40.8570 H   0  0  0  0  0  0  0  0  0  0  0  0
   36.5680   29.7320   37.4050 C   0  0  0  0  0  0  0  0  0  0  0  0
   36.9090   29.6700   36.0880 C   0  0  0  0  0  0  0  0  0  0  0  0
   37.6080   28.6200   36.9540 C   0  0  0  0  0  0  0  0  0  0  0  0
   35.7590   29.0070   37.8510 H   0  0  0  0  0  0  0  0  0  0  0  0
   37.5940   30.4430   35.6020 H   0  0  0  0  0  0  0  0  0  0  0  0
   36.2960   29.1880   35.2800 H   0  0  0  0  0  0  0  0  0  0  0  0
   38.6680   28.8630   37.1970 H   0  0  0  0  0  0  0  0  0  0  0  0
   37.3150   27.5940   36.8630 H   0  0  0  0  0  0  0  0  0  0  0  0
   35.9360   29.4500   40.4330 C   0  0  0  0  0  0  0  0  0  0  0  0
   34.9500   28.8910   40.9060 O   0  0  0  0  0  0  0  0  0  0  0  0
   36.7910   28.3190   40.8820 C   0  0  0  0  0  0  0  0  0  0  0  0
   36.6240   27.0960   40.2310 C   0  0  0  0  0  0  0  0  0  0  0  0
   35.9310   27.0280   39.3770 H   0  0  0  0  0  0  0  0  0  0  0  0
   37.2470   25.8880   40.5160 C   0  0  0  0  0  3  0  0  0  0  0  0
   38.1300   25.9340   41.5780 C   0  0  0  0  0  0  0  0  0  0  0  0
   38.7630   24.8000   41.9240 N   0  0  0  0  0  0  0  0  0  0  0  0
   39.6380   24.7580   42.9730 C   0  0  0  0  0  0  0  0  0  0  0  0
   40.1560   23.8520   43.2630 H   0  0  0  0  0  0  0  0  0  0  0  0
   39.8610   25.9300   43.6790 C   0  0  0  0  0  3  0  0  0  0  0  0
   39.2170   27.1270   43.3400 C   0  0  0  0  0  3  0  0  0  0  0  0
   38.3380   27.1090   42.2650 C   0  0  0  0  0  0  0  0  0  0  0  0
   37.6990   28.2860   41.9460 C   0  0  0  0  0  3  0  0  0  0  0  0
  1 17  1  0  0  0  0
  1  6  1  0  0  0  0
  2  1  2  0  0  0  0
  3  2  1  0  0  0  0
  3  4  2  0  0  0  0
  4  5  1  0  0  0  0
  5  6  2  0  0  0  0
  5  8  1  0  0  0  0
  7  3  1  0  0  0  0
  9 12  1  0  0  0  0
  9  2  1  0  0  0  0
 10 11  1  0  0  0  0
 10  9  1  0  0  0  0
 11 15  1  0  0  0  0
 11  9  1  0  0  0  0
 13 10  1  0  0  0  0
 14 10  1  0  0  0  0
 16 11  1  0  0  0  0
 17 19  1  0  0  0  0
 17 18  2  0  0  0  0
 19 30  1  0  0  0  0
 20 22  1  0  0  0  0
 20 19  2  0  0  0  0
 21 20  1  0  0  0  0
 22 23  2  0  0  0  0
 23 24  1  0  0  0  0
 23 29  1  0  0  0  0
 24 25  2  0  0  0  0
 25 26  1  0  0  0  0
 25 27  1  0  0  0  0
 28 27  2  0  0  0  0
 29 28  1  0  0  0  0
 30 29  2  0  0  0  0
M  END
>  <minimizedAffinity>
-5.4866724

$$$$

 OpenBabel03242523173D

 30 33  0  0  0  0  0  0  0  0999 V2000
   37.4330   29.1100   42.1610 C   0  0  0  0  0  0  0  0  0  0  0  0
   38.7180   29.2040   42.5750 C   0  0  0  0  0  0  0  0  0  0  0  0
   39.2380   28.0700   43.1560 C   0  0  0  0  0  0  0  0  0  0  0  0
   38.4170   26.9480   43.2670 N   0  0  0  0  0  0  0  0  0  0  0  0
   37.1510   26.9220   42.8350 C   0  0  0  0  0  0  0  0  0  0  0  0
   36.6150   28.0370   42.2560 N   0  0  0  0  0  0  0  0  0  0  0  0
   40.2680   28.0660   43.5180 H   0  0  0  0  0  0  0  0  0  0  0  0
   36.8050   25.9260   43.0640 H   0  0  0  0  0  0  0  0  0  0  0  0
   39.5210   30.3680   42.5120 C   0  0  0  0  0  0  0  0  0  0  0  0
   40.8720   30.5280   42.5740 C   0  0  0  0  0  0  0  0  0  0  0  0
   40.2980   30.6870   41.1640 C   0  0  0  0  0  0  0  0  0  0  0  0
   38.8060   31.3000   42.4950 H   0  0  0  0  0  0  0  0  0  0  0  0
   41.5810   29.6450   42.7200 H   0  0  0  0  0  0  0  0  0  0  0  0
   41.4010   31.4620   42.9050 H   0  0  0  0  0  0  0  0  0  0  0  0
   40.4530   29.8010   40.5080 H   0  0  0  0  0  0  0  0  0  0  0  0
   40.2650   31.6640   40.7250 H   0  0  0  0  0  0  0  0  0  0  0  0
   36.6240   30.0890   41.4280 C   0  0  0  0  0  0  0  0  0  0  0  0
   36.0120   31.1490   41.3260 O   0  0  0  0  0  0  0  0  0  0  0  0
   36.2720   29.7520   40.0240 C   0  0  0  0  0  0  0  0  0  0  0  0
   37.2480   29.9720   39.0510 C   0  0  0  0  0  0  0  0  0  0  0  0
   38.2510   30.3140   39.3580 H   0  0  0  0  0  0  0  0  0  0  0  0
   37.1340   29.8050   37.6770 C   0  0  0  0  0  3  0  0  0  0  0  0
   35.8930   29.3700   37.2530 C   0  0  0  0  0  0  0  0  0  0  0  0
   35.7000   29.1980   35.9340 N   0  0  0  0  0  0  0  0  0  0  0  0
   34.4970   28.7870   35.4330 C   0  0  0  0  0  0  0  0  0  0  0  0
   34.3260   28.6440   34.3720 H   0  0  0  0  0  0  0  0  0  0  0  0
   33.4670   28.5480   36.3310 C   0  0  0  0  0  3  0  0  0  0  0  0
   33.6400   28.7180   37.7100 C   0  0  0  0  0  3  0  0  0  0  0  0
   34.8850   29.1380   38.1610 C   0  0  0  0  0  0  0  0  0  0  0  0
   35.0430   29.3140   39.5180 C   0  0  0  0  0  3  0  0  0  0  0  0
  1  6  2  0  0  0  0
  1  2  1  0  0  0  0
  2  3  2  0  0  0  0
  3  4  1  0  0  0  0
  3  7  1  0  0  0  0
  5  8  1  0  0  0  0
  5  4  2  0  0  0  0
  6  5  1  0  0  0  0
  9 10  1  0  0  0  0
  9  2  1  0  0  0  0
 10 13  1  0  0  0  0
 10 14  1  0  0  0  0
 11  9  1  0  0  0  0
 11 10  1  0  0  0  0
 12  9  1  0  0  0  0
 15 11  1  0  0  0  0
 16 11  1  0  0  0  0
 17  1  1  0  0  0  0
 18 17  2  0  0  0  0
 19 17  1  0  0  0  0
 20 21  1  0  0  0  0
 20 19  2  0  0  0  0
 22 20  1  0  0  0  0
 23 22  2  0  0  0  0
 23 29  1  0  0  0  0
 24 23  1  0  0  0  0
 25 24  2  0  0  0  0
 25 27  1  0  0  0  0
 26 25  1  0  0  0  0
 27 28  2  0  0  0  0
 28 29  1  0  0  0  0
 29 30  2  0  0  0  0
 30 19  1  0  0  0  0
M  END
>  <minimizedAffinity>
-5.43537188

$$$$

 OpenBabel03242523173D

 30 33  0  0  0  0  0  0  0  0999 V2000
   38.1790   29.7480   41.5450 C   0  0  0  0  0  0  0  0  0  0  0  0
   38.3710   28.4760   41.9610 C   0  0  0  0  0  0  0  0  0  0  0  0
   39.6560   28.1640   42.3440 C   0  0  0  0  0  0  0  0  0  0  0  0
   40.6280   29.1620   42.2720 N   0  0  0  0  0  0  0  0  0  0  0  0
   40.3690   30.4050   41.8500 C   0  0  0  0  0  0  0  0  0  0  0  0
   39.1010   30.7350   41.4650 N   0  0  0  0  0  0  0  0  0  0  0  0
   39.8930   27.1570   42.6920 H   0  0  0  0  0  0  0  0  0  0  0  0
   41.3170   30.9180   41.9180 H   0  0  0  0  0  0  0  0  0  0  0  0
   37.3910   27.4550   41.9710 C   0  0  0  0  0  0  0  0  0  0  0  0
   37.3630   26.2460   42.5990 C   0  0  0  0  0  0  0  0  0  0  0  0
   36.4650   27.2990   43.2530 C   0  0  0  0  0  0  0  0  0  0  0  0
   36.5450   27.7590   41.2150 H   0  0  0  0  0  0  0  0  0  0  0  0
   38.2320   25.8750   43.2380 H   0  0  0  0  0  0  0  0  0  0  0  0
   36.7670   25.3550   42.2650 H   0  0  0  0  0  0  0  0  0  0  0  0
   36.8920   27.7470   44.1790 H   0  0  0  0  0  0  0  0  0  0  0  0
   35.4020   27.2040   43.1590 H   0  0  0  0  0  0  0  0  0  0  0  0
   36.9320   30.4190   41.1660 C   0  0  0  0  0  0  0  0  0  0  0  0
   36.0040   31.2010   41.3600 O   0  0  0  0  0  0  0  0  0  0  0  0
   36.3470   30.0550   39.8480 C   0  0  0  0  0  0  0  0  0  0  0  0
   35.1260   29.3810   39.8560 C   0  0  0  0  0  0  0  0  0  0  0  0
   34.6100   29.2070   40.8150 H   0  0  0  0  0  0  0  0  0  0  0  0
   34.4240   28.8780   38.7680 C   0  0  0  0  0  3  0  0  0  0  0  0
   35.0350   29.0830   37.5460 C   0  0  0  0  0  0  0  0  0  0  0  0
   34.4230   28.6120   36.4450 N   0  0  0  0  0  0  0  0  0  0  0  0
   34.9700   28.7590   35.2020 C   0  0  0  0  0  0  0  0  0  0  0  0
   34.4890   28.3850   34.3070 H   0  0  0  0  0  0  0  0  0  0  0  0
   36.1880   29.4150   35.1030 C   0  0  0  0  0  3  0  0  0  0  0  0
   36.8470   29.9170   36.2310 C   0  0  0  0  0  3  0  0  0  0  0  0
   36.2430   29.7380   37.4690 C   0  0  0  0  0  0  0  0  0  0  0  0
   36.9050   30.2240   38.5750 C   0  0  0  0  0  3  0  0  0  0  0  0
  1  2  1  0  0  0  0
  2  9  1  0  0  0  0
  2  3  2  0  0  0  0
  3  7  1  0  0  0  0
  4  3  1  0  0  0  0
  5  8  1  0  0  0  0
  5  4  2  0  0  0  0
  6  1  2  0  0  0  0
  6  5  1  0  0  0  0
  9 10  1  0  0  0  0
  9 11  1  0  0  0  0
 10 13  1  0  0  0  0
 10 11  1  0  0  0  0
 11 15  1  0  0  0  0
 12  9  1  0  0  0  0
 14 10  1  0  0  0  0
 16 11  1  0  0  0  0
 17 18  2  0  0  0  0
 17  1  1  0  0  0  0
 19 20  1  0  0  0  0
 19 17  1  0  0  0  0
 20 21  1  0  0  0  0
 22 20  2  0  0  0  0
 23 22  1  0  0  0  0
 24 23  2  0  0  0  0
 25 24  1  0  0  0  0
 26 25  1  0  0  0  0
 27 25  2  0  0  0  0
 27 28  1  0  0  0  0
 28 29  2  0  0  0  0
 29 23  1  0  0  0  0
 29 30  1  0  0  0  0
 30 19  2  0  0  0  0
M  END
>  <minimizedAffinity>
-5.35423899

$$$$

 OpenBabel03242523173D

 30 33  0  0  0  0  0  0  0  0999 V2000
   37.4240   30.3170   41.4200 C   0  0  0  0  0  0  0  0  0  0  0  0
   36.4890   30.3320   40.4430 C   0  0  0  0  0  0  0  0  0  0  0  0
   36.5740   31.3830   39.5580 C   0  0  0  0  0  0  0  0  0  0  0  0
   37.5920   32.3190   39.7380 N   0  0  0  0  0  0  0  0  0  0  0  0
   38.4880   32.2430   40.7290 C   0  0  0  0  0  0  0  0  0  0  0  0
   38.4200   31.2090   41.6190 N   0  0  0  0  0  0  0  0  0  0  0  0
   35.8550   31.4680   38.7400 H   0  0  0  0  0  0  0  0  0  0  0  0
   39.1260   33.1020   40.5860 H   0  0  0  0  0  0  0  0  0  0  0  0
   35.4230   29.4110   40.3060 C   0  0  0  0  0  0  0  0  0  0  0  0
   34.4650   29.2860   39.3460 C   0  0  0  0  0  0  0  0  0  0  0  0
   35.5680   28.2280   39.2550 C   0  0  0  0  0  0  0  0  0  0  0  0
   35.3950   28.7460   41.2740 H   0  0  0  0  0  0  0  0  0  0  0  0
   34.3960   30.0030   38.4610 H   0  0  0  0  0  0  0  0  0  0  0  0
   33.4580   28.8110   39.4930 H   0  0  0  0  0  0  0  0  0  0  0  0
   36.3170   28.4210   38.4540 H   0  0  0  0  0  0  0  0  0  0  0  0
   35.3400   27.2170   39.5270 H   0  0  0  0  0  0  0  0  0  0  0  0
   37.6670   29.3020   42.4500 C   0  0  0  0  0  0  0  0  0  0  0  0
   37.7480   28.9180   43.6150 O   0  0  0  0  0  0  0  0  0  0  0  0
   38.0210   27.9370   41.9770 C   0  0  0  0  0  0  0  0  0  0  0  0
   39.1950   27.8030   41.2360 C   0  0  0  0  0  0  0  0  0  0  0  0
   39.8450   28.6820   41.0880 H   0  0  0  0  0  0  0  0  0  0  0  0
   39.6940   26.6560   40.6310 C   0  0  0  0  0  3  0  0  0  0  0  0
   38.9100   25.5310   40.7990 C   0  0  0  0  0  0  0  0  0  0  0  0
   39.3200   24.3840   40.2310 N   0  0  0  0  0  0  0  0  0  0  0  0
   38.5930   23.2320   40.3370 C   0  0  0  0  0  0  0  0  0  0  0  0
   38.9100   22.3000   39.8840 H   0  0  0  0  0  0  0  0  0  0  0  0
   37.4070   23.2760   41.0550 C   0  0  0  0  0  3  0  0  0  0  0  0
   36.9570   24.4560   41.6590 C   0  0  0  0  0  3  0  0  0  0  0  0
   37.7370   25.5960   41.5180 C   0  0  0  0  0  0  0  0  0  0  0  0
   37.2810   26.7560   42.1040 C   0  0  0  0  0  3  0  0  0  0  0  0
  1  6  1  0  0  0  0
  1 17  1  0  0  0  0
  2  1  2  0  0  0  0
  3  4  2  0  0  0  0
  3  2  1  0  0  0  0
  4  5  1  0  0  0  0
  5  6  2  0  0  0  0
  7  3  1  0  0  0  0
  8  5  1  0  0  0  0
  9  2  1  0  0  0  0
  9 12  1  0  0  0  0
 10 14  1  0  0  0  0
 10  9  1  0  0  0  0
 11 10  1  0  0  0  0
 11 16  1  0  0  0  0
 11  9  1  0  0  0  0
 13 10  1  0  0  0  0
 15 11  1  0  0  0  0
 17 18  2  0  0  0  0
 19 30  1  0  0  0  0
 19 17  1  0  0  0  0
 20 19  2  0  0  0  0
 21 20  1  0  0  0  0
 22 23  2  0  0  0  0
 22 20  1  0  0  0  0
 23 29  1  0  0  0  0
 24 25  2  0  0  0  0
 24 23  1  0  0  0  0
 25 27  1  0  0  0  0
 26 25  1  0  0  0  0
 27 28  2  0  0  0  0
 29 28  1  0  0  0  0
 29 30  2  0  0  0  0
M  END
>  <minimizedAffinity>
-5.32736921

$$$$

 OpenBabel03242523173D

 30 33  0  0  0  0  0  0  0  0999 V2000
   36.1590   29.2740   38.5420 C   0  0  0  0  0  0  0  0  0  0  0  0
   37.0450   30.2190   38.1560 C   0  0  0  0  0  0  0  0  0  0  0  0
   37.2850   30.2890   36.8020 C   0  0  0  0  0  0  0  0  0  0  0  0
   36.6100   29.4010   35.9650 N   0  0  0  0  0  0  0  0  0  0  0  0
   35.7430   28.4870   36.4140 C   0  0  0  0  0  0  0  0  0  0  0  0
   35.4910   28.4000   37.7540 N   0  0  0  0  0  0  0  0  0  0  0  0
   37.9890   31.0260   36.4100 H   0  0  0  0  0  0  0  0  0  0  0  0
   35.4030   27.9740   35.5280 H   0  0  0  0  0  0  0  0  0  0  0  0
   37.7690   31.0740   39.0210 C   0  0  0  0  0  0  0  0  0  0  0  0
   38.4190   32.2480   38.7830 C   0  0  0  0  0  0  0  0  0  0  0  0
   37.0840   32.4200   39.5130 C   0  0  0  0  0  0  0  0  0  0  0  0
   37.8380   30.5510   40.0700 H   0  0  0  0  0  0  0  0  0  0  0  0
   38.4740   32.7100   37.7410 H   0  0  0  0  0  0  0  0  0  0  0  0
   39.2710   32.6530   39.3920 H   0  0  0  0  0  0  0  0  0  0  0  0
   36.2530   32.7720   38.8600 H   0  0  0  0  0  0  0  0  0  0  0  0
   37.0920   32.6980   40.5470 H   0  0  0  0  0  0  0  0  0  0  0  0
   35.6180   29.0050   39.8790 C   0  0  0  0  0  0  0  0  0  0  0  0
   34.7320   29.0310   40.7290 O   0  0  0  0  0  0  0  0  0  0  0  0
   36.5260   28.3340   40.8470 C   0  0  0  0  0  0  0  0  0  0  0  0
   37.0100   29.1040   41.9060 C   0  0  0  0  0  0  0  0  0  0  0  0
   36.6560   30.1410   42.0270 H   0  0  0  0  0  0  0  0  0  0  0  0
   37.9180   28.7270   42.8870 C   0  0  0  0  0  3  0  0  0  0  0  0
   38.3800   27.4300   42.7730 C   0  0  0  0  0  0  0  0  0  0  0  0
   39.2730   26.9950   43.6790 N   0  0  0  0  0  0  0  0  0  0  0  0
   39.7920   25.7320   43.6260 C   0  0  0  0  0  0  0  0  0  0  0  0
   40.5120   25.3680   44.3490 H   0  0  0  0  0  0  0  0  0  0  0  0
   39.3670   24.8990   42.6020 C   0  0  0  0  0  3  0  0  0  0  0  0
   38.4370   25.3240   41.6460 C   0  0  0  0  0  3  0  0  0  0  0  0
   37.9450   26.6190   41.7500 C   0  0  0  0  0  0  0  0  0  0  0  0
   37.0400   27.0340   40.7980 C   0  0  0  0  0  3  0  0  0  0  0  0
  1 17  1  0  0  0  0
  2  1  1  0  0  0  0
  2  9  1  0  0  0  0
  3  2  2  0  0  0  0
  4  5  2  0  0  0  0
  4  3  1  0  0  0  0
  5  6  1  0  0  0  0
  6  1  2  0  0  0  0
  7  3  1  0  0  0  0
  8  5  1  0  0  0  0
  9 11  1  0  0  0  0
  9 12  1  0  0  0  0
 10  9  1  0  0  0  0
 10 14  1  0  0  0  0
 10 11  1  0  0  0  0
 11 16  1  0  0  0  0
 13 10  1  0  0  0  0
 15 11  1  0  0  0  0
 17 18  2  0  0  0  0
 17 19  1  0  0  0  0
 19 20  1  0  0  0  0
 20 21  1  0  0  0  0
 20 22  2  0  0  0  0
 23 22  1  0  0  0  0
 23 24  1  0  0  0  0
 25 24  2  0  0  0  0
 25 26  1  0  0  0  0
 27 25  1  0  0  0  0
 28 29  1  0  0  0  0
 28 27  2  0  0  0  0
 29 23  2  0  0  0  0
 30 19  2  0  0  0  0
 30 29  1  0  0  0  0
M  END
>  <minimizedAffinity>
-5.262043

$$$$

 OpenBabel03242523173D

 30 33  0  0  0  0  0  0  0  0999 V2000
   38.3910   31.1020   40.3790 C   0  0  0  0  0  0  0  0  0  0  0  0
   38.5880   31.4730   39.0930 C   0  0  0  0  0  0  0  0  0  0  0  0
   39.8860   31.7870   38.7590 C   0  0  0  0  0  0  0  0  0  0  0  0
   40.8640   31.6980   39.7490 N   0  0  0  0  0  0  0  0  0  0  0  0
   40.6000   31.3220   41.0060 C   0  0  0  0  0  0  0  0  0  0  0  0
   39.3180   31.0070   41.3590 N   0  0  0  0  0  0  0  0  0  0  0  0
   40.1280   32.0970   37.7400 H   0  0  0  0  0  0  0  0  0  0  0  0
   41.5560   31.3540   41.5070 H   0  0  0  0  0  0  0  0  0  0  0  0
   37.5780   31.6190   38.1130 C   0  0  0  0  0  0  0  0  0  0  0  0
   37.6520   31.6970   36.7540 C   0  0  0  0  0  0  0  0  0  0  0  0
   37.1470   30.3460   37.2660 C   0  0  0  0  0  0  0  0  0  0  0  0
   36.5560   31.7790   38.6690 H   0  0  0  0  0  0  0  0  0  0  0  0
   38.6490   31.6730   36.2000 H   0  0  0  0  0  0  0  0  0  0  0  0
   36.8930   32.1900   36.0900 H   0  0  0  0  0  0  0  0  0  0  0  0
   37.9120   29.5360   37.2410 H   0  0  0  0  0  0  0  0  0  0  0  0
   36.1140   30.0950   37.1320 H   0  0  0  0  0  0  0  0  0  0  0  0
   37.1660   30.6200   41.0240 C   0  0  0  0  0  0  0  0  0  0  0  0
   36.0660   30.7810   41.5480 O   0  0  0  0  0  0  0  0  0  0  0  0
   37.0420   29.1520   41.2190 C   0  0  0  0  0  0  0  0  0  0  0  0
   37.1510   28.6690   42.5230 C   0  0  0  0  0  0  0  0  0  0  0  0
   37.2530   29.3840   43.3580 H   0  0  0  0  0  0  0  0  0  0  0  0
   37.1420   27.3460   42.9460 C   0  0  0  0  0  3  0  0  0  0  0  0
   37.0110   26.4200   41.9290 C   0  0  0  0  0  0  0  0  0  0  0  0
   37.0070   25.1160   42.2570 N   0  0  0  0  0  0  0  0  0  0  0  0
   36.8980   24.1390   41.3090 C   0  0  0  0  0  0  0  0  0  0  0  0
   36.8930   23.0840   41.5590 H   0  0  0  0  0  0  0  0  0  0  0  0
   36.7880   24.5300   39.9830 C   0  0  0  0  0  3  0  0  0  0  0  0
   36.7880   25.8800   39.6130 C   0  0  0  0  0  3  0  0  0  0  0  0
   36.9010   26.8290   40.6190 C   0  0  0  0  0  0  0  0  0  0  0  0
   36.9130   28.1550   40.2450 C   0  0  0  0  0  3  0  0  0  0  0  0
  1 17  1  0  0  0  0
  1  6  1  0  0  0  0
  2  1  2  0  0  0  0
  3  2  1  0  0  0  0
  3  4  2  0  0  0  0
  4  5  1  0  0  0  0
  5  6  2  0  0  0  0
  5  8  1  0  0  0  0
  7  3  1  0  0  0  0
  9 12  1  0  0  0  0
  9  2  1  0  0  0  0
 10 11  1  0  0  0  0
 10  9  1  0  0  0  0
 11  9  1  0  0  0  0
 13 10  1  0  0  0  0
 14 10  1  0  0  0  0
 15 11  1  0  0  0  0
 16 11  1  0  0  0  0
 17 19  1  0  0  0  0
 17 18  2  0  0  0  0
 19 20  1  0  0  0  0
 20 22  2  0  0  0  0
 20 21  1  0  0  0  0
 23 24  1  0  0  0  0
 23 22  1  0  0  0  0
 25 26  1  0  0  0  0
 25 24  2  0  0  0  0
 27 25  1  0  0  0  0
 28 27  2  0  0  0  0
 28 29  1  0  0  0  0
 29 23  2  0  0  0  0
 30 29  1  0  0  0  0
 30 19  2  0  0  0  0
M  END
>  <minimizedAffinity>
-5.26065826

$$$$

 OpenBabel03242523173D

 30 33  0  0  0  0  0  0  0  0999 V2000
   36.6560   26.9890   40.0220 C   0  0  0  0  0  0  0  0  0  0  0  0
   36.9360   26.8360   41.3360 C   0  0  0  0  0  0  0  0  0  0  0  0
   37.4780   25.6210   41.6900 C   0  0  0  0  0  0  0  0  0  0  0  0
   37.6870   24.6740   40.6880 N   0  0  0  0  0  0  0  0  0  0  0  0
   37.3860   24.8900   39.4020 C   0  0  0  0  0  0  0  0  0  0  0  0
   36.8470   26.0890   39.0300 N   0  0  0  0  0  0  0  0  0  0  0  0
   37.7310   25.4190   42.7330 H   0  0  0  0  0  0  0  0  0  0  0  0
   37.6680   23.9780   38.8990 H   0  0  0  0  0  0  0  0  0  0  0  0
   36.6630   27.7820   42.3530 C   0  0  0  0  0  0  0  0  0  0  0  0
   36.9840   27.7910   43.6770 C   0  0  0  0  0  0  0  0  0  0  0  0
   37.8310   28.7470   42.8320 C   0  0  0  0  0  0  0  0  0  0  0  0
   35.9650   28.6100   41.8980 H   0  0  0  0  0  0  0  0  0  0  0  0
   37.5530   26.9330   44.1690 H   0  0  0  0  0  0  0  0  0  0  0  0
   36.4230   28.3460   44.4770 H   0  0  0  0  0  0  0  0  0  0  0  0
   38.8540   28.3680   42.6070 H   0  0  0  0  0  0  0  0  0  0  0  0
   37.6720   29.8010   42.9260 H   0  0  0  0  0  0  0  0  0  0  0  0
   36.1690   28.1760   39.3130 C   0  0  0  0  0  0  0  0  0  0  0  0
   35.3400   28.7930   38.6490 O   0  0  0  0  0  0  0  0  0  0  0  0
   37.0570   29.3680   39.3100 C   0  0  0  0  0  0  0  0  0  0  0  0
   38.4150   29.1510   39.0760 C   0  0  0  0  0  0  0  0  0  0  0  0
   38.7670   28.1340   38.8360 H   0  0  0  0  0  0  0  0  0  0  0  0
   39.4430   30.0860   39.0960 C   0  0  0  0  0  3  0  0  0  0  0  0
   39.0410   31.3750   39.3870 C   0  0  0  0  0  0  0  0  0  0  0  0
   39.9810   32.3350   39.4390 N   0  0  0  0  0  0  0  0  0  0  0  0
   39.6670   33.6300   39.7370 C   0  0  0  0  0  0  0  0  0  0  0  0
   40.4130   34.4140   39.7810 H   0  0  0  0  0  0  0  0  0  0  0  0
   38.3370   33.9350   39.9880 C   0  0  0  0  0  3  0  0  0  0  0  0
   37.3370   32.9560   39.9400 C   0  0  0  0  0  3  0  0  0  0  0  0
   37.7150   31.6560   39.6320 C   0  0  0  0  0  0  0  0  0  0  0  0
   36.7270   30.6970   39.5990 C   0  0  0  0  0  3  0  0  0  0  0  0
  1  2  1  0  0  0  0
  2  3  2  0  0  0  0
  2  9  1  0  0  0  0
  3  7  1  0  0  0  0
  4  3  1  0  0  0  0
  5  4  2  0  0  0  0
  6  5  1  0  0  0  0
  6  1  2  0  0  0  0
  8  5  1  0  0  0  0
  9 11  1  0  0  0  0
  9 10  1  0  0  0  0
 10 13  1  0  0  0  0
 10 14  1  0  0  0  0
 11 16  1  0  0  0  0
 11 10  1  0  0  0  0
 12  9  1  0  0  0  0
 15 11  1  0  0  0  0
 17  1  1  0  0  0  0
 18 17  2  0  0  0  0
 19 17  1  0  0  0  0
 19 30  1  0  0  0  0
 20 22  1  0  0  0  0
 20 19  2  0  0  0  0
 21 20  1  0  0  0  0
 22 23  2  0  0  0  0
 23 24  1  0  0  0  0
 23 29  1  0  0  0  0
 24 25  2  0  0  0  0
 25 26  1  0  0  0  0
 25 27  1  0  0  0  0
 28 27  2  0  0  0  0
 29 28  1  0  0  0  0
 30 29  2  0  0  0  0
M  END
>  <minimizedAffinity>
-5.25436449

$$$$
