
 OpenBabel03242519103D

 50 54  0  0  1  0  0  0  0  0999 V2000
   49.2710   32.0830   36.9900 C   0  0  0  0  0  0  0  0  0  0  0  0
   48.3970   32.9020   37.7260 C   0  0  0  0  0  0  0  0  0  0  0  0
   47.1780   33.0590   37.1360 C   0  0  0  0  0  0  0  0  0  0  0  0
   46.7620   32.5120   35.9520 C   0  0  0  0  0  0  0  0  0  0  0  0
   47.6490   31.7160   35.2620 C   0  0  0  0  0  0  0  0  0  0  0  0
   48.8980   31.5130   35.7960 C   0  0  0  0  0  0  0  0  0  0  0  0
   46.4540   33.6850   37.6600 H   0  0  0  0  0  0  0  0  0  0  0  0
   45.7710   32.6890   35.5530 H   0  0  0  0  0  0  0  0  0  0  0  0
   47.3870   31.2540   34.3240 H   0  0  0  0  0  0  0  0  0  0  0  0
   50.2790   31.1370   33.8120 C   0  0  0  0  0  0  0  0  0  0  0  0
   49.9740   32.2880   33.3820 O   0  0  0  0  0  0  0  0  0  0  0  0
   49.8050   30.6800   35.0620 N   0  0  0  0  0  0  0  0  0  0  0  0
   50.1020   29.7660   35.4390 H   0  0  0  0  0  0  0  0  0  0  0  0
   51.1380   30.3310   32.9470 C   0  0  0  0  0  0  0  0  0  0  0  0
   52.4910   30.5800   32.9480 C   0  0  0  0  0  0  0  0  0  0  0  0
   52.9630   31.3380   33.5530 H   0  0  0  0  0  0  0  0  0  0  0  0
   53.3640   29.8420   32.1420 C   0  0  0  0  0  3  0  0  0  0  0  0
   52.8690   28.8420   31.3260 C   0  0  0  0  0  0  0  0  0  0  0  0
   53.7390   28.1530   30.5630 N   0  0  0  0  0  0  0  0  0  0  0  0
   53.3200   27.1550   29.7350 C   0  0  0  0  0  0  0  0  0  0  0  0
   54.0540   26.6310   29.1440 H   0  0  0  0  0  0  0  0  0  0  0  0
   51.9680   26.8760   29.7060 C   0  0  0  0  0  3  0  0  0  0  0  0
   51.0540   27.5850   30.4930 C   0  0  0  0  0  3  0  0  0  0  0  0
   51.5060   28.5990   31.3310 C   0  0  0  0  0  0  0  0  0  0  0  0
   50.6470   29.3320   32.1310 C   0  0  0  0  0  3  0  0  0  0  0  0
   48.7350   33.5050   38.9500 N   0  0  0  0  0  0  0  0  0  0  0  0
   49.5680   34.1290   38.7880 H   0  0  0  0  0  0  0  0  0  0  0  0
   47.6290   34.3560   42.2230 N   0  0  0  0  0  0  0  0  0  0  0  0
   47.7470   34.7410   40.8310 C   0  0  0  0  0  0  0  0  0  0  0  0
   48.1830   33.4180   40.2610 C   0  0  2  0  0  0  0  0  0  0  0  0
   49.2960   33.0210   41.2080 C   0  0  0  0  0  0  0  0  0  0  0  0
   48.7930   33.5740   42.5230 C   0  0  0  0  0  0  0  0  0  0  0  0
   46.7780   35.0820   40.4230 H   0  0  0  0  0  0  0  0  0  0  0  0
   48.5460   35.4840   40.6790 H   0  0  0  0  0  0  0  0  0  0  0  0
   47.3560   32.6860   40.3750 H   0  0  0  0  0  0  0  0  0  0  0  0
   50.2590   33.5240   40.9410 H   0  0  0  0  0  0  0  0  0  0  0  0
   49.4160   31.9280   41.2290 H   0  0  0  0  0  0  0  0  0  0  0  0
   49.5670   34.1540   43.0750 H   0  0  0  0  0  0  0  0  0  0  0  0
   48.4750   32.7110   43.1420 H   0  0  0  0  0  0  0  0  0  0  0  0
   44.7480   35.8530   44.0530 C   0  0  0  0  0  0  0  0  0  0  0  0
   45.6940   35.6610   43.0570 C   0  0  0  0  0  0  0  0  0  0  0  0
   46.6350   34.6320   43.1740 C   0  0  0  0  0  0  0  0  0  0  0  0
   46.5590   33.8600   44.2900 N   0  0  0  0  0  0  0  0  0  0  0  0
   45.6450   34.0450   45.2530 C   0  0  0  0  0  0  0  0  0  0  0  0
   44.7350   35.0520   45.1260 N   0  0  0  0  0  0  0  0  0  0  0  0
   44.0760   36.6780   43.8530 H   0  0  0  0  0  0  0  0  0  0  0  0
   45.8100   36.2300   42.1540 H   0  0  0  0  0  0  0  0  0  0  0  0
   45.5710   33.4460   46.1410 H   0  0  0  0  0  0  0  0  0  0  0  0
   51.6510   31.6750   37.9810 N   0  0  0  0  0  0  0  0  0  0  0  0
   50.6020   31.8580   37.5460 C   0  0  0  0  0  0  0  0  0  0  0  0
  1 50  1  0  0  0  0
  1  2  1  0  0  0  0
  2 26  1  0  0  0  0
  3  7  1  0  0  0  0
  3  2  2  0  0  0  0
  4  3  1  0  0  0  0
  5  6  1  0  0  0  0
  5  4  2  0  0  0  0
  6  1  2  0  0  0  0
  8  4  1  0  0  0  0
  9  5  1  0  0  0  0
 10 12  1  0  0  0  0
 11 10  2  0  0  0  0
 12 13  1  0  0  0  0
 12  6  1  0  0  0  0
 14 15  1  0  0  0  0
 14 10  1  0  0  0  0
 15 16  1  0  0  0  0
 17 15  2  0  0  0  0
 18 24  1  0  0  0  0
 18 17  1  0  0  0  0
 19 18  2  0  0  0  0
 20 19  1  0  0  0  0
 21 20  1  0  0  0  0
 22 20  2  0  0  0  0
 22 23  1  0  0  0  0
 23 24  2  0  0  0  0
 24 25  1  0  0  0  0
 25 14  2  0  0  0  0
 26 30  1  0  0  0  0
 27 26  1  0  0  0  0
 28 32  1  0  0  0  0
 28 42  1  0  0  0  0
 29 28  1  0  0  0  0
 30 35  1  1  0  0  0
 30 29  1  0  0  0  0
 30 31  1  0  0  0  0
 31 37  1  0  0  0  0
 31 32  1  0  0  0  0
 32 38  1  0  0  0  0
 32 39  1  0  0  0  0
 33 29  1  0  0  0  0
 34 29  1  0  0  0  0
 36 31  1  0  0  0  0
 40 45  1  0  0  0  0
 41 42  1  0  0  0  0
 41 40  2  0  0  0  0
 42 43  2  0  0  0  0
 43 44  1  0  0  0  0
 44 48  1  0  0  0  0
 45 44  2  0  0  0  0
 46 40  1  0  0  0  0
 47 41  1  0  0  0  0
 50 49  3  0  0  0  0
M  END
>  <minimizedAffinity>
-5.99954796

>  <minimizedRMSD>
1.37095797

$$$$
