
 OpenBabel03252507173D

 32 35  0  0  0  0  0  0  0  0999 V2000
   45.0320   36.1230   43.5610 C   0  0  0  0  0  0  0  0  0  0  0  0
   45.6530   34.9240   43.1630 C   0  0  0  0  0  0  0  0  0  0  0  0
   45.7490   33.9250   44.1300 C   0  0  0  0  0  0  0  0  0  0  0  0
   45.2610   34.1370   45.3570 N   0  0  0  0  0  0  0  0  0  0  0  0
   44.6640   35.3080   45.7190 C   0  0  0  0  0  0  0  0  0  0  0  0
   44.5670   36.2700   44.8070 N   0  0  0  0  0  0  0  0  0  0  0  0
   44.9220   36.9500   42.8590 H   0  0  0  0  0  0  0  0  0  0  0  0
   44.3370   35.2880   46.7520 H   0  0  0  0  0  0  0  0  0  0  0  0
   46.3900   32.6590   43.7520 C   0  0  0  0  0  0  0  0  0  0  0  0
   45.6100   31.5840   43.3980 C   0  0  0  0  0  0  0  0  0  0  0  0
   46.2660   30.4180   43.0520 C   0  0  0  0  0  0  0  0  0  0  0  0
   47.6410   30.2590   43.0350 C   0  0  0  0  0  0  0  0  0  0  0  0
   48.3550   31.3960   43.4050 C   0  0  0  0  0  0  0  0  0  0  0  0
   47.7180   32.5310   43.7430 N   0  0  0  0  0  0  0  0  0  0  0  0
   44.5260   31.6210   43.3850 H   0  0  0  0  0  0  0  0  0  0  0  0
   45.6860   29.5390   42.7660 H   0  0  0  0  0  0  0  0  0  0  0  0
   48.1240   29.3490   42.7640 H   0  0  0  0  0  0  0  0  0  0  0  0
   49.4360   31.3610   43.4200 H   0  0  0  0  0  0  0  0  0  0  0  0
   46.1530   34.7530   41.8420 C   0  0  0  0  0  0  0  0  0  0  0  0
   47.3210   35.1960   41.6050 O   0  0  0  0  0  0  0  0  0  0  0  0
   45.3890   34.1040   40.7820 C   0  0  0  0  0  0  0  0  0  0  0  0
   45.9460   33.3330   39.7720 C   0  0  0  0  0  0  0  0  0  0  0  0
   47.0220   33.2270   39.8030 H   0  0  0  0  0  0  0  0  0  0  0  0
   45.0950   32.7700   38.8210 C   0  0  0  0  0  3  0  0  0  0  0  0
   43.7320   32.9760   38.8850 C   0  0  0  0  0  0  0  0  0  0  0  0
   42.9590   32.4110   37.9430 N   0  0  0  0  0  0  0  0  0  0  0  0
   41.6050   32.5720   37.9450 C   0  0  0  0  0  0  0  0  0  0  0  0
   41.0640   32.0810   37.1480 H   0  0  0  0  0  0  0  0  0  0  0  0
   40.9990   33.3410   38.9440 C   0  0  0  0  0  3  0  0  0  0  0  0
   41.8130   33.9270   39.9200 C   0  0  0  0  0  3  0  0  0  0  0  0
   43.1730   33.7380   39.8820 C   0  0  0  0  0  0  0  0  0  0  0  0
   44.0050   34.3010   40.8290 C   0  0  0  0  0  3  0  0  0  0  0  0
  1  6  1  0  0  0  0
  2  1  2  0  0  0  0
  2  3  1  0  0  0  0
  3  4  2  0  0  0  0
  4  5  1  0  0  0  0
  5  8  1  0  0  0  0
  6  5  2  0  0  0  0
  7  1  1  0  0  0  0
  9  3  1  0  0  0  0
 10  9  2  0  0  0  0
 11 10  1  0  0  0  0
 12 11  2  0  0  0  0
 12 13  1  0  0  0  0
 13 18  1  0  0  0  0
 13 14  2  0  0  0  0
 14  9  1  0  0  0  0
 15 10  1  0  0  0  0
 16 11  1  0  0  0  0
 17 12  1  0  0  0  0
 19  2  1  0  0  0  0
 20 19  2  0  0  0  0
 21 32  1  0  0  0  0
 21 19  1  0  0  0  0
 22 23  1  0  0  0  0
 22 21  2  0  0  0  0
 24 25  2  0  0  0  0
 24 22  1  0  0  0  0
 25 31  1  0  0  0  0
 26 27  2  0  0  0  0
 26 25  1  0  0  0  0
 27 29  1  0  0  0  0
 28 27  1  0  0  0  0
 29 30  2  0  0  0  0
 31 30  1  0  0  0  0
 31 32  2  0  0  0  0
M  END
>  <minimizedAffinity>
-5.22096348

>  <minimizedRMSD>
0.871858418

$$$$
