
 OpenBabel03242520073D

 52 57  0  0  1  0  0  0  0  0999 V2000
   47.1260   29.2560   46.3380 N   0  0  0  0  0  0  0  0  0  0  0  0
   46.7000   29.0740   45.0070 C   0  0  1  0  0  0  0  0  0  0  0  0
   45.3450   28.4270   45.0160 C   0  0  0  0  0  0  0  0  0  0  0  0
   44.4680   29.3970   45.6120 N   0  0  0  0  0  0  0  0  0  0  0  0
   44.7650   29.6060   47.0100 C   0  0  0  0  0  0  0  0  0  0  0  0
   46.2250   29.6700   47.3410 C   0  0  2  0  0  0  0  0  0  0  0  0
   47.7870   28.4880   46.6050 H   0  0  0  0  0  0  0  0  0  0  0  0
   47.3780   28.4090   44.4750 H   0  0  0  0  0  0  0  0  0  0  0  0
   44.9480   28.2160   44.0010 H   0  0  0  0  0  0  0  0  0  0  0  0
   45.3380   27.5170   45.6340 H   0  0  0  0  0  0  0  0  0  0  0  0
   44.3390   30.2580   45.0680 H   0  0  0  0  0  0  0  0  0  0  0  0
   44.2110   30.5550   47.2670 H   0  0  0  0  0  0  0  0  0  0  0  0
   44.1980   28.8250   47.5570 H   0  0  0  0  0  0  0  0  0  0  0  0
   46.3610   28.9270   48.1820 H   0  0  0  0  0  0  0  0  0  0  0  0
   46.0970   32.3780   43.9120 C   0  0  0  0  0  0  0  0  0  0  0  0
   46.6790   31.8570   42.7700 C   0  0  0  0  0  0  0  0  0  0  0  0
   46.9860   30.5560   43.0150 C   0  0  0  0  0  0  0  0  0  0  0  0
   46.5910   30.3010   44.2890 N   0  0  0  0  0  0  0  0  0  0  0  0
   46.0640   31.4030   44.8040 N   0  0  0  0  0  0  0  0  0  0  0  0
   46.8600   32.3730   41.8560 H   0  0  0  0  0  0  0  0  0  0  0  0
   47.4510   29.8480   42.3430 H   0  0  0  0  0  0  0  0  0  0  0  0
   44.6750   35.4250   45.3790 C   0  0  0  0  0  0  0  0  0  0  0  0
   44.7250   36.3490   44.3330 C   0  0  0  0  0  0  0  0  0  0  0  0
   45.2500   35.9050   43.1320 C   0  0  0  0  0  0  0  0  0  0  0  0
   45.6780   34.6140   43.0510 N   0  0  0  0  0  0  0  0  0  0  0  0
   45.6110   33.7570   44.0870 C   0  0  0  0  0  0  0  0  0  0  0  0
   45.1080   34.1560   45.2650 N   0  0  0  0  0  0  0  0  0  0  0  0
   44.2730   35.6980   46.3640 H   0  0  0  0  0  0  0  0  0  0  0  0
   44.3570   37.3540   44.5040 H   0  0  0  0  0  0  0  0  0  0  0  0
   45.3050   36.5890   42.3000 H   0  0  0  0  0  0  0  0  0  0  0  0
   46.5000   31.0620   47.8640 C   0  0  1  0  0  0  0  0  0  0  0  0
   46.3070   31.2520   49.3630 C   0  0  0  0  0  0  0  0  0  0  0  0
   47.6490   31.3570   48.7400 C   0  0  1  0  0  0  0  0  0  0  0  0
   46.0860   31.9450   47.2960 H   0  0  0  0  0  0  0  0  0  0  0  0
   45.7920   32.1280   49.7580 H   0  0  0  0  0  0  0  0  0  0  0  0
   46.1660   30.3290   49.9770 H   0  0  0  0  0  0  0  0  0  0  0  0
   48.0990   32.3780   48.6890 H   0  0  0  0  0  0  0  0  0  0  0  0
   48.7130   30.2850   48.9960 C   0  0  0  0  0  0  0  0  0  0  0  0
   48.3030   29.4210   49.5510 H   0  0  0  0  0  0  0  0  0  0  0  0
   49.2430   29.9950   48.0660 H   0  0  0  0  0  0  0  0  0  0  0  0
   49.7360   30.8830   49.9000 C   0  0  0  0  0  0  0  0  0  0  0  0
   50.1960   32.1620   49.6630 C   0  0  0  0  0  0  0  0  0  0  0  0
   49.8440   32.7740   48.8320 H   0  0  0  0  0  0  0  0  0  0  0  0
   51.1460   32.7400   50.4870 C   0  0  0  0  0  0  0  0  0  0  0  0
   51.6200   32.0100   51.5480 C   0  0  0  0  0  0  0  0  0  0  0  0
   52.5410   32.4950   52.3940 N   0  0  0  0  0  0  0  0  0  0  0  0
   53.0400   31.8270   53.4470 C   0  0  0  0  0  0  0  0  0  0  0  0
   53.7750   32.2070   54.1260 H   0  0  0  0  0  0  0  0  0  0  0  0
   52.6180   30.5410   53.7360 C   0  0  0  0  0  0  0  0  0  0  0  0
   51.6610   29.9750   52.8940 C   0  0  0  0  0  0  0  0  0  0  0  0
   51.1880   30.7150   51.8290 C   0  0  0  0  0  0  0  0  0  0  0  0
   50.2380   30.1820   50.9770 C   0  0  0  0  0  0  0  0  0  0  0  0
  1  7  1  0  0  0  0
  1  6  1  0  0  0  0
  2  8  1  6  0  0  0
  2  3  1  0  0  0  0
  2  1  1  0  0  0  0
  3  4  1  0  0  0  0
  3 10  1  0  0  0  0
  4  5  1  0  0  0  0
  5 12  1  0  0  0  0
  5  6  1  0  0  0  0
  5 13  1  0  0  0  0
  6 31  1  0  0  0  0
  6 14  1  1  0  0  0
  9  3  1  0  0  0  0
 11  4  1  0  0  0  0
 15 26  1  0  0  0  0
 15 19  2  0  0  0  0
 16 17  2  0  0  0  0
 16 15  1  0  0  0  0
 17 18  1  0  0  0  0
 18 19  1  0  0  0  0
 18  2  1  0  0  0  0
 20 16  1  0  0  0  0
 21 17  1  0  0  0  0
 22 28  1  0  0  0  0
 23 29  1  0  0  0  0
 23 22  2  0  0  0  0
 24 23  1  0  0  0  0
 25 24  2  0  0  0  0
 25 26  1  0  0  0  0
 26 27  2  0  0  0  0
 27 22  1  0  0  0  0
 30 24  1  0  0  0  0
 31 34  1  6  0  0  0
 31 33  1  0  0  0  0
 31 32  1  0  0  0  0
 32 35  1  0  0  0  0
 32 36  1  0  0  0  0
 33 37  1  6  0  0  0
 33 38  1  0  0  0  0
 33 32  1  0  0  0  0
 38 39  1  0  0  0  0
 38 41  1  0  0  0  0
 40 38  1  0  0  0  0
 41 52  1  0  0  0  0
 42 41  2  0  0  0  0
 42 44  1  0  0  0  0
 43 42  1  0  0  0  0
 44 45  2  0  0  0  0
 45 51  1  0  0  0  0
 45 46  1  0  0  0  0
 46 47  2  0  0  0  0
 47 49  1  0  0  0  0
 47 48  1  0  0  0  0
 50 49  2  0  0  0  0
 51 50  1  0  0  0  0
 52 51  2  0  0  0  0
M  END
>  <minimizedAffinity>
-6.66292334

>  <minimizedRMSD>
2.0668025

$$$$
