
 OpenBabel03242510233D

 41 45  0  0  1  0  0  0  0  0999 V2000
   49.1070   33.8720   40.9620 C   0  0  2  0  0  0  0  0  0  0  0  0
   48.6350   35.3730   40.8900 C   0  0  0  0  0  0  0  0  0  0  0  0
   47.8220   34.2360   40.3590 C   0  0  1  0  0  0  0  0  0  0  0  0
   49.9860   33.7400   40.2990 H   0  0  0  0  0  0  0  0  0  0  0  0
   48.2990   35.7940   41.8600 H   0  0  0  0  0  0  0  0  0  0  0  0
   49.0930   36.0150   40.1450 H   0  0  0  0  0  0  0  0  0  0  0  0
   46.9630   33.8200   40.9350 H   0  0  0  0  0  0  0  0  0  0  0  0
   48.0420   33.2290   43.1430 N   0  0  0  0  0  0  0  0  0  0  0  0
   49.1860   33.2630   42.3520 C   0  0  0  0  0  0  0  0  0  0  0  0
   50.3540   32.8570   42.5800 O   0  0  0  0  0  0  0  0  0  0  0  0
   47.5080   34.1480   43.0710 H   0  0  0  0  0  0  0  0  0  0  0  0
   46.3120   32.1110   44.5060 C   0  0  1  0  0  0  0  0  0  0  0  0
   46.4450   31.3420   43.3430 C   0  0  0  0  0  0  0  0  0  0  0  0
   47.6760   32.1020   43.9250 C   0  0  1  0  0  0  0  0  0  0  0  0
   46.1470   31.6640   45.5160 H   0  0  0  0  0  0  0  0  0  0  0  0
   46.5450   30.2180   43.4510 H   0  0  0  0  0  0  0  0  0  0  0  0
   46.1710   31.5810   42.2970 H   0  0  0  0  0  0  0  0  0  0  0  0
   48.4990   31.4290   44.2130 H   0  0  0  0  0  0  0  0  0  0  0  0
   45.0660   33.9590   43.1570 C   0  0  0  0  0  0  0  0  0  0  0  0
   45.5540   33.4430   44.4030 C   0  0  0  0  0  0  0  0  0  0  0  0
   45.3440   34.2050   45.5370 C   0  0  0  0  0  0  0  0  0  0  0  0
   44.6980   35.3860   45.4270 N   0  0  0  0  0  0  0  0  0  0  0  0
   44.2410   35.8620   44.2310 C   0  0  0  0  0  0  0  0  0  0  0  0
   44.4370   35.1170   43.0690 N   0  0  0  0  0  0  0  0  0  0  0  0
   45.2190   33.3450   42.2920 H   0  0  0  0  0  0  0  0  0  0  0  0
   45.6880   33.8670   46.5040 H   0  0  0  0  0  0  0  0  0  0  0  0
   43.7410   36.8250   44.2850 H   0  0  0  0  0  0  0  0  0  0  0  0
   47.6970   34.1050   38.8600 C   0  0  0  0  0  0  0  0  0  0  0  0
   48.4950   34.6810   38.1270 O   0  0  0  0  0  0  0  0  0  0  0  0
   46.6390   33.2980   38.2560 C   0  0  0  0  0  0  0  0  0  0  0  0
   45.5810   32.7110   38.9160 C   0  0  0  0  0  0  0  0  0  0  0  0
   45.5110   32.8470   39.9840 H   0  0  0  0  0  0  0  0  0  0  0  0
   44.6130   31.9620   38.2890 C   0  0  0  0  0  0  0  0  0  0  0  0
   44.6650   31.7620   36.9270 C   0  0  0  0  0  0  0  0  0  0  0  0
   43.7260   31.0350   36.3170 N   0  0  0  0  0  0  0  0  0  0  0  0
   43.7780   30.8370   34.9690 C   0  0  0  0  0  0  0  0  0  0  0  0
   42.9770   30.2290   34.5220 H   0  0  0  0  0  0  0  0  0  0  0  0
   44.8130   31.3950   34.2280 C   0  0  0  0  0  0  0  0  0  0  0  0
   45.7820   32.1460   34.8630 C   0  0  0  0  0  0  0  0  0  0  0  0
   45.7000   32.3260   36.2220 C   0  0  0  0  0  0  0  0  0  0  0  0
   46.6410   33.0660   36.8960 C   0  0  0  0  0  0  0  0  0  0  0  0
  1  4  1  6  0  0  0
  1  9  1  0  0  0  0
  2  1  1  0  0  0  0
  2  5  1  0  0  0  0
  3  2  1  0  0  0  0
  3  7  1  1  0  0  0
  3  1  1  0  0  0  0
  6  2  1  0  0  0  0
  8 14  1  0  0  0  0
  9 10  2  0  0  0  0
  9  8  1  0  0  0  0
 11  8  1  0  0  0  0
 12 15  1  1  0  0  0
 13 16  1  0  0  0  0
 13 14  1  0  0  0  0
 13 12  1  0  0  0  0
 14 18  1  1  0  0  0
 14 12  1  0  0  0  0
 17 13  1  0  0  0  0
 19 20  1  0  0  0  0
 20 12  1  0  0  0  0
 20 21  2  0  0  0  0
 21 26  1  0  0  0  0
 22 21  1  0  0  0  0
 23 27  1  0  0  0  0
 23 22  2  0  0  0  0
 24 19  2  0  0  0  0
 24 23  1  0  0  0  0
 25 19  1  0  0  0  0
 28  3  1  0  0  0  0
 29 28  2  0  0  0  0
 30 28  1  0  0  0  0
 30 31  1  0  0  0  0
 31 32  1  0  0  0  0
 33 31  2  0  0  0  0
 34 33  1  0  0  0  0
 35 34  1  0  0  0  0
 36 35  2  0  0  0  0
 37 36  1  0  0  0  0
 38 39  2  0  0  0  0
 38 36  1  0  0  0  0
 39 40  1  0  0  0  0
 40 41  1  0  0  0  0
 40 34  2  0  0  0  0
 41 30  2  0  0  0  0
M  END
>  <minimizedAffinity>
-5.58496141

>  <minimizedRMSD>
0.503651261

$$$$
