
 OpenBabel03242513533D

 42 45  0  0  1  0  0  0  0  0999 V2000
   46.5760   34.3710   43.6840 C   0  0  2  0  0  0  0  0  0  0  0  0
   46.1690   33.1690   44.4820 C   0  0  0  0  0  0  0  0  0  0  0  0
   45.5470   33.8590   45.6790 C   0  0  0  0  0  0  0  0  0  0  0  0
   44.8450   35.0080   45.1210 C   0  0  0  0  0  0  0  0  0  0  0  0
   45.2660   35.1090   43.5720 C   0  0  2  0  0  0  0  0  0  0  0  0
   47.2450   35.0390   44.2790 H   0  0  0  0  0  0  0  0  0  0  0  0
   45.4700   32.5300   43.9460 H   0  0  0  0  0  0  0  0  0  0  0  0
   47.1030   32.6550   44.7880 H   0  0  0  0  0  0  0  0  0  0  0  0
   44.9090   33.1040   46.1890 H   0  0  0  0  0  0  0  0  0  0  0  0
   46.3830   34.1240   46.3670 H   0  0  0  0  0  0  0  0  0  0  0  0
   43.7320   34.8570   45.1230 H   0  0  0  0  0  0  0  0  0  0  0  0
   45.1070   35.9790   45.5790 H   0  0  0  0  0  0  0  0  0  0  0  0
   45.3570   36.1810   43.3480 H   0  0  0  0  0  0  0  0  0  0  0  0
   48.1520   34.5880   40.2870 C   0  0  0  0  0  0  0  0  0  0  0  0
   47.6270   35.0370   41.5170 C   0  0  0  0  0  0  0  0  0  0  0  0
   47.1400   34.0860   42.3480 C   0  0  0  0  0  0  0  0  0  0  0  0
   47.1850   32.7470   41.9480 N   0  0  0  0  0  0  0  0  0  0  0  0
   47.6890   32.3550   40.7760 C   0  0  0  0  0  0  0  0  0  0  0  0
   48.1720   33.2770   39.9450 N   0  0  0  0  0  0  0  0  0  0  0  0
   48.5410   35.3530   39.6230 H   0  0  0  0  0  0  0  0  0  0  0  0
   47.6080   36.0760   41.7930 H   0  0  0  0  0  0  0  0  0  0  0  0
   47.6760   31.2990   40.5630 H   0  0  0  0  0  0  0  0  0  0  0  0
   44.3010   34.4230   42.8590 O   0  0  0  0  0  0  0  0  0  0  0  0
   43.4260   34.9560   41.9510 C   0  0  0  0  0  0  0  0  0  0  0  0
   44.0160   35.9710   41.4060 O   0  0  0  0  0  0  0  0  0  0  0  0
   42.1100   34.9200   41.2940 C   0  0  0  0  0  0  0  0  0  0  0  0
   41.2340   35.9220   41.0880 C   0  0  0  0  0  0  0  0  0  0  0  0
   39.9020   35.9590   40.4430 C   0  0  0  0  0  0  0  0  0  0  0  0
   39.9840   36.6540   39.5750 H   0  0  0  0  0  0  0  0  0  0  0  0
   39.1750   36.3170   41.2020 H   0  0  0  0  0  0  0  0  0  0  0  0
   39.4770   34.5930   39.9880 C   0  0  0  0  0  0  0  0  0  0  0  0
   39.6250   34.3060   38.6290 C   0  0  0  0  0  0  0  0  0  0  0  0
   40.0370   35.0710   37.9610 H   0  0  0  0  0  0  0  0  0  0  0  0
   39.2880   33.1050   38.0400 C   0  0  0  0  0  0  0  0  0  0  0  0
   38.7710   32.1410   38.8720 C   0  0  0  0  0  0  0  0  0  0  0  0
   38.4340   30.9590   38.3180 N   0  0  0  0  0  0  0  0  0  0  0  0
   37.9180   29.9680   39.0890 C   0  0  0  0  0  0  0  0  0  0  0  0
   37.6720   29.0480   38.5730 H   0  0  0  0  0  0  0  0  0  0  0  0
   37.7530   30.2040   40.4400 C   0  0  0  0  0  0  0  0  0  0  0  0
   38.0860   31.3980   41.0350 C   0  0  0  0  0  0  0  0  0  0  0  0
   38.6100   32.3920   40.2240 C   0  0  0  0  0  0  0  0  0  0  0  0
   38.9570   33.6020   40.7850 C   0  0  0  0  0  0  0  0  0  0  0  0
  1  6  1  1  0  0  0
  1  2  1  0  0  0  0
  2  8  1  0  0  0  0
  2  3  1  0  0  0  0
  3  9  1  0  0  0  0
  3 10  1  0  0  0  0
  4 11  1  0  0  0  0
  4 12  1  0  0  0  0
  4  3  1  0  0  0  0
  5 13  1  6  0  0  0
  5  1  1  0  0  0  0
  5  4  1  0  0  0  0
  7  2  1  0  0  0  0
 14 15  1  0  0  0  0
 15 21  1  0  0  0  0
 15 16  2  0  0  0  0
 16  1  1  0  0  0  0
 17 16  1  0  0  0  0
 18 17  2  0  0  0  0
 19 14  2  0  0  0  0
 19 18  1  0  0  0  0
 20 14  1  0  0  0  0
 22 18  1  0  0  0  0
 23  5  1  0  0  0  0
 24 23  1  0  0  0  0
 25 24  2  0  0  0  0
 26 24  1  0  0  0  0
 27 26  2  0  0  0  0
 28 27  1  0  0  0  0
 28 30  1  0  0  0  0
 29 28  1  0  0  0  0
 31 28  1  0  0  0  0
 31 42  1  0  0  0  0
 32 31  2  0  0  0  0
 33 32  1  0  0  0  0
 34 32  1  0  0  0  0
 34 35  2  0  0  0  0
 35 41  1  0  0  0  0
 36 35  1  0  0  0  0
 36 37  2  0  0  0  0
 37 39  1  0  0  0  0
 38 37  1  0  0  0  0
 39 40  2  0  0  0  0
 41 42  2  0  0  0  0
 41 40  1  0  0  0  0
M  END
>  <minimizedAffinity>
-6.81943989

>  <minimizedRMSD>
1.1138618

$$$$
