
 OpenBabel03252508513D

 31 34  0  0  0  0  0  0  0  0999 V2000
   45.9970   34.1820   41.0630 C   0  0  0  0  0  0  0  0  0  0  0  0
   46.5600   34.8260   42.1600 C   0  0  0  0  0  0  0  0  0  0  0  0
   47.9010   35.2180   42.0200 C   0  0  0  0  0  0  0  0  0  0  0  0
   48.5520   34.9540   40.8530 N   0  0  0  0  0  0  0  0  0  0  0  0
   47.9590   34.3360   39.8370 C   0  0  0  0  0  0  0  0  0  0  0  0
   46.6780   33.9430   39.9310 N   0  0  0  0  0  0  0  0  0  0  0  0
   48.3750   35.7220   42.8540 H   0  0  0  0  0  0  0  0  0  0  0  0
   48.4410   34.1090   38.8970 H   0  0  0  0  0  0  0  0  0  0  0  0
   45.7780   35.0550   43.3520 C   0  0  0  0  0  0  0  0  0  0  0  0
   45.0520   36.2220   43.5670 C   0  0  0  0  0  0  0  0  0  0  0  0
   44.4730   36.0140   44.8010 C   0  0  0  0  0  0  0  0  0  0  0  0
   44.8210   34.8000   45.3050 N   0  0  0  0  0  0  0  0  0  0  0  0
   45.6080   34.2480   44.4070 N   0  0  0  0  0  0  0  0  0  0  0  0
   44.9190   37.1230   42.9670 H   0  0  0  0  0  0  0  0  0  0  0  0
   43.8160   36.6970   45.3430 H   0  0  0  0  0  0  0  0  0  0  0  0
   44.5140   34.3970   46.2310 H   0  0  0  0  0  0  0  0  0  0  0  0
   44.6770   33.7760   41.1530 O   0  0  0  0  0  0  0  0  0  0  0  0
   43.5880   34.3670   40.5830 C   0  0  0  0  0  0  0  0  0  0  0  0
   43.3080   35.6160   40.5560 O   0  0  0  0  0  0  0  0  0  0  0  0
   42.5050   33.6220   39.8790 C   0  0  0  0  0  0  0  0  0  0  0  0
   42.5370   32.2580   39.7180 C   0  0  0  0  0  0  0  0  0  0  0  0
   43.3520   31.6590   40.0980 H   0  0  0  0  0  0  0  0  0  0  0  0
   41.5140   31.5720   39.0500 C   0  0  0  0  0  3  0  0  0  0  0  0
   40.4420   32.2670   38.5390 C   0  0  0  0  0  0  0  0  0  0  0  0
   39.4430   31.6390   37.8940 N   0  0  0  0  0  0  0  0  0  0  0  0
   38.4000   32.3490   37.4000 C   0  0  0  0  0  0  0  0  0  0  0  0
   37.6380   31.7640   36.8930 H   0  0  0  0  0  0  0  0  0  0  0  0
   38.2720   33.7350   37.5100 C   0  0  0  0  0  3  0  0  0  0  0  0
   39.3030   34.3660   38.1740 C   0  0  0  0  0  3  0  0  0  0  0  0
   40.3610   33.6340   38.6740 C   0  0  0  0  0  0  0  0  0  0  0  0
   41.4070   34.2280   39.3410 C   0  0  0  0  0  3  0  0  0  0  0  0
  1 17  1  0  0  0  0
  1  2  1  0  0  0  0
  2  9  1  0  0  0  0
  3  2  2  0  0  0  0
  3  7  1  0  0  0  0
  4  3  1  0  0  0  0
  5  6  1  0  0  0  0
  5  4  2  0  0  0  0
  6  1  2  0  0  0  0
  8  5  1  0  0  0  0
  9 10  1  0  0  0  0
  9 13  2  0  0  0  0
 10 11  2  0  0  0  0
 11 12  1  0  0  0  0
 11 15  1  0  0  0  0
 12 16  1  0  0  0  0
 13 12  1  0  0  0  0
 14 10  1  0  0  0  0
 18 17  1  0  0  0  0
 19 18  2  0  0  0  0
 20 18  1  0  0  0  0
 21 20  1  0  0  0  0
 21 22  1  0  0  0  0
 23 21  2  0  0  0  0
 24 30  1  0  0  0  0
 24 23  1  0  0  0  0
 25 24  2  0  0  0  0
 26 28  2  0  0  0  0
 26 25  1  0  0  0  0
 27 26  1  0  0  0  0
 28 29  1  0  0  0  0
 29 30  2  0  0  0  0
 30 31  1  0  0  0  0
 31 20  2  0  0  0  0
M  END
>  <minimizedAffinity>
-6.48145056

>  <minimizedRMSD>
0.671809256

$$$$
