
 OpenBabel03252508503D

 31 34  0  0  0  0  0  0  0  0999 V2000
   46.0460   34.1680   41.0360 C   0  0  0  0  0  0  0  0  0  0  0  0
   46.5870   34.8390   42.1280 C   0  0  0  0  0  0  0  0  0  0  0  0
   47.9140   35.2740   41.9850 C   0  0  0  0  0  0  0  0  0  0  0  0
   48.5740   35.0210   40.8200 N   0  0  0  0  0  0  0  0  0  0  0  0
   48.0020   34.3750   39.8090 C   0  0  0  0  0  0  0  0  0  0  0  0
   46.7350   33.9420   39.9060 N   0  0  0  0  0  0  0  0  0  0  0  0
   48.3710   35.8000   42.8140 H   0  0  0  0  0  0  0  0  0  0  0  0
   48.4910   34.1560   38.8710 H   0  0  0  0  0  0  0  0  0  0  0  0
   45.7960   35.0530   43.3180 C   0  0  0  0  0  0  0  0  0  0  0  0
   45.0540   36.2090   43.5340 C   0  0  0  0  0  0  0  0  0  0  0  0
   44.4730   35.9880   44.7650 C   0  0  0  0  0  0  0  0  0  0  0  0
   44.8360   34.7770   45.2660 N   0  0  0  0  0  0  0  0  0  0  0  0
   45.6340   34.2390   44.3690 N   0  0  0  0  0  0  0  0  0  0  0  0
   44.9110   37.1100   42.9370 H   0  0  0  0  0  0  0  0  0  0  0  0
   43.8050   36.6600   45.3070 H   0  0  0  0  0  0  0  0  0  0  0  0
   44.5310   34.3660   46.1890 H   0  0  0  0  0  0  0  0  0  0  0  0
   44.7400   33.7190   41.1290 O   0  0  0  0  0  0  0  0  0  0  0  0
   43.6250   34.2990   40.5980 C   0  0  0  0  0  0  0  0  0  0  0  0
   43.3840   35.5510   40.4770 O   0  0  0  0  0  0  0  0  0  0  0  0
   42.4620   33.5370   40.0590 C   0  0  0  0  0  0  0  0  0  0  0  0
   42.3900   33.1400   38.7460 C   0  0  0  0  0  0  0  0  0  0  0  0
   43.1770   33.3620   38.0410 H   0  0  0  0  0  0  0  0  0  0  0  0
   41.2900   32.4270   38.2530 C   0  0  0  0  0  3  0  0  0  0  0  0
   40.2460   32.1080   39.0910 C   0  0  0  0  0  0  0  0  0  0  0  0
   39.1770   31.4240   38.6500 N   0  0  0  0  0  0  0  0  0  0  0  0
   38.1630   31.1230   39.4980 C   0  0  0  0  0  0  0  0  0  0  0  0
   37.3380   30.5690   39.0600 H   0  0  0  0  0  0  0  0  0  0  0  0
   38.1400   31.4790   40.8490 C   0  0  0  0  0  3  0  0  0  0  0  0
   39.2430   32.1790   41.2880 C   0  0  0  0  0  3  0  0  0  0  0  0
   40.2690   32.4800   40.4150 C   0  0  0  0  0  0  0  0  0  0  0  0
   41.3860   33.1770   40.8170 C   0  0  0  0  0  3  0  0  0  0  0  0
  1 17  1  0  0  0  0
  1  2  1  0  0  0  0
  2  9  1  0  0  0  0
  3  2  2  0  0  0  0
  3  7  1  0  0  0  0
  4  3  1  0  0  0  0
  5  6  1  0  0  0  0
  5  4  2  0  0  0  0
  6  1  2  0  0  0  0
  8  5  1  0  0  0  0
  9 10  1  0  0  0  0
  9 13  2  0  0  0  0
 10 11  2  0  0  0  0
 11 12  1  0  0  0  0
 11 15  1  0  0  0  0
 12 16  1  0  0  0  0
 13 12  1  0  0  0  0
 14 10  1  0  0  0  0
 18 17  1  0  0  0  0
 19 18  2  0  0  0  0
 20 18  1  0  0  0  0
 20 31  1  0  0  0  0
 21 20  2  0  0  0  0
 22 21  1  0  0  0  0
 23 21  1  0  0  0  0
 23 24  2  0  0  0  0
 24 30  1  0  0  0  0
 25 24  1  0  0  0  0
 25 26  2  0  0  0  0
 26 28  1  0  0  0  0
 27 26  1  0  0  0  0
 28 29  2  0  0  0  0
 30 31  2  0  0  0  0
 30 29  1  0  0  0  0
M  END
>  <minimizedAffinity>
-6.14092159

>  <minimizedRMSD>
0.949325979

$$$$
