
 OpenBabel03242519103D

 50 54  0  0  1  0  0  0  0  0999 V2000
   49.2820   32.0800   36.9890 C   0  0  0  0  0  0  0  0  0  0  0  0
   48.4070   32.8990   37.7250 C   0  0  0  0  0  0  0  0  0  0  0  0
   47.1890   33.0570   37.1340 C   0  0  0  0  0  0  0  0  0  0  0  0
   46.7730   32.5120   35.9480 C   0  0  0  0  0  0  0  0  0  0  0  0
   47.6610   31.7160   35.2580 C   0  0  0  0  0  0  0  0  0  0  0  0
   48.9090   31.5110   35.7940 C   0  0  0  0  0  0  0  0  0  0  0  0
   46.4640   33.6840   37.6580 H   0  0  0  0  0  0  0  0  0  0  0  0
   45.7830   32.6900   35.5490 H   0  0  0  0  0  0  0  0  0  0  0  0
   47.4000   31.2560   34.3200 H   0  0  0  0  0  0  0  0  0  0  0  0
   50.2880   31.1350   33.8090 C   0  0  0  0  0  0  0  0  0  0  0  0
   49.9800   32.2850   33.3760 O   0  0  0  0  0  0  0  0  0  0  0  0
   49.8160   30.6790   35.0600 N   0  0  0  0  0  0  0  0  0  0  0  0
   50.1160   29.7670   35.4380 H   0  0  0  0  0  0  0  0  0  0  0  0
   51.1470   30.3290   32.9430 C   0  0  0  0  0  0  0  0  0  0  0  0
   52.5000   30.5760   32.9440 C   0  0  0  0  0  0  0  0  0  0  0  0
   52.9710   31.3350   33.5490 H   0  0  0  0  0  0  0  0  0  0  0  0
   53.3730   29.8390   32.1380 C   0  0  0  0  0  3  0  0  0  0  0  0
   52.8770   28.8390   31.3210 C   0  0  0  0  0  0  0  0  0  0  0  0
   53.7470   28.1500   30.5600 N   0  0  0  0  0  0  0  0  0  0  0  0
   53.3260   27.1520   29.7310 C   0  0  0  0  0  0  0  0  0  0  0  0
   54.0610   26.6280   29.1400 H   0  0  0  0  0  0  0  0  0  0  0  0
   51.9750   26.8730   29.7030 C   0  0  0  0  0  3  0  0  0  0  0  0
   51.0610   27.5830   30.4890 C   0  0  0  0  0  3  0  0  0  0  0  0
   51.5130   28.5970   31.3270 C   0  0  0  0  0  0  0  0  0  0  0  0
   50.6550   29.3300   32.1270 C   0  0  0  0  0  3  0  0  0  0  0  0
   48.7440   33.5010   38.9500 N   0  0  0  0  0  0  0  0  0  0  0  0
   49.5740   34.1280   38.7880 H   0  0  0  0  0  0  0  0  0  0  0  0
   47.6440   34.3380   42.2280 N   0  0  0  0  0  0  0  0  0  0  0  0
   47.7590   34.7290   40.8380 C   0  0  0  0  0  0  0  0  0  0  0  0
   48.1940   33.4080   40.2610 C   0  0  2  0  0  0  0  0  0  0  0  0
   49.3080   33.0070   41.2050 C   0  0  0  0  0  0  0  0  0  0  0  0
   48.8070   33.5550   42.5230 C   0  0  0  0  0  0  0  0  0  0  0  0
   46.7890   35.0720   40.4320 H   0  0  0  0  0  0  0  0  0  0  0  0
   48.5580   35.4730   40.6880 H   0  0  0  0  0  0  0  0  0  0  0  0
   47.3670   32.6760   40.3740 H   0  0  0  0  0  0  0  0  0  0  0  0
   50.2710   33.5110   40.9380 H   0  0  0  0  0  0  0  0  0  0  0  0
   49.4280   31.9140   41.2210 H   0  0  0  0  0  0  0  0  0  0  0  0
   49.5820   34.1320   43.0760 H   0  0  0  0  0  0  0  0  0  0  0  0
   48.4900   32.6890   43.1390 H   0  0  0  0  0  0  0  0  0  0  0  0
   44.7580   35.8210   44.0630 C   0  0  0  0  0  0  0  0  0  0  0  0
   45.7020   35.6320   43.0650 C   0  0  0  0  0  0  0  0  0  0  0  0
   46.6500   34.6100   43.1810 C   0  0  0  0  0  0  0  0  0  0  0  0
   46.5840   33.8410   44.3010 N   0  0  0  0  0  0  0  0  0  0  0  0
   45.6720   34.0230   45.2670 C   0  0  0  0  0  0  0  0  0  0  0  0
   44.7550   35.0230   45.1390 N   0  0  0  0  0  0  0  0  0  0  0  0
   44.0790   36.6400   43.8630 H   0  0  0  0  0  0  0  0  0  0  0  0
   45.8100   36.1980   42.1590 H   0  0  0  0  0  0  0  0  0  0  0  0
   45.6060   33.4270   46.1560 H   0  0  0  0  0  0  0  0  0  0  0  0
   51.6600   31.6700   37.9820 N   0  0  0  0  0  0  0  0  0  0  0  0
   50.6120   31.8540   37.5460 C   0  0  0  0  0  0  0  0  0  0  0  0
  1 50  1  0  0  0  0
  1  2  1  0  0  0  0
  2 26  1  0  0  0  0
  3  7  1  0  0  0  0
  3  2  2  0  0  0  0
  4  3  1  0  0  0  0
  5  6  1  0  0  0  0
  5  4  2  0  0  0  0
  6  1  2  0  0  0  0
  8  4  1  0  0  0  0
  9  5  1  0  0  0  0
 10 12  1  0  0  0  0
 11 10  2  0  0  0  0
 12 13  1  0  0  0  0
 12  6  1  0  0  0  0
 14 15  1  0  0  0  0
 14 10  1  0  0  0  0
 15 16  1  0  0  0  0
 17 15  2  0  0  0  0
 18 24  1  0  0  0  0
 18 17  1  0  0  0  0
 19 18  2  0  0  0  0
 20 19  1  0  0  0  0
 21 20  1  0  0  0  0
 22 20  2  0  0  0  0
 22 23  1  0  0  0  0
 23 24  2  0  0  0  0
 24 25  1  0  0  0  0
 25 14  2  0  0  0  0
 26 30  1  0  0  0  0
 27 26  1  0  0  0  0
 28 32  1  0  0  0  0
 28 42  1  0  0  0  0
 29 28  1  0  0  0  0
 30 35  1  1  0  0  0
 30 29  1  0  0  0  0
 30 31  1  0  0  0  0
 31 37  1  0  0  0  0
 31 32  1  0  0  0  0
 32 38  1  0  0  0  0
 32 39  1  0  0  0  0
 33 29  1  0  0  0  0
 34 29  1  0  0  0  0
 36 31  1  0  0  0  0
 40 45  1  0  0  0  0
 41 42  1  0  0  0  0
 41 40  2  0  0  0  0
 42 43  2  0  0  0  0
 43 44  1  0  0  0  0
 44 48  1  0  0  0  0
 45 44  2  0  0  0  0
 46 40  1  0  0  0  0
 47 41  1  0  0  0  0
 50 49  3  0  0  0  0
M  END
>  <minimizedAffinity>
-5.99755383

>  <minimizedRMSD>
1.12507629

$$$$
