
 OpenBabel03252504513D

 37 40  0  0  0  0  0  0  0  0999 V2000
   47.1920   34.4080   42.9000 C   0  0  0  0  0  0  0  0  0  0  0  0
   48.1680   33.7480   42.1370 C   0  0  0  0  0  0  0  0  0  0  0  0
   48.6260   32.5290   42.6160 C   0  0  0  0  0  0  0  0  0  0  0  0
   48.0990   32.0650   43.7840 N   0  0  0  0  0  0  0  0  0  0  0  0
   47.1720   32.7140   44.4890 C   0  0  0  0  0  0  0  0  0  0  0  0
   46.7040   33.9050   44.0490 N   0  0  0  0  0  0  0  0  0  0  0  0
   46.7650   35.3550   42.6260 H   0  0  0  0  0  0  0  0  0  0  0  0
   49.3720   31.9920   42.0620 H   0  0  0  0  0  0  0  0  0  0  0  0
   45.4740   30.1960   44.1590 Cl  0  0  0  0  0  0  0  0  0  0  0  0
   45.8750   31.0060   45.6830 C   0  0  0  0  0  0  0  0  0  0  0  0
   46.6580   32.1520   45.7290 C   0  0  0  0  0  0  0  0  0  0  0  0
   46.9510   32.7540   46.9260 C   0  0  0  0  0  0  0  0  0  0  0  0
   46.4540   32.2060   48.1010 C   0  0  0  0  0  0  0  0  0  0  0  0
   45.6810   31.0690   48.0150 C   0  0  0  0  0  0  0  0  0  0  0  0
   45.0790   30.4180   49.5220 Cl  0  0  0  0  0  0  0  0  0  0  0  0
   45.3660   30.4370   46.8350 C   0  0  0  0  0  0  0  0  0  0  0  0
   47.5640   33.6520   46.9730 H   0  0  0  0  0  0  0  0  0  0  0  0
   46.6770   32.6720   49.0530 H   0  0  0  0  0  0  0  0  0  0  0  0
   44.7520   29.5480   46.8560 H   0  0  0  0  0  0  0  0  0  0  0  0
   48.6240   34.3720   40.9210 C   0  0  0  0  0  0  0  0  0  0  0  0
   49.5540   33.8820   40.5710 H   0  0  0  0  0  0  0  0  0  0  0  0
   48.8850   35.4320   41.0820 H   0  0  0  0  0  0  0  0  0  0  0  0
   47.5260   34.3440   39.8960 C   0  0  0  0  0  0  0  0  0  0  0  0
   46.5900   34.0710   40.4580 H   0  0  0  0  0  0  0  0  0  0  0  0
   47.3420   35.4030   39.5790 H   0  0  0  0  0  0  0  0  0  0  0  0
   47.7630   33.4480   38.7600 C   0  0  0  0  0  0  0  0  0  0  0  0
   48.9140   32.7070   38.5800 C   0  0  0  0  0  0  0  0  0  0  0  0
   49.7050   32.7790   39.3140 H   0  0  0  0  0  0  0  0  0  0  0  0
   48.9910   31.9020   37.4510 C   0  0  0  0  0  3  0  0  0  0  0  0
   47.9370   31.8450   36.5310 C   0  0  0  0  0  0  0  0  0  0  0  0
   48.0140   31.0640   35.4380 N   0  0  0  0  0  0  0  0  0  0  0  0
   47.0190   30.9880   34.5350 C   0  0  0  0  0  0  0  0  0  0  0  0
   47.0150   30.3920   33.6520 H   0  0  0  0  0  0  0  0  0  0  0  0
   45.8780   31.7300   34.7270 C   0  0  0  0  0  3  0  0  0  0  0  0
   45.7330   32.5560   35.8290 C   0  0  0  0  0  3  0  0  0  0  0  0
   46.7990   32.5910   36.7290 C   0  0  0  0  0  0  0  0  0  0  0  0
   46.7050   33.4020   37.8520 C   0  0  0  0  0  3  0  0  0  0  0  0
  1  6  1  0  0  0  0
  2  3  1  0  0  0  0
  2  1  2  0  0  0  0
  3  4  2  0  0  0  0
  4  5  1  0  0  0  0
  5 11  1  0  0  0  0
  6  5  2  0  0  0  0
  7  1  1  0  0  0  0
  8  3  1  0  0  0  0
  9 10  1  0  0  0  0
 10 11  2  0  0  0  0
 10 16  1  0  0  0  0
 11 12  1  0  0  0  0
 12 17  1  0  0  0  0
 12 13  2  0  0  0  0
 13 18  1  0  0  0  0
 14 13  1  0  0  0  0
 14 15  1  0  0  0  0
 16 19  1  0  0  0  0
 16 14  2  0  0  0  0
 20 22  1  0  0  0  0
 20  2  1  0  0  0  0
 21 20  1  0  0  0  0
 23 24  1  0  0  0  0
 23 20  1  0  0  0  0
 25 23  1  0  0  0  0
 26 23  1  0  0  0  0
 27 26  1  0  0  0  0
 27 28  1  0  0  0  0
 29 27  2  0  0  0  0
 30 36  1  0  0  0  0
 30 29  1  0  0  0  0
 31 30  2  0  0  0  0
 32 34  2  0  0  0  0
 32 31  1  0  0  0  0
 33 32  1  0  0  0  0
 34 35  1  0  0  0  0
 35 36  2  0  0  0  0
 36 37  1  0  0  0  0
 37 26  2  0  0  0  0
M  END
>  <minimizedAffinity>
-5.18834305

>  <minimizedRMSD>
2.08383226

$$$$
