
 OpenBabel03242518473D

 48 52  0  0  1  0  0  0  0  0999 V2000
   47.4780   32.8660   44.1560 C   0  0  2  0  0  0  0  0  0  0  0  0
   47.4500   33.4060   42.7710 C   0  0  1  0  0  0  0  0  0  0  0  0
   47.4750   32.3010   41.7140 C   0  0  0  0  0  0  0  0  0  0  0  0
   48.6020   31.5430   42.0420 O   0  0  0  0  0  0  0  0  0  0  0  0
   48.3940   30.7830   43.1730 C   0  0  0  0  0  0  0  0  0  0  0  0
   47.3510   31.3310   44.0980 C   0  0  1  0  0  0  0  0  0  0  0  0
   48.4540   33.0680   44.6160 H   0  0  0  0  0  0  0  0  0  0  0  0
   48.3710   34.0310   42.5900 H   0  0  0  0  0  0  0  0  0  0  0  0
   47.6970   32.7530   40.7270 H   0  0  0  0  0  0  0  0  0  0  0  0
   46.5400   31.7230   41.7160 H   0  0  0  0  0  0  0  0  0  0  0  0
   49.3420   30.6930   43.7730 H   0  0  0  0  0  0  0  0  0  0  0  0
   48.0750   29.7450   42.9070 H   0  0  0  0  0  0  0  0  0  0  0  0
   46.3070   31.1810   43.7460 H   0  0  0  0  0  0  0  0  0  0  0  0
   45.0340   36.1580   42.8030 C   0  0  0  0  0  0  0  0  0  0  0  0
   44.0600   35.7800   41.8310 C   0  0  0  0  0  0  0  0  0  0  0  0
   44.2960   34.5380   41.1830 C   0  0  0  0  0  0  0  0  0  0  0  0
   45.3890   33.8140   41.5120 N   0  0  0  0  0  0  0  0  0  0  0  0
   46.2730   34.2340   42.4430 C   0  0  0  0  0  0  0  0  0  0  0  0
   46.0930   35.4050   43.0860 N   0  0  0  0  0  0  0  0  0  0  0  0
   43.2060   36.3610   41.5830 H   0  0  0  0  0  0  0  0  0  0  0  0
   43.6060   34.1780   40.4330 H   0  0  0  0  0  0  0  0  0  0  0  0
   44.8270   37.3470   43.4400 O   0  0  0  0  0  0  0  0  0  0  0  0
   45.5630   38.0410   43.5820 H   0  0  0  0  0  0  0  0  0  0  0  0
   46.4560   33.3520   44.9720 O   0  0  0  0  0  0  0  0  0  0  0  0
   46.8400   33.9070   45.7070 H   0  0  0  0  0  0  0  0  0  0  0  0
   47.4700   30.8770   45.3920 O   0  0  0  0  0  0  0  0  0  0  0  0
   47.9300   28.2310   45.6990 F   0  0  0  0  0  0  0  0  0  0  0  0
   46.9870   28.9340   46.3590 C   0  0  0  0  0  0  0  0  0  0  0  0
   46.6850   30.2780   46.2690 C   0  0  0  0  0  0  0  0  0  0  0  0
   45.6550   30.7060   47.0910 C   0  0  0  0  0  0  0  0  0  0  0  0
   44.9330   29.9260   47.9610 C   0  0  0  0  0  0  0  0  0  0  0  0
   45.2730   28.6080   48.0100 C   0  0  0  0  0  0  0  0  0  0  0  0
   46.2860   28.0830   47.2300 C   0  0  0  0  0  0  0  0  0  0  0  0
   45.4740   31.7880   46.9610 H   0  0  0  0  0  0  0  0  0  0  0  0
   44.1630   30.3730   48.5420 H   0  0  0  0  0  0  0  0  0  0  0  0
   44.6960   27.9840   48.7070 H   0  0  0  0  0  0  0  0  0  0  0  0
   46.5220   26.6520   47.4050 C   0  0  0  0  0  0  0  0  0  0  0  0
   45.6540   25.7870   46.7270 C   0  0  0  0  0  0  0  0  0  0  0  0
   44.8550   26.2090   46.1080 H   0  0  0  0  0  0  0  0  0  0  0  0
   45.7260   24.4070   46.7750 C   0  0  0  0  0  3  0  0  0  0  0  0
   46.7250   23.8550   47.5480 C   0  0  0  0  0  0  0  0  0  0  0  0
   46.8290   22.5160   47.6210 N   0  0  0  0  0  0  0  0  0  0  0  0
   47.7660   21.8910   48.3460 C   0  0  0  0  0  0  0  0  0  0  0  0
   47.8280   20.8120   48.3890 H   0  0  0  0  0  0  0  0  0  0  0  0
   48.6430   22.7220   49.0330 C   0  0  0  0  0  3  0  0  0  0  0  0
   48.5860   24.1000   48.9970 C   0  0  0  0  0  3  0  0  0  0  0  0
   47.5980   24.6820   48.2310 C   0  0  0  0  0  0  0  0  0  0  0  0
   47.4930   26.0480   48.1580 C   0  0  0  0  0  3  0  0  0  0  0  0
  1  7  1  1  0  0  0
  1 24  1  0  0  0  0
  2  8  1  6  0  0  0
  2  1  1  0  0  0  0
  3 10  1  0  0  0  0
  3  4  1  0  0  0  0
  3  2  1  0  0  0  0
  4  5  1  0  0  0  0
  5 11  1  0  0  0  0
  5  6  1  0  0  0  0
  6 13  1  6  0  0  0
  6  1  1  0  0  0  0
  6 26  1  0  0  0  0
  9  3  1  0  0  0  0
 12  5  1  0  0  0  0
 14 19  1  0  0  0  0
 14 22  1  0  0  0  0
 15 14  2  0  0  0  0
 16 17  2  0  0  0  0
 16 15  1  0  0  0  0
 17 18  1  0  0  0  0
 18  2  1  0  0  0  0
 18 19  2  0  0  0  0
 20 15  1  0  0  0  0
 21 16  1  0  0  0  0
 22 23  1  0  0  0  0
 24 25  1  0  0  0  0
 26 29  1  0  0  0  0
 27 28  1  0  0  0  0
 28 33  1  0  0  0  0
 29 28  2  0  0  0  0
 29 30  1  0  0  0  0
 30 31  2  0  0  0  0
 31 32  1  0  0  0  0
 31 35  1  0  0  0  0
 32 36  1  0  0  0  0
 33 37  1  0  0  0  0
 33 32  2  0  0  0  0
 34 30  1  0  0  0  0
 37 48  1  0  0  0  0
 38 40  1  0  0  0  0
 38 37  2  0  0  0  0
 39 38  1  0  0  0  0
 40 41  2  0  0  0  0
 41 42  1  0  0  0  0
 41 47  1  0  0  0  0
 42 43  2  0  0  0  0
 43 44  1  0  0  0  0
 43 45  1  0  0  0  0
 46 45  2  0  0  0  0
 47 46  1  0  0  0  0
 48 47  2  0  0  0  0
M  END
>  <minimizedAffinity>
-5.45619297

>  <minimizedRMSD>
2.96329927

$$$$
