
 OpenBabel03252507273D

 30 33  0  0  0  0  0  0  0  0999 V2000
   45.9980   33.7720   43.7960 C   0  0  0  0  0  0  0  0  0  0  0  0
   45.2590   34.9220   44.0720 C   0  0  0  0  0  0  0  0  0  0  0  0
   44.9710   35.7950   42.9980 C   0  0  0  0  0  0  0  0  0  0  0  0
   45.4310   35.4710   41.7370 N   0  0  0  0  0  0  0  0  0  0  0  0
   46.1440   34.3370   41.5400 C   0  0  0  0  0  0  0  0  0  0  0  0
   46.4160   33.5160   42.5450 N   0  0  0  0  0  0  0  0  0  0  0  0
   44.9000   35.1820   45.0350 H   0  0  0  0  0  0  0  0  0  0  0  0
   44.4100   36.6880   43.1530 H   0  0  0  0  0  0  0  0  0  0  0  0
   46.3220   32.8390   44.8680 C   0  0  0  0  0  0  0  0  0  0  0  0
   47.1870   31.7880   44.7720 C   0  0  0  0  0  0  0  0  0  0  0  0
   47.6870   31.6110   43.8310 H   0  0  0  0  0  0  0  0  0  0  0  0
   47.4430   30.9420   45.8400 C   0  0  0  0  0  3  0  0  0  0  0  0
   46.8260   31.1310   47.0590 C   0  0  0  0  0  0  0  0  0  0  0  0
   47.0450   30.3340   48.1240 N   0  0  0  0  0  0  0  0  0  0  0  0
   46.4170   30.5540   49.3100 C   0  0  0  0  0  0  0  0  0  0  0  0
   46.5730   29.9320   50.1810 H   0  0  0  0  0  0  0  0  0  0  0  0
   45.5220   31.6140   49.4670 C   0  0  0  0  0  3  0  0  0  0  0  0
   45.2770   32.4470   48.3960 C   0  0  0  0  0  3  0  0  0  0  0  0
   45.9500   32.1750   47.2010 C   0  0  0  0  0  0  0  0  0  0  0  0
   45.7330   32.9820   46.1080 C   0  0  0  0  0  3  0  0  0  0  0  0
   46.6070   34.0260   40.2010 C   0  0  0  0  0  0  0  0  0  0  0  0
   47.8330   34.4450   39.7610 C   0  0  0  0  0  0  0  0  0  0  0  0
   48.3640   34.2070   38.5110 C   0  0  0  0  0  0  0  0  0  0  0  0
   47.5290   33.4750   37.6770 C   0  0  0  0  0  0  0  0  0  0  0  0
   46.2810   33.0330   38.0850 C   0  0  0  0  0  0  0  0  0  0  0  0
   45.8240   33.3120   39.3520 N   0  0  0  0  0  0  0  0  0  0  0  0
   48.4340   35.0130   40.4660 H   0  0  0  0  0  0  0  0  0  0  0  0
   49.3380   34.5730   38.2440 H   0  0  0  0  0  0  0  0  0  0  0  0
   47.8770   33.2480   36.6760 H   0  0  0  0  0  0  0  0  0  0  0  0
   45.6610   32.4630   37.4030 H   0  0  0  0  0  0  0  0  0  0  0  0
  1  2  1  0  0  0  0
  1  9  1  0  0  0  0
  2  7  1  0  0  0  0
  3  8  1  0  0  0  0
  3  2  2  0  0  0  0
  4  3  1  0  0  0  0
  5  4  2  0  0  0  0
  5  6  1  0  0  0  0
  6  1  2  0  0  0  0
  9 20  1  0  0  0  0
 10  9  2  0  0  0  0
 10 12  1  0  0  0  0
 11 10  1  0  0  0  0
 12 13  2  0  0  0  0
 13 19  1  0  0  0  0
 13 14  1  0  0  0  0
 14 15  2  0  0  0  0
 15 17  1  0  0  0  0
 15 16  1  0  0  0  0
 18 17  2  0  0  0  0
 19 18  1  0  0  0  0
 20 19  2  0  0  0  0
 21  5  1  0  0  0  0
 22 21  1  0  0  0  0
 22 27  1  0  0  0  0
 23 22  2  0  0  0  0
 24 25  2  0  0  0  0
 24 23  1  0  0  0  0
 25 26  1  0  0  0  0
 26 21  2  0  0  0  0
 28 23  1  0  0  0  0
 29 24  1  0  0  0  0
 30 25  1  0  0  0  0
M  END
>  <minimizedAffinity>
-5.5308423

>  <minimizedRMSD>
1.96169853

$$$$
