
 OpenBabel03252506463D

 45 49  0  0  1  0  0  0  0  0999 V2000
   49.5500   33.3560   41.5070 N   0  0  1  0  0  0  0  0  0  0  0  0
   50.7470   33.1290   42.2770 C   0  0  0  0  0  0  0  0  0  0  0  0
   51.3710   31.7870   42.0170 C   0  0  0  0  0  0  0  0  0  0  0  0
   50.4470   30.7190   42.5580 C   0  0  0  0  0  0  0  0  0  0  0  0
   49.0000   31.0980   42.3360 C   0  0  0  0  0  0  0  0  0  0  0  0
   48.9200   32.0970   41.1900 C   0  0  2  0  0  0  0  0  0  0  0  0
   50.5260   33.1910   43.3720 H   0  0  0  0  0  0  0  0  0  0  0  0
   51.4930   33.8940   42.0400 H   0  0  0  0  0  0  0  0  0  0  0  0
   52.2850   31.7560   42.6650 H   0  0  0  0  0  0  0  0  0  0  0  0
   51.6620   31.6470   40.9680 H   0  0  0  0  0  0  0  0  0  0  0  0
   50.6200   29.8160   41.9340 H   0  0  0  0  0  0  0  0  0  0  0  0
   50.6650   30.4470   43.6060 H   0  0  0  0  0  0  0  0  0  0  0  0
   48.6420   31.5620   43.2680 H   0  0  0  0  0  0  0  0  0  0  0  0
   48.3730   30.2400   42.0500 H   0  0  0  0  0  0  0  0  0  0  0  0
   47.8350   32.2950   41.0650 H   0  0  0  0  0  0  0  0  0  0  0  0
   47.2870   34.5270   41.9390 C   0  0  1  0  0  0  0  0  0  0  0  0
   48.2940   35.4880   41.5080 C   0  0  0  0  0  0  0  0  0  0  0  0
   48.7430   34.2680   42.2470 C   0  0  2  0  0  0  0  0  0  0  0  0
   46.8760   33.7070   41.2800 H   0  0  0  0  0  0  0  0  0  0  0  0
   48.4730   35.5630   40.4010 H   0  0  0  0  0  0  0  0  0  0  0  0
   48.2730   36.4850   41.9780 H   0  0  0  0  0  0  0  0  0  0  0  0
   49.0340   34.4500   43.3060 H   0  0  0  0  0  0  0  0  0  0  0  0
   45.5960   36.0280   43.0330 C   0  0  0  0  0  0  0  0  0  0  0  0
   46.3600   34.8370   43.0420 C   0  0  0  0  0  0  0  0  0  0  0  0
   46.2030   33.9690   44.1180 C   0  0  0  0  0  0  0  0  0  0  0  0
   45.3270   34.3100   45.0990 N   0  0  0  0  0  0  0  0  0  0  0  0
   44.6110   35.4400   45.0760 C   0  0  0  0  0  0  0  0  0  0  0  0
   44.7390   36.3180   44.0330 N   0  0  0  0  0  0  0  0  0  0  0  0
   45.7460   36.6760   42.1800 H   0  0  0  0  0  0  0  0  0  0  0  0
   46.7610   33.0390   44.1840 H   0  0  0  0  0  0  0  0  0  0  0  0
   43.9140   35.7070   45.8600 H   0  0  0  0  0  0  0  0  0  0  0  0
   49.3830   31.4760   39.9900 N   0  0  0  0  0  0  0  0  0  0  0  0
   49.9760   30.6010   40.0830 H   0  0  0  0  0  0  0  0  0  0  0  0
   49.1460   31.8900   38.6700 C   0  0  0  0  0  0  0  0  0  0  0  0
   48.3090   32.9040   38.2920 C   0  0  0  0  0  0  0  0  0  0  0  0
   47.7770   33.4570   39.0340 H   0  0  0  0  0  0  0  0  0  0  0  0
   48.0560   33.3250   37.0110 C   0  0  0  0  0  3  0  0  0  0  0  0
   48.7120   32.6610   35.9750 C   0  0  0  0  0  0  0  0  0  0  0  0
   48.5350   32.9940   34.6860 N   0  0  0  0  0  0  0  0  0  0  0  0
   49.1650   32.3570   33.6830 C   0  0  0  0  0  0  0  0  0  0  0  0
   48.9270   32.7320   32.7050 H   0  0  0  0  0  0  0  0  0  0  0  0
   50.0440   31.3060   33.9360 C   0  0  0  0  0  3  0  0  0  0  0  0
   50.2180   30.9740   35.2620 C   0  0  0  0  0  3  0  0  0  0  0  0
   49.5670   31.6340   36.2780 C   0  0  0  0  0  0  0  0  0  0  0  0
   49.7600   31.2780   37.5850 C   0  0  0  0  0  3  0  0  0  0  0  0
  1 18  1  0  0  0  0
  1  2  1  1  0  0  0
  2  7  1  0  0  0  0
  3  2  1  0  0  0  0
  3  4  1  0  0  0  0
  3  9  1  0  0  0  0
  4 12  1  0  0  0  0
  5  4  1  0  0  0  0
  5 13  1  0  0  0  0
  6 15  1  6  0  0  0
  6  1  1  0  0  0  0
  6  5  1  0  0  0  0
  8  2  1  0  0  0  0
 10  3  1  0  0  0  0
 11  4  1  0  0  0  0
 14  5  1  0  0  0  0
 16 19  1  6  0  0  0
 16 18  1  0  0  0  0
 16 24  1  0  0  0  0
 17 16  1  0  0  0  0
 17 21  1  0  0  0  0
 17 18  1  0  0  0  0
 18 22  1  1  0  0  0
 20 17  1  0  0  0  0
 23 24  2  0  0  0  0
 23 28  1  0  0  0  0
 24 25  1  0  0  0  0
 25 30  1  0  0  0  0
 25 26  2  0  0  0  0
 27 26  1  0  0  0  0
 27 31  1  0  0  0  0
 28 27  2  0  0  0  0
 29 23  1  0  0  0  0
 32 33  1  0  0  0  0
 32  6  1  0  0  0  0
 34 32  1  0  0  0  0
 35 34  1  0  0  0  0
 35 36  1  0  0  0  0
 37 35  2  0  0  0  0
 38 44  1  0  0  0  0
 38 37  1  0  0  0  0
 39 38  2  0  0  0  0
 40 42  2  0  0  0  0
 40 39  1  0  0  0  0
 41 40  1  0  0  0  0
 42 43  1  0  0  0  0
 43 44  2  0  0  0  0
 44 45  1  0  0  0  0
 45 34  2  0  0  0  0
M  END
>  <minimizedAffinity>
-5.85917425

>  <minimizedRMSD>
0.674783111

$$$$
