
 OpenBabel03252508053D

 45 49  0  0  1  0  0  0  0  0999 V2000
   36.4980   29.6700   38.4770 C   0  0  0  0  0  0  0  0  0  0  0  0
   35.7760   29.6370   39.6330 C   0  0  0  0  0  0  0  0  0  0  0  0
   34.4370   29.2060   39.5710 C   0  0  0  0  0  0  0  0  0  0  0  0
   33.8250   28.8180   38.4070 C   0  0  0  0  0  0  0  0  0  0  0  0
   34.5540   28.8510   37.2470 C   0  0  0  0  0  0  0  0  0  0  0  0
   35.8510   29.2680   37.3000 C   0  0  0  0  0  0  0  0  0  0  0  0
   33.7910   29.1580   40.4380 H   0  0  0  0  0  0  0  0  0  0  0  0
   32.8180   28.4930   38.3610 H   0  0  0  0  0  0  0  0  0  0  0  0
   34.1560   28.5670   36.3050 H   0  0  0  0  0  0  0  0  0  0  0  0
   36.4370   29.2950   36.3670 H   0  0  0  0  0  0  0  0  0  0  0  0
   38.1200   30.1190   38.4320 S   0  0  0  0  0  0  0  0  0  0  0  0
   38.1780   30.9150   37.1110 O   0  0  0  0  0  0  0  0  0  0  0  0
   39.0230   28.9110   38.2710 O   0  0  0  0  0  0  0  0  0  0  0  0
   38.9670   31.3370   39.1860 C   0  0  0  0  0  0  0  0  0  0  0  0
   38.6630   32.7010   39.4300 C   0  0  0  0  0  0  0  0  0  0  0  0
   37.6270   32.9180   39.1050 H   0  0  0  0  0  0  0  0  0  0  0  0
   39.4270   33.7240   39.9530 C   0  0  0  0  0  3  0  0  0  0  0  0
   40.6710   33.2390   40.2530 C   0  0  0  0  0  0  0  0  0  0  0  0
   41.5040   34.1610   40.7510 N   0  0  0  0  0  0  0  0  0  0  0  0
   42.7790   33.9440   41.1060 C   0  0  0  0  0  0  0  0  0  0  0  0
   43.4190   34.7040   41.5010 H   0  0  0  0  0  0  0  0  0  0  0  0
   43.3030   32.6780   40.9580 C   0  0  0  0  0  3  0  0  0  0  0  0
   42.4640   31.7130   40.4490 C   0  0  0  0  0  3  0  0  0  0  0  0
   41.1560   31.9730   40.0950 C   0  0  0  0  0  0  0  0  0  0  0  0
   40.3020   31.0400   39.5670 C   0  0  0  0  0  3  0  0  0  0  0  0
   36.3350   30.0400   40.9210 C   0  0  0  0  0  0  0  0  0  0  0  0
   36.2000   31.2010   41.4350 O   0  0  0  0  0  0  0  0  0  0  0  0
   37.0610   28.9890   41.5710 C   0  0  0  0  0  0  0  0  0  0  0  0
   38.2420   29.4030   42.2770 C   0  0  0  0  0  0  0  0  0  0  0  0
   38.9560   28.4010   42.9230 C   0  0  0  0  0  0  0  0  0  0  0  0
   38.5020   27.1220   42.8490 N   0  0  0  0  0  0  0  0  0  0  0  0
   37.3760   26.7990   42.1620 C   0  0  0  0  0  0  0  0  0  0  0  0
   36.6960   27.7070   41.5550 N   0  0  0  0  0  0  0  0  0  0  0  0
   38.6660   30.3620   42.3870 H   0  0  0  0  0  0  0  0  0  0  0  0
   39.8690   28.5840   43.4920 H   0  0  0  0  0  0  0  0  0  0  0  0
   36.9490   25.3770   42.1410 C   0  0  1  0  0  0  0  0  0  0  0  0
   36.8160   24.6710   40.8080 C   0  0  0  0  0  0  0  0  0  0  0  0
   37.9830   24.4150   41.7080 C   0  0  1  0  0  0  0  0  0  0  0  0
   36.2570   25.0630   42.9130 H   0  0  0  0  0  0  0  0  0  0  0  0
   36.0490   23.8860   40.7310 H   0  0  0  0  0  0  0  0  0  0  0  0
   36.8950   25.3540   39.9410 H   0  0  0  0  0  0  0  0  0  0  0  0
   38.0730   23.3980   42.1440 H   0  0  0  0  0  0  0  0  0  0  0  0
   39.2260   24.9040   41.1270 N   0  0  0  0  0  0  0  0  0  0  0  0
   39.1660   25.1550   40.1370 H   0  0  0  0  0  0  0  0  0  0  0  0
   39.9990   24.2130   41.2180 H   0  0  0  0  0  0  0  0  0  0  0  0
  1  2  1  0  0  0  0
  2 26  1  0  0  0  0
  3  2  2  0  0  0  0
  3  7  1  0  0  0  0
  4  3  1  0  0  0  0
  5  6  1  0  0  0  0
  5  4  2  0  0  0  0
  6  1  2  0  0  0  0
  8  4  1  0  0  0  0
  9  5  1  0  0  0  0
 10  6  1  0  0  0  0
 11  1  1  0  0  0  0
 11 14  1  0  0  0  0
 12 11  2  0  0  0  0
 13 11  2  0  0  0  0
 14 15  2  0  0  0  0
 14 25  1  0  0  0  0
 15 17  1  0  0  0  0
 16 15  1  0  0  0  0
 17 18  2  0  0  0  0
 18 19  1  0  0  0  0
 19 20  2  0  0  0  0
 20 21  1  0  0  0  0
 22 20  1  0  0  0  0
 23 22  2  0  0  0  0
 24 18  1  0  0  0  0
 24 23  1  0  0  0  0
 25 24  2  0  0  0  0
 26 27  2  0  0  0  0
 26 28  1  0  0  0  0
 28 29  1  0  0  0  0
 29 34  1  0  0  0  0
 29 30  2  0  0  0  0
 30 35  1  0  0  0  0
 31 30  1  0  0  0  0
 32 31  2  0  0  0  0
 33 28  2  0  0  0  0
 33 32  1  0  0  0  0
 36 32  1  0  0  0  0
 36 39  1  1  0  0  0
 37 38  1  0  0  0  0
 37 36  1  0  0  0  0
 38 36  1  0  0  0  0
 38 42  1  1  0  0  0
 40 37  1  0  0  0  0
 41 37  1  0  0  0  0
 43 45  1  0  0  0  0
 43 38  1  0  0  0  0
 44 43  1  0  0  0  0
M  END
>  <minimizedAffinity>
-6.68788862

$$$$

 OpenBabel03252508053D

 45 49  0  0  1  0  0  0  0  0999 V2000
   37.8410   26.1030   41.7000 C   0  0  0  0  0  0  0  0  0  0  0  0
   38.8110   25.8310   40.7810 C   0  0  0  0  0  0  0  0  0  0  0  0
   38.8570   24.5400   40.2210 C   0  0  0  0  0  0  0  0  0  0  0  0
   37.9740   23.5450   40.5530 C   0  0  0  0  0  0  0  0  0  0  0  0
   36.9990   23.8210   41.4750 C   0  0  0  0  0  0  0  0  0  0  0  0
   36.9500   25.0690   42.0210 C   0  0  0  0  0  0  0  0  0  0  0  0
   39.5990   24.2390   39.4930 H   0  0  0  0  0  0  0  0  0  0  0  0
   38.0100   22.5740   40.1300 H   0  0  0  0  0  0  0  0  0  0  0  0
   36.2780   23.1070   41.7870 H   0  0  0  0  0  0  0  0  0  0  0  0
   36.1660   25.2910   42.7640 H   0  0  0  0  0  0  0  0  0  0  0  0
   37.6530   27.6210   42.4020 S   0  0  0  0  0  0  0  0  0  0  0  0
   38.6740   27.5500   43.5570 O   0  0  0  0  0  0  0  0  0  0  0  0
   36.2790   27.7770   43.0240 O   0  0  0  0  0  0  0  0  0  0  0  0
   38.2410   29.1240   41.9950 C   0  0  0  0  0  0  0  0  0  0  0  0
   39.3340   29.8850   42.4820 C   0  0  0  0  0  0  0  0  0  0  0  0
   39.9120   29.2870   43.2130 H   0  0  0  0  0  0  0  0  0  0  0  0
   39.7340   31.1780   42.2140 C   0  0  0  0  0  3  0  0  0  0  0  0
   38.8640   31.7340   41.3160 C   0  0  0  0  0  0  0  0  0  0  0  0
   39.1510   33.0030   41.0010 N   0  0  0  0  0  0  0  0  0  0  0  0
   38.4440   33.7730   40.1600 C   0  0  0  0  0  0  0  0  0  0  0  0
   38.7000   34.7850   39.9290 H   0  0  0  0  0  0  0  0  0  0  0  0
   37.3250   33.2410   39.5560 C   0  0  0  0  0  3  0  0  0  0  0  0
   37.0100   31.9370   39.8650 C   0  0  0  0  0  3  0  0  0  0  0  0
   37.7630   31.1750   40.7340 C   0  0  0  0  0  0  0  0  0  0  0  0
   37.4660   29.8820   41.0780 C   0  0  0  0  0  3  0  0  0  0  0  0
   39.8020   26.8210   40.3690 C   0  0  0  0  0  0  0  0  0  0  0  0
   40.7980   27.1860   41.0810 O   0  0  0  0  0  0  0  0  0  0  0  0
   39.5530   27.3560   39.0630 C   0  0  0  0  0  0  0  0  0  0  0  0
   40.7240   27.6200   38.2720 C   0  0  0  0  0  0  0  0  0  0  0  0
   40.5040   28.1300   36.9990 C   0  0  0  0  0  0  0  0  0  0  0  0
   39.2260   28.3420   36.5900 N   0  0  0  0  0  0  0  0  0  0  0  0
   38.1620   28.0710   37.3910 C   0  0  0  0  0  0  0  0  0  0  0  0
   38.3380   27.5990   38.5740 N   0  0  0  0  0  0  0  0  0  0  0  0
   41.7440   27.4880   38.5050 H   0  0  0  0  0  0  0  0  0  0  0  0
   41.3070   28.3720   36.3010 H   0  0  0  0  0  0  0  0  0  0  0  0
   36.8000   28.3260   36.8590 C   0  0  1  0  0  0  0  0  0  0  0  0
   35.8920   29.2880   37.5970 C   0  0  0  0  0  0  0  0  0  0  0  0
   36.5740   29.6860   36.3270 C   0  0  1  0  0  0  0  0  0  0  0  0
   36.3060   27.4990   36.3600 H   0  0  0  0  0  0  0  0  0  0  0  0
   34.8110   29.0890   37.5540 H   0  0  0  0  0  0  0  0  0  0  0  0
   36.2880   29.5920   38.5850 H   0  0  0  0  0  0  0  0  0  0  0  0
   35.9290   29.8830   35.4450 H   0  0  0  0  0  0  0  0  0  0  0  0
   37.5700   30.7250   36.5550 N   0  0  0  0  0  0  0  0  0  0  0  0
   37.5220   31.1690   37.4760 H   0  0  0  0  0  0  0  0  0  0  0  0
   37.5110   31.4850   35.8480 H   0  0  0  0  0  0  0  0  0  0  0  0
  1  6  1  0  0  0  0
  1 11  1  0  0  0  0
  2  1  2  0  0  0  0
  3  4  2  0  0  0  0
  3  2  1  0  0  0  0
  4  5  1  0  0  0  0
  5  9  1  0  0  0  0
  5  6  2  0  0  0  0
  6 10  1  0  0  0  0
  7  3  1  0  0  0  0
  8  4  1  0  0  0  0
 11 13  2  0  0  0  0
 11 12  2  0  0  0  0
 14 11  1  0  0  0  0
 14 15  1  0  0  0  0
 15 16  1  0  0  0  0
 17 15  2  0  0  0  0
 18 17  1  0  0  0  0
 19 18  1  0  0  0  0
 20 19  2  0  0  0  0
 21 20  1  0  0  0  0
 22 23  2  0  0  0  0
 22 20  1  0  0  0  0
 23 24  1  0  0  0  0
 24 25  1  0  0  0  0
 24 18  2  0  0  0  0
 25 14  2  0  0  0  0
 26  2  1  0  0  0  0
 26 27  2  0  0  0  0
 28 26  1  0  0  0  0
 29 34  1  0  0  0  0
 29 28  2  0  0  0  0
 30 29  1  0  0  0  0
 31 30  2  0  0  0  0
 31 32  1  0  0  0  0
 32 33  2  0  0  0  0
 33 28  1  0  0  0  0
 35 30  1  0  0  0  0
 36 39  1  6  0  0  0
 36 32  1  0  0  0  0
 36 37  1  0  0  0  0
 37 41  1  0  0  0  0
 38 42  1  6  0  0  0
 38 43  1  0  0  0  0
 38 36  1  0  0  0  0
 38 37  1  0  0  0  0
 40 37  1  0  0  0  0
 43 44  1  0  0  0  0
 45 43  1  0  0  0  0
M  END
>  <minimizedAffinity>
-6.48718452

$$$$

 OpenBabel03252508053D

 45 49  0  0  1  0  0  0  0  0999 V2000
   40.2650   28.4770   42.4230 C   0  0  0  0  0  0  0  0  0  0  0  0
   39.2680   29.3850   42.6260 C   0  0  0  0  0  0  0  0  0  0  0  0
   39.6230   30.7360   42.8040 C   0  0  0  0  0  0  0  0  0  0  0  0
   40.9200   31.1820   42.7820 C   0  0  0  0  0  0  0  0  0  0  0  0
   41.9190   30.2670   42.5760 C   0  0  0  0  0  0  0  0  0  0  0  0
   41.5810   28.9570   42.4040 C   0  0  0  0  0  0  0  0  0  0  0  0
   38.8970   31.5200   42.9780 H   0  0  0  0  0  0  0  0  0  0  0  0
   41.1860   32.1990   42.9150 H   0  0  0  0  0  0  0  0  0  0  0  0
   42.9470   30.5290   42.5460 H   0  0  0  0  0  0  0  0  0  0  0  0
   42.3850   28.2210   42.2400 H   0  0  0  0  0  0  0  0  0  0  0  0
   39.9630   26.8430   42.1490 S   0  0  0  0  0  0  0  0  0  0  0  0
   39.6470   26.3490   43.5770 O   0  0  0  0  0  0  0  0  0  0  0  0
   41.2140   26.1200   41.6870 O   0  0  0  0  0  0  0  0  0  0  0  0
   38.6240   26.0300   41.5880 C   0  0  0  0  0  0  0  0  0  0  0  0
   37.7220   25.1320   42.2130 C   0  0  0  0  0  0  0  0  0  0  0  0
   37.9550   25.0560   43.2920 H   0  0  0  0  0  0  0  0  0  0  0  0
   36.6870   24.3770   41.6990 C   0  0  0  0  0  3  0  0  0  0  0  0
   36.6000   24.6020   40.3520 C   0  0  0  0  0  0  0  0  0  0  0  0
   35.6350   23.8980   39.7480 N   0  0  0  0  0  0  0  0  0  0  0  0
   35.3590   23.9270   38.4360 C   0  0  0  0  0  0  0  0  0  0  0  0
   34.5790   23.3510   37.9840 H   0  0  0  0  0  0  0  0  0  0  0  0
   36.1130   24.7390   37.6170 C   0  0  0  0  0  3  0  0  0  0  0  0
   37.1110   25.4740   38.2160 C   0  0  0  0  0  3  0  0  0  0  0  0
   37.3660   25.4190   39.5710 C   0  0  0  0  0  0  0  0  0  0  0  0
   38.3640   26.1210   40.1950 C   0  0  0  0  0  3  0  0  0  0  0  0
   37.8580   29.0080   42.6750 C   0  0  0  0  0  0  0  0  0  0  0  0
   37.2930   28.4590   43.6800 O   0  0  0  0  0  0  0  0  0  0  0  0
   37.1510   29.3190   41.4680 C   0  0  0  0  0  0  0  0  0  0  0  0
   35.9440   28.5690   41.2510 C   0  0  0  0  0  0  0  0  0  0  0  0
   35.2380   28.8610   40.0910 C   0  0  0  0  0  0  0  0  0  0  0  0
   35.7210   29.8170   39.2540 N   0  0  0  0  0  0  0  0  0  0  0  0
   36.8720   30.4890   39.5190 C   0  0  0  0  0  0  0  0  0  0  0  0
   37.5450   30.2370   40.5860 N   0  0  0  0  0  0  0  0  0  0  0  0
   35.4980   27.8160   41.8400 H   0  0  0  0  0  0  0  0  0  0  0  0
   34.3090   28.3640   39.8110 H   0  0  0  0  0  0  0  0  0  0  0  0
   37.3210   31.5220   38.5530 C   0  0  1  0  0  0  0  0  0  0  0  0
   38.6390   32.2280   38.7940 C   0  0  0  0  0  0  0  0  0  0  0  0
   38.5100   31.1620   37.7520 C   0  0  1  0  0  0  0  0  0  0  0  0
   36.5490   32.1140   38.0750 H   0  0  0  0  0  0  0  0  0  0  0  0
   38.7190   33.2700   38.4500 H   0  0  0  0  0  0  0  0  0  0  0  0
   39.0750   32.0140   39.7880 H   0  0  0  0  0  0  0  0  0  0  0  0
   38.6320   31.4720   36.6930 H   0  0  0  0  0  0  0  0  0  0  0  0
   39.2820   29.9770   38.0990 N   0  0  0  0  0  0  0  0  0  0  0  0
   39.9440   30.1060   38.8680 H   0  0  0  0  0  0  0  0  0  0  0  0
   39.8250   29.6130   37.2890 H   0  0  0  0  0  0  0  0  0  0  0  0
  1  2  1  0  0  0  0
  2 26  1  0  0  0  0
  2  3  2  0  0  0  0
  3  7  1  0  0  0  0
  4  3  1  0  0  0  0
  4  8  1  0  0  0  0
  5  4  2  0  0  0  0
  6  1  2  0  0  0  0
  6  5  1  0  0  0  0
  9  5  1  0  0  0  0
 10  6  1  0  0  0  0
 11  1  1  0  0  0  0
 11 12  2  0  0  0  0
 13 11  2  0  0  0  0
 14 11  1  0  0  0  0
 14 15  1  0  0  0  0
 15 16  1  0  0  0  0
 17 15  2  0  0  0  0
 18 17  1  0  0  0  0
 19 18  1  0  0  0  0
 20 19  2  0  0  0  0
 21 20  1  0  0  0  0
 22 23  2  0  0  0  0
 22 20  1  0  0  0  0
 23 24  1  0  0  0  0
 24 25  1  0  0  0  0
 24 18  2  0  0  0  0
 25 14  2  0  0  0  0
 26 27  2  0  0  0  0
 28 26  1  0  0  0  0
 29 28  1  0  0  0  0
 29 34  1  0  0  0  0
 30 29  2  0  0  0  0
 31 32  2  0  0  0  0
 31 30  1  0  0  0  0
 32 33  1  0  0  0  0
 33 28  2  0  0  0  0
 35 30  1  0  0  0  0
 36 39  1  6  0  0  0
 36 37  1  0  0  0  0
 36 32  1  0  0  0  0
 37 41  1  0  0  0  0
 38 42  1  6  0  0  0
 38 43  1  0  0  0  0
 38 36  1  0  0  0  0
 38 37  1  0  0  0  0
 40 37  1  0  0  0  0
 43 44  1  0  0  0  0
 45 43  1  0  0  0  0
M  END
>  <minimizedAffinity>
-6.23359489

$$$$

 OpenBabel03252508053D

 45 49  0  0  1  0  0  0  0  0999 V2000
   38.7660   25.8830   41.7410 C   0  0  0  0  0  0  0  0  0  0  0  0
   37.4180   26.0180   41.9000 C   0  0  0  0  0  0  0  0  0  0  0  0
   36.5910   24.9450   41.5150 C   0  0  0  0  0  0  0  0  0  0  0  0
   37.0740   23.7740   40.9900 C   0  0  0  0  0  0  0  0  0  0  0  0
   38.4280   23.6410   40.8330 C   0  0  0  0  0  0  0  0  0  0  0  0
   39.2350   24.6770   41.2040 C   0  0  0  0  0  0  0  0  0  0  0  0
   35.5120   24.9720   41.5980 H   0  0  0  0  0  0  0  0  0  0  0  0
   36.4500   22.9680   40.7010 H   0  0  0  0  0  0  0  0  0  0  0  0
   38.8830   22.7680   40.4350 H   0  0  0  0  0  0  0  0  0  0  0  0
   40.3240   24.5700   41.0770 H   0  0  0  0  0  0  0  0  0  0  0  0
   39.8590   27.0750   42.2100 S   0  0  0  0  0  0  0  0  0  0  0  0
   41.0880   26.7150   41.3490 O   0  0  0  0  0  0  0  0  0  0  0  0
   40.2630   26.9130   43.6630 O   0  0  0  0  0  0  0  0  0  0  0  0
   40.0350   28.6700   41.7690 C   0  0  0  0  0  0  0  0  0  0  0  0
   40.1890   29.8580   42.5280 C   0  0  0  0  0  0  0  0  0  0  0  0
   40.2790   29.6070   43.6030 H   0  0  0  0  0  0  0  0  0  0  0  0
   40.2150   31.1840   42.1480 C   0  0  0  0  0  3  0  0  0  0  0  0
   40.0570   31.2590   40.7900 C   0  0  0  0  0  0  0  0  0  0  0  0
   40.0470   32.5100   40.3160 N   0  0  0  0  0  0  0  0  0  0  0  0
   39.8890   32.8510   39.0280 C   0  0  0  0  0  0  0  0  0  0  0  0
   39.8850   33.8630   38.6820 H   0  0  0  0  0  0  0  0  0  0  0  0
   39.7210   31.8520   38.0940 C   0  0  0  0  0  3  0  0  0  0  0  0
   39.7280   30.5570   38.5580 C   0  0  0  0  0  3  0  0  0  0  0  0
   39.8950   30.2440   39.8910 C   0  0  0  0  0  0  0  0  0  0  0  0
   39.8870   28.9670   40.3890 C   0  0  0  0  0  3  0  0  0  0  0  0
   36.8070   27.2290   42.4410 C   0  0  0  0  0  0  0  0  0  0  0  0
   36.5250   27.4060   43.6730 O   0  0  0  0  0  0  0  0  0  0  0  0
   36.5500   28.2230   41.4410 C   0  0  0  0  0  0  0  0  0  0  0  0
   36.5560   29.5820   41.9090 C   0  0  0  0  0  0  0  0  0  0  0  0
   36.3180   30.5630   40.9530 C   0  0  0  0  0  0  0  0  0  0  0  0
   36.1020   30.1840   39.6670 N   0  0  0  0  0  0  0  0  0  0  0  0
   36.1090   28.8780   39.2910 C   0  0  0  0  0  0  0  0  0  0  0  0
   36.3260   27.9510   40.1560 N   0  0  0  0  0  0  0  0  0  0  0  0
   36.7130   29.9660   42.8790 H   0  0  0  0  0  0  0  0  0  0  0  0
   36.2960   31.6290   41.1790 H   0  0  0  0  0  0  0  0  0  0  0  0
   35.8710   28.5560   37.8620 C   0  0  1  0  0  0  0  0  0  0  0  0
   35.0830   27.3110   37.5120 C   0  0  0  0  0  0  0  0  0  0  0  0
   34.4670   28.6710   37.4160 C   0  0  1  0  0  0  0  0  0  0  0  0
   36.6490   28.8350   37.1610 H   0  0  0  0  0  0  0  0  0  0  0  0
   35.3430   26.8010   36.5730 H   0  0  0  0  0  0  0  0  0  0  0  0
   34.8950   26.6530   38.3820 H   0  0  0  0  0  0  0  0  0  0  0  0
   34.1890   29.0310   36.4020 H   0  0  0  0  0  0  0  0  0  0  0  0
   33.4080   28.8520   38.4000 N   0  0  0  0  0  0  0  0  0  0  0  0
   33.1020   27.9920   38.8630 H   0  0  0  0  0  0  0  0  0  0  0  0
   32.5610   29.2920   37.9880 H   0  0  0  0  0  0  0  0  0  0  0  0
  1  2  1  0  0  0  0
  1 11  1  0  0  0  0
  2 26  1  0  0  0  0
  3  7  1  0  0  0  0
  3  2  2  0  0  0  0
  4  3  1  0  0  0  0
  5  4  2  0  0  0  0
  5  6  1  0  0  0  0
  6  1  2  0  0  0  0
  8  4  1  0  0  0  0
  9  5  1  0  0  0  0
 10  6  1  0  0  0  0
 11 13  2  0  0  0  0
 12 11  2  0  0  0  0
 14 11  1  0  0  0  0
 14 15  1  0  0  0  0
 15 16  1  0  0  0  0
 17 15  2  0  0  0  0
 18 17  1  0  0  0  0
 19 18  1  0  0  0  0
 20 19  2  0  0  0  0
 21 20  1  0  0  0  0
 22 23  2  0  0  0  0
 22 20  1  0  0  0  0
 23 24  1  0  0  0  0
 24 25  1  0  0  0  0
 24 18  2  0  0  0  0
 25 14  2  0  0  0  0
 26 27  2  0  0  0  0
 28 29  1  0  0  0  0
 28 26  1  0  0  0  0
 29 34  1  0  0  0  0
 30 35  1  0  0  0  0
 30 29  2  0  0  0  0
 31 30  1  0  0  0  0
 32 31  2  0  0  0  0
 32 33  1  0  0  0  0
 33 28  2  0  0  0  0
 36 39  1  6  0  0  0
 36 32  1  0  0  0  0
 37 36  1  0  0  0  0
 37 41  1  0  0  0  0
 38 42  1  6  0  0  0
 38 37  1  0  0  0  0
 38 36  1  0  0  0  0
 38 43  1  0  0  0  0
 40 37  1  0  0  0  0
 43 44  1  0  0  0  0
 45 43  1  0  0  0  0
M  END
>  <minimizedAffinity>
-6.21205425

$$$$

 OpenBabel03252508053D

 45 49  0  0  1  0  0  0  0  0999 V2000
   36.9700   26.6020   40.1320 C   0  0  0  0  0  0  0  0  0  0  0  0
   37.2850   26.7210   41.4530 C   0  0  0  0  0  0  0  0  0  0  0  0
   37.2090   25.5710   42.2630 C   0  0  0  0  0  0  0  0  0  0  0  0
   36.8340   24.3410   41.7880 C   0  0  0  0  0  0  0  0  0  0  0  0
   36.5200   24.2240   40.4600 C   0  0  0  0  0  0  0  0  0  0  0  0
   36.5910   25.3340   39.6700 C   0  0  0  0  0  0  0  0  0  0  0  0
   37.4330   25.5790   43.3220 H   0  0  0  0  0  0  0  0  0  0  0  0
   36.7780   23.4770   42.3990 H   0  0  0  0  0  0  0  0  0  0  0  0
   36.2200   23.3090   40.0140 H   0  0  0  0  0  0  0  0  0  0  0  0
   36.3370   25.2390   38.6020 H   0  0  0  0  0  0  0  0  0  0  0  0
   37.0710   27.8910   39.0540 S   0  0  0  0  0  0  0  0  0  0  0  0
   35.8580   28.7420   39.4840 O   0  0  0  0  0  0  0  0  0  0  0  0
   36.8230   27.4400   37.6270 O   0  0  0  0  0  0  0  0  0  0  0  0
   38.0100   29.2650   39.0350 C   0  0  0  0  0  0  0  0  0  0  0  0
   39.4000   29.4680   38.8410 C   0  0  0  0  0  0  0  0  0  0  0  0
   39.8870   28.5080   38.5810 H   0  0  0  0  0  0  0  0  0  0  0  0
   40.1780   30.6030   38.9460 C   0  0  0  0  0  3  0  0  0  0  0  0
   39.3800   31.6550   39.3050 C   0  0  0  0  0  0  0  0  0  0  0  0
   40.0420   32.8080   39.4560 N   0  0  0  0  0  0  0  0  0  0  0  0
   39.4930   33.9770   39.8190 C   0  0  0  0  0  0  0  0  0  0  0  0
   40.0520   34.8820   39.9310 H   0  0  0  0  0  0  0  0  0  0  0  0
   38.1380   34.0260   40.0640 C   0  0  0  0  0  3  0  0  0  0  0  0
   37.4350   32.8520   39.9150 C   0  0  0  0  0  3  0  0  0  0  0  0
   38.0340   31.6670   39.5380 C   0  0  0  0  0  0  0  0  0  0  0  0
   37.3680   30.4780   39.4000 C   0  0  0  0  0  3  0  0  0  0  0  0
   37.6860   27.9900   42.0540 C   0  0  0  0  0  0  0  0  0  0  0  0
   36.8730   28.8550   42.5230 O   0  0  0  0  0  0  0  0  0  0  0  0
   39.1070   28.1780   42.0740 C   0  0  0  0  0  0  0  0  0  0  0  0
   39.5520   29.4550   42.5630 C   0  0  0  0  0  0  0  0  0  0  0  0
   40.9260   29.6550   42.5990 C   0  0  0  0  0  0  0  0  0  0  0  0
   41.7440   28.6530   42.1810 N   0  0  0  0  0  0  0  0  0  0  0  0
   41.2570   27.4690   41.7290 C   0  0  0  0  0  0  0  0  0  0  0  0
   39.9880   27.2580   41.6840 N   0  0  0  0  0  0  0  0  0  0  0  0
   38.9940   30.2830   42.9040 H   0  0  0  0  0  0  0  0  0  0  0  0
   41.3900   30.5780   42.9480 H   0  0  0  0  0  0  0  0  0  0  0  0
   42.2240   26.4280   41.2990 C   0  0  1  0  0  0  0  0  0  0  0  0
   43.2350   25.9090   42.3000 C   0  0  0  0  0  0  0  0  0  0  0  0
   42.0370   25.1000   41.9190 C   0  0  1  0  0  0  0  0  0  0  0  0
   42.5560   26.4630   40.2680 H   0  0  0  0  0  0  0  0  0  0  0  0
   44.2130   25.5920   41.9060 H   0  0  0  0  0  0  0  0  0  0  0  0
   43.2620   26.4950   43.2390 H   0  0  0  0  0  0  0  0  0  0  0  0
   42.2200   24.1530   41.3680 H   0  0  0  0  0  0  0  0  0  0  0  0
   41.1150   24.9470   43.0360 N   0  0  0  0  0  0  0  0  0  0  0  0
   41.4940   25.2240   43.9450 H   0  0  0  0  0  0  0  0  0  0  0  0
   40.7770   23.9680   43.1340 H   0  0  0  0  0  0  0  0  0  0  0  0
  1  2  1  0  0  0  0
  2 26  1  0  0  0  0
  2  3  2  0  0  0  0
  3  7  1  0  0  0  0
  4  3  1  0  0  0  0
  4  8  1  0  0  0  0
  5  4  2  0  0  0  0
  6  1  2  0  0  0  0
  6  5  1  0  0  0  0
  9  5  1  0  0  0  0
 10  6  1  0  0  0  0
 11 12  2  0  0  0  0
 11  1  1  0  0  0  0
 13 11  2  0  0  0  0
 14 11  1  0  0  0  0
 14 25  1  0  0  0  0
 15 17  1  0  0  0  0
 15 14  2  0  0  0  0
 16 15  1  0  0  0  0
 17 18  2  0  0  0  0
 18 19  1  0  0  0  0
 18 24  1  0  0  0  0
 19 20  2  0  0  0  0
 20 21  1  0  0  0  0
 20 22  1  0  0  0  0
 23 22  2  0  0  0  0
 24 23  1  0  0  0  0
 25 24  2  0  0  0  0
 26 28  1  0  0  0  0
 26 27  2  0  0  0  0
 28 29  1  0  0  0  0
 29 30  2  0  0  0  0
 29 34  1  0  0  0  0
 30 35  1  0  0  0  0
 31 30  1  0  0  0  0
 32 31  2  0  0  0  0
 33 32  1  0  0  0  0
 33 28  2  0  0  0  0
 36 39  1  6  0  0  0
 36 32  1  0  0  0  0
 36 38  1  0  0  0  0
 36 37  1  0  0  0  0
 37 41  1  0  0  0  0
 38 42  1  6  0  0  0
 38 37  1  0  0  0  0
 38 43  1  0  0  0  0
 40 37  1  0  0  0  0
 43 45  1  0  0  0  0
 43 44  1  0  0  0  0
M  END
>  <minimizedAffinity>
-6.17692518

$$$$

 OpenBabel03252508053D

 45 49  0  0  1  0  0  0  0  0999 V2000
   37.5460   28.0500   40.7410 C   0  0  0  0  0  0  0  0  0  0  0  0
   37.3510   29.1810   41.4760 C   0  0  0  0  0  0  0  0  0  0  0  0
   37.3080   29.0650   42.8790 C   0  0  0  0  0  0  0  0  0  0  0  0
   37.4530   27.8730   43.5390 C   0  0  0  0  0  0  0  0  0  0  0  0
   37.6500   26.7380   42.7980 C   0  0  0  0  0  0  0  0  0  0  0  0
   37.6920   26.8430   41.4390 C   0  0  0  0  0  0  0  0  0  0  0  0
   37.1490   29.9100   43.5370 H   0  0  0  0  0  0  0  0  0  0  0  0
   37.4210   27.7860   44.5950 H   0  0  0  0  0  0  0  0  0  0  0  0
   37.7710   25.7760   43.2310 H   0  0  0  0  0  0  0  0  0  0  0  0
   37.8500   25.9300   40.8420 H   0  0  0  0  0  0  0  0  0  0  0  0
   37.6650   28.0680   39.0610 S   0  0  0  0  0  0  0  0  0  0  0  0
   37.6300   26.5590   38.7380 O   0  0  0  0  0  0  0  0  0  0  0  0
   39.0130   28.5950   38.6090 O   0  0  0  0  0  0  0  0  0  0  0  0
   36.5440   28.3360   37.8610 C   0  0  0  0  0  0  0  0  0  0  0  0
   36.6720   28.5340   36.4630 C   0  0  0  0  0  0  0  0  0  0  0  0
   37.7280   28.3980   36.1600 H   0  0  0  0  0  0  0  0  0  0  0  0
   35.7410   28.8720   35.5020 C   0  0  0  0  0  3  0  0  0  0  0  0
   34.5190   29.0200   36.1010 C   0  0  0  0  0  0  0  0  0  0  0  0
   33.5420   29.3700   35.2570 N   0  0  0  0  0  0  0  0  0  0  0  0
   32.2640   29.5930   35.5980 C   0  0  0  0  0  0  0  0  0  0  0  0
   31.5060   29.8720   34.8970 H   0  0  0  0  0  0  0  0  0  0  0  0
   31.8970   29.4580   36.9190 C   0  0  0  0  0  3  0  0  0  0  0  0
   32.8850   29.0970   37.8070 C   0  0  0  0  0  3  0  0  0  0  0  0
   34.1910   28.8750   37.4190 C   0  0  0  0  0  0  0  0  0  0  0  0
   35.2020   28.5350   38.2790 C   0  0  0  0  0  3  0  0  0  0  0  0
   37.1760   30.4960   40.8650 C   0  0  0  0  0  0  0  0  0  0  0  0
   36.0620   30.9520   40.4400 O   0  0  0  0  0  0  0  0  0  0  0  0
   38.3950   31.2460   40.7890 C   0  0  0  0  0  0  0  0  0  0  0  0
   38.2360   32.6590   40.5800 C   0  0  0  0  0  0  0  0  0  0  0  0
   39.4050   33.4070   40.5120 C   0  0  0  0  0  0  0  0  0  0  0  0
   40.5980   32.7690   40.6450 N   0  0  0  0  0  0  0  0  0  0  0  0
   40.6770   31.4270   40.8400 C   0  0  0  0  0  0  0  0  0  0  0  0
   39.6100   30.7120   40.9060 N   0  0  0  0  0  0  0  0  0  0  0  0
   37.3590   33.2340   40.4660 H   0  0  0  0  0  0  0  0  0  0  0  0
   39.4210   34.4860   40.3570 H   0  0  0  0  0  0  0  0  0  0  0  0
   42.0220   30.8160   40.9830 C   0  0  1  0  0  0  0  0  0  0  0  0
   43.2040   31.7090   41.2990 C   0  0  0  0  0  0  0  0  0  0  0  0
   42.5850   30.8420   42.3490 C   0  0  1  0  0  0  0  0  0  0  0  0
   42.2360   29.9510   40.3650 H   0  0  0  0  0  0  0  0  0  0  0  0
   44.1830   31.4050   40.8990 H   0  0  0  0  0  0  0  0  0  0  0  0
   42.9690   32.7880   41.2280 H   0  0  0  0  0  0  0  0  0  0  0  0
   43.2060   30.0170   42.7560 H   0  0  0  0  0  0  0  0  0  0  0  0
   41.9330   31.6350   43.3830 N   0  0  0  0  0  0  0  0  0  0  0  0
   42.1570   32.6330   43.3630 H   0  0  0  0  0  0  0  0  0  0  0  0
   42.1590   31.2930   44.3390 H   0  0  0  0  0  0  0  0  0  0  0  0
  1  6  2  0  0  0  0
  1  2  1  0  0  0  0
  2  3  2  0  0  0  0
  3  7  1  0  0  0  0
  3  4  1  0  0  0  0
  4  8  1  0  0  0  0
  5  9  1  0  0  0  0
  5  4  2  0  0  0  0
  6  5  1  0  0  0  0
 10  6  1  0  0  0  0
 11  1  1  0  0  0  0
 12 11  2  0  0  0  0
 13 11  2  0  0  0  0
 14 25  1  0  0  0  0
 14 11  1  0  0  0  0
 15 14  2  0  0  0  0
 16 15  1  0  0  0  0
 17 18  2  0  0  0  0
 17 15  1  0  0  0  0
 18 24  1  0  0  0  0
 19 20  2  0  0  0  0
 19 18  1  0  0  0  0
 20 22  1  0  0  0  0
 21 20  1  0  0  0  0
 22 23  2  0  0  0  0
 24 23  1  0  0  0  0
 24 25  2  0  0  0  0
 26  2  1  0  0  0  0
 27 26  2  0  0  0  0
 28 26  1  0  0  0  0
 28 33  1  0  0  0  0
 29 28  2  0  0  0  0
 30 29  1  0  0  0  0
 30 31  2  0  0  0  0
 31 32  1  0  0  0  0
 32 33  2  0  0  0  0
 32 36  1  0  0  0  0
 34 29  1  0  0  0  0
 35 30  1  0  0  0  0
 36 39  1  6  0  0  0
 36 37  1  0  0  0  0
 36 38  1  0  0  0  0
 37 38  1  0  0  0  0
 38 42  1  1  0  0  0
 38 43  1  0  0  0  0
 40 37  1  0  0  0  0
 41 37  1  0  0  0  0
 43 45  1  0  0  0  0
 44 43  1  0  0  0  0
M  END
>  <minimizedAffinity>
-6.15800142

$$$$

 OpenBabel03252508053D

 45 49  0  0  1  0  0  0  0  0999 V2000
   38.0510   26.1030   41.7360 C   0  0  0  0  0  0  0  0  0  0  0  0
   39.1150   25.8250   40.9310 C   0  0  0  0  0  0  0  0  0  0  0  0
   39.2090   24.5350   40.3720 C   0  0  0  0  0  0  0  0  0  0  0  0
   38.2830   23.5500   40.5960 C   0  0  0  0  0  0  0  0  0  0  0  0
   37.2140   23.8330   41.4040 C   0  0  0  0  0  0  0  0  0  0  0  0
   37.1180   25.0790   41.9500 C   0  0  0  0  0  0  0  0  0  0  0  0
   40.0240   24.2280   39.7300 H   0  0  0  0  0  0  0  0  0  0  0  0
   38.3540   22.5800   40.1740 H   0  0  0  0  0  0  0  0  0  0  0  0
   36.4540   23.1270   41.6290 H   0  0  0  0  0  0  0  0  0  0  0  0
   36.2580   25.3070   42.6010 H   0  0  0  0  0  0  0  0  0  0  0  0
   37.8030   27.6210   42.4220 S   0  0  0  0  0  0  0  0  0  0  0  0
   38.8100   27.5930   43.5920 O   0  0  0  0  0  0  0  0  0  0  0  0
   36.4160   27.7360   43.0230 O   0  0  0  0  0  0  0  0  0  0  0  0
   38.3470   29.1390   42.0100 C   0  0  0  0  0  0  0  0  0  0  0  0
   39.4090   29.9380   42.5040 C   0  0  0  0  0  0  0  0  0  0  0  0
   39.9980   29.3630   43.2450 H   0  0  0  0  0  0  0  0  0  0  0  0
   39.7720   31.2410   42.2300 C   0  0  0  0  0  3  0  0  0  0  0  0
   38.8940   31.7620   41.3190 C   0  0  0  0  0  0  0  0  0  0  0  0
   39.1430   33.0370   40.9970 N   0  0  0  0  0  0  0  0  0  0  0  0
   38.4210   33.7780   40.1430 C   0  0  0  0  0  0  0  0  0  0  0  0
   38.6470   34.7960   39.9070 H   0  0  0  0  0  0  0  0  0  0  0  0
   37.3260   33.2070   39.5310 C   0  0  0  0  0  3  0  0  0  0  0  0
   37.0500   31.8960   39.8460 C   0  0  0  0  0  3  0  0  0  0  0  0
   37.8170   31.1640   40.7290 C   0  0  0  0  0  0  0  0  0  0  0  0
   37.5580   29.8640   41.0800 C   0  0  0  0  0  3  0  0  0  0  0  0
   40.1580   26.8040   40.6390 C   0  0  0  0  0  0  0  0  0  0  0  0
   41.1710   27.0240   41.3850 O   0  0  0  0  0  0  0  0  0  0  0  0
   39.9380   27.5100   39.4110 C   0  0  0  0  0  0  0  0  0  0  0  0
   39.3950   26.7220   38.3380 C   0  0  0  0  0  0  0  0  0  0  0  0
   39.1650   27.3890   37.1410 C   0  0  0  0  0  0  0  0  0  0  0  0
   39.4600   28.7140   37.0630 N   0  0  0  0  0  0  0  0  0  0  0  0
   39.9730   29.3990   38.1170 C   0  0  0  0  0  0  0  0  0  0  0  0
   40.1960   28.8050   39.2370 N   0  0  0  0  0  0  0  0  0  0  0  0
   39.1390   25.7000   38.3090 H   0  0  0  0  0  0  0  0  0  0  0  0
   38.7570   26.9070   36.2520 H   0  0  0  0  0  0  0  0  0  0  0  0
   40.2570   30.8450   37.9440 C   0  0  1  0  0  0  0  0  0  0  0  0
   41.4670   31.4430   38.6330 C   0  0  0  0  0  0  0  0  0  0  0  0
   41.4730   31.1600   37.1640 C   0  0  1  0  0  0  0  0  0  0  0  0
   39.4030   31.5030   37.8370 H   0  0  0  0  0  0  0  0  0  0  0  0
   41.3950   32.4940   38.9500 H   0  0  0  0  0  0  0  0  0  0  0  0
   41.9440   30.7530   39.3560 H   0  0  0  0  0  0  0  0  0  0  0  0
   41.5350   32.0330   36.4810 H   0  0  0  0  0  0  0  0  0  0  0  0
   42.4090   30.0970   36.8260 N   0  0  0  0  0  0  0  0  0  0  0  0
   43.0580   29.8430   37.5750 H   0  0  0  0  0  0  0  0  0  0  0  0
   42.9850   30.3330   35.9930 H   0  0  0  0  0  0  0  0  0  0  0  0
  1  6  1  0  0  0  0
  1 11  1  0  0  0  0
  2  1  2  0  0  0  0
  3  4  2  0  0  0  0
  3  2  1  0  0  0  0
  4  5  1  0  0  0  0
  5  9  1  0  0  0  0
  5  6  2  0  0  0  0
  6 10  1  0  0  0  0
  7  3  1  0  0  0  0
  8  4  1  0  0  0  0
 11 13  2  0  0  0  0
 11 12  2  0  0  0  0
 14 11  1  0  0  0  0
 14 15  1  0  0  0  0
 15 16  1  0  0  0  0
 17 15  2  0  0  0  0
 18 17  1  0  0  0  0
 19 18  1  0  0  0  0
 20 19  2  0  0  0  0
 21 20  1  0  0  0  0
 22 23  2  0  0  0  0
 22 20  1  0  0  0  0
 23 24  1  0  0  0  0
 24 25  1  0  0  0  0
 24 18  2  0  0  0  0
 25 14  2  0  0  0  0
 26  2  1  0  0  0  0
 26 27  2  0  0  0  0
 28 26  1  0  0  0  0
 29 28  2  0  0  0  0
 30 29  1  0  0  0  0
 31 30  2  0  0  0  0
 31 32  1  0  0  0  0
 32 33  2  0  0  0  0
 33 28  1  0  0  0  0
 34 29  1  0  0  0  0
 35 30  1  0  0  0  0
 36 39  1  6  0  0  0
 36 32  1  0  0  0  0
 36 37  1  0  0  0  0
 37 40  1  0  0  0  0
 37 41  1  0  0  0  0
 38 42  1  6  0  0  0
 38 36  1  0  0  0  0
 38 37  1  0  0  0  0
 43 38  1  0  0  0  0
 43 44  1  0  0  0  0
 45 43  1  0  0  0  0
M  END
>  <minimizedAffinity>
-6.14206314

$$$$

 OpenBabel03252508053D

 45 49  0  0  1  0  0  0  0  0999 V2000
   36.7900   30.1350   38.4420 C   0  0  0  0  0  0  0  0  0  0  0  0
   36.5180   30.3080   39.7660 C   0  0  0  0  0  0  0  0  0  0  0  0
   36.8020   31.5590   40.3480 C   0  0  0  0  0  0  0  0  0  0  0  0
   37.3370   32.6090   39.6470 C   0  0  0  0  0  0  0  0  0  0  0  0
   37.6080   32.4330   38.3160 C   0  0  0  0  0  0  0  0  0  0  0  0
   37.3350   31.2230   37.7470 C   0  0  0  0  0  0  0  0  0  0  0  0
   36.6260   31.7780   41.3930 H   0  0  0  0  0  0  0  0  0  0  0  0
   37.5500   33.5500   40.0850 H   0  0  0  0  0  0  0  0  0  0  0  0
   38.0220   33.1940   37.7030 H   0  0  0  0  0  0  0  0  0  0  0  0
   37.5540   31.0810   36.6760 H   0  0  0  0  0  0  0  0  0  0  0  0
   36.4490   28.7030   37.6240 S   0  0  0  0  0  0  0  0  0  0  0  0
   37.3630   28.8350   36.3870 O   0  0  0  0  0  0  0  0  0  0  0  0
   35.0160   28.6790   37.1270 O   0  0  0  0  0  0  0  0  0  0  0  0
   36.9800   27.1400   37.8330 C   0  0  0  0  0  0  0  0  0  0  0  0
   38.2070   26.5000   37.5210 C   0  0  0  0  0  0  0  0  0  0  0  0
   38.9330   27.2450   37.1420 H   0  0  0  0  0  0  0  0  0  0  0  0
   38.5870   25.1750   37.5940 C   0  0  0  0  0  3  0  0  0  0  0  0
   37.5310   24.4360   38.0540 C   0  0  0  0  0  0  0  0  0  0  0  0
   37.7880   23.1260   38.1440 N   0  0  0  0  0  0  0  0  0  0  0  0
   36.9160   22.1900   38.5490 C   0  0  0  0  0  0  0  0  0  0  0  0
   37.1530   21.1490   38.6090 H   0  0  0  0  0  0  0  0  0  0  0  0
   35.6440   22.5800   38.9100 C   0  0  0  0  0  3  0  0  0  0  0  0
   35.3580   23.9230   38.8270 C   0  0  0  0  0  3  0  0  0  0  0  0
   36.2810   24.8580   38.4060 C   0  0  0  0  0  0  0  0  0  0  0  0
   36.0220   26.1990   38.2920 C   0  0  0  0  0  3  0  0  0  0  0  0
   35.9570   29.2480   40.5990 C   0  0  0  0  0  0  0  0  0  0  0  0
   34.7200   28.9330   40.6310 O   0  0  0  0  0  0  0  0  0  0  0  0
   36.9430   28.5760   41.3930 C   0  0  0  0  0  0  0  0  0  0  0  0
   37.3920   29.2950   42.5550 C   0  0  0  0  0  0  0  0  0  0  0  0
   38.3420   28.6570   43.3440 C   0  0  0  0  0  0  0  0  0  0  0  0
   38.7750   27.4230   42.9770 N   0  0  0  0  0  0  0  0  0  0  0  0
   38.3090   26.7990   41.8640 C   0  0  0  0  0  0  0  0  0  0  0  0
   37.4310   27.3680   41.1160 N   0  0  0  0  0  0  0  0  0  0  0  0
   37.1140   30.2470   42.9130 H   0  0  0  0  0  0  0  0  0  0  0  0
   38.7620   29.0950   44.2500 H   0  0  0  0  0  0  0  0  0  0  0  0
   38.8340   25.4480   41.5440 C   0  0  1  0  0  0  0  0  0  0  0  0
   38.9690   24.4310   42.6580 C   0  0  0  0  0  0  0  0  0  0  0  0
   37.8550   24.3470   41.6640 C   0  0  1  0  0  0  0  0  0  0  0  0
   39.5720   25.3840   40.7530 H   0  0  0  0  0  0  0  0  0  0  0  0
   39.7860   23.6990   42.5710 H   0  0  0  0  0  0  0  0  0  0  0  0
   38.8140   24.8620   43.6650 H   0  0  0  0  0  0  0  0  0  0  0  0
   37.8510   23.4730   40.9790 H   0  0  0  0  0  0  0  0  0  0  0  0
   36.5610   24.5960   42.2860 N   0  0  0  0  0  0  0  0  0  0  0  0
   36.5690   24.5880   43.3100 H   0  0  0  0  0  0  0  0  0  0  0  0
   35.8420   23.9080   41.9830 H   0  0  0  0  0  0  0  0  0  0  0  0
  1  2  1  0  0  0  0
  2  3  2  0  0  0  0
  2 26  1  0  0  0  0
  3  7  1  0  0  0  0
  4  8  1  0  0  0  0
  4  3  1  0  0  0  0
  5  4  2  0  0  0  0
  6  5  1  0  0  0  0
  6  1  2  0  0  0  0
  9  5  1  0  0  0  0
 10  6  1  0  0  0  0
 11 14  1  0  0  0  0
 11  1  1  0  0  0  0
 12 11  2  0  0  0  0
 13 11  2  0  0  0  0
 14 25  1  0  0  0  0
 15 17  1  0  0  0  0
 15 14  2  0  0  0  0
 16 15  1  0  0  0  0
 17 18  2  0  0  0  0
 18 19  1  0  0  0  0
 18 24  1  0  0  0  0
 19 20  2  0  0  0  0
 20 21  1  0  0  0  0
 20 22  1  0  0  0  0
 23 22  2  0  0  0  0
 24 23  1  0  0  0  0
 25 24  2  0  0  0  0
 26 27  2  0  0  0  0
 26 28  1  0  0  0  0
 28 29  1  0  0  0  0
 29 34  1  0  0  0  0
 29 30  2  0  0  0  0
 30 35  1  0  0  0  0
 31 30  1  0  0  0  0
 32 31  2  0  0  0  0
 33 28  2  0  0  0  0
 33 32  1  0  0  0  0
 36 39  1  6  0  0  0
 36 38  1  0  0  0  0
 36 32  1  0  0  0  0
 36 37  1  0  0  0  0
 37 41  1  0  0  0  0
 38 42  1  6  0  0  0
 38 43  1  0  0  0  0
 38 37  1  0  0  0  0
 40 37  1  0  0  0  0
 43 44  1  0  0  0  0
 45 43  1  0  0  0  0
M  END
>  <minimizedAffinity>
-6.09512806

$$$$

 OpenBabel03252508053D

 45 49  0  0  1  0  0  0  0  0999 V2000
   39.2340   25.9770   41.9570 C   0  0  0  0  0  0  0  0  0  0  0  0
   37.9780   26.4490   42.1980 C   0  0  0  0  0  0  0  0  0  0  0  0
   36.8990   25.5480   42.1130 C   0  0  0  0  0  0  0  0  0  0  0  0
   37.0500   24.2220   41.8030 C   0  0  0  0  0  0  0  0  0  0  0  0
   38.3130   23.7490   41.5630 C   0  0  0  0  0  0  0  0  0  0  0  0
   39.3630   24.6170   41.6420 C   0  0  0  0  0  0  0  0  0  0  0  0
   35.8700   25.8410   42.2800 H   0  0  0  0  0  0  0  0  0  0  0  0
   36.2370   23.5440   41.7400 H   0  0  0  0  0  0  0  0  0  0  0  0
   38.5170   22.7370   41.3160 H   0  0  0  0  0  0  0  0  0  0  0  0
   40.3790   24.2370   41.4480 H   0  0  0  0  0  0  0  0  0  0  0  0
   40.6060   26.9450   42.0760 S   0  0  0  0  0  0  0  0  0  0  0  0
   41.6780   26.0300   41.4460 O   0  0  0  0  0  0  0  0  0  0  0  0
   40.9990   27.1710   43.5230 O   0  0  0  0  0  0  0  0  0  0  0  0
   41.1670   28.2120   41.1540 C   0  0  0  0  0  0  0  0  0  0  0  0
   41.4150   29.5750   41.4560 C   0  0  0  0  0  0  0  0  0  0  0  0
   41.2630   29.7530   42.5380 H   0  0  0  0  0  0  0  0  0  0  0  0
   41.7680   30.6370   40.6490 C   0  0  0  0  0  3  0  0  0  0  0  0
   41.8690   30.1970   39.3570 C   0  0  0  0  0  0  0  0  0  0  0  0
   42.1880   31.1580   38.4820 N   0  0  0  0  0  0  0  0  0  0  0  0
   42.3300   30.9880   37.1590 C   0  0  0  0  0  0  0  0  0  0  0  0
   42.5860   31.7790   36.4870 H   0  0  0  0  0  0  0  0  0  0  0  0
   42.1370   29.7320   36.6280 C   0  0  0  0  0  3  0  0  0  0  0  0
   41.8080   28.7260   37.5080 C   0  0  0  0  0  3  0  0  0  0  0  0
   41.6720   28.9380   38.8650 C   0  0  0  0  0  0  0  0  0  0  0  0
   41.3260   27.9650   39.7650 C   0  0  0  0  0  3  0  0  0  0  0  0
   37.7130   27.8470   42.5270 C   0  0  0  0  0  0  0  0  0  0  0  0
   37.8990   28.3650   43.6790 O   0  0  0  0  0  0  0  0  0  0  0  0
   37.2160   28.6020   41.4140 C   0  0  0  0  0  0  0  0  0  0  0  0
   35.8380   28.3700   41.0790 C   0  0  0  0  0  0  0  0  0  0  0  0
   35.3340   29.0990   40.0090 C   0  0  0  0  0  0  0  0  0  0  0  0
   36.1570   29.9650   39.3620 N   0  0  0  0  0  0  0  0  0  0  0  0
   37.4530   30.1360   39.7300 C   0  0  0  0  0  0  0  0  0  0  0  0
   37.9450   29.4730   40.7170 N   0  0  0  0  0  0  0  0  0  0  0  0
   35.1310   27.7240   41.5210 H   0  0  0  0  0  0  0  0  0  0  0  0
   34.3050   29.0150   39.6560 H   0  0  0  0  0  0  0  0  0  0  0  0
   38.2770   31.1100   38.9710 C   0  0  1  0  0  0  0  0  0  0  0  0
   37.5830   32.1380   38.1030 C   0  0  0  0  0  0  0  0  0  0  0  0
   38.1730   32.5120   39.4250 C   0  0  1  0  0  0  0  0  0  0  0  0
   39.2410   30.7630   38.6150 H   0  0  0  0  0  0  0  0  0  0  0  0
   38.1130   32.4670   37.1960 H   0  0  0  0  0  0  0  0  0  0  0  0
   36.4980   31.9520   37.9860 H   0  0  0  0  0  0  0  0  0  0  0  0
   39.0370   33.2090   39.4160 H   0  0  0  0  0  0  0  0  0  0  0  0
   37.1430   32.8860   40.3850 N   0  0  0  0  0  0  0  0  0  0  0  0
   36.2150   33.0370   39.9810 H   0  0  0  0  0  0  0  0  0  0  0  0
   37.3900   33.7510   40.9080 H   0  0  0  0  0  0  0  0  0  0  0  0
  1 11  1  0  0  0  0
  1  2  1  0  0  0  0
  2 26  1  0  0  0  0
  3  2  2  0  0  0  0
  3  7  1  0  0  0  0
  4  3  1  0  0  0  0
  5  6  1  0  0  0  0
  5  4  2  0  0  0  0
  6  1  2  0  0  0  0
  8  4  1  0  0  0  0
  9  5  1  0  0  0  0
 10  6  1  0  0  0  0
 11 13  2  0  0  0  0
 12 11  2  0  0  0  0
 14 15  1  0  0  0  0
 14 11  1  0  0  0  0
 15 16  1  0  0  0  0
 17 15  2  0  0  0  0
 18 17  1  0  0  0  0
 19 18  2  0  0  0  0
 20 19  1  0  0  0  0
 21 20  1  0  0  0  0
 22 20  2  0  0  0  0
 22 23  1  0  0  0  0
 23 24  2  0  0  0  0
 24 18  1  0  0  0  0
 24 25  1  0  0  0  0
 25 14  2  0  0  0  0
 26 27  2  0  0  0  0
 28 26  1  0  0  0  0
 29 28  1  0  0  0  0
 29 34  1  0  0  0  0
 30 29  2  0  0  0  0
 31 32  2  0  0  0  0
 31 30  1  0  0  0  0
 32 33  1  0  0  0  0
 33 28  2  0  0  0  0
 35 30  1  0  0  0  0
 36 39  1  6  0  0  0
 36 38  1  0  0  0  0
 36 32  1  0  0  0  0
 37 36  1  0  0  0  0
 37 38  1  0  0  0  0
 38 42  1  6  0  0  0
 38 43  1  0  0  0  0
 40 37  1  0  0  0  0
 41 37  1  0  0  0  0
 43 45  1  0  0  0  0
 44 43  1  0  0  0  0
M  END
>  <minimizedAffinity>
-6.0703845

$$$$
