
 OpenBabel03252509053D

 51 54  0  0  1  0  0  0  0  0999 V2000
   47.0810   34.3540   43.2350 N   0  0  0  0  0  0  0  0  0  0  0  0
   46.7240   34.8930   41.9750 C   0  0  0  0  0  0  0  0  0  0  0  0
   45.2790   34.6620   41.5730 C   0  0  0  0  0  0  0  0  0  0  0  0
   44.3060   34.6700   42.7260 C   0  0  0  0  0  0  0  0  0  0  0  0
   44.9950   34.9950   44.0390 C   0  0  0  0  0  0  0  0  0  0  0  0
   46.1280   33.9070   44.1210 C   0  0  2  0  0  0  0  0  0  0  0  0
   46.8370   36.0110   42.0350 H   0  0  0  0  0  0  0  0  0  0  0  0
   47.3290   34.5910   41.1170 H   0  0  0  0  0  0  0  0  0  0  0  0
   44.9950   35.3600   40.7710 H   0  0  0  0  0  0  0  0  0  0  0  0
   45.2340   33.6320   41.1450 H   0  0  0  0  0  0  0  0  0  0  0  0
   43.5760   35.4880   42.5500 H   0  0  0  0  0  0  0  0  0  0  0  0
   43.7540   33.7230   42.8530 H   0  0  0  0  0  0  0  0  0  0  0  0
   44.2930   34.8030   44.8620 H   0  0  0  0  0  0  0  0  0  0  0  0
   45.4700   35.9780   44.0280 H   0  0  0  0  0  0  0  0  0  0  0  0
   45.6130   32.9500   43.9060 H   0  0  0  0  0  0  0  0  0  0  0  0
   48.4010   33.7710   43.2790 C   0  0  0  0  0  0  0  0  0  0  0  0
   49.0260   34.3520   42.5550 H   0  0  0  0  0  0  0  0  0  0  0  0
   48.8330   33.8690   44.2900 H   0  0  0  0  0  0  0  0  0  0  0  0
   48.3020   32.3520   42.8400 C   0  0  0  0  0  0  0  0  0  0  0  0
   47.3000   32.1160   42.4170 H   0  0  0  0  0  0  0  0  0  0  0  0
   48.4610   31.6330   43.6670 H   0  0  0  0  0  0  0  0  0  0  0  0
   51.5630   31.8780   41.0370 C   0  0  0  0  0  0  0  0  0  0  0  0
   50.6220   32.1150   42.0550 C   0  0  0  0  0  0  0  0  0  0  0  0
   49.2880   32.1000   41.7540 C   0  0  0  0  0  0  0  0  0  0  0  0
   48.9460   31.8590   40.4910 N   0  0  0  0  0  0  0  0  0  0  0  0
   49.8260   31.6330   39.5120 C   0  0  0  0  0  0  0  0  0  0  0  0
   51.1550   31.6390   39.7720 N   0  0  0  0  0  0  0  0  0  0  0  0
   52.6140   31.8820   41.2390 H   0  0  0  0  0  0  0  0  0  0  0  0
   51.0210   32.2960   43.0290 H   0  0  0  0  0  0  0  0  0  0  0  0
   49.3340   31.4600   38.5670 H   0  0  0  0  0  0  0  0  0  0  0  0
   46.5250   34.0230   45.4420 O   0  0  0  0  0  0  0  0  0  0  0  0
   45.7770   31.4670   45.4610 O   0  0  0  0  0  0  0  0  0  0  0  0
   46.2300   32.6470   46.3430 P   0  0  2  0  0  0  0  0  0  0  0  0
   44.8460   32.9780   47.3110 O   0  0  0  0  0  0  0  0  0  0  0  0
   45.1830   33.3400   48.1740 H   0  0  0  0  0  0  0  0  0  0  0  0
   47.4640   32.2190   47.3560 O   0  0  0  0  0  0  0  0  0  0  0  0
   47.1950   30.9660   47.9150 C   0  0  0  0  0  0  0  0  0  0  0  0
   46.3850   30.9630   48.6490 H   0  0  0  0  0  0  0  0  0  0  0  0
   46.9390   30.2380   47.0960 H   0  0  0  0  0  0  0  0  0  0  0  0
   48.4810   30.5270   48.5310 C   0  0  0  0  0  0  0  0  0  0  0  0
   49.0540   29.2770   48.4250 C   0  0  0  0  0  0  0  0  0  0  0  0
   48.5050   28.5540   47.8360 H   0  0  0  0  0  0  0  0  0  0  0  0
   50.2550   29.0080   49.0490 C   0  0  0  0  0  3  0  0  0  0  0  0
   50.8610   30.0150   49.7760 C   0  0  0  0  0  0  0  0  0  0  0  0
   52.0190   29.8150   50.4000 N   0  0  0  0  0  0  0  0  0  0  0  0
   52.6570   30.7550   51.1200 C   0  0  0  0  0  0  0  0  0  0  0  0
   53.5980   30.6120   51.6340 H   0  0  0  0  0  0  0  0  0  0  0  0
   52.1190   32.0230   51.2540 C   0  0  0  0  0  3  0  0  0  0  0  0
   50.9240   32.2930   50.6330 C   0  0  0  0  0  3  0  0  0  0  0  0
   50.3290   31.2780   49.9110 C   0  0  0  0  0  0  0  0  0  0  0  0
   49.1150   31.5300   49.2730 C   0  0  0  0  0  3  0  0  0  0  0  0
  1 16  1  0  0  0  0
  1  6  1  0  0  0  0
  2  7  1  0  0  0  0
  2  1  1  0  0  0  0
  3  2  1  0  0  0  0
  3  4  1  0  0  0  0
  4 12  1  0  0  0  0
  4  5  1  0  0  0  0
  5  6  1  0  0  0  0
  5 13  1  0  0  0  0
  6 15  1  6  0  0  0
  6 31  1  0  0  0  0
  8  2  1  0  0  0  0
  9  3  1  0  0  0  0
 10  3  1  0  0  0  0
 11  4  1  0  0  0  0
 14  5  1  0  0  0  0
 16 18  1  0  0  0  0
 17 16  1  0  0  0  0
 19 16  1  0  0  0  0
 19 21  1  0  0  0  0
 20 19  1  0  0  0  0
 22 28  1  0  0  0  0
 22 23  1  0  0  0  0
 23 29  1  0  0  0  0
 24 23  2  0  0  0  0
 24 19  1  0  0  0  0
 25 24  1  0  0  0  0
 26 27  1  0  0  0  0
 26 25  2  0  0  0  0
 27 22  2  0  0  0  0
 30 26  1  0  0  0  0
 31 33  1  0  0  0  0
 33 32  2  6  0  0  0
 33 34  1  0  0  0  0
 33 36  1  0  0  0  0
 34 35  1  0  0  0  0
 36 37  1  0  0  0  0
 37 40  1  0  0  0  0
 37 38  1  0  0  0  0
 39 37  1  0  0  0  0
 40 51  1  0  0  0  0
 41 40  2  0  0  0  0
 41 43  1  0  0  0  0
 42 41  1  0  0  0  0
 43 44  2  0  0  0  0
 44 50  1  0  0  0  0
 44 45  1  0  0  0  0
 45 46  2  0  0  0  0
 46 48  1  0  0  0  0
 46 47  1  0  0  0  0
 49 48  2  0  0  0  0
 50 49  1  0  0  0  0
 51 50  2  0  0  0  0
M  END
>  <minimizedAffinity>
-5.55832243

>  <minimizedRMSD>
3.26660061

$$$$
