
 OpenBabel03252506473D

 45 49  0  0  1  0  0  0  0  0999 V2000
   49.5490   33.3540   41.5070 N   0  0  1  0  0  0  0  0  0  0  0  0
   50.7450   33.1260   42.2790 C   0  0  0  0  0  0  0  0  0  0  0  0
   51.3690   31.7830   42.0190 C   0  0  0  0  0  0  0  0  0  0  0  0
   50.4420   30.7160   42.5590 C   0  0  0  0  0  0  0  0  0  0  0  0
   48.9970   31.0970   42.3350 C   0  0  0  0  0  0  0  0  0  0  0  0
   48.9190   32.0950   41.1890 C   0  0  2  0  0  0  0  0  0  0  0  0
   50.5230   33.1880   43.3730 H   0  0  0  0  0  0  0  0  0  0  0  0
   51.4930   33.8900   42.0430 H   0  0  0  0  0  0  0  0  0  0  0  0
   52.2820   31.7510   42.6680 H   0  0  0  0  0  0  0  0  0  0  0  0
   51.6600   31.6430   40.9700 H   0  0  0  0  0  0  0  0  0  0  0  0
   50.6150   29.8130   41.9340 H   0  0  0  0  0  0  0  0  0  0  0  0
   50.6590   30.4440   43.6070 H   0  0  0  0  0  0  0  0  0  0  0  0
   48.6380   31.5600   43.2660 H   0  0  0  0  0  0  0  0  0  0  0  0
   48.3690   30.2400   42.0480 H   0  0  0  0  0  0  0  0  0  0  0  0
   47.8340   32.2950   41.0630 H   0  0  0  0  0  0  0  0  0  0  0  0
   47.2860   34.5250   41.9380 C   0  0  1  0  0  0  0  0  0  0  0  0
   48.2920   35.4850   41.5060 C   0  0  0  0  0  0  0  0  0  0  0  0
   48.7430   34.2670   42.2460 C   0  0  2  0  0  0  0  0  0  0  0  0
   46.8750   33.7040   41.2800 H   0  0  0  0  0  0  0  0  0  0  0  0
   48.4720   35.5600   40.3980 H   0  0  0  0  0  0  0  0  0  0  0  0
   48.2720   36.4830   41.9740 H   0  0  0  0  0  0  0  0  0  0  0  0
   49.0340   34.4500   43.3040 H   0  0  0  0  0  0  0  0  0  0  0  0
   45.5970   36.0280   43.0320 C   0  0  0  0  0  0  0  0  0  0  0  0
   46.3600   34.8360   43.0410 C   0  0  0  0  0  0  0  0  0  0  0  0
   46.2020   33.9690   44.1170 C   0  0  0  0  0  0  0  0  0  0  0  0
   45.3260   34.3100   45.0990 N   0  0  0  0  0  0  0  0  0  0  0  0
   44.6110   35.4410   45.0750 C   0  0  0  0  0  0  0  0  0  0  0  0
   44.7400   36.3190   44.0320 N   0  0  0  0  0  0  0  0  0  0  0  0
   45.7470   36.6750   42.1790 H   0  0  0  0  0  0  0  0  0  0  0  0
   46.7590   33.0380   44.1840 H   0  0  0  0  0  0  0  0  0  0  0  0
   43.9150   35.7090   45.8600 H   0  0  0  0  0  0  0  0  0  0  0  0
   49.3830   31.4750   39.9900 N   0  0  0  0  0  0  0  0  0  0  0  0
   49.9750   30.5990   40.0820 H   0  0  0  0  0  0  0  0  0  0  0  0
   49.1460   31.8890   38.6690 C   0  0  0  0  0  0  0  0  0  0  0  0
   48.3090   32.9020   38.2910 C   0  0  0  0  0  0  0  0  0  0  0  0
   47.7760   33.4570   39.0320 H   0  0  0  0  0  0  0  0  0  0  0  0
   48.0560   33.3230   37.0100 C   0  0  0  0  0  3  0  0  0  0  0  0
   48.7120   32.6600   35.9740 C   0  0  0  0  0  0  0  0  0  0  0  0
   48.5360   32.9930   34.6840 N   0  0  0  0  0  0  0  0  0  0  0  0
   49.1660   32.3570   33.6820 C   0  0  0  0  0  0  0  0  0  0  0  0
   48.9280   32.7310   32.7040 H   0  0  0  0  0  0  0  0  0  0  0  0
   50.0460   31.3050   33.9350 C   0  0  0  0  0  3  0  0  0  0  0  0
   50.2190   30.9720   35.2620 C   0  0  0  0  0  3  0  0  0  0  0  0
   49.5670   31.6320   36.2780 C   0  0  0  0  0  0  0  0  0  0  0  0
   49.7610   31.2780   37.5850 C   0  0  0  0  0  3  0  0  0  0  0  0
  1 18  1  0  0  0  0
  1  2  1  1  0  0  0
  2  7  1  0  0  0  0
  3  2  1  0  0  0  0
  3  4  1  0  0  0  0
  3  9  1  0  0  0  0
  4 12  1  0  0  0  0
  5  4  1  0  0  0  0
  5 13  1  0  0  0  0
  6 15  1  6  0  0  0
  6  1  1  0  0  0  0
  6  5  1  0  0  0  0
  8  2  1  0  0  0  0
 10  3  1  0  0  0  0
 11  4  1  0  0  0  0
 14  5  1  0  0  0  0
 16 19  1  6  0  0  0
 16 18  1  0  0  0  0
 16 24  1  0  0  0  0
 17 16  1  0  0  0  0
 17 21  1  0  0  0  0
 17 18  1  0  0  0  0
 18 22  1  1  0  0  0
 20 17  1  0  0  0  0
 23 24  2  0  0  0  0
 23 28  1  0  0  0  0
 24 25  1  0  0  0  0
 25 30  1  0  0  0  0
 25 26  2  0  0  0  0
 27 26  1  0  0  0  0
 27 31  1  0  0  0  0
 28 27  2  0  0  0  0
 29 23  1  0  0  0  0
 32 33  1  0  0  0  0
 32  6  1  0  0  0  0
 34 32  1  0  0  0  0
 35 34  1  0  0  0  0
 35 36  1  0  0  0  0
 37 35  2  0  0  0  0
 38 44  1  0  0  0  0
 38 37  1  0  0  0  0
 39 38  2  0  0  0  0
 40 42  2  0  0  0  0
 40 39  1  0  0  0  0
 41 40  1  0  0  0  0
 42 43  1  0  0  0  0
 43 44  2  0  0  0  0
 44 45  1  0  0  0  0
 45 34  2  0  0  0  0
M  END
>  <minimizedAffinity>
-5.86185026

>  <minimizedRMSD>
0.659787059

$$$$
