
 OpenBabel03252509053D

 51 54  0  0  1  0  0  0  0  0999 V2000
   46.4840   34.4580   43.7740 N   0  0  0  0  0  0  0  0  0  0  0  0
   46.2680   35.1110   42.5360 C   0  0  0  0  0  0  0  0  0  0  0  0
   44.8110   35.2280   42.1270 C   0  0  0  0  0  0  0  0  0  0  0  0
   43.8560   35.4120   43.2820 C   0  0  0  0  0  0  0  0  0  0  0  0
   44.5910   35.5220   44.6060 C   0  0  0  0  0  0  0  0  0  0  0  0
   45.4480   34.2040   44.6430 C   0  0  2  0  0  0  0  0  0  0  0  0
   46.6300   36.1720   42.6400 H   0  0  0  0  0  0  0  0  0  0  0  0
   46.7950   34.7140   41.6660 H   0  0  0  0  0  0  0  0  0  0  0  0
   44.6980   36.0030   41.3550 H   0  0  0  0  0  0  0  0  0  0  0  0
   44.5370   34.2530   41.6600 H   0  0  0  0  0  0  0  0  0  0  0  0
   43.3310   36.3800   43.1390 H   0  0  0  0  0  0  0  0  0  0  0  0
   43.1040   34.6100   43.3720 H   0  0  0  0  0  0  0  0  0  0  0  0
   43.8570   35.4620   45.4210 H   0  0  0  0  0  0  0  0  0  0  0  0
   45.2760   36.3720   44.6320 H   0  0  0  0  0  0  0  0  0  0  0  0
   44.7320   33.3970   44.3920 H   0  0  0  0  0  0  0  0  0  0  0  0
   47.6380   33.5900   43.7930 C   0  0  0  0  0  0  0  0  0  0  0  0
   48.5270   34.2450   43.6070 H   0  0  0  0  0  0  0  0  0  0  0  0
   47.7430   33.1100   44.7820 H   0  0  0  0  0  0  0  0  0  0  0  0
   47.4970   32.5980   42.6930 C   0  0  0  0  0  0  0  0  0  0  0  0
   46.8450   32.9750   41.8730 H   0  0  0  0  0  0  0  0  0  0  0  0
   47.0460   31.6440   43.0270 H   0  0  0  0  0  0  0  0  0  0  0  0
   51.1610   32.8720   41.9100 C   0  0  0  0  0  0  0  0  0  0  0  0
   49.8950   33.1060   42.4770 C   0  0  0  0  0  0  0  0  0  0  0  0
   48.8320   32.3410   42.0850 C   0  0  0  0  0  0  0  0  0  0  0  0
   49.0550   31.4000   41.1700 N   0  0  0  0  0  0  0  0  0  0  0  0
   50.2500   31.1660   40.6220 C   0  0  0  0  0  0  0  0  0  0  0  0
   51.3270   31.9030   40.9850 N   0  0  0  0  0  0  0  0  0  0  0  0
   52.0150   33.4520   42.1950 H   0  0  0  0  0  0  0  0  0  0  0  0
   49.8440   33.8890   43.2010 H   0  0  0  0  0  0  0  0  0  0  0  0
   50.2070   30.3600   39.9040 H   0  0  0  0  0  0  0  0  0  0  0  0
   45.8520   34.1760   45.9670 O   0  0  0  0  0  0  0  0  0  0  0  0
   45.5010   31.5660   45.5730 O   0  0  0  0  0  0  0  0  0  0  0  0
   45.9020   32.6350   46.6090 P   0  0  2  0  0  0  0  0  0  0  0  0
   44.6480   32.5470   47.7830 O   0  0  0  0  0  0  0  0  0  0  0  0
   45.0550   32.8060   48.6540 H   0  0  0  0  0  0  0  0  0  0  0  0
   47.3260   32.2580   47.3620 O   0  0  0  0  0  0  0  0  0  0  0  0
   47.2390   30.9720   47.9050 C   0  0  0  0  0  0  0  0  0  0  0  0
   46.5460   30.8830   48.7460 H   0  0  0  0  0  0  0  0  0  0  0  0
   46.9250   30.2480   47.1040 H   0  0  0  0  0  0  0  0  0  0  0  0
   48.6310   30.6250   48.3150 C   0  0  0  0  0  0  0  0  0  0  0  0
   49.3850   29.5700   47.8440 C   0  0  0  0  0  0  0  0  0  0  0  0
   48.9050   28.9420   47.1050 H   0  0  0  0  0  0  0  0  0  0  0  0
   50.6660   29.3680   48.3150 C   0  0  0  0  0  3  0  0  0  0  0  0
   51.1680   30.2410   49.2590 C   0  0  0  0  0  0  0  0  0  0  0  0
   52.3980   30.0960   49.7490 N   0  0  0  0  0  0  0  0  0  0  0  0
   52.9410   30.9120   50.6700 C   0  0  0  0  0  0  0  0  0  0  0  0
   53.9360   30.8120   51.0790 H   0  0  0  0  0  0  0  0  0  0  0  0
   52.2220   31.9840   51.1710 C   0  0  0  0  0  3  0  0  0  0  0  0
   50.9460   32.1880   50.7040 C   0  0  0  0  0  3  0  0  0  0  0  0
   50.4570   31.3090   49.7610 C   0  0  0  0  0  0  0  0  0  0  0  0
   49.1630   31.4970   49.2730 C   0  0  0  0  0  3  0  0  0  0  0  0
  1 16  1  0  0  0  0
  1  6  1  0  0  0  0
  2  7  1  0  0  0  0
  2  1  1  0  0  0  0
  3  2  1  0  0  0  0
  3  4  1  0  0  0  0
  4 12  1  0  0  0  0
  4  5  1  0  0  0  0
  5 14  1  0  0  0  0
  5  6  1  0  0  0  0
  5 13  1  0  0  0  0
  6 15  1  6  0  0  0
  6 31  1  0  0  0  0
  8  2  1  0  0  0  0
  9  3  1  0  0  0  0
 10  3  1  0  0  0  0
 11  4  1  0  0  0  0
 16 18  1  0  0  0  0
 17 16  1  0  0  0  0
 19 21  1  0  0  0  0
 19 16  1  0  0  0  0
 20 19  1  0  0  0  0
 22 28  1  0  0  0  0
 22 23  1  0  0  0  0
 23 29  1  0  0  0  0
 24 23  2  0  0  0  0
 24 19  1  0  0  0  0
 25 24  1  0  0  0  0
 26 27  1  0  0  0  0
 26 25  2  0  0  0  0
 27 22  2  0  0  0  0
 30 26  1  0  0  0  0
 31 33  1  0  0  0  0
 33 32  2  6  0  0  0
 33 36  1  0  0  0  0
 33 34  1  0  0  0  0
 34 35  1  0  0  0  0
 36 37  1  0  0  0  0
 37 40  1  0  0  0  0
 37 38  1  0  0  0  0
 39 37  1  0  0  0  0
 40 51  1  0  0  0  0
 41 43  1  0  0  0  0
 41 40  2  0  0  0  0
 42 41  1  0  0  0  0
 43 44  2  0  0  0  0
 44 45  1  0  0  0  0
 44 50  1  0  0  0  0
 45 46  2  0  0  0  0
 46 47  1  0  0  0  0
 46 48  1  0  0  0  0
 49 48  2  0  0  0  0
 50 49  1  0  0  0  0
 51 50  2  0  0  0  0
M  END
>  <minimizedAffinity>
-5.64760494

>  <minimizedRMSD>
3.65329957

$$$$
