
 OpenBabel03242518473D

 48 52  0  0  1  0  0  0  0  0999 V2000
   47.4890   32.7950   44.1970 C   0  0  2  0  0  0  0  0  0  0  0  0
   47.4760   33.3430   42.8150 C   0  0  1  0  0  0  0  0  0  0  0  0
   47.5330   32.2460   41.7520 C   0  0  0  0  0  0  0  0  0  0  0  0
   48.6660   31.5030   42.0930 O   0  0  0  0  0  0  0  0  0  0  0  0
   48.4510   30.7320   43.2160 C   0  0  0  0  0  0  0  0  0  0  0  0
   47.3860   31.2590   44.1270 C   0  0  1  0  0  0  0  0  0  0  0  0
   48.4550   33.0070   44.6740 H   0  0  0  0  0  0  0  0  0  0  0  0
   48.3900   33.9830   42.6530 H   0  0  0  0  0  0  0  0  0  0  0  0
   47.7650   32.7080   40.7710 H   0  0  0  0  0  0  0  0  0  0  0  0
   46.6070   31.6550   41.7350 H   0  0  0  0  0  0  0  0  0  0  0  0
   49.3910   30.6510   43.8300 H   0  0  0  0  0  0  0  0  0  0  0  0
   48.1510   29.6910   42.9370 H   0  0  0  0  0  0  0  0  0  0  0  0
   46.3500   31.0960   43.7570 H   0  0  0  0  0  0  0  0  0  0  0  0
   45.0210   36.0610   42.8250 C   0  0  0  0  0  0  0  0  0  0  0  0
   44.0670   35.6750   41.8370 C   0  0  0  0  0  0  0  0  0  0  0  0
   44.3300   34.4400   41.1860 C   0  0  0  0  0  0  0  0  0  0  0  0
   45.4280   33.7300   41.5280 N   0  0  0  0  0  0  0  0  0  0  0  0
   46.2920   34.1560   42.4750 C   0  0  0  0  0  0  0  0  0  0  0  0
   46.0860   35.3210   43.1210 N   0  0  0  0  0  0  0  0  0  0  0  0
   43.2080   36.2450   41.5790 H   0  0  0  0  0  0  0  0  0  0  0  0
   43.6560   34.0740   40.4240 H   0  0  0  0  0  0  0  0  0  0  0  0
   44.7880   37.2440   43.4650 O   0  0  0  0  0  0  0  0  0  0  0  0
   45.5120   37.9480   43.6220 H   0  0  0  0  0  0  0  0  0  0  0  0
   46.4480   33.2600   45.0000 O   0  0  0  0  0  0  0  0  0  0  0  0
   46.8120   33.8160   45.7450 H   0  0  0  0  0  0  0  0  0  0  0  0
   47.4910   30.7970   45.4190 O   0  0  0  0  0  0  0  0  0  0  0  0
   48.0190   28.1700   45.7760 F   0  0  0  0  0  0  0  0  0  0  0  0
   47.0370   28.8540   46.4000 C   0  0  0  0  0  0  0  0  0  0  0  0
   46.6990   30.1870   46.2820 C   0  0  0  0  0  0  0  0  0  0  0  0
   45.6340   30.5950   47.0690 C   0  0  0  0  0  0  0  0  0  0  0  0
   44.9100   29.8050   47.9290 C   0  0  0  0  0  0  0  0  0  0  0  0
   45.2870   28.4980   48.0060 C   0  0  0  0  0  0  0  0  0  0  0  0
   46.3370   27.9930   47.2620 C   0  0  0  0  0  0  0  0  0  0  0  0
   45.4250   31.6700   46.9190 H   0  0  0  0  0  0  0  0  0  0  0  0
   44.1110   30.2360   48.4820 H   0  0  0  0  0  0  0  0  0  0  0  0
   44.7090   27.8670   48.6950 H   0  0  0  0  0  0  0  0  0  0  0  0
   46.6090   26.5720   47.4630 C   0  0  0  0  0  0  0  0  0  0  0  0
   45.8600   25.6770   46.6920 C   0  0  0  0  0  0  0  0  0  0  0  0
   45.1190   26.0670   45.9850 H   0  0  0  0  0  0  0  0  0  0  0  0
   45.9810   24.3010   46.7470 C   0  0  0  0  0  3  0  0  0  0  0  0
   46.9080   23.7860   47.6290 C   0  0  0  0  0  0  0  0  0  0  0  0
   47.0570   22.4520   47.7150 N   0  0  0  0  0  0  0  0  0  0  0  0
   47.9320   21.8620   48.5420 C   0  0  0  0  0  0  0  0  0  0  0  0
   48.0330   20.7860   48.5920 H   0  0  0  0  0  0  0  0  0  0  0  0
   48.6900   22.7260   49.3220 C   0  0  0  0  0  3  0  0  0  0  0  0
   48.5820   24.1000   49.2800 C   0  0  0  0  0  3  0  0  0  0  0  0
   47.6640   24.6450   48.4070 C   0  0  0  0  0  0  0  0  0  0  0  0
   47.5130   26.0050   48.3210 C   0  0  0  0  0  3  0  0  0  0  0  0
  1  7  1  1  0  0  0
  1 24  1  0  0  0  0
  2  8  1  6  0  0  0
  2  1  1  0  0  0  0
  3  4  1  0  0  0  0
  3  2  1  0  0  0  0
  4  5  1  0  0  0  0
  5 11  1  0  0  0  0
  5  6  1  0  0  0  0
  6 13  1  6  0  0  0
  6  1  1  0  0  0  0
  6 26  1  0  0  0  0
  9  3  1  0  0  0  0
 10  3  1  0  0  0  0
 12  5  1  0  0  0  0
 14 19  1  0  0  0  0
 14 22  1  0  0  0  0
 15 14  2  0  0  0  0
 16 17  2  0  0  0  0
 16 15  1  0  0  0  0
 17 18  1  0  0  0  0
 18  2  1  0  0  0  0
 18 19  2  0  0  0  0
 20 15  1  0  0  0  0
 21 16  1  0  0  0  0
 22 23  1  0  0  0  0
 24 25  1  0  0  0  0
 26 29  1  0  0  0  0
 27 28  1  0  0  0  0
 28 33  1  0  0  0  0
 29 28  2  0  0  0  0
 29 30  1  0  0  0  0
 30 31  2  0  0  0  0
 31 32  1  0  0  0  0
 31 35  1  0  0  0  0
 32 36  1  0  0  0  0
 33 37  1  0  0  0  0
 33 32  2  0  0  0  0
 34 30  1  0  0  0  0
 37 48  1  0  0  0  0
 38 40  1  0  0  0  0
 38 37  2  0  0  0  0
 39 38  1  0  0  0  0
 40 41  2  0  0  0  0
 41 42  1  0  0  0  0
 41 47  1  0  0  0  0
 42 43  2  0  0  0  0
 43 44  1  0  0  0  0
 43 45  1  0  0  0  0
 46 45  2  0  0  0  0
 47 46  1  0  0  0  0
 48 47  2  0  0  0  0
M  END
>  <minimizedAffinity>
-5.4532814

>  <minimizedRMSD>
3.24394608

$$$$
