
 OpenBabel03252509053D

 51 54  0  0  1  0  0  0  0  0999 V2000
   47.1340   34.3320   43.0420 N   0  0  0  0  0  0  0  0  0  0  0  0
   46.7710   34.7790   41.7480 C   0  0  0  0  0  0  0  0  0  0  0  0
   45.3610   34.4110   41.3230 C   0  0  0  0  0  0  0  0  0  0  0  0
   44.3580   34.3960   42.4510 C   0  0  0  0  0  0  0  0  0  0  0  0
   44.9810   34.8390   43.7620 C   0  0  0  0  0  0  0  0  0  0  0  0
   46.1950   33.8530   43.9260 C   0  0  2  0  0  0  0  0  0  0  0  0
   46.7920   35.9040   41.7540 H   0  0  0  0  0  0  0  0  0  0  0  0
   47.4220   34.4850   40.9220 H   0  0  0  0  0  0  0  0  0  0  0  0
   45.0450   35.0440   40.4810 H   0  0  0  0  0  0  0  0  0  0  0  0
   45.4110   33.3620   40.9470 H   0  0  0  0  0  0  0  0  0  0  0  0
   43.5700   35.1420   42.2150 H   0  0  0  0  0  0  0  0  0  0  0  0
   43.8810   33.4140   42.6120 H   0  0  0  0  0  0  0  0  0  0  0  0
   44.2730   34.6310   44.5760 H   0  0  0  0  0  0  0  0  0  0  0  0
   45.3760   35.8560   43.7130 H   0  0  0  0  0  0  0  0  0  0  0  0
   45.7650   32.8470   43.7480 H   0  0  0  0  0  0  0  0  0  0  0  0
   48.4950   33.8620   43.1480 C   0  0  0  0  0  0  0  0  0  0  0  0
   49.0760   34.3990   42.3570 H   0  0  0  0  0  0  0  0  0  0  0  0
   48.9140   34.1130   44.1380 H   0  0  0  0  0  0  0  0  0  0  0  0
   48.5060   32.3970   42.8830 C   0  0  0  0  0  0  0  0  0  0  0  0
   47.5040   32.0210   42.5780 H   0  0  0  0  0  0  0  0  0  0  0  0
   48.7990   31.8010   43.7680 H   0  0  0  0  0  0  0  0  0  0  0  0
   51.6500   31.7400   40.9340 C   0  0  0  0  0  0  0  0  0  0  0  0
   50.7690   32.0140   41.9960 C   0  0  0  0  0  0  0  0  0  0  0  0
   49.4280   32.1070   41.7500 C   0  0  0  0  0  0  0  0  0  0  0  0
   49.0190   31.9310   40.4950 N   0  0  0  0  0  0  0  0  0  0  0  0
   49.8410   31.6710   39.4760 C   0  0  0  0  0  0  0  0  0  0  0  0
   51.1760   31.5710   39.6810 N   0  0  0  0  0  0  0  0  0  0  0  0
   52.7060   31.6600   41.0920 H   0  0  0  0  0  0  0  0  0  0  0  0
   51.2190   32.1340   42.9570 H   0  0  0  0  0  0  0  0  0  0  0  0
   49.3010   31.5650   38.5470 H   0  0  0  0  0  0  0  0  0  0  0  0
   46.5440   34.0650   45.2500 O   0  0  0  0  0  0  0  0  0  0  0  0
   45.8100   31.5100   45.4190 O   0  0  0  0  0  0  0  0  0  0  0  0
   46.2340   32.7500   46.2320 P   0  0  2  0  0  0  0  0  0  0  0  0
   44.8250   33.1340   47.1420 O   0  0  0  0  0  0  0  0  0  0  0  0
   45.1380   33.5550   47.9870 H   0  0  0  0  0  0  0  0  0  0  0  0
   47.4450   32.3990   47.3020 O   0  0  0  0  0  0  0  0  0  0  0  0
   47.4390   31.0270   47.5790 C   0  0  0  0  0  0  0  0  0  0  0  0
   46.5540   30.6800   48.1170 H   0  0  0  0  0  0  0  0  0  0  0  0
   47.5230   30.4520   46.6160 H   0  0  0  0  0  0  0  0  0  0  0  0
   48.6810   30.7830   48.3680 C   0  0  0  0  0  0  0  0  0  0  0  0
   49.1520   31.5520   49.4120 C   0  0  0  0  0  0  0  0  0  0  0  0
   48.5510   32.4120   49.6730 H   0  0  0  0  0  0  0  0  0  0  0  0
   50.3230   31.2060   50.0560 C   0  0  0  0  0  3  0  0  0  0  0  0
   51.0020   30.0820   49.6310 C   0  0  0  0  0  0  0  0  0  0  0  0
   52.1370   29.6990   50.2140 N   0  0  0  0  0  0  0  0  0  0  0  0
   52.8430   28.6160   49.8440 C   0  0  0  0  0  0  0  0  0  0  0  0
   53.7660   28.2890   50.3050 H   0  0  0  0  0  0  0  0  0  0  0  0
   52.4090   27.8140   48.8020 C   0  0  0  0  0  3  0  0  0  0  0  0
   51.2440   28.1570   48.1600 C   0  0  0  0  0  3  0  0  0  0  0  0
   50.5740   29.2820   48.5940 C   0  0  0  0  0  0  0  0  0  0  0  0
   49.3890   29.6470   47.9560 C   0  0  0  0  0  3  0  0  0  0  0  0
  1 16  1  0  0  0  0
  1  6  1  0  0  0  0
  2  7  1  0  0  0  0
  2  1  1  0  0  0  0
  3  2  1  0  0  0  0
  3  4  1  0  0  0  0
  4 12  1  0  0  0  0
  4  5  1  0  0  0  0
  5  6  1  0  0  0  0
  5 13  1  0  0  0  0
  6 15  1  6  0  0  0
  6 31  1  0  0  0  0
  8  2  1  0  0  0  0
  9  3  1  0  0  0  0
 10  3  1  0  0  0  0
 11  4  1  0  0  0  0
 14  5  1  0  0  0  0
 16 18  1  0  0  0  0
 17 16  1  0  0  0  0
 19 16  1  0  0  0  0
 19 21  1  0  0  0  0
 20 19  1  0  0  0  0
 22 28  1  0  0  0  0
 22 23  1  0  0  0  0
 23 29  1  0  0  0  0
 24 23  2  0  0  0  0
 24 19  1  0  0  0  0
 25 24  1  0  0  0  0
 26 27  1  0  0  0  0
 26 25  2  0  0  0  0
 27 22  2  0  0  0  0
 30 26  1  0  0  0  0
 31 33  1  0  0  0  0
 33 32  2  6  0  0  0
 33 34  1  0  0  0  0
 33 36  1  0  0  0  0
 34 35  1  0  0  0  0
 36 37  1  0  0  0  0
 37 38  1  0  0  0  0
 37 40  1  0  0  0  0
 39 37  1  0  0  0  0
 40 41  1  0  0  0  0
 41 42  1  0  0  0  0
 41 43  2  0  0  0  0
 44 43  1  0  0  0  0
 44 45  1  0  0  0  0
 46 45  2  0  0  0  0
 46 47  1  0  0  0  0
 48 46  1  0  0  0  0
 49 50  1  0  0  0  0
 49 48  2  0  0  0  0
 50 44  2  0  0  0  0
 51 40  2  0  0  0  0
 51 50  1  0  0  0  0
M  END
>  <minimizedAffinity>
-5.20530319

>  <minimizedRMSD>
3.1792531

$$$$
