
 OpenBabel03242519293D

 46 50  0  0  0  0  0  0  0  0999 V2000
   47.8080   33.7950   42.8690 C   0  0  0  0  0  0  0  0  0  0  0  0
   48.5160   35.0030   42.5980 C   0  0  0  0  0  0  0  0  0  0  0  0
   49.8720   34.9370   42.2690 C   0  0  0  0  0  0  0  0  0  0  0  0
   50.4390   33.6860   42.2310 N   0  0  0  0  0  0  0  0  0  0  0  0
   49.7090   32.5460   42.5030 C   0  0  0  0  0  0  0  0  0  0  0  0
   48.4320   32.6240   42.8100 N   0  0  0  0  0  0  0  0  0  0  0  0
   48.1470   35.9990   42.6070 H   0  0  0  0  0  0  0  0  0  0  0  0
   50.4720   35.7990   42.0510 H   0  0  0  0  0  0  0  0  0  0  0  0
   46.3880   33.9840   43.2090 C   0  0  0  0  0  0  0  0  0  0  0  0
   45.7100   35.0270   42.4630 C   0  0  0  0  0  0  0  0  0  0  0  0
   45.3100   36.2050   43.2600 C   0  0  0  0  0  0  0  0  0  0  0  0
   44.4710   35.8190   44.4770 C   0  0  0  0  0  0  0  0  0  0  0  0
   44.9300   34.5820   45.1570 C   0  0  0  0  0  0  0  0  0  0  0  0
   46.3460   34.2260   44.7410 C   0  0  0  0  0  0  0  0  0  0  0  0
   45.8930   32.9740   43.1190 H   0  0  0  0  0  0  0  0  0  0  0  0
   44.7620   34.6100   42.0100 H   0  0  0  0  0  0  0  0  0  0  0  0
   46.2960   35.3690   41.5990 H   0  0  0  0  0  0  0  0  0  0  0  0
   44.6160   36.8370   42.6340 H   0  0  0  0  0  0  0  0  0  0  0  0
   46.1010   36.8890   43.5810 H   0  0  0  0  0  0  0  0  0  0  0  0
   43.3890   35.7530   44.1870 H   0  0  0  0  0  0  0  0  0  0  0  0
   44.5350   36.6720   45.1970 H   0  0  0  0  0  0  0  0  0  0  0  0
   44.2840   33.7250   44.8630 H   0  0  0  0  0  0  0  0  0  0  0  0
   44.9590   34.6890   46.2570 H   0  0  0  0  0  0  0  0  0  0  0  0
   46.6900   33.3220   45.2410 H   0  0  0  0  0  0  0  0  0  0  0  0
   47.0520   35.0590   44.9750 H   0  0  0  0  0  0  0  0  0  0  0  0
   50.4840   31.3190   42.4160 C   0  0  0  0  0  0  0  0  0  0  0  0
   50.1740   30.4240   41.4540 N   0  0  0  0  0  0  0  0  0  0  0  0
   51.0080   29.3650   41.5460 C   0  0  0  0  0  0  0  0  0  0  0  0
   51.8500   29.6180   42.5900 N   0  0  0  0  0  0  0  0  0  0  0  0
   51.5320   30.8050   43.1200 N   0  0  0  0  0  0  0  0  0  0  0  0
   51.0310   28.4740   40.9290 H   0  0  0  0  0  0  0  0  0  0  0  0
   52.9350   28.7710   43.0930 C   0  0  0  0  0  0  0  0  0  0  0  0
   53.7950   28.9380   42.4440 H   0  0  0  0  0  0  0  0  0  0  0  0
   52.6230   27.6890   43.0540 H   0  0  0  0  0  0  0  0  0  0  0  0
   53.2240   29.0730   44.5020 C   0  0  0  0  0  0  0  0  0  0  0  0
   54.4230   29.6830   44.8450 C   0  0  0  0  0  0  0  0  0  0  0  0
   55.1610   29.9450   44.0780 H   0  0  0  0  0  0  0  0  0  0  0  0
   54.7930   30.0090   46.1320 C   0  0  0  0  0  0  0  0  0  0  0  0
   53.9220   29.7110   47.1470 C   0  0  0  0  0  0  0  0  0  0  0  0
   54.2780   30.0280   48.4200 N   0  0  0  0  0  0  0  0  0  0  0  0
   53.4670   29.7630   49.4700 C   0  0  0  0  0  0  0  0  0  0  0  0
   53.7510   30.0150   50.4670 H   0  0  0  0  0  0  0  0  0  0  0  0
   52.2600   29.1550   49.1830 C   0  0  0  0  0  0  0  0  0  0  0  0
   51.8250   28.8000   47.9040 C   0  0  0  0  0  0  0  0  0  0  0  0
   52.7090   29.1030   46.8810 C   0  0  0  0  0  0  0  0  0  0  0  0
   52.4070   28.8060   45.5640 C   0  0  0  0  0  0  0  0  0  0  0  0
  1  9  1  0  0  0  0
  2  7  1  0  0  0  0
  2  1  2  0  0  0  0
  3  2  1  0  0  0  0
  4  3  2  0  0  0  0
  4  5  1  0  0  0  0
  5  6  2  0  0  0  0
  6  1  1  0  0  0  0
  8  3  1  0  0  0  0
  9 14  1  0  0  0  0
 10  9  1  0  0  0  0
 10 11  1  0  0  0  0
 11 19  1  0  0  0  0
 11 12  1  0  0  0  0
 12 13  1  0  0  0  0
 12 21  1  0  0  0  0
 13 23  1  0  0  0  0
 14 25  1  0  0  0  0
 14 13  1  0  0  0  0
 14 24  1  0  0  0  0
 15  9  1  0  0  0  0
 16 10  1  0  0  0  0
 17 10  1  0  0  0  0
 18 11  1  0  0  0  0
 20 12  1  0  0  0  0
 22 13  1  0  0  0  0
 26  5  1  0  0  0  0
 26 30  2  0  0  0  0
 27 28  2  0  0  0  0
 27 26  1  0  0  0  0
 28 29  1  0  0  0  0
 29 32  1  0  0  0  0
 29 30  1  0  0  0  0
 31 28  1  0  0  0  0
 32 35  1  0  0  0  0
 33 32  1  0  0  0  0
 34 32  1  0  0  0  0
 35 36  2  0  0  0  0
 35 46  1  0  0  0  0
 36 38  1  0  0  0  0
 37 36  1  0  0  0  0
 38 39  2  0  0  0  0
 39 40  1  0  0  0  0
 40 41  2  0  0  0  0
 41 42  1  0  0  0  0
 43 41  1  0  0  0  0
 44 43  2  0  0  0  0
 45 39  1  0  0  0  0
 45 44  1  0  0  0  0
 46 45  2  0  0  0  0
M  END
>  <minimizedAffinity>
-4.68439007

>  <minimizedRMSD>
5.52994728

$$$$
