
 OpenBabel03252500003D

 24 26  0  0  0  0  0  0  0  0999 V2000
   40.4270   25.7470   43.6780 C   0  0  0  0  0  0  0  0  0  0  0  0
   40.4170   27.1120   43.3400 C   0  0  0  0  0  0  0  0  0  0  0  0
   39.4260   27.5670   42.4850 C   0  0  0  0  0  0  0  0  0  0  0  0
   38.5240   26.6830   42.0200 N   0  0  0  0  0  0  0  0  0  0  0  0
   38.5480   25.3690   42.3560 C   0  0  0  0  0  0  0  0  0  0  0  0
   39.5000   24.9120   43.1820 N   0  0  0  0  0  0  0  0  0  0  0  0
   41.1840   25.3500   44.3430 H   0  0  0  0  0  0  0  0  0  0  0  0
   41.1550   27.7940   43.7300 H   0  0  0  0  0  0  0  0  0  0  0  0
   39.3140   28.9520   42.0660 C   0  0  0  0  0  0  0  0  0  0  0  0
   40.2500   29.8430   42.5470 C   0  0  0  0  0  0  0  0  0  0  0  0
   41.0670   29.6140   43.2120 H   0  0  0  0  0  0  0  0  0  0  0  0
   40.1820   31.1860   42.1710 C   0  0  0  0  0  3  0  0  0  0  0  0
   39.1830   31.6270   41.3200 C   0  0  0  0  0  0  0  0  0  0  0  0
   39.0730   32.9200   40.9240 N   0  0  0  0  0  0  0  0  0  0  0  0
   38.0980   33.3380   40.0940 C   0  0  0  0  0  0  0  0  0  0  0  0
   38.0000   34.3650   39.7720 H   0  0  0  0  0  0  0  0  0  0  0  0
   37.1350   32.4930   39.5810 C   0  0  0  0  0  3  0  0  0  0  0  0
   37.2130   31.1510   39.9650 C   0  0  0  0  0  3  0  0  0  0  0  0
   38.2320   30.7430   40.8240 C   0  0  0  0  0  0  0  0  0  0  0  0
   38.3410   29.4240   41.2260 C   0  0  0  0  0  3  0  0  0  0  0  0
   37.4640   24.5580   41.7360 C   0  0  0  0  0  0  0  0  0  0  0  0
   37.8500   23.2760   41.4930 F   0  0  0  0  0  0  0  0  0  0  0  0
   37.0520   25.1530   40.5400 F   0  0  0  0  0  0  0  0  0  0  0  0
   36.3300   24.6110   42.5520 F   0  0  0  0  0  0  0  0  0  0  0  0
  1  7  1  0  0  0  0
  2  1  1  0  0  0  0
  2  8  1  0  0  0  0
  3  2  2  0  0  0  0
  4  5  2  0  0  0  0
  4  3  1  0  0  0  0
  5  6  1  0  0  0  0
  6  1  2  0  0  0  0
  9  3  1  0  0  0  0
  9 10  1  0  0  0  0
 10 11  1  0  0  0  0
 12 10  2  0  0  0  0
 13 12  1  0  0  0  0
 14 13  1  0  0  0  0
 15 14  2  0  0  0  0
 16 15  1  0  0  0  0
 17 18  2  0  0  0  0
 17 15  1  0  0  0  0
 18 19  1  0  0  0  0
 19 20  1  0  0  0  0
 19 13  2  0  0  0  0
 20  9  2  0  0  0  0
 21  5  1  0  0  0  0
 21 24  1  0  0  0  0
 22 21  1  0  0  0  0
 23 21  1  0  0  0  0
M  END
>  <minimizedAffinity>
-5.57044458

$$$$

 OpenBabel03252500003D

 24 26  0  0  0  0  0  0  0  0999 V2000
   39.9760   26.5040   43.6700 C   0  0  0  0  0  0  0  0  0  0  0  0
   39.7420   27.8140   43.2170 C   0  0  0  0  0  0  0  0  0  0  0  0
   38.7470   28.0110   42.2730 C   0  0  0  0  0  0  0  0  0  0  0  0
   38.0540   26.9420   41.8360 N   0  0  0  0  0  0  0  0  0  0  0  0
   38.2940   25.6840   42.2850 C   0  0  0  0  0  0  0  0  0  0  0  0
   39.2520   25.4750   43.1980 N   0  0  0  0  0  0  0  0  0  0  0  0
   40.7440   26.3040   44.4070 H   0  0  0  0  0  0  0  0  0  0  0  0
   40.3140   28.6480   43.5870 H   0  0  0  0  0  0  0  0  0  0  0  0
   38.4140   29.3150   41.7310 C   0  0  0  0  0  0  0  0  0  0  0  0
   37.0960   29.5550   41.4040 C   0  0  0  0  0  0  0  0  0  0  0  0
   36.2760   28.8630   41.5110 H   0  0  0  0  0  0  0  0  0  0  0  0
   36.7290   30.7960   40.8800 C   0  0  0  0  0  3  0  0  0  0  0  0
   37.6790   31.7850   40.6860 C   0  0  0  0  0  0  0  0  0  0  0  0
   37.3740   33.0070   40.1810 N   0  0  0  0  0  0  0  0  0  0  0  0
   38.3060   33.9620   39.9970 C   0  0  0  0  0  0  0  0  0  0  0  0
   38.0750   34.9380   39.5960 H   0  0  0  0  0  0  0  0  0  0  0  0
   39.6390   33.7800   40.3050 C   0  0  0  0  0  3  0  0  0  0  0  0
   39.9940   32.5340   40.8300 C   0  0  0  0  0  3  0  0  0  0  0  0
   39.0110   31.5620   41.0110 C   0  0  0  0  0  0  0  0  0  0  0  0
   39.3250   30.3170   41.5260 C   0  0  0  0  0  3  0  0  0  0  0  0
   37.4210   24.6420   41.6780 C   0  0  0  0  0  0  0  0  0  0  0  0
   38.0560   23.4450   41.5500 F   0  0  0  0  0  0  0  0  0  0  0  0
   36.9760   25.0670   40.4230 F   0  0  0  0  0  0  0  0  0  0  0  0
   36.2500   24.5280   42.4340 F   0  0  0  0  0  0  0  0  0  0  0  0
  1  7  1  0  0  0  0
  2  8  1  0  0  0  0
  2  1  1  0  0  0  0
  3  2  2  0  0  0  0
  4  3  1  0  0  0  0
  4  5  2  0  0  0  0
  5  6  1  0  0  0  0
  6  1  2  0  0  0  0
  9  3  1  0  0  0  0
 10 11  1  0  0  0  0
 10  9  2  0  0  0  0
 12 10  1  0  0  0  0
 13 12  2  0  0  0  0
 13 19  1  0  0  0  0
 14 13  1  0  0  0  0
 15 14  2  0  0  0  0
 15 17  1  0  0  0  0
 16 15  1  0  0  0  0
 17 18  2  0  0  0  0
 18 19  1  0  0  0  0
 19 20  2  0  0  0  0
 20  9  1  0  0  0  0
 21  5  1  0  0  0  0
 21 24  1  0  0  0  0
 22 21  1  0  0  0  0
 23 21  1  0  0  0  0
M  END
>  <minimizedAffinity>
-5.53029728

$$$$

 OpenBabel03252500003D

 24 26  0  0  0  0  0  0  0  0999 V2000
   35.7390   27.5610   34.6480 C   0  0  0  0  0  0  0  0  0  0  0  0
   35.9400   27.6470   36.0370 C   0  0  0  0  0  0  0  0  0  0  0  0
   36.2670   28.8810   36.5750 C   0  0  0  0  0  0  0  0  0  0  0  0
   36.3750   29.9360   35.7450 N   0  0  0  0  0  0  0  0  0  0  0  0
   36.1770   29.8350   34.4070 C   0  0  0  0  0  0  0  0  0  0  0  0
   35.8600   28.6490   33.8690 N   0  0  0  0  0  0  0  0  0  0  0  0
   35.4820   26.6160   34.1850 H   0  0  0  0  0  0  0  0  0  0  0  0
   35.8460   26.7830   36.6730 H   0  0  0  0  0  0  0  0  0  0  0  0
   36.4990   29.0930   37.9920 C   0  0  0  0  0  0  0  0  0  0  0  0
   36.6420   30.3930   38.4290 C   0  0  0  0  0  0  0  0  0  0  0  0
   36.5990   31.2800   37.8180 H   0  0  0  0  0  0  0  0  0  0  0  0
   36.8660   30.6450   39.7840 C   0  0  0  0  0  3  0  0  0  0  0  0
   36.9470   29.6000   40.6890 C   0  0  0  0  0  0  0  0  0  0  0  0
   37.1620   29.7910   42.0150 N   0  0  0  0  0  0  0  0  0  0  0  0
   37.2380   28.7670   42.8870 C   0  0  0  0  0  0  0  0  0  0  0  0
   37.4090   28.9070   43.9430 H   0  0  0  0  0  0  0  0  0  0  0  0
   37.1030   27.4470   42.5070 C   0  0  0  0  0  3  0  0  0  0  0  0
   36.8780   27.2070   41.1480 C   0  0  0  0  0  3  0  0  0  0  0  0
   36.8040   28.2840   40.2660 C   0  0  0  0  0  0  0  0  0  0  0  0
   36.5840   28.0850   38.9150 C   0  0  0  0  0  3  0  0  0  0  0  0
   36.3440   31.1150   33.6650 C   0  0  0  0  0  0  0  0  0  0  0  0
   37.0870   30.9660   32.5350 F   0  0  0  0  0  0  0  0  0  0  0  0
   36.9440   32.0680   34.4930 F   0  0  0  0  0  0  0  0  0  0  0  0
   35.0820   31.6510   33.3870 F   0  0  0  0  0  0  0  0  0  0  0  0
  1  2  1  0  0  0  0
  2  3  2  0  0  0  0
  2  8  1  0  0  0  0
  3  9  1  0  0  0  0
  4  3  1  0  0  0  0
  5  4  2  0  0  0  0
  6  5  1  0  0  0  0
  6  1  2  0  0  0  0
  7  1  1  0  0  0  0
  9 10  2  0  0  0  0
  9 20  1  0  0  0  0
 10 12  1  0  0  0  0
 11 10  1  0  0  0  0
 12 13  2  0  0  0  0
 13 14  1  0  0  0  0
 14 15  2  0  0  0  0
 15 16  1  0  0  0  0
 17 15  1  0  0  0  0
 18 17  2  0  0  0  0
 19 13  1  0  0  0  0
 19 18  1  0  0  0  0
 20 19  2  0  0  0  0
 21  5  1  0  0  0  0
 21 23  1  0  0  0  0
 22 21  1  0  0  0  0
 24 21  1  0  0  0  0
M  END
>  <minimizedAffinity>
-5.32931662

$$$$

 OpenBabel03252500003D

 24 26  0  0  0  0  0  0  0  0999 V2000
   33.0250   28.7930   36.5600 C   0  0  0  0  0  0  0  0  0  0  0  0
   33.6520   28.9270   37.8110 C   0  0  0  0  0  0  0  0  0  0  0  0
   35.0220   29.1300   37.8370 C   0  0  0  0  0  0  0  0  0  0  0  0
   35.6860   29.1890   36.6670 N   0  0  0  0  0  0  0  0  0  0  0  0
   35.0640   29.0570   35.4680 C   0  0  0  0  0  0  0  0  0  0  0  0
   33.7400   28.8610   35.4240 N   0  0  0  0  0  0  0  0  0  0  0  0
   31.9560   28.6340   36.4930 H   0  0  0  0  0  0  0  0  0  0  0  0
   33.0910   28.8750   38.7290 H   0  0  0  0  0  0  0  0  0  0  0  0
   35.7780   29.2820   39.0660 C   0  0  0  0  0  0  0  0  0  0  0  0
   36.5350   30.4250   39.2140 C   0  0  0  0  0  0  0  0  0  0  0  0
   36.6250   31.2280   38.5000 H   0  0  0  0  0  0  0  0  0  0  0  0
   37.2800   30.6150   40.3810 C   0  0  0  0  0  3  0  0  0  0  0  0
   37.2620   29.6640   41.3870 C   0  0  0  0  0  0  0  0  0  0  0  0
   37.9660   29.8000   42.5390 N   0  0  0  0  0  0  0  0  0  0  0  0
   37.9420   28.8690   43.5120 C   0  0  0  0  0  0  0  0  0  0  0  0
   38.4980   28.9670   44.4320 H   0  0  0  0  0  0  0  0  0  0  0  0
   37.2030   27.7070   43.4200 C   0  0  0  0  0  3  0  0  0  0  0  0
   36.4630   27.5280   42.2480 C   0  0  0  0  0  3  0  0  0  0  0  0
   36.5040   28.5060   41.2560 C   0  0  0  0  0  0  0  0  0  0  0  0
   35.7850   28.3640   40.0820 C   0  0  0  0  0  3  0  0  0  0  0  0
   35.9750   29.1520   34.2940 C   0  0  0  0  0  0  0  0  0  0  0  0
   35.9070   30.3660   33.6820 F   0  0  0  0  0  0  0  0  0  0  0  0
   35.6640   28.1490   33.3710 F   0  0  0  0  0  0  0  0  0  0  0  0
   37.2780   28.8500   34.7000 F   0  0  0  0  0  0  0  0  0  0  0  0
  1  2  1  0  0  0  0
  2  3  2  0  0  0  0
  2  8  1  0  0  0  0
  3  9  1  0  0  0  0
  4  3  1  0  0  0  0
  5  4  2  0  0  0  0
  6  5  1  0  0  0  0
  6  1  2  0  0  0  0
  7  1  1  0  0  0  0
  9 10  2  0  0  0  0
  9 20  1  0  0  0  0
 10 12  1  0  0  0  0
 11 10  1  0  0  0  0
 12 13  2  0  0  0  0
 13 14  1  0  0  0  0
 14 15  2  0  0  0  0
 15 16  1  0  0  0  0
 17 15  1  0  0  0  0
 18 17  2  0  0  0  0
 19 13  1  0  0  0  0
 19 18  1  0  0  0  0
 20 19  2  0  0  0  0
 21 24  1  0  0  0  0
 21  5  1  0  0  0  0
 22 21  1  0  0  0  0
 23 21  1  0  0  0  0
M  END
>  <minimizedAffinity>
-5.31911039

$$$$

 OpenBabel03252500003D

 24 26  0  0  0  0  0  0  0  0999 V2000
   34.9510   28.8330   35.6580 C   0  0  0  0  0  0  0  0  0  0  0  0
   35.6930   28.7950   36.8510 C   0  0  0  0  0  0  0  0  0  0  0  0
   35.0210   28.9990   38.0460 C   0  0  0  0  0  0  0  0  0  0  0  0
   33.6940   29.2230   38.0060 N   0  0  0  0  0  0  0  0  0  0  0  0
   32.9930   29.2550   36.8450 C   0  0  0  0  0  0  0  0  0  0  0  0
   33.6280   29.0600   35.6800 N   0  0  0  0  0  0  0  0  0  0  0  0
   35.4370   28.6780   34.7020 H   0  0  0  0  0  0  0  0  0  0  0  0
   36.7550   28.6140   36.8480 H   0  0  0  0  0  0  0  0  0  0  0  0
   35.6790   28.9840   39.3390 C   0  0  0  0  0  0  0  0  0  0  0  0
   35.8480   30.1910   39.9850 C   0  0  0  0  0  0  0  0  0  0  0  0
   35.5360   31.1580   39.6220 H   0  0  0  0  0  0  0  0  0  0  0  0
   36.4750   30.2260   41.2320 C   0  0  0  0  0  3  0  0  0  0  0  0
   36.9290   29.0580   41.8220 C   0  0  0  0  0  0  0  0  0  0  0  0
   37.5450   29.0380   43.0310 N   0  0  0  0  0  0  0  0  0  0  0  0
   37.9820   27.8960   43.5960 C   0  0  0  0  0  0  0  0  0  0  0  0
   38.4730   27.8670   44.5570 H   0  0  0  0  0  0  0  0  0  0  0  0
   37.8410   26.6600   42.9980 C   0  0  0  0  0  3  0  0  0  0  0  0
   37.2110   26.6380   41.7500 C   0  0  0  0  0  3  0  0  0  0  0  0
   36.7670   27.8330   41.1860 C   0  0  0  0  0  0  0  0  0  0  0  0
   36.1400   27.8510   39.9530 C   0  0  0  0  0  3  0  0  0  0  0  0
   31.5380   29.5170   37.0150 C   0  0  0  0  0  0  0  0  0  0  0  0
   30.7700   28.4910   36.5580 F   0  0  0  0  0  0  0  0  0  0  0  0
   31.1860   30.6930   36.3470 F   0  0  0  0  0  0  0  0  0  0  0  0
   31.2780   29.7980   38.3600 F   0  0  0  0  0  0  0  0  0  0  0  0
  1  6  2  0  0  0  0
  1  2  1  0  0  0  0
  2  3  2  0  0  0  0
  3  9  1  0  0  0  0
  4  3  1  0  0  0  0
  5 21  1  0  0  0  0
  5  4  2  0  0  0  0
  6  5  1  0  0  0  0
  7  1  1  0  0  0  0
  8  2  1  0  0  0  0
  9 20  2  0  0  0  0
  9 10  1  0  0  0  0
 10 12  2  0  0  0  0
 11 10  1  0  0  0  0
 12 13  1  0  0  0  0
 13 14  1  0  0  0  0
 14 15  2  0  0  0  0
 15 16  1  0  0  0  0
 17 15  1  0  0  0  0
 18 17  2  0  0  0  0
 19 18  1  0  0  0  0
 19 13  2  0  0  0  0
 20 19  1  0  0  0  0
 21 24  1  0  0  0  0
 22 21  1  0  0  0  0
 23 21  1  0  0  0  0
M  END
>  <minimizedAffinity>
-5.2753582

$$$$

 OpenBabel03252500003D

 24 26  0  0  0  0  0  0  0  0999 V2000
   36.4170   26.4020   38.6900 C   0  0  0  0  0  0  0  0  0  0  0  0
   36.7760   27.7580   38.6020 C   0  0  0  0  0  0  0  0  0  0  0  0
   37.2320   28.3890   39.7490 C   0  0  0  0  0  0  0  0  0  0  0  0
   37.3080   27.6750   40.8880 N   0  0  0  0  0  0  0  0  0  0  0  0
   36.9580   26.3660   40.9540 C   0  0  0  0  0  0  0  0  0  0  0  0
   36.5150   25.7400   39.8550 N   0  0  0  0  0  0  0  0  0  0  0  0
   36.0560   25.8700   37.8180 H   0  0  0  0  0  0  0  0  0  0  0  0
   36.7030   28.3010   37.6750 H   0  0  0  0  0  0  0  0  0  0  0  0
   37.6300   29.7840   39.7820 C   0  0  0  0  0  0  0  0  0  0  0  0
   36.6640   30.7320   39.5180 C   0  0  0  0  0  0  0  0  0  0  0  0
   35.6280   30.5400   39.2860 H   0  0  0  0  0  0  0  0  0  0  0  0
   37.0010   32.0870   39.5380 C   0  0  0  0  0  3  0  0  0  0  0  0
   38.2970   32.4830   39.8200 C   0  0  0  0  0  0  0  0  0  0  0  0
   38.6760   33.7860   39.8530 N   0  0  0  0  0  0  0  0  0  0  0  0
   39.9400   34.1610   40.1300 C   0  0  0  0  0  0  0  0  0  0  0  0
   40.2530   35.1940   40.1590 H   0  0  0  0  0  0  0  0  0  0  0  0
   40.9480   33.2580   40.4020 C   0  0  0  0  0  3  0  0  0  0  0  0
   40.5990   31.9050   40.3790 C   0  0  0  0  0  3  0  0  0  0  0  0
   39.2840   31.5420   40.0900 C   0  0  0  0  0  0  0  0  0  0  0  0
   38.9010   30.2130   40.0570 C   0  0  0  0  0  3  0  0  0  0  0  0
   37.1150   25.7580   42.3040 C   0  0  0  0  0  0  0  0  0  0  0  0
   38.4210   25.5720   42.6390 F   0  0  0  0  0  0  0  0  0  0  0  0
   36.4440   24.5330   42.3530 F   0  0  0  0  0  0  0  0  0  0  0  0
   36.4480   26.5500   43.2430 F   0  0  0  0  0  0  0  0  0  0  0  0
  1  6  1  0  0  0  0
  2  1  2  0  0  0  0
  2  3  1  0  0  0  0
  3  9  1  0  0  0  0
  3  4  2  0  0  0  0
  4  5  1  0  0  0  0
  5 21  1  0  0  0  0
  6  5  2  0  0  0  0
  7  1  1  0  0  0  0
  8  2  1  0  0  0  0
  9 20  1  0  0  0  0
 10 12  1  0  0  0  0
 10  9  2  0  0  0  0
 11 10  1  0  0  0  0
 12 13  2  0  0  0  0
 13 14  1  0  0  0  0
 13 19  1  0  0  0  0
 14 15  2  0  0  0  0
 15 16  1  0  0  0  0
 15 17  1  0  0  0  0
 18 17  2  0  0  0  0
 19 18  1  0  0  0  0
 20 19  2  0  0  0  0
 21 23  1  0  0  0  0
 21 22  1  0  0  0  0
 21 24  1  0  0  0  0
M  END
>  <minimizedAffinity>
-5.19042206

$$$$

 OpenBabel03252500003D

 24 26  0  0  0  0  0  0  0  0999 V2000
   37.2920   32.8380   39.9190 C   0  0  0  0  0  0  0  0  0  0  0  0
   36.9270   31.5340   40.2980 C   0  0  0  0  0  0  0  0  0  0  0  0
   37.9120   30.7010   40.8060 C   0  0  0  0  0  0  0  0  0  0  0  0
   39.1660   31.1790   40.9130 N   0  0  0  0  0  0  0  0  0  0  0  0
   39.5000   32.4410   40.5430 C   0  0  0  0  0  0  0  0  0  0  0  0
   38.5610   33.2600   40.0490 N   0  0  0  0  0  0  0  0  0  0  0  0
   36.5550   33.5220   39.5170 H   0  0  0  0  0  0  0  0  0  0  0  0
   35.9140   31.1820   40.2000 H   0  0  0  0  0  0  0  0  0  0  0  0
   37.6560   29.3370   41.2300 C   0  0  0  0  0  0  0  0  0  0  0  0
   37.5760   29.0920   42.5850 C   0  0  0  0  0  0  0  0  0  0  0  0
   37.6860   29.8210   43.3720 H   0  0  0  0  0  0  0  0  0  0  0  0
   37.3310   27.7950   43.0390 C   0  0  0  0  0  3  0  0  0  0  0  0
   37.1700   26.7550   42.1400 C   0  0  0  0  0  0  0  0  0  0  0  0
   36.9300   25.4780   42.5290 N   0  0  0  0  0  0  0  0  0  0  0  0
   36.7730   24.4730   41.6450 C   0  0  0  0  0  0  0  0  0  0  0  0
   36.5820   23.4530   41.9430 H   0  0  0  0  0  0  0  0  0  0  0  0
   36.8430   24.6570   40.2790 C   0  0  0  0  0  3  0  0  0  0  0  0
   37.0880   25.9600   39.8360 C   0  0  0  0  0  3  0  0  0  0  0  0
   37.2460   26.9830   40.7710 C   0  0  0  0  0  0  0  0  0  0  0  0
   37.4910   28.2840   40.3700 C   0  0  0  0  0  3  0  0  0  0  0  0
   40.9370   32.7760   40.7390 C   0  0  0  0  0  0  0  0  0  0  0  0
   41.4630   32.1760   41.8420 F   0  0  0  0  0  0  0  0  0  0  0  0
   41.0910   34.1610   40.8470 F   0  0  0  0  0  0  0  0  0  0  0  0
   41.6470   32.4430   39.5810 F   0  0  0  0  0  0  0  0  0  0  0  0
  1  6  2  0  0  0  0
  1  2  1  0  0  0  0
  2  3  2  0  0  0  0
  3  4  1  0  0  0  0
  3  9  1  0  0  0  0
  5 21  1  0  0  0  0
  5  4  2  0  0  0  0
  6  5  1  0  0  0  0
  7  1  1  0  0  0  0
  8  2  1  0  0  0  0
  9 10  1  0  0  0  0
 10 12  2  0  0  0  0
 10 11  1  0  0  0  0
 13 14  1  0  0  0  0
 13 12  1  0  0  0  0
 15 16  1  0  0  0  0
 15 14  2  0  0  0  0
 17 15  1  0  0  0  0
 18 17  2  0  0  0  0
 18 19  1  0  0  0  0
 19 13  2  0  0  0  0
 20 19  1  0  0  0  0
 20  9  2  0  0  0  0
 21 23  1  0  0  0  0
 21 22  1  0  0  0  0
 24 21  1  0  0  0  0
M  END
>  <minimizedAffinity>
-5.17348146

$$$$

 OpenBabel03252500003D

 24 26  0  0  0  0  0  0  0  0999 V2000
   37.4100   28.3330   43.0450 C   0  0  0  0  0  0  0  0  0  0  0  0
   36.5570   28.2530   41.9310 C   0  0  0  0  0  0  0  0  0  0  0  0
   36.7840   29.1140   40.8690 C   0  0  0  0  0  0  0  0  0  0  0  0
   37.8080   29.9840   40.9560 N   0  0  0  0  0  0  0  0  0  0  0  0
   38.6230   30.0470   42.0390 C   0  0  0  0  0  0  0  0  0  0  0  0
   38.4170   29.2210   43.0740 N   0  0  0  0  0  0  0  0  0  0  0  0
   37.2690   27.6780   43.8960 H   0  0  0  0  0  0  0  0  0  0  0  0
   35.7450   27.5450   41.8930 H   0  0  0  0  0  0  0  0  0  0  0  0
   35.9700   29.1250   39.6680 C   0  0  0  0  0  0  0  0  0  0  0  0
   34.6010   29.0620   39.8220 C   0  0  0  0  0  0  0  0  0  0  0  0
   34.0660   29.0050   40.7570 H   0  0  0  0  0  0  0  0  0  0  0  0
   33.7780   29.0700   38.6940 C   0  0  0  0  0  3  0  0  0  0  0  0
   34.3270   29.1390   37.4250 C   0  0  0  0  0  0  0  0  0  0  0  0
   33.5710   29.1500   36.2980 N   0  0  0  0  0  0  0  0  0  0  0  0
   34.1160   29.2190   35.0680 C   0  0  0  0  0  0  0  0  0  0  0  0
   33.5250   29.2280   34.1640 H   0  0  0  0  0  0  0  0  0  0  0  0
   35.4770   29.2840   34.8520 C   0  0  0  0  0  3  0  0  0  0  0  0
   36.2920   29.2760   35.9880 C   0  0  0  0  0  3  0  0  0  0  0  0
   35.7040   29.2040   37.2500 C   0  0  0  0  0  0  0  0  0  0  0  0
   36.4770   29.1930   38.3980 C   0  0  0  0  0  3  0  0  0  0  0  0
   39.6950   31.0750   41.9390 C   0  0  0  0  0  0  0  0  0  0  0  0
   40.7010   30.6950   41.1060 F   0  0  0  0  0  0  0  0  0  0  0  0
   40.2180   31.3400   43.2080 F   0  0  0  0  0  0  0  0  0  0  0  0
   39.1280   32.2910   41.5450 F   0  0  0  0  0  0  0  0  0  0  0  0
  1  6  1  0  0  0  0
  1  7  1  0  0  0  0
  2  1  2  0  0  0  0
  3  4  2  0  0  0  0
  3  2  1  0  0  0  0
  4  5  1  0  0  0  0
  5  6  2  0  0  0  0
  8  2  1  0  0  0  0
  9 10  1  0  0  0  0
  9  3  1  0  0  0  0
 10 11  1  0  0  0  0
 12 10  2  0  0  0  0
 13 12  1  0  0  0  0
 14 13  2  0  0  0  0
 15 14  1  0  0  0  0
 16 15  1  0  0  0  0
 17 15  2  0  0  0  0
 17 18  1  0  0  0  0
 18 19  2  0  0  0  0
 19 13  1  0  0  0  0
 19 20  1  0  0  0  0
 20  9  2  0  0  0  0
 21  5  1  0  0  0  0
 21 23  1  0  0  0  0
 22 21  1  0  0  0  0
 24 21  1  0  0  0  0
M  END
>  <minimizedAffinity>
-5.09384155

$$$$

 OpenBabel03252500003D

 24 26  0  0  0  0  0  0  0  0999 V2000
   37.3250   30.7970   36.9190 C   0  0  0  0  0  0  0  0  0  0  0  0
   37.2180   29.6010   37.6490 C   0  0  0  0  0  0  0  0  0  0  0  0
   37.3990   29.6550   39.0230 C   0  0  0  0  0  0  0  0  0  0  0  0
   37.6660   30.8470   39.5890 N   0  0  0  0  0  0  0  0  0  0  0  0
   37.7640   31.9920   38.8680 C   0  0  0  0  0  0  0  0  0  0  0  0
   37.5930   31.9580   37.5390 N   0  0  0  0  0  0  0  0  0  0  0  0
   37.1910   30.8000   35.8440 H   0  0  0  0  0  0  0  0  0  0  0  0
   37.0040   28.6630   37.1650 H   0  0  0  0  0  0  0  0  0  0  0  0
   37.3130   28.4880   39.8800 C   0  0  0  0  0  0  0  0  0  0  0  0
   36.8190   28.6660   41.1550 C   0  0  0  0  0  0  0  0  0  0  0  0
   36.4850   29.5970   41.5860 H   0  0  0  0  0  0  0  0  0  0  0  0
   36.7180   27.5720   42.0170 C   0  0  0  0  0  3  0  0  0  0  0  0
   37.1130   26.3120   41.6000 C   0  0  0  0  0  0  0  0  0  0  0  0
   37.0350   25.2170   42.3970 N   0  0  0  0  0  0  0  0  0  0  0  0
   37.4200   23.9940   41.9800 C   0  0  0  0  0  0  0  0  0  0  0  0
   37.3630   23.1160   42.6060 H   0  0  0  0  0  0  0  0  0  0  0  0
   37.9220   23.7560   40.7170 C   0  0  0  0  0  3  0  0  0  0  0  0
   38.0180   24.8590   39.8640 C   0  0  0  0  0  3  0  0  0  0  0  0
   37.6120   26.1130   40.3180 C   0  0  0  0  0  0  0  0  0  0  0  0
   37.6930   27.2280   39.5030 C   0  0  0  0  0  3  0  0  0  0  0  0
   38.0650   33.2030   39.6810 C   0  0  0  0  0  0  0  0  0  0  0  0
   39.2700   33.7510   39.3670 F   0  0  0  0  0  0  0  0  0  0  0  0
   38.0430   32.8780   41.0410 F   0  0  0  0  0  0  0  0  0  0  0  0
   37.0230   34.1240   39.5330 F   0  0  0  0  0  0  0  0  0  0  0  0
  1  6  2  0  0  0  0
  1  2  1  0  0  0  0
  2  3  2  0  0  0  0
  3  4  1  0  0  0  0
  3  9  1  0  0  0  0
  5  4  2  0  0  0  0
  5 21  1  0  0  0  0
  6  5  1  0  0  0  0
  7  1  1  0  0  0  0
  8  2  1  0  0  0  0
  9 10  1  0  0  0  0
 10 11  1  0  0  0  0
 10 12  2  0  0  0  0
 13 12  1  0  0  0  0
 13 14  1  0  0  0  0
 15 14  2  0  0  0  0
 15 16  1  0  0  0  0
 17 15  1  0  0  0  0
 18 19  1  0  0  0  0
 18 17  2  0  0  0  0
 19 13  2  0  0  0  0
 20  9  2  0  0  0  0
 20 19  1  0  0  0  0
 21 23  1  0  0  0  0
 22 21  1  0  0  0  0
 24 21  1  0  0  0  0
M  END
>  <minimizedAffinity>
-5.06294823

$$$$
