
 OpenBabel03242520433D

 42 46  0  0  1  0  0  0  0  0999 V2000
   45.2560   30.8350   37.2540 C   0  0  0  0  0  0  0  0  0  0  0  0
   45.8430   31.7640   36.3720 C   0  0  0  0  0  0  0  0  0  0  0  0
   45.8190   33.1420   36.7410 C   0  0  0  0  0  0  0  0  0  0  0  0
   45.2320   33.4940   37.9270 N   0  0  0  0  0  0  0  0  0  0  0  0
   44.6870   32.5570   38.7280 C   0  0  0  0  0  0  0  0  0  0  0  0
   44.7040   31.2450   38.3880 N   0  0  0  0  0  0  0  0  0  0  0  0
   44.1080   33.0050   39.9200 N   0  0  0  0  0  0  0  0  0  0  0  0
   43.0310   33.9400   39.9020 C   0  0  2  0  0  0  0  0  0  0  0  0
   42.6810   34.5360   41.2210 C   0  0  0  0  0  0  0  0  0  0  0  0
   42.9280   33.7430   42.3640 N   0  0  0  0  0  0  0  0  0  0  0  0
   43.3970   32.4360   42.0900 C   0  0  0  0  0  0  0  0  0  0  0  0
   44.5940   32.5210   41.1900 C   0  0  0  0  0  0  0  0  0  0  0  0
   45.3040   29.8080   36.9230 H   0  0  0  0  0  0  0  0  0  0  0  0
   46.3130   31.5430   35.4370 H   0  0  0  0  0  0  0  0  0  0  0  0
   46.2520   33.8910   36.1060 H   0  0  0  0  0  0  0  0  0  0  0  0
   43.4120   34.8220   39.3010 H   0  0  0  0  0  0  0  0  0  0  0  0
   41.5750   34.7620   41.1850 H   0  0  0  0  0  0  0  0  0  0  0  0
   43.1440   35.5290   41.3940 H   0  0  0  0  0  0  0  0  0  0  0  0
   42.2030   33.7550   43.1070 H   0  0  0  0  0  0  0  0  0  0  0  0
   43.7810   32.0000   43.0600 H   0  0  0  0  0  0  0  0  0  0  0  0
   42.6750   31.7190   41.7150 H   0  0  0  0  0  0  0  0  0  0  0  0
   44.9410   31.4700   41.0150 H   0  0  0  0  0  0  0  0  0  0  0  0
   45.4180   33.1070   41.6080 H   0  0  0  0  0  0  0  0  0  0  0  0
   41.8440   33.4090   39.1770 C   0  0  0  0  0  0  0  0  0  0  0  0
   41.4930   33.4080   37.8510 C   0  0  0  0  0  0  0  0  0  0  0  0
   40.3230   32.8020   37.6420 N   0  0  0  0  0  0  0  0  0  0  0  0
   39.9150   32.4060   38.8560 C   0  0  0  0  0  0  0  0  0  0  0  0
   40.8200   32.7670   39.7700 N   0  0  0  0  0  0  0  0  0  0  0  0
   42.0830   33.8450   37.0600 H   0  0  0  0  0  0  0  0  0  0  0  0
   39.8370   32.6680   36.7360 H   0  0  0  0  0  0  0  0  0  0  0  0
   38.6630   31.6920   39.0970 C   0  0  0  0  0  0  0  0  0  0  0  0
   38.0840   31.7140   40.3490 C   0  0  0  0  0  0  0  0  0  0  0  0
   38.5420   32.2600   41.1810 H   0  0  0  0  0  0  0  0  0  0  0  0
   36.9040   31.0600   40.6400 C   0  0  0  0  0  3  0  0  0  0  0  0
   36.2850   30.3510   39.6130 C   0  0  0  0  0  0  0  0  0  0  0  0
   35.1350   29.7320   39.9510 N   0  0  0  0  0  0  0  0  0  0  0  0
   34.4800   29.0300   39.0160 C   0  0  0  0  0  0  0  0  0  0  0  0
   33.5560   28.4940   39.1680 H   0  0  0  0  0  0  0  0  0  0  0  0
   34.9690   28.9350   37.7150 C   0  0  0  0  0  3  0  0  0  0  0  0
   36.1450   29.5830   37.4150 C   0  0  0  0  0  3  0  0  0  0  0  0
   36.8400   30.3070   38.3380 C   0  0  0  0  0  0  0  0  0  0  0  0
   38.0210   30.9800   38.1040 C   0  0  0  0  0  3  0  0  0  0  0  0
  1  6  1  0  0  0  0
  2  3  1  0  0  0  0
  2  1  2  0  0  0  0
  3  4  2  0  0  0  0
  4  5  1  0  0  0  0
  5  7  1  0  0  0  0
  6  5  2  0  0  0  0
  7 12  1  0  0  0  0
  8 16  1  6  0  0  0
  8  7  1  0  0  0  0
  8  9  1  0  0  0  0
  9 18  1  0  0  0  0
  9 10  1  0  0  0  0
 10 19  1  0  0  0  0
 11 10  1  0  0  0  0
 11 20  1  0  0  0  0
 12 23  1  0  0  0  0
 12 11  1  0  0  0  0
 13  1  1  0  0  0  0
 14  2  1  0  0  0  0
 15  3  1  0  0  0  0
 17  9  1  0  0  0  0
 21 11  1  0  0  0  0
 22 12  1  0  0  0  0
 24 28  1  0  0  0  0
 24  8  1  0  0  0  0
 25 24  2  0  0  0  0
 26 25  1  0  0  0  0
 26 27  1  0  0  0  0
 27 31  1  0  0  0  0
 27 28  2  0  0  0  0
 29 25  1  0  0  0  0
 30 26  1  0  0  0  0
 31 32  1  0  0  0  0
 32 34  2  0  0  0  0
 32 33  1  0  0  0  0
 35 36  1  0  0  0  0
 35 34  1  0  0  0  0
 37 38  1  0  0  0  0
 37 36  2  0  0  0  0
 39 37  1  0  0  0  0
 40 39  2  0  0  0  0
 40 41  1  0  0  0  0
 41 35  2  0  0  0  0
 42 41  1  0  0  0  0
 42 31  2  0  0  0  0
M  END
>  <minimizedAffinity>
-6.50146389

$$$$

 OpenBabel03242520433D

 42 46  0  0  1  0  0  0  0  0999 V2000
   39.7670   25.7900   41.7130 C   0  0  0  0  0  0  0  0  0  0  0  0
   40.6680   26.1450   42.7360 C   0  0  0  0  0  0  0  0  0  0  0  0
   40.4780   27.4000   43.3880 C   0  0  0  0  0  0  0  0  0  0  0  0
   39.4360   28.1950   42.9900 N   0  0  0  0  0  0  0  0  0  0  0  0
   38.6070   27.7990   42.0040 C   0  0  0  0  0  0  0  0  0  0  0  0
   38.7790   26.6080   41.3780 N   0  0  0  0  0  0  0  0  0  0  0  0
   37.5710   28.6720   41.6610 N   0  0  0  0  0  0  0  0  0  0  0  0
   37.8500   29.9940   41.2040 C   0  0  2  0  0  0  0  0  0  0  0  0
   36.6750   30.9050   41.1270 C   0  0  0  0  0  0  0  0  0  0  0  0
   35.4200   30.3060   40.8760 N   0  0  0  0  0  0  0  0  0  0  0  0
   35.4650   28.9110   40.6380 C   0  0  0  0  0  0  0  0  0  0  0  0
   36.1960   28.2430   41.7640 C   0  0  0  0  0  0  0  0  0  0  0  0
   39.9600   24.8300   41.2570 H   0  0  0  0  0  0  0  0  0  0  0  0
   41.4950   25.5630   43.0840 H   0  0  0  0  0  0  0  0  0  0  0  0
   41.1350   27.7190   44.1740 H   0  0  0  0  0  0  0  0  0  0  0  0
   38.4980   30.4580   42.0110 H   0  0  0  0  0  0  0  0  0  0  0  0
   36.8900   31.6310   40.2880 H   0  0  0  0  0  0  0  0  0  0  0  0
   36.5640   31.5590   42.0160 H   0  0  0  0  0  0  0  0  0  0  0  0
   34.7910   30.7990   40.2130 H   0  0  0  0  0  0  0  0  0  0  0  0
   34.4050   28.5210   40.6940 H   0  0  0  0  0  0  0  0  0  0  0  0
   35.8440   28.5850   39.6760 H   0  0  0  0  0  0  0  0  0  0  0  0
   36.1910   27.1440   41.5450 H   0  0  0  0  0  0  0  0  0  0  0  0
   35.7440   28.4170   42.7460 H   0  0  0  0  0  0  0  0  0  0  0  0
   38.6600   29.9910   39.9540 C   0  0  0  0  0  0  0  0  0  0  0  0
   38.4010   29.5440   38.6840 C   0  0  0  0  0  0  0  0  0  0  0  0
   39.4270   29.7560   37.8580 N   0  0  0  0  0  0  0  0  0  0  0  0
   40.3630   30.3480   38.6120 C   0  0  0  0  0  0  0  0  0  0  0  0
   39.9070   30.4890   39.8600 N   0  0  0  0  0  0  0  0  0  0  0  0
   37.4800   29.0730   38.3750 H   0  0  0  0  0  0  0  0  0  0  0  0
   39.4850   29.5120   36.8510 H   0  0  0  0  0  0  0  0  0  0  0  0
   41.6690   30.7610   38.1050 C   0  0  0  0  0  0  0  0  0  0  0  0
   42.4100   31.7040   38.7880 C   0  0  0  0  0  0  0  0  0  0  0  0
   42.0410   32.1600   39.7130 H   0  0  0  0  0  0  0  0  0  0  0  0
   43.6500   32.1360   38.3610 C   0  0  0  0  0  3  0  0  0  0  0  0
   44.1600   31.5840   37.1880 C   0  0  0  0  0  0  0  0  0  0  0  0
   45.3740   32.0400   36.8180 N   0  0  0  0  0  0  0  0  0  0  0  0
   45.9320   31.5570   35.6980 C   0  0  0  0  0  0  0  0  0  0  0  0
   46.8940   31.8440   35.3030 H   0  0  0  0  0  0  0  0  0  0  0  0
   45.2780   30.6000   34.9250 C   0  0  0  0  0  3  0  0  0  0  0  0
   44.0410   30.1630   35.3420 C   0  0  0  0  0  3  0  0  0  0  0  0
   43.4410   30.6310   36.4740 C   0  0  0  0  0  0  0  0  0  0  0  0
   42.2080   30.2370   36.9470 C   0  0  0  0  0  3  0  0  0  0  0  0
  1  2  1  0  0  0  0
  2 14  1  0  0  0  0
  2  3  2  0  0  0  0
  3 15  1  0  0  0  0
  4  3  1  0  0  0  0
  5  4  2  0  0  0  0
  6  1  2  0  0  0  0
  6  5  1  0  0  0  0
  7 12  1  0  0  0  0
  7  5  1  0  0  0  0
  8  7  1  0  0  0  0
  8 16  1  1  0  0  0
  9  8  1  0  0  0  0
  9 18  1  0  0  0  0
 10  9  1  0  0  0  0
 11 20  1  0  0  0  0
 11 10  1  0  0  0  0
 11 12  1  0  0  0  0
 12 23  1  0  0  0  0
 13  1  1  0  0  0  0
 17  9  1  0  0  0  0
 19 10  1  0  0  0  0
 21 11  1  0  0  0  0
 22 12  1  0  0  0  0
 24  8  1  0  0  0  0
 25 24  2  0  0  0  0
 26 27  1  0  0  0  0
 26 25  1  0  0  0  0
 27 28  2  0  0  0  0
 28 24  1  0  0  0  0
 29 25  1  0  0  0  0
 30 26  1  0  0  0  0
 31 27  1  0  0  0  0
 31 32  1  0  0  0  0
 32 33  1  0  0  0  0
 34 32  2  0  0  0  0
 35 34  1  0  0  0  0
 36 35  1  0  0  0  0
 37 36  2  0  0  0  0
 38 37  1  0  0  0  0
 39 40  2  0  0  0  0
 39 37  1  0  0  0  0
 40 41  1  0  0  0  0
 41 42  1  0  0  0  0
 41 35  2  0  0  0  0
 42 31  2  0  0  0  0
M  END
>  <minimizedAffinity>
-6.35793447

$$$$

 OpenBabel03242520433D

 42 46  0  0  1  0  0  0  0  0999 V2000
   44.1040   30.6630   37.8460 C   0  0  0  0  0  0  0  0  0  0  0  0
   44.4590   31.5350   36.7980 C   0  0  0  0  0  0  0  0  0  0  0  0
   44.7570   32.8900   37.1290 C   0  0  0  0  0  0  0  0  0  0  0  0
   44.6850   33.2760   38.4410 N   0  0  0  0  0  0  0  0  0  0  0  0
   44.3400   32.3930   39.3990 C   0  0  0  0  0  0  0  0  0  0  0  0
   44.0550   31.1030   39.0960 N   0  0  0  0  0  0  0  0  0  0  0  0
   44.2910   32.8730   40.7120 N   0  0  0  0  0  0  0  0  0  0  0  0
   43.4180   33.9430   41.0660 C   0  0  2  0  0  0  0  0  0  0  0  0
   43.6460   34.5350   42.4130 C   0  0  0  0  0  0  0  0  0  0  0  0
   44.1740   33.6770   43.4050 N   0  0  0  0  0  0  0  0  0  0  0  0
   44.3300   32.3300   43.0010 C   0  0  0  0  0  0  0  0  0  0  0  0
   45.1260   32.2850   41.7310 C   0  0  0  0  0  0  0  0  0  0  0  0
   43.8900   29.6500   37.5360 H   0  0  0  0  0  0  0  0  0  0  0  0
   44.5300   31.2850   35.7610 H   0  0  0  0  0  0  0  0  0  0  0  0
   45.0340   33.5960   36.3700 H   0  0  0  0  0  0  0  0  0  0  0  0
   43.6760   34.7870   40.3540 H   0  0  0  0  0  0  0  0  0  0  0  0
   42.6420   34.9080   42.7720 H   0  0  0  0  0  0  0  0  0  0  0  0
   44.2720   35.4510   42.3930 H   0  0  0  0  0  0  0  0  0  0  0  0
   43.7700   33.7600   44.3570 H   0  0  0  0  0  0  0  0  0  0  0  0
   44.9700   31.8130   43.7770 H   0  0  0  0  0  0  0  0  0  0  0  0
   43.4300   31.7290   42.9210 H   0  0  0  0  0  0  0  0  0  0  0  0
   45.2410   31.2030   41.4610 H   0  0  0  0  0  0  0  0  0  0  0  0
   46.1170   32.7410   41.8180 H   0  0  0  0  0  0  0  0  0  0  0  0
   41.9890   33.6010   40.8230 C   0  0  0  0  0  0  0  0  0  0  0  0
   40.9760   34.2600   40.1730 C   0  0  0  0  0  0  0  0  0  0  0  0
   39.8360   33.5670   40.1880 N   0  0  0  0  0  0  0  0  0  0  0  0
   40.1210   32.4430   40.8600 C   0  0  0  0  0  0  0  0  0  0  0  0
   41.4030   32.4620   41.2380 N   0  0  0  0  0  0  0  0  0  0  0  0
   41.0770   35.2260   39.7030 H   0  0  0  0  0  0  0  0  0  0  0  0
   38.9280   33.8430   39.7700 H   0  0  0  0  0  0  0  0  0  0  0  0
   39.1480   31.3850   41.1170 C   0  0  0  0  0  0  0  0  0  0  0  0
   38.0560   31.2330   40.2870 C   0  0  0  0  0  0  0  0  0  0  0  0
   37.8950   31.8930   39.4270 H   0  0  0  0  0  0  0  0  0  0  0  0
   37.1010   30.2530   40.4760 C   0  0  0  0  0  3  0  0  0  0  0  0
   37.2640   29.3900   41.5570 C   0  0  0  0  0  0  0  0  0  0  0  0
   36.3040   28.4530   41.6950 N   0  0  0  0  0  0  0  0  0  0  0  0
   36.3910   27.5840   42.7120 C   0  0  0  0  0  0  0  0  0  0  0  0
   35.6870   26.7940   42.9240 H   0  0  0  0  0  0  0  0  0  0  0  0
   37.4490   27.6400   43.6170 C   0  0  0  0  0  3  0  0  0  0  0  0
   38.4060   28.6130   43.4370 C   0  0  0  0  0  3  0  0  0  0  0  0
   38.3520   29.5140   42.4150 C   0  0  0  0  0  0  0  0  0  0  0  0
   39.2750   30.5110   42.1770 C   0  0  0  0  0  3  0  0  0  0  0  0
  1  6  1  0  0  0  0
  2  3  1  0  0  0  0
  2  1  2  0  0  0  0
  3  4  2  0  0  0  0
  4  5  1  0  0  0  0
  5  7  1  0  0  0  0
  6  5  2  0  0  0  0
  7  8  1  0  0  0  0
  7 12  1  0  0  0  0
  8 16  1  6  0  0  0
  8  9  1  0  0  0  0
  9 17  1  0  0  0  0
  9 10  1  0  0  0  0
 10 19  1  0  0  0  0
 11 10  1  0  0  0  0
 11 20  1  0  0  0  0
 12 23  1  0  0  0  0
 12 11  1  0  0  0  0
 13  1  1  0  0  0  0
 14  2  1  0  0  0  0
 15  3  1  0  0  0  0
 18  9  1  0  0  0  0
 21 11  1  0  0  0  0
 22 12  1  0  0  0  0
 24  8  1  0  0  0  0
 24 28  1  0  0  0  0
 25 26  1  0  0  0  0
 25 24  2  0  0  0  0
 26 27  1  0  0  0  0
 27 31  1  0  0  0  0
 27 28  2  0  0  0  0
 29 25  1  0  0  0  0
 30 26  1  0  0  0  0
 31 42  1  0  0  0  0
 32 34  1  0  0  0  0
 32 31  2  0  0  0  0
 33 32  1  0  0  0  0
 34 35  2  0  0  0  0
 35 36  1  0  0  0  0
 35 41  1  0  0  0  0
 36 37  2  0  0  0  0
 37 38  1  0  0  0  0
 37 39  1  0  0  0  0
 40 39  2  0  0  0  0
 41 40  1  0  0  0  0
 42 41  2  0  0  0  0
M  END
>  <minimizedAffinity>
-6.27496243

$$$$

 OpenBabel03242520433D

 42 46  0  0  1  0  0  0  0  0999 V2000
   38.4040   31.9170   38.1680 C   0  0  0  0  0  0  0  0  0  0  0  0
   37.3240   32.5940   38.7690 C   0  0  0  0  0  0  0  0  0  0  0  0
   37.6220   33.5940   39.7420 C   0  0  0  0  0  0  0  0  0  0  0  0
   38.9340   33.8460   40.0440 N   0  0  0  0  0  0  0  0  0  0  0  0
   39.9230   33.1630   39.4330 C   0  0  0  0  0  0  0  0  0  0  0  0
   39.6510   32.2110   38.5070 N   0  0  0  0  0  0  0  0  0  0  0  0
   41.2330   33.4840   39.8020 N   0  0  0  0  0  0  0  0  0  0  0  0
   41.6660   33.3460   41.1540 C   0  0  2  0  0  0  0  0  0  0  0  0
   42.9830   33.9640   41.4700 C   0  0  0  0  0  0  0  0  0  0  0  0
   43.9230   34.0330   40.4160 N   0  0  0  0  0  0  0  0  0  0  0  0
   43.5100   33.4150   39.2110 C   0  0  0  0  0  0  0  0  0  0  0  0
   42.1700   33.9590   38.8130 C   0  0  0  0  0  0  0  0  0  0  0  0
   38.1180   31.1720   37.4390 H   0  0  0  0  0  0  0  0  0  0  0  0
   36.2860   32.4370   38.5690 H   0  0  0  0  0  0  0  0  0  0  0  0
   36.8380   34.1410   40.2300 H   0  0  0  0  0  0  0  0  0  0  0  0
   40.9300   33.9550   41.7660 H   0  0  0  0  0  0  0  0  0  0  0  0
   43.4350   33.3450   42.3000 H   0  0  0  0  0  0  0  0  0  0  0  0
   42.9020   34.9770   41.9150 H   0  0  0  0  0  0  0  0  0  0  0  0
   44.9090   33.8140   40.6540 H   0  0  0  0  0  0  0  0  0  0  0  0
   44.2230   33.7430   38.3970 H   0  0  0  0  0  0  0  0  0  0  0  0
   43.5170   32.3310   39.1830 H   0  0  0  0  0  0  0  0  0  0  0  0
   41.8930   33.4580   37.8490 H   0  0  0  0  0  0  0  0  0  0  0  0
   42.1620   35.0440   38.6700 H   0  0  0  0  0  0  0  0  0  0  0  0
   41.5590   31.9400   41.6330 C   0  0  0  0  0  0  0  0  0  0  0  0
   42.4790   31.0700   42.1610 C   0  0  0  0  0  0  0  0  0  0  0  0
   41.9350   29.8900   42.4670 N   0  0  0  0  0  0  0  0  0  0  0  0
   40.6440   30.0040   42.1280 C   0  0  0  0  0  0  0  0  0  0  0  0
   40.4190   31.2250   41.6310 N   0  0  0  0  0  0  0  0  0  0  0  0
   43.5220   31.2990   42.3150 H   0  0  0  0  0  0  0  0  0  0  0  0
   42.4120   29.0650   42.8770 H   0  0  0  0  0  0  0  0  0  0  0  0
   39.6650   28.9330   42.2930 C   0  0  0  0  0  0  0  0  0  0  0  0
   38.4950   29.1660   42.9860 C   0  0  0  0  0  0  0  0  0  0  0  0
   38.2750   30.1460   43.4230 H   0  0  0  0  0  0  0  0  0  0  0  0
   37.5310   28.1950   43.1770 C   0  0  0  0  0  3  0  0  0  0  0  0
   37.7680   26.9320   42.6390 C   0  0  0  0  0  0  0  0  0  0  0  0
   36.7950   26.0230   42.8540 N   0  0  0  0  0  0  0  0  0  0  0  0
   36.9490   24.7840   42.3670 C   0  0  0  0  0  0  0  0  0  0  0  0
   36.2430   23.9750   42.4750 H   0  0  0  0  0  0  0  0  0  0  0  0
   38.0910   24.4310   41.6500 C   0  0  0  0  0  3  0  0  0  0  0  0
   39.0570   25.3910   41.4550 C   0  0  0  0  0  3  0  0  0  0  0  0
   38.9360   26.6610   41.9340 C   0  0  0  0  0  0  0  0  0  0  0  0
   39.8640   27.6690   41.7750 C   0  0  0  0  0  3  0  0  0  0  0  0
  1  6  2  0  0  0  0
  1  2  1  0  0  0  0
  2  3  2  0  0  0  0
  3  4  1  0  0  0  0
  3 15  1  0  0  0  0
  5  7  1  0  0  0  0
  5  4  2  0  0  0  0
  6  5  1  0  0  0  0
  7  8  1  0  0  0  0
  8  9  1  0  0  0  0
  8 24  1  0  0  0  0
  8 16  1  1  0  0  0
  9 18  1  0  0  0  0
  9 17  1  0  0  0  0
 10 19  1  0  0  0  0
 10  9  1  0  0  0  0
 11 10  1  0  0  0  0
 12 11  1  0  0  0  0
 12  7  1  0  0  0  0
 13  1  1  0  0  0  0
 14  2  1  0  0  0  0
 20 11  1  0  0  0  0
 21 11  1  0  0  0  0
 22 12  1  0  0  0  0
 23 12  1  0  0  0  0
 24 25  2  0  0  0  0
 25 29  1  0  0  0  0
 25 26  1  0  0  0  0
 26 30  1  0  0  0  0
 27 31  1  0  0  0  0
 27 26  1  0  0  0  0
 28 24  1  0  0  0  0
 28 27  2  0  0  0  0
 31 32  1  0  0  0  0
 32 34  2  0  0  0  0
 32 33  1  0  0  0  0
 35 36  1  0  0  0  0
 35 34  1  0  0  0  0
 37 38  1  0  0  0  0
 37 36  2  0  0  0  0
 39 37  1  0  0  0  0
 40 39  2  0  0  0  0
 40 41  1  0  0  0  0
 41 35  2  0  0  0  0
 42 41  1  0  0  0  0
 42 31  2  0  0  0  0
M  END
>  <minimizedAffinity>
-6.22138262

$$$$

 OpenBabel03242520433D

 42 46  0  0  1  0  0  0  0  0999 V2000
   39.2040   27.4800   42.6600 C   0  0  0  0  0  0  0  0  0  0  0  0
   38.4380   27.3710   43.8380 C   0  0  0  0  0  0  0  0  0  0  0  0
   37.0190   27.4510   43.7200 C   0  0  0  0  0  0  0  0  0  0  0  0
   36.4720   27.6300   42.4770 N   0  0  0  0  0  0  0  0  0  0  0  0
   37.2600   27.7280   41.3880 C   0  0  0  0  0  0  0  0  0  0  0  0
   38.6100   27.6530   41.4880 N   0  0  0  0  0  0  0  0  0  0  0  0
   36.6180   27.9110   40.1590 N   0  0  0  0  0  0  0  0  0  0  0  0
   35.7800   29.0420   39.9340 C   0  0  2  0  0  0  0  0  0  0  0  0
   34.9510   28.9880   38.6970 C   0  0  0  0  0  0  0  0  0  0  0  0
   35.4760   28.2520   37.6110 N   0  0  0  0  0  0  0  0  0  0  0  0
   36.7780   27.7350   37.8180 C   0  0  0  0  0  0  0  0  0  0  0  0
   36.7990   26.9510   39.0960 C   0  0  0  0  0  0  0  0  0  0  0  0
   40.2720   27.4120   42.8100 H   0  0  0  0  0  0  0  0  0  0  0  0
   38.8140   27.2300   44.8290 H   0  0  0  0  0  0  0  0  0  0  0  0
   36.3880   27.3730   44.5850 H   0  0  0  0  0  0  0  0  0  0  0  0
   35.0150   29.0190   40.7710 H   0  0  0  0  0  0  0  0  0  0  0  0
   34.8120   30.0570   38.3600 H   0  0  0  0  0  0  0  0  0  0  0  0
   33.9160   28.6330   38.8750 H   0  0  0  0  0  0  0  0  0  0  0  0
   35.3620   28.6670   36.6670 H   0  0  0  0  0  0  0  0  0  0  0  0
   36.9800   26.9820   36.9990 H   0  0  0  0  0  0  0  0  0  0  0  0
   37.6020   28.4380   37.7760 H   0  0  0  0  0  0  0  0  0  0  0  0
   37.8380   26.5470   39.2090 H   0  0  0  0  0  0  0  0  0  0  0  0
   36.0860   26.1210   39.1140 H   0  0  0  0  0  0  0  0  0  0  0  0
   36.5250   30.3240   40.0710 C   0  0  0  0  0  0  0  0  0  0  0  0
   36.2440   31.4930   40.7320 C   0  0  0  0  0  0  0  0  0  0  0  0
   37.2170   32.3950   40.5920 N   0  0  0  0  0  0  0  0  0  0  0  0
   38.1390   31.7960   39.8270 C   0  0  0  0  0  0  0  0  0  0  0  0
   37.7290   30.5620   39.5170 N   0  0  0  0  0  0  0  0  0  0  0  0
   35.3440   31.6740   41.3000 H   0  0  0  0  0  0  0  0  0  0  0  0
   37.2480   33.3520   40.9900 H   0  0  0  0  0  0  0  0  0  0  0  0
   39.3900   32.4310   39.4190 C   0  0  0  0  0  0  0  0  0  0  0  0
   39.6380   33.7460   39.7540 C   0  0  0  0  0  0  0  0  0  0  0  0
   38.9150   34.3370   40.3260 H   0  0  0  0  0  0  0  0  0  0  0  0
   40.7990   34.4040   39.3980 C   0  0  0  0  0  3  0  0  0  0  0  0
   41.7500   33.6910   38.6700 C   0  0  0  0  0  0  0  0  0  0  0  0
   42.8640   34.3800   38.3490 N   0  0  0  0  0  0  0  0  0  0  0  0
   43.8260   33.7630   37.6480 C   0  0  0  0  0  0  0  0  0  0  0  0
   44.7580   34.2090   37.3350 H   0  0  0  0  0  0  0  0  0  0  0  0
   43.6870   32.4340   37.2530 C   0  0  0  0  0  3  0  0  0  0  0  0
   42.5330   31.7710   37.6030 C   0  0  0  0  0  3  0  0  0  0  0  0
   41.5330   32.3640   38.3140 C   0  0  0  0  0  0  0  0  0  0  0  0
   40.3540   31.7580   38.6970 C   0  0  0  0  0  3  0  0  0  0  0  0
  1 13  1  0  0  0  0
  1  2  1  0  0  0  0
  2 14  1  0  0  0  0
  3  2  2  0  0  0  0
  3 15  1  0  0  0  0
  4  3  1  0  0  0  0
  5  6  1  0  0  0  0
  5  4  2  0  0  0  0
  6  1  2  0  0  0  0
  7  5  1  0  0  0  0
  8 24  1  0  0  0  0
  8  7  1  0  0  0  0
  8 16  1  1  0  0  0
  9 18  1  0  0  0  0
  9  8  1  0  0  0  0
 10 11  1  0  0  0  0
 10  9  1  0  0  0  0
 11 12  1  0  0  0  0
 12 23  1  0  0  0  0
 12 22  1  0  0  0  0
 12  7  1  0  0  0  0
 17  9  1  0  0  0  0
 19 10  1  0  0  0  0
 20 11  1  0  0  0  0
 21 11  1  0  0  0  0
 24 25  2  0  0  0  0
 25 29  1  0  0  0  0
 26 25  1  0  0  0  0
 26 30  1  0  0  0  0
 27 26  1  0  0  0  0
 28 27  2  0  0  0  0
 28 24  1  0  0  0  0
 31 32  1  0  0  0  0
 31 27  1  0  0  0  0
 32 33  1  0  0  0  0
 34 32  2  0  0  0  0
 35 34  1  0  0  0  0
 36 35  1  0  0  0  0
 37 36  2  0  0  0  0
 38 37  1  0  0  0  0
 39 40  2  0  0  0  0
 39 37  1  0  0  0  0
 40 41  1  0  0  0  0
 41 35  2  0  0  0  0
 41 42  1  0  0  0  0
 42 31  2  0  0  0  0
M  END
>  <minimizedAffinity>
-6.1668911

$$$$

 OpenBabel03242520433D

 42 46  0  0  1  0  0  0  0  0999 V2000
   37.3340   28.5750   43.3050 C   0  0  0  0  0  0  0  0  0  0  0  0
   38.4000   27.6560   43.3740 C   0  0  0  0  0  0  0  0  0  0  0  0
   39.4480   27.7770   42.4140 C   0  0  0  0  0  0  0  0  0  0  0  0
   39.3680   28.7720   41.4760 N   0  0  0  0  0  0  0  0  0  0  0  0
   38.3210   29.6210   41.4630 C   0  0  0  0  0  0  0  0  0  0  0  0
   37.3200   29.5160   42.3710 N   0  0  0  0  0  0  0  0  0  0  0  0
   38.3200   30.6070   40.4710 N   0  0  0  0  0  0  0  0  0  0  0  0
   38.3420   30.2530   39.0900 C   0  0  2  0  0  0  0  0  0  0  0  0
   38.6050   31.3750   38.1470 C   0  0  0  0  0  0  0  0  0  0  0  0
   38.1860   32.6610   38.5550 N   0  0  0  0  0  0  0  0  0  0  0  0
   37.4810   32.6940   39.7820 C   0  0  0  0  0  0  0  0  0  0  0  0
   38.2940   32.0030   40.8350 C   0  0  0  0  0  0  0  0  0  0  0  0
   36.5710   28.4360   44.0570 H   0  0  0  0  0  0  0  0  0  0  0  0
   38.5110   26.8640   44.0840 H   0  0  0  0  0  0  0  0  0  0  0  0
   40.2840   27.1040   42.4210 H   0  0  0  0  0  0  0  0  0  0  0  0
   39.2470   29.5810   38.9680 H   0  0  0  0  0  0  0  0  0  0  0  0
   38.0650   31.1190   37.1880 H   0  0  0  0  0  0  0  0  0  0  0  0
   39.6670   31.4500   37.8350 H   0  0  0  0  0  0  0  0  0  0  0  0
   37.7460   33.2610   37.8310 H   0  0  0  0  0  0  0  0  0  0  0  0
   37.4180   33.7740   40.1110 H   0  0  0  0  0  0  0  0  0  0  0  0
   36.4590   32.3330   39.7760 H   0  0  0  0  0  0  0  0  0  0  0  0
   37.7090   32.0690   41.7890 H   0  0  0  0  0  0  0  0  0  0  0  0
   39.2830   32.4450   40.9880 H   0  0  0  0  0  0  0  0  0  0  0  0
   37.1530   29.4430   38.7030 C   0  0  0  0  0  0  0  0  0  0  0  0
   36.9180   28.0910   38.6910 C   0  0  0  0  0  0  0  0  0  0  0  0
   35.6850   27.8010   38.2720 N   0  0  0  0  0  0  0  0  0  0  0  0
   35.1190   28.9860   38.0080 C   0  0  0  0  0  0  0  0  0  0  0  0
   35.9920   29.9650   38.2650 N   0  0  0  0  0  0  0  0  0  0  0  0
   37.6370   27.3410   38.9820 H   0  0  0  0  0  0  0  0  0  0  0  0
   35.2610   26.8590   38.1710 H   0  0  0  0  0  0  0  0  0  0  0  0
   33.7520   29.1390   37.5170 C   0  0  0  0  0  0  0  0  0  0  0  0
   33.4640   28.9000   36.1890 C   0  0  0  0  0  0  0  0  0  0  0  0
   34.2420   28.5940   35.4810 H   0  0  0  0  0  0  0  0  0  0  0  0
   32.1930   29.0270   35.6630 C   0  0  0  0  0  3  0  0  0  0  0  0
   31.1700   29.4150   36.5260 C   0  0  0  0  0  0  0  0  0  0  0  0
   29.9510   29.5230   35.9610 N   0  0  0  0  0  0  0  0  0  0  0  0
   28.9140   29.8910   36.7280 C   0  0  0  0  0  0  0  0  0  0  0  0
   27.8960   30.0110   36.3900 H   0  0  0  0  0  0  0  0  0  0  0  0
   29.0840   30.1600   38.0840 C   0  0  0  0  0  3  0  0  0  0  0  0
   30.3460   30.0360   38.6170 C   0  0  0  0  0  3  0  0  0  0  0  0
   31.4250   29.6640   37.8710 C   0  0  0  0  0  0  0  0  0  0  0  0
   32.7130   29.5210   38.3410 C   0  0  0  0  0  3  0  0  0  0  0  0
  1  2  1  0  0  0  0
  1 13  1  0  0  0  0
  2 14  1  0  0  0  0
  3 15  1  0  0  0  0
  3  2  2  0  0  0  0
  4  3  1  0  0  0  0
  5  4  2  0  0  0  0
  5  6  1  0  0  0  0
  6  1  2  0  0  0  0
  7 12  1  0  0  0  0
  7  5  1  0  0  0  0
  8 16  1  6  0  0  0
  8  7  1  0  0  0  0
  9 10  1  0  0  0  0
  9  8  1  0  0  0  0
 10 11  1  0  0  0  0
 11 20  1  0  0  0  0
 11 12  1  0  0  0  0
 12 23  1  0  0  0  0
 12 22  1  0  0  0  0
 17  9  1  0  0  0  0
 18  9  1  0  0  0  0
 19 10  1  0  0  0  0
 21 11  1  0  0  0  0
 24  8  1  0  0  0  0
 25 24  2  0  0  0  0
 25 29  1  0  0  0  0
 26 25  1  0  0  0  0
 27 28  2  0  0  0  0
 27 26  1  0  0  0  0
 28 24  1  0  0  0  0
 30 26  1  0  0  0  0
 31 27  1  0  0  0  0
 31 42  1  0  0  0  0
 32 31  2  0  0  0  0
 33 32  1  0  0  0  0
 34 32  1  0  0  0  0
 34 35  2  0  0  0  0
 35 41  1  0  0  0  0
 36 35  1  0  0  0  0
 36 37  2  0  0  0  0
 37 39  1  0  0  0  0
 38 37  1  0  0  0  0
 39 40  2  0  0  0  0
 41 42  2  0  0  0  0
 41 40  1  0  0  0  0
M  END
>  <minimizedAffinity>
-6.1388402

$$$$

 OpenBabel03242520433D

 42 46  0  0  1  0  0  0  0  0999 V2000
   40.0930   31.2290   39.0940 C   0  0  0  0  0  0  0  0  0  0  0  0
   39.4780   32.4900   39.2230 C   0  0  0  0  0  0  0  0  0  0  0  0
   38.6130   32.7000   40.3380 C   0  0  0  0  0  0  0  0  0  0  0  0
   38.4220   31.6720   41.2230 N   0  0  0  0  0  0  0  0  0  0  0  0
   39.0400   30.4880   41.0440 C   0  0  0  0  0  0  0  0  0  0  0  0
   39.8650   30.2780   39.9890 N   0  0  0  0  0  0  0  0  0  0  0  0
   38.7890   29.4940   41.9950 N   0  0  0  0  0  0  0  0  0  0  0  0
   37.4620   29.0240   42.2270 C   0  0  2  0  0  0  0  0  0  0  0  0
   37.2890   28.1690   43.4340 C   0  0  0  0  0  0  0  0  0  0  0  0
   38.4060   27.4030   43.8380 N   0  0  0  0  0  0  0  0  0  0  0  0
   39.5250   27.4850   42.9750 C   0  0  0  0  0  0  0  0  0  0  0  0
   39.8750   28.9270   42.7580 C   0  0  0  0  0  0  0  0  0  0  0  0
   40.7370   31.1290   38.2320 H   0  0  0  0  0  0  0  0  0  0  0  0
   39.5930   33.3240   38.5630 H   0  0  0  0  0  0  0  0  0  0  0  0
   38.1190   33.6410   40.4850 H   0  0  0  0  0  0  0  0  0  0  0  0
   36.8540   29.9510   42.4640 H   0  0  0  0  0  0  0  0  0  0  0  0
   36.4430   27.4580   43.2020 H   0  0  0  0  0  0  0  0  0  0  0  0
   36.9240   28.7270   44.3210 H   0  0  0  0  0  0  0  0  0  0  0  0
   38.2180   26.4320   44.1500 H   0  0  0  0  0  0  0  0  0  0  0  0
   40.4090   27.0390   43.5190 H   0  0  0  0  0  0  0  0  0  0  0  0
   39.4640   26.9500   42.0330 H   0  0  0  0  0  0  0  0  0  0  0  0
   40.7730   28.9430   42.0870 H   0  0  0  0  0  0  0  0  0  0  0  0
   40.1060   29.4670   43.6810 H   0  0  0  0  0  0  0  0  0  0  0  0
   36.8640   28.4210   41.0040 C   0  0  0  0  0  0  0  0  0  0  0  0
   36.9290   27.1610   40.4650 C   0  0  0  0  0  0  0  0  0  0  0  0
   36.2170   27.0580   39.3420 N   0  0  0  0  0  0  0  0  0  0  0  0
   35.6850   28.2740   39.1540 C   0  0  0  0  0  0  0  0  0  0  0  0
   36.0700   29.0860   40.1440 N   0  0  0  0  0  0  0  0  0  0  0  0
   37.4880   26.3410   40.8890 H   0  0  0  0  0  0  0  0  0  0  0  0
   36.1020   26.2180   38.7440 H   0  0  0  0  0  0  0  0  0  0  0  0
   34.8220   28.6160   38.0270 C   0  0  0  0  0  0  0  0  0  0  0  0
   35.3240   28.5950   36.7410 C   0  0  0  0  0  0  0  0  0  0  0  0
   36.3670   28.3260   36.5380 H   0  0  0  0  0  0  0  0  0  0  0  0
   34.5610   28.9080   35.6340 C   0  0  0  0  0  3  0  0  0  0  0  0
   33.2280   29.2560   35.8430 C   0  0  0  0  0  0  0  0  0  0  0  0
   32.5280   29.5510   34.7280 N   0  0  0  0  0  0  0  0  0  0  0  0
   31.2380   29.8960   34.8470 C   0  0  0  0  0  0  0  0  0  0  0  0
   30.5800   30.1520   34.0310 H   0  0  0  0  0  0  0  0  0  0  0  0
   30.6220   29.9520   36.0960 C   0  0  0  0  0  3  0  0  0  0  0  0
   31.3750   29.6420   37.2050 C   0  0  0  0  0  3  0  0  0  0  0  0
   32.6880   29.2870   37.1250 C   0  0  0  0  0  0  0  0  0  0  0  0
   33.4980   28.9660   38.1940 C   0  0  0  0  0  3  0  0  0  0  0  0
  1  2  2  0  0  0  0
  1  6  1  0  0  0  0
  2  3  1  0  0  0  0
  3 15  1  0  0  0  0
  3  4  2  0  0  0  0
  5  4  1  0  0  0  0
  5  7  1  0  0  0  0
  6  5  2  0  0  0  0
  7  8  1  0  0  0  0
  7 12  1  0  0  0  0
  8 16  1  1  0  0  0
  8  9  1  0  0  0  0
  9 10  1  0  0  0  0
  9 18  1  0  0  0  0
 10 19  1  0  0  0  0
 11 20  1  0  0  0  0
 11 10  1  0  0  0  0
 12 11  1  0  0  0  0
 12 23  1  0  0  0  0
 13  1  1  0  0  0  0
 14  2  1  0  0  0  0
 17  9  1  0  0  0  0
 21 11  1  0  0  0  0
 22 12  1  0  0  0  0
 24  8  1  0  0  0  0
 25 29  1  0  0  0  0
 25 24  2  0  0  0  0
 26 25  1  0  0  0  0
 27 26  1  0  0  0  0
 27 28  2  0  0  0  0
 28 24  1  0  0  0  0
 30 26  1  0  0  0  0
 31 42  1  0  0  0  0
 31 27  1  0  0  0  0
 32 31  2  0  0  0  0
 33 32  1  0  0  0  0
 34 35  2  0  0  0  0
 34 32  1  0  0  0  0
 35 41  1  0  0  0  0
 36 37  2  0  0  0  0
 36 35  1  0  0  0  0
 37 39  1  0  0  0  0
 38 37  1  0  0  0  0
 39 40  2  0  0  0  0
 41 40  1  0  0  0  0
 41 42  2  0  0  0  0
M  END
>  <minimizedAffinity>
-6.09550333

$$$$

 OpenBabel03242520433D

 42 46  0  0  1  0  0  0  0  0999 V2000
   42.9790   30.9920   39.5210 C   0  0  0  0  0  0  0  0  0  0  0  0
   43.1350   30.4450   38.2320 C   0  0  0  0  0  0  0  0  0  0  0  0
   42.0560   30.5920   37.3100 C   0  0  0  0  0  0  0  0  0  0  0  0
   40.9280   31.2520   37.7200 N   0  0  0  0  0  0  0  0  0  0  0  0
   40.8400   31.7530   38.9680 C   0  0  0  0  0  0  0  0  0  0  0  0
   41.8590   31.6200   39.8520 N   0  0  0  0  0  0  0  0  0  0  0  0
   39.6520   32.4110   39.3020 N   0  0  0  0  0  0  0  0  0  0  0  0
   38.3990   31.7320   39.2420 C   0  0  2  0  0  0  0  0  0  0  0  0
   37.1960   32.6010   39.3610 C   0  0  0  0  0  0  0  0  0  0  0  0
   37.3380   33.7860   40.1170 N   0  0  0  0  0  0  0  0  0  0  0  0
   38.5980   33.9430   40.7430 C   0  0  0  0  0  0  0  0  0  0  0  0
   39.6800   33.7930   39.7160 C   0  0  0  0  0  0  0  0  0  0  0  0
   43.8280   30.8510   40.1750 H   0  0  0  0  0  0  0  0  0  0  0  0
   43.9920   29.9230   37.8630 H   0  0  0  0  0  0  0  0  0  0  0  0
   42.1220   30.1950   36.3150 H   0  0  0  0  0  0  0  0  0  0  0  0
   38.3320   31.3220   38.1870 H   0  0  0  0  0  0  0  0  0  0  0  0
   36.3940   31.9700   39.8470 H   0  0  0  0  0  0  0  0  0  0  0  0
   36.7520   32.8770   38.3820 H   0  0  0  0  0  0  0  0  0  0  0  0
   36.5510   34.0370   40.7450 H   0  0  0  0  0  0  0  0  0  0  0  0
   38.6700   35.0130   41.1020 H   0  0  0  0  0  0  0  0  0  0  0  0
   38.7970   33.3300   41.6150 H   0  0  0  0  0  0  0  0  0  0  0  0
   40.6540   33.9430   40.2500 H   0  0  0  0  0  0  0  0  0  0  0  0
   39.6070   34.5100   38.8930 H   0  0  0  0  0  0  0  0  0  0  0  0
   38.3570   30.5600   40.1600 C   0  0  0  0  0  0  0  0  0  0  0  0
   38.4090   30.4520   41.5270 C   0  0  0  0  0  0  0  0  0  0  0  0
   38.3260   29.1840   41.9330 N   0  0  0  0  0  0  0  0  0  0  0  0
   38.2200   28.4640   40.8070 C   0  0  0  0  0  0  0  0  0  0  0  0
   38.2380   29.2830   39.7510 N   0  0  0  0  0  0  0  0  0  0  0  0
   38.5070   31.2860   42.2050 H   0  0  0  0  0  0  0  0  0  0  0  0
   38.3420   28.8340   42.9100 H   0  0  0  0  0  0  0  0  0  0  0  0
   38.1050   27.0080   40.7850 C   0  0  0  0  0  0  0  0  0  0  0  0
   37.3290   26.3620   41.7240 C   0  0  0  0  0  0  0  0  0  0  0  0
   36.7880   26.9160   42.4990 H   0  0  0  0  0  0  0  0  0  0  0  0
   37.1790   24.9890   41.7570 C   0  0  0  0  0  3  0  0  0  0  0  0
   37.8490   24.2410   40.7900 C   0  0  0  0  0  0  0  0  0  0  0  0
   37.6680   22.9070   40.8670 N   0  0  0  0  0  0  0  0  0  0  0  0
   38.2800   22.1190   39.9710 C   0  0  0  0  0  0  0  0  0  0  0  0
   38.2110   21.0430   39.9330 H   0  0  0  0  0  0  0  0  0  0  0  0
   39.0900   22.6600   38.9750 C   0  0  0  0  0  3  0  0  0  0  0  0
   39.2460   24.0260   38.9350 C   0  0  0  0  0  3  0  0  0  0  0  0
   38.6400   24.8600   39.8280 C   0  0  0  0  0  0  0  0  0  0  0  0
   38.7530   26.2340   39.8440 C   0  0  0  0  0  3  0  0  0  0  0  0
  1  6  1  0  0  0  0
  1 13  1  0  0  0  0
  2  1  2  0  0  0  0
  3  4  2  0  0  0  0
  3  2  1  0  0  0  0
  4  5  1  0  0  0  0
  5  7  1  0  0  0  0
  5  6  2  0  0  0  0
  7 12  1  0  0  0  0
  8 16  1  6  0  0  0
  8  7  1  0  0  0  0
  8  9  1  0  0  0  0
  8 24  1  0  0  0  0
  9 17  1  0  0  0  0
  9 10  1  0  0  0  0
 10 11  1  0  0  0  0
 10 19  1  0  0  0  0
 11 20  1  0  0  0  0
 11 21  1  0  0  0  0
 12 22  1  0  0  0  0
 12 11  1  0  0  0  0
 14  2  1  0  0  0  0
 15  3  1  0  0  0  0
 18  9  1  0  0  0  0
 23 12  1  0  0  0  0
 24 25  2  0  0  0  0
 25 26  1  0  0  0  0
 25 29  1  0  0  0  0
 26 30  1  0  0  0  0
 27 26  1  0  0  0  0
 28 24  1  0  0  0  0
 28 27  2  0  0  0  0
 31 27  1  0  0  0  0
 31 32  1  0  0  0  0
 32 34  2  0  0  0  0
 32 33  1  0  0  0  0
 35 36  1  0  0  0  0
 35 34  1  0  0  0  0
 37 36  2  0  0  0  0
 38 37  1  0  0  0  0
 39 37  1  0  0  0  0
 40 39  2  0  0  0  0
 40 41  1  0  0  0  0
 41 42  1  0  0  0  0
 41 35  2  0  0  0  0
 42 31  2  0  0  0  0
M  END
>  <minimizedAffinity>
-6.09107399

$$$$

 OpenBabel03242520433D

 42 46  0  0  1  0  0  0  0  0999 V2000
   39.4940   24.9760   40.8500 C   0  0  0  0  0  0  0  0  0  0  0  0
   38.9590   24.1460   41.8550 C   0  0  0  0  0  0  0  0  0  0  0  0
   37.6200   24.3920   42.2810 C   0  0  0  0  0  0  0  0  0  0  0  0
   36.9230   25.4170   41.6980 N   0  0  0  0  0  0  0  0  0  0  0  0
   37.4910   26.1760   40.7400 C   0  0  0  0  0  0  0  0  0  0  0  0
   38.7630   25.9510   40.3270 N   0  0  0  0  0  0  0  0  0  0  0  0
   36.7090   27.2010   40.1990 N   0  0  0  0  0  0  0  0  0  0  0  0
   36.1870   28.2370   41.0290 C   0  0  2  0  0  0  0  0  0  0  0  0
   35.1620   29.1090   40.3930 C   0  0  0  0  0  0  0  0  0  0  0  0
   35.2540   29.2840   38.9930 N   0  0  0  0  0  0  0  0  0  0  0  0
   36.3780   28.6700   38.3910 C   0  0  0  0  0  0  0  0  0  0  0  0
   36.4190   27.2240   38.7850 C   0  0  0  0  0  0  0  0  0  0  0  0
   40.5100   24.7420   40.5680 H   0  0  0  0  0  0  0  0  0  0  0  0
   39.4580   23.3350   42.3410 H   0  0  0  0  0  0  0  0  0  0  0  0
   37.1630   23.7900   43.0430 H   0  0  0  0  0  0  0  0  0  0  0  0
   35.6140   27.7030   41.8490 H   0  0  0  0  0  0  0  0  0  0  0  0
   35.2610   30.1250   40.8790 H   0  0  0  0  0  0  0  0  0  0  0  0
   34.1200   28.8100   40.6270 H   0  0  0  0  0  0  0  0  0  0  0  0
   35.0850   30.2420   38.6300 H   0  0  0  0  0  0  0  0  0  0  0  0
   36.2100   28.6730   37.2730 H   0  0  0  0  0  0  0  0  0  0  0  0
   37.3410   29.1450   38.5420 H   0  0  0  0  0  0  0  0  0  0  0  0
   37.3090   26.7750   38.2740 H   0  0  0  0  0  0  0  0  0  0  0  0
   35.5220   26.6660   38.5020 H   0  0  0  0  0  0  0  0  0  0  0  0
   37.2680   29.0120   41.6980 C   0  0  0  0  0  0  0  0  0  0  0  0
   37.7130   29.0510   42.9950 C   0  0  0  0  0  0  0  0  0  0  0  0
   38.7320   29.8980   43.1500 N   0  0  0  0  0  0  0  0  0  0  0  0
   38.9450   30.4130   41.9320 C   0  0  0  0  0  0  0  0  0  0  0  0
   38.0740   29.8860   41.0660 N   0  0  0  0  0  0  0  0  0  0  0  0
   37.2960   28.4720   43.8040 H   0  0  0  0  0  0  0  0  0  0  0  0
   39.2460   30.1100   44.0270 H   0  0  0  0  0  0  0  0  0  0  0  0
   39.9830   31.3990   41.6390 C   0  0  0  0  0  0  0  0  0  0  0  0
   39.7360   32.4180   40.7430 C   0  0  0  0  0  0  0  0  0  0  0  0
   38.7690   32.5120   40.2360 H   0  0  0  0  0  0  0  0  0  0  0  0
   40.6740   33.3800   40.4240 C   0  0  0  0  0  3  0  0  0  0  0  0
   41.9200   33.3010   41.0440 C   0  0  0  0  0  0  0  0  0  0  0  0
   42.7970   34.2640   40.6970 N   0  0  0  0  0  0  0  0  0  0  0  0
   44.0180   34.2560   41.2520 C   0  0  0  0  0  0  0  0  0  0  0  0
   44.8010   34.9710   41.0530 H   0  0  0  0  0  0  0  0  0  0  0  0
   44.3830   33.2750   42.1720 C   0  0  0  0  0  3  0  0  0  0  0  0
   43.4540   32.3120   42.4950 C   0  0  0  0  0  3  0  0  0  0  0  0
   42.2040   32.2870   41.9530 C   0  0  0  0  0  0  0  0  0  0  0  0
   41.2280   31.3540   42.2340 C   0  0  0  0  0  3  0  0  0  0  0  0
  1  2  1  0  0  0  0
  2  3  2  0  0  0  0
  2 14  1  0  0  0  0
  3 15  1  0  0  0  0
  4  3  1  0  0  0  0
  5  4  2  0  0  0  0
  6  5  1  0  0  0  0
  6  1  2  0  0  0  0
  7  5  1  0  0  0  0
  7  8  1  0  0  0  0
  8 24  1  0  0  0  0
  8 16  1  1  0  0  0
  9 18  1  0  0  0  0
  9 17  1  0  0  0  0
  9  8  1  0  0  0  0
 10  9  1  0  0  0  0
 11 21  1  0  0  0  0
 11 12  1  0  0  0  0
 11 10  1  0  0  0  0
 12  7  1  0  0  0  0
 13  1  1  0  0  0  0
 19 10  1  0  0  0  0
 20 11  1  0  0  0  0
 22 12  1  0  0  0  0
 23 12  1  0  0  0  0
 24 25  2  0  0  0  0
 25 26  1  0  0  0  0
 25 29  1  0  0  0  0
 26 30  1  0  0  0  0
 27 26  1  0  0  0  0
 28 24  1  0  0  0  0
 28 27  2  0  0  0  0
 31 27  1  0  0  0  0
 31 42  1  0  0  0  0
 32 31  2  0  0  0  0
 33 32  1  0  0  0  0
 34 32  1  0  0  0  0
 34 35  2  0  0  0  0
 35 41  1  0  0  0  0
 36 35  1  0  0  0  0
 36 37  2  0  0  0  0
 37 39  1  0  0  0  0
 38 37  1  0  0  0  0
 39 40  2  0  0  0  0
 41 42  2  0  0  0  0
 41 40  1  0  0  0  0
M  END
>  <minimizedAffinity>
-6.07016182

$$$$
