
 OpenBabel03242515433D

 41 45  0  0  0  0  0  0  0  0999 V2000
   44.7630   33.8340   39.9990 C   0  0  0  0  0  0  0  0  0  0  0  0
   45.2100   32.8290   39.2130 C   0  0  0  0  0  0  0  0  0  0  0  0
   46.5850   32.5180   39.3200 C   0  0  0  0  0  0  0  0  0  0  0  0
   47.3770   33.2150   40.1730 N   0  0  0  0  0  0  0  0  0  0  0  0
   46.8780   34.2100   40.9300 C   0  0  0  0  0  0  0  0  0  0  0  0
   45.5880   34.4620   40.7990 N   0  0  0  0  0  0  0  0  0  0  0  0
   44.6960   31.9090   38.2080 C   0  0  0  0  0  0  0  0  0  0  0  0
   44.2300   30.7900   38.9220 C   0  0  0  0  0  0  0  0  0  0  0  0
   44.2500   30.5550   39.9900 H   0  0  0  0  0  0  0  0  0  0  0  0
   43.6120   29.7130   38.2700 C   0  0  0  0  0  0  0  0  0  0  0  0
   43.4500   29.7390   36.8950 C   0  0  0  0  0  0  0  0  0  0  0  0
   42.8750   28.7680   36.1660 N   0  0  0  0  0  0  0  0  0  0  0  0
   42.7680   28.8950   34.8310 C   0  0  0  0  0  0  0  0  0  0  0  0
   42.2910   28.0630   34.3320 H   0  0  0  0  0  0  0  0  0  0  0  0
   43.2180   29.9890   34.0990 C   0  0  0  0  0  0  0  0  0  0  0  0
   43.8200   31.0090   34.8450 C   0  0  0  0  0  0  0  0  0  0  0  0
   43.9110   30.8410   36.2110 C   0  0  0  0  0  0  0  0  0  0  0  0
   44.5150   31.8930   36.8510 C   0  0  0  0  0  0  0  0  0  0  0  0
   47.1840   31.4460   38.5840 N   0  0  0  0  0  0  0  0  0  0  0  0
   47.2570   31.3760   37.5660 H   0  0  0  0  0  0  0  0  0  0  0  0
   47.5600   30.6980   39.1940 H   0  0  0  0  0  0  0  0  0  0  0  0
   42.9940   34.1810   39.8320 S   0  0  0  0  0  0  0  0  0  0  0  0
   40.6750   32.9560   40.2930 C   0  0  0  0  0  0  0  0  0  0  0  0
   42.0210   32.9750   40.6940 C   0  0  0  0  0  0  0  0  0  0  0  0
   42.5100   32.0990   41.6550 C   0  0  0  0  0  0  0  0  0  0  0  0
   41.6730   31.1800   42.2410 C   0  0  0  0  0  0  0  0  0  0  0  0
   40.3270   31.1390   41.8600 C   0  0  0  0  0  0  0  0  0  0  0  0
   39.8190   32.0090   40.9000 C   0  0  0  0  0  0  0  0  0  0  0  0
   39.7060   30.1160   42.6090 O   0  0  0  0  0  0  0  0  0  0  0  0
   40.5730   29.8090   43.6450 C   0  0  0  0  0  0  0  0  0  0  0  0
   41.8570   30.1970   43.2000 O   0  0  0  0  0  0  0  0  0  0  0  0
   40.2460   33.6020   39.5650 H   0  0  0  0  0  0  0  0  0  0  0  0
   43.5570   32.1790   41.9100 H   0  0  0  0  0  0  0  0  0  0  0  0
   38.7830   31.9370   40.6460 H   0  0  0  0  0  0  0  0  0  0  0  0
   40.3420   30.4700   44.5060 H   0  0  0  0  0  0  0  0  0  0  0  0
   40.5470   28.7610   44.0020 H   0  0  0  0  0  0  0  0  0  0  0  0
   47.5910   34.9790   41.8180 O   0  0  0  0  0  0  0  0  0  0  0  0
   48.8340   35.4870   41.3990 C   0  0  0  0  0  0  0  0  0  0  0  0
   49.8740   34.6390   41.7160 F   0  0  0  0  0  0  0  0  0  0  0  0
   48.7410   35.6810   40.0130 F   0  0  0  0  0  0  0  0  0  0  0  0
   49.0430   36.6930   42.0440 F   0  0  0  0  0  0  0  0  0  0  0  0
  1  6  1  0  0  0  0
  2  3  1  0  0  0  0
  2  1  2  0  0  0  0
  3  4  2  0  0  0  0
  4  5  1  0  0  0  0
  5 37  1  0  0  0  0
  6  5  2  0  0  0  0
  7  8  1  0  0  0  0
  7  2  1  0  0  0  0
  8  9  1  0  0  0  0
 10  8  2  0  0  0  0
 11 10  1  0  0  0  0
 12 11  2  0  0  0  0
 13 12  1  0  0  0  0
 14 13  1  0  0  0  0
 15 13  2  0  0  0  0
 15 16  1  0  0  0  0
 16 17  2  0  0  0  0
 17 18  1  0  0  0  0
 17 11  1  0  0  0  0
 18  7  2  0  0  0  0
 19 21  1  0  0  0  0
 19  3  1  0  0  0  0
 20 19  1  0  0  0  0
 22  1  1  0  0  0  0
 22 24  1  0  0  0  0
 23 24  2  0  0  0  0
 23 28  1  0  0  0  0
 24 25  1  0  0  0  0
 25 33  1  0  0  0  0
 25 26  2  0  0  0  0
 26 31  1  0  0  0  0
 27 26  1  0  0  0  0
 27 29  1  0  0  0  0
 28 27  2  0  0  0  0
 29 30  1  0  0  0  0
 30 36  1  0  0  0  0
 30 35  1  0  0  0  0
 31 30  1  0  0  0  0
 32 23  1  0  0  0  0
 34 28  1  0  0  0  0
 38 39  1  0  0  0  0
 38 37  1  0  0  0  0
 38 41  1  0  0  0  0
 40 38  1  0  0  0  0
M  END
>  <minimizedAffinity>
-5.72435236

>  <minimizedRMSD>
2.5723052

$$$$
