
 OpenBabel03242513393D

 37 41  0  0  0  0  0  0  0  0999 V2000
   33.9510   28.8950   38.3080 C   0  0  0  0  0  0  0  0  0  0  0  0
   35.0410   28.1010   38.5810 C   0  0  0  0  0  0  0  0  0  0  0  0
   35.3650   27.1170   37.6730 C   0  0  0  0  0  0  0  0  0  0  0  0
   34.6500   26.9000   36.5180 C   0  0  0  0  0  0  0  0  0  0  0  0
   34.6990   26.0590   35.4650 N   0  0  0  0  0  0  0  0  0  0  0  0
   33.6920   26.3320   34.6040 C   0  0  0  0  0  0  0  0  0  0  0  0
   33.0020   27.3680   35.1360 N   0  0  0  0  0  0  0  0  0  0  0  0
   33.5730   27.7230   36.2990 C   0  0  0  0  0  0  0  0  0  0  0  0
   33.2020   28.7150   37.1590 C   0  0  0  0  0  0  0  0  0  0  0  0
   33.6840   29.6840   39.0260 H   0  0  0  0  0  0  0  0  0  0  0  0
   36.2100   26.4950   37.8780 H   0  0  0  0  0  0  0  0  0  0  0  0
   35.4170   25.3230   35.3640 H   0  0  0  0  0  0  0  0  0  0  0  0
   33.5280   25.7760   33.6690 H   0  0  0  0  0  0  0  0  0  0  0  0
   32.0570   29.5960   36.9350 C   0  0  0  0  0  0  0  0  0  0  0  0
   31.0480   29.8780   37.8420 C   0  0  0  0  0  0  0  0  0  0  0  0
   31.1330   29.3860   38.8070 H   0  0  0  0  0  0  0  0  0  0  0  0
   30.0270   30.7410   37.4720 C   0  0  0  0  0  3  0  0  0  0  0  0
   30.0120   31.3140   36.2170 C   0  0  0  0  0  0  0  0  0  0  0  0
   29.0120   32.1470   35.8800 N   0  0  0  0  0  0  0  0  0  0  0  0
   28.9370   32.7480   34.6590 C   0  0  0  0  0  0  0  0  0  0  0  0
   28.1280   33.4130   34.4050 H   0  0  0  0  0  0  0  0  0  0  0  0
   29.9540   32.4580   33.7610 C   0  0  0  0  0  3  0  0  0  0  0  0
   31.0120   31.6190   34.0230 C   0  0  0  0  0  3  0  0  0  0  0  0
   31.0030   31.0570   35.2880 C   0  0  0  0  0  0  0  0  0  0  0  0
   32.0150   30.1940   35.6700 C   0  0  0  0  0  3  0  0  0  0  0  0
   37.1980   27.4780   41.4750 C   0  0  0  0  0  0  0  0  0  0  0  0
   37.2850   28.7380   42.0790 C   0  0  0  0  0  0  0  0  0  0  0  0
   36.5900   29.7820   41.4640 C   0  0  0  0  0  0  0  0  0  0  0  0
   35.8730   29.5430   40.3340 N   0  0  0  0  0  0  0  0  0  0  0  0
   35.8260   28.2970   39.7940 C   0  0  0  0  0  0  0  0  0  0  0  0
   36.4740   27.2730   40.3470 N   0  0  0  0  0  0  0  0  0  0  0  0
   37.7250   26.6500   41.9270 H   0  0  0  0  0  0  0  0  0  0  0  0
   36.6570   30.7450   41.9290 H   0  0  0  0  0  0  0  0  0  0  0  0
   38.1000   28.8610   43.3080 C   0  0  0  0  0  0  0  0  0  0  0  0
   38.9740   27.7840   43.2820 F   0  0  0  0  0  0  0  0  0  0  0  0
   37.2570   28.7630   44.3910 F   0  0  0  0  0  0  0  0  0  0  0  0
   38.7300   30.0900   43.2870 F   0  0  0  0  0  0  0  0  0  0  0  0
  1  2  1  0  0  0  0
  1 10  1  0  0  0  0
  2 30  1  0  0  0  0
  3 11  1  0  0  0  0
  3  2  2  0  0  0  0
  4  3  1  0  0  0  0
  5  4  1  0  0  0  0
  6  7  2  0  0  0  0
  6  5  1  0  0  0  0
  7  8  1  0  0  0  0
  8  4  2  0  0  0  0
  8  9  1  0  0  0  0
  9  1  2  0  0  0  0
 12  5  1  0  0  0  0
 13  6  1  0  0  0  0
 14  9  1  0  0  0  0
 14 15  1  0  0  0  0
 15 16  1  0  0  0  0
 17 15  2  0  0  0  0
 18 17  1  0  0  0  0
 19 18  1  0  0  0  0
 20 19  2  0  0  0  0
 21 20  1  0  0  0  0
 22 23  2  0  0  0  0
 22 20  1  0  0  0  0
 23 24  1  0  0  0  0
 24 25  1  0  0  0  0
 24 18  2  0  0  0  0
 25 14  2  0  0  0  0
 26 32  1  0  0  0  0
 26 27  1  0  0  0  0
 27 34  1  0  0  0  0
 28 33  1  0  0  0  0
 28 27  2  0  0  0  0
 29 28  1  0  0  0  0
 30 29  2  0  0  0  0
 30 31  1  0  0  0  0
 31 26  2  0  0  0  0
 34 36  1  0  0  0  0
 35 34  1  0  0  0  0
 37 34  1  0  0  0  0
M  END
>  <minimizedAffinity>
-7.07667351

$$$$

 OpenBabel03242513393D

 37 41  0  0  0  0  0  0  0  0999 V2000
   34.6080   28.4520   37.8770 C   0  0  0  0  0  0  0  0  0  0  0  0
   35.6860   27.6960   38.2770 C   0  0  0  0  0  0  0  0  0  0  0  0
   36.3070   26.9090   37.3330 C   0  0  0  0  0  0  0  0  0  0  0  0
   35.8970   26.8500   36.0210 C   0  0  0  0  0  0  0  0  0  0  0  0
   36.2690   26.2100   34.8940 N   0  0  0  0  0  0  0  0  0  0  0  0
   35.4590   26.5610   33.8690 C   0  0  0  0  0  0  0  0  0  0  0  0
   34.5620   27.4410   34.3740 N   0  0  0  0  0  0  0  0  0  0  0  0
   34.8170   27.6250   35.6800 C   0  0  0  0  0  0  0  0  0  0  0  0
   34.1590   28.4250   36.5680 C   0  0  0  0  0  0  0  0  0  0  0  0
   34.1050   29.0840   38.6220 H   0  0  0  0  0  0  0  0  0  0  0  0
   37.1450   26.3190   37.6350 H   0  0  0  0  0  0  0  0  0  0  0  0
   37.0650   25.5520   34.8560 H   0  0  0  0  0  0  0  0  0  0  0  0
   35.5690   26.1670   32.8480 H   0  0  0  0  0  0  0  0  0  0  0  0
   33.0080   29.2540   36.2150 C   0  0  0  0  0  0  0  0  0  0  0  0
   32.7700   29.8470   34.9850 C   0  0  0  0  0  0  0  0  0  0  0  0
   33.5220   29.6660   34.2240 H   0  0  0  0  0  0  0  0  0  0  0  0
   31.6230   30.6080   34.8110 C   0  0  0  0  0  3  0  0  0  0  0  0
   30.7290   30.7760   35.8490 C   0  0  0  0  0  0  0  0  0  0  0  0
   29.6240   31.5190   35.6570 N   0  0  0  0  0  0  0  0  0  0  0  0
   28.6990   31.7250   36.6370 C   0  0  0  0  0  0  0  0  0  0  0  0
   27.8190   32.3230   36.4670 H   0  0  0  0  0  0  0  0  0  0  0  0
   28.9500   31.1260   37.8630 C   0  0  0  0  0  3  0  0  0  0  0  0
   30.0520   30.3520   38.1430 C   0  0  0  0  0  3  0  0  0  0  0  0
   30.9340   30.2000   37.0880 C   0  0  0  0  0  0  0  0  0  0  0  0
   32.0810   29.4430   37.2470 C   0  0  0  0  0  3  0  0  0  0  0  0
   36.4740   28.8520   41.6630 C   0  0  0  0  0  0  0  0  0  0  0  0
   37.0550   27.7240   42.2530 C   0  0  0  0  0  0  0  0  0  0  0  0
   37.1610   26.5790   41.4580 C   0  0  0  0  0  0  0  0  0  0  0  0
   36.7090   26.6030   40.1760 N   0  0  0  0  0  0  0  0  0  0  0  0
   36.1540   27.7300   39.6580 C   0  0  0  0  0  0  0  0  0  0  0  0
   36.0330   28.8430   40.3800 N   0  0  0  0  0  0  0  0  0  0  0  0
   36.3790   29.7520   42.2510 H   0  0  0  0  0  0  0  0  0  0  0  0
   37.6070   25.7170   41.9110 H   0  0  0  0  0  0  0  0  0  0  0  0
   37.5060   27.8320   43.6570 C   0  0  0  0  0  0  0  0  0  0  0  0
   36.3850   27.5590   44.4280 F   0  0  0  0  0  0  0  0  0  0  0  0
   37.9270   29.1230   43.8720 F   0  0  0  0  0  0  0  0  0  0  0  0
   38.5440   26.9400   43.8470 F   0  0  0  0  0  0  0  0  0  0  0  0
  1  2  1  0  0  0  0
  1 10  1  0  0  0  0
  2 30  1  0  0  0  0
  3 11  1  0  0  0  0
  3  2  2  0  0  0  0
  4  3  1  0  0  0  0
  5  4  1  0  0  0  0
  6  7  2  0  0  0  0
  6  5  1  0  0  0  0
  7  8  1  0  0  0  0
  8  4  2  0  0  0  0
  8  9  1  0  0  0  0
  9  1  2  0  0  0  0
 12  5  1  0  0  0  0
 13  6  1  0  0  0  0
 14  9  1  0  0  0  0
 14 25  1  0  0  0  0
 15 14  2  0  0  0  0
 16 15  1  0  0  0  0
 17 15  1  0  0  0  0
 17 18  2  0  0  0  0
 18 24  1  0  0  0  0
 19 18  1  0  0  0  0
 19 20  2  0  0  0  0
 20 22  1  0  0  0  0
 21 20  1  0  0  0  0
 22 23  2  0  0  0  0
 24 25  2  0  0  0  0
 24 23  1  0  0  0  0
 26 32  1  0  0  0  0
 26 27  1  0  0  0  0
 27 34  1  0  0  0  0
 28 33  1  0  0  0  0
 28 27  2  0  0  0  0
 29 28  1  0  0  0  0
 30 29  2  0  0  0  0
 30 31  1  0  0  0  0
 31 26  2  0  0  0  0
 34 37  1  0  0  0  0
 34 36  1  0  0  0  0
 34 35  1  0  0  0  0
M  END
>  <minimizedAffinity>
-6.96041822

$$$$

 OpenBabel03242513393D

 37 41  0  0  0  0  0  0  0  0999 V2000
   38.3480   28.6710   40.4460 C   0  0  0  0  0  0  0  0  0  0  0  0
   38.7430   29.8160   41.0990 C   0  0  0  0  0  0  0  0  0  0  0  0
   38.3610   29.9730   42.4120 C   0  0  0  0  0  0  0  0  0  0  0  0
   37.6100   29.0420   43.0890 C   0  0  0  0  0  0  0  0  0  0  0  0
   37.0890   28.8960   44.3250 N   0  0  0  0  0  0  0  0  0  0  0  0
   36.4160   27.7260   44.4130 C   0  0  0  0  0  0  0  0  0  0  0  0
   36.5220   27.1310   43.2010 N   0  0  0  0  0  0  0  0  0  0  0  0
   37.2440   27.9200   42.3880 C   0  0  0  0  0  0  0  0  0  0  0  0
   37.5910   27.7050   41.0850 C   0  0  0  0  0  0  0  0  0  0  0  0
   38.6470   28.5350   39.3970 H   0  0  0  0  0  0  0  0  0  0  0  0
   38.6650   30.8600   42.9270 H   0  0  0  0  0  0  0  0  0  0  0  0
   37.2080   29.5990   45.0730 H   0  0  0  0  0  0  0  0  0  0  0  0
   35.9050   27.3880   45.3260 H   0  0  0  0  0  0  0  0  0  0  0  0
   37.2070   26.5150   40.3290 C   0  0  0  0  0  0  0  0  0  0  0  0
   36.3360   26.4720   39.2520 C   0  0  0  0  0  0  0  0  0  0  0  0
   35.9080   27.4250   38.9570 H   0  0  0  0  0  0  0  0  0  0  0  0
   36.0760   25.2550   38.6400 C   0  0  0  0  0  3  0  0  0  0  0  0
   36.6740   24.0970   39.0970 C   0  0  0  0  0  0  0  0  0  0  0  0
   36.4070   22.9290   38.4880 N   0  0  0  0  0  0  0  0  0  0  0  0
   36.9630   21.7500   38.8860 C   0  0  0  0  0  0  0  0  0  0  0  0
   36.7380   20.8220   38.3870 H   0  0  0  0  0  0  0  0  0  0  0  0
   37.8330   21.8070   39.9640 C   0  0  0  0  0  3  0  0  0  0  0  0
   38.1620   22.9580   40.6430 C   0  0  0  0  0  3  0  0  0  0  0  0
   37.5480   24.1030   40.1670 C   0  0  0  0  0  0  0  0  0  0  0  0
   37.7990   25.3240   40.7670 C   0  0  0  0  0  3  0  0  0  0  0  0
   40.3370   31.8140   38.4740 C   0  0  0  0  0  0  0  0  0  0  0  0
   41.0650   32.7630   39.2000 C   0  0  0  0  0  0  0  0  0  0  0  0
   40.9870   32.6890   40.5930 C   0  0  0  0  0  0  0  0  0  0  0  0
   40.2270   31.7230   41.1760 N   0  0  0  0  0  0  0  0  0  0  0  0
   39.5420   30.8290   40.4170 C   0  0  0  0  0  0  0  0  0  0  0  0
   39.5880   30.8630   39.0870 N   0  0  0  0  0  0  0  0  0  0  0  0
   40.3770   31.8450   37.3950 H   0  0  0  0  0  0  0  0  0  0  0  0
   41.5460   33.4150   41.1470 H   0  0  0  0  0  0  0  0  0  0  0  0
   41.8530   33.7600   38.4410 C   0  0  0  0  0  0  0  0  0  0  0  0
   41.7160   33.4010   37.1080 F   0  0  0  0  0  0  0  0  0  0  0  0
   43.1670   33.6510   38.8300 F   0  0  0  0  0  0  0  0  0  0  0  0
   41.3560   35.0150   38.7340 F   0  0  0  0  0  0  0  0  0  0  0  0
  1  9  2  0  0  0  0
  1  2  1  0  0  0  0
  2  3  2  0  0  0  0
  3 11  1  0  0  0  0
  3  4  1  0  0  0  0
  4  5  1  0  0  0  0
  5  6  1  0  0  0  0
  5 12  1  0  0  0  0
  6 13  1  0  0  0  0
  7  6  2  0  0  0  0
  8  4  2  0  0  0  0
  8  7  1  0  0  0  0
  9  8  1  0  0  0  0
 10  1  1  0  0  0  0
 14 25  1  0  0  0  0
 14  9  1  0  0  0  0
 15 14  2  0  0  0  0
 16 15  1  0  0  0  0
 17 18  2  0  0  0  0
 17 15  1  0  0  0  0
 18 24  1  0  0  0  0
 19 20  2  0  0  0  0
 19 18  1  0  0  0  0
 20 22  1  0  0  0  0
 21 20  1  0  0  0  0
 22 23  2  0  0  0  0
 24 23  1  0  0  0  0
 24 25  2  0  0  0  0
 26 31  2  0  0  0  0
 26 27  1  0  0  0  0
 27 28  2  0  0  0  0
 28 33  1  0  0  0  0
 28 29  1  0  0  0  0
 30  2  1  0  0  0  0
 30 29  2  0  0  0  0
 31 30  1  0  0  0  0
 32 26  1  0  0  0  0
 34 37  1  0  0  0  0
 34 36  1  0  0  0  0
 34 27  1  0  0  0  0
 35 34  1  0  0  0  0
M  END
>  <minimizedAffinity>
-6.76817656

$$$$

 OpenBabel03242513393D

 37 41  0  0  0  0  0  0  0  0999 V2000
   39.5680   30.4760   41.2590 C   0  0  0  0  0  0  0  0  0  0  0  0
   38.3010   30.0270   40.9680 C   0  0  0  0  0  0  0  0  0  0  0  0
   37.3810   30.9430   40.5110 C   0  0  0  0  0  0  0  0  0  0  0  0
   37.6760   32.2750   40.3350 C   0  0  0  0  0  0  0  0  0  0  0  0
   37.0340   33.3870   39.9210 N   0  0  0  0  0  0  0  0  0  0  0  0
   37.8700   34.4500   39.9610 C   0  0  0  0  0  0  0  0  0  0  0  0
   39.0600   33.9850   40.4100 N   0  0  0  0  0  0  0  0  0  0  0  0
   38.9560   32.6660   40.6400 C   0  0  0  0  0  0  0  0  0  0  0  0
   39.9120   31.8070   41.0980 C   0  0  0  0  0  0  0  0  0  0  0  0
   40.3100   29.7530   41.6260 H   0  0  0  0  0  0  0  0  0  0  0  0
   36.3940   30.6020   40.2820 H   0  0  0  0  0  0  0  0  0  0  0  0
   36.0440   33.3890   39.6240 H   0  0  0  0  0  0  0  0  0  0  0  0
   37.5700   35.4670   39.6690 H   0  0  0  0  0  0  0  0  0  0  0  0
   41.2770   32.2130   41.4270 C   0  0  0  0  0  0  0  0  0  0  0  0
   42.0350   33.1600   40.7570 C   0  0  0  0  0  0  0  0  0  0  0  0
   41.5500   33.6360   39.9100 H   0  0  0  0  0  0  0  0  0  0  0  0
   43.3220   33.4320   41.1980 C   0  0  0  0  0  3  0  0  0  0  0  0
   43.8450   32.7680   42.2900 C   0  0  0  0  0  0  0  0  0  0  0  0
   45.0950   33.0480   42.6990 N   0  0  0  0  0  0  0  0  0  0  0  0
   45.6720   32.4310   43.7690 C   0  0  0  0  0  0  0  0  0  0  0  0
   46.6750   32.6670   44.0830 H   0  0  0  0  0  0  0  0  0  0  0  0
   44.9030   31.4860   44.4290 C   0  0  0  0  0  3  0  0  0  0  0  0
   43.6180   31.1400   44.0780 C   0  0  0  0  0  3  0  0  0  0  0  0
   43.1170   31.8190   42.9810 C   0  0  0  0  0  0  0  0  0  0  0  0
   41.8350   31.5580   42.5310 C   0  0  0  0  0  3  0  0  0  0  0  0
   37.0750   26.8940   42.4200 C   0  0  0  0  0  0  0  0  0  0  0  0
   37.3040   25.9640   41.3990 C   0  0  0  0  0  0  0  0  0  0  0  0
   37.8820   26.4480   40.2220 C   0  0  0  0  0  0  0  0  0  0  0  0
   38.1920   27.7670   40.1150 N   0  0  0  0  0  0  0  0  0  0  0  0
   37.9460   28.6220   41.1410 C   0  0  0  0  0  0  0  0  0  0  0  0
   37.3970   28.2040   42.2800 N   0  0  0  0  0  0  0  0  0  0  0  0
   36.6300   26.5510   43.3420 H   0  0  0  0  0  0  0  0  0  0  0  0
   38.0570   25.7340   39.4420 H   0  0  0  0  0  0  0  0  0  0  0  0
   36.9190   24.5570   41.6460 C   0  0  0  0  0  0  0  0  0  0  0  0
   36.0290   24.2340   40.6320 F   0  0  0  0  0  0  0  0  0  0  0  0
   36.2910   24.4940   42.8670 F   0  0  0  0  0  0  0  0  0  0  0  0
   38.0670   23.7890   41.6440 F   0  0  0  0  0  0  0  0  0  0  0  0
  1 10  1  0  0  0  0
  2 30  1  0  0  0  0
  2  1  2  0  0  0  0
  3  2  1  0  0  0  0
  4  3  2  0  0  0  0
  4  8  1  0  0  0  0
  5  6  1  0  0  0  0
  5  4  1  0  0  0  0
  6  7  2  0  0  0  0
  7  8  1  0  0  0  0
  8  9  2  0  0  0  0
  9  1  1  0  0  0  0
  9 14  1  0  0  0  0
 11  3  1  0  0  0  0
 12  5  1  0  0  0  0
 13  6  1  0  0  0  0
 14 25  1  0  0  0  0
 15 17  1  0  0  0  0
 15 14  2  0  0  0  0
 16 15  1  0  0  0  0
 17 18  2  0  0  0  0
 18 19  1  0  0  0  0
 18 24  1  0  0  0  0
 19 20  2  0  0  0  0
 20 21  1  0  0  0  0
 20 22  1  0  0  0  0
 23 22  2  0  0  0  0
 24 23  1  0  0  0  0
 25 24  2  0  0  0  0
 26 32  1  0  0  0  0
 27 34  1  0  0  0  0
 27 26  2  0  0  0  0
 28 27  1  0  0  0  0
 29 28  2  0  0  0  0
 29 30  1  0  0  0  0
 30 31  2  0  0  0  0
 31 26  1  0  0  0  0
 33 28  1  0  0  0  0
 34 36  1  0  0  0  0
 35 34  1  0  0  0  0
 37 34  1  0  0  0  0
M  END
>  <minimizedAffinity>
-6.76301003

$$$$

 OpenBabel03242513393D

 37 41  0  0  0  0  0  0  0  0999 V2000
   40.1010   30.2530   39.9120 C   0  0  0  0  0  0  0  0  0  0  0  0
   38.8930   30.0480   40.5370 C   0  0  0  0  0  0  0  0  0  0  0  0
   38.1330   31.1530   40.8490 C   0  0  0  0  0  0  0  0  0  0  0  0
   38.5290   32.4380   40.5630 C   0  0  0  0  0  0  0  0  0  0  0  0
   38.0420   33.6860   40.7270 N   0  0  0  0  0  0  0  0  0  0  0  0
   38.9110   34.5950   40.2280 C   0  0  0  0  0  0  0  0  0  0  0  0
   39.9620   33.8930   39.7410 N   0  0  0  0  0  0  0  0  0  0  0  0
   39.7430   32.5830   39.9390 C   0  0  0  0  0  0  0  0  0  0  0  0
   40.5420   31.5280   39.6040 C   0  0  0  0  0  0  0  0  0  0  0  0
   40.7170   29.3790   39.6580 H   0  0  0  0  0  0  0  0  0  0  0  0
   37.1920   31.0020   41.3350 H   0  0  0  0  0  0  0  0  0  0  0  0
   37.1310   33.8810   41.1750 H   0  0  0  0  0  0  0  0  0  0  0  0
   38.7290   35.6790   40.2470 H   0  0  0  0  0  0  0  0  0  0  0  0
   41.8360   31.6710   38.9390 C   0  0  0  0  0  0  0  0  0  0  0  0
   42.9020   32.4420   39.3750 C   0  0  0  0  0  0  0  0  0  0  0  0
   42.7410   32.9850   40.3020 H   0  0  0  0  0  0  0  0  0  0  0  0
   44.0680   32.4690   38.6250 C   0  0  0  0  0  3  0  0  0  0  0  0
   44.1700   31.7400   37.4580 C   0  0  0  0  0  0  0  0  0  0  0  0
   45.3100   31.7830   36.7470 N   0  0  0  0  0  0  0  0  0  0  0  0
   45.4780   31.0870   35.5870 C   0  0  0  0  0  0  0  0  0  0  0  0
   46.3990   31.1330   35.0290 H   0  0  0  0  0  0  0  0  0  0  0  0
   44.4040   30.3200   35.1620 C   0  0  0  0  0  3  0  0  0  0  0  0
   43.2040   30.2200   35.8280 C   0  0  0  0  0  3  0  0  0  0  0  0
   43.1280   30.9600   36.9940 C   0  0  0  0  0  0  0  0  0  0  0  0
   41.9700   30.9420   37.7520 C   0  0  0  0  0  3  0  0  0  0  0  0
   37.6340   26.6230   40.2080 C   0  0  0  0  0  0  0  0  0  0  0  0
   37.5840   26.1780   41.5340 C   0  0  0  0  0  0  0  0  0  0  0  0
   37.9910   27.0810   42.5190 C   0  0  0  0  0  0  0  0  0  0  0  0
   38.4090   28.3260   42.1630 N   0  0  0  0  0  0  0  0  0  0  0  0
   38.4350   28.7000   40.8580 C   0  0  0  0  0  0  0  0  0  0  0  0
   38.0560   27.8720   39.8870 N   0  0  0  0  0  0  0  0  0  0  0  0
   37.3250   25.9480   39.4230 H   0  0  0  0  0  0  0  0  0  0  0  0
   37.9520   26.7390   43.5330 H   0  0  0  0  0  0  0  0  0  0  0  0
   37.1080   24.7990   41.7830 C   0  0  0  0  0  0  0  0  0  0  0  0
   36.2290   24.9000   42.8510 F   0  0  0  0  0  0  0  0  0  0  0  0
   38.1930   24.0300   42.1320 F   0  0  0  0  0  0  0  0  0  0  0  0
   36.5250   24.3280   40.6230 F   0  0  0  0  0  0  0  0  0  0  0  0
  1  2  1  0  0  0  0
  2  3  2  0  0  0  0
  2 30  1  0  0  0  0
  3 11  1  0  0  0  0
  4  5  1  0  0  0  0
  4  3  1  0  0  0  0
  5 12  1  0  0  0  0
  6 13  1  0  0  0  0
  6  5  1  0  0  0  0
  7  8  1  0  0  0  0
  7  6  2  0  0  0  0
  8  4  2  0  0  0  0
  9  1  2  0  0  0  0
  9  8  1  0  0  0  0
 10  1  1  0  0  0  0
 14 15  1  0  0  0  0
 14  9  1  0  0  0  0
 15 16  1  0  0  0  0
 17 15  2  0  0  0  0
 18 17  1  0  0  0  0
 19 18  2  0  0  0  0
 20 19  1  0  0  0  0
 21 20  1  0  0  0  0
 22 20  2  0  0  0  0
 22 23  1  0  0  0  0
 23 24  2  0  0  0  0
 24 18  1  0  0  0  0
 24 25  1  0  0  0  0
 25 14  2  0  0  0  0
 26 27  1  0  0  0  0
 27 34  1  0  0  0  0
 27 28  2  0  0  0  0
 28 33  1  0  0  0  0
 29 28  1  0  0  0  0
 30 29  2  0  0  0  0
 31 26  2  0  0  0  0
 31 30  1  0  0  0  0
 32 26  1  0  0  0  0
 34 36  1  0  0  0  0
 34 35  1  0  0  0  0
 37 34  1  0  0  0  0
M  END
>  <minimizedAffinity>
-6.70455837

$$$$

 OpenBabel03242513393D

 37 41  0  0  0  0  0  0  0  0999 V2000
   36.5540   30.4680   38.9430 C   0  0  0  0  0  0  0  0  0  0  0  0
   35.6130   29.4660   39.0080 C   0  0  0  0  0  0  0  0  0  0  0  0
   35.5580   28.7070   40.1550 C   0  0  0  0  0  0  0  0  0  0  0  0
   36.3950   28.9100   41.2270 C   0  0  0  0  0  0  0  0  0  0  0  0
   36.5940   28.3690   42.4470 N   0  0  0  0  0  0  0  0  0  0  0  0
   37.6000   29.0100   43.0830 C   0  0  0  0  0  0  0  0  0  0  0  0
   38.0360   29.9740   42.2370 N   0  0  0  0  0  0  0  0  0  0  0  0
   37.3130   29.9240   41.1070 C   0  0  0  0  0  0  0  0  0  0  0  0
   37.4180   30.7100   39.9960 C   0  0  0  0  0  0  0  0  0  0  0  0
   36.6080   31.0800   38.0310 H   0  0  0  0  0  0  0  0  0  0  0  0
   34.8290   27.9260   40.2130 H   0  0  0  0  0  0  0  0  0  0  0  0
   36.0370   27.5770   42.8090 H   0  0  0  0  0  0  0  0  0  0  0  0
   37.9440   28.7450   44.0940 H   0  0  0  0  0  0  0  0  0  0  0  0
   38.3920   31.7910   39.8580 C   0  0  0  0  0  0  0  0  0  0  0  0
   38.4730   32.9280   40.6460 C   0  0  0  0  0  0  0  0  0  0  0  0
   37.7340   33.0040   41.4380 H   0  0  0  0  0  0  0  0  0  0  0  0
   39.4620   33.8650   40.3830 C   0  0  0  0  0  3  0  0  0  0  0  0
   40.3540   33.6710   39.3480 C   0  0  0  0  0  0  0  0  0  0  0  0
   41.3040   34.5930   39.1110 N   0  0  0  0  0  0  0  0  0  0  0  0
   42.2170   34.4650   38.1070 C   0  0  0  0  0  0  0  0  0  0  0  0
   42.9720   35.2140   37.9300 H   0  0  0  0  0  0  0  0  0  0  0  0
   42.1240   33.3230   37.3260 C   0  0  0  0  0  3  0  0  0  0  0  0
   41.1860   32.3320   37.5000 C   0  0  0  0  0  3  0  0  0  0  0  0
   40.3030   32.5500   38.5420 C   0  0  0  0  0  0  0  0  0  0  0  0
   39.3120   31.6230   38.8170 C   0  0  0  0  0  3  0  0  0  0  0  0
   32.5730   28.8460   37.0590 C   0  0  0  0  0  0  0  0  0  0  0  0
   33.0540   28.7510   35.7480 C   0  0  0  0  0  0  0  0  0  0  0  0
   34.4310   28.9060   35.5680 C   0  0  0  0  0  0  0  0  0  0  0  0
   35.2320   29.1350   36.6430 N   0  0  0  0  0  0  0  0  0  0  0  0
   34.7060   29.2180   37.8930 C   0  0  0  0  0  0  0  0  0  0  0  0
   33.3990   29.0760   38.1100 N   0  0  0  0  0  0  0  0  0  0  0  0
   31.5130   28.7310   37.2310 H   0  0  0  0  0  0  0  0  0  0  0  0
   34.7980   28.8320   34.5640 H   0  0  0  0  0  0  0  0  0  0  0  0
   32.0750   28.4970   34.6680 C   0  0  0  0  0  0  0  0  0  0  0  0
   30.9820   27.9130   35.2910 F   0  0  0  0  0  0  0  0  0  0  0  0
   32.6410   27.6160   33.7770 F   0  0  0  0  0  0  0  0  0  0  0  0
   31.7890   29.7010   34.0540 F   0  0  0  0  0  0  0  0  0  0  0  0
  1  2  2  0  0  0  0
  1  9  1  0  0  0  0
  2  3  1  0  0  0  0
  3 11  1  0  0  0  0
  3  4  2  0  0  0  0
  4  5  1  0  0  0  0
  5 12  1  0  0  0  0
  5  6  1  0  0  0  0
  6 13  1  0  0  0  0
  7  6  2  0  0  0  0
  8  4  1  0  0  0  0
  8  7  1  0  0  0  0
  9  8  2  0  0  0  0
 10  1  1  0  0  0  0
 14  9  1  0  0  0  0
 14 15  1  0  0  0  0
 15 16  1  0  0  0  0
 17 15  2  0  0  0  0
 18 17  1  0  0  0  0
 19 18  1  0  0  0  0
 20 19  2  0  0  0  0
 21 20  1  0  0  0  0
 22 23  2  0  0  0  0
 22 20  1  0  0  0  0
 23 24  1  0  0  0  0
 24 25  1  0  0  0  0
 24 18  2  0  0  0  0
 25 14  2  0  0  0  0
 26 32  1  0  0  0  0
 26 31  1  0  0  0  0
 27 26  2  0  0  0  0
 28 27  1  0  0  0  0
 28 29  2  0  0  0  0
 29 30  1  0  0  0  0
 30 31  2  0  0  0  0
 30  2  1  0  0  0  0
 33 28  1  0  0  0  0
 34 35  1  0  0  0  0
 34 27  1  0  0  0  0
 36 34  1  0  0  0  0
 37 34  1  0  0  0  0
M  END
>  <minimizedAffinity>
-6.5663538

$$$$

 OpenBabel03242513393D

 37 41  0  0  0  0  0  0  0  0999 V2000
   39.8960   30.4660   40.8070 C   0  0  0  0  0  0  0  0  0  0  0  0
   38.6140   29.9680   40.8420 C   0  0  0  0  0  0  0  0  0  0  0  0
   37.5760   30.8430   40.6100 C   0  0  0  0  0  0  0  0  0  0  0  0
   37.7680   32.1790   40.3470 C   0  0  0  0  0  0  0  0  0  0  0  0
   37.0030   33.2590   40.0870 N   0  0  0  0  0  0  0  0  0  0  0  0
   37.7820   34.3500   39.9060 C   0  0  0  0  0  0  0  0  0  0  0  0
   39.0620   33.9360   40.0560 N   0  0  0  0  0  0  0  0  0  0  0  0
   39.0680   32.6200   40.3250 C   0  0  0  0  0  0  0  0  0  0  0  0
   40.1390   31.8040   40.5470 C   0  0  0  0  0  0  0  0  0  0  0  0
   40.7320   29.7770   40.9910 H   0  0  0  0  0  0  0  0  0  0  0  0
   36.5760   30.4640   40.6350 H   0  0  0  0  0  0  0  0  0  0  0  0
   35.9710   33.2210   40.0420 H   0  0  0  0  0  0  0  0  0  0  0  0
   37.3810   35.3490   39.6810 H   0  0  0  0  0  0  0  0  0  0  0  0
   41.5270   32.2620   40.5260 C   0  0  0  0  0  0  0  0  0  0  0  0
   42.3290   32.5010   41.6300 C   0  0  0  0  0  0  0  0  0  0  0  0
   41.8640   32.3240   42.5950 H   0  0  0  0  0  0  0  0  0  0  0  0
   43.6320   32.9350   41.4380 C   0  0  0  0  0  3  0  0  0  0  0  0
   44.1270   33.1300   40.1640 C   0  0  0  0  0  0  0  0  0  0  0  0
   45.3930   33.5520   40.0030 N   0  0  0  0  0  0  0  0  0  0  0  0
   45.9450   33.7640   38.7740 C   0  0  0  0  0  0  0  0  0  0  0  0
   46.9620   34.1030   38.6620 H   0  0  0  0  0  0  0  0  0  0  0  0
   45.1320   33.5210   37.6780 C   0  0  0  0  0  3  0  0  0  0  0  0
   43.8280   33.0880   37.7540 C   0  0  0  0  0  3  0  0  0  0  0  0
   43.3560   32.9010   39.0410 C   0  0  0  0  0  0  0  0  0  0  0  0
   42.0580   32.4680   39.2470 C   0  0  0  0  0  3  0  0  0  0  0  0
   38.7200   26.3110   40.6620 C   0  0  0  0  0  0  0  0  0  0  0  0
   37.8520   25.9200   41.6890 C   0  0  0  0  0  0  0  0  0  0  0  0
   37.2460   26.9410   42.4260 C   0  0  0  0  0  0  0  0  0  0  0  0
   37.5130   28.2400   42.1260 N   0  0  0  0  0  0  0  0  0  0  0  0
   38.3650   28.5570   41.1170 C   0  0  0  0  0  0  0  0  0  0  0  0
   38.9640   27.6160   40.3890 N   0  0  0  0  0  0  0  0  0  0  0  0
   39.2030   25.5450   40.0740 H   0  0  0  0  0  0  0  0  0  0  0  0
   36.5820   26.6400   43.2110 H   0  0  0  0  0  0  0  0  0  0  0  0
   37.6490   24.4720   41.9090 C   0  0  0  0  0  0  0  0  0  0  0  0
   36.3210   24.3390   42.2900 F   0  0  0  0  0  0  0  0  0  0  0  0
   38.4780   24.0740   42.9310 F   0  0  0  0  0  0  0  0  0  0  0  0
   37.9610   23.8090   40.7380 F   0  0  0  0  0  0  0  0  0  0  0  0
  1  2  1  0  0  0  0
  1 10  1  0  0  0  0
  2 30  1  0  0  0  0
  3 11  1  0  0  0  0
  3  2  2  0  0  0  0
  4  3  1  0  0  0  0
  5  4  1  0  0  0  0
  6  7  2  0  0  0  0
  6  5  1  0  0  0  0
  7  8  1  0  0  0  0
  8  4  2  0  0  0  0
  8  9  1  0  0  0  0
  9  1  2  0  0  0  0
 12  5  1  0  0  0  0
 13  6  1  0  0  0  0
 14  9  1  0  0  0  0
 14 15  1  0  0  0  0
 15 16  1  0  0  0  0
 17 15  2  0  0  0  0
 18 17  1  0  0  0  0
 19 18  1  0  0  0  0
 20 19  2  0  0  0  0
 21 20  1  0  0  0  0
 22 23  2  0  0  0  0
 22 20  1  0  0  0  0
 23 24  1  0  0  0  0
 24 25  1  0  0  0  0
 24 18  2  0  0  0  0
 25 14  2  0  0  0  0
 26 27  1  0  0  0  0
 27 34  1  0  0  0  0
 27 28  2  0  0  0  0
 28 33  1  0  0  0  0
 29 28  1  0  0  0  0
 30 29  2  0  0  0  0
 31 26  2  0  0  0  0
 31 30  1  0  0  0  0
 32 26  1  0  0  0  0
 34 35  1  0  0  0  0
 34 36  1  0  0  0  0
 37 34  1  0  0  0  0
M  END
>  <minimizedAffinity>
-6.52526379

$$$$

 OpenBabel03242513393D

 37 41  0  0  0  0  0  0  0  0999 V2000
   36.5060   30.4780   39.3500 C   0  0  0  0  0  0  0  0  0  0  0  0
   35.6490   29.4040   39.2990 C   0  0  0  0  0  0  0  0  0  0  0  0
   35.6250   28.5460   40.3760 C   0  0  0  0  0  0  0  0  0  0  0  0
   36.4150   28.7200   41.4890 C   0  0  0  0  0  0  0  0  0  0  0  0
   36.6250   28.0930   42.6640 N   0  0  0  0  0  0  0  0  0  0  0  0
   37.5590   28.7540   43.3850 C   0  0  0  0  0  0  0  0  0  0  0  0
   37.9370   29.8180   42.6390 N   0  0  0  0  0  0  0  0  0  0  0  0
   37.2500   29.8100   41.4850 C   0  0  0  0  0  0  0  0  0  0  0  0
   37.3200   30.6950   40.4480 C   0  0  0  0  0  0  0  0  0  0  0  0
   36.5340   31.1690   38.4960 H   0  0  0  0  0  0  0  0  0  0  0  0
   34.9610   27.7080   40.3440 H   0  0  0  0  0  0  0  0  0  0  0  0
   36.1250   27.2310   42.9400 H   0  0  0  0  0  0  0  0  0  0  0  0
   37.8960   28.4300   44.3810 H   0  0  0  0  0  0  0  0  0  0  0  0
   38.2060   31.8580   40.4340 C   0  0  0  0  0  0  0  0  0  0  0  0
   37.8240   33.1780   40.2510 C   0  0  0  0  0  0  0  0  0  0  0  0
   36.7610   33.3430   40.1070 H   0  0  0  0  0  0  0  0  0  0  0  0
   38.7930   34.1700   40.2640 C   0  0  0  0  0  3  0  0  0  0  0  0
   40.1220   33.8510   40.4560 C   0  0  0  0  0  0  0  0  0  0  0  0
   41.0440   34.8300   40.4640 N   0  0  0  0  0  0  0  0  0  0  0  0
   42.3730   34.5850   40.6490 C   0  0  0  0  0  0  0  0  0  0  0  0
   43.0990   35.3810   40.6530 H   0  0  0  0  0  0  0  0  0  0  0  0
   42.7400   33.2610   40.8310 C   0  0  0  0  0  3  0  0  0  0  0  0
   41.8640   32.2000   40.8370 C   0  0  0  0  0  3  0  0  0  0  0  0
   40.5380   32.5460   40.6420 C   0  0  0  0  0  0  0  0  0  0  0  0
   39.5610   31.5670   40.6270 C   0  0  0  0  0  3  0  0  0  0  0  0
   32.7020   28.8340   37.1980 C   0  0  0  0  0  0  0  0  0  0  0  0
   33.2440   28.7670   35.9090 C   0  0  0  0  0  0  0  0  0  0  0  0
   34.6280   28.9220   35.7970 C   0  0  0  0  0  0  0  0  0  0  0  0
   35.3780   29.1260   36.9130 N   0  0  0  0  0  0  0  0  0  0  0  0
   34.7940   29.1820   38.1380 C   0  0  0  0  0  0  0  0  0  0  0  0
   33.4780   29.0390   38.2910 N   0  0  0  0  0  0  0  0  0  0  0  0
   31.6350   28.7180   37.3170 H   0  0  0  0  0  0  0  0  0  0  0  0
   35.0410   28.8690   34.8090 H   0  0  0  0  0  0  0  0  0  0  0  0
   32.3160   28.5390   34.7790 C   0  0  0  0  0  0  0  0  0  0  0  0
   33.0000   27.7140   33.8990 F   0  0  0  0  0  0  0  0  0  0  0  0
   32.0570   29.7540   34.1880 F   0  0  0  0  0  0  0  0  0  0  0  0
   31.1560   27.9800   35.2800 F   0  0  0  0  0  0  0  0  0  0  0  0
  1  9  1  0  0  0  0
  2  1  2  0  0  0  0
  2  3  1  0  0  0  0
  3  4  2  0  0  0  0
  4  5  1  0  0  0  0
  5 12  1  0  0  0  0
  5  6  1  0  0  0  0
  6 13  1  0  0  0  0
  7  6  2  0  0  0  0
  8  4  1  0  0  0  0
  8  7  1  0  0  0  0
  9  8  2  0  0  0  0
 10  1  1  0  0  0  0
 11  3  1  0  0  0  0
 14  9  1  0  0  0  0
 14 25  1  0  0  0  0
 15 17  1  0  0  0  0
 15 14  2  0  0  0  0
 16 15  1  0  0  0  0
 17 18  2  0  0  0  0
 18 19  1  0  0  0  0
 18 24  1  0  0  0  0
 19 20  2  0  0  0  0
 20 21  1  0  0  0  0
 20 22  1  0  0  0  0
 22 23  2  0  0  0  0
 24 23  1  0  0  0  0
 25 24  2  0  0  0  0
 26 32  1  0  0  0  0
 26 31  1  0  0  0  0
 27 26  2  0  0  0  0
 28 27  1  0  0  0  0
 28 29  2  0  0  0  0
 29 30  1  0  0  0  0
 30 31  2  0  0  0  0
 30  2  1  0  0  0  0
 33 28  1  0  0  0  0
 34 37  1  0  0  0  0
 34 27  1  0  0  0  0
 35 34  1  0  0  0  0
 36 34  1  0  0  0  0
M  END
>  <minimizedAffinity>
-6.51028013

$$$$

 OpenBabel03242513393D

 37 41  0  0  0  0  0  0  0  0999 V2000
   37.9830   30.1490   39.7180 C   0  0  0  0  0  0  0  0  0  0  0  0
   37.0310   30.7250   38.9080 C   0  0  0  0  0  0  0  0  0  0  0  0
   36.9420   32.0990   38.8960 C   0  0  0  0  0  0  0  0  0  0  0  0
   37.7570   32.9080   39.6520 C   0  0  0  0  0  0  0  0  0  0  0  0
   37.9240   34.2310   39.8620 N   0  0  0  0  0  0  0  0  0  0  0  0
   38.9220   34.4400   40.7510 C   0  0  0  0  0  0  0  0  0  0  0  0
   39.3860   33.2170   41.1000 N   0  0  0  0  0  0  0  0  0  0  0  0
   38.6880   32.2780   40.4400 C   0  0  0  0  0  0  0  0  0  0  0  0
   38.8260   30.9220   40.4970 C   0  0  0  0  0  0  0  0  0  0  0  0
   38.0620   29.0520   39.7350 H   0  0  0  0  0  0  0  0  0  0  0  0
   36.2050   32.5550   38.2690 H   0  0  0  0  0  0  0  0  0  0  0  0
   37.3510   34.9520   39.3930 H   0  0  0  0  0  0  0  0  0  0  0  0
   39.2410   35.4400   41.0790 H   0  0  0  0  0  0  0  0  0  0  0  0
   39.8130   30.2400   41.3320 C   0  0  0  0  0  0  0  0  0  0  0  0
   41.1260   30.6320   41.5350 C   0  0  0  0  0  0  0  0  0  0  0  0
   41.4330   31.5350   41.0150 H   0  0  0  0  0  0  0  0  0  0  0  0
   41.9390   29.8720   42.3630 C   0  0  0  0  0  3  0  0  0  0  0  0
   41.4490   28.7380   42.9790 C   0  0  0  0  0  0  0  0  0  0  0  0
   42.2550   28.0160   43.7770 N   0  0  0  0  0  0  0  0  0  0  0  0
   41.8360   26.8870   44.4160 C   0  0  0  0  0  0  0  0  0  0  0  0
   42.4960   26.3200   45.0520 H   0  0  0  0  0  0  0  0  0  0  0  0
   40.5200   26.5070   44.2050 C   0  0  0  0  0  3  0  0  0  0  0  0
   39.6290   27.1860   43.4060 C   0  0  0  0  0  3  0  0  0  0  0  0
   40.1450   28.3180   42.8000 C   0  0  0  0  0  0  0  0  0  0  0  0
   39.3450   29.0860   41.9720 C   0  0  0  0  0  3  0  0  0  0  0  0
   34.2950   28.5250   37.8630 C   0  0  0  0  0  0  0  0  0  0  0  0
   34.5210   28.3720   36.4910 C   0  0  0  0  0  0  0  0  0  0  0  0
   35.6250   29.0400   35.9540 C   0  0  0  0  0  0  0  0  0  0  0  0
   36.4170   29.7930   36.7630 N   0  0  0  0  0  0  0  0  0  0  0  0
   36.1460   29.9040   38.0900 C   0  0  0  0  0  0  0  0  0  0  0  0
   35.1050   29.2840   38.6420 N   0  0  0  0  0  0  0  0  0  0  0  0
   33.4490   28.0210   38.3080 H   0  0  0  0  0  0  0  0  0  0  0  0
   35.7980   28.9210   34.9040 H   0  0  0  0  0  0  0  0  0  0  0  0
   33.5820   27.5230   35.7250 C   0  0  0  0  0  0  0  0  0  0  0  0
   33.4290   28.1540   34.4990 F   0  0  0  0  0  0  0  0  0  0  0  0
   32.3840   27.4970   36.3990 F   0  0  0  0  0  0  0  0  0  0  0  0
   34.1230   26.2550   35.6350 F   0  0  0  0  0  0  0  0  0  0  0  0
  1 10  1  0  0  0  0
  1  9  1  0  0  0  0
  2  1  2  0  0  0  0
  3  2  1  0  0  0  0
  3  4  2  0  0  0  0
  4  5  1  0  0  0  0
  4  8  1  0  0  0  0
  5  6  1  0  0  0  0
  6 13  1  0  0  0  0
  6  7  2  0  0  0  0
  8  9  2  0  0  0  0
  8  7  1  0  0  0  0
  9 14  1  0  0  0  0
 11  3  1  0  0  0  0
 12  5  1  0  0  0  0
 14 15  2  0  0  0  0
 14 25  1  0  0  0  0
 15 17  1  0  0  0  0
 16 15  1  0  0  0  0
 17 18  2  0  0  0  0
 18 19  1  0  0  0  0
 19 20  2  0  0  0  0
 20 21  1  0  0  0  0
 22 20  1  0  0  0  0
 23 22  2  0  0  0  0
 24 18  1  0  0  0  0
 24 23  1  0  0  0  0
 25 24  2  0  0  0  0
 26 32  1  0  0  0  0
 26 31  1  0  0  0  0
 27 26  2  0  0  0  0
 28 27  1  0  0  0  0
 28 29  2  0  0  0  0
 29 30  1  0  0  0  0
 30 31  2  0  0  0  0
 30  2  1  0  0  0  0
 33 28  1  0  0  0  0
 34 36  1  0  0  0  0
 34 27  1  0  0  0  0
 35 34  1  0  0  0  0
 37 34  1  0  0  0  0
M  END
>  <minimizedAffinity>
-6.30714226

$$$$
