
 OpenBabel03252509043D

 51 54  0  0  1  0  0  0  0  0999 V2000
   46.9220   34.3020   43.5030 N   0  0  0  0  0  0  0  0  0  0  0  0
   46.5820   35.0770   42.3680 C   0  0  0  0  0  0  0  0  0  0  0  0
   45.0990   35.1100   42.0450 C   0  0  0  0  0  0  0  0  0  0  0  0
   44.2000   35.0680   43.2560 C   0  0  0  0  0  0  0  0  0  0  0  0
   44.9970   35.0830   44.5480 C   0  0  0  0  0  0  0  0  0  0  0  0
   45.9620   33.8530   44.3810 C   0  0  2  0  0  0  0  0  0  0  0  0
   46.8590   36.1460   42.5860 H   0  0  0  0  0  0  0  0  0  0  0  0
   47.0890   34.8350   41.4320 H   0  0  0  0  0  0  0  0  0  0  0  0
   44.8780   35.9580   41.3800 H   0  0  0  0  0  0  0  0  0  0  0  0
   44.8820   34.1770   41.4730 H   0  0  0  0  0  0  0  0  0  0  0  0
   43.5880   35.9940   43.2590 H   0  0  0  0  0  0  0  0  0  0  0  0
   43.5230   34.1960   43.2810 H   0  0  0  0  0  0  0  0  0  0  0  0
   44.3180   34.8610   45.3830 H   0  0  0  0  0  0  0  0  0  0  0  0
   45.6090   35.9830   44.6480 H   0  0  0  0  0  0  0  0  0  0  0  0
   45.3030   33.0210   44.0650 H   0  0  0  0  0  0  0  0  0  0  0  0
   48.1440   33.5460   43.3610 C   0  0  0  0  0  0  0  0  0  0  0  0
   48.8110   34.1490   42.6950 H   0  0  0  0  0  0  0  0  0  0  0  0
   48.6330   33.4160   44.3420 H   0  0  0  0  0  0  0  0  0  0  0  0
   47.8180   32.2460   42.7130 C   0  0  0  0  0  0  0  0  0  0  0  0
   46.7590   32.2030   42.3740 H   0  0  0  0  0  0  0  0  0  0  0  0
   47.9570   31.3800   43.3900 H   0  0  0  0  0  0  0  0  0  0  0  0
   50.7540   31.4960   40.4930 C   0  0  0  0  0  0  0  0  0  0  0  0
   49.9520   31.6610   41.6360 C   0  0  0  0  0  0  0  0  0  0  0  0
   48.6570   32.0760   41.4950 C   0  0  0  0  0  0  0  0  0  0  0  0
   48.2170   32.3080   40.2610 N   0  0  0  0  0  0  0  0  0  0  0  0
   48.9660   32.1580   39.1650 C   0  0  0  0  0  0  0  0  0  0  0  0
   50.2520   31.7480   39.2650 N   0  0  0  0  0  0  0  0  0  0  0  0
   51.7720   31.1720   40.5680 H   0  0  0  0  0  0  0  0  0  0  0  0
   50.4190   31.4420   42.5720 H   0  0  0  0  0  0  0  0  0  0  0  0
   48.4120   32.4010   38.2700 H   0  0  0  0  0  0  0  0  0  0  0  0
   46.4410   33.7030   45.6720 O   0  0  0  0  0  0  0  0  0  0  0  0
   45.5590   31.2250   45.2580 O   0  0  0  0  0  0  0  0  0  0  0  0
   46.1790   32.1780   46.2990 P   0  0  2  0  0  0  0  0  0  0  0  0
   44.9430   32.3370   47.4850 O   0  0  0  0  0  0  0  0  0  0  0  0
   45.4010   32.4980   48.3540 H   0  0  0  0  0  0  0  0  0  0  0  0
   47.5000   31.5080   47.0350 O   0  0  0  0  0  0  0  0  0  0  0  0
   47.8320   30.3090   46.3960 C   0  0  0  0  0  0  0  0  0  0  0  0
   46.9750   29.7530   46.0070 H   0  0  0  0  0  0  0  0  0  0  0  0
   48.5380   30.5210   45.5460 H   0  0  0  0  0  0  0  0  0  0  0  0
   48.5730   29.5130   47.4170 C   0  0  0  0  0  0  0  0  0  0  0  0
   48.8510   28.1630   47.3590 C   0  0  0  0  0  0  0  0  0  0  0  0
   48.4900   27.6440   46.4810 H   0  0  0  0  0  0  0  0  0  0  0  0
   49.5480   27.5530   48.3820 C   0  0  0  0  0  3  0  0  0  0  0  0
   49.9560   28.3230   49.4530 C   0  0  0  0  0  0  0  0  0  0  0  0
   50.6330   27.7900   50.4690 N   0  0  0  0  0  0  0  0  0  0  0  0
   51.0560   28.4880   51.5380 C   0  0  0  0  0  0  0  0  0  0  0  0
   51.6060   28.0740   52.3720 H   0  0  0  0  0  0  0  0  0  0  0  0
   50.8010   29.8450   51.6390 C   0  0  0  0  0  3  0  0  0  0  0  0
   50.1050   30.4540   50.6210 C   0  0  0  0  0  3  0  0  0  0  0  0
   49.7040   29.6740   49.5570 C   0  0  0  0  0  0  0  0  0  0  0  0
   48.9970   30.2720   48.5150 C   0  0  0  0  0  3  0  0  0  0  0  0
  1  6  1  0  0  0  0
  2  7  1  0  0  0  0
  2  1  1  0  0  0  0
  3  2  1  0  0  0  0
  3  4  1  0  0  0  0
  4 11  1  0  0  0  0
  4 12  1  0  0  0  0
  4  5  1  0  0  0  0
  5 14  1  0  0  0  0
  5 13  1  0  0  0  0
  6 15  1  6  0  0  0
  6  5  1  0  0  0  0
  6 31  1  0  0  0  0
  8  2  1  0  0  0  0
  9  3  1  0  0  0  0
 10  3  1  0  0  0  0
 16  1  1  0  0  0  0
 16 18  1  0  0  0  0
 17 16  1  0  0  0  0
 19 16  1  0  0  0  0
 19 21  1  0  0  0  0
 20 19  1  0  0  0  0
 22 28  1  0  0  0  0
 22 23  1  0  0  0  0
 23 29  1  0  0  0  0
 24 23  2  0  0  0  0
 24 19  1  0  0  0  0
 25 24  1  0  0  0  0
 26 27  1  0  0  0  0
 26 25  2  0  0  0  0
 27 22  2  0  0  0  0
 30 26  1  0  0  0  0
 31 33  1  0  0  0  0
 33 32  2  6  0  0  0
 33 36  1  0  0  0  0
 33 34  1  0  0  0  0
 34 35  1  0  0  0  0
 37 36  1  0  0  0  0
 37 40  1  0  0  0  0
 38 37  1  0  0  0  0
 39 37  1  0  0  0  0
 40 51  1  0  0  0  0
 41 40  2  0  0  0  0
 41 43  1  0  0  0  0
 42 41  1  0  0  0  0
 43 44  2  0  0  0  0
 44 50  1  0  0  0  0
 44 45  1  0  0  0  0
 45 46  2  0  0  0  0
 46 48  1  0  0  0  0
 46 47  1  0  0  0  0
 49 48  2  0  0  0  0
 50 49  1  0  0  0  0
 51 50  2  0  0  0  0
M  END
>  <minimizedAffinity>
-5.26815319

>  <minimizedRMSD>
3.00110054

$$$$
