
 OpenBabel03242513543D

 22 24  0  0  0  0  0  0  0  0999 V2000
   44.4680   35.0090   41.6300 C   0  0  0  0  0  0  0  0  0  0  0  0
   44.6160   34.1460   40.5630 C   0  0  0  0  0  0  0  0  0  0  0  0
   45.6000   33.7090   40.4690 H   0  0  0  0  0  0  0  0  0  0  0  0
   43.5480   33.9110   39.7260 C   0  0  0  0  0  0  0  0  0  0  0  0
   42.3140   34.5110   39.9100 C   0  0  0  0  0  0  0  0  0  0  0  0
   41.3300   34.2230   39.0440 N   0  0  0  0  0  0  0  0  0  0  0  0
   40.1150   34.7910   39.1960 C   0  0  0  0  0  0  0  0  0  0  0  0
   39.2620   34.6080   38.5340 H   0  0  0  0  0  0  0  0  0  0  0  0
   39.9290   35.6530   40.2430 C   0  0  0  0  0  0  0  0  0  0  0  0
   40.9510   35.9560   41.1480 C   0  0  0  0  0  0  0  0  0  0  0  0
   42.1880   35.3690   40.9820 C   0  0  0  0  0  0  0  0  0  0  0  0
   43.2390   35.6360   41.8520 C   0  0  0  0  0  0  0  0  0  0  0  0
   45.4290   35.3640   42.5730 O   0  0  0  0  0  0  0  0  0  0  0  0
   45.0000   34.8100   44.9350 C   0  0  0  0  0  0  0  0  0  0  0  0
   45.6950   34.6600   43.7260 C   0  0  0  0  0  0  0  0  0  0  0  0
   46.7400   33.7220   43.6990 C   0  0  0  0  0  0  0  0  0  0  0  0
   47.0110   33.0260   44.8250 N   0  0  0  0  0  0  0  0  0  0  0  0
   46.3240   33.1920   45.9740 C   0  0  0  0  0  0  0  0  0  0  0  0
   45.3110   34.0990   46.0080 N   0  0  0  0  0  0  0  0  0  0  0  0
   44.2150   35.5580   44.8490 H   0  0  0  0  0  0  0  0  0  0  0  0
   47.3270   33.5470   42.8010 H   0  0  0  0  0  0  0  0  0  0  0  0
   46.5940   32.6020   46.8350 H   0  0  0  0  0  0  0  0  0  0  0  0
  1 12  1  0  0  0  0
  1 13  1  0  0  0  0
  2  1  2  0  0  0  0
  3  2  1  0  0  0  0
  4  5  2  0  0  0  0
  4  2  1  0  0  0  0
  5 11  1  0  0  0  0
  6  7  2  0  0  0  0
  6  5  1  0  0  0  0
  7  9  1  0  0  0  0
  8  7  1  0  0  0  0
  9 10  2  0  0  0  0
 11 10  1  0  0  0  0
 11 12  2  0  0  0  0
 13 15  1  0  0  0  0
 14 19  1  0  0  0  0
 15 14  2  0  0  0  0
 16 15  1  0  0  0  0
 16 17  2  0  0  0  0
 17 18  1  0  0  0  0
 18 19  2  0  0  0  0
 18 22  1  0  0  0  0
 20 14  1  0  0  0  0
 21 16  1  0  0  0  0
M  END
>  <minimizedAffinity>
-5.28497362

>  <minimizedRMSD>
2.01825643

$$$$
