
 OpenBabel03252506463D

 45 49  0  0  1  0  0  0  0  0999 V2000
   49.5490   33.3550   41.5070 N   0  0  1  0  0  0  0  0  0  0  0  0
   50.7460   33.1280   42.2780 C   0  0  0  0  0  0  0  0  0  0  0  0
   51.3700   31.7860   42.0180 C   0  0  0  0  0  0  0  0  0  0  0  0
   50.4450   30.7180   42.5580 C   0  0  0  0  0  0  0  0  0  0  0  0
   48.9990   31.0980   42.3360 C   0  0  0  0  0  0  0  0  0  0  0  0
   48.9190   32.0960   41.1890 C   0  0  2  0  0  0  0  0  0  0  0  0
   50.5240   33.1900   43.3730 H   0  0  0  0  0  0  0  0  0  0  0  0
   51.4930   33.8930   42.0420 H   0  0  0  0  0  0  0  0  0  0  0  0
   52.2830   31.7550   42.6660 H   0  0  0  0  0  0  0  0  0  0  0  0
   51.6610   31.6460   40.9690 H   0  0  0  0  0  0  0  0  0  0  0  0
   50.6180   29.8150   41.9340 H   0  0  0  0  0  0  0  0  0  0  0  0
   50.6620   30.4460   43.6060 H   0  0  0  0  0  0  0  0  0  0  0  0
   48.6400   31.5610   43.2670 H   0  0  0  0  0  0  0  0  0  0  0  0
   48.3710   30.2400   42.0490 H   0  0  0  0  0  0  0  0  0  0  0  0
   47.8350   32.2960   41.0640 H   0  0  0  0  0  0  0  0  0  0  0  0
   47.2860   34.5260   41.9390 C   0  0  1  0  0  0  0  0  0  0  0  0
   48.2920   35.4870   41.5070 C   0  0  0  0  0  0  0  0  0  0  0  0
   48.7430   34.2680   42.2470 C   0  0  2  0  0  0  0  0  0  0  0  0
   46.8750   33.7050   41.2800 H   0  0  0  0  0  0  0  0  0  0  0  0
   48.4710   35.5610   40.3990 H   0  0  0  0  0  0  0  0  0  0  0  0
   48.2710   36.4840   41.9760 H   0  0  0  0  0  0  0  0  0  0  0  0
   49.0340   34.4500   43.3050 H   0  0  0  0  0  0  0  0  0  0  0  0
   45.5960   36.0280   43.0330 C   0  0  0  0  0  0  0  0  0  0  0  0
   46.3590   34.8360   43.0420 C   0  0  0  0  0  0  0  0  0  0  0  0
   46.2020   33.9690   44.1180 C   0  0  0  0  0  0  0  0  0  0  0  0
   45.3260   34.3100   45.0990 N   0  0  0  0  0  0  0  0  0  0  0  0
   44.6110   35.4400   45.0760 C   0  0  0  0  0  0  0  0  0  0  0  0
   44.7400   36.3180   44.0330 N   0  0  0  0  0  0  0  0  0  0  0  0
   45.7460   36.6750   42.1810 H   0  0  0  0  0  0  0  0  0  0  0  0
   46.7600   33.0380   44.1840 H   0  0  0  0  0  0  0  0  0  0  0  0
   43.9150   35.7070   45.8610 H   0  0  0  0  0  0  0  0  0  0  0  0
   49.3830   31.4760   39.9900 N   0  0  0  0  0  0  0  0  0  0  0  0
   49.9750   30.6010   40.0820 H   0  0  0  0  0  0  0  0  0  0  0  0
   49.1460   31.8900   38.6700 C   0  0  0  0  0  0  0  0  0  0  0  0
   48.3090   32.9030   38.2910 C   0  0  0  0  0  0  0  0  0  0  0  0
   47.7760   33.4580   39.0320 H   0  0  0  0  0  0  0  0  0  0  0  0
   48.0560   33.3250   37.0100 C   0  0  0  0  0  3  0  0  0  0  0  0
   48.7120   32.6610   35.9740 C   0  0  0  0  0  0  0  0  0  0  0  0
   48.5360   32.9940   34.6850 N   0  0  0  0  0  0  0  0  0  0  0  0
   49.1650   32.3570   33.6830 C   0  0  0  0  0  0  0  0  0  0  0  0
   48.9280   32.7300   32.7040 H   0  0  0  0  0  0  0  0  0  0  0  0
   50.0450   31.3060   33.9360 C   0  0  0  0  0  3  0  0  0  0  0  0
   50.2180   30.9730   35.2630 C   0  0  0  0  0  3  0  0  0  0  0  0
   49.5670   31.6330   36.2780 C   0  0  0  0  0  0  0  0  0  0  0  0
   49.7610   31.2790   37.5850 C   0  0  0  0  0  3  0  0  0  0  0  0
  1 18  1  0  0  0  0
  1  2  1  1  0  0  0
  2  7  1  0  0  0  0
  3  2  1  0  0  0  0
  3  4  1  0  0  0  0
  3  9  1  0  0  0  0
  4 12  1  0  0  0  0
  5  4  1  0  0  0  0
  5 13  1  0  0  0  0
  6 15  1  6  0  0  0
  6  1  1  0  0  0  0
  6  5  1  0  0  0  0
  8  2  1  0  0  0  0
 10  3  1  0  0  0  0
 11  4  1  0  0  0  0
 14  5  1  0  0  0  0
 16 19  1  6  0  0  0
 16 18  1  0  0  0  0
 16 24  1  0  0  0  0
 17 16  1  0  0  0  0
 17 21  1  0  0  0  0
 17 18  1  0  0  0  0
 18 22  1  1  0  0  0
 20 17  1  0  0  0  0
 23 24  2  0  0  0  0
 23 28  1  0  0  0  0
 24 25  1  0  0  0  0
 25 30  1  0  0  0  0
 25 26  2  0  0  0  0
 27 26  1  0  0  0  0
 27 31  1  0  0  0  0
 28 27  2  0  0  0  0
 29 23  1  0  0  0  0
 32 33  1  0  0  0  0
 32  6  1  0  0  0  0
 34 32  1  0  0  0  0
 35 34  1  0  0  0  0
 35 36  1  0  0  0  0
 37 35  2  0  0  0  0
 38 44  1  0  0  0  0
 38 37  1  0  0  0  0
 39 38  2  0  0  0  0
 40 42  2  0  0  0  0
 40 39  1  0  0  0  0
 41 40  1  0  0  0  0
 42 43  1  0  0  0  0
 43 44  2  0  0  0  0
 44 45  1  0  0  0  0
 45 34  2  0  0  0  0
M  END
>  <minimizedAffinity>
-5.86207008

>  <minimizedRMSD>
0.341776192

$$$$
