
 OpenBabel03252501493D

 36 39  0  0  0  0  0  0  0  0999 V2000
   31.9700   29.6070   37.3670 C   0  0  0  0  0  0  0  0  0  0  0  0
   33.2790   29.1080   37.1200 C   0  0  0  0  0  0  0  0  0  0  0  0
   33.7720   29.1110   35.8160 C   0  0  0  0  0  0  0  0  0  0  0  0
   32.9710   29.5980   34.8300 N   0  0  0  0  0  0  0  0  0  0  0  0
   31.7480   30.0590   35.0970 C   0  0  0  0  0  0  0  0  0  0  0  0
   31.2470   30.0670   36.3470 N   0  0  0  0  0  0  0  0  0  0  0  0
   31.6190   29.5880   38.3930 H   0  0  0  0  0  0  0  0  0  0  0  0
   34.7560   28.7360   35.6210 H   0  0  0  0  0  0  0  0  0  0  0  0
   31.2430   32.7790   34.8480 F   0  0  0  0  0  0  0  0  0  0  0  0
   30.6940   31.9520   33.9100 C   0  0  0  0  0  0  0  0  0  0  0  0
   30.9240   30.5750   34.0000 C   0  0  0  0  0  0  0  0  0  0  0  0
   30.3980   29.7020   33.0870 C   0  0  0  0  0  0  0  0  0  0  0  0
   29.6200   30.2310   32.0580 C   0  0  0  0  0  0  0  0  0  0  0  0
   29.3720   31.5970   31.9410 C   0  0  0  0  0  0  0  0  0  0  0  0
   29.9160   32.4630   32.8790 C   0  0  0  0  0  0  0  0  0  0  0  0
   30.5770   28.6300   33.1570 H   0  0  0  0  0  0  0  0  0  0  0  0
   29.2240   29.5150   31.3630 H   0  0  0  0  0  0  0  0  0  0  0  0
   28.7590   31.9500   31.1220 H   0  0  0  0  0  0  0  0  0  0  0  0
   29.7230   33.5290   32.7890 H   0  0  0  0  0  0  0  0  0  0  0  0
   34.0640   28.6060   38.2500 C   0  0  0  0  0  3  0  0  0  0  0  0
   34.4320   29.3180   39.2980 C   0  0  0  0  0  3  0  0  0  0  0  0
   35.2420   28.6860   40.3960 C   0  0  0  0  0  0  0  0  0  0  0  0
   34.6780   28.5580   41.3200 H   0  0  0  0  0  0  0  0  0  0  0  0
   35.6920   27.7320   40.0600 H   0  0  0  0  0  0  0  0  0  0  0  0
   36.3800   29.6340   40.6670 C   0  0  0  0  0  0  0  0  0  0  0  0
   37.4630   29.3000   41.4600 C   0  0  0  0  0  0  0  0  0  0  0  0
   37.4490   28.3010   41.8860 H   0  0  0  0  0  0  0  0  0  0  0  0
   38.4680   30.2420   41.6530 C   0  0  0  0  0  3  0  0  0  0  0  0
   38.4040   31.4910   41.0710 C   0  0  0  0  0  0  0  0  0  0  0  0
   39.4170   32.3470   41.3060 N   0  0  0  0  0  0  0  0  0  0  0  0
   39.3830   33.5830   40.7480 C   0  0  0  0  0  0  0  0  0  0  0  0
   40.1620   34.3120   40.8970 H   0  0  0  0  0  0  0  0  0  0  0  0
   38.3110   33.9330   39.9540 C   0  0  0  0  0  3  0  0  0  0  0  0
   37.2450   33.0990   39.6780 C   0  0  0  0  0  3  0  0  0  0  0  0
   37.3320   31.8400   40.2770 C   0  0  0  0  0  0  0  0  0  0  0  0
   36.3390   30.9040   40.0900 C   0  0  0  0  0  3  0  0  0  0  0  0
  1  7  1  0  0  0  0
  2  1  1  0  0  0  0
  2 20  1  0  0  0  0
  3  2  2  0  0  0  0
  4  5  2  0  0  0  0
  4  3  1  0  0  0  0
  5  6  1  0  0  0  0
  6  1  2  0  0  0  0
  8  3  1  0  0  0  0
 10 11  1  0  0  0  0
 10  9  1  0  0  0  0
 11  5  1  0  0  0  0
 12 16  1  0  0  0  0
 12 11  2  0  0  0  0
 13 12  1  0  0  0  0
 14 13  2  0  0  0  0
 14 15  1  0  0  0  0
 15 10  2  0  0  0  0
 17 13  1  0  0  0  0
 18 14  1  0  0  0  0
 19 15  1  0  0  0  0
 20 21  2  0  0  0  0
 21 22  1  0  0  0  0
 22 25  1  0  0  0  0
 22 23  1  0  0  0  0
 24 22  1  0  0  0  0
 25 26  1  0  0  0  0
 26 28  2  0  0  0  0
 26 27  1  0  0  0  0
 29 30  1  0  0  0  0
 29 28  1  0  0  0  0
 31 32  1  0  0  0  0
 31 30  2  0  0  0  0
 33 31  1  0  0  0  0
 34 33  2  0  0  0  0
 34 35  1  0  0  0  0
 35 29  2  0  0  0  0
 36 35  1  0  0  0  0
 36 25  2  0  0  0  0
M  END
>  <minimizedAffinity>
-6.5689497

$$$$

 OpenBabel03252501493D

 36 39  0  0  0  0  0  0  0  0999 V2000
   39.2200   29.7180   40.5370 C   0  0  0  0  0  0  0  0  0  0  0  0
   38.2970   30.7300   40.9230 C   0  0  0  0  0  0  0  0  0  0  0  0
   37.0040   30.3650   41.2920 C   0  0  0  0  0  0  0  0  0  0  0  0
   36.6800   29.0430   41.2660 N   0  0  0  0  0  0  0  0  0  0  0  0
   37.5700   28.1210   40.8990 C   0  0  0  0  0  0  0  0  0  0  0  0
   38.8260   28.4460   40.5380 N   0  0  0  0  0  0  0  0  0  0  0  0
   40.2170   30.0400   40.2560 H   0  0  0  0  0  0  0  0  0  0  0  0
   36.3030   31.1200   41.5830 H   0  0  0  0  0  0  0  0  0  0  0  0
   37.6990   26.5850   43.2100 F   0  0  0  0  0  0  0  0  0  0  0  0
   37.2520   25.9710   42.0750 C   0  0  0  0  0  0  0  0  0  0  0  0
   37.1720   26.7100   40.8890 C   0  0  0  0  0  0  0  0  0  0  0  0
   36.7320   26.1440   39.7240 C   0  0  0  0  0  0  0  0  0  0  0  0
   36.3630   24.8000   39.7550 C   0  0  0  0  0  0  0  0  0  0  0  0
   36.4310   24.0370   40.9190 C   0  0  0  0  0  0  0  0  0  0  0  0
   36.8820   24.6330   42.0890 C   0  0  0  0  0  0  0  0  0  0  0  0
   36.6700   26.7190   38.8010 H   0  0  0  0  0  0  0  0  0  0  0  0
   36.0240   24.3920   38.8220 H   0  0  0  0  0  0  0  0  0  0  0  0
   36.1320   22.9970   40.8830 H   0  0  0  0  0  0  0  0  0  0  0  0
   36.9360   24.0390   42.9980 H   0  0  0  0  0  0  0  0  0  0  0  0
   38.7430   32.1250   40.9190 C   0  0  0  0  0  3  0  0  0  0  0  0
   38.5220   32.9930   39.9500 C   0  0  0  0  0  3  0  0  0  0  0  0
   39.0360   34.4020   40.0630 C   0  0  0  0  0  0  0  0  0  0  0  0
   38.6650   35.0550   39.2710 H   0  0  0  0  0  0  0  0  0  0  0  0
   38.8260   34.8230   41.0650 H   0  0  0  0  0  0  0  0  0  0  0  0
   40.5320   34.3070   39.9340 C   0  0  0  0  0  0  0  0  0  0  0  0
   41.1570   33.7800   38.8180 C   0  0  0  0  0  0  0  0  0  0  0  0
   40.5000   33.4320   38.0260 H   0  0  0  0  0  0  0  0  0  0  0  0
   42.5470   33.7330   38.7880 C   0  0  0  0  0  3  0  0  0  0  0  0
   43.3050   34.2000   39.8420 C   0  0  0  0  0  0  0  0  0  0  0  0
   44.6460   34.1200   39.7360 N   0  0  0  0  0  0  0  0  0  0  0  0
   45.4190   34.5710   40.7560 C   0  0  0  0  0  0  0  0  0  0  0  0
   46.4950   34.5350   40.7320 H   0  0  0  0  0  0  0  0  0  0  0  0
   44.8120   35.0990   41.8770 C   0  0  0  0  0  3  0  0  0  0  0  0
   43.4440   35.2070   42.0410 C   0  0  0  0  0  3  0  0  0  0  0  0
   42.6980   34.7290   40.9620 C   0  0  0  0  0  0  0  0  0  0  0  0
   41.3210   34.7720   40.9870 C   0  0  0  0  0  3  0  0  0  0  0  0
  1  6  2  0  0  0  0
  1  2  1  0  0  0  0
  2  3  2  0  0  0  0
  3  8  1  0  0  0  0
  4  3  1  0  0  0  0
  5  4  2  0  0  0  0
  6  5  1  0  0  0  0
  7  1  1  0  0  0  0
 10 15  1  0  0  0  0
 10  9  1  0  0  0  0
 11  5  1  0  0  0  0
 11 10  2  0  0  0  0
 12 13  2  0  0  0  0
 12 11  1  0  0  0  0
 13 14  1  0  0  0  0
 14 15  2  0  0  0  0
 15 19  1  0  0  0  0
 16 12  1  0  0  0  0
 17 13  1  0  0  0  0
 18 14  1  0  0  0  0
 20  2  1  0  0  0  0
 21 22  1  0  0  0  0
 21 20  2  0  0  0  0
 22 24  1  0  0  0  0
 23 22  1  0  0  0  0
 25 22  1  0  0  0  0
 25 36  1  0  0  0  0
 26 25  2  0  0  0  0
 27 26  1  0  0  0  0
 28 26  1  0  0  0  0
 28 29  2  0  0  0  0
 29 35  1  0  0  0  0
 30 29  1  0  0  0  0
 30 31  2  0  0  0  0
 31 33  1  0  0  0  0
 32 31  1  0  0  0  0
 33 34  2  0  0  0  0
 35 36  2  0  0  0  0
 35 34  1  0  0  0  0
M  END
>  <minimizedAffinity>
-6.24053621

$$$$

 OpenBabel03252501493D

 36 39  0  0  0  0  0  0  0  0999 V2000
   37.5910   30.8460   37.8490 C   0  0  0  0  0  0  0  0  0  0  0  0
   36.5800   30.4790   38.7800 C   0  0  0  0  0  0  0  0  0  0  0  0
   36.6310   30.9900   40.0760 C   0  0  0  0  0  0  0  0  0  0  0  0
   37.6580   31.8250   40.3950 N   0  0  0  0  0  0  0  0  0  0  0  0
   38.5890   32.1490   39.4970 C   0  0  0  0  0  0  0  0  0  0  0  0
   38.5640   31.6700   38.2390 N   0  0  0  0  0  0  0  0  0  0  0  0
   37.5190   30.4290   36.8510 H   0  0  0  0  0  0  0  0  0  0  0  0
   35.8750   30.7180   40.7830 H   0  0  0  0  0  0  0  0  0  0  0  0
   38.1140   34.8540   39.9050 F   0  0  0  0  0  0  0  0  0  0  0  0
   39.3920   34.4100   40.0850 C   0  0  0  0  0  0  0  0  0  0  0  0
   39.6740   33.0540   39.8890 C   0  0  0  0  0  0  0  0  0  0  0  0
   40.9380   32.5560   40.0550 C   0  0  0  0  0  0  0  0  0  0  0  0
   41.9420   33.4480   40.4280 C   0  0  0  0  0  0  0  0  0  0  0  0
   41.6930   34.8050   40.6300 C   0  0  0  0  0  0  0  0  0  0  0  0
   40.4040   35.2860   40.4550 C   0  0  0  0  0  0  0  0  0  0  0  0
   41.1570   31.5000   39.9030 H   0  0  0  0  0  0  0  0  0  0  0  0
   42.9190   33.0210   40.5480 H   0  0  0  0  0  0  0  0  0  0  0  0
   42.5130   35.4500   40.9180 H   0  0  0  0  0  0  0  0  0  0  0  0
   40.2090   36.3440   40.6120 H   0  0  0  0  0  0  0  0  0  0  0  0
   35.5160   29.5740   38.3400 C   0  0  0  0  0  3  0  0  0  0  0  0
   35.3380   29.1520   37.1020 C   0  0  0  0  0  3  0  0  0  0  0  0
   34.2020   28.2220   36.7750 C   0  0  0  0  0  0  0  0  0  0  0  0
   34.4000   27.6000   35.9010 H   0  0  0  0  0  0  0  0  0  0  0  0
   33.9250   27.6090   37.6540 H   0  0  0  0  0  0  0  0  0  0  0  0
   33.0220   29.1050   36.4680 C   0  0  0  0  0  0  0  0  0  0  0  0
   32.8100   29.6690   35.2240 C   0  0  0  0  0  0  0  0  0  0  0  0
   33.5530   29.4390   34.4650 H   0  0  0  0  0  0  0  0  0  0  0  0
   31.6900   30.4720   35.0330 C   0  0  0  0  0  3  0  0  0  0  0  0
   30.7960   30.7120   36.0560 C   0  0  0  0  0  0  0  0  0  0  0  0
   29.7360   31.5000   35.7920 N   0  0  0  0  0  0  0  0  0  0  0  0
   28.8390   31.7550   36.7760 C   0  0  0  0  0  0  0  0  0  0  0  0
   27.9710   32.3760   36.6290 H   0  0  0  0  0  0  0  0  0  0  0  0
   29.0340   31.2010   38.0250 C   0  0  0  0  0  3  0  0  0  0  0  0
   30.1010   30.3860   38.3530 C   0  0  0  0  0  3  0  0  0  0  0  0
   30.9910   30.1570   37.3030 C   0  0  0  0  0  0  0  0  0  0  0  0
   32.1030   29.3630   37.4860 C   0  0  0  0  0  3  0  0  0  0  0  0
  1  6  2  0  0  0  0
  1  2  1  0  0  0  0
  2  3  2  0  0  0  0
  3  4  1  0  0  0  0
  3  8  1  0  0  0  0
  5 11  1  0  0  0  0
  5  4  2  0  0  0  0
  6  5  1  0  0  0  0
  7  1  1  0  0  0  0
  9 10  1  0  0  0  0
 10 15  1  0  0  0  0
 11 12  1  0  0  0  0
 11 10  2  0  0  0  0
 12 13  2  0  0  0  0
 13 17  1  0  0  0  0
 13 14  1  0  0  0  0
 14 18  1  0  0  0  0
 15 19  1  0  0  0  0
 15 14  2  0  0  0  0
 16 12  1  0  0  0  0
 20  2  1  0  0  0  0
 21 20  2  0  0  0  0
 22 21  1  0  0  0  0
 22 24  1  0  0  0  0
 23 22  1  0  0  0  0
 25 22  1  0  0  0  0
 25 36  1  0  0  0  0
 26 25  2  0  0  0  0
 27 26  1  0  0  0  0
 28 26  1  0  0  0  0
 28 29  2  0  0  0  0
 29 35  1  0  0  0  0
 30 29  1  0  0  0  0
 30 31  2  0  0  0  0
 31 33  1  0  0  0  0
 32 31  1  0  0  0  0
 33 34  2  0  0  0  0
 35 36  2  0  0  0  0
 35 34  1  0  0  0  0
M  END
>  <minimizedAffinity>
-6.16304302

$$$$

 OpenBabel03252501493D

 36 39  0  0  0  0  0  0  0  0999 V2000
   37.1710   31.1020   38.0270 C   0  0  0  0  0  0  0  0  0  0  0  0
   36.3880   30.5340   39.0710 C   0  0  0  0  0  0  0  0  0  0  0  0
   36.7030   30.8310   40.3950 C   0  0  0  0  0  0  0  0  0  0  0  0
   37.7570   31.6600   40.6320 N   0  0  0  0  0  0  0  0  0  0  0  0
   38.4700   32.1750   39.6300 C   0  0  0  0  0  0  0  0  0  0  0  0
   38.1870   31.9040   38.3410 N   0  0  0  0  0  0  0  0  0  0  0  0
   36.8970   30.8480   37.0090 H   0  0  0  0  0  0  0  0  0  0  0  0
   36.1200   30.4080   41.1870 H   0  0  0  0  0  0  0  0  0  0  0  0
   38.0680   34.8900   40.0570 F   0  0  0  0  0  0  0  0  0  0  0  0
   39.3500   34.4250   40.1460 C   0  0  0  0  0  0  0  0  0  0  0  0
   39.5940   33.0640   39.9370 C   0  0  0  0  0  0  0  0  0  0  0  0
   40.8590   32.5460   40.0130 C   0  0  0  0  0  0  0  0  0  0  0  0
   41.9020   33.4230   40.3070 C   0  0  0  0  0  0  0  0  0  0  0  0
   41.6910   34.7840   40.5200 C   0  0  0  0  0  0  0  0  0  0  0  0
   40.4000   35.2860   40.4370 C   0  0  0  0  0  0  0  0  0  0  0  0
   41.0500   31.4860   39.8500 H   0  0  0  0  0  0  0  0  0  0  0  0
   42.8780   32.9810   40.3570 H   0  0  0  0  0  0  0  0  0  0  0  0
   42.5400   35.4170   40.7440 H   0  0  0  0  0  0  0  0  0  0  0  0
   40.2330   36.3470   40.6030 H   0  0  0  0  0  0  0  0  0  0  0  0
   35.2730   29.6540   38.7130 C   0  0  0  0  0  3  0  0  0  0  0  0
   34.9730   29.2650   37.4880 C   0  0  0  0  0  3  0  0  0  0  0  0
   33.7970   28.3590   37.2490 C   0  0  0  0  0  0  0  0  0  0  0  0
   33.9310   27.7070   36.3840 H   0  0  0  0  0  0  0  0  0  0  0  0
   33.5500   27.7780   38.1580 H   0  0  0  0  0  0  0  0  0  0  0  0
   32.6260   29.2650   36.9790 C   0  0  0  0  0  0  0  0  0  0  0  0
   31.6640   29.5520   37.9290 C   0  0  0  0  0  0  0  0  0  0  0  0
   31.7990   29.0810   38.8990 H   0  0  0  0  0  0  0  0  0  0  0  0
   30.6170   30.4020   37.5880 C   0  0  0  0  0  3  0  0  0  0  0  0
   30.5240   30.9590   36.3300 C   0  0  0  0  0  0  0  0  0  0  0  0
   29.4800   31.7720   36.0770 N   0  0  0  0  0  0  0  0  0  0  0  0
   29.3610   32.3350   34.8490 C   0  0  0  0  0  0  0  0  0  0  0  0
   28.5500   32.9930   34.5850 H   0  0  0  0  0  0  0  0  0  0  0  0
   30.3110   32.0590   33.8880 C   0  0  0  0  0  3  0  0  0  0  0  0
   31.4020   31.2350   34.0890 C   0  0  0  0  0  3  0  0  0  0  0  0
   31.4750   30.6840   35.3690 C   0  0  0  0  0  0  0  0  0  0  0  0
   32.5090   29.8400   35.7130 C   0  0  0  0  0  3  0  0  0  0  0  0
  1  6  2  0  0  0  0
  1  2  1  0  0  0  0
  2  3  2  0  0  0  0
  3  4  1  0  0  0  0
  3  8  1  0  0  0  0
  5 11  1  0  0  0  0
  5  4  2  0  0  0  0
  6  5  1  0  0  0  0
  7  1  1  0  0  0  0
  9 10  1  0  0  0  0
 10 15  1  0  0  0  0
 11 12  1  0  0  0  0
 11 10  2  0  0  0  0
 12 13  2  0  0  0  0
 13 17  1  0  0  0  0
 13 14  1  0  0  0  0
 14 18  1  0  0  0  0
 15 14  2  0  0  0  0
 15 19  1  0  0  0  0
 16 12  1  0  0  0  0
 20  2  1  0  0  0  0
 21 20  2  0  0  0  0
 22 21  1  0  0  0  0
 22 24  1  0  0  0  0
 23 22  1  0  0  0  0
 25 22  1  0  0  0  0
 25 26  1  0  0  0  0
 26 27  1  0  0  0  0
 28 26  2  0  0  0  0
 29 28  1  0  0  0  0
 30 29  1  0  0  0  0
 31 30  2  0  0  0  0
 32 31  1  0  0  0  0
 33 34  2  0  0  0  0
 33 31  1  0  0  0  0
 34 35  1  0  0  0  0
 35 36  1  0  0  0  0
 35 29  2  0  0  0  0
 36 25  2  0  0  0  0
M  END
>  <minimizedAffinity>
-6.14609623

$$$$

 OpenBabel03252501493D

 36 39  0  0  0  0  0  0  0  0999 V2000
   34.4740   27.9610   37.5130 C   0  0  0  0  0  0  0  0  0  0  0  0
   34.1090   26.6680   37.0460 C   0  0  0  0  0  0  0  0  0  0  0  0
   32.9770   26.5290   36.2440 C   0  0  0  0  0  0  0  0  0  0  0  0
   32.2650   27.6490   35.9420 N   0  0  0  0  0  0  0  0  0  0  0  0
   32.6360   28.8470   36.3980 C   0  0  0  0  0  0  0  0  0  0  0  0
   33.7240   29.0090   37.1740 N   0  0  0  0  0  0  0  0  0  0  0  0
   35.3600   28.0310   38.1350 H   0  0  0  0  0  0  0  0  0  0  0  0
   32.6960   25.5590   35.8890 H   0  0  0  0  0  0  0  0  0  0  0  0
   30.9310   30.0250   38.2470 F   0  0  0  0  0  0  0  0  0  0  0  0
   30.9900   30.5870   37.0040 C   0  0  0  0  0  0  0  0  0  0  0  0
   31.8360   30.0230   36.0430 C   0  0  0  0  0  0  0  0  0  0  0  0
   31.9320   30.5470   34.7820 C   0  0  0  0  0  0  0  0  0  0  0  0
   31.1570   31.6650   34.4830 C   0  0  0  0  0  0  0  0  0  0  0  0
   30.3040   32.2490   35.4180 C   0  0  0  0  0  0  0  0  0  0  0  0
   30.2230   31.7010   36.6900 C   0  0  0  0  0  0  0  0  0  0  0  0
   32.5910   30.1080   34.0340 H   0  0  0  0  0  0  0  0  0  0  0  0
   31.2590   32.0460   33.4850 H   0  0  0  0  0  0  0  0  0  0  0  0
   29.7250   33.1170   35.1290 H   0  0  0  0  0  0  0  0  0  0  0  0
   29.5580   32.1550   37.4210 H   0  0  0  0  0  0  0  0  0  0  0  0
   34.9410   25.5240   37.4250 C   0  0  0  0  0  3  0  0  0  0  0  0
   35.5270   25.3640   38.5970 C   0  0  0  0  0  3  0  0  0  0  0  0
   36.3620   24.1410   38.8650 C   0  0  0  0  0  0  0  0  0  0  0  0
   35.7640   23.2680   39.1310 H   0  0  0  0  0  0  0  0  0  0  0  0
   37.0370   23.9260   38.0140 H   0  0  0  0  0  0  0  0  0  0  0  0
   37.2370   24.4890   40.0390 C   0  0  0  0  0  0  0  0  0  0  0  0
   38.2710   23.6790   40.4710 C   0  0  0  0  0  0  0  0  0  0  0  0
   38.4210   22.7610   39.9100 H   0  0  0  0  0  0  0  0  0  0  0  0
   39.0270   24.0840   41.5670 C   0  0  0  0  0  3  0  0  0  0  0  0
   38.7650   25.2690   42.2220 C   0  0  0  0  0  0  0  0  0  0  0  0
   39.5420   25.5900   43.2740 N   0  0  0  0  0  0  0  0  0  0  0  0
   39.3100   26.7490   43.9400 C   0  0  0  0  0  0  0  0  0  0  0  0
   39.8950   27.0630   44.7880 H   0  0  0  0  0  0  0  0  0  0  0  0
   38.2820   27.5700   43.5230 C   0  0  0  0  0  3  0  0  0  0  0  0
   37.4540   27.2930   42.4520 C   0  0  0  0  0  3  0  0  0  0  0  0
   37.7380   26.0890   41.8050 C   0  0  0  0  0  0  0  0  0  0  0  0
   36.9920   25.6830   40.7190 C   0  0  0  0  0  3  0  0  0  0  0  0
  1  7  1  0  0  0  0
  2 20  1  0  0  0  0
  2  1  2  0  0  0  0
  3  2  1  0  0  0  0
  4  3  2  0  0  0  0
  4  5  1  0  0  0  0
  5  6  2  0  0  0  0
  6  1  1  0  0  0  0
  8  3  1  0  0  0  0
 10  9  1  0  0  0  0
 11  5  1  0  0  0  0
 11 10  2  0  0  0  0
 12 11  1  0  0  0  0
 13 12  2  0  0  0  0
 13 14  1  0  0  0  0
 14 15  2  0  0  0  0
 15 10  1  0  0  0  0
 15 19  1  0  0  0  0
 16 12  1  0  0  0  0
 17 13  1  0  0  0  0
 18 14  1  0  0  0  0
 20 21  2  0  0  0  0
 21 22  1  0  0  0  0
 22 23  1  0  0  0  0
 22 25  1  0  0  0  0
 24 22  1  0  0  0  0
 25 26  2  0  0  0  0
 25 36  1  0  0  0  0
 26 28  1  0  0  0  0
 27 26  1  0  0  0  0
 28 29  2  0  0  0  0
 29 30  1  0  0  0  0
 30 31  2  0  0  0  0
 31 32  1  0  0  0  0
 33 31  1  0  0  0  0
 34 33  2  0  0  0  0
 35 29  1  0  0  0  0
 35 34  1  0  0  0  0
 36 35  2  0  0  0  0
M  END
>  <minimizedAffinity>
-6.04188585

$$$$

 OpenBabel03252501493D

 36 39  0  0  0  0  0  0  0  0999 V2000
   40.6670   31.0630   41.1420 C   0  0  0  0  0  0  0  0  0  0  0  0
   39.5620   31.6690   40.4810 C   0  0  0  0  0  0  0  0  0  0  0  0
   39.6760   32.9820   40.0300 C   0  0  0  0  0  0  0  0  0  0  0  0
   40.8530   33.6330   40.2440 N   0  0  0  0  0  0  0  0  0  0  0  0
   41.8690   33.0350   40.8670 C   0  0  0  0  0  0  0  0  0  0  0  0
   41.7850   31.7670   41.3130 N   0  0  0  0  0  0  0  0  0  0  0  0
   40.5420   30.0410   41.4800 H   0  0  0  0  0  0  0  0  0  0  0  0
   38.8490   33.4450   39.5320 H   0  0  0  0  0  0  0  0  0  0  0  0
   43.9800   32.8020   39.0780 F   0  0  0  0  0  0  0  0  0  0  0  0
   44.1560   33.6330   40.1480 C   0  0  0  0  0  0  0  0  0  0  0  0
   43.1160   33.7780   41.0720 C   0  0  0  0  0  0  0  0  0  0  0  0
   43.2390   34.5960   42.1620 C   0  0  0  0  0  0  0  0  0  0  0  0
   44.4400   35.2860   42.3230 C   0  0  0  0  0  0  0  0  0  0  0  0
   45.4940   35.1620   41.4190 C   0  0  0  0  0  0  0  0  0  0  0  0
   45.3460   34.3260   40.3220 C   0  0  0  0  0  0  0  0  0  0  0  0
   42.4300   34.7090   42.8820 H   0  0  0  0  0  0  0  0  0  0  0  0
   44.4990   35.9170   43.1890 H   0  0  0  0  0  0  0  0  0  0  0  0
   46.4040   35.7220   41.5960 H   0  0  0  0  0  0  0  0  0  0  0  0
   46.1670   34.2290   39.6170 H   0  0  0  0  0  0  0  0  0  0  0  0
   38.3390   30.8850   40.2970 C   0  0  0  0  0  3  0  0  0  0  0  0
   37.3280   30.8390   41.1460 C   0  0  0  0  0  3  0  0  0  0  0  0
   36.1240   29.9900   40.8440 C   0  0  0  0  0  0  0  0  0  0  0  0
   35.2420   30.2860   41.4140 H   0  0  0  0  0  0  0  0  0  0  0  0
   35.9140   29.9700   39.7570 H   0  0  0  0  0  0  0  0  0  0  0  0
   36.4970   28.5880   41.2440 C   0  0  0  0  0  0  0  0  0  0  0  0
   36.8590   28.2470   42.5330 C   0  0  0  0  0  0  0  0  0  0  0  0
   36.8620   29.0580   43.2570 H   0  0  0  0  0  0  0  0  0  0  0  0
   37.1880   26.9230   42.8100 C   0  0  0  0  0  3  0  0  0  0  0  0
   37.1570   25.9550   41.8270 C   0  0  0  0  0  0  0  0  0  0  0  0
   37.4890   24.6970   42.1750 N   0  0  0  0  0  0  0  0  0  0  0  0
   37.4680   23.7220   41.2320 C   0  0  0  0  0  0  0  0  0  0  0  0
   37.7220   22.6970   41.4450 H   0  0  0  0  0  0  0  0  0  0  0  0
   37.1090   24.0450   39.9390 C   0  0  0  0  0  3  0  0  0  0  0  0
   36.7600   25.3160   39.5250 C   0  0  0  0  0  3  0  0  0  0  0  0
   36.7970   26.2780   40.5360 C   0  0  0  0  0  0  0  0  0  0  0  0
   36.4740   27.5910   40.2680 C   0  0  0  0  0  3  0  0  0  0  0  0
  1  6  1  0  0  0  0
  1  7  1  0  0  0  0
  2  1  2  0  0  0  0
  3  4  2  0  0  0  0
  3  2  1  0  0  0  0
  4  5  1  0  0  0  0
  5 11  1  0  0  0  0
  5  6  2  0  0  0  0
  8  3  1  0  0  0  0
  9 10  1  0  0  0  0
 10 15  2  0  0  0  0
 10 11  1  0  0  0  0
 11 12  2  0  0  0  0
 12 13  1  0  0  0  0
 12 16  1  0  0  0  0
 13 17  1  0  0  0  0
 14 18  1  0  0  0  0
 14 13  2  0  0  0  0
 15 14  1  0  0  0  0
 19 15  1  0  0  0  0
 20  2  1  0  0  0  0
 20 21  2  0  0  0  0
 22 21  1  0  0  0  0
 22 25  1  0  0  0  0
 22 23  1  0  0  0  0
 24 22  1  0  0  0  0
 25 26  1  0  0  0  0
 26 28  2  0  0  0  0
 26 27  1  0  0  0  0
 29 30  1  0  0  0  0
 29 28  1  0  0  0  0
 31 32  1  0  0  0  0
 31 30  2  0  0  0  0
 33 31  1  0  0  0  0
 34 33  2  0  0  0  0
 34 35  1  0  0  0  0
 35 29  2  0  0  0  0
 36 35  1  0  0  0  0
 36 25  2  0  0  0  0
M  END
>  <minimizedAffinity>
-6.01774645

$$$$

 OpenBabel03252501493D

 36 39  0  0  0  0  0  0  0  0999 V2000
   40.8520   31.0650   40.6720 C   0  0  0  0  0  0  0  0  0  0  0  0
   39.7100   31.9040   40.8010 C   0  0  0  0  0  0  0  0  0  0  0  0
   39.8540   33.2790   40.6270 C   0  0  0  0  0  0  0  0  0  0  0  0
   41.0930   33.7620   40.3380 N   0  0  0  0  0  0  0  0  0  0  0  0
   42.1430   32.9470   40.2240 C   0  0  0  0  0  0  0  0  0  0  0  0
   42.0320   31.6150   40.3870 N   0  0  0  0  0  0  0  0  0  0  0  0
   40.7030   30.0010   40.8140 H   0  0  0  0  0  0  0  0  0  0  0  0
   39.0000   33.9180   40.7230 H   0  0  0  0  0  0  0  0  0  0  0  0
   43.7060   34.1070   42.2050 F   0  0  0  0  0  0  0  0  0  0  0  0
   44.2130   34.0910   40.9370 C   0  0  0  0  0  0  0  0  0  0  0  0
   43.4570   33.5160   39.9100 C   0  0  0  0  0  0  0  0  0  0  0  0
   43.9180   33.4740   38.6230 C   0  0  0  0  0  0  0  0  0  0  0  0
   45.1710   34.0250   38.3640 C   0  0  0  0  0  0  0  0  0  0  0  0
   45.9490   34.6050   39.3650 C   0  0  0  0  0  0  0  0  0  0  0  0
   45.4610   34.6370   40.6630 C   0  0  0  0  0  0  0  0  0  0  0  0
   43.3290   33.0270   37.8230 H   0  0  0  0  0  0  0  0  0  0  0  0
   45.4980   33.9740   37.3430 H   0  0  0  0  0  0  0  0  0  0  0  0
   46.9150   35.0180   39.1050 H   0  0  0  0  0  0  0  0  0  0  0  0
   46.0650   35.0890   41.4450 H   0  0  0  0  0  0  0  0  0  0  0  0
   38.4190   31.2880   41.1120 C   0  0  0  0  0  3  0  0  0  0  0  0
   37.3350   31.3700   40.3640 C   0  0  0  0  0  3  0  0  0  0  0  0
   36.0630   30.6920   40.7950 C   0  0  0  0  0  0  0  0  0  0  0  0
   35.8630   30.8040   41.8620 H   0  0  0  0  0  0  0  0  0  0  0  0
   35.2040   31.0310   40.1850 H   0  0  0  0  0  0  0  0  0  0  0  0
   36.2560   29.2280   40.5030 C   0  0  0  0  0  0  0  0  0  0  0  0
   36.1240   28.6920   39.2360 C   0  0  0  0  0  0  0  0  0  0  0  0
   35.8670   29.3940   38.4470 H   0  0  0  0  0  0  0  0  0  0  0  0
   36.3220   27.3260   39.0620 C   0  0  0  0  0  3  0  0  0  0  0  0
   36.6460   26.5060   40.1220 C   0  0  0  0  0  0  0  0  0  0  0  0
   36.8220   25.1940   39.8720 N   0  0  0  0  0  0  0  0  0  0  0  0
   37.1410   24.3610   40.8940 C   0  0  0  0  0  0  0  0  0  0  0  0
   37.2950   23.3040   40.7600 H   0  0  0  0  0  0  0  0  0  0  0  0
   37.2780   24.8800   42.1660 C   0  0  0  0  0  3  0  0  0  0  0  0
   37.1100   26.2140   42.4820 C   0  0  0  0  0  3  0  0  0  0  0  0
   36.7830   27.0240   41.3930 C   0  0  0  0  0  0  0  0  0  0  0  0
   36.5850   28.3780   41.5600 C   0  0  0  0  0  3  0  0  0  0  0  0
  1  2  1  0  0  0  0
  1  7  1  0  0  0  0
  2 20  1  0  0  0  0
  3  8  1  0  0  0  0
  3  2  2  0  0  0  0
  4  3  1  0  0  0  0
  5  4  2  0  0  0  0
  5  6  1  0  0  0  0
  6  1  2  0  0  0  0
 10  9  1  0  0  0  0
 11  5  1  0  0  0  0
 11 10  2  0  0  0  0
 12 11  1  0  0  0  0
 13 12  2  0  0  0  0
 13 14  1  0  0  0  0
 14 15  2  0  0  0  0
 15 10  1  0  0  0  0
 15 19  1  0  0  0  0
 16 12  1  0  0  0  0
 17 13  1  0  0  0  0
 18 14  1  0  0  0  0
 21 22  1  0  0  0  0
 21 20  2  0  0  0  0
 22 23  1  0  0  0  0
 24 22  1  0  0  0  0
 25 22  1  0  0  0  0
 25 36  1  0  0  0  0
 26 25  2  0  0  0  0
 27 26  1  0  0  0  0
 28 26  1  0  0  0  0
 28 29  2  0  0  0  0
 29 35  1  0  0  0  0
 30 29  1  0  0  0  0
 30 31  2  0  0  0  0
 31 33  1  0  0  0  0
 32 31  1  0  0  0  0
 33 34  2  0  0  0  0
 35 36  2  0  0  0  0
 35 34  1  0  0  0  0
M  END
>  <minimizedAffinity>
-5.85083246

$$$$

 OpenBabel03252501493D

 36 39  0  0  0  0  0  0  0  0999 V2000
   38.9270   29.6710   40.2860 C   0  0  0  0  0  0  0  0  0  0  0  0
   38.0840   30.6220   40.9250 C   0  0  0  0  0  0  0  0  0  0  0  0
   36.9030   30.1890   41.5270 C   0  0  0  0  0  0  0  0  0  0  0  0
   36.6090   28.8610   41.4750 N   0  0  0  0  0  0  0  0  0  0  0  0
   37.4220   27.9960   40.8680 C   0  0  0  0  0  0  0  0  0  0  0  0
   38.5680   28.3880   40.2790 N   0  0  0  0  0  0  0  0  0  0  0  0
   39.8360   30.0440   39.8290 H   0  0  0  0  0  0  0  0  0  0  0  0
   36.2630   30.8980   42.0090 H   0  0  0  0  0  0  0  0  0  0  0  0
   36.4400   26.8170   38.5530 F   0  0  0  0  0  0  0  0  0  0  0  0
   36.5700   26.0200   39.6540 C   0  0  0  0  0  0  0  0  0  0  0  0
   37.0610   26.5750   40.8400 C   0  0  0  0  0  0  0  0  0  0  0  0
   37.2110   25.8220   41.9720 C   0  0  0  0  0  0  0  0  0  0  0  0
   36.8570   24.4750   41.9070 C   0  0  0  0  0  0  0  0  0  0  0  0
   36.3640   23.8920   40.7400 C   0  0  0  0  0  0  0  0  0  0  0  0
   36.2210   24.6770   39.6050 C   0  0  0  0  0  0  0  0  0  0  0  0
   37.5930   26.2540   42.8960 H   0  0  0  0  0  0  0  0  0  0  0  0
   36.9870   23.9170   42.8140 H   0  0  0  0  0  0  0  0  0  0  0  0
   36.1050   22.8420   40.7490 H   0  0  0  0  0  0  0  0  0  0  0  0
   35.8370   24.2240   38.6940 H   0  0  0  0  0  0  0  0  0  0  0  0
   38.4890   32.0290   40.9280 C   0  0  0  0  0  3  0  0  0  0  0  0
   38.4780   32.8280   39.8770 C   0  0  0  0  0  3  0  0  0  0  0  0
   38.9230   34.2590   40.0080 C   0  0  0  0  0  0  0  0  0  0  0  0
   38.5340   34.8990   39.2150 H   0  0  0  0  0  0  0  0  0  0  0  0
   38.6780   34.6610   41.0100 H   0  0  0  0  0  0  0  0  0  0  0  0
   40.4240   34.2350   39.9020 C   0  0  0  0  0  0  0  0  0  0  0  0
   41.2530   34.8090   40.8480 C   0  0  0  0  0  0  0  0  0  0  0  0
   40.7550   35.2880   41.6880 H   0  0  0  0  0  0  0  0  0  0  0  0
   42.6300   34.7370   40.6660 C   0  0  0  0  0  3  0  0  0  0  0  0
   43.1770   34.1080   39.5680 C   0  0  0  0  0  0  0  0  0  0  0  0
   44.5200   34.0800   39.4630 N   0  0  0  0  0  0  0  0  0  0  0  0
   45.0890   33.4680   38.3950 C   0  0  0  0  0  0  0  0  0  0  0  0
   46.1550   33.4120   38.2530 H   0  0  0  0  0  0  0  0  0  0  0  0
   44.2770   32.8900   37.4400 C   0  0  0  0  0  3  0  0  0  0  0  0
   42.8970   32.8870   37.4940 C   0  0  0  0  0  3  0  0  0  0  0  0
   42.3660   33.5290   38.6150 C   0  0  0  0  0  0  0  0  0  0  0  0
   41.0020   33.6040   38.8000 C   0  0  0  0  0  3  0  0  0  0  0  0
  1  2  1  0  0  0  0
  2 20  1  0  0  0  0
  2  3  2  0  0  0  0
  3  8  1  0  0  0  0
  4  3  1  0  0  0  0
  5  4  2  0  0  0  0
  6  1  2  0  0  0  0
  6  5  1  0  0  0  0
  7  1  1  0  0  0  0
  9 10  1  0  0  0  0
 10 11  1  0  0  0  0
 11  5  1  0  0  0  0
 11 12  2  0  0  0  0
 12 16  1  0  0  0  0
 13 12  1  0  0  0  0
 13 17  1  0  0  0  0
 14 18  1  0  0  0  0
 14 13  2  0  0  0  0
 15 10  2  0  0  0  0
 15 14  1  0  0  0  0
 19 15  1  0  0  0  0
 21 22  1  0  0  0  0
 21 20  2  0  0  0  0
 22 24  1  0  0  0  0
 23 22  1  0  0  0  0
 25 22  1  0  0  0  0
 25 26  1  0  0  0  0
 26 27  1  0  0  0  0
 28 26  2  0  0  0  0
 29 28  1  0  0  0  0
 30 29  1  0  0  0  0
 31 30  2  0  0  0  0
 32 31  1  0  0  0  0
 33 34  2  0  0  0  0
 33 31  1  0  0  0  0
 34 35  1  0  0  0  0
 35 36  1  0  0  0  0
 35 29  2  0  0  0  0
 36 25  2  0  0  0  0
M  END
>  <minimizedAffinity>
-5.8424201

$$$$

 OpenBabel03252501493D

 36 39  0  0  0  0  0  0  0  0999 V2000
   37.4740   28.5200   39.4870 C   0  0  0  0  0  0  0  0  0  0  0  0
   37.1990   29.0730   40.7680 C   0  0  0  0  0  0  0  0  0  0  0  0
   36.9220   28.2180   41.8330 C   0  0  0  0  0  0  0  0  0  0  0  0
   36.9290   26.8770   41.5960 N   0  0  0  0  0  0  0  0  0  0  0  0
   37.1910   26.3920   40.3810 C   0  0  0  0  0  0  0  0  0  0  0  0
   37.4610   27.1960   39.3350 N   0  0  0  0  0  0  0  0  0  0  0  0
   37.6850   29.2160   38.6820 H   0  0  0  0  0  0  0  0  0  0  0  0
   36.7130   28.6260   42.8000 H   0  0  0  0  0  0  0  0  0  0  0  0
   39.3550   24.8350   41.1610 F   0  0  0  0  0  0  0  0  0  0  0  0
   38.2970   24.1920   40.5840 C   0  0  0  0  0  0  0  0  0  0  0  0
   37.1870   24.9410   40.1770 C   0  0  0  0  0  0  0  0  0  0  0  0
   36.1020   24.3460   39.5930 C   0  0  0  0  0  0  0  0  0  0  0  0
   36.1350   22.9650   39.4160 C   0  0  0  0  0  0  0  0  0  0  0  0
   37.2260   22.1910   39.8110 C   0  0  0  0  0  0  0  0  0  0  0  0
   38.3160   22.8160   40.4000 C   0  0  0  0  0  0  0  0  0  0  0  0
   35.2380   24.9290   39.2760 H   0  0  0  0  0  0  0  0  0  0  0  0
   35.2670   22.5360   38.9540 H   0  0  0  0  0  0  0  0  0  0  0  0
   37.1960   21.1220   39.6470 H   0  0  0  0  0  0  0  0  0  0  0  0
   39.1670   22.2140   40.7080 H   0  0  0  0  0  0  0  0  0  0  0  0
   37.2170   30.5300   40.9220 C   0  0  0  0  0  3  0  0  0  0  0  0
   37.3440   31.3980   39.9370 C   0  0  0  0  0  3  0  0  0  0  0  0
   37.3510   32.8750   40.2250 C   0  0  0  0  0  0  0  0  0  0  0  0
   36.5910   33.4210   39.6650 H   0  0  0  0  0  0  0  0  0  0  0  0
   37.2700   33.0680   41.3120 H   0  0  0  0  0  0  0  0  0  0  0  0
   38.7040   33.3730   39.7920 C   0  0  0  0  0  0  0  0  0  0  0  0
   39.2460   34.5610   40.2450 C   0  0  0  0  0  0  0  0  0  0  0  0
   38.6340   35.1280   40.9420 H   0  0  0  0  0  0  0  0  0  0  0  0
   40.5050   34.9410   39.7900 C   0  0  0  0  0  3  0  0  0  0  0  0
   41.2140   34.1570   38.9030 C   0  0  0  0  0  0  0  0  0  0  0  0
   42.4260   34.5940   38.5090 N   0  0  0  0  0  0  0  0  0  0  0  0
   43.1480   33.8460   37.6370 C   0  0  0  0  0  0  0  0  0  0  0  0
   44.1230   34.1390   37.2850 H   0  0  0  0  0  0  0  0  0  0  0  0
   42.6220   32.6570   37.1750 C   0  0  0  0  0  3  0  0  0  0  0  0
   41.3870   32.1600   37.5430 C   0  0  0  0  0  3  0  0  0  0  0  0
   40.6890   32.9690   38.4410 C   0  0  0  0  0  0  0  0  0  0  0  0
   39.4410   32.5990   38.8950 C   0  0  0  0  0  3  0  0  0  0  0  0
  1  2  1  0  0  0  0
  2 20  1  0  0  0  0
  2  3  2  0  0  0  0
  3  8  1  0  0  0  0
  4  3  1  0  0  0  0
  5  4  2  0  0  0  0
  6  1  2  0  0  0  0
  6  5  1  0  0  0  0
  7  1  1  0  0  0  0
 10  9  1  0  0  0  0
 11  5  1  0  0  0  0
 11 10  2  0  0  0  0
 12 11  1  0  0  0  0
 13 12  2  0  0  0  0
 13 14  1  0  0  0  0
 14 15  2  0  0  0  0
 15 10  1  0  0  0  0
 15 19  1  0  0  0  0
 16 12  1  0  0  0  0
 17 13  1  0  0  0  0
 18 14  1  0  0  0  0
 21 22  1  0  0  0  0
 21 20  2  0  0  0  0
 22 24  1  0  0  0  0
 23 22  1  0  0  0  0
 25 22  1  0  0  0  0
 25 26  1  0  0  0  0
 26 27  1  0  0  0  0
 28 26  2  0  0  0  0
 29 28  1  0  0  0  0
 30 29  1  0  0  0  0
 31 30  2  0  0  0  0
 32 31  1  0  0  0  0
 33 34  2  0  0  0  0
 33 31  1  0  0  0  0
 34 35  1  0  0  0  0
 35 36  1  0  0  0  0
 35 29  2  0  0  0  0
 36 25  2  0  0  0  0
M  END
>  <minimizedAffinity>
-5.799788

$$$$
