
 OpenBabel03252504513D

 37 40  0  0  0  0  0  0  0  0999 V2000
   46.9940   34.5160   42.8350 C   0  0  0  0  0  0  0  0  0  0  0  0
   48.0710   33.9700   42.1200 C   0  0  0  0  0  0  0  0  0  0  0  0
   48.6510   32.8190   42.6340 C   0  0  0  0  0  0  0  0  0  0  0  0
   48.1360   32.3080   43.7870 N   0  0  0  0  0  0  0  0  0  0  0  0
   47.1110   32.8470   44.4460 C   0  0  0  0  0  0  0  0  0  0  0  0
   46.5220   33.9700   43.9710 N   0  0  0  0  0  0  0  0  0  0  0  0
   46.4680   35.4030   42.5310 H   0  0  0  0  0  0  0  0  0  0  0  0
   49.4770   32.3700   42.1180 H   0  0  0  0  0  0  0  0  0  0  0  0
   45.5740   30.2350   44.0670 Cl  0  0  0  0  0  0  0  0  0  0  0  0
   45.9070   31.0500   45.6050 C   0  0  0  0  0  0  0  0  0  0  0  0
   46.6180   32.2410   45.6730 C   0  0  0  0  0  0  0  0  0  0  0  0
   46.8590   32.8450   46.8810 C   0  0  0  0  0  0  0  0  0  0  0  0
   46.3820   32.2530   48.0430 C   0  0  0  0  0  0  0  0  0  0  0  0
   45.6810   31.0720   47.9340 C   0  0  0  0  0  0  0  0  0  0  0  0
   45.1020   30.3680   49.4260 Cl  0  0  0  0  0  0  0  0  0  0  0  0
   45.4200   30.4370   46.7440 C   0  0  0  0  0  0  0  0  0  0  0  0
   47.4150   33.7780   46.9450 H   0  0  0  0  0  0  0  0  0  0  0  0
   46.5650   32.7210   49.0030 H   0  0  0  0  0  0  0  0  0  0  0  0
   44.8620   29.5110   46.7460 H   0  0  0  0  0  0  0  0  0  0  0  0
   48.4980   34.6330   40.9140 C   0  0  0  0  0  0  0  0  0  0  0  0
   49.5450   34.3530   40.6810 H   0  0  0  0  0  0  0  0  0  0  0  0
   48.4990   35.7290   41.0320 H   0  0  0  0  0  0  0  0  0  0  0  0
   47.5450   34.3150   39.7980 C   0  0  0  0  0  0  0  0  0  0  0  0
   46.6090   33.9360   40.2940 H   0  0  0  0  0  0  0  0  0  0  0  0
   47.2270   35.2900   39.3460 H   0  0  0  0  0  0  0  0  0  0  0  0
   48.0550   33.3700   38.7990 C   0  0  0  0  0  0  0  0  0  0  0  0
   49.2000   32.6160   38.9540 C   0  0  0  0  0  0  0  0  0  0  0  0
   49.7750   32.7150   39.8660 H   0  0  0  0  0  0  0  0  0  0  0  0
   49.5550   31.7630   37.9170 C   0  0  0  0  0  3  0  0  0  0  0  0
   48.7770   31.6730   36.7580 C   0  0  0  0  0  0  0  0  0  0  0  0
   49.1230   30.8460   35.7550 N   0  0  0  0  0  0  0  0  0  0  0  0
   48.3950   30.7370   34.6270 C   0  0  0  0  0  0  0  0  0  0  0  0
   48.6110   30.1030   33.7970 H   0  0  0  0  0  0  0  0  0  0  0  0
   47.2560   31.4920   34.4850 C   0  0  0  0  0  3  0  0  0  0  0  0
   46.8430   32.3650   35.4790 C   0  0  0  0  0  3  0  0  0  0  0  0
   47.6370   32.4330   36.6220 C   0  0  0  0  0  0  0  0  0  0  0  0
   47.2680   33.2910   37.6480 C   0  0  0  0  0  3  0  0  0  0  0  0
  1  6  1  0  0  0  0
  2  3  1  0  0  0  0
  2  1  2  0  0  0  0
  3  4  2  0  0  0  0
  4  5  1  0  0  0  0
  5 11  1  0  0  0  0
  6  5  2  0  0  0  0
  7  1  1  0  0  0  0
  8  3  1  0  0  0  0
  9 10  1  0  0  0  0
 10 11  2  0  0  0  0
 10 16  1  0  0  0  0
 11 12  1  0  0  0  0
 12 17  1  0  0  0  0
 12 13  2  0  0  0  0
 13 18  1  0  0  0  0
 14 13  1  0  0  0  0
 14 15  1  0  0  0  0
 16 19  1  0  0  0  0
 16 14  2  0  0  0  0
 20 22  1  0  0  0  0
 20  2  1  0  0  0  0
 21 20  1  0  0  0  0
 23 24  1  0  0  0  0
 23 20  1  0  0  0  0
 25 23  1  0  0  0  0
 26 27  1  0  0  0  0
 26 23  1  0  0  0  0
 27 28  1  0  0  0  0
 29 27  2  0  0  0  0
 30 29  1  0  0  0  0
 31 30  2  0  0  0  0
 32 31  1  0  0  0  0
 33 32  1  0  0  0  0
 34 32  2  0  0  0  0
 34 35  1  0  0  0  0
 35 36  2  0  0  0  0
 36 30  1  0  0  0  0
 36 37  1  0  0  0  0
 37 26  2  0  0  0  0
M  END
>  <minimizedAffinity>
-5.16343784

>  <minimizedRMSD>
1.68223715

$$$$
