
 OpenBabel03252504513D

 37 40  0  0  0  0  0  0  0  0999 V2000
   47.0480   34.5540   42.8610 C   0  0  0  0  0  0  0  0  0  0  0  0
   48.1640   34.0440   42.1790 C   0  0  0  0  0  0  0  0  0  0  0  0
   48.7510   32.8990   42.6970 C   0  0  0  0  0  0  0  0  0  0  0  0
   48.2060   32.3580   43.8230 N   0  0  0  0  0  0  0  0  0  0  0  0
   47.1440   32.8640   44.4510 C   0  0  0  0  0  0  0  0  0  0  0  0
   46.5480   33.9800   43.9710 N   0  0  0  0  0  0  0  0  0  0  0  0
   46.5130   35.4330   42.5510 H   0  0  0  0  0  0  0  0  0  0  0  0
   49.6060   32.4770   42.2060 H   0  0  0  0  0  0  0  0  0  0  0  0
   45.6490   30.2440   43.9720 Cl  0  0  0  0  0  0  0  0  0  0  0  0
   45.9260   31.0300   45.5360 C   0  0  0  0  0  0  0  0  0  0  0  0
   46.6210   32.2270   45.6500 C   0  0  0  0  0  0  0  0  0  0  0  0
   46.8180   32.8090   46.8760 C   0  0  0  0  0  0  0  0  0  0  0  0
   46.3130   32.1890   48.0110 C   0  0  0  0  0  0  0  0  0  0  0  0
   45.6290   31.0030   47.8570 C   0  0  0  0  0  0  0  0  0  0  0  0
   45.0120   30.2620   49.3160 Cl  0  0  0  0  0  0  0  0  0  0  0  0
   45.4110   30.3890   46.6460 C   0  0  0  0  0  0  0  0  0  0  0  0
   47.3620   33.7460   46.9760 H   0  0  0  0  0  0  0  0  0  0  0  0
   46.4610   32.6380   48.9860 H   0  0  0  0  0  0  0  0  0  0  0  0
   44.8630   29.4580   46.6140 H   0  0  0  0  0  0  0  0  0  0  0  0
   48.6190   34.7350   40.9990 C   0  0  0  0  0  0  0  0  0  0  0  0
   49.6580   34.4310   40.7630 H   0  0  0  0  0  0  0  0  0  0  0  0
   48.6530   35.8260   41.1560 H   0  0  0  0  0  0  0  0  0  0  0  0
   47.6650   34.4850   39.8670 C   0  0  0  0  0  0  0  0  0  0  0  0
   46.6350   34.6280   40.2980 H   0  0  0  0  0  0  0  0  0  0  0  0
   47.7700   35.3410   39.1510 H   0  0  0  0  0  0  0  0  0  0  0  0
   47.8080   33.1810   39.2130 C   0  0  0  0  0  0  0  0  0  0  0  0
   49.0180   32.5890   38.9140 C   0  0  0  0  0  0  0  0  0  0  0  0
   49.9330   33.1060   39.1710 H   0  0  0  0  0  0  0  0  0  0  0  0
   48.9910   31.3470   38.2910 C   0  0  0  0  0  3  0  0  0  0  0  0
   47.7780   30.7210   37.9800 C   0  0  0  0  0  0  0  0  0  0  0  0
   47.7550   29.5180   37.3780 N   0  0  0  0  0  0  0  0  0  0  0  0
   46.6060   28.8920   37.0670 C   0  0  0  0  0  0  0  0  0  0  0  0
   46.5160   27.9410   36.5910 H   0  0  0  0  0  0  0  0  0  0  0  0
   45.4070   29.4920   37.3700 C   0  0  0  0  0  3  0  0  0  0  0  0
   45.3580   30.7290   37.9900 C   0  0  0  0  0  3  0  0  0  0  0  0
   46.5830   31.3280   38.2880 C   0  0  0  0  0  0  0  0  0  0  0  0
   46.5900   32.5690   38.9090 C   0  0  0  0  0  3  0  0  0  0  0  0
  1  6  1  0  0  0  0
  2  3  1  0  0  0  0
  2  1  2  0  0  0  0
  3  4  2  0  0  0  0
  4  5  1  0  0  0  0
  5 11  1  0  0  0  0
  6  5  2  0  0  0  0
  7  1  1  0  0  0  0
  8  3  1  0  0  0  0
  9 10  1  0  0  0  0
 10 11  2  0  0  0  0
 10 16  1  0  0  0  0
 11 12  1  0  0  0  0
 12 17  1  0  0  0  0
 12 13  2  0  0  0  0
 13 18  1  0  0  0  0
 14 13  1  0  0  0  0
 14 15  1  0  0  0  0
 16 14  2  0  0  0  0
 19 16  1  0  0  0  0
 20 22  1  0  0  0  0
 20  2  1  0  0  0  0
 21 20  1  0  0  0  0
 23 24  1  0  0  0  0
 23 20  1  0  0  0  0
 25 23  1  0  0  0  0
 26 23  1  0  0  0  0
 27 28  1  0  0  0  0
 27 26  1  0  0  0  0
 29 27  2  0  0  0  0
 30 36  1  0  0  0  0
 30 29  1  0  0  0  0
 31 30  2  0  0  0  0
 32 34  2  0  0  0  0
 32 31  1  0  0  0  0
 33 32  1  0  0  0  0
 34 35  1  0  0  0  0
 35 36  2  0  0  0  0
 36 37  1  0  0  0  0
 37 26  2  0  0  0  0
M  END
>  <minimizedAffinity>
-4.60810089

>  <minimizedRMSD>
1.40330613

$$$$
