
 OpenBabel03252509053D

 51 54  0  0  1  0  0  0  0  0999 V2000
   47.0600   34.3360   43.2360 N   0  0  0  0  0  0  0  0  0  0  0  0
   46.6980   34.8570   41.9700 C   0  0  0  0  0  0  0  0  0  0  0  0
   45.2600   34.5930   41.5640 C   0  0  0  0  0  0  0  0  0  0  0  0
   44.2820   34.5930   42.7130 C   0  0  0  0  0  0  0  0  0  0  0  0
   44.9580   34.9420   44.0260 C   0  0  0  0  0  0  0  0  0  0  0  0
   46.1120   33.8780   44.1220 C   0  0  2  0  0  0  0  0  0  0  0  0
   46.7890   35.9770   42.0210 H   0  0  0  0  0  0  0  0  0  0  0  0
   47.3120   34.5590   41.1170 H   0  0  0  0  0  0  0  0  0  0  0  0
   44.9660   35.2780   40.7550 H   0  0  0  0  0  0  0  0  0  0  0  0
   45.2370   33.5590   41.1450 H   0  0  0  0  0  0  0  0  0  0  0  0
   43.5370   35.3940   42.5260 H   0  0  0  0  0  0  0  0  0  0  0  0
   43.7480   33.6360   42.8460 H   0  0  0  0  0  0  0  0  0  0  0  0
   44.2560   34.7440   44.8480 H   0  0  0  0  0  0  0  0  0  0  0  0
   45.4140   35.9350   44.0080 H   0  0  0  0  0  0  0  0  0  0  0  0
   45.6170   32.9090   43.9140 H   0  0  0  0  0  0  0  0  0  0  0  0
   48.3910   33.7800   43.2910 C   0  0  0  0  0  0  0  0  0  0  0  0
   49.0050   34.3590   42.5560 H   0  0  0  0  0  0  0  0  0  0  0  0
   48.8210   33.9070   44.3000 H   0  0  0  0  0  0  0  0  0  0  0  0
   48.3200   32.3510   42.8810 C   0  0  0  0  0  0  0  0  0  0  0  0
   47.3160   32.0810   42.4830 H   0  0  0  0  0  0  0  0  0  0  0  0
   48.5130   31.6520   43.7180 H   0  0  0  0  0  0  0  0  0  0  0  0
   51.5550   31.8820   41.0300 C   0  0  0  0  0  0  0  0  0  0  0  0
   50.6280   32.1160   42.0620 C   0  0  0  0  0  0  0  0  0  0  0  0
   49.2900   32.1030   41.7800 C   0  0  0  0  0  0  0  0  0  0  0  0
   48.9300   31.8670   40.5200 N   0  0  0  0  0  0  0  0  0  0  0  0
   49.7960   31.6450   39.5290 C   0  0  0  0  0  0  0  0  0  0  0  0
   51.1280   31.6490   39.7700 N   0  0  0  0  0  0  0  0  0  0  0  0
   52.6090   31.8840   41.2170 H   0  0  0  0  0  0  0  0  0  0  0  0
   51.0410   32.2910   43.0310 H   0  0  0  0  0  0  0  0  0  0  0  0
   49.2900   31.4770   38.5890 H   0  0  0  0  0  0  0  0  0  0  0  0
   46.5010   34.0130   45.4440 O   0  0  0  0  0  0  0  0  0  0  0  0
   45.8890   31.4210   45.4600 O   0  0  0  0  0  0  0  0  0  0  0  0
   46.2760   32.6240   46.3440 P   0  0  2  0  0  0  0  0  0  0  0  0
   44.8730   32.8810   47.3070 O   0  0  0  0  0  0  0  0  0  0  0  0
   45.1880   33.2610   48.1720 H   0  0  0  0  0  0  0  0  0  0  0  0
   47.5270   32.2610   47.3610 O   0  0  0  0  0  0  0  0  0  0  0  0
   47.8230   30.8970   47.2690 C   0  0  0  0  0  0  0  0  0  0  0  0
   46.9470   30.2440   47.2700 H   0  0  0  0  0  0  0  0  0  0  0  0
   48.4120   30.7060   46.3300 H   0  0  0  0  0  0  0  0  0  0  0  0
   48.7120   30.6100   48.4320 C   0  0  0  0  0  0  0  0  0  0  0  0
   49.1870   31.5290   49.3450 C   0  0  0  0  0  0  0  0  0  0  0  0
   48.8760   32.5540   49.1890 H   0  0  0  0  0  0  0  0  0  0  0  0
   50.0060   31.1210   50.3790 C   0  0  0  0  0  3  0  0  0  0  0  0
   50.3330   29.7840   50.4730 C   0  0  0  0  0  0  0  0  0  0  0  0
   51.1180   29.3320   51.4480 N   0  0  0  0  0  0  0  0  0  0  0  0
   51.4730   28.0420   51.5920 C   0  0  0  0  0  0  0  0  0  0  0  0
   52.1090   27.6560   52.3760 H   0  0  0  0  0  0  0  0  0  0  0  0
   51.0200   27.0850   50.7000 C   0  0  0  0  0  3  0  0  0  0  0  0
   50.2040   27.4880   49.6700 C   0  0  0  0  0  3  0  0  0  0  0  0
   49.8860   28.8280   49.5870 C   0  0  0  0  0  0  0  0  0  0  0  0
   49.0580   29.2590   48.5500 C   0  0  0  0  0  3  0  0  0  0  0  0
  1 16  1  0  0  0  0
  1  6  1  0  0  0  0
  2  7  1  0  0  0  0
  2  1  1  0  0  0  0
  3  2  1  0  0  0  0
  3  4  1  0  0  0  0
  4 12  1  0  0  0  0
  4  5  1  0  0  0  0
  5  6  1  0  0  0  0
  5 13  1  0  0  0  0
  6 15  1  6  0  0  0
  6 31  1  0  0  0  0
  8  2  1  0  0  0  0
  9  3  1  0  0  0  0
 10  3  1  0  0  0  0
 11  4  1  0  0  0  0
 14  5  1  0  0  0  0
 16 18  1  0  0  0  0
 17 16  1  0  0  0  0
 19 16  1  0  0  0  0
 19 21  1  0  0  0  0
 20 19  1  0  0  0  0
 22 28  1  0  0  0  0
 22 23  1  0  0  0  0
 23 29  1  0  0  0  0
 24 23  2  0  0  0  0
 24 19  1  0  0  0  0
 25 24  1  0  0  0  0
 26 27  1  0  0  0  0
 26 25  2  0  0  0  0
 27 22  2  0  0  0  0
 30 26  1  0  0  0  0
 31 33  1  0  0  0  0
 33 32  2  6  0  0  0
 33 34  1  0  0  0  0
 33 36  1  0  0  0  0
 34 35  1  0  0  0  0
 37 38  1  0  0  0  0
 37 36  1  0  0  0  0
 37 40  1  0  0  0  0
 39 37  1  0  0  0  0
 40 51  2  0  0  0  0
 40 41  1  0  0  0  0
 41 43  2  0  0  0  0
 42 41  1  0  0  0  0
 43 44  1  0  0  0  0
 44 45  1  0  0  0  0
 45 46  2  0  0  0  0
 46 47  1  0  0  0  0
 48 46  1  0  0  0  0
 49 48  2  0  0  0  0
 50 49  1  0  0  0  0
 50 44  2  0  0  0  0
 51 50  1  0  0  0  0
M  END
>  <minimizedAffinity>
-5.5853653

>  <minimizedRMSD>
3.05783391

$$$$
