
 OpenBabel03242513383D

 37 41  0  0  0  0  0  0  0  0999 V2000
   47.8140   31.3300   46.3510 C   0  0  0  0  0  0  0  0  0  0  0  0
   46.9640   32.2030   45.7110 C   0  0  0  0  0  0  0  0  0  0  0  0
   45.7880   32.5390   46.3440 C   0  0  0  0  0  0  0  0  0  0  0  0
   45.4340   32.0430   47.5770 C   0  0  0  0  0  0  0  0  0  0  0  0
   44.4010   32.1650   48.4350 N   0  0  0  0  0  0  0  0  0  0  0  0
   44.6160   31.4070   49.5350 C   0  0  0  0  0  0  0  0  0  0  0  0
   45.8130   30.8000   49.3530 N   0  0  0  0  0  0  0  0  0  0  0  0
   46.3200   31.1770   48.1680 C   0  0  0  0  0  0  0  0  0  0  0  0
   47.5000   30.8050   47.5930 C   0  0  0  0  0  0  0  0  0  0  0  0
   48.7550   31.0540   45.8550 H   0  0  0  0  0  0  0  0  0  0  0  0
   45.1230   33.2160   45.8530 H   0  0  0  0  0  0  0  0  0  0  0  0
   43.5790   32.7620   48.2470 H   0  0  0  0  0  0  0  0  0  0  0  0
   43.9100   31.3450   50.3750 H   0  0  0  0  0  0  0  0  0  0  0  0
   48.4510   29.8840   48.2140 C   0  0  0  0  0  0  0  0  0  0  0  0
   48.7830   28.6180   47.7590 C   0  0  0  0  0  0  0  0  0  0  0  0
   48.2770   28.2970   46.8530 H   0  0  0  0  0  0  0  0  0  0  0  0
   49.7080   27.8660   48.4670 C   0  0  0  0  0  0  0  0  0  0  0  0
   50.2940   28.3690   49.6110 C   0  0  0  0  0  0  0  0  0  0  0  0
   51.1880   27.6210   50.2820 N   0  0  0  0  0  0  0  0  0  0  0  0
   51.8040   28.0570   51.4170 C   0  0  0  0  0  0  0  0  0  0  0  0
   52.5190   27.4450   51.9420 H   0  0  0  0  0  0  0  0  0  0  0  0
   51.4630   29.3260   51.8610 C   0  0  0  0  0  0  0  0  0  0  0  0
   50.5600   30.1550   51.2360 C   0  0  0  0  0  0  0  0  0  0  0  0
   49.9870   29.6270   50.0930 C   0  0  0  0  0  0  0  0  0  0  0  0
   49.0620   30.3660   49.3770 C   0  0  0  0  0  0  0  0  0  0  0  0
   47.1810   34.4450   42.8220 C   0  0  0  0  0  0  0  0  0  0  0  0
   47.9750   33.7240   41.9230 C   0  0  0  0  0  0  0  0  0  0  0  0
   48.4210   32.4680   42.3420 C   0  0  0  0  0  0  0  0  0  0  0  0
   48.0760   32.0050   43.5730 N   0  0  0  0  0  0  0  0  0  0  0  0
   47.3020   32.7520   44.4020 C   0  0  0  0  0  0  0  0  0  0  0  0
   46.8550   33.9540   44.0430 N   0  0  0  0  0  0  0  0  0  0  0  0
   46.8200   35.4200   42.5270 H   0  0  0  0  0  0  0  0  0  0  0  0
   49.0280   31.9170   41.6520 H   0  0  0  0  0  0  0  0  0  0  0  0
   48.2760   34.3440   40.6140 C   0  0  0  0  0  0  0  0  0  0  0  0
   48.8890   35.5530   40.9100 F   0  0  0  0  0  0  0  0  0  0  0  0
   47.0850   34.5630   39.9620 F   0  0  0  0  0  0  0  0  0  0  0  0
   49.0750   33.4740   39.8980 F   0  0  0  0  0  0  0  0  0  0  0  0
  1  9  1  0  0  0  0
  2  3  1  0  0  0  0
  2  1  2  0  0  0  0
  3  4  2  0  0  0  0
  4  8  1  0  0  0  0
  4  5  1  0  0  0  0
  5  6  1  0  0  0  0
  6 13  1  0  0  0  0
  7  6  2  0  0  0  0
  8  7  1  0  0  0  0
  9  8  2  0  0  0  0
  9 14  1  0  0  0  0
 10  1  1  0  0  0  0
 11  3  1  0  0  0  0
 12  5  1  0  0  0  0
 14 25  1  0  0  0  0
 15 14  2  0  0  0  0
 15 17  1  0  0  0  0
 16 15  1  0  0  0  0
 17 18  2  0  0  0  0
 18 24  1  0  0  0  0
 18 19  1  0  0  0  0
 19 20  2  0  0  0  0
 20 22  1  0  0  0  0
 20 21  1  0  0  0  0
 23 22  2  0  0  0  0
 24 23  1  0  0  0  0
 25 24  2  0  0  0  0
 26 31  1  0  0  0  0
 27 28  1  0  0  0  0
 27 26  2  0  0  0  0
 28 29  2  0  0  0  0
 29 30  1  0  0  0  0
 30  2  1  0  0  0  0
 31 30  2  0  0  0  0
 32 26  1  0  0  0  0
 33 28  1  0  0  0  0
 34 35  1  0  0  0  0
 34 27  1  0  0  0  0
 36 34  1  0  0  0  0
 37 34  1  0  0  0  0
M  END
>  <minimizedAffinity>
-6.63435793

>  <minimizedRMSD>
1.4389534

$$$$
