
 OpenBabel03252507223D

 50 54  0  0  1  0  0  0  0  0999 V2000
   47.5850   33.6300   42.9080 C   0  0  0  0  0  0  0  0  0  0  0  0
   48.6840   33.7090   43.5310 O   0  0  0  0  0  0  0  0  0  0  0  0
   47.3520   32.8300   41.7310 N   0  0  0  0  0  0  0  0  0  0  0  0
   46.2490   31.9690   41.3680 C   0  0  0  0  0  0  0  0  0  0  0  0
   45.7680   32.3630   39.9640 C   0  0  0  0  0  0  0  0  0  0  0  0
   46.8470   32.1310   38.9560 C   0  0  0  0  0  0  0  0  0  0  0  0
   48.1660   31.9250   39.6560 C   0  0  0  0  0  0  0  0  0  0  0  0
   48.4150   32.9400   40.7530 C   0  0  2  0  0  0  0  0  0  0  0  0
   46.4760   30.9010   41.3760 H   0  0  0  0  0  0  0  0  0  0  0  0
   45.3600   32.1690   42.0290 H   0  0  0  0  0  0  0  0  0  0  0  0
   44.9290   31.7030   39.7350 H   0  0  0  0  0  0  0  0  0  0  0  0
   45.4730   33.4380   40.0170 H   0  0  0  0  0  0  0  0  0  0  0  0
   46.6480   31.2120   38.3620 H   0  0  0  0  0  0  0  0  0  0  0  0
   46.9260   33.0400   38.3080 H   0  0  0  0  0  0  0  0  0  0  0  0
   48.9980   32.0780   38.9150 H   0  0  0  0  0  0  0  0  0  0  0  0
   48.2610   30.8930   40.0310 H   0  0  0  0  0  0  0  0  0  0  0  0
   48.3390   33.9390   40.2900 H   0  0  0  0  0  0  0  0  0  0  0  0
   46.0820   35.5680   42.7130 C   0  0  0  0  0  0  0  0  0  0  0  0
   46.4790   34.4140   43.4320 C   0  0  0  0  0  0  0  0  0  0  0  0
   45.8140   34.0750   44.5880 C   0  0  0  0  0  0  0  0  0  0  0  0
   44.7990   34.8670   44.9930 N   0  0  0  0  0  0  0  0  0  0  0  0
   44.4070   35.9800   44.3100 C   0  0  0  0  0  0  0  0  0  0  0  0
   45.0590   36.3020   43.1860 N   0  0  0  0  0  0  0  0  0  0  0  0
   46.6100   35.8220   41.8110 H   0  0  0  0  0  0  0  0  0  0  0  0
   43.5920   36.5700   44.6810 H   0  0  0  0  0  0  0  0  0  0  0  0
   46.2380   32.8930   45.3050 C   0  0  0  0  0  0  0  0  0  0  0  0
   45.9400   31.6590   44.8200 C   0  0  0  0  0  0  0  0  0  0  0  0
   46.3580   30.5500   45.5250 C   0  0  0  0  0  0  0  0  0  0  0  0
   47.0720   30.6360   46.7130 C   0  0  0  0  0  0  0  0  0  0  0  0
   47.3470   31.9240   47.1600 C   0  0  0  0  0  0  0  0  0  0  0  0
   46.9270   32.9760   46.4520 N   0  0  0  0  0  0  0  0  0  0  0  0
   45.3970   31.4620   43.9190 H   0  0  0  0  0  0  0  0  0  0  0  0
   46.1640   29.5180   45.2130 H   0  0  0  0  0  0  0  0  0  0  0  0
   47.4130   29.7990   47.2880 H   0  0  0  0  0  0  0  0  0  0  0  0
   47.9000   32.0400   48.0790 H   0  0  0  0  0  0  0  0  0  0  0  0
   49.7890   32.7410   41.2570 C   0  0  0  0  0  0  0  0  0  0  0  0
   50.1140   33.4690   42.0400 H   0  0  0  0  0  0  0  0  0  0  0  0
   50.3960   33.1430   40.4020 H   0  0  0  0  0  0  0  0  0  0  0  0
   50.2610   31.3830   41.4860 C   0  0  0  0  0  0  0  0  0  0  0  0
   51.0540   30.4860   40.8160 C   0  0  0  0  0  0  0  0  0  0  0  0
   51.4420   30.7960   39.8850 H   0  0  0  0  0  0  0  0  0  0  0  0
   51.4000   29.2200   41.2080 C   0  0  0  0  0  3  0  0  0  0  0  0
   50.9440   28.7210   42.3880 C   0  0  0  0  0  0  0  0  0  0  0  0
   51.2750   27.4900   42.7770 N   0  0  0  0  0  0  0  0  0  0  0  0
   50.8640   26.9280   43.9280 C   0  0  0  0  0  0  0  0  0  0  0  0
   51.1150   25.9330   44.2720 H   0  0  0  0  0  0  0  0  0  0  0  0
   50.0530   27.7360   44.6970 C   0  0  0  0  0  3  0  0  0  0  0  0
   49.6710   29.0190   44.3530 C   0  0  0  0  0  3  0  0  0  0  0  0
   50.1460   29.5020   43.1560 C   0  0  0  0  0  0  0  0  0  0  0  0
   49.8360   30.7760   42.6930 C   0  0  0  0  0  3  0  0  0  0  0  0
  1 19  1  0  0  0  0
  1  2  2  0  0  0  0
  3  1  1  0  0  0  0
  4  9  1  0  0  0  0
  4  3  1  0  0  0  0
  4 10  1  0  0  0  0
  5 12  1  0  0  0  0
  5  4  1  0  0  0  0
  6  7  1  0  0  0  0
  6  5  1  0  0  0  0
  7 16  1  0  0  0  0
  7  8  1  0  0  0  0
  8 17  1  6  0  0  0
  8 36  1  0  0  0  0
  8  3  1  0  0  0  0
 11  5  1  0  0  0  0
 13  6  1  0  0  0  0
 14  6  1  0  0  0  0
 15  7  1  0  0  0  0
 18 23  2  0  0  0  0
 18 19  1  0  0  0  0
 19 20  2  0  0  0  0
 20 21  1  0  0  0  0
 20 26  1  0  0  0  0
 22 25  1  0  0  0  0
 22 21  2  0  0  0  0
 23 22  1  0  0  0  0
 24 18  1  0  0  0  0
 26 31  1  0  0  0  0
 27 26  2  0  0  0  0
 27 28  1  0  0  0  0
 28 29  2  0  0  0  0
 29 30  1  0  0  0  0
 29 34  1  0  0  0  0
 30 35  1  0  0  0  0
 31 30  2  0  0  0  0
 32 27  1  0  0  0  0
 33 28  1  0  0  0  0
 36 39  1  0  0  0  0
 36 37  1  0  0  0  0
 38 36  1  0  0  0  0
 39 50  1  0  0  0  0
 40 42  1  0  0  0  0
 40 39  2  0  0  0  0
 41 40  1  0  0  0  0
 42 43  2  0  0  0  0
 43 44  1  0  0  0  0
 43 49  1  0  0  0  0
 44 45  2  0  0  0  0
 45 46  1  0  0  0  0
 45 47  1  0  0  0  0
 48 47  2  0  0  0  0
 49 48  1  0  0  0  0
 50 49  2  0  0  0  0
M  END
>  <minimizedAffinity>
-4.98585749

>  <minimizedRMSD>
1.52136862

$$$$
