
 OpenBabel03252505223D

 31 34  0  0  0  0  0  0  0  0999 V2000
   44.3930   32.4190   43.4910 F   0  0  0  0  0  0  0  0  0  0  0  0
   45.3390   33.2820   43.0570 C   0  0  0  0  0  0  0  0  0  0  0  0
   44.9820   34.2290   42.1200 C   0  0  0  0  0  0  0  0  0  0  0  0
   45.9380   35.1050   41.6760 C   0  0  0  0  0  0  0  0  0  0  0  0
   47.2300   35.0390   42.1550 C   0  0  0  0  0  0  0  0  0  0  0  0
   47.5990   34.1060   43.0830 C   0  0  0  0  0  0  0  0  0  0  0  0
   46.6170   33.2060   43.5390 C   0  0  0  0  0  0  0  0  0  0  0  0
   45.6470   35.8440   40.9410 H   0  0  0  0  0  0  0  0  0  0  0  0
   47.9720   35.7390   41.7940 H   0  0  0  0  0  0  0  0  0  0  0  0
   48.6230   34.0670   43.4530 H   0  0  0  0  0  0  0  0  0  0  0  0
   47.0440   32.2410   44.5140 C   0  0  0  0  0  0  0  0  0  0  0  0
   47.5320   30.9840   44.2210 C   0  0  0  0  0  0  0  0  0  0  0  0
   47.5840   30.7370   43.1500 H   0  0  0  0  0  0  0  0  0  0  0  0
   47.9330   30.0880   45.2060 C   0  0  0  0  0  3  0  0  0  0  0  0
   47.8380   30.4690   46.5290 C   0  0  0  0  0  0  0  0  0  0  0  0
   48.2210   29.6160   47.5100 N   0  0  0  0  0  0  0  0  0  0  0  0
   48.1210   30.0080   48.7940 C   0  0  0  0  0  0  0  0  0  0  0  0
   48.4230   29.3380   49.5910 H   0  0  0  0  0  0  0  0  0  0  0  0
   47.6410   31.2510   49.1940 C   0  0  0  0  0  3  0  0  0  0  0  0
   47.2480   32.1280   48.2020 C   0  0  0  0  0  3  0  0  0  0  0  0
   47.3560   31.7150   46.8890 C   0  0  0  0  0  0  0  0  0  0  0  0
   46.9700   32.5710   45.8640 C   0  0  0  0  0  3  0  0  0  0  0  0
   41.5540   35.3600   41.5520 C   0  0  0  0  0  0  0  0  0  0  0  0
   41.0330   34.3840   40.6650 C   0  0  0  0  0  0  0  0  0  0  0  0
   41.8900   33.3520   40.2830 C   0  0  0  0  0  0  0  0  0  0  0  0
   43.1680   33.3440   40.7840 N   0  0  0  0  0  0  0  0  0  0  0  0
   43.6180   34.2880   41.6210 C   0  0  0  0  0  0  0  0  0  0  0  0
   42.8120   35.2910   42.0030 N   0  0  0  0  0  0  0  0  0  0  0  0
   40.8570   36.1440   41.8230 H   0  0  0  0  0  0  0  0  0  0  0  0
   40.0370   34.3840   40.2690 H   0  0  0  0  0  0  0  0  0  0  0  0
   41.6330   32.5460   39.6200 H   0  0  0  0  0  0  0  0  0  0  0  0
  2  1  1  0  0  0  0
  2  7  1  0  0  0  0
  3  2  2  0  0  0  0
  4  3  1  0  0  0  0
  4  5  2  0  0  0  0
  5  6  1  0  0  0  0
  6 10  1  0  0  0  0
  6  7  2  0  0  0  0
  7 11  1  0  0  0  0
  8  4  1  0  0  0  0
  9  5  1  0  0  0  0
 11 22  1  0  0  0  0
 12 11  2  0  0  0  0
 12 14  1  0  0  0  0
 13 12  1  0  0  0  0
 14 15  2  0  0  0  0
 15 21  1  0  0  0  0
 15 16  1  0  0  0  0
 16 17  2  0  0  0  0
 17 19  1  0  0  0  0
 17 18  1  0  0  0  0
 20 19  2  0  0  0  0
 21 20  1  0  0  0  0
 22 21  2  0  0  0  0
 23 29  1  0  0  0  0
 23 28  1  0  0  0  0
 24 23  2  0  0  0  0
 25 24  1  0  0  0  0
 25 26  2  0  0  0  0
 26 27  1  0  0  0  0
 27 28  2  0  0  0  0
 27  3  1  0  0  0  0
 30 24  1  0  0  0  0
 31 25  1  0  0  0  0
M  END
>  <minimizedAffinity>
-5.39679861

>  <minimizedRMSD>
5.86474276

$$$$
