
 OpenBabel03242513583D

 37 41  0  0  0  0  0  0  0  0999 V2000
   37.4860   28.9090   41.6960 C   0  0  0  0  0  0  0  0  0  0  0  0
   38.1420   27.9510   42.4960 C   0  0  0  0  0  0  0  0  0  0  0  0
   39.4550   28.2390   42.9190 C   0  0  0  0  0  0  0  0  0  0  0  0
   40.0020   29.4200   42.5280 N   0  0  0  0  0  0  0  0  0  0  0  0
   39.3510   30.3100   41.7670 C   0  0  0  0  0  0  0  0  0  0  0  0
   38.0900   30.0360   41.3590 N   0  0  0  0  0  0  0  0  0  0  0  0
   36.4810   28.6000   41.4190 H   0  0  0  0  0  0  0  0  0  0  0  0
   40.0240   27.5550   43.5340 H   0  0  0  0  0  0  0  0  0  0  0  0
   39.9300   31.5810   41.3430 C   0  0  0  0  0  0  0  0  0  0  0  0
   41.2980   31.7420   41.2460 C   0  0  0  0  0  0  0  0  0  0  0  0
   41.9780   30.9250   41.4830 H   0  0  0  0  0  0  0  0  0  0  0  0
   41.8650   32.9470   40.8440 C   0  0  0  0  0  3  0  0  0  0  0  0
   41.0550   34.0110   40.5330 C   0  0  0  0  0  0  0  0  0  0  0  0
   41.5010   35.2280   40.1310 N   0  0  0  0  0  0  0  0  0  0  0  0
   40.6310   36.2210   39.8450 C   0  0  0  0  0  0  0  0  0  0  0  0
   41.0280   37.1750   39.5280 H   0  0  0  0  0  0  0  0  0  0  0  0
   39.2540   36.1160   39.9250 C   0  0  0  0  0  3  0  0  0  0  0  0
   38.7660   34.8750   40.3350 C   0  0  0  0  0  3  0  0  0  0  0  0
   39.6820   33.8880   40.6180 C   0  0  0  0  0  0  0  0  0  0  0  0
   39.1540   32.6790   41.0200 C   0  0  0  0  0  3  0  0  0  0  0  0
   37.5990   26.7420   42.9020 O   0  0  0  0  0  0  0  0  0  0  0  0
   37.7530   25.5440   42.2230 C   0  0  0  0  0  0  0  0  0  0  0  0
   38.8420   24.6910   42.2760 C   0  0  0  0  0  0  0  0  0  0  0  0
   38.8400   23.5320   41.5360 C   0  0  0  0  0  0  0  0  0  0  0  0
   37.7830   23.1690   40.7230 C   0  0  0  0  0  0  0  0  0  0  0  0
   37.8640   22.0260   40.0400 N   0  0  0  0  0  0  0  0  0  0  0  0
   36.8450   21.6460   39.2380 C   0  0  0  0  0  0  0  0  0  0  0  0
   35.7550   22.4560   39.1550 C   0  0  0  0  0  0  0  0  0  0  0  0
   35.6560   23.6550   39.8660 C   0  0  0  0  0  0  0  0  0  0  0  0
   36.7080   24.0340   40.6850 C   0  0  0  0  0  0  0  0  0  0  0  0
   36.6730   25.2160   41.4200 C   0  0  0  0  0  0  0  0  0  0  0  0
   39.6520   25.0080   42.9240 H   0  0  0  0  0  0  0  0  0  0  0  0
   39.7210   22.9110   41.6240 H   0  0  0  0  0  0  0  0  0  0  0  0
   36.8770   20.7280   38.6700 H   0  0  0  0  0  0  0  0  0  0  0  0
   34.8990   22.2200   38.5340 H   0  0  0  0  0  0  0  0  0  0  0  0
   34.7740   24.2790   39.7790 H   0  0  0  0  0  0  0  0  0  0  0  0
   35.7720   25.8000   41.2970 H   0  0  0  0  0  0  0  0  0  0  0  0
  1  2  1  0  0  0  0
  2 21  1  0  0  0  0
  2  3  2  0  0  0  0
  3  8  1  0  0  0  0
  4  3  1  0  0  0  0
  5  4  2  0  0  0  0
  6  1  2  0  0  0  0
  6  5  1  0  0  0  0
  7  1  1  0  0  0  0
  9  5  1  0  0  0  0
 10  9  1  0  0  0  0
 10 11  1  0  0  0  0
 12 10  2  0  0  0  0
 13 19  1  0  0  0  0
 13 12  1  0  0  0  0
 14 13  2  0  0  0  0
 15 17  2  0  0  0  0
 15 14  1  0  0  0  0
 16 15  1  0  0  0  0
 17 18  1  0  0  0  0
 18 19  2  0  0  0  0
 19 20  1  0  0  0  0
 20  9  2  0  0  0  0
 22 23  1  0  0  0  0
 22 21  1  0  0  0  0
 23 32  1  0  0  0  0
 24 33  1  0  0  0  0
 24 23  2  0  0  0  0
 25 24  1  0  0  0  0
 26 25  2  0  0  0  0
 27 26  1  0  0  0  0
 28 27  2  0  0  0  0
 28 29  1  0  0  0  0
 29 30  2  0  0  0  0
 30 25  1  0  0  0  0
 30 31  1  0  0  0  0
 31 22  2  0  0  0  0
 34 27  1  0  0  0  0
 35 28  1  0  0  0  0
 36 29  1  0  0  0  0
 37 31  1  0  0  0  0
M  END
>  <minimizedAffinity>
-6.65955734

$$$$

 OpenBabel03242513583D

 37 41  0  0  0  0  0  0  0  0999 V2000
   40.5370   32.9780   39.0370 C   0  0  0  0  0  0  0  0  0  0  0  0
   40.4000   34.1550   39.8020 C   0  0  0  0  0  0  0  0  0  0  0  0
   39.1670   34.3750   40.4470 C   0  0  0  0  0  0  0  0  0  0  0  0
   38.1930   33.4410   40.2890 N   0  0  0  0  0  0  0  0  0  0  0  0
   38.3550   32.3330   39.5550 C   0  0  0  0  0  0  0  0  0  0  0  0
   39.5380   32.1180   38.9340 N   0  0  0  0  0  0  0  0  0  0  0  0
   41.5200   32.8940   38.5780 H   0  0  0  0  0  0  0  0  0  0  0  0
   38.9830   35.2530   41.0510 H   0  0  0  0  0  0  0  0  0  0  0  0
   37.3150   31.3240   39.3810 C   0  0  0  0  0  0  0  0  0  0  0  0
   36.5780   30.8700   40.4560 C   0  0  0  0  0  0  0  0  0  0  0  0
   36.7540   31.2520   41.4600 H   0  0  0  0  0  0  0  0  0  0  0  0
   35.5840   29.9080   40.3060 C   0  0  0  0  0  3  0  0  0  0  0  0
   35.3190   29.3900   39.0630 C   0  0  0  0  0  0  0  0  0  0  0  0
   34.3730   28.4520   38.8040 N   0  0  0  0  0  0  0  0  0  0  0  0
   34.1790   27.9960   37.5470 C   0  0  0  0  0  0  0  0  0  0  0  0
   33.4160   27.2490   37.3850 H   0  0  0  0  0  0  0  0  0  0  0  0
   34.8860   28.4150   36.4350 C   0  0  0  0  0  3  0  0  0  0  0  0
   35.8660   29.3810   36.6700 C   0  0  0  0  0  3  0  0  0  0  0  0
   36.0350   29.8210   37.9630 C   0  0  0  0  0  0  0  0  0  0  0  0
   37.0130   30.7750   38.1480 C   0  0  0  0  0  3  0  0  0  0  0  0
   41.3820   35.1170   39.9720 O   0  0  0  0  0  0  0  0  0  0  0  0
   42.2430   35.1770   41.0570 C   0  0  0  0  0  0  0  0  0  0  0  0
   42.3750   36.2180   41.9580 C   0  0  0  0  0  0  0  0  0  0  0  0
   43.2820   36.1230   42.9870 C   0  0  0  0  0  0  0  0  0  0  0  0
   44.0870   35.0140   43.1700 C   0  0  0  0  0  0  0  0  0  0  0  0
   44.9400   35.0040   44.1960 N   0  0  0  0  0  0  0  0  0  0  0  0
   45.7390   33.9330   44.3980 C   0  0  0  0  0  0  0  0  0  0  0  0
   45.6420   32.8860   43.5350 C   0  0  0  0  0  0  0  0  0  0  0  0
   44.7530   32.8820   42.4570 C   0  0  0  0  0  0  0  0  0  0  0  0
   43.9390   33.9870   42.2590 C   0  0  0  0  0  0  0  0  0  0  0  0
   43.0320   34.0470   41.2050 C   0  0  0  0  0  0  0  0  0  0  0  0
   41.7280   37.0710   41.7840 H   0  0  0  0  0  0  0  0  0  0  0  0
   43.3340   36.9720   43.6550 H   0  0  0  0  0  0  0  0  0  0  0  0
   46.4400   33.8910   45.2180 H   0  0  0  0  0  0  0  0  0  0  0  0
   46.2480   31.9920   43.6310 H   0  0  0  0  0  0  0  0  0  0  0  0
   44.6990   32.0330   41.7860 H   0  0  0  0  0  0  0  0  0  0  0  0
   43.0190   33.1750   40.5670 H   0  0  0  0  0  0  0  0  0  0  0  0
  1  2  1  0  0  0  0
  2 21  1  0  0  0  0
  2  3  2  0  0  0  0
  3  8  1  0  0  0  0
  4  3  1  0  0  0  0
  5  4  2  0  0  0  0
  6  1  2  0  0  0  0
  6  5  1  0  0  0  0
  7  1  1  0  0  0  0
  9  5  1  0  0  0  0
  9 10  1  0  0  0  0
 10 11  1  0  0  0  0
 12 10  2  0  0  0  0
 13 12  1  0  0  0  0
 14 13  1  0  0  0  0
 15 14  2  0  0  0  0
 16 15  1  0  0  0  0
 17 18  2  0  0  0  0
 17 15  1  0  0  0  0
 18 19  1  0  0  0  0
 19 20  1  0  0  0  0
 19 13  2  0  0  0  0
 20  9  2  0  0  0  0
 21 22  1  0  0  0  0
 22 31  2  0  0  0  0
 22 23  1  0  0  0  0
 23 24  2  0  0  0  0
 24 25  1  0  0  0  0
 24 33  1  0  0  0  0
 25 26  1  0  0  0  0
 26 27  2  0  0  0  0
 27 34  1  0  0  0  0
 28 35  1  0  0  0  0
 28 27  1  0  0  0  0
 29 28  2  0  0  0  0
 30 29  1  0  0  0  0
 30 25  2  0  0  0  0
 31 30  1  0  0  0  0
 32 23  1  0  0  0  0
 36 29  1  0  0  0  0
 37 31  1  0  0  0  0
M  END
>  <minimizedAffinity>
-6.65086031

$$$$

 OpenBabel03242513583D

 37 41  0  0  0  0  0  0  0  0999 V2000
   39.1800   27.6400   41.4140 C   0  0  0  0  0  0  0  0  0  0  0  0
   38.0780   27.1700   42.1590 C   0  0  0  0  0  0  0  0  0  0  0  0
   37.0870   28.1040   42.5210 C   0  0  0  0  0  0  0  0  0  0  0  0
   37.2580   29.3930   42.1290 N   0  0  0  0  0  0  0  0  0  0  0  0
   38.3160   29.8080   41.4210 C   0  0  0  0  0  0  0  0  0  0  0  0
   39.2700   28.9130   41.0720 N   0  0  0  0  0  0  0  0  0  0  0  0
   39.8910   26.8500   41.1830 H   0  0  0  0  0  0  0  0  0  0  0  0
   36.2130   27.8220   43.0920 H   0  0  0  0  0  0  0  0  0  0  0  0
   38.5080   31.1910   40.9950 C   0  0  0  0  0  0  0  0  0  0  0  0
   37.4470   31.9470   40.5370 C   0  0  0  0  0  0  0  0  0  0  0  0
   36.4430   31.5310   40.4830 H   0  0  0  0  0  0  0  0  0  0  0  0
   37.6140   33.2660   40.1280 C   0  0  0  0  0  3  0  0  0  0  0  0
   38.8590   33.8420   40.1750 C   0  0  0  0  0  0  0  0  0  0  0  0
   39.1330   35.1180   39.8020 N   0  0  0  0  0  0  0  0  0  0  0  0
   40.3910   35.6050   39.8810 C   0  0  0  0  0  0  0  0  0  0  0  0
   40.5650   36.6260   39.5740 H   0  0  0  0  0  0  0  0  0  0  0  0
   41.4880   34.8940   40.3310 C   0  0  0  0  0  3  0  0  0  0  0  0
   41.2370   33.5790   40.7230 C   0  0  0  0  0  3  0  0  0  0  0  0
   39.9440   33.1170   40.6280 C   0  0  0  0  0  0  0  0  0  0  0  0
   39.7430   31.8120   41.0260 C   0  0  0  0  0  3  0  0  0  0  0  0
   37.8890   25.8590   42.5670 O   0  0  0  0  0  0  0  0  0  0  0  0
   37.8010   24.7750   41.7080 C   0  0  0  0  0  0  0  0  0  0  0  0
   38.8090   23.8850   41.3840 C   0  0  0  0  0  0  0  0  0  0  0  0
   38.5590   22.8540   40.5090 C   0  0  0  0  0  0  0  0  0  0  0  0
   37.3220   22.6590   39.9240 C   0  0  0  0  0  0  0  0  0  0  0  0
   37.1650   21.6320   39.0870 N   0  0  0  0  0  0  0  0  0  0  0  0
   35.9670   21.4170   38.5000 C   0  0  0  0  0  0  0  0  0  0  0  0
   34.9460   22.2690   38.7900 C   0  0  0  0  0  0  0  0  0  0  0  0
   35.0960   23.3470   39.6660 C   0  0  0  0  0  0  0  0  0  0  0  0
   36.3300   23.5580   40.2610 C   0  0  0  0  0  0  0  0  0  0  0  0
   36.5460   24.6130   41.1420 C   0  0  0  0  0  0  0  0  0  0  0  0
   39.7660   24.0690   41.8620 H   0  0  0  0  0  0  0  0  0  0  0  0
   39.3910   22.1950   40.3000 H   0  0  0  0  0  0  0  0  0  0  0  0
   35.8050   20.5960   37.8170 H   0  0  0  0  0  0  0  0  0  0  0  0
   33.9570   22.1620   38.3600 H   0  0  0  0  0  0  0  0  0  0  0  0
   34.2640   24.0090   39.8770 H   0  0  0  0  0  0  0  0  0  0  0  0
   35.6840   25.2410   41.3180 H   0  0  0  0  0  0  0  0  0  0  0  0
  1  2  1  0  0  0  0
  2  3  2  0  0  0  0
  2 21  1  0  0  0  0
  3  8  1  0  0  0  0
  4  3  1  0  0  0  0
  5  4  2  0  0  0  0
  6  1  2  0  0  0  0
  6  5  1  0  0  0  0
  7  1  1  0  0  0  0
  9 20  1  0  0  0  0
  9  5  1  0  0  0  0
 10  9  2  0  0  0  0
 11 10  1  0  0  0  0
 12 13  2  0  0  0  0
 12 10  1  0  0  0  0
 13 19  1  0  0  0  0
 14 15  2  0  0  0  0
 14 13  1  0  0  0  0
 15 17  1  0  0  0  0
 16 15  1  0  0  0  0
 17 18  2  0  0  0  0
 19 18  1  0  0  0  0
 19 20  2  0  0  0  0
 22 21  1  0  0  0  0
 23 22  1  0  0  0  0
 23 32  1  0  0  0  0
 24 23  2  0  0  0  0
 25 30  1  0  0  0  0
 25 24  1  0  0  0  0
 26 25  2  0  0  0  0
 27 28  2  0  0  0  0
 27 26  1  0  0  0  0
 28 29  1  0  0  0  0
 29 36  1  0  0  0  0
 29 30  2  0  0  0  0
 30 31  1  0  0  0  0
 31 37  1  0  0  0  0
 31 22  2  0  0  0  0
 33 24  1  0  0  0  0
 34 27  1  0  0  0  0
 35 28  1  0  0  0  0
M  END
>  <minimizedAffinity>
-6.49550247

$$$$

 OpenBabel03242513583D

 37 41  0  0  0  0  0  0  0  0999 V2000
   37.4420   30.6380   38.6820 C   0  0  0  0  0  0  0  0  0  0  0  0
   37.0770   31.5380   39.7050 C   0  0  0  0  0  0  0  0  0  0  0  0
   36.5860   30.9960   40.9090 C   0  0  0  0  0  0  0  0  0  0  0  0
   36.4960   29.6440   41.0050 N   0  0  0  0  0  0  0  0  0  0  0  0
   36.8510   28.8160   40.0150 C   0  0  0  0  0  0  0  0  0  0  0  0
   37.3240   29.3330   38.8570 N   0  0  0  0  0  0  0  0  0  0  0  0
   37.8090   31.1460   37.7930 H   0  0  0  0  0  0  0  0  0  0  0  0
   36.2840   31.6200   41.7390 H   0  0  0  0  0  0  0  0  0  0  0  0
   36.7590   27.3610   40.1100 C   0  0  0  0  0  0  0  0  0  0  0  0
   37.1400   26.6990   41.2600 C   0  0  0  0  0  0  0  0  0  0  0  0
   37.5180   27.2440   42.1230 H   0  0  0  0  0  0  0  0  0  0  0  0
   37.0580   25.3140   41.3650 C   0  0  0  0  0  3  0  0  0  0  0  0
   36.5890   24.5760   40.3070 C   0  0  0  0  0  0  0  0  0  0  0  0
   36.4670   23.2250   40.3030 N   0  0  0  0  0  0  0  0  0  0  0  0
   35.9950   22.5780   39.2150 C   0  0  0  0  0  0  0  0  0  0  0  0
   35.9140   21.5010   39.2540 H   0  0  0  0  0  0  0  0  0  0  0  0
   35.5990   23.1890   38.0400 C   0  0  0  0  0  3  0  0  0  0  0  0
   35.7130   24.5800   38.0150 C   0  0  0  0  0  3  0  0  0  0  0  0
   36.1980   25.2050   39.1410 C   0  0  0  0  0  0  0  0  0  0  0  0
   36.2920   26.5780   39.0700 C   0  0  0  0  0  3  0  0  0  0  0  0
   37.1620   32.9180   39.6220 O   0  0  0  0  0  0  0  0  0  0  0  0
   38.2800   33.6590   39.9710 C   0  0  0  0  0  0  0  0  0  0  0  0
   38.3720   35.0370   40.0600 C   0  0  0  0  0  0  0  0  0  0  0  0
   39.5620   35.6220   40.4220 C   0  0  0  0  0  0  0  0  0  0  0  0
   40.6970   34.8870   40.7060 C   0  0  0  0  0  0  0  0  0  0  0  0
   41.8110   35.5360   41.0500 N   0  0  0  0  0  0  0  0  0  0  0  0
   42.9360   34.8420   41.3340 C   0  0  0  0  0  0  0  0  0  0  0  0
   42.8910   33.4840   41.2580 C   0  0  0  0  0  0  0  0  0  0  0  0
   41.7310   32.7910   40.9000 C   0  0  0  0  0  0  0  0  0  0  0  0
   40.5840   33.5140   40.6110 C   0  0  0  0  0  0  0  0  0  0  0  0
   39.3970   32.8850   40.2480 C   0  0  0  0  0  0  0  0  0  0  0  0
   37.4610   35.5810   39.8300 H   0  0  0  0  0  0  0  0  0  0  0  0
   39.5640   36.7030   40.4730 H   0  0  0  0  0  0  0  0  0  0  0  0
   43.8540   35.3350   41.6150 H   0  0  0  0  0  0  0  0  0  0  0  0
   43.7500   32.8600   41.4710 H   0  0  0  0  0  0  0  0  0  0  0  0
   41.7260   31.7090   40.8480 H   0  0  0  0  0  0  0  0  0  0  0  0
   39.4470   31.8070   40.2120 H   0  0  0  0  0  0  0  0  0  0  0  0
  1  6  2  0  0  0  0
  1  2  1  0  0  0  0
  2  3  2  0  0  0  0
  3  4  1  0  0  0  0
  3  8  1  0  0  0  0
  5  9  1  0  0  0  0
  5  4  2  0  0  0  0
  6  5  1  0  0  0  0
  7  1  1  0  0  0  0
  9 10  1  0  0  0  0
 10 12  2  0  0  0  0
 10 11  1  0  0  0  0
 13 12  1  0  0  0  0
 14 13  1  0  0  0  0
 15 16  1  0  0  0  0
 15 14  2  0  0  0  0
 17 15  1  0  0  0  0
 18 17  2  0  0  0  0
 18 19  1  0  0  0  0
 19 13  2  0  0  0  0
 20 19  1  0  0  0  0
 20  9  2  0  0  0  0
 21  2  1  0  0  0  0
 21 22  1  0  0  0  0
 22 23  2  0  0  0  0
 22 31  1  0  0  0  0
 23 24  1  0  0  0  0
 24 33  1  0  0  0  0
 24 25  2  0  0  0  0
 25 26  1  0  0  0  0
 26 27  2  0  0  0  0
 27 34  1  0  0  0  0
 28 27  1  0  0  0  0
 28 35  1  0  0  0  0
 29 28  2  0  0  0  0
 30 25  1  0  0  0  0
 30 29  1  0  0  0  0
 31 30  2  0  0  0  0
 32 23  1  0  0  0  0
 36 29  1  0  0  0  0
 37 31  1  0  0  0  0
M  END
>  <minimizedAffinity>
-6.41218758

$$$$

 OpenBabel03242513583D

 37 41  0  0  0  0  0  0  0  0999 V2000
   36.9030   29.9910   39.6110 C   0  0  0  0  0  0  0  0  0  0  0  0
   37.4560   30.8080   40.6190 C   0  0  0  0  0  0  0  0  0  0  0  0
   38.0790   30.1710   41.7110 C   0  0  0  0  0  0  0  0  0  0  0  0
   38.1060   28.8130   41.7200 N   0  0  0  0  0  0  0  0  0  0  0  0
   37.5720   28.0650   40.7470 C   0  0  0  0  0  0  0  0  0  0  0  0
   36.9720   28.6730   39.6970 N   0  0  0  0  0  0  0  0  0  0  0  0
   36.4450   30.5690   38.8130 H   0  0  0  0  0  0  0  0  0  0  0  0
   38.5250   30.7280   42.5230 H   0  0  0  0  0  0  0  0  0  0  0  0
   37.5970   26.6050   40.7480 C   0  0  0  0  0  0  0  0  0  0  0  0
   37.0150   25.8850   41.7730 C   0  0  0  0  0  0  0  0  0  0  0  0
   36.5220   26.3880   42.6030 H   0  0  0  0  0  0  0  0  0  0  0  0
   37.0310   24.4940   41.7880 C   0  0  0  0  0  3  0  0  0  0  0  0
   37.6380   23.8070   40.7660 C   0  0  0  0  0  0  0  0  0  0  0  0
   37.7110   22.4550   40.6820 N   0  0  0  0  0  0  0  0  0  0  0  0
   38.3290   21.8610   39.6370 C   0  0  0  0  0  0  0  0  0  0  0  0
   38.3640   20.7820   39.6090 H   0  0  0  0  0  0  0  0  0  0  0  0
   38.9280   22.5310   38.5860 C   0  0  0  0  0  3  0  0  0  0  0  0
   38.8680   23.9240   38.6460 C   0  0  0  0  0  3  0  0  0  0  0  0
   38.2310   24.4940   39.7240 C   0  0  0  0  0  0  0  0  0  0  0  0
   38.1960   25.8720   39.7400 C   0  0  0  0  0  3  0  0  0  0  0  0
   37.4360   32.1940   40.6240 O   0  0  0  0  0  0  0  0  0  0  0  0
   38.5010   32.9960   40.2460 C   0  0  0  0  0  0  0  0  0  0  0  0
   38.8300   34.2390   40.7580 C   0  0  0  0  0  0  0  0  0  0  0  0
   39.9260   34.9120   40.2720 C   0  0  0  0  0  0  0  0  0  0  0  0
   40.7330   34.3970   39.2750 C   0  0  0  0  0  0  0  0  0  0  0  0
   41.7780   35.1170   38.8620 N   0  0  0  0  0  0  0  0  0  0  0  0
   42.5840   34.6390   37.8890 C   0  0  0  0  0  0  0  0  0  0  0  0
   42.2970   33.4200   37.3560 C   0  0  0  0  0  0  0  0  0  0  0  0
   41.2070   32.6550   37.7790 C   0  0  0  0  0  0  0  0  0  0  0  0
   40.3870   33.1570   38.7780 C   0  0  0  0  0  0  0  0  0  0  0  0
   39.2850   32.4450   39.2450 C   0  0  0  0  0  0  0  0  0  0  0  0
   38.1740   34.6110   41.5390 H   0  0  0  0  0  0  0  0  0  0  0  0
   40.1270   35.8770   40.7160 H   0  0  0  0  0  0  0  0  0  0  0  0
   43.4380   35.1940   37.5310 H   0  0  0  0  0  0  0  0  0  0  0  0
   42.8960   32.9690   36.5740 H   0  0  0  0  0  0  0  0  0  0  0  0
   41.0040   31.6870   37.3360 H   0  0  0  0  0  0  0  0  0  0  0  0
   39.1280   31.4880   38.7700 H   0  0  0  0  0  0  0  0  0  0  0  0
  1  6  2  0  0  0  0
  1  2  1  0  0  0  0
  2 21  1  0  0  0  0
  2  3  2  0  0  0  0
  3  4  1  0  0  0  0
  3  8  1  0  0  0  0
  5  9  1  0  0  0  0
  5  4  2  0  0  0  0
  6  5  1  0  0  0  0
  7  1  1  0  0  0  0
  9 10  1  0  0  0  0
 10 12  2  0  0  0  0
 10 11  1  0  0  0  0
 13 12  1  0  0  0  0
 14 13  1  0  0  0  0
 15 14  2  0  0  0  0
 16 15  1  0  0  0  0
 17 18  2  0  0  0  0
 17 15  1  0  0  0  0
 18 19  1  0  0  0  0
 19 20  1  0  0  0  0
 19 13  2  0  0  0  0
 20  9  2  0  0  0  0
 22 21  1  0  0  0  0
 22 23  1  0  0  0  0
 23 32  1  0  0  0  0
 24 33  1  0  0  0  0
 24 23  2  0  0  0  0
 25 24  1  0  0  0  0
 26 25  1  0  0  0  0
 27 26  2  0  0  0  0
 28 29  2  0  0  0  0
 28 27  1  0  0  0  0
 29 30  1  0  0  0  0
 30 31  1  0  0  0  0
 30 25  2  0  0  0  0
 31 22  2  0  0  0  0
 34 27  1  0  0  0  0
 35 28  1  0  0  0  0
 36 29  1  0  0  0  0
 37 31  1  0  0  0  0
M  END
>  <minimizedAffinity>
-6.28260803

$$$$

 OpenBabel03242513583D

 37 41  0  0  0  0  0  0  0  0999 V2000
   37.4750   28.6520   39.6400 C   0  0  0  0  0  0  0  0  0  0  0  0
   37.2600   29.2370   40.9050 C   0  0  0  0  0  0  0  0  0  0  0  0
   37.0320   28.3750   41.9960 C   0  0  0  0  0  0  0  0  0  0  0  0
   37.0330   27.0370   41.7570 N   0  0  0  0  0  0  0  0  0  0  0  0
   37.2410   26.5120   40.5420 C   0  0  0  0  0  0  0  0  0  0  0  0
   37.4610   27.3380   39.4930 N   0  0  0  0  0  0  0  0  0  0  0  0
   37.6420   29.3940   38.8630 H   0  0  0  0  0  0  0  0  0  0  0  0
   36.8580   28.7460   42.9960 H   0  0  0  0  0  0  0  0  0  0  0  0
   37.2450   25.0770   40.2760 C   0  0  0  0  0  0  0  0  0  0  0  0
   38.3440   24.3000   40.5850 C   0  0  0  0  0  0  0  0  0  0  0  0
   39.2340   24.7380   41.0340 H   0  0  0  0  0  0  0  0  0  0  0  0
   38.3630   22.9310   40.3370 C   0  0  0  0  0  3  0  0  0  0  0  0
   37.2690   22.3250   39.7720 C   0  0  0  0  0  0  0  0  0  0  0  0
   37.1810   21.0010   39.4890 N   0  0  0  0  0  0  0  0  0  0  0  0
   36.0630   20.4880   38.9310 C   0  0  0  0  0  0  0  0  0  0  0  0
   36.0350   19.4280   38.7220 H   0  0  0  0  0  0  0  0  0  0  0  0
   34.9350   21.2170   38.6020 C   0  0  0  0  0  3  0  0  0  0  0  0
   34.9960   22.5830   38.8820 C   0  0  0  0  0  3  0  0  0  0  0  0
   36.1510   23.0700   39.4500 C   0  0  0  0  0  0  0  0  0  0  0  0
   36.1660   24.4240   39.7090 C   0  0  0  0  0  3  0  0  0  0  0  0
   37.2550   30.5980   41.1650 O   0  0  0  0  0  0  0  0  0  0  0  0
   38.3460   31.4350   40.9920 C   0  0  0  0  0  0  0  0  0  0  0  0
   39.6820   31.0950   41.1030 C   0  0  0  0  0  0  0  0  0  0  0  0
   40.6520   32.0490   40.9000 C   0  0  0  0  0  0  0  0  0  0  0  0
   40.3510   33.3600   40.5830 C   0  0  0  0  0  0  0  0  0  0  0  0
   41.3530   34.2210   40.4010 N   0  0  0  0  0  0  0  0  0  0  0  0
   41.0890   35.5090   40.0900 C   0  0  0  0  0  0  0  0  0  0  0  0
   39.7870   35.8880   39.9720 C   0  0  0  0  0  0  0  0  0  0  0  0
   38.7270   34.9970   40.1580 C   0  0  0  0  0  0  0  0  0  0  0  0
   39.0120   33.6780   40.4770 C   0  0  0  0  0  0  0  0  0  0  0  0
   38.0020   32.7410   40.6760 C   0  0  0  0  0  0  0  0  0  0  0  0
   39.8810   30.0570   41.3530 H   0  0  0  0  0  0  0  0  0  0  0  0
   41.6760   31.7150   41.0010 H   0  0  0  0  0  0  0  0  0  0  0  0
   41.8750   36.2320   39.9370 H   0  0  0  0  0  0  0  0  0  0  0  0
   39.4950   36.9020   39.7250 H   0  0  0  0  0  0  0  0  0  0  0  0
   37.7000   35.3290   40.0570 H   0  0  0  0  0  0  0  0  0  0  0  0
   36.9980   33.1230   40.5630 H   0  0  0  0  0  0  0  0  0  0  0  0
  1  2  1  0  0  0  0
  2 21  1  0  0  0  0
  2  3  2  0  0  0  0
  3  8  1  0  0  0  0
  4  3  1  0  0  0  0
  5  4  2  0  0  0  0
  6  1  2  0  0  0  0
  6  5  1  0  0  0  0
  7  1  1  0  0  0  0
  9  5  1  0  0  0  0
  9 10  1  0  0  0  0
 10 11  1  0  0  0  0
 12 10  2  0  0  0  0
 13 12  1  0  0  0  0
 14 13  1  0  0  0  0
 15 14  2  0  0  0  0
 16 15  1  0  0  0  0
 17 18  2  0  0  0  0
 17 15  1  0  0  0  0
 18 19  1  0  0  0  0
 19 20  1  0  0  0  0
 19 13  2  0  0  0  0
 20  9  2  0  0  0  0
 22 23  1  0  0  0  0
 22 21  1  0  0  0  0
 23 32  1  0  0  0  0
 24 33  1  0  0  0  0
 24 23  2  0  0  0  0
 25 24  1  0  0  0  0
 26 25  2  0  0  0  0
 27 26  1  0  0  0  0
 28 27  2  0  0  0  0
 28 29  1  0  0  0  0
 29 30  2  0  0  0  0
 30 25  1  0  0  0  0
 30 31  1  0  0  0  0
 31 22  2  0  0  0  0
 34 27  1  0  0  0  0
 35 28  1  0  0  0  0
 36 29  1  0  0  0  0
 37 31  1  0  0  0  0
M  END
>  <minimizedAffinity>
-6.15702009

$$$$

 OpenBabel03242513583D

 37 41  0  0  0  0  0  0  0  0999 V2000
   38.7100   27.9340   40.2970 C   0  0  0  0  0  0  0  0  0  0  0  0
   38.6700   27.4140   41.6070 C   0  0  0  0  0  0  0  0  0  0  0  0
   38.6310   28.3310   42.6760 C   0  0  0  0  0  0  0  0  0  0  0  0
   38.6350   29.6560   42.3730 N   0  0  0  0  0  0  0  0  0  0  0  0
   38.6730   30.1190   41.1170 C   0  0  0  0  0  0  0  0  0  0  0  0
   38.7110   29.2400   40.0890 N   0  0  0  0  0  0  0  0  0  0  0  0
   38.7390   27.1530   39.5410 H   0  0  0  0  0  0  0  0  0  0  0  0
   38.6000   28.0110   43.7080 H   0  0  0  0  0  0  0  0  0  0  0  0
   38.6760   31.5400   40.7830 C   0  0  0  0  0  0  0  0  0  0  0  0
   37.5180   32.1810   40.3920 C   0  0  0  0  0  0  0  0  0  0  0  0
   36.5740   31.6430   40.3240 H   0  0  0  0  0  0  0  0  0  0  0  0
   37.5050   33.5340   40.0710 C   0  0  0  0  0  3  0  0  0  0  0  0
   38.6670   34.2630   40.1400 C   0  0  0  0  0  0  0  0  0  0  0  0
   38.7670   35.5840   39.8500 N   0  0  0  0  0  0  0  0  0  0  0  0
   39.9540   36.2240   39.9450 C   0  0  0  0  0  0  0  0  0  0  0  0
   39.9890   37.2760   39.7050 H   0  0  0  0  0  0  0  0  0  0  0  0
   41.1430   35.6330   40.3300 C   0  0  0  0  0  3  0  0  0  0  0  0
   41.0710   34.2730   40.6360 C   0  0  0  0  0  3  0  0  0  0  0  0
   39.8460   33.6550   40.5280 C   0  0  0  0  0  0  0  0  0  0  0  0
   39.8220   32.3120   40.8390 C   0  0  0  0  0  3  0  0  0  0  0  0
   38.6670   26.0670   41.9320 O   0  0  0  0  0  0  0  0  0  0  0  0
   38.0530   25.0790   41.1780 C   0  0  0  0  0  0  0  0  0  0  0  0
   36.7030   24.7770   41.1420 C   0  0  0  0  0  0  0  0  0  0  0  0
   36.2490   23.7600   40.3370 C   0  0  0  0  0  0  0  0  0  0  0  0
   37.0930   23.0060   39.5430 C   0  0  0  0  0  0  0  0  0  0  0  0
   36.5690   22.0370   38.7900 N   0  0  0  0  0  0  0  0  0  0  0  0
   37.3710   21.2850   38.0040 C   0  0  0  0  0  0  0  0  0  0  0  0
   38.7060   21.5470   38.0090 C   0  0  0  0  0  0  0  0  0  0  0  0
   39.2690   22.5590   38.7910 C   0  0  0  0  0  0  0  0  0  0  0  0
   38.4360   23.3230   39.5940 C   0  0  0  0  0  0  0  0  0  0  0  0
   38.9330   24.3460   40.3960 C   0  0  0  0  0  0  0  0  0  0  0  0
   36.0710   25.3890   41.7780 H   0  0  0  0  0  0  0  0  0  0  0  0
   35.1830   23.5770   40.3560 H   0  0  0  0  0  0  0  0  0  0  0  0
   36.9800   20.4930   37.3830 H   0  0  0  0  0  0  0  0  0  0  0  0
   39.4120   20.9880   37.4060 H   0  0  0  0  0  0  0  0  0  0  0  0
   40.3360   22.7430   38.7740 H   0  0  0  0  0  0  0  0  0  0  0  0
   40.0020   24.4880   40.3410 H   0  0  0  0  0  0  0  0  0  0  0  0
  1  2  1  0  0  0  0
  2 21  1  0  0  0  0
  2  3  2  0  0  0  0
  3  8  1  0  0  0  0
  4  3  1  0  0  0  0
  5  4  2  0  0  0  0
  6  1  2  0  0  0  0
  6  5  1  0  0  0  0
  7  1  1  0  0  0  0
  9 20  1  0  0  0  0
  9  5  1  0  0  0  0
 10  9  2  0  0  0  0
 11 10  1  0  0  0  0
 12 13  2  0  0  0  0
 12 10  1  0  0  0  0
 13 19  1  0  0  0  0
 14 15  2  0  0  0  0
 14 13  1  0  0  0  0
 15 17  1  0  0  0  0
 16 15  1  0  0  0  0
 17 18  2  0  0  0  0
 19 18  1  0  0  0  0
 19 20  2  0  0  0  0
 22 21  1  0  0  0  0
 23 22  1  0  0  0  0
 23 32  1  0  0  0  0
 24 33  1  0  0  0  0
 24 23  2  0  0  0  0
 25 30  1  0  0  0  0
 25 24  1  0  0  0  0
 26 25  2  0  0  0  0
 27 28  2  0  0  0  0
 27 26  1  0  0  0  0
 28 29  1  0  0  0  0
 29 30  2  0  0  0  0
 30 31  1  0  0  0  0
 31 22  2  0  0  0  0
 34 27  1  0  0  0  0
 35 28  1  0  0  0  0
 36 29  1  0  0  0  0
 37 31  1  0  0  0  0
M  END
>  <minimizedAffinity>
-6.13523006

$$$$

 OpenBabel03242513583D

 37 41  0  0  0  0  0  0  0  0999 V2000
   36.6640   27.6170   41.5180 C   0  0  0  0  0  0  0  0  0  0  0  0
   36.2990   28.9340   41.1700 C   0  0  0  0  0  0  0  0  0  0  0  0
   37.2100   29.9670   41.4670 C   0  0  0  0  0  0  0  0  0  0  0  0
   38.3790   29.6260   42.0700 N   0  0  0  0  0  0  0  0  0  0  0  0
   38.6970   28.3650   42.3870 C   0  0  0  0  0  0  0  0  0  0  0  0
   37.8240   27.3700   42.1030 N   0  0  0  0  0  0  0  0  0  0  0  0
   35.9010   26.8900   41.2500 H   0  0  0  0  0  0  0  0  0  0  0  0
   37.0020   31.0020   41.2330 H   0  0  0  0  0  0  0  0  0  0  0  0
   39.9510   27.9890   43.0340 C   0  0  0  0  0  0  0  0  0  0  0  0
   40.0500   26.8260   43.7700 C   0  0  0  0  0  0  0  0  0  0  0  0
   39.1970   26.1600   43.8870 H   0  0  0  0  0  0  0  0  0  0  0  0
   41.2380   26.4550   44.3920 C   0  0  0  0  0  3  0  0  0  0  0  0
   42.3470   27.2580   44.2790 C   0  0  0  0  0  0  0  0  0  0  0  0
   43.5520   26.9920   44.8430 N   0  0  0  0  0  0  0  0  0  0  0  0
   44.5920   27.8390   44.6800 C   0  0  0  0  0  0  0  0  0  0  0  0
   45.5340   27.5890   45.1460 H   0  0  0  0  0  0  0  0  0  0  0  0
   44.5480   29.0150   43.9540 C   0  0  0  0  0  3  0  0  0  0  0  0
   43.3210   29.3150   43.3620 C   0  0  0  0  0  3  0  0  0  0  0  0
   42.2850   28.4290   43.5500 C   0  0  0  0  0  0  0  0  0  0  0  0
   41.0920   28.7660   42.9470 C   0  0  0  0  0  3  0  0  0  0  0  0
   35.1110   29.2980   40.5560 O   0  0  0  0  0  0  0  0  0  0  0  0
   34.8570   29.1720   39.1990 C   0  0  0  0  0  0  0  0  0  0  0  0
   33.6220   29.0160   38.5940 C   0  0  0  0  0  0  0  0  0  0  0  0
   33.5390   28.9040   37.2270 C   0  0  0  0  0  0  0  0  0  0  0  0
   34.6510   28.9400   36.4080 C   0  0  0  0  0  0  0  0  0  0  0  0
   34.4800   28.8250   35.0890 N   0  0  0  0  0  0  0  0  0  0  0  0
   35.5500   28.8570   34.2650 C   0  0  0  0  0  0  0  0  0  0  0  0
   36.7840   29.0080   34.8170 C   0  0  0  0  0  0  0  0  0  0  0  0
   36.9790   29.1310   36.1960 C   0  0  0  0  0  0  0  0  0  0  0  0
   35.8730   29.0960   37.0310 C   0  0  0  0  0  0  0  0  0  0  0  0
   35.9970   29.2130   38.4130 C   0  0  0  0  0  0  0  0  0  0  0  0
   32.7720   28.9920   39.2680 H   0  0  0  0  0  0  0  0  0  0  0  0
   32.5440   28.7850   36.8190 H   0  0  0  0  0  0  0  0  0  0  0  0
   35.4480   28.7660   33.1940 H   0  0  0  0  0  0  0  0  0  0  0  0
   37.6890   29.0430   34.2220 H   0  0  0  0  0  0  0  0  0  0  0  0
   37.9740   29.2500   36.6060 H   0  0  0  0  0  0  0  0  0  0  0  0
   37.0110   29.3290   38.7690 H   0  0  0  0  0  0  0  0  0  0  0  0
  1  6  1  0  0  0  0
  2  3  1  0  0  0  0
  2  1  2  0  0  0  0
  3  4  2  0  0  0  0
  4  5  1  0  0  0  0
  5  9  1  0  0  0  0
  6  5  2  0  0  0  0
  7  1  1  0  0  0  0
  8  3  1  0  0  0  0
  9 10  1  0  0  0  0
 10 11  1  0  0  0  0
 10 12  2  0  0  0  0
 13 12  1  0  0  0  0
 13 14  1  0  0  0  0
 15 14  2  0  0  0  0
 15 16  1  0  0  0  0
 17 15  1  0  0  0  0
 18 19  1  0  0  0  0
 18 17  2  0  0  0  0
 19 13  2  0  0  0  0
 20  9  2  0  0  0  0
 20 19  1  0  0  0  0
 21  2  1  0  0  0  0
 22 21  1  0  0  0  0
 23 22  1  0  0  0  0
 23 32  1  0  0  0  0
 24 23  2  0  0  0  0
 25 30  1  0  0  0  0
 25 24  1  0  0  0  0
 26 25  2  0  0  0  0
 27 28  2  0  0  0  0
 27 26  1  0  0  0  0
 28 29  1  0  0  0  0
 29 36  1  0  0  0  0
 29 30  2  0  0  0  0
 30 31  1  0  0  0  0
 31 37  1  0  0  0  0
 31 22  2  0  0  0  0
 33 24  1  0  0  0  0
 34 27  1  0  0  0  0
 35 28  1  0  0  0  0
M  END
>  <minimizedAffinity>
-6.11406374

$$$$

 OpenBabel03242513583D

 37 41  0  0  0  0  0  0  0  0999 V2000
   40.3240   31.1300   38.1650 C   0  0  0  0  0  0  0  0  0  0  0  0
   39.8790   32.3190   38.7780 C   0  0  0  0  0  0  0  0  0  0  0  0
   38.7510   32.2400   39.6190 C   0  0  0  0  0  0  0  0  0  0  0  0
   38.1680   31.0240   39.7840 N   0  0  0  0  0  0  0  0  0  0  0  0
   38.6160   29.9120   39.1870 C   0  0  0  0  0  0  0  0  0  0  0  0
   39.6990   29.9850   38.3780 N   0  0  0  0  0  0  0  0  0  0  0  0
   41.1970   31.2890   37.5360 H   0  0  0  0  0  0  0  0  0  0  0  0
   38.3490   33.1070   40.1240 H   0  0  0  0  0  0  0  0  0  0  0  0
   37.9960   28.6010   39.3590 C   0  0  0  0  0  0  0  0  0  0  0  0
   37.1440   28.0880   38.4020 C   0  0  0  0  0  0  0  0  0  0  0  0
   36.9130   28.6460   37.4960 H   0  0  0  0  0  0  0  0  0  0  0  0
   36.5450   26.8410   38.5520 C   0  0  0  0  0  3  0  0  0  0  0  0
   36.8000   26.0920   39.6740 C   0  0  0  0  0  0  0  0  0  0  0  0
   36.2720   24.8670   39.9200 N   0  0  0  0  0  0  0  0  0  0  0  0
   36.5780   24.1990   41.0540 C   0  0  0  0  0  0  0  0  0  0  0  0
   36.1350   23.2260   41.2110 H   0  0  0  0  0  0  0  0  0  0  0  0
   37.4230   24.6650   42.0440 C   0  0  0  0  0  3  0  0  0  0  0  0
   37.9830   25.9230   41.8180 C   0  0  0  0  0  3  0  0  0  0  0  0
   37.6480   26.5740   40.6530 C   0  0  0  0  0  0  0  0  0  0  0  0
   38.2240   27.8130   40.4720 C   0  0  0  0  0  3  0  0  0  0  0  0
   40.4620   33.5660   38.6200 O   0  0  0  0  0  0  0  0  0  0  0  0
   41.0370   34.3000   39.6450 C   0  0  0  0  0  0  0  0  0  0  0  0
   40.5740   35.4900   40.1790 C   0  0  0  0  0  0  0  0  0  0  0  0
   41.2640   36.0970   41.2010 C   0  0  0  0  0  0  0  0  0  0  0  0
   42.4240   35.5670   41.7340 C   0  0  0  0  0  0  0  0  0  0  0  0
   43.0310   36.2220   42.7250 N   0  0  0  0  0  0  0  0  0  0  0  0
   44.1660   35.7270   43.2650 C   0  0  0  0  0  0  0  0  0  0  0  0
   44.6580   34.5590   42.7700 C   0  0  0  0  0  0  0  0  0  0  0  0
   44.0330   33.8620   41.7320 C   0  0  0  0  0  0  0  0  0  0  0  0
   42.8690   34.3800   41.1870 C   0  0  0  0  0  0  0  0  0  0  0  0
   42.1970   33.7360   40.1520 C   0  0  0  0  0  0  0  0  0  0  0  0
   39.6610   35.8760   39.7370 H   0  0  0  0  0  0  0  0  0  0  0  0
   40.8470   37.0240   41.5720 H   0  0  0  0  0  0  0  0  0  0  0  0
   44.6830   36.2300   44.0680 H   0  0  0  0  0  0  0  0  0  0  0  0
   45.5630   34.0990   43.1500 H   0  0  0  0  0  0  0  0  0  0  0  0
   44.4490   32.9340   41.3590 H   0  0  0  0  0  0  0  0  0  0  0  0
   42.6540   32.8160   39.8180 H   0  0  0  0  0  0  0  0  0  0  0  0
  1  6  2  0  0  0  0
  1  2  1  0  0  0  0
  2  3  2  0  0  0  0
  3  4  1  0  0  0  0
  3  8  1  0  0  0  0
  5  9  1  0  0  0  0
  5  4  2  0  0  0  0
  6  5  1  0  0  0  0
  7  1  1  0  0  0  0
  9 20  1  0  0  0  0
 10 12  1  0  0  0  0
 10  9  2  0  0  0  0
 11 10  1  0  0  0  0
 12 13  2  0  0  0  0
 13 14  1  0  0  0  0
 13 19  1  0  0  0  0
 14 15  2  0  0  0  0
 15 16  1  0  0  0  0
 15 17  1  0  0  0  0
 18 17  2  0  0  0  0
 19 18  1  0  0  0  0
 20 19  2  0  0  0  0
 21  2  1  0  0  0  0
 21 22  1  0  0  0  0
 22 31  2  0  0  0  0
 22 23  1  0  0  0  0
 23 24  2  0  0  0  0
 24 33  1  0  0  0  0
 24 25  1  0  0  0  0
 25 26  1  0  0  0  0
 26 27  2  0  0  0  0
 27 34  1  0  0  0  0
 28 35  1  0  0  0  0
 28 27  1  0  0  0  0
 29 28  2  0  0  0  0
 30 29  1  0  0  0  0
 30 25  2  0  0  0  0
 31 30  1  0  0  0  0
 32 23  1  0  0  0  0
 36 29  1  0  0  0  0
 37 31  1  0  0  0  0
M  END
>  <minimizedAffinity>
-6.08665276

$$$$
