
 OpenBabel03242522243D

 31 34  0  0  0  0  0  0  0  0999 V2000
   44.4550   36.0560   44.1110 C   0  0  0  0  0  0  0  0  0  0  0  0
   45.1340   35.8820   42.8930 C   0  0  0  0  0  0  0  0  0  0  0  0
   46.0730   34.8650   42.7440 C   0  0  0  0  0  0  0  0  0  0  0  0
   46.2850   34.0760   43.8160 N   0  0  0  0  0  0  0  0  0  0  0  0
   45.6340   34.2470   44.9780 C   0  0  0  0  0  0  0  0  0  0  0  0
   44.7360   35.2210   45.1160 N   0  0  0  0  0  0  0  0  0  0  0  0
   43.7340   36.8380   44.2280 H   0  0  0  0  0  0  0  0  0  0  0  0
   44.9350   36.5330   42.0640 H   0  0  0  0  0  0  0  0  0  0  0  0
   45.9240   33.3450   46.0900 C   0  0  0  0  0  0  0  0  0  0  0  0
   45.1970   33.4070   47.2600 C   0  0  0  0  0  0  0  0  0  0  0  0
   44.3870   34.1470   47.3540 H   0  0  0  0  0  0  0  0  0  0  0  0
   45.4590   32.5570   48.3290 C   0  0  0  0  0  0  0  0  0  0  0  0
   46.4830   31.6280   48.2010 C   0  0  0  0  0  0  0  0  0  0  0  0
   46.7110   30.8230   49.2480 N   0  0  0  0  0  0  0  0  0  0  0  0
   47.6840   29.9020   49.1940 C   0  0  0  0  0  0  0  0  0  0  0  0
   47.8510   29.2640   50.0500 H   0  0  0  0  0  0  0  0  0  0  0  0
   48.4460   29.7930   48.0490 C   0  0  0  0  0  0  0  0  0  0  0  0
   48.2090   30.6160   46.9800 C   0  0  0  0  0  0  0  0  0  0  0  0
   47.2160   31.5550   47.0400 C   0  0  0  0  0  0  0  0  0  0  0  0
   46.9370   32.4110   45.9870 C   0  0  0  0  0  0  0  0  0  0  0  0
   44.6720   33.0990   40.8810 Cl  0  0  0  0  0  0  0  0  0  0  0  0
   46.2190   33.8570   40.5390 C   0  0  0  0  0  0  0  0  0  0  0  0
   46.7890   34.6680   41.4850 C   0  0  0  0  0  0  0  0  0  0  0  0
   48.0130   35.2500   41.1800 C   0  0  0  0  0  0  0  0  0  0  0  0
   48.6310   35.0150   39.9620 C   0  0  0  0  0  0  0  0  0  0  0  0
   47.9980   34.1850   39.0530 C   0  0  0  0  0  0  0  0  0  0  0  0
   48.7670   33.8770   37.5060 Cl  0  0  0  0  0  0  0  0  0  0  0  0
   46.7780   33.5800   39.3080 C   0  0  0  0  0  0  0  0  0  0  0  0
   48.4380   35.8810   41.9370 H   0  0  0  0  0  0  0  0  0  0  0  0
   49.5850   35.4860   39.7580 H   0  0  0  0  0  0  0  0  0  0  0  0
   46.3000   32.9330   38.5830 H   0  0  0  0  0  0  0  0  0  0  0  0
  1  7  1  0  0  0  0
  1  6  1  0  0  0  0
  2  1  2  0  0  0  0
  3  2  1  0  0  0  0
  3  4  2  0  0  0  0
  4  5  1  0  0  0  0
  5  6  2  0  0  0  0
  5  9  1  0  0  0  0
  8  2  1  0  0  0  0
  9 10  1  0  0  0  0
 10 11  1  0  0  0  0
 10 12  2  0  0  0  0
 13 12  1  0  0  0  0
 13 14  1  0  0  0  0
 15 14  2  0  0  0  0
 15 16  1  0  0  0  0
 17 15  1  0  0  0  0
 18 19  1  0  0  0  0
 18 17  2  0  0  0  0
 19 13  2  0  0  0  0
 20  9  2  0  0  0  0
 20 19  1  0  0  0  0
 22 21  1  0  0  0  0
 22 23  1  0  0  0  0
 23  3  1  0  0  0  0
 24 23  2  0  0  0  0
 24 29  1  0  0  0  0
 25 24  1  0  0  0  0
 26 28  1  0  0  0  0
 26 25  2  0  0  0  0
 27 26  1  0  0  0  0
 28 22  2  0  0  0  0
 30 25  1  0  0  0  0
 31 28  1  0  0  0  0
M  END
>  <minimizedAffinity>
-6.25847483

>  <minimizedRMSD>
0.854572535

$$$$
