
 OpenBabel03252503513D

 24 26  0  0  0  0  0  0  0  0999 V2000
   47.6080   35.1700   42.2180 C   0  0  0  0  0  0  0  0  0  0  0  0
   47.6970   34.1440   43.1870 C   0  0  0  0  0  0  0  0  0  0  0  0
   46.5980   33.8630   43.9990 C   0  0  0  0  0  0  0  0  0  0  0  0
   45.4870   34.6170   43.7930 N   0  0  0  0  0  0  0  0  0  0  0  0
   45.4160   35.5860   42.8710 C   0  0  0  0  0  0  0  0  0  0  0  0
   46.4680   35.8620   42.0890 N   0  0  0  0  0  0  0  0  0  0  0  0
   48.6090   33.5880   43.2940 H   0  0  0  0  0  0  0  0  0  0  0  0
   44.4760   36.1180   42.8020 H   0  0  0  0  0  0  0  0  0  0  0  0
   46.6280   32.8230   45.0110 C   0  0  0  0  0  0  0  0  0  0  0  0
   47.2470   31.6130   44.8790 C   0  0  0  0  0  0  0  0  0  0  0  0
   47.7580   31.3840   43.9690 H   0  0  0  0  0  0  0  0  0  0  0  0
   47.2310   30.6700   45.8920 C   0  0  0  0  0  0  0  0  0  0  0  0
   46.5750   30.9450   47.0800 C   0  0  0  0  0  0  0  0  0  0  0  0
   46.5500   30.0320   48.0820 N   0  0  0  0  0  0  0  0  0  0  0  0
   45.9150   30.2780   49.2500 C   0  0  0  0  0  0  0  0  0  0  0  0
   45.8940   29.5440   50.0600 H   0  0  0  0  0  0  0  0  0  0  0  0
   45.2790   31.4940   49.4160 C   0  0  0  0  0  0  0  0  0  0  0  0
   45.2830   32.4430   48.4200 C   0  0  0  0  0  0  0  0  0  0  0  0
   45.9380   32.1530   47.2510 C   0  0  0  0  0  0  0  0  0  0  0  0
   45.9870   33.0540   46.2060 C   0  0  0  0  0  0  0  0  0  0  0  0
   48.8200   35.4150   41.3880 C   0  0  0  0  0  0  0  0  0  0  0  0
   48.5340   35.3200   40.0390 F   0  0  0  0  0  0  0  0  0  0  0  0
   49.3270   36.6540   41.7200 F   0  0  0  0  0  0  0  0  0  0  0  0
   49.8090   34.4760   41.7150 F   0  0  0  0  0  0  0  0  0  0  0  0
  1  2  1  0  0  0  0
  2  7  1  0  0  0  0
  2  3  2  0  0  0  0
  3  9  1  0  0  0  0
  4  3  1  0  0  0  0
  5  4  2  0  0  0  0
  6  1  2  0  0  0  0
  6  5  1  0  0  0  0
  8  5  1  0  0  0  0
  9 20  1  0  0  0  0
 10  9  2  0  0  0  0
 10 12  1  0  0  0  0
 11 10  1  0  0  0  0
 12 13  2  0  0  0  0
 13 19  1  0  0  0  0
 13 14  1  0  0  0  0
 14 15  2  0  0  0  0
 15 17  1  0  0  0  0
 15 16  1  0  0  0  0
 18 17  2  0  0  0  0
 19 18  1  0  0  0  0
 20 19  2  0  0  0  0
 21 24  1  0  0  0  0
 21 23  1  0  0  0  0
 21  1  1  0  0  0  0
 22 21  1  0  0  0  0
M  END
>  <minimizedAffinity>
-6.12455273

>  <minimizedRMSD>
1.10852563

$$$$
