
 OpenBabel03252502353D

 43 46  0  0  1  0  0  0  0  0999 V2000
   35.5530   28.4330   38.2970 C   0  0  2  0  0  0  0  0  0  0  0  0
   34.5570   27.4910   37.6010 C   0  0  0  0  0  0  0  0  0  0  0  0
   33.6700   28.4350   36.7800 C   0  0  0  0  0  0  0  0  0  0  0  0
   34.5740   28.8390   35.6280 C   0  0  0  0  0  0  0  0  0  0  0  0
   35.7280   29.6180   36.1270 C   0  0  0  0  0  0  0  0  0  0  0  0
   36.4590   29.0170   37.2780 C   0  0  1  0  0  0  0  0  0  0  0  0
   34.9050   29.2280   38.7260 H   0  0  0  0  0  0  0  0  0  0  0  0
   33.9790   26.9040   38.3140 H   0  0  0  0  0  0  0  0  0  0  0  0
   35.1360   26.8460   36.9010 H   0  0  0  0  0  0  0  0  0  0  0  0
   32.8140   27.8270   36.4260 H   0  0  0  0  0  0  0  0  0  0  0  0
   33.3980   29.2810   37.4270 H   0  0  0  0  0  0  0  0  0  0  0  0
   34.9650   27.9090   35.1630 H   0  0  0  0  0  0  0  0  0  0  0  0
   34.0180   29.4710   34.9070 H   0  0  0  0  0  0  0  0  0  0  0  0
   35.3780   30.6580   36.3900 H   0  0  0  0  0  0  0  0  0  0  0  0
   36.4650   29.7830   35.3060 H   0  0  0  0  0  0  0  0  0  0  0  0
   37.0520   28.1560   36.8520 H   0  0  0  0  0  0  0  0  0  0  0  0
   37.4210   29.9800   37.7940 C   0  0  0  0  0  0  0  0  0  0  0  0
   38.7980   29.8170   37.6980 C   0  0  0  0  0  0  0  0  0  0  0  0
   39.1270   28.9090   37.2030 H   0  0  0  0  0  0  0  0  0  0  0  0
   39.7150   30.7260   38.1850 C   0  0  0  0  0  3  0  0  0  0  0  0
   39.2520   31.8820   38.8150 C   0  0  0  0  0  0  0  0  0  0  0  0
   40.0870   32.8100   39.3120 N   0  0  0  0  0  0  0  0  0  0  0  0
   39.6320   33.9290   39.9220 C   0  0  0  0  0  0  0  0  0  0  0  0
   40.3120   34.6840   40.3260 H   0  0  0  0  0  0  0  0  0  0  0  0
   38.2610   34.1450   40.0470 C   0  0  0  0  0  3  0  0  0  0  0  0
   37.3480   33.2290   39.5560 C   0  0  0  0  0  3  0  0  0  0  0  0
   37.9000   32.1190   38.9510 C   0  0  0  0  0  0  0  0  0  0  0  0
   37.0460   31.1650   38.4390 C   0  0  0  0  0  3  0  0  0  0  0  0
   36.9350   27.3110   41.6000 C   0  0  0  0  0  0  0  0  0  0  0  0
   36.2800   28.1400   40.6630 C   0  0  0  0  0  0  0  0  0  0  0  0
   36.1970   27.6680   39.3410 C   0  0  0  0  0  0  0  0  0  0  0  0
   36.7490   26.4540   39.0580 N   0  0  0  0  0  0  0  0  0  0  0  0
   37.3600   25.6970   39.9620 C   0  0  0  0  0  0  0  0  0  0  0  0
   37.4520   26.1330   41.2480 N   0  0  0  0  0  0  0  0  0  0  0  0
   35.8470   29.1020   40.9050 H   0  0  0  0  0  0  0  0  0  0  0  0
   37.0110   27.8330   42.9960 C   0  0  0  0  0  0  0  0  0  0  0  0
   37.1290   29.2110   43.0120 F   0  0  0  0  0  0  0  0  0  0  0  0
   35.8700   27.4080   43.6800 F   0  0  0  0  0  0  0  0  0  0  0  0
   38.0790   27.2430   43.6600 F   0  0  0  0  0  0  0  0  0  0  0  0
   37.9490   24.3770   39.6040 C   0  0  0  0  0  0  0  0  0  0  0  0
   37.9780   24.1810   38.2580 F   0  0  0  0  0  0  0  0  0  0  0  0
   37.2280   23.3460   40.2490 F   0  0  0  0  0  0  0  0  0  0  0  0
   39.2140   24.2460   40.1240 F   0  0  0  0  0  0  0  0  0  0  0  0
  1  7  1  1  0  0  0
  1 31  1  0  0  0  0
  2  1  1  0  0  0  0
  2  8  1  0  0  0  0
  3 11  1  0  0  0  0
  3  2  1  0  0  0  0
  4  5  1  0  0  0  0
  4  3  1  0  0  0  0
  5 14  1  0  0  0  0
  5  6  1  0  0  0  0
  6 16  1  6  0  0  0
  6 17  1  0  0  0  0
  6  1  1  0  0  0  0
  9  2  1  0  0  0  0
 10  3  1  0  0  0  0
 12  4  1  0  0  0  0
 13  4  1  0  0  0  0
 15  5  1  0  0  0  0
 17 28  1  0  0  0  0
 18 17  2  0  0  0  0
 18 20  1  0  0  0  0
 19 18  1  0  0  0  0
 20 21  2  0  0  0  0
 21 27  1  0  0  0  0
 21 22  1  0  0  0  0
 22 23  2  0  0  0  0
 23 25  1  0  0  0  0
 23 24  1  0  0  0  0
 26 25  2  0  0  0  0
 27 26  1  0  0  0  0
 28 27  2  0  0  0  0
 29 36  1  0  0  0  0
 30 35  1  0  0  0  0
 30 29  2  0  0  0  0
 31 30  1  0  0  0  0
 32 31  2  0  0  0  0
 32 33  1  0  0  0  0
 33 34  2  0  0  0  0
 34 29  1  0  0  0  0
 36 37  1  0  0  0  0
 36 39  1  0  0  0  0
 36 38  1  0  0  0  0
 40 33  1  0  0  0  0
 40 43  1  0  0  0  0
 40 42  1  0  0  0  0
 41 40  1  0  0  0  0
M  END
>  <minimizedAffinity>
-6.9957428

$$$$

 OpenBabel03252502353D

 43 46  0  0  1  0  0  0  0  0999 V2000
   35.5880   28.3620   38.3160 C   0  0  2  0  0  0  0  0  0  0  0  0
   34.5910   27.4290   37.6100 C   0  0  0  0  0  0  0  0  0  0  0  0
   33.6650   28.3870   36.8500 C   0  0  0  0  0  0  0  0  0  0  0  0
   34.5290   28.8540   35.6920 C   0  0  0  0  0  0  0  0  0  0  0  0
   35.6820   29.6350   36.1910 C   0  0  0  0  0  0  0  0  0  0  0  0
   36.4550   29.0050   37.2980 C   0  0  1  0  0  0  0  0  0  0  0  0
   34.9370   29.1270   38.7940 H   0  0  0  0  0  0  0  0  0  0  0  0
   34.0440   26.8030   38.3140 H   0  0  0  0  0  0  0  0  0  0  0  0
   35.1630   26.8240   36.8690 H   0  0  0  0  0  0  0  0  0  0  0  0
   32.8110   27.7760   36.4960 H   0  0  0  0  0  0  0  0  0  0  0  0
   33.3940   29.2010   37.5370 H   0  0  0  0  0  0  0  0  0  0  0  0
   34.9250   27.9510   35.1800 H   0  0  0  0  0  0  0  0  0  0  0  0
   33.9420   29.5030   35.0120 H   0  0  0  0  0  0  0  0  0  0  0  0
   35.3200   30.6580   36.5050 H   0  0  0  0  0  0  0  0  0  0  0  0
   36.3920   29.8470   35.3580 H   0  0  0  0  0  0  0  0  0  0  0  0
   37.0520   28.1720   36.8220 H   0  0  0  0  0  0  0  0  0  0  0  0
   37.4120   29.9650   37.8260 C   0  0  0  0  0  0  0  0  0  0  0  0
   38.7890   29.7870   37.7700 C   0  0  0  0  0  0  0  0  0  0  0  0
   39.1230   28.8680   37.2980 H   0  0  0  0  0  0  0  0  0  0  0  0
   39.7020   30.6940   38.2690 C   0  0  0  0  0  3  0  0  0  0  0  0
   39.2340   31.8640   38.8690 C   0  0  0  0  0  0  0  0  0  0  0  0
   40.0640   32.7910   39.3750 N   0  0  0  0  0  0  0  0  0  0  0  0
   39.6050   33.9240   39.9560 C   0  0  0  0  0  0  0  0  0  0  0  0
   40.2810   34.6770   40.3680 H   0  0  0  0  0  0  0  0  0  0  0  0
   38.2330   34.1550   40.0400 C   0  0  0  0  0  3  0  0  0  0  0  0
   37.3250   33.2400   39.5370 C   0  0  0  0  0  3  0  0  0  0  0  0
   37.8810   32.1160   38.9640 C   0  0  0  0  0  0  0  0  0  0  0  0
   37.0310   31.1630   38.4420 C   0  0  0  0  0  3  0  0  0  0  0  0
   37.5460   25.6650   40.0390 C   0  0  0  0  0  0  0  0  0  0  0  0
   36.9090   26.3580   38.9860 C   0  0  0  0  0  0  0  0  0  0  0  0
   36.2750   27.5700   39.3110 C   0  0  0  0  0  0  0  0  0  0  0  0
   36.3200   27.9890   40.6070 N   0  0  0  0  0  0  0  0  0  0  0  0
   36.9280   27.3150   41.5760 C   0  0  0  0  0  0  0  0  0  0  0  0
   37.5480   26.1390   41.2860 N   0  0  0  0  0  0  0  0  0  0  0  0
   36.8820   26.0100   37.9620 H   0  0  0  0  0  0  0  0  0  0  0  0
   38.2110   24.3810   39.6700 C   0  0  0  0  0  0  0  0  0  0  0  0
   39.5870   24.4830   39.7600 F   0  0  0  0  0  0  0  0  0  0  0  0
   37.7150   23.3800   40.5090 F   0  0  0  0  0  0  0  0  0  0  0  0
   37.8310   24.0070   38.3870 F   0  0  0  0  0  0  0  0  0  0  0  0
   36.9490   27.8130   42.9800 C   0  0  0  0  0  0  0  0  0  0  0  0
   35.8530   27.4100   43.6790 F   0  0  0  0  0  0  0  0  0  0  0  0
   37.0570   29.2230   42.9790 F   0  0  0  0  0  0  0  0  0  0  0  0
   38.0910   27.4110   43.6270 F   0  0  0  0  0  0  0  0  0  0  0  0
  1  7  1  1  0  0  0
  1 31  1  0  0  0  0
  2  8  1  0  0  0  0
  2  1  1  0  0  0  0
  3 11  1  0  0  0  0
  3  2  1  0  0  0  0
  4  5  1  0  0  0  0
  4  3  1  0  0  0  0
  5 14  1  0  0  0  0
  5  6  1  0  0  0  0
  6 16  1  6  0  0  0
  6 17  1  0  0  0  0
  6  1  1  0  0  0  0
  9  2  1  0  0  0  0
 10  3  1  0  0  0  0
 12  4  1  0  0  0  0
 13  4  1  0  0  0  0
 15  5  1  0  0  0  0
 17 28  1  0  0  0  0
 18 17  2  0  0  0  0
 18 20  1  0  0  0  0
 19 18  1  0  0  0  0
 20 21  2  0  0  0  0
 21 27  1  0  0  0  0
 21 22  1  0  0  0  0
 22 23  2  0  0  0  0
 23 25  1  0  0  0  0
 23 24  1  0  0  0  0
 26 25  2  0  0  0  0
 27 26  1  0  0  0  0
 28 27  2  0  0  0  0
 29 34  1  0  0  0  0
 30 31  1  0  0  0  0
 30 29  2  0  0  0  0
 31 32  2  0  0  0  0
 32 33  1  0  0  0  0
 33 40  1  0  0  0  0
 34 33  2  0  0  0  0
 35 30  1  0  0  0  0
 36 37  1  0  0  0  0
 36 29  1  0  0  0  0
 36 38  1  0  0  0  0
 39 36  1  0  0  0  0
 40 43  1  0  0  0  0
 40 41  1  0  0  0  0
 42 40  1  0  0  0  0
M  END
>  <minimizedAffinity>
-6.89655638

$$$$

 OpenBabel03252502353D

 43 46  0  0  1  0  0  0  0  0999 V2000
   36.4920   29.2050   37.2700 C   0  0  2  0  0  0  0  0  0  0  0  0
   35.7890   29.9770   36.1420 C   0  0  0  0  0  0  0  0  0  0  0  0
   34.9020   28.9210   35.4710 C   0  0  0  0  0  0  0  0  0  0  0  0
   33.7730   28.7360   36.4710 C   0  0  0  0  0  0  0  0  0  0  0  0
   34.2910   28.1610   37.7320 C   0  0  0  0  0  0  0  0  0  0  0  0
   35.4900   28.8380   38.3020 C   0  0  1  0  0  0  0  0  0  0  0  0
   36.8680   28.2890   36.7660 H   0  0  0  0  0  0  0  0  0  0  0  0
   36.4990   30.4200   35.4430 H   0  0  0  0  0  0  0  0  0  0  0  0
   35.1350   30.7450   36.6150 H   0  0  0  0  0  0  0  0  0  0  0  0
   34.5360   29.3770   34.5300 H   0  0  0  0  0  0  0  0  0  0  0  0
   35.5080   28.0140   35.3380 H   0  0  0  0  0  0  0  0  0  0  0  0
   33.3560   29.7400   36.6990 H   0  0  0  0  0  0  0  0  0  0  0  0
   33.0100   28.0430   36.0650 H   0  0  0  0  0  0  0  0  0  0  0  0
   34.5050   27.0650   37.5710 H   0  0  0  0  0  0  0  0  0  0  0  0
   33.4940   28.1670   38.5120 H   0  0  0  0  0  0  0  0  0  0  0  0
   35.1170   29.8100   38.7390 H   0  0  0  0  0  0  0  0  0  0  0  0
   36.0100   28.0470   39.4070 C   0  0  0  0  0  0  0  0  0  0  0  0
   36.1190   28.5240   40.7080 C   0  0  0  0  0  0  0  0  0  0  0  0
   35.7860   29.5450   40.8610 H   0  0  0  0  0  0  0  0  0  0  0  0
   36.6120   27.7790   41.7600 C   0  0  0  0  0  3  0  0  0  0  0  0
   37.0300   26.4680   41.5230 C   0  0  0  0  0  0  0  0  0  0  0  0
   37.5200   25.6850   42.4990 N   0  0  0  0  0  0  0  0  0  0  0  0
   37.9250   24.4150   42.2640 C   0  0  0  0  0  0  0  0  0  0  0  0
   38.3230   23.7790   43.0590 H   0  0  0  0  0  0  0  0  0  0  0  0
   37.8390   23.8850   40.9780 C   0  0  0  0  0  3  0  0  0  0  0  0
   37.3430   24.6390   39.9290 C   0  0  0  0  0  3  0  0  0  0  0  0
   36.9550   25.9200   40.2590 C   0  0  0  0  0  0  0  0  0  0  0  0
   36.4520   26.7270   39.2600 C   0  0  0  0  0  3  0  0  0  0  0  0
   38.5100   31.9290   38.8780 C   0  0  0  0  0  0  0  0  0  0  0  0
   37.3690   31.1960   38.4870 C   0  0  0  0  0  0  0  0  0  0  0  0
   37.5850   30.0320   37.7290 C   0  0  0  0  0  0  0  0  0  0  0  0
   38.8710   29.6940   37.4280 N   0  0  0  0  0  0  0  0  0  0  0  0
   39.9260   30.4050   37.8100 C   0  0  0  0  0  0  0  0  0  0  0  0
   39.7400   31.5350   38.5440 N   0  0  0  0  0  0  0  0  0  0  0  0
   36.3540   31.4790   38.7350 H   0  0  0  0  0  0  0  0  0  0  0  0
   38.2550   33.1610   39.6810 C   0  0  0  0  0  0  0  0  0  0  0  0
   39.2830   34.0750   39.5400 F   0  0  0  0  0  0  0  0  0  0  0  0
   37.0320   33.6980   39.2730 F   0  0  0  0  0  0  0  0  0  0  0  0
   38.0800   32.8220   41.0170 F   0  0  0  0  0  0  0  0  0  0  0  0
   41.3130   29.9950   37.4540 C   0  0  0  0  0  0  0  0  0  0  0  0
   42.0760   29.7700   38.5580 F   0  0  0  0  0  0  0  0  0  0  0  0
   41.8990   30.9810   36.6270 F   0  0  0  0  0  0  0  0  0  0  0  0
   41.3060   28.8790   36.6540 F   0  0  0  0  0  0  0  0  0  0  0  0
  1  7  1  6  0  0  0
  1 31  1  0  0  0  0
  1  6  1  0  0  0  0
  2  9  1  0  0  0  0
  2  1  1  0  0  0  0
  3  2  1  0  0  0  0
  3  4  1  0  0  0  0
  4 12  1  0  0  0  0
  4  5  1  0  0  0  0
  5  6  1  0  0  0  0
  5 15  1  0  0  0  0
  6 16  1  1  0  0  0
  6 17  1  0  0  0  0
  8  2  1  0  0  0  0
 10  3  1  0  0  0  0
 11  3  1  0  0  0  0
 13  4  1  0  0  0  0
 14  5  1  0  0  0  0
 17 18  1  0  0  0  0
 18 19  1  0  0  0  0
 18 20  2  0  0  0  0
 21 20  1  0  0  0  0
 21 22  1  0  0  0  0
 23 22  2  0  0  0  0
 23 24  1  0  0  0  0
 25 23  1  0  0  0  0
 26 27  1  0  0  0  0
 26 25  2  0  0  0  0
 27 21  2  0  0  0  0
 28 17  2  0  0  0  0
 28 27  1  0  0  0  0
 29 36  1  0  0  0  0
 30 35  1  0  0  0  0
 30 29  2  0  0  0  0
 31 30  1  0  0  0  0
 32 31  2  0  0  0  0
 32 33  1  0  0  0  0
 33 34  2  0  0  0  0
 34 29  1  0  0  0  0
 36 39  1  0  0  0  0
 37 36  1  0  0  0  0
 38 36  1  0  0  0  0
 40 33  1  0  0  0  0
 40 41  1  0  0  0  0
 42 40  1  0  0  0  0
 43 40  1  0  0  0  0
M  END
>  <minimizedAffinity>
-6.46485186

$$$$

 OpenBabel03252502353D

 43 46  0  0  1  0  0  0  0  0999 V2000
   37.3370   31.2910   39.6100 C   0  0  2  0  0  0  0  0  0  0  0  0
   37.3270   32.5690   38.7560 C   0  0  0  0  0  0  0  0  0  0  0  0
   37.3350   33.7020   39.7890 C   0  0  0  0  0  0  0  0  0  0  0  0
   38.7630   33.6850   40.3070 C   0  0  0  0  0  0  0  0  0  0  0  0
   39.0370   32.4170   41.0190 C   0  0  0  0  0  0  0  0  0  0  0  0
   38.6490   31.1750   40.2930 C   0  0  1  0  0  0  0  0  0  0  0  0
   36.5360   31.4710   40.3590 H   0  0  0  0  0  0  0  0  0  0  0  0
   36.4580   32.6190   38.1000 H   0  0  0  0  0  0  0  0  0  0  0  0
   38.2830   32.6010   38.1850 H   0  0  0  0  0  0  0  0  0  0  0  0
   37.1200   34.6340   39.2290 H   0  0  0  0  0  0  0  0  0  0  0  0
   36.5960   33.4500   40.5630 H   0  0  0  0  0  0  0  0  0  0  0  0
   39.4410   33.7380   39.4290 H   0  0  0  0  0  0  0  0  0  0  0  0
   38.9240   34.5200   41.0180 H   0  0  0  0  0  0  0  0  0  0  0  0
   38.5320   32.4500   42.0280 H   0  0  0  0  0  0  0  0  0  0  0  0
   40.1230   32.3420   41.2650 H   0  0  0  0  0  0  0  0  0  0  0  0
   39.4180   31.0420   39.4770 H   0  0  0  0  0  0  0  0  0  0  0  0
   38.7760   30.0340   41.1870 C   0  0  0  0  0  0  0  0  0  0  0  0
   38.0080   29.8670   42.3330 C   0  0  0  0  0  0  0  0  0  0  0  0
   37.2880   30.6540   42.5310 H   0  0  0  0  0  0  0  0  0  0  0  0
   38.1240   28.7880   43.1840 C   0  0  0  0  0  3  0  0  0  0  0  0
   39.0620   27.7950   42.8950 C   0  0  0  0  0  0  0  0  0  0  0  0
   39.2290   26.7170   43.6790 N   0  0  0  0  0  0  0  0  0  0  0  0
   40.1400   25.7580   43.3930 C   0  0  0  0  0  0  0  0  0  0  0  0
   40.2750   24.8810   44.0320 H   0  0  0  0  0  0  0  0  0  0  0  0
   40.9380   25.8730   42.2570 C   0  0  0  0  0  3  0  0  0  0  0  0
   40.8150   26.9590   41.4080 C   0  0  0  0  0  3  0  0  0  0  0  0
   39.8640   27.8860   41.7760 C   0  0  0  0  0  0  0  0  0  0  0  0
   39.6890   28.9940   40.9730 C   0  0  0  0  0  3  0  0  0  0  0  0
   36.5010   27.8900   38.2640 C   0  0  0  0  0  0  0  0  0  0  0  0
   36.8360   28.8820   39.2110 C   0  0  0  0  0  0  0  0  0  0  0  0
   36.9910   30.1960   38.7320 C   0  0  0  0  0  0  0  0  0  0  0  0
   36.8080   30.4180   37.4000 N   0  0  0  0  0  0  0  0  0  0  0  0
   36.4930   29.4620   36.5330 C   0  0  0  0  0  0  0  0  0  0  0  0
   36.3370   28.1840   36.9730 N   0  0  0  0  0  0  0  0  0  0  0  0
   36.9780   28.6880   40.2660 H   0  0  0  0  0  0  0  0  0  0  0  0
   36.3420   26.5050   38.7950 C   0  0  0  0  0  0  0  0  0  0  0  0
   35.2470   25.8740   38.2340 F   0  0  0  0  0  0  0  0  0  0  0  0
   37.5230   25.8040   38.5390 F   0  0  0  0  0  0  0  0  0  0  0  0
   36.2300   26.5420   40.1800 F   0  0  0  0  0  0  0  0  0  0  0  0
   36.3050   29.7540   35.0850 C   0  0  0  0  0  0  0  0  0  0  0  0
   36.6530   31.0330   34.7740 F   0  0  0  0  0  0  0  0  0  0  0  0
   34.9640   29.4930   34.7200 F   0  0  0  0  0  0  0  0  0  0  0  0
   37.0180   28.8740   34.3090 F   0  0  0  0  0  0  0  0  0  0  0  0
  1  6  1  0  0  0  0
  1  7  1  1  0  0  0
  2  1  1  0  0  0  0
  2  3  1  0  0  0  0
  3  4  1  0  0  0  0
  3 11  1  0  0  0  0
  4 13  1  0  0  0  0
  4  5  1  0  0  0  0
  5 15  1  0  0  0  0
  5 14  1  0  0  0  0
  6 16  1  6  0  0  0
  6  5  1  0  0  0  0
  6 17  1  0  0  0  0
  8  2  1  0  0  0  0
  9  2  1  0  0  0  0
 10  3  1  0  0  0  0
 12  4  1  0  0  0  0
 17 18  1  0  0  0  0
 18 19  1  0  0  0  0
 18 20  2  0  0  0  0
 21 20  1  0  0  0  0
 21 22  1  0  0  0  0
 23 22  2  0  0  0  0
 23 24  1  0  0  0  0
 25 23  1  0  0  0  0
 26 27  1  0  0  0  0
 26 25  2  0  0  0  0
 27 21  2  0  0  0  0
 28 17  2  0  0  0  0
 28 27  1  0  0  0  0
 29 36  1  0  0  0  0
 29 30  1  0  0  0  0
 30 35  1  0  0  0  0
 31 30  2  0  0  0  0
 31  1  1  0  0  0  0
 32 31  1  0  0  0  0
 33 34  1  0  0  0  0
 33 32  2  0  0  0  0
 34 29  2  0  0  0  0
 36 39  1  0  0  0  0
 37 36  1  0  0  0  0
 38 36  1  0  0  0  0
 40 33  1  0  0  0  0
 41 40  1  0  0  0  0
 42 40  1  0  0  0  0
 43 40  1  0  0  0  0
M  END
>  <minimizedAffinity>
-6.40555954

$$$$

 OpenBabel03252502353D

 43 46  0  0  1  0  0  0  0  0999 V2000
   35.6970   27.9690   38.3220 C   0  0  2  0  0  0  0  0  0  0  0  0
   34.9570   26.8490   37.5740 C   0  0  0  0  0  0  0  0  0  0  0  0
   33.8610   27.5870   36.7950 C   0  0  0  0  0  0  0  0  0  0  0  0
   34.6320   28.2560   35.6700 C   0  0  0  0  0  0  0  0  0  0  0  0
   35.5640   29.2670   36.2140 C   0  0  0  0  0  0  0  0  0  0  0  0
   36.4270   28.8070   37.3390 C   0  0  1  0  0  0  0  0  0  0  0  0
   34.8770   28.5590   38.7860 H   0  0  0  0  0  0  0  0  0  0  0  0
   34.5440   26.1030   38.2530 H   0  0  0  0  0  0  0  0  0  0  0  0
   35.6710   26.4000   36.8460 H   0  0  0  0  0  0  0  0  0  0  0  0
   33.1770   26.8060   36.4060 H   0  0  0  0  0  0  0  0  0  0  0  0
   33.3950   28.3070   37.4810 H   0  0  0  0  0  0  0  0  0  0  0  0
   35.2350   27.4740   35.1620 H   0  0  0  0  0  0  0  0  0  0  0  0
   33.9340   28.7690   34.9780 H   0  0  0  0  0  0  0  0  0  0  0  0
   34.9720   30.1770   36.5270 H   0  0  0  0  0  0  0  0  0  0  0  0
   36.2330   29.6480   35.4060 H   0  0  0  0  0  0  0  0  0  0  0  0
   37.2090   28.1380   36.8740 H   0  0  0  0  0  0  0  0  0  0  0  0
   37.1280   29.9490   37.9080 C   0  0  0  0  0  0  0  0  0  0  0  0
   36.5340   30.8620   38.7710 C   0  0  0  0  0  0  0  0  0  0  0  0
   35.4920   30.6730   39.0050 H   0  0  0  0  0  0  0  0  0  0  0  0
   37.1940   31.9460   39.3130 C   0  0  0  0  0  3  0  0  0  0  0  0
   38.5350   32.1540   38.9870 C   0  0  0  0  0  0  0  0  0  0  0  0
   39.2390   33.1880   39.4780 N   0  0  0  0  0  0  0  0  0  0  0  0
   40.5390   33.3850   39.1580 C   0  0  0  0  0  0  0  0  0  0  0  0
   41.1110   34.2270   39.5580 H   0  0  0  0  0  0  0  0  0  0  0  0
   41.1850   32.5010   38.2970 C   0  0  0  0  0  3  0  0  0  0  0  0
   40.5170   31.4160   37.7580 C   0  0  0  0  0  3  0  0  0  0  0  0
   39.1970   31.2930   38.1370 C   0  0  0  0  0  0  0  0  0  0  0  0
   38.4710   30.2330   37.6350 C   0  0  0  0  0  3  0  0  0  0  0  0
   38.0470   25.6550   40.1100 C   0  0  0  0  0  0  0  0  0  0  0  0
   37.2900   26.1940   39.0480 C   0  0  0  0  0  0  0  0  0  0  0  0
   36.5150   27.3340   39.3300 C   0  0  0  0  0  0  0  0  0  0  0  0
   36.5500   27.8340   40.5970 N   0  0  0  0  0  0  0  0  0  0  0  0
   37.2740   27.3030   41.5760 C   0  0  0  0  0  0  0  0  0  0  0  0
   38.0310   26.2010   41.3270 N   0  0  0  0  0  0  0  0  0  0  0  0
   37.2730   25.7840   38.0460 H   0  0  0  0  0  0  0  0  0  0  0  0
   38.8610   24.4460   39.7860 C   0  0  0  0  0  0  0  0  0  0  0  0
   38.8840   24.2050   38.4250 F   0  0  0  0  0  0  0  0  0  0  0  0
   40.1470   24.6410   40.2940 F   0  0  0  0  0  0  0  0  0  0  0  0
   38.3590   23.3450   40.4700 F   0  0  0  0  0  0  0  0  0  0  0  0
   37.2790   27.8860   42.9470 C   0  0  0  0  0  0  0  0  0  0  0  0
   37.2810   29.2470   42.9220 F   0  0  0  0  0  0  0  0  0  0  0  0
   38.3910   27.3920   43.6670 F   0  0  0  0  0  0  0  0  0  0  0  0
   36.2070   27.4340   43.6760 F   0  0  0  0  0  0  0  0  0  0  0  0
  1  7  1  1  0  0  0
  1 31  1  0  0  0  0
  2  8  1  0  0  0  0
  2  1  1  0  0  0  0
  3 11  1  0  0  0  0
  3  2  1  0  0  0  0
  4  5  1  0  0  0  0
  4  3  1  0  0  0  0
  5 14  1  0  0  0  0
  5  6  1  0  0  0  0
  6 16  1  6  0  0  0
  6 17  1  0  0  0  0
  6  1  1  0  0  0  0
  9  2  1  0  0  0  0
 10  3  1  0  0  0  0
 12  4  1  0  0  0  0
 13  4  1  0  0  0  0
 15  5  1  0  0  0  0
 17 18  1  0  0  0  0
 18 19  1  0  0  0  0
 18 20  2  0  0  0  0
 21 20  1  0  0  0  0
 21 22  1  0  0  0  0
 23 22  2  0  0  0  0
 23 24  1  0  0  0  0
 25 23  1  0  0  0  0
 26 27  1  0  0  0  0
 26 25  2  0  0  0  0
 27 21  2  0  0  0  0
 28 17  2  0  0  0  0
 28 27  1  0  0  0  0
 29 34  1  0  0  0  0
 30 31  1  0  0  0  0
 30 29  2  0  0  0  0
 31 32  2  0  0  0  0
 32 33  1  0  0  0  0
 33 40  1  0  0  0  0
 34 33  2  0  0  0  0
 35 30  1  0  0  0  0
 36 29  1  0  0  0  0
 36 38  1  0  0  0  0
 36 39  1  0  0  0  0
 37 36  1  0  0  0  0
 40 42  1  0  0  0  0
 40 43  1  0  0  0  0
 41 40  1  0  0  0  0
M  END
>  <minimizedAffinity>
-6.37895632

$$$$

 OpenBabel03252502353D

 43 46  0  0  1  0  0  0  0  0999 V2000
   37.1740   29.2960   38.5200 C   0  0  2  0  0  0  0  0  0  0  0  0
   36.1830   29.9620   37.5530 C   0  0  0  0  0  0  0  0  0  0  0  0
   35.0780   28.9130   37.3780 C   0  0  0  0  0  0  0  0  0  0  0  0
   34.3240   28.9850   38.6950 C   0  0  0  0  0  0  0  0  0  0  0  0
   35.1930   28.5500   39.8100 C   0  0  0  0  0  0  0  0  0  0  0  0
   36.5430   29.1810   39.8580 C   0  0  1  0  0  0  0  0  0  0  0  0
   37.3240   28.2840   38.0860 H   0  0  0  0  0  0  0  0  0  0  0  0
   36.6490   30.2280   36.6040 H   0  0  0  0  0  0  0  0  0  0  0  0
   35.7520   30.8500   38.0700 H   0  0  0  0  0  0  0  0  0  0  0  0
   34.4500   29.2610   36.5340 H   0  0  0  0  0  0  0  0  0  0  0  0
   35.5660   27.9410   37.2170 H   0  0  0  0  0  0  0  0  0  0  0  0
   34.0500   30.0470   38.8690 H   0  0  0  0  0  0  0  0  0  0  0  0
   33.4390   28.3180   38.6680 H   0  0  0  0  0  0  0  0  0  0  0  0
   35.2920   27.4260   39.7770 H   0  0  0  0  0  0  0  0  0  0  0  0
   34.6920   28.7460   40.7870 H   0  0  0  0  0  0  0  0  0  0  0  0
   36.3760   30.2380   40.2200 H   0  0  0  0  0  0  0  0  0  0  0  0
   37.3540   28.5110   40.8630 C   0  0  0  0  0  0  0  0  0  0  0  0
   37.8340   29.1390   42.0050 C   0  0  0  0  0  0  0  0  0  0  0  0
   37.5650   30.1840   42.1120 H   0  0  0  0  0  0  0  0  0  0  0  0
   38.6040   28.5080   42.9620 C   0  0  0  0  0  3  0  0  0  0  0  0
   38.9290   27.1620   42.7890 C   0  0  0  0  0  0  0  0  0  0  0  0
   39.6740   26.4850   43.6800 N   0  0  0  0  0  0  0  0  0  0  0  0
   39.9860   25.1790   43.5060 C   0  0  0  0  0  0  0  0  0  0  0  0
   40.5920   24.6290   44.2320 H   0  0  0  0  0  0  0  0  0  0  0  0
   39.5310   24.4990   42.3790 C   0  0  0  0  0  3  0  0  0  0  0  0
   38.7600   25.1390   41.4240 C   0  0  0  0  0  3  0  0  0  0  0  0
   38.4910   26.4660   41.6820 C   0  0  0  0  0  0  0  0  0  0  0  0
   37.7260   27.1640   40.7700 C   0  0  0  0  0  3  0  0  0  0  0  0
   39.7360   32.0010   38.9640 C   0  0  0  0  0  0  0  0  0  0  0  0
   38.4980   31.3330   39.0780 C   0  0  0  0  0  0  0  0  0  0  0  0
   38.3950   30.0690   38.4710 C   0  0  0  0  0  0  0  0  0  0  0  0
   39.4880   29.5800   37.8210 N   0  0  0  0  0  0  0  0  0  0  0  0
   40.6410   30.2330   37.7300 C   0  0  0  0  0  0  0  0  0  0  0  0
   40.7640   31.4580   38.3100 N   0  0  0  0  0  0  0  0  0  0  0  0
   37.6390   31.7370   39.5990 H   0  0  0  0  0  0  0  0  0  0  0  0
   39.8210   33.3410   39.6160 C   0  0  0  0  0  0  0  0  0  0  0  0
   40.7250   34.1600   38.9650 F   0  0  0  0  0  0  0  0  0  0  0  0
   38.5410   33.8980   39.6280 F   0  0  0  0  0  0  0  0  0  0  0  0
   40.1710   33.1910   40.9520 F   0  0  0  0  0  0  0  0  0  0  0  0
   41.8090   29.6570   37.0060 C   0  0  0  0  0  0  0  0  0  0  0  0
   42.4100   30.5740   36.1990 F   0  0  0  0  0  0  0  0  0  0  0  0
   41.3950   28.5270   36.2640 F   0  0  0  0  0  0  0  0  0  0  0  0
   42.7240   29.1360   37.8860 F   0  0  0  0  0  0  0  0  0  0  0  0
  1  7  1  6  0  0  0
  1  6  1  0  0  0  0
  2  9  1  0  0  0  0
  2  1  1  0  0  0  0
  3  2  1  0  0  0  0
  3  4  1  0  0  0  0
  4 12  1  0  0  0  0
  4  5  1  0  0  0  0
  5  6  1  0  0  0  0
  5 15  1  0  0  0  0
  6 16  1  1  0  0  0
  6 17  1  0  0  0  0
  8  2  1  0  0  0  0
 10  3  1  0  0  0  0
 11  3  1  0  0  0  0
 13  4  1  0  0  0  0
 14  5  1  0  0  0  0
 17 18  1  0  0  0  0
 18 19  1  0  0  0  0
 18 20  2  0  0  0  0
 21 20  1  0  0  0  0
 21 22  1  0  0  0  0
 23 22  2  0  0  0  0
 23 24  1  0  0  0  0
 25 23  1  0  0  0  0
 26 27  1  0  0  0  0
 26 25  2  0  0  0  0
 27 21  2  0  0  0  0
 28 17  2  0  0  0  0
 28 27  1  0  0  0  0
 29 30  1  0  0  0  0
 29 36  1  0  0  0  0
 30 35  1  0  0  0  0
 31  1  1  0  0  0  0
 31 30  2  0  0  0  0
 32 31  1  0  0  0  0
 33 32  2  0  0  0  0
 33 34  1  0  0  0  0
 34 29  2  0  0  0  0
 36 38  1  0  0  0  0
 36 39  1  0  0  0  0
 37 36  1  0  0  0  0
 40 33  1  0  0  0  0
 40 43  1  0  0  0  0
 41 40  1  0  0  0  0
 42 40  1  0  0  0  0
M  END
>  <minimizedAffinity>
-6.37467241

$$$$

 OpenBabel03252502353D

 43 46  0  0  1  0  0  0  0  0999 V2000
   36.2030   28.1340   38.8920 C   0  0  2  0  0  0  0  0  0  0  0  0
   35.6330   26.9620   38.0780 C   0  0  0  0  0  0  0  0  0  0  0  0
   34.4360   27.5740   37.3400 C   0  0  0  0  0  0  0  0  0  0  0  0
   35.0930   28.4150   36.2580 C   0  0  0  0  0  0  0  0  0  0  0  0
   35.8680   29.5200   36.8640 C   0  0  0  0  0  0  0  0  0  0  0  0
   36.7960   29.1270   37.9630 C   0  0  1  0  0  0  0  0  0  0  0  0
   35.3080   28.5680   39.3880 H   0  0  0  0  0  0  0  0  0  0  0  0
   35.3390   26.1250   38.7110 H   0  0  0  0  0  0  0  0  0  0  0  0
   36.4020   26.6670   37.3270 H   0  0  0  0  0  0  0  0  0  0  0  0
   33.8730   26.7250   36.9040 H   0  0  0  0  0  0  0  0  0  0  0  0
   33.8720   28.1770   38.0660 H   0  0  0  0  0  0  0  0  0  0  0  0
   35.8020   27.7620   35.7070 H   0  0  0  0  0  0  0  0  0  0  0  0
   34.3230   28.8590   35.5960 H   0  0  0  0  0  0  0  0  0  0  0  0
   35.1500   30.3110   37.2280 H   0  0  0  0  0  0  0  0  0  0  0  0
   36.4690   30.0420   36.0820 H   0  0  0  0  0  0  0  0  0  0  0  0
   37.6660   28.6090   37.4620 H   0  0  0  0  0  0  0  0  0  0  0  0
   37.3240   30.3240   38.6000 C   0  0  0  0  0  0  0  0  0  0  0  0
   36.6100   31.0820   39.5190 C   0  0  0  0  0  0  0  0  0  0  0  0
   35.6100   30.7250   39.7450 H   0  0  0  0  0  0  0  0  0  0  0  0
   37.1050   32.2190   40.1260 C   0  0  0  0  0  3  0  0  0  0  0  0
   38.3950   32.6470   39.8110 C   0  0  0  0  0  0  0  0  0  0  0  0
   38.9410   33.7440   40.3630 N   0  0  0  0  0  0  0  0  0  0  0  0
   40.1930   34.1540   40.0530 C   0  0  0  0  0  0  0  0  0  0  0  0
   40.6360   35.0470   40.5030 H   0  0  0  0  0  0  0  0  0  0  0  0
   40.9540   33.4320   39.1370 C   0  0  0  0  0  3  0  0  0  0  0  0
   40.4510   32.2940   38.5320 C   0  0  0  0  0  3  0  0  0  0  0  0
   39.1690   31.9500   38.9070 C   0  0  0  0  0  0  0  0  0  0  0  0
   38.6050   30.8240   38.3420 C   0  0  0  0  0  3  0  0  0  0  0  0
   37.8400   25.8550   41.3840 C   0  0  0  0  0  0  0  0  0  0  0  0
   36.8890   26.3070   40.4430 C   0  0  0  0  0  0  0  0  0  0  0  0
   37.1120   27.5690   39.8640 C   0  0  0  0  0  0  0  0  0  0  0  0
   38.2220   28.2610   40.2470 N   0  0  0  0  0  0  0  0  0  0  0  0
   39.0990   27.8090   41.1350 C   0  0  0  0  0  0  0  0  0  0  0  0
   38.9040   26.5910   41.7090 N   0  0  0  0  0  0  0  0  0  0  0  0
   36.0120   25.7430   40.1500 H   0  0  0  0  0  0  0  0  0  0  0  0
   37.5810   24.5140   41.9850 C   0  0  0  0  0  0  0  0  0  0  0  0
   37.4670   23.5400   41.0100 F   0  0  0  0  0  0  0  0  0  0  0  0
   38.6210   24.2300   42.8740 F   0  0  0  0  0  0  0  0  0  0  0  0
   36.4320   24.5620   42.7650 F   0  0  0  0  0  0  0  0  0  0  0  0
   40.2970   28.6050   41.5230 C   0  0  0  0  0  0  0  0  0  0  0  0
   40.7670   28.2520   42.7510 F   0  0  0  0  0  0  0  0  0  0  0  0
   39.9840   29.9830   41.4800 F   0  0  0  0  0  0  0  0  0  0  0  0
   41.2940   28.4810   40.5870 F   0  0  0  0  0  0  0  0  0  0  0  0
  1  7  1  1  0  0  0
  1 31  1  0  0  0  0
  2  8  1  0  0  0  0
  2  1  1  0  0  0  0
  3 11  1  0  0  0  0
  3  2  1  0  0  0  0
  4  5  1  0  0  0  0
  4  3  1  0  0  0  0
  5 14  1  0  0  0  0
  5  6  1  0  0  0  0
  6 16  1  6  0  0  0
  6 17  1  0  0  0  0
  6  1  1  0  0  0  0
  9  2  1  0  0  0  0
 10  3  1  0  0  0  0
 12  4  1  0  0  0  0
 13  4  1  0  0  0  0
 15  5  1  0  0  0  0
 17 18  1  0  0  0  0
 18 19  1  0  0  0  0
 18 20  2  0  0  0  0
 21 20  1  0  0  0  0
 21 22  1  0  0  0  0
 23 22  2  0  0  0  0
 23 24  1  0  0  0  0
 25 23  1  0  0  0  0
 26 27  1  0  0  0  0
 26 25  2  0  0  0  0
 27 21  2  0  0  0  0
 28 17  2  0  0  0  0
 28 27  1  0  0  0  0
 29 34  1  0  0  0  0
 29 36  1  0  0  0  0
 30 29  2  0  0  0  0
 31 32  2  0  0  0  0
 31 30  1  0  0  0  0
 32 33  1  0  0  0  0
 33 40  1  0  0  0  0
 33 34  2  0  0  0  0
 35 30  1  0  0  0  0
 36 39  1  0  0  0  0
 36 38  1  0  0  0  0
 37 36  1  0  0  0  0
 40 41  1  0  0  0  0
 42 40  1  0  0  0  0
 43 40  1  0  0  0  0
M  END
>  <minimizedAffinity>
-6.34592915

$$$$

 OpenBabel03252502353D

 43 46  0  0  1  0  0  0  0  0999 V2000
   36.8790   27.9270   41.3000 C   0  0  2  0  0  0  0  0  0  0  0  0
   37.2640   28.9470   42.3830 C   0  0  0  0  0  0  0  0  0  0  0  0
   37.2620   28.1270   43.6790 C   0  0  0  0  0  0  0  0  0  0  0  0
   38.5320   27.3010   43.5640 C   0  0  0  0  0  0  0  0  0  0  0  0
   38.4320   26.3580   42.4280 C   0  0  0  0  0  0  0  0  0  0  0  0
   37.9870   26.9530   41.1370 C   0  0  1  0  0  0  0  0  0  0  0  0
   35.9880   27.4170   41.7260 H   0  0  0  0  0  0  0  0  0  0  0  0
   36.5670   29.7840   42.4270 H   0  0  0  0  0  0  0  0  0  0  0  0
   38.3060   29.2830   42.1760 H   0  0  0  0  0  0  0  0  0  0  0  0
   37.3300   28.8580   44.5090 H   0  0  0  0  0  0  0  0  0  0  0  0
   36.3500   27.5120   43.6810 H   0  0  0  0  0  0  0  0  0  0  0  0
   39.3700   27.9980   43.3570 H   0  0  0  0  0  0  0  0  0  0  0  0
   38.6900   26.7100   44.4880 H   0  0  0  0  0  0  0  0  0  0  0  0
   37.7490   25.5080   42.7200 H   0  0  0  0  0  0  0  0  0  0  0  0
   39.4160   25.8620   42.2530 H   0  0  0  0  0  0  0  0  0  0  0  0
   38.8690   27.5420   40.7480 H   0  0  0  0  0  0  0  0  0  0  0  0
   37.7310   25.8890   40.1780 C   0  0  0  0  0  0  0  0  0  0  0  0
   38.5450   25.6300   39.0820 C   0  0  0  0  0  0  0  0  0  0  0  0
   39.4060   26.2810   38.9760 H   0  0  0  0  0  0  0  0  0  0  0  0
   38.3070   24.6230   38.1700 C   0  0  0  0  0  3  0  0  0  0  0  0
   37.1890   23.8050   38.3410 C   0  0  0  0  0  0  0  0  0  0  0  0
   36.8960   22.8050   37.4920 N   0  0  0  0  0  0  0  0  0  0  0  0
   35.8090   22.0160   37.6630 C   0  0  0  0  0  0  0  0  0  0  0  0
   35.5720   21.2030   36.9720 H   0  0  0  0  0  0  0  0  0  0  0  0
   34.9580   22.2300   38.7450 C   0  0  0  0  0  3  0  0  0  0  0  0
   35.2030   23.2430   39.6550 C   0  0  0  0  0  3  0  0  0  0  0  0
   36.3300   23.9960   39.4030 C   0  0  0  0  0  0  0  0  0  0  0  0
   36.6340   25.0240   40.2730 C   0  0  0  0  0  3  0  0  0  0  0  0
   36.8400   30.4630   38.5350 C   0  0  0  0  0  0  0  0  0  0  0  0
   37.2740   29.8010   39.7040 C   0  0  0  0  0  0  0  0  0  0  0  0
   36.5310   28.6800   40.1170 C   0  0  0  0  0  0  0  0  0  0  0  0
   35.4540   28.3140   39.3650 N   0  0  0  0  0  0  0  0  0  0  0  0
   35.0700   28.9580   38.2690 C   0  0  0  0  0  0  0  0  0  0  0  0
   35.7740   30.0450   37.8510 N   0  0  0  0  0  0  0  0  0  0  0  0
   38.1320   30.1060   40.2890 H   0  0  0  0  0  0  0  0  0  0  0  0
   37.6440   31.6490   38.1180 C   0  0  0  0  0  0  0  0  0  0  0  0
   37.1080   32.8210   38.6180 F   0  0  0  0  0  0  0  0  0  0  0  0
   38.9570   31.4590   38.5560 F   0  0  0  0  0  0  0  0  0  0  0  0
   37.7220   31.7000   36.7310 F   0  0  0  0  0  0  0  0  0  0  0  0
   33.8850   28.5200   37.4810 C   0  0  0  0  0  0  0  0  0  0  0  0
   33.7330   27.1670   37.4990 F   0  0  0  0  0  0  0  0  0  0  0  0
   33.9950   28.9980   36.1550 F   0  0  0  0  0  0  0  0  0  0  0  0
   32.7400   29.1260   37.9380 F   0  0  0  0  0  0  0  0  0  0  0  0
  1  7  1  1  0  0  0
  1  2  1  0  0  0  0
  2  8  1  0  0  0  0
  2  3  1  0  0  0  0
  3 11  1  0  0  0  0
  3 10  1  0  0  0  0
  4  3  1  0  0  0  0
  4 13  1  0  0  0  0
  5 14  1  0  0  0  0
  5  4  1  0  0  0  0
  6 16  1  6  0  0  0
  6  1  1  0  0  0  0
  6  5  1  0  0  0  0
  9  2  1  0  0  0  0
 12  4  1  0  0  0  0
 15  5  1  0  0  0  0
 17 28  1  0  0  0  0
 17  6  1  0  0  0  0
 18 17  2  0  0  0  0
 19 18  1  0  0  0  0
 20 21  2  0  0  0  0
 20 18  1  0  0  0  0
 21 27  1  0  0  0  0
 22 23  2  0  0  0  0
 22 21  1  0  0  0  0
 23 25  1  0  0  0  0
 24 23  1  0  0  0  0
 25 26  2  0  0  0  0
 27 26  1  0  0  0  0
 27 28  2  0  0  0  0
 29 30  1  0  0  0  0
 30 31  2  0  0  0  0
 30 35  1  0  0  0  0
 31  1  1  0  0  0  0
 32 31  1  0  0  0  0
 33 32  2  0  0  0  0
 34 33  1  0  0  0  0
 34 29  2  0  0  0  0
 36 29  1  0  0  0  0
 36 38  1  0  0  0  0
 36 37  1  0  0  0  0
 39 36  1  0  0  0  0
 40 41  1  0  0  0  0
 40 43  1  0  0  0  0
 40 33  1  0  0  0  0
 42 40  1  0  0  0  0
M  END
>  <minimizedAffinity>
-6.3184886

$$$$

 OpenBabel03252502353D

 43 46  0  0  1  0  0  0  0  0999 V2000
   36.9190   27.9000   41.3100 C   0  0  2  0  0  0  0  0  0  0  0  0
   37.3060   28.9490   42.3640 C   0  0  0  0  0  0  0  0  0  0  0  0
   37.3270   28.1610   43.6790 C   0  0  0  0  0  0  0  0  0  0  0  0
   38.6040   27.3440   43.5690 C   0  0  0  0  0  0  0  0  0  0  0  0
   38.5000   26.3730   42.4570 C   0  0  0  0  0  0  0  0  0  0  0  0
   38.0340   26.9330   41.1570 C   0  0  1  0  0  0  0  0  0  0  0  0
   36.0380   27.3920   41.7590 H   0  0  0  0  0  0  0  0  0  0  0  0
   36.6010   29.7800   42.3960 H   0  0  0  0  0  0  0  0  0  0  0  0
   38.3430   29.2900   42.1360 H   0  0  0  0  0  0  0  0  0  0  0  0
   37.3980   28.9120   44.4910 H   0  0  0  0  0  0  0  0  0  0  0  0
   36.4220   27.5380   43.7070 H   0  0  0  0  0  0  0  0  0  0  0  0
   39.4330   28.0440   43.3360 H   0  0  0  0  0  0  0  0  0  0  0  0
   38.7790   26.7770   44.5050 H   0  0  0  0  0  0  0  0  0  0  0  0
   37.8280   25.5240   42.7770 H   0  0  0  0  0  0  0  0  0  0  0  0
   39.4870   25.8830   42.2830 H   0  0  0  0  0  0  0  0  0  0  0  0
   38.9060   27.5200   40.7440 H   0  0  0  0  0  0  0  0  0  0  0  0
   37.7770   25.8430   40.2270 C   0  0  0  0  0  0  0  0  0  0  0  0
   38.6140   25.5280   39.1640 C   0  0  0  0  0  0  0  0  0  0  0  0
   39.4950   26.1540   39.0610 H   0  0  0  0  0  0  0  0  0  0  0  0
   38.3760   24.4970   38.2790 C   0  0  0  0  0  3  0  0  0  0  0  0
   37.2330   23.7130   38.4450 C   0  0  0  0  0  0  0  0  0  0  0  0
   36.9380   22.6930   37.6220 N   0  0  0  0  0  0  0  0  0  0  0  0
   35.8270   21.9370   37.7880 C   0  0  0  0  0  0  0  0  0  0  0  0
   35.5880   21.1060   37.1180 H   0  0  0  0  0  0  0  0  0  0  0  0
   34.9520   22.2080   38.8380 C   0  0  0  0  0  3  0  0  0  0  0  0
   35.1990   23.2440   39.7210 C   0  0  0  0  0  3  0  0  0  0  0  0
   36.3510   23.9610   39.4760 C   0  0  0  0  0  0  0  0  0  0  0  0
   36.6570   25.0090   40.3190 C   0  0  0  0  0  3  0  0  0  0  0  0
   35.1340   29.0650   38.2230 C   0  0  0  0  0  0  0  0  0  0  0  0
   35.3960   28.2970   39.3780 C   0  0  0  0  0  0  0  0  0  0  0  0
   36.5500   28.6210   40.1130 C   0  0  0  0  0  0  0  0  0  0  0  0
   37.3270   29.6470   39.6650 N   0  0  0  0  0  0  0  0  0  0  0  0
   37.0550   30.3520   38.5730 C   0  0  0  0  0  0  0  0  0  0  0  0
   35.9440   30.0560   37.8450 N   0  0  0  0  0  0  0  0  0  0  0  0
   34.7670   27.4850   39.7200 H   0  0  0  0  0  0  0  0  0  0  0  0
   33.9050   28.7020   37.4590 C   0  0  0  0  0  0  0  0  0  0  0  0
   33.9810   29.1340   36.1480 F   0  0  0  0  0  0  0  0  0  0  0  0
   33.7430   27.3160   37.5320 F   0  0  0  0  0  0  0  0  0  0  0  0
   32.7860   29.2360   38.0860 F   0  0  0  0  0  0  0  0  0  0  0  0
   37.9370   31.4640   38.1220 C   0  0  0  0  0  0  0  0  0  0  0  0
   39.2510   31.1060   38.1300 F   0  0  0  0  0  0  0  0  0  0  0  0
   37.7180   32.6010   38.9340 F   0  0  0  0  0  0  0  0  0  0  0  0
   37.5780   31.8990   36.8700 F   0  0  0  0  0  0  0  0  0  0  0  0
  1  7  1  1  0  0  0
  1  2  1  0  0  0  0
  2  8  1  0  0  0  0
  2  3  1  0  0  0  0
  3 11  1  0  0  0  0
  3 10  1  0  0  0  0
  4  3  1  0  0  0  0
  4 13  1  0  0  0  0
  5 14  1  0  0  0  0
  5  4  1  0  0  0  0
  6 16  1  6  0  0  0
  6  1  1  0  0  0  0
  6  5  1  0  0  0  0
  9  2  1  0  0  0  0
 12  4  1  0  0  0  0
 15  5  1  0  0  0  0
 17 28  1  0  0  0  0
 17  6  1  0  0  0  0
 18 17  2  0  0  0  0
 19 18  1  0  0  0  0
 20 21  2  0  0  0  0
 20 18  1  0  0  0  0
 21 27  1  0  0  0  0
 22 23  2  0  0  0  0
 22 21  1  0  0  0  0
 23 25  1  0  0  0  0
 24 23  1  0  0  0  0
 25 26  2  0  0  0  0
 27 26  1  0  0  0  0
 27 28  2  0  0  0  0
 29 30  1  0  0  0  0
 30 35  1  0  0  0  0
 30 31  2  0  0  0  0
 31  1  1  0  0  0  0
 32 31  1  0  0  0  0
 33 32  2  0  0  0  0
 34 29  2  0  0  0  0
 34 33  1  0  0  0  0
 36 38  1  0  0  0  0
 36 39  1  0  0  0  0
 36 29  1  0  0  0  0
 37 36  1  0  0  0  0
 40 41  1  0  0  0  0
 40 33  1  0  0  0  0
 40 42  1  0  0  0  0
 43 40  1  0  0  0  0
M  END
>  <minimizedAffinity>
-6.30547953

$$$$
