
 OpenBabel03252506463D

 45 49  0  0  1  0  0  0  0  0999 V2000
   49.1980   33.1060   41.5390 N   0  0  1  0  0  0  0  0  0  0  0  0
   50.5860   33.1610   41.9230 C   0  0  0  0  0  0  0  0  0  0  0  0
   51.3150   31.8680   41.6910 C   0  0  0  0  0  0  0  0  0  0  0  0
   50.7680   30.8340   42.6500 C   0  0  0  0  0  0  0  0  0  0  0  0
   49.2770   31.0090   42.8350 C   0  0  0  0  0  0  0  0  0  0  0  0
   48.7120   31.7500   41.6310 C   0  0  2  0  0  0  0  0  0  0  0  0
   50.6820   33.4120   43.0090 H   0  0  0  0  0  0  0  0  0  0  0  0
   51.1000   33.9400   41.3500 H   0  0  0  0  0  0  0  0  0  0  0  0
   52.3690   32.0600   42.0180 H   0  0  0  0  0  0  0  0  0  0  0  0
   51.3100   31.5580   40.6380 H   0  0  0  0  0  0  0  0  0  0  0  0
   50.8960   29.8500   42.1500 H   0  0  0  0  0  0  0  0  0  0  0  0
   51.3180   30.7970   43.6070 H   0  0  0  0  0  0  0  0  0  0  0  0
   49.1330   31.6040   43.7480 H   0  0  0  0  0  0  0  0  0  0  0  0
   48.7400   30.0500   42.8930 H   0  0  0  0  0  0  0  0  0  0  0  0
   47.6210   31.8050   41.8220 H   0  0  0  0  0  0  0  0  0  0  0  0
   47.0840   34.4960   42.0690 C   0  0  1  0  0  0  0  0  0  0  0  0
   48.1920   35.3620   41.6870 C   0  0  0  0  0  0  0  0  0  0  0  0
   48.5030   34.0550   42.3430 C   0  0  2  0  0  0  0  0  0  0  0  0
   46.5800   33.7720   41.3640 H   0  0  0  0  0  0  0  0  0  0  0  0
   48.3740   35.4870   40.5850 H   0  0  0  0  0  0  0  0  0  0  0  0
   48.2870   36.3240   42.2190 H   0  0  0  0  0  0  0  0  0  0  0  0
   48.8170   34.1350   43.4080 H   0  0  0  0  0  0  0  0  0  0  0  0
   45.4580   36.0410   43.1980 C   0  0  0  0  0  0  0  0  0  0  0  0
   46.2040   34.8390   43.2000 C   0  0  0  0  0  0  0  0  0  0  0  0
   46.0730   33.9910   44.2950 C   0  0  0  0  0  0  0  0  0  0  0  0
   45.2390   34.3610   45.3020 N   0  0  0  0  0  0  0  0  0  0  0  0
   44.5400   35.5020   45.2860 C   0  0  0  0  0  0  0  0  0  0  0  0
   44.6430   36.3610   44.2250 N   0  0  0  0  0  0  0  0  0  0  0  0
   45.5860   36.6730   42.3310 H   0  0  0  0  0  0  0  0  0  0  0  0
   46.6200   33.0530   44.3570 H   0  0  0  0  0  0  0  0  0  0  0  0
   43.8770   35.7920   46.0910 H   0  0  0  0  0  0  0  0  0  0  0  0
   48.9040   30.9600   40.4570 N   0  0  0  0  0  0  0  0  0  0  0  0
   49.6120   30.1710   40.5020 H   0  0  0  0  0  0  0  0  0  0  0  0
   48.2550   31.1000   39.2210 C   0  0  0  0  0  0  0  0  0  0  0  0
   46.9580   30.7490   38.9580 C   0  0  0  0  0  0  0  0  0  0  0  0
   46.3520   30.3370   39.7350 H   0  0  0  0  0  0  0  0  0  0  0  0
   46.3010   30.8700   37.7600 C   0  0  0  0  0  3  0  0  0  0  0  0
   47.0140   31.4040   36.6890 C   0  0  0  0  0  0  0  0  0  0  0  0
   46.4650   31.5660   35.4720 N   0  0  0  0  0  0  0  0  0  0  0  0
   47.1480   32.0790   34.4350 C   0  0  0  0  0  0  0  0  0  0  0  0
   46.5820   32.1500   33.5250 H   0  0  0  0  0  0  0  0  0  0  0  0
   48.4780   32.4760   34.5710 C   0  0  0  0  0  3  0  0  0  0  0  0
   49.0310   32.3060   35.8230 C   0  0  0  0  0  3  0  0  0  0  0  0
   48.3200   31.7780   36.8750 C   0  0  0  0  0  0  0  0  0  0  0  0
   48.8970   31.6220   38.1060 C   0  0  0  0  0  3  0  0  0  0  0  0
  1  6  1  0  0  0  0
  1  2  1  1  0  0  0
  1 18  1  0  0  0  0
  2  7  1  0  0  0  0
  3  2  1  0  0  0  0
  3  9  1  0  0  0  0
  3  4  1  0  0  0  0
  4  5  1  0  0  0  0
  4 12  1  0  0  0  0
  5 14  1  0  0  0  0
  5 13  1  0  0  0  0
  6 15  1  1  0  0  0
  6  5  1  0  0  0  0
  8  2  1  0  0  0  0
 10  3  1  0  0  0  0
 11  4  1  0  0  0  0
 16 19  1  6  0  0  0
 16 18  1  0  0  0  0
 16 24  1  0  0  0  0
 17 16  1  0  0  0  0
 17 21  1  0  0  0  0
 17 18  1  0  0  0  0
 18 22  1  1  0  0  0
 20 17  1  0  0  0  0
 23 24  2  0  0  0  0
 23 28  1  0  0  0  0
 24 25  1  0  0  0  0
 25 30  1  0  0  0  0
 25 26  2  0  0  0  0
 27 26  1  0  0  0  0
 27 31  1  0  0  0  0
 28 27  2  0  0  0  0
 29 23  1  0  0  0  0
 32 33  1  0  0  0  0
 32  6  1  0  0  0  0
 34 32  1  0  0  0  0
 35 34  1  0  0  0  0
 35 36  1  0  0  0  0
 37 35  2  0  0  0  0
 38 44  1  0  0  0  0
 38 37  1  0  0  0  0
 39 38  2  0  0  0  0
 40 42  2  0  0  0  0
 40 39  1  0  0  0  0
 41 40  1  0  0  0  0
 42 43  1  0  0  0  0
 43 44  2  0  0  0  0
 44 45  1  0  0  0  0
 45 34  2  0  0  0  0
M  END
>  <minimizedAffinity>
-5.352211

>  <minimizedRMSD>
1.17554986

$$$$
