
 OpenBabel03252509163D

 28 31  0  0  0  0  0  0  0  0999 V2000
   46.1420   33.0500   45.9960 C   0  0  0  0  0  0  0  0  0  0  0  0
   45.6470   32.8090   47.3030 C   0  0  0  0  0  0  0  0  0  0  0  0
   46.1710   31.7740   48.0000 C   0  0  0  0  0  0  0  0  0  0  0  0
   47.1820   30.9750   47.4110 C   0  0  0  0  0  0  0  0  0  0  0  0
   47.3970   31.7460   45.7700 S   0  0  0  0  0  0  0  0  0  0  0  0
   44.8760   33.4350   47.7270 H   0  0  0  0  0  0  0  0  0  0  0  0
   45.9100   31.4680   48.9740 H   0  0  0  0  0  0  0  0  0  0  0  0
   47.9250   29.8560   47.8370 C   0  0  0  0  0  0  0  0  0  0  0  0
   47.6660   28.6380   47.2470 C   0  0  0  0  0  0  0  0  0  0  0  0
   46.9270   28.4870   46.4730 H   0  0  0  0  0  0  0  0  0  0  0  0
   48.4260   27.5510   47.6990 C   0  0  0  0  0  3  0  0  0  0  0  0
   49.3860   27.7240   48.6960 C   0  0  0  0  0  0  0  0  0  0  0  0
   50.0870   26.6240   49.0880 N   0  0  0  0  0  0  0  0  0  0  0  0
   51.0300   26.7100   50.0450 C   0  0  0  0  0  0  0  0  0  0  0  0
   51.5590   25.8300   50.3260 H   0  0  0  0  0  0  0  0  0  0  0  0
   51.2680   27.9550   50.6230 C   0  0  0  0  0  3  0  0  0  0  0  0
   50.5720   29.0800   50.2430 C   0  0  0  0  0  3  0  0  0  0  0  0
   49.6120   28.9710   49.2630 C   0  0  0  0  0  0  0  0  0  0  0  0
   48.8630   30.0690   48.8230 C   0  0  0  0  0  3  0  0  0  0  0  0
   44.4360   35.9960   44.5110 C   0  0  0  0  0  0  0  0  0  0  0  0
   45.0380   36.0030   43.2270 C   0  0  0  0  0  0  0  0  0  0  0  0
   45.9900   35.0050   42.9370 C   0  0  0  0  0  0  0  0  0  0  0  0
   46.2800   34.0850   43.9180 N   0  0  0  0  0  0  0  0  0  0  0  0
   45.6740   34.1280   45.1250 C   0  0  0  0  0  0  0  0  0  0  0  0
   44.7540   35.0790   45.4260 N   0  0  0  0  0  0  0  0  0  0  0  0
   43.7070   36.7600   44.7350 H   0  0  0  0  0  0  0  0  0  0  0  0
   44.8100   36.7200   42.4690 H   0  0  0  0  0  0  0  0  0  0  0  0
   46.4960   34.9380   41.9840 H   0  0  0  0  0  0  0  0  0  0  0  0
  1  2  2  0  0  0  0
  2  6  1  0  0  0  0
  2  3  1  0  0  0  0
  3  7  1  0  0  0  0
  4  8  1  0  0  0  0
  4  3  2  0  0  0  0
  5  1  1  0  0  0  0
  5  4  1  0  0  0  0
  8 19  1  0  0  0  0
  9 11  1  0  0  0  0
  9  8  2  0  0  0  0
 10  9  1  0  0  0  0
 11 12  2  0  0  0  0
 12 13  1  0  0  0  0
 12 18  1  0  0  0  0
 13 14  2  0  0  0  0
 14 15  1  0  0  0  0
 14 16  1  0  0  0  0
 17 16  2  0  0  0  0
 18 17  1  0  0  0  0
 19 18  2  0  0  0  0
 20 26  1  0  0  0  0
 20 25  1  0  0  0  0
 21 20  2  0  0  0  0
 22 21  1  0  0  0  0
 22 23  2  0  0  0  0
 23 24  1  0  0  0  0
 24 25  2  0  0  0  0
 24  1  1  0  0  0  0
 27 21  1  0  0  0  0
 28 22  1  0  0  0  0
M  END
>  <minimizedAffinity>
-5.05249262

>  <minimizedRMSD>
1.37383235

$$$$
