
 OpenBabel03252509043D

 51 54  0  0  1  0  0  0  0  0999 V2000
   47.1640   34.1990   43.0850 N   0  0  0  0  0  0  0  0  0  0  0  0
   46.6770   35.1860   42.1960 C   0  0  0  0  0  0  0  0  0  0  0  0
   45.1640   35.3100   42.1530 C   0  0  0  0  0  0  0  0  0  0  0  0
   44.4840   35.0500   43.4750 C   0  0  0  0  0  0  0  0  0  0  0  0
   45.4900   34.7990   44.5840 C   0  0  0  0  0  0  0  0  0  0  0  0
   46.3460   33.6070   44.0200 C   0  0  2  0  0  0  0  0  0  0  0  0
   47.0430   36.1870   42.5570 H   0  0  0  0  0  0  0  0  0  0  0  0
   47.0030   35.1220   41.1550 H   0  0  0  0  0  0  0  0  0  0  0  0
   44.8780   36.2760   41.7100 H   0  0  0  0  0  0  0  0  0  0  0  0
   44.8030   34.5110   41.4640 H   0  0  0  0  0  0  0  0  0  0  0  0
   43.9320   35.9700   43.7610 H   0  0  0  0  0  0  0  0  0  0  0  0
   43.7770   34.2030   43.4550 H   0  0  0  0  0  0  0  0  0  0  0  0
   44.9530   34.4310   45.4690 H   0  0  0  0  0  0  0  0  0  0  0  0
   46.1570   35.6500   44.7410 H   0  0  0  0  0  0  0  0  0  0  0  0
   45.5990   32.8640   43.6750 H   0  0  0  0  0  0  0  0  0  0  0  0
   48.3020   33.4620   42.5890 C   0  0  0  0  0  0  0  0  0  0  0  0
   48.8960   34.1800   41.9690 H   0  0  0  0  0  0  0  0  0  0  0  0
   48.9260   33.1050   43.4260 H   0  0  0  0  0  0  0  0  0  0  0  0
   47.8030   32.3470   41.7380 C   0  0  0  0  0  0  0  0  0  0  0  0
   46.7250   32.4640   41.4870 H   0  0  0  0  0  0  0  0  0  0  0  0
   47.8960   31.3570   42.2260 H   0  0  0  0  0  0  0  0  0  0  0  0
   50.1710   31.3580   38.9950 C   0  0  0  0  0  0  0  0  0  0  0  0
   49.4700   31.3710   40.2140 C   0  0  0  0  0  0  0  0  0  0  0  0
   48.5380   32.3450   40.4440 C   0  0  0  0  0  0  0  0  0  0  0  0
   48.3420   33.2460   39.4840 N   0  0  0  0  0  0  0  0  0  0  0  0
   48.9990   33.2480   38.3220 C   0  0  0  0  0  0  0  0  0  0  0  0
   49.9280   32.3000   38.0580 N   0  0  0  0  0  0  0  0  0  0  0  0
   50.9060   30.6090   38.7820 H   0  0  0  0  0  0  0  0  0  0  0  0
   49.7160   30.5940   40.9040 H   0  0  0  0  0  0  0  0  0  0  0  0
   48.6850   34.0670   37.6900 H   0  0  0  0  0  0  0  0  0  0  0  0
   47.0300   33.1990   45.1530 O   0  0  0  0  0  0  0  0  0  0  0  0
   46.3990   30.6970   44.4950 O   0  0  0  0  0  0  0  0  0  0  0  0
   46.5950   31.6720   45.6720 P   0  0  2  0  0  0  0  0  0  0  0  0
   45.0190   31.8100   46.3470 O   0  0  0  0  0  0  0  0  0  0  0  0
   45.1390   31.9890   47.3190 H   0  0  0  0  0  0  0  0  0  0  0  0
   47.5880   31.0410   46.8340 O   0  0  0  0  0  0  0  0  0  0  0  0
   47.8050   29.6830   46.5750 C   0  0  0  0  0  0  0  0  0  0  0  0
   46.8920   29.0890   46.4920 H   0  0  0  0  0  0  0  0  0  0  0  0
   48.3920   29.5750   45.6220 H   0  0  0  0  0  0  0  0  0  0  0  0
   48.6620   29.2020   47.6970 C   0  0  0  0  0  0  0  0  0  0  0  0
   48.9370   27.8870   48.0110 C   0  0  0  0  0  0  0  0  0  0  0  0
   48.4800   27.1440   47.3720 H   0  0  0  0  0  0  0  0  0  0  0  0
   49.7520   27.5860   49.0840 C   0  0  0  0  0  3  0  0  0  0  0  0
   50.2780   28.6250   49.8260 C   0  0  0  0  0  0  0  0  0  0  0  0
   51.0700   28.3960   50.8710 N   0  0  0  0  0  0  0  0  0  0  0  0
   51.6110   29.3650   51.6310 C   0  0  0  0  0  0  0  0  0  0  0  0
   52.2550   29.1990   52.4830 H   0  0  0  0  0  0  0  0  0  0  0  0
   51.3620   30.6980   51.3530 C   0  0  0  0  0  3  0  0  0  0  0  0
   50.5520   31.0000   50.2860 C   0  0  0  0  0  3  0  0  0  0  0  0
   50.0330   29.9530   49.5530 C   0  0  0  0  0  0  0  0  0  0  0  0
   49.2080   30.2380   48.4650 C   0  0  0  0  0  3  0  0  0  0  0  0
  1  6  1  0  0  0  0
  2  7  1  0  0  0  0
  2  1  1  0  0  0  0
  3  2  1  0  0  0  0
  3  4  1  0  0  0  0
  4 11  1  0  0  0  0
  4  5  1  0  0  0  0
  5 14  1  0  0  0  0
  5 13  1  0  0  0  0
  6 15  1  6  0  0  0
  6  5  1  0  0  0  0
  6 31  1  0  0  0  0
  8  2  1  0  0  0  0
  9  3  1  0  0  0  0
 10  3  1  0  0  0  0
 12  4  1  0  0  0  0
 16  1  1  0  0  0  0
 16 18  1  0  0  0  0
 17 16  1  0  0  0  0
 19 21  1  0  0  0  0
 19 16  1  0  0  0  0
 20 19  1  0  0  0  0
 22 23  1  0  0  0  0
 23 24  2  0  0  0  0
 23 29  1  0  0  0  0
 24 19  1  0  0  0  0
 25 24  1  0  0  0  0
 26 25  2  0  0  0  0
 27 26  1  0  0  0  0
 27 22  2  0  0  0  0
 28 22  1  0  0  0  0
 30 26  1  0  0  0  0
 31 33  1  0  0  0  0
 33 32  2  6  0  0  0
 33 34  1  0  0  0  0
 33 36  1  0  0  0  0
 34 35  1  0  0  0  0
 37 36  1  0  0  0  0
 37 40  1  0  0  0  0
 38 37  1  0  0  0  0
 39 37  1  0  0  0  0
 40 41  2  0  0  0  0
 40 51  1  0  0  0  0
 41 43  1  0  0  0  0
 42 41  1  0  0  0  0
 43 44  2  0  0  0  0
 44 45  1  0  0  0  0
 45 46  2  0  0  0  0
 46 47  1  0  0  0  0
 48 46  1  0  0  0  0
 49 48  2  0  0  0  0
 50 44  1  0  0  0  0
 50 49  1  0  0  0  0
 51 50  2  0  0  0  0
M  END
>  <minimizedAffinity>
-4.43329

>  <minimizedRMSD>
2.02396441

$$$$
