
 OpenBabel03242521473D

 50 54  0  0  1  0  0  0  0  0999 V2000
   45.2450   36.9100   42.9060 C   0  0  0  0  0  0  0  0  0  0  0  0
   44.4370   36.7260   42.1900 H   0  0  0  0  0  0  0  0  0  0  0  0
   46.1430   37.2370   42.3300 H   0  0  0  0  0  0  0  0  0  0  0  0
   45.5930   35.6670   43.6800 C   0  0  0  0  0  0  0  0  0  0  0  0
   46.6140   34.8400   43.2090 C   0  0  0  0  0  0  0  0  0  0  0  0
   46.9610   33.6810   43.9210 C   0  0  0  0  0  0  0  0  0  0  0  0
   46.2900   33.4250   45.0280 N   0  0  0  0  0  0  0  0  0  0  0  0
   45.3010   34.2260   45.4860 C   0  0  0  0  0  0  0  0  0  0  0  0
   44.9460   35.3470   44.8200 N   0  0  0  0  0  0  0  0  0  0  0  0
   47.0790   35.1610   42.2970 H   0  0  0  0  0  0  0  0  0  0  0  0
   44.7860   33.9590   46.4050 H   0  0  0  0  0  0  0  0  0  0  0  0
   49.0540   33.6210   42.5770 C   0  0  2  0  0  0  0  0  0  0  0  0
   48.0330   32.8890   43.3440 C   0  0  2  0  0  0  0  0  0  0  0  0
   47.5880   31.9190   42.3750 O   0  0  0  0  0  0  0  0  0  0  0  0
   48.8170   31.3750   42.0030 C   0  0  0  0  0  0  0  0  0  0  0  0
   49.8830   32.4090   42.0900 C   0  0  1  0  0  0  0  0  0  0  0  0
   48.6350   34.0570   41.6410 H   0  0  0  0  0  0  0  0  0  0  0  0
   48.5080   32.2860   44.1550 H   0  0  0  0  0  0  0  0  0  0  0  0
   48.7180   31.0080   40.9510 H   0  0  0  0  0  0  0  0  0  0  0  0
   49.0740   30.4910   42.6050 H   0  0  0  0  0  0  0  0  0  0  0  0
   50.6750   32.1750   42.8090 H   0  0  0  0  0  0  0  0  0  0  0  0
   49.7680   34.5430   43.2550 O   0  0  0  0  0  0  0  0  0  0  0  0
   49.3600   34.8410   44.1140 H   0  0  0  0  0  0  0  0  0  0  0  0
   50.4800   32.7380   40.8680 O   0  0  0  0  0  0  0  0  0  0  0  0
   51.3750   33.0830   41.0510 H   0  0  0  0  0  0  0  0  0  0  0  0
   45.3320   39.2950   43.8960 C   0  0  0  0  0  0  0  0  0  0  0  0
   45.9920   39.6730   42.8870 O   0  0  0  0  0  0  0  0  0  0  0  0
   44.9210   37.9320   43.8840 N   0  0  0  0  0  0  0  0  0  0  0  0
   44.2990   37.6340   44.6950 H   0  0  0  0  0  0  0  0  0  0  0  0
   44.9870   40.1600   45.0270 C   0  0  0  0  0  0  0  0  0  0  0  0
   45.5350   39.9330   46.2440 C   0  0  0  0  0  0  0  0  0  0  0  0
   45.1510   40.8030   47.2580 C   0  0  0  0  0  0  0  0  0  0  0  0
   44.2630   41.8580   47.0870 C   0  0  0  0  0  0  0  0  0  0  0  0
   43.7650   42.0080   45.8310 C   0  0  0  0  0  0  0  0  0  0  0  0
   44.1160   41.1880   44.8390 N   0  0  0  0  0  0  0  0  0  0  0  0
   46.2320   39.1270   46.4360 H   0  0  0  0  0  0  0  0  0  0  0  0
   45.5770   40.6460   48.2540 H   0  0  0  0  0  0  0  0  0  0  0  0
   43.9870   42.5150   47.8990 H   0  0  0  0  0  0  0  0  0  0  0  0
   42.8210   43.0640   45.4810 C   0  0  0  0  0  0  0  0  0  0  0  0
   43.2880   44.2940   45.0660 C   0  0  0  0  0  0  0  0  0  0  0  0
   44.3570   44.4950   44.9950 H   0  0  0  0  0  0  0  0  0  0  0  0
   42.4820   45.3720   44.7080 C   0  0  0  0  0  0  0  0  0  0  0  0
   41.1070   45.2000   44.7700 C   0  0  0  0  0  0  0  0  0  0  0  0
   40.3130   46.2300   44.4270 N   0  0  0  0  0  0  0  0  0  0  0  0
   38.9540   46.1140   44.4710 C   0  0  0  0  0  0  0  0  0  0  0  0
   38.2440   46.8890   44.2130 H   0  0  0  0  0  0  0  0  0  0  0  0
   38.4960   44.8810   44.8860 C   0  0  0  0  0  0  0  0  0  0  0  0
   39.2340   43.7750   45.2540 C   0  0  0  0  0  0  0  0  0  0  0  0
   40.6090   43.9790   45.1810 C   0  0  0  0  0  0  0  0  0  0  0  0
   41.4480   42.9390   45.5260 C   0  0  0  0  0  0  0  0  0  0  0  0
  1  4  1  0  0  0  0
  1 28  1  0  0  0  0
  2  1  1  0  0  0  0
  3  1  1  0  0  0  0
  4  9  1  0  0  0  0
  5  4  2  0  0  0  0
  5  6  1  0  0  0  0
  6  7  2  0  0  0  0
  7  8  1  0  0  0  0
  8 11  1  0  0  0  0
  9  8  2  0  0  0  0
 10  5  1  0  0  0  0
 12 17  1  6  0  0  0
 12 22  1  0  0  0  0
 12 13  1  0  0  0  0
 13  6  1  0  0  0  0
 13 18  1  1  0  0  0
 14 13  1  0  0  0  0
 15 16  1  0  0  0  0
 15 14  1  0  0  0  0
 15 20  1  0  0  0  0
 16 12  1  0  0  0  0
 16 21  1  1  0  0  0
 19 15  1  0  0  0  0
 22 23  1  0  0  0  0
 24 25  1  0  0  0  0
 24 16  1  0  0  0  0
 26 30  1  0  0  0  0
 27 26  2  0  0  0  0
 28 26  1  0  0  0  0
 28 29  1  0  0  0  0
 30 31  1  0  0  0  0
 31 36  1  0  0  0  0
 31 32  2  0  0  0  0
 32 37  1  0  0  0  0
 33 32  1  0  0  0  0
 33 38  1  0  0  0  0
 34 33  2  0  0  0  0
 35 30  2  0  0  0  0
 35 34  1  0  0  0  0
 39 50  1  0  0  0  0
 39 34  1  0  0  0  0
 40 39  2  0  0  0  0
 41 40  1  0  0  0  0
 42 43  2  0  0  0  0
 42 40  1  0  0  0  0
 43 49  1  0  0  0  0
 44 45  2  0  0  0  0
 44 43  1  0  0  0  0
 45 47  1  0  0  0  0
 46 45  1  0  0  0  0
 47 48  2  0  0  0  0
 49 48  1  0  0  0  0
 49 50  2  0  0  0  0
M  END
>  <minimizedAffinity>
-4.33845091

>  <minimizedRMSD>
1.29276407

$$$$
