
 OpenBabel03242523313D

 25 27  0  0  0  0  0  0  0  0999 V2000
   46.5530   31.6910   46.0420 S   0  0  0  0  0  0  0  0  0  0  0  0
   47.6080   31.0720   47.3470 C   0  0  0  0  0  0  0  0  0  0  0  0
   47.9440   31.9320   48.3790 C   0  0  0  0  0  0  0  0  0  0  0  0
   47.5610   32.9450   48.3640 H   0  0  0  0  0  0  0  0  0  0  0  0
   48.7540   31.4370   49.3700 C   0  0  0  0  0  0  0  0  0  0  0  0
   49.2350   30.1290   49.3720 C   0  0  0  0  0  0  0  0  0  0  0  0
   50.0260   29.7060   50.3740 N   0  0  0  0  0  0  0  0  0  0  0  0
   50.5010   28.4390   50.3890 C   0  0  0  0  0  0  0  0  0  0  0  0
   51.1360   28.1260   51.2080 H   0  0  0  0  0  0  0  0  0  0  0  0
   50.1730   27.5870   49.3720 C   0  0  0  0  0  0  0  0  0  0  0  0
   49.3610   28.0290   48.3480 C   0  0  0  0  0  0  0  0  0  0  0  0
   48.8550   29.3310   48.3060 C   0  0  0  0  0  0  0  0  0  0  0  0
   48.0450   29.7650   47.2780 C   0  0  0  0  0  0  0  0  0  0  0  0
   45.6230   33.1290   46.6410 C   0  0  0  0  0  0  0  0  0  0  0  0
   46.1710   33.6760   47.4340 H   0  0  0  0  0  0  0  0  0  0  0  0
   44.6510   32.8430   47.0940 H   0  0  0  0  0  0  0  0  0  0  0  0
   44.5830   35.9860   44.4930 C   0  0  0  0  0  0  0  0  0  0  0  0
   45.3380   35.7350   43.3400 C   0  0  0  0  0  0  0  0  0  0  0  0
   46.1810   34.6090   43.3110 C   0  0  0  0  0  0  0  0  0  0  0  0
   46.2420   33.7910   44.4030 N   0  0  0  0  0  0  0  0  0  0  0  0
   45.4880   34.0730   45.5110 C   0  0  0  0  0  0  0  0  0  0  0  0
   44.6840   35.1520   45.5310 N   0  0  0  0  0  0  0  0  0  0  0  0
   43.9540   36.8470   44.4890 H   0  0  0  0  0  0  0  0  0  0  0  0
   45.3090   36.3710   42.4540 H   0  0  0  0  0  0  0  0  0  0  0  0
   46.7950   34.3390   42.4660 H   0  0  0  0  0  0  0  0  0  0  0  0
  1 14  1  0  0  0  0
  1  2  1  0  0  0  0
  2  3  1  0  0  0  0
  3  5  2  0  0  0  0
  4  3  1  0  0  0  0
  5  6  1  0  0  0  0
  6  7  1  0  0  0  0
  7  8  2  0  0  0  0
  8  9  1  0  0  0  0
 10  8  1  0  0  0  0
 11 10  2  0  0  0  0
 12 11  1  0  0  0  0
 12  6  2  0  0  0  0
 13  2  2  0  0  0  0
 13 12  1  0  0  0  0
 14 16  1  0  0  0  0
 14 15  1  0  0  0  0
 17 22  1  0  0  0  0
 18 17  2  0  0  0  0
 19 18  1  0  0  0  0
 19 20  2  0  0  0  0
 20 21  1  0  0  0  0
 21 22  2  0  0  0  0
 21 14  1  0  0  0  0
 23 17  1  0  0  0  0
 24 18  1  0  0  0  0
 25 19  1  0  0  0  0
M  END
>  <minimizedAffinity>
-4.92728376

>  <minimizedRMSD>
1.66379917

$$$$
