
 OpenBabel03252504513D

 37 40  0  0  0  0  0  0  0  0999 V2000
   46.9780   34.4370   42.7580 C   0  0  0  0  0  0  0  0  0  0  0  0
   48.0090   33.8400   42.0140 C   0  0  0  0  0  0  0  0  0  0  0  0
   48.5670   32.6790   42.5290 C   0  0  0  0  0  0  0  0  0  0  0  0
   48.0780   32.2070   43.7090 N   0  0  0  0  0  0  0  0  0  0  0  0
   47.0970   32.7940   44.3960 C   0  0  0  0  0  0  0  0  0  0  0  0
   46.5310   33.9280   43.9210 N   0  0  0  0  0  0  0  0  0  0  0  0
   46.4720   35.3360   42.4570 H   0  0  0  0  0  0  0  0  0  0  0  0
   49.3580   32.1920   41.9920 H   0  0  0  0  0  0  0  0  0  0  0  0
   45.5200   30.1920   44.1280 Cl  0  0  0  0  0  0  0  0  0  0  0  0
   45.9030   31.0430   45.6340 C   0  0  0  0  0  0  0  0  0  0  0  0
   46.6300   32.2270   45.6510 C   0  0  0  0  0  0  0  0  0  0  0  0
   46.9100   32.8600   46.8350 C   0  0  0  0  0  0  0  0  0  0  0  0
   46.4570   32.3060   48.0250 C   0  0  0  0  0  0  0  0  0  0  0  0
   45.7390   31.1320   47.9660 C   0  0  0  0  0  0  0  0  0  0  0  0
   45.1920   30.4750   49.4920 Cl  0  0  0  0  0  0  0  0  0  0  0  0
   45.4390   30.4680   46.8010 C   0  0  0  0  0  0  0  0  0  0  0  0
   47.4790   33.7870   46.8590 H   0  0  0  0  0  0  0  0  0  0  0  0
   46.6710   32.7970   48.9670 H   0  0  0  0  0  0  0  0  0  0  0  0
   44.8700   29.5500   46.8440 H   0  0  0  0  0  0  0  0  0  0  0  0
   48.4130   34.4660   40.7810 C   0  0  0  0  0  0  0  0  0  0  0  0
   49.4210   34.1100   40.4910 H   0  0  0  0  0  0  0  0  0  0  0  0
   48.5010   35.5600   40.8910 H   0  0  0  0  0  0  0  0  0  0  0  0
   47.3770   34.2160   39.7240 C   0  0  0  0  0  0  0  0  0  0  0  0
   46.5610   33.6260   40.2280 H   0  0  0  0  0  0  0  0  0  0  0  0
   46.8890   35.1990   39.4980 H   0  0  0  0  0  0  0  0  0  0  0  0
   47.8720   33.5420   38.5190 C   0  0  0  0  0  0  0  0  0  0  0  0
   47.2370   33.5720   37.2950 C   0  0  0  0  0  0  0  0  0  0  0  0
   46.3110   34.1240   37.1950 H   0  0  0  0  0  0  0  0  0  0  0  0
   47.8300   32.8830   36.2450 C   0  0  0  0  0  3  0  0  0  0  0  0
   49.0290   32.1850   36.4250 C   0  0  0  0  0  0  0  0  0  0  0  0
   49.6020   31.5180   35.4060 N   0  0  0  0  0  0  0  0  0  0  0  0
   50.7540   30.8380   35.5480 C   0  0  0  0  0  0  0  0  0  0  0  0
   51.2600   30.2900   34.7850 H   0  0  0  0  0  0  0  0  0  0  0  0
   51.3780   30.8160   36.7730 C   0  0  0  0  0  3  0  0  0  0  0  0
   50.8420   31.4800   37.8640 C   0  0  0  0  0  3  0  0  0  0  0  0
   49.6470   32.1680   37.6540 C   0  0  0  0  0  0  0  0  0  0  0  0
   49.0680   32.8500   38.7140 C   0  0  0  0  0  3  0  0  0  0  0  0
  1  6  1  0  0  0  0
  2  3  1  0  0  0  0
  2  1  2  0  0  0  0
  3  4  2  0  0  0  0
  4  5  1  0  0  0  0
  5 11  1  0  0  0  0
  6  5  2  0  0  0  0
  7  1  1  0  0  0  0
  8  3  1  0  0  0  0
  9 10  1  0  0  0  0
 10 11  2  0  0  0  0
 10 16  1  0  0  0  0
 11 12  1  0  0  0  0
 12 17  1  0  0  0  0
 12 13  2  0  0  0  0
 13 18  1  0  0  0  0
 14 13  1  0  0  0  0
 14 15  1  0  0  0  0
 16 19  1  0  0  0  0
 16 14  2  0  0  0  0
 20 22  1  0  0  0  0
 20  2  1  0  0  0  0
 21 20  1  0  0  0  0
 23 24  1  0  0  0  0
 23 20  1  0  0  0  0
 25 23  1  0  0  0  0
 26 37  1  0  0  0  0
 26 23  1  0  0  0  0
 27 26  2  0  0  0  0
 28 27  1  0  0  0  0
 29 30  2  0  0  0  0
 29 27  1  0  0  0  0
 30 36  1  0  0  0  0
 31 32  2  0  0  0  0
 31 30  1  0  0  0  0
 32 34  1  0  0  0  0
 33 32  1  0  0  0  0
 34 35  2  0  0  0  0
 36 35  1  0  0  0  0
 36 37  2  0  0  0  0
M  END
>  <minimizedAffinity>
-5.31240368

>  <minimizedRMSD>
2.25629854

$$$$
