
 OpenBabel03252506463D

 45 49  0  0  1  0  0  0  0  0999 V2000
   49.3050   33.1800   41.5730 N   0  0  1  0  0  0  0  0  0  0  0  0
   50.6650   33.2030   42.0500 C   0  0  0  0  0  0  0  0  0  0  0  0
   51.3890   31.9040   41.8340 C   0  0  0  0  0  0  0  0  0  0  0  0
   50.7640   30.8560   42.7280 C   0  0  0  0  0  0  0  0  0  0  0  0
   49.2680   31.0500   42.8170 C   0  0  0  0  0  0  0  0  0  0  0  0
   48.7950   31.8300   41.5980 C   0  0  2  0  0  0  0  0  0  0  0  0
   50.6920   33.4250   43.1460 H   0  0  0  0  0  0  0  0  0  0  0  0
   51.2280   33.9870   41.5330 H   0  0  0  0  0  0  0  0  0  0  0  0
   52.4210   32.0710   42.2350 H   0  0  0  0  0  0  0  0  0  0  0  0
   51.4500   31.6200   40.7750 H   0  0  0  0  0  0  0  0  0  0  0  0
   50.9110   29.8830   42.2120 H   0  0  0  0  0  0  0  0  0  0  0  0
   51.2490   30.7860   43.7170 H   0  0  0  0  0  0  0  0  0  0  0  0
   49.0710   31.6250   43.7340 H   0  0  0  0  0  0  0  0  0  0  0  0
   48.7130   30.0990   42.8150 H   0  0  0  0  0  0  0  0  0  0  0  0
   47.6940   31.8980   41.7170 H   0  0  0  0  0  0  0  0  0  0  0  0
   47.1360   34.4960   42.0690 C   0  0  1  0  0  0  0  0  0  0  0  0
   48.2090   35.3960   41.6660 C   0  0  0  0  0  0  0  0  0  0  0  0
   48.5720   34.1190   42.3540 C   0  0  2  0  0  0  0  0  0  0  0  0
   46.6620   33.7340   41.3830 H   0  0  0  0  0  0  0  0  0  0  0  0
   48.3870   35.5010   40.5610 H   0  0  0  0  0  0  0  0  0  0  0  0
   48.2640   36.3740   42.1730 H   0  0  0  0  0  0  0  0  0  0  0  0
   48.8810   34.2390   43.4160 H   0  0  0  0  0  0  0  0  0  0  0  0
   45.4880   36.0280   43.1840 C   0  0  0  0  0  0  0  0  0  0  0  0
   46.2420   34.8310   43.1910 C   0  0  0  0  0  0  0  0  0  0  0  0
   46.1060   33.9800   44.2840 C   0  0  0  0  0  0  0  0  0  0  0  0
   45.2590   34.3430   45.2830 N   0  0  0  0  0  0  0  0  0  0  0  0
   44.5520   35.4790   45.2610 C   0  0  0  0  0  0  0  0  0  0  0  0
   44.6600   36.3400   44.2020 N   0  0  0  0  0  0  0  0  0  0  0  0
   45.6210   36.6620   42.3190 H   0  0  0  0  0  0  0  0  0  0  0  0
   46.6580   33.0460   44.3490 H   0  0  0  0  0  0  0  0  0  0  0  0
   43.8790   35.7640   46.0600 H   0  0  0  0  0  0  0  0  0  0  0  0
   49.0530   31.0660   40.4200 N   0  0  0  0  0  0  0  0  0  0  0  0
   49.5410   30.1310   40.5330 H   0  0  0  0  0  0  0  0  0  0  0  0
   48.7320   31.4070   39.0960 C   0  0  0  0  0  0  0  0  0  0  0  0
   49.5950   31.9430   38.1810 C   0  0  0  0  0  0  0  0  0  0  0  0
   50.6110   32.1290   38.4550 H   0  0  0  0  0  0  0  0  0  0  0  0
   49.3080   32.2870   36.8850 C   0  0  0  0  0  3  0  0  0  0  0  0
   48.0050   32.0750   36.4380 C   0  0  0  0  0  0  0  0  0  0  0  0
   47.6170   32.3780   35.1870 N   0  0  0  0  0  0  0  0  0  0  0  0
   46.3620   32.1760   34.7500 C   0  0  0  0  0  0  0  0  0  0  0  0
   46.1970   32.4650   33.7300 H   0  0  0  0  0  0  0  0  0  0  0  0
   45.3860   31.6350   35.5860 C   0  0  0  0  0  3  0  0  0  0  0  0
   45.7950   31.3280   36.8670 C   0  0  0  0  0  3  0  0  0  0  0  0
   47.0830   31.5400   37.3000 C   0  0  0  0  0  0  0  0  0  0  0  0
   47.4550   31.2250   38.5780 C   0  0  0  0  0  3  0  0  0  0  0  0
  1  6  1  0  0  0  0
  1  2  1  1  0  0  0
  1 18  1  0  0  0  0
  2  7  1  0  0  0  0
  3  2  1  0  0  0  0
  3  9  1  0  0  0  0
  3  4  1  0  0  0  0
  4  5  1  0  0  0  0
  4 12  1  0  0  0  0
  5 13  1  0  0  0  0
  6 15  1  1  0  0  0
  6  5  1  0  0  0  0
  8  2  1  0  0  0  0
 10  3  1  0  0  0  0
 11  4  1  0  0  0  0
 14  5  1  0  0  0  0
 16 19  1  6  0  0  0
 16 18  1  0  0  0  0
 16 24  1  0  0  0  0
 17 16  1  0  0  0  0
 17 21  1  0  0  0  0
 17 18  1  0  0  0  0
 18 22  1  1  0  0  0
 20 17  1  0  0  0  0
 23 24  2  0  0  0  0
 23 28  1  0  0  0  0
 24 25  1  0  0  0  0
 25 30  1  0  0  0  0
 25 26  2  0  0  0  0
 27 26  1  0  0  0  0
 27 31  1  0  0  0  0
 28 27  2  0  0  0  0
 29 23  1  0  0  0  0
 32 33  1  0  0  0  0
 32  6  1  0  0  0  0
 34 32  1  0  0  0  0
 35 36  1  0  0  0  0
 35 34  2  0  0  0  0
 37 35  1  0  0  0  0
 38 37  2  0  0  0  0
 38 44  1  0  0  0  0
 39 38  1  0  0  0  0
 40 39  2  0  0  0  0
 40 42  1  0  0  0  0
 41 40  1  0  0  0  0
 42 43  2  0  0  0  0
 43 44  1  0  0  0  0
 44 45  2  0  0  0  0
 45 34  1  0  0  0  0
M  END
>  <minimizedAffinity>
-5.4498682

>  <minimizedRMSD>
0.375355601

$$$$
