
 OpenBabel03252507223D

 50 54  0  0  1  0  0  0  0  0999 V2000
   47.4910   33.7290   42.8270 C   0  0  0  0  0  0  0  0  0  0  0  0
   48.5730   33.6310   43.4760 O   0  0  0  0  0  0  0  0  0  0  0  0
   47.2410   33.1460   41.5320 N   0  0  0  0  0  0  0  0  0  0  0  0
   46.0950   32.4330   41.0150 C   0  0  0  0  0  0  0  0  0  0  0  0
   45.6830   33.0790   39.6840 C   0  0  0  0  0  0  0  0  0  0  0  0
   46.7740   32.9370   38.6720 C   0  0  0  0  0  0  0  0  0  0  0  0
   48.0550   32.5300   39.3540 C   0  0  0  0  0  0  0  0  0  0  0  0
   48.3370   33.3380   40.6050 C   0  0  2  0  0  0  0  0  0  0  0  0
   46.2510   31.3640   40.8540 H   0  0  0  0  0  0  0  0  0  0  0  0
   45.2020   32.5860   41.6830 H   0  0  0  0  0  0  0  0  0  0  0  0
   44.8100   32.5230   39.3360 H   0  0  0  0  0  0  0  0  0  0  0  0
   45.4570   34.1490   39.9050 H   0  0  0  0  0  0  0  0  0  0  0  0
   46.5330   32.1400   37.9340 H   0  0  0  0  0  0  0  0  0  0  0  0
   46.9310   33.9300   38.1810 H   0  0  0  0  0  0  0  0  0  0  0  0
   48.9170   32.7420   38.6630 H   0  0  0  0  0  0  0  0  0  0  0  0
   48.0710   31.4470   39.5590 H   0  0  0  0  0  0  0  0  0  0  0  0
   48.3410   34.4000   40.3090 H   0  0  0  0  0  0  0  0  0  0  0  0
   46.0410   35.7180   42.8460 C   0  0  0  0  0  0  0  0  0  0  0  0
   46.4240   34.4950   43.4510 C   0  0  0  0  0  0  0  0  0  0  0  0
   45.7800   34.0740   44.5930 C   0  0  0  0  0  0  0  0  0  0  0  0
   44.8010   34.8550   45.0950 N   0  0  0  0  0  0  0  0  0  0  0  0
   44.4240   36.0330   44.5230 C   0  0  0  0  0  0  0  0  0  0  0  0
   45.0540   36.4350   43.4120 N   0  0  0  0  0  0  0  0  0  0  0  0
   46.5510   36.0350   41.9540 H   0  0  0  0  0  0  0  0  0  0  0  0
   43.6370   36.6110   44.9680 H   0  0  0  0  0  0  0  0  0  0  0  0
   46.1890   32.8220   45.1920 C   0  0  0  0  0  0  0  0  0  0  0  0
   45.8770   31.6450   44.5880 C   0  0  0  0  0  0  0  0  0  0  0  0
   46.2810   30.4680   45.1820 C   0  0  0  0  0  0  0  0  0  0  0  0
   46.9940   30.4290   46.3740 C   0  0  0  0  0  0  0  0  0  0  0  0
   47.2830   31.6640   46.9440 C   0  0  0  0  0  0  0  0  0  0  0  0
   46.8770   32.7850   46.3410 N   0  0  0  0  0  0  0  0  0  0  0  0
   45.3340   31.5440   43.6720 H   0  0  0  0  0  0  0  0  0  0  0  0
   46.0750   29.4740   44.7700 H   0  0  0  0  0  0  0  0  0  0  0  0
   47.3230   29.5370   46.8650 H   0  0  0  0  0  0  0  0  0  0  0  0
   47.8350   31.6840   47.8700 H   0  0  0  0  0  0  0  0  0  0  0  0
   49.6790   32.9650   41.0960 C   0  0  0  0  0  0  0  0  0  0  0  0
   50.0290   33.5350   41.9910 H   0  0  0  0  0  0  0  0  0  0  0  0
   50.3370   33.4540   40.3280 H   0  0  0  0  0  0  0  0  0  0  0  0
   50.0540   31.5580   41.1120 C   0  0  0  0  0  0  0  0  0  0  0  0
   50.7500   30.7100   40.2880 C   0  0  0  0  0  0  0  0  0  0  0  0
   51.1250   31.1210   39.3920 H   0  0  0  0  0  0  0  0  0  0  0  0
   51.0120   29.3800   40.4850 C   0  0  0  0  0  3  0  0  0  0  0  0
   50.5640   28.7540   41.6060 C   0  0  0  0  0  0  0  0  0  0  0  0
   50.8140   27.4600   41.8060 N   0  0  0  0  0  0  0  0  0  0  0  0
   50.4050   26.7730   42.8870 C   0  0  0  0  0  0  0  0  0  0  0  0
   50.5920   25.7250   43.0780 H   0  0  0  0  0  0  0  0  0  0  0  0
   49.6890   27.5210   43.7990 C   0  0  0  0  0  3  0  0  0  0  0  0
   49.3940   28.8620   43.6540 C   0  0  0  0  0  3  0  0  0  0  0  0
   49.8590   29.4740   42.5120 C   0  0  0  0  0  0  0  0  0  0  0  0
   49.6320   30.8190   42.2440 C   0  0  0  0  0  3  0  0  0  0  0  0
  1 19  1  0  0  0  0
  1  2  2  0  0  0  0
  3  1  1  0  0  0  0
  4  3  1  0  0  0  0
  4 10  1  0  0  0  0
  5 12  1  0  0  0  0
  5  4  1  0  0  0  0
  6  7  1  0  0  0  0
  6  5  1  0  0  0  0
  7 16  1  0  0  0  0
  7  8  1  0  0  0  0
  8 17  1  6  0  0  0
  8 36  1  0  0  0  0
  8  3  1  0  0  0  0
  9  4  1  0  0  0  0
 11  5  1  0  0  0  0
 13  6  1  0  0  0  0
 14  6  1  0  0  0  0
 15  7  1  0  0  0  0
 18 23  2  0  0  0  0
 18 19  1  0  0  0  0
 19 20  2  0  0  0  0
 20 21  1  0  0  0  0
 20 26  1  0  0  0  0
 22 25  1  0  0  0  0
 22 21  2  0  0  0  0
 23 22  1  0  0  0  0
 24 18  1  0  0  0  0
 26 31  1  0  0  0  0
 27 28  1  0  0  0  0
 27 26  2  0  0  0  0
 28 29  2  0  0  0  0
 29 34  1  0  0  0  0
 29 30  1  0  0  0  0
 30 35  1  0  0  0  0
 31 30  2  0  0  0  0
 32 27  1  0  0  0  0
 33 28  1  0  0  0  0
 36 39  1  0  0  0  0
 36 37  1  0  0  0  0
 38 36  1  0  0  0  0
 39 50  1  0  0  0  0
 40 42  1  0  0  0  0
 40 39  2  0  0  0  0
 41 40  1  0  0  0  0
 42 43  2  0  0  0  0
 43 44  1  0  0  0  0
 43 49  1  0  0  0  0
 44 45  2  0  0  0  0
 45 46  1  0  0  0  0
 45 47  1  0  0  0  0
 48 47  2  0  0  0  0
 49 48  1  0  0  0  0
 50 49  2  0  0  0  0
M  END
>  <minimizedAffinity>
-4.99518728

>  <minimizedRMSD>
0.652555585

$$$$
