
 OpenBabel03252507223D

 50 54  0  0  1  0  0  0  0  0999 V2000
   47.4970   33.6380   42.9150 C   0  0  0  0  0  0  0  0  0  0  0  0
   48.5890   33.6090   43.5550 O   0  0  0  0  0  0  0  0  0  0  0  0
   47.2420   32.9490   41.6740 N   0  0  0  0  0  0  0  0  0  0  0  0
   46.1030   32.1790   41.2300 C   0  0  0  0  0  0  0  0  0  0  0  0
   45.6650   32.7100   39.8570 C   0  0  0  0  0  0  0  0  0  0  0  0
   46.7460   32.5060   38.8460 C   0  0  0  0  0  0  0  0  0  0  0  0
   48.0420   32.1750   39.5410 C   0  0  0  0  0  0  0  0  0  0  0  0
   48.3250   33.0840   40.7200 C   0  0  2  0  0  0  0  0  0  0  0  0
   46.2760   31.1030   41.1520 H   0  0  0  0  0  0  0  0  0  0  0  0
   45.2150   32.3700   41.8950 H   0  0  0  0  0  0  0  0  0  0  0  0
   44.7970   32.1140   39.5660 H   0  0  0  0  0  0  0  0  0  0  0  0
   45.4230   33.7910   39.9950 H   0  0  0  0  0  0  0  0  0  0  0  0
   46.5110   31.6490   38.1760 H   0  0  0  0  0  0  0  0  0  0  0  0
   46.8810   33.4590   38.2750 H   0  0  0  0  0  0  0  0  0  0  0  0
   48.8930   32.3450   38.8250 H   0  0  0  0  0  0  0  0  0  0  0  0
   48.0790   31.1120   39.8310 H   0  0  0  0  0  0  0  0  0  0  0  0
   48.3060   34.1190   40.3410 H   0  0  0  0  0  0  0  0  0  0  0  0
   46.0330   35.6120   42.8090 C   0  0  0  0  0  0  0  0  0  0  0  0
   46.4250   34.4330   43.4900 C   0  0  0  0  0  0  0  0  0  0  0  0
   45.7850   34.0810   44.6560 C   0  0  0  0  0  0  0  0  0  0  0  0
   44.8000   34.8840   45.1090 N   0  0  0  0  0  0  0  0  0  0  0  0
   44.4140   36.0210   44.4640 C   0  0  0  0  0  0  0  0  0  0  0  0
   45.0400   36.3560   43.3290 N   0  0  0  0  0  0  0  0  0  0  0  0
   46.5400   35.8760   41.8980 H   0  0  0  0  0  0  0  0  0  0  0  0
   43.6230   36.6190   44.8720 H   0  0  0  0  0  0  0  0  0  0  0  0
   46.2040   32.8720   45.3330 C   0  0  0  0  0  0  0  0  0  0  0  0
   45.8920   31.6570   44.8100 C   0  0  0  0  0  0  0  0  0  0  0  0
   46.3050   30.5230   45.4780 C   0  0  0  0  0  0  0  0  0  0  0  0
   47.0270   30.5650   46.6630 C   0  0  0  0  0  0  0  0  0  0  0  0
   47.3150   31.8360   47.1500 C   0  0  0  0  0  0  0  0  0  0  0  0
   46.9000   32.9130   46.4780 N   0  0  0  0  0  0  0  0  0  0  0  0
   45.3430   31.4930   43.9070 H   0  0  0  0  0  0  0  0  0  0  0  0
   46.1010   29.5030   45.1330 H   0  0  0  0  0  0  0  0  0  0  0  0
   47.3630   29.7080   47.2100 H   0  0  0  0  0  0  0  0  0  0  0  0
   47.8730   31.9180   48.0690 H   0  0  0  0  0  0  0  0  0  0  0  0
   49.6790   32.7740   41.2220 C   0  0  0  0  0  0  0  0  0  0  0  0
   50.0850   33.5020   41.9660 H   0  0  0  0  0  0  0  0  0  0  0  0
   50.3110   33.0730   40.3430 H   0  0  0  0  0  0  0  0  0  0  0  0
   50.0180   31.3880   41.5120 C   0  0  0  0  0  0  0  0  0  0  0  0
   49.5150   30.3920   42.3120 C   0  0  0  0  0  0  0  0  0  0  0  0
   48.6740   30.6350   42.9010 H   0  0  0  0  0  0  0  0  0  0  0  0
   49.9820   29.1120   42.4460 C   0  0  0  0  0  3  0  0  0  0  0  0
   51.0670   28.7020   41.7380 C   0  0  0  0  0  0  0  0  0  0  0  0
   51.5270   27.4570   41.8630 N   0  0  0  0  0  0  0  0  0  0  0  0
   52.5940   26.9790   41.1970 C   0  0  0  0  0  0  0  0  0  0  0  0
   52.9910   25.9760   41.2760 H   0  0  0  0  0  0  0  0  0  0  0  0
   53.1920   27.8910   40.3520 C   0  0  0  0  0  3  0  0  0  0  0  0
   52.7680   29.1930   40.1760 C   0  0  0  0  0  3  0  0  0  0  0  0
   51.6680   29.5850   40.9040 C   0  0  0  0  0  0  0  0  0  0  0  0
   51.1390   30.8670   40.8190 C   0  0  0  0  0  3  0  0  0  0  0  0
  1 19  1  0  0  0  0
  1  2  2  0  0  0  0
  3  1  1  0  0  0  0
  4  3  1  0  0  0  0
  4 10  1  0  0  0  0
  5 12  1  0  0  0  0
  5  4  1  0  0  0  0
  6  7  1  0  0  0  0
  6  5  1  0  0  0  0
  7 16  1  0  0  0  0
  7  8  1  0  0  0  0
  8 17  1  6  0  0  0
  8 36  1  0  0  0  0
  8  3  1  0  0  0  0
  9  4  1  0  0  0  0
 11  5  1  0  0  0  0
 13  6  1  0  0  0  0
 14  6  1  0  0  0  0
 15  7  1  0  0  0  0
 18 23  2  0  0  0  0
 18 19  1  0  0  0  0
 19 20  2  0  0  0  0
 20 21  1  0  0  0  0
 20 26  1  0  0  0  0
 22 25  1  0  0  0  0
 22 21  2  0  0  0  0
 23 22  1  0  0  0  0
 24 18  1  0  0  0  0
 26 31  1  0  0  0  0
 27 26  2  0  0  0  0
 27 28  1  0  0  0  0
 28 29  2  0  0  0  0
 29 30  1  0  0  0  0
 29 34  1  0  0  0  0
 30 35  1  0  0  0  0
 31 30  2  0  0  0  0
 32 27  1  0  0  0  0
 33 28  1  0  0  0  0
 36 39  1  0  0  0  0
 36 37  1  0  0  0  0
 38 36  1  0  0  0  0
 39 40  1  0  0  0  0
 40 42  2  0  0  0  0
 40 41  1  0  0  0  0
 43 44  1  0  0  0  0
 43 42  1  0  0  0  0
 45 46  1  0  0  0  0
 45 44  2  0  0  0  0
 47 45  1  0  0  0  0
 48 47  2  0  0  0  0
 48 49  1  0  0  0  0
 49 43  2  0  0  0  0
 50 49  1  0  0  0  0
 50 39  2  0  0  0  0
M  END
>  <minimizedAffinity>
-4.98428392

>  <minimizedRMSD>
1.88145292

$$$$
