
 OpenBabel03252506023D

 31 34  0  0  0  0  0  0  0  0999 V2000
   44.7880   35.9810   43.3000 Cl  0  0  0  0  0  0  0  0  0  0  0  0
   45.5390   34.7330   44.2440 C   0  0  0  0  0  0  0  0  0  0  0  0
   46.6260   34.0440   43.7570 C   0  0  0  0  0  0  0  0  0  0  0  0
   47.1480   33.0790   44.5850 C   0  0  0  0  0  0  0  0  0  0  0  0
   46.6620   32.7660   45.8380 C   0  0  0  0  0  0  0  0  0  0  0  0
   45.5750   33.4730   46.2930 C   0  0  0  0  0  0  0  0  0  0  0  0
   44.9840   33.0490   47.8870 Cl  0  0  0  0  0  0  0  0  0  0  0  0
   45.0160   34.4470   45.5060 C   0  0  0  0  0  0  0  0  0  0  0  0
   48.0150   32.5380   44.1860 H   0  0  0  0  0  0  0  0  0  0  0  0
   44.1620   34.9770   45.9050 H   0  0  0  0  0  0  0  0  0  0  0  0
   47.3560   31.7040   46.5690 C   0  0  0  0  0  0  0  0  0  0  0  0
   47.4650   30.4140   46.0950 C   0  0  0  0  0  0  0  0  0  0  0  0
   47.0270   30.1510   45.1450 H   0  0  0  0  0  0  0  0  0  0  0  0
   48.1140   29.3970   46.7650 C   0  0  0  0  0  0  0  0  0  0  0  0
   48.6950   29.6690   47.9850 C   0  0  0  0  0  0  0  0  0  0  0  0
   49.3210   28.6690   48.6240 N   0  0  0  0  0  0  0  0  0  0  0  0
   49.9190   28.8410   49.8230 C   0  0  0  0  0  0  0  0  0  0  0  0
   50.3920   27.9570   50.2380 H   0  0  0  0  0  0  0  0  0  0  0  0
   49.8530   30.1170   50.3700 C   0  0  0  0  0  0  0  0  0  0  0  0
   49.2140   31.1350   49.7190 C   0  0  0  0  0  0  0  0  0  0  0  0
   48.6100   30.9390   48.4950 C   0  0  0  0  0  0  0  0  0  0  0  0
   47.9550   31.9400   47.8050 C   0  0  0  0  0  0  0  0  0  0  0  0
   48.7730   35.4490   41.1660 C   0  0  0  0  0  0  0  0  0  0  0  0
   48.2900   34.8770   39.9920 C   0  0  0  0  0  0  0  0  0  0  0  0
   47.1920   33.9790   40.0840 C   0  0  0  0  0  0  0  0  0  0  0  0
   46.6960   33.7490   41.3250 N   0  0  0  0  0  0  0  0  0  0  0  0
   47.1910   34.3220   42.4420 C   0  0  0  0  0  0  0  0  0  0  0  0
   48.2300   35.1730   42.3660 N   0  0  0  0  0  0  0  0  0  0  0  0
   49.6180   36.1440   41.1270 H   0  0  0  0  0  0  0  0  0  0  0  0
   48.7330   35.1040   39.0320 H   0  0  0  0  0  0  0  0  0  0  0  0
   46.7870   33.5160   39.2110 H   0  0  0  0  0  0  0  0  0  0  0  0
  1  2  1  0  0  0  0
  2  8  1  0  0  0  0
  3  2  2  0  0  0  0
  3  4  1  0  0  0  0
  4  5  2  0  0  0  0
  5  6  1  0  0  0  0
  5 11  1  0  0  0  0
  6  7  1  0  0  0  0
  8 10  1  0  0  0  0
  8  6  2  0  0  0  0
  9  4  1  0  0  0  0
 11 22  1  0  0  0  0
 12 11  2  0  0  0  0
 12 14  1  0  0  0  0
 13 12  1  0  0  0  0
 14 15  2  0  0  0  0
 15 21  1  0  0  0  0
 15 16  1  0  0  0  0
 16 17  2  0  0  0  0
 17 18  1  0  0  0  0
 17 19  1  0  0  0  0
 20 19  2  0  0  0  0
 21 20  1  0  0  0  0
 22 21  2  0  0  0  0
 23 28  1  0  0  0  0
 24 25  1  0  0  0  0
 24 23  2  0  0  0  0
 25 26  2  0  0  0  0
 26 27  1  0  0  0  0
 27  3  1  0  0  0  0
 28 27  2  0  0  0  0
 29 23  1  0  0  0  0
 30 24  1  0  0  0  0
 31 25  1  0  0  0  0
M  END
>  <minimizedAffinity>
-6.56515884

>  <minimizedRMSD>
0.746320486

$$$$
