
 OpenBabel03242518163D

 35 38  0  0  0  0  0  0  0  0999 V2000
   48.8670   32.8550   41.7830 C   0  0  0  0  0  0  0  0  0  0  0  0
   48.5710   32.3310   40.5050 C   0  0  0  0  0  0  0  0  0  0  0  0
   49.3750   31.4490   39.8870 C   0  0  0  0  0  0  0  0  0  0  0  0
   50.5560   31.0650   40.5910 C   0  0  0  0  0  0  0  0  0  0  0  0
   50.4970   31.9790   42.1410 S   0  0  0  0  0  0  0  0  0  0  0  0
   47.6620   32.7330   40.1500 H   0  0  0  0  0  0  0  0  0  0  0  0
   49.1340   31.0590   38.9100 H   0  0  0  0  0  0  0  0  0  0  0  0
   48.2820   33.7530   42.7090 C   0  0  0  0  0  0  0  0  0  0  0  0
   49.0160   33.9820   43.5080 H   0  0  0  0  0  0  0  0  0  0  0  0
   47.4650   33.1980   43.2660 H   0  0  0  0  0  0  0  0  0  0  0  0
   47.7530   35.0280   42.1860 C   0  0  0  0  0  0  0  0  0  0  0  0
   48.0770   35.1290   41.1230 H   0  0  0  0  0  0  0  0  0  0  0  0
   48.1750   35.9150   42.7160 H   0  0  0  0  0  0  0  0  0  0  0  0
   46.2910   35.0290   42.2200 C   0  0  0  0  0  0  0  0  0  0  0  0
   45.5970   35.5080   43.3250 C   0  0  0  0  0  0  0  0  0  0  0  0
   44.2110   35.4720   43.2770 C   0  0  0  0  0  0  0  0  0  0  0  0
   43.6060   34.9830   42.1730 N   0  0  0  0  0  0  0  0  0  0  0  0
   44.3230   34.5270   41.1210 C   0  0  0  0  0  0  0  0  0  0  0  0
   45.6370   34.5530   41.1510 N   0  0  0  0  0  0  0  0  0  0  0  0
   46.1090   35.8940   44.1910 H   0  0  0  0  0  0  0  0  0  0  0  0
   43.6990   35.8510   44.1510 H   0  0  0  0  0  0  0  0  0  0  0  0
   43.7580   34.1520   40.2790 H   0  0  0  0  0  0  0  0  0  0  0  0
   51.4540   30.2300   40.1670 O   0  0  0  0  0  0  0  0  0  0  0  0
   51.9240   29.9660   38.9150 C   0  0  0  0  0  0  0  0  0  0  0  0
   51.3700   29.3490   37.8220 C   0  0  0  0  0  0  0  0  0  0  0  0
   50.3700   29.0160   38.0090 H   0  0  0  0  0  0  0  0  0  0  0  0
   52.0610   29.1980   36.6390 C   0  0  0  0  0  0  0  0  0  0  0  0
   53.3400   29.6760   36.5500 C   0  0  0  0  0  0  0  0  0  0  0  0
   53.9330   29.4790   35.3490 N   0  0  0  0  0  0  0  0  0  0  0  0
   55.2080   29.9280   35.1820 C   0  0  0  0  0  0  0  0  0  0  0  0
   55.7750   29.8270   34.2760 H   0  0  0  0  0  0  0  0  0  0  0  0
   55.8680   30.5610   36.2010 C   0  0  0  0  0  0  0  0  0  0  0  0
   55.2350   30.7490   37.4210 C   0  0  0  0  0  0  0  0  0  0  0  0
   53.9500   30.3050   37.6160 C   0  0  0  0  0  0  0  0  0  0  0  0
   53.2330   30.4510   38.8090 C   0  0  0  0  0  0  0  0  0  0  0  0
  1  5  1  0  0  0  0
  1  8  1  0  0  0  0
  2  1  2  0  0  0  0
  3  2  1  0  0  0  0
  3  4  2  0  0  0  0
  4  5  1  0  0  0  0
  6  2  1  0  0  0  0
  7  3  1  0  0  0  0
  8 10  1  0  0  0  0
  8  9  1  0  0  0  0
 11 14  1  0  0  0  0
 11  8  1  0  0  0  0
 11 13  1  0  0  0  0
 12 11  1  0  0  0  0
 14 15  1  0  0  0  0
 15 20  1  0  0  0  0
 16 15  2  0  0  0  0
 16 21  1  0  0  0  0
 17 16  1  0  0  0  0
 18 19  1  0  0  0  0
 18 17  2  0  0  0  0
 19 14  2  0  0  0  0
 22 18  1  0  0  0  0
 23  4  1  0  0  0  0
 24 23  1  0  0  0  0
 25 26  1  0  0  0  0
 25 24  2  0  0  0  0
 27 25  1  0  0  0  0
 28 27  2  0  0  0  0
 28 34  1  0  0  0  0
 29 28  1  0  0  0  0
 30 29  2  0  0  0  0
 30 32  1  0  0  0  0
 31 30  1  0  0  0  0
 32 33  2  0  0  0  0
 33 34  1  0  0  0  0
 34 35  2  0  0  0  0
 35 24  1  0  0  0  0
M  END
>  <minimizedAffinity>
-4.17096424

>  <minimizedRMSD>
3.71393347

$$$$
