
 OpenBabel03252508183D

 50 55  0  0  1  0  0  0  0  0999 V2000
   46.7430   31.5970   48.2900 C   0  0  1  0  0  0  0  0  0  0  0  0
   46.2950   30.5490   49.2510 C   0  0  0  0  0  0  0  0  0  0  0  0
   47.5640   31.2390   49.4630 C   0  0  1  0  0  0  0  0  0  0  0  0
   45.9910   32.4410   48.2950 H   0  0  0  0  0  0  0  0  0  0  0  0
   45.4750   30.7170   49.9760 H   0  0  0  0  0  0  0  0  0  0  0  0
   46.3560   29.4800   48.9290 H   0  0  0  0  0  0  0  0  0  0  0  0
   47.5880   31.9880   50.2820 H   0  0  0  0  0  0  0  0  0  0  0  0
   48.8810   30.5690   49.2210 C   0  0  2  0  0  0  0  0  0  0  0  0
   49.6120   30.1790   50.5310 C   0  0  0  0  0  0  0  0  0  0  0  0
   50.1360   31.2840   49.7120 C   0  0  1  0  0  0  0  0  0  0  0  0
   49.0060   29.7740   48.4760 H   0  0  0  0  0  0  0  0  0  0  0  0
   49.1550   30.4780   51.4920 H   0  0  0  0  0  0  0  0  0  0  0  0
   50.1760   29.2550   50.5920 H   0  0  0  0  0  0  0  0  0  0  0  0
   50.0110   32.3270   50.0660 H   0  0  0  0  0  0  0  0  0  0  0  0
   51.4040   31.0410   48.9960 C   0  0  0  0  0  0  0  0  0  0  0  0
   52.4370   31.9690   49.1710 C   0  0  0  0  0  0  0  0  0  0  0  0
   52.3480   32.8510   49.8050 H   0  0  0  0  0  0  0  0  0  0  0  0
   53.6580   31.7960   48.5230 C   0  0  0  0  0  3  0  0  0  0  0  0
   53.8790   30.7080   47.6930 C   0  0  0  0  0  0  0  0  0  0  0  0
   55.0560   30.5560   47.0780 N   0  0  0  0  0  0  0  0  0  0  0  0
   55.3310   29.5250   46.2620 C   0  0  0  0  0  0  0  0  0  0  0  0
   56.2950   29.4390   45.7840 H   0  0  0  0  0  0  0  0  0  0  0  0
   54.3170   28.5970   46.0780 C   0  0  0  0  0  3  0  0  0  0  0  0
   53.0720   28.7180   46.7030 C   0  0  0  0  0  3  0  0  0  0  0  0
   52.8320   29.8050   47.5400 C   0  0  0  0  0  0  0  0  0  0  0  0
   51.6060   29.9520   48.1730 C   0  0  0  0  0  3  0  0  0  0  0  0
   47.1090   31.1040   46.9370 C   0  0  0  0  0  0  0  0  0  0  0  0
   46.3530   30.3050   46.6760 H   0  0  0  0  0  0  0  0  0  0  0  0
   48.0810   30.6730   46.7890 H   0  0  0  0  0  0  0  0  0  0  0  0
   46.0210   33.0560   46.1980 C   0  0  0  0  0  3  0  0  0  0  0  0
   46.8670   32.1640   45.8910 C   0  0  0  0  0  3  0  0  0  0  0  0
   44.5250   35.9460   44.4660 C   0  0  0  0  0  0  0  0  0  0  0  0
   45.1840   35.9510   43.2420 C   0  0  0  0  0  0  0  0  0  0  0  0
   46.1100   34.9750   43.0520 C   0  0  0  0  0  0  0  0  0  0  0  0
   46.3500   34.0580   44.0310 N   0  0  0  0  0  0  0  0  0  0  0  0
   45.6950   34.0810   45.2050 C   0  0  0  0  0  0  0  0  0  0  0  0
   44.7950   35.0300   45.3910 N   0  0  0  0  0  0  0  0  0  0  0  0
   43.7730   36.7050   44.6730 H   0  0  0  0  0  0  0  0  0  0  0  0
   44.9730   36.6910   42.4820 H   0  0  0  0  0  0  0  0  0  0  0  0
   46.8790   34.8530   41.8200 C   0  0  0  0  0  0  0  0  0  0  0  0
   48.0840   35.4490   41.5880 C   0  0  0  0  0  0  0  0  0  0  0  0
   48.8000   35.3230   40.4140 C   0  0  0  0  0  0  0  0  0  0  0  0
   48.2950   34.5520   39.3860 C   0  0  0  0  0  0  0  0  0  0  0  0
   47.0890   33.9280   39.5590 C   0  0  0  0  0  0  0  0  0  0  0  0
   46.4170   34.0900   40.7580 C   0  0  0  0  0  0  0  0  0  0  0  0
   48.5150   36.0690   42.3800 H   0  0  0  0  0  0  0  0  0  0  0  0
   49.7450   35.7980   40.2450 H   0  0  0  0  0  0  0  0  0  0  0  0
   48.7730   34.3840   38.4240 H   0  0  0  0  0  0  0  0  0  0  0  0
   46.6490   33.3130   38.7890 H   0  0  0  0  0  0  0  0  0  0  0  0
   45.4560   33.5740   40.8550 H   0  0  0  0  0  0  0  0  0  0  0  0
  1  4  1  1  0  0  0
  1  2  1  0  0  0  0
  1  3  1  0  0  0  0
  2  3  1  0  0  0  0
  2  5  1  0  0  0  0
  3  7  1  1  0  0  0
  6  2  1  0  0  0  0
  8 11  1  6  0  0  0
  8  3  1  0  0  0  0
  8 10  1  0  0  0  0
  8  9  1  0  0  0  0
  9 13  1  0  0  0  0
  9 12  1  0  0  0  0
 10 14  1  1  0  0  0
 10  9  1  0  0  0  0
 15 16  1  0  0  0  0
 15 10  1  0  0  0  0
 16 17  1  0  0  0  0
 18 16  2  0  0  0  0
 19 18  1  0  0  0  0
 20 19  2  0  0  0  0
 21 20  1  0  0  0  0
 22 21  1  0  0  0  0
 23 21  2  0  0  0  0
 23 24  1  0  0  0  0
 24 25  2  0  0  0  0
 25 19  1  0  0  0  0
 25 26  1  0  0  0  0
 26 15  2  0  0  0  0
 27  1  1  0  0  0  0
 28 27  1  0  0  0  0
 29 27  1  0  0  0  0
 31 30  2  0  0  0  0
 31 27  1  0  0  0  0
 32 38  1  0  0  0  0
 32 37  1  0  0  0  0
 33 32  2  0  0  0  0
 34 33  1  0  0  0  0
 34 35  2  0  0  0  0
 35 36  1  0  0  0  0
 36 37  2  0  0  0  0
 36 30  1  0  0  0  0
 39 33  1  0  0  0  0
 40 34  1  0  0  0  0
 41 40  1  0  0  0  0
 41 46  1  0  0  0  0
 42 41  2  0  0  0  0
 43 44  2  0  0  0  0
 43 42  1  0  0  0  0
 44 45  1  0  0  0  0
 45 50  1  0  0  0  0
 45 40  2  0  0  0  0
 47 42  1  0  0  0  0
 48 43  1  0  0  0  0
 49 44  1  0  0  0  0
M  END
>  <minimizedAffinity>
-6.84030294

>  <minimizedRMSD>
0.878630519

$$$$
