
 OpenBabel03252506033D

 31 34  0  0  0  0  0  0  0  0999 V2000
   31.0750   27.8110   35.0440 Cl  0  0  0  0  0  0  0  0  0  0  0  0
   32.3350   28.1740   36.1820 C   0  0  0  0  0  0  0  0  0  0  0  0
   32.1850   29.1990   37.0880 C   0  0  0  0  0  0  0  0  0  0  0  0
   33.2390   29.4010   37.9480 C   0  0  0  0  0  0  0  0  0  0  0  0
   34.4040   28.6610   37.9570 C   0  0  0  0  0  0  0  0  0  0  0  0
   34.5190   27.6460   37.0380 C   0  0  0  0  0  0  0  0  0  0  0  0
   36.0120   26.7280   37.0770 Cl  0  0  0  0  0  0  0  0  0  0  0  0
   33.4970   27.4020   36.1580 C   0  0  0  0  0  0  0  0  0  0  0  0
   33.1080   30.2200   38.6650 H   0  0  0  0  0  0  0  0  0  0  0  0
   33.6320   26.5920   35.4520 H   0  0  0  0  0  0  0  0  0  0  0  0
   35.4130   29.0310   38.9510 C   0  0  0  0  0  0  0  0  0  0  0  0
   36.3160   30.0550   38.7610 C   0  0  0  0  0  0  0  0  0  0  0  0
   36.2980   30.6250   37.8440 H   0  0  0  0  0  0  0  0  0  0  0  0
   37.2740   30.4220   39.6830 C   0  0  0  0  0  3  0  0  0  0  0  0
   37.3480   29.7330   40.8740 C   0  0  0  0  0  0  0  0  0  0  0  0
   38.2860   30.1020   41.7600 N   0  0  0  0  0  0  0  0  0  0  0  0
   38.4350   29.4870   42.9530 C   0  0  0  0  0  0  0  0  0  0  0  0
   39.2280   29.8750   43.5820 H   0  0  0  0  0  0  0  0  0  0  0  0
   37.5600   28.4400   43.2220 C   0  0  0  0  0  3  0  0  0  0  0  0
   36.6050   28.0640   42.3190 C   0  0  0  0  0  3  0  0  0  0  0  0
   36.4700   28.7060   41.1070 C   0  0  0  0  0  0  0  0  0  0  0  0
   35.5190   28.3590   40.1670 C   0  0  0  0  0  3  0  0  0  0  0  0
   29.8540   31.9200   36.4120 C   0  0  0  0  0  0  0  0  0  0  0  0
   28.7410   31.6010   37.1850 C   0  0  0  0  0  0  0  0  0  0  0  0
   28.7850   30.4140   37.9670 C   0  0  0  0  0  0  0  0  0  0  0  0
   29.9220   29.6790   37.8970 N   0  0  0  0  0  0  0  0  0  0  0  0
   30.9820   30.0210   37.1340 C   0  0  0  0  0  0  0  0  0  0  0  0
   30.9510   31.1410   36.3900 N   0  0  0  0  0  0  0  0  0  0  0  0
   29.8510   32.8270   35.7980 H   0  0  0  0  0  0  0  0  0  0  0  0
   27.8640   32.2330   37.1960 H   0  0  0  0  0  0  0  0  0  0  0  0
   27.9550   30.1290   38.5770 H   0  0  0  0  0  0  0  0  0  0  0  0
  1  2  1  0  0  0  0
  2  3  1  0  0  0  0
  3 27  1  0  0  0  0
  3  4  2  0  0  0  0
  4  5  1  0  0  0  0
  4  9  1  0  0  0  0
  5 11  1  0  0  0  0
  6  7  1  0  0  0  0
  6  5  2  0  0  0  0
  8  2  2  0  0  0  0
  8  6  1  0  0  0  0
 10  8  1  0  0  0  0
 11 22  1  0  0  0  0
 12 11  2  0  0  0  0
 12 14  1  0  0  0  0
 13 12  1  0  0  0  0
 14 15  2  0  0  0  0
 15 21  1  0  0  0  0
 15 16  1  0  0  0  0
 16 17  2  0  0  0  0
 17 19  1  0  0  0  0
 17 18  1  0  0  0  0
 20 19  2  0  0  0  0
 21 20  1  0  0  0  0
 22 21  2  0  0  0  0
 23 24  1  0  0  0  0
 24 30  1  0  0  0  0
 24 25  2  0  0  0  0
 25 31  1  0  0  0  0
 26 25  1  0  0  0  0
 27 26  2  0  0  0  0
 28 23  2  0  0  0  0
 28 27  1  0  0  0  0
 29 23  1  0  0  0  0
M  END
>  <minimizedAffinity>
-5.77430058

$$$$

 OpenBabel03252506033D

 31 34  0  0  0  0  0  0  0  0999 V2000
   36.7740   26.1160   38.6440 Cl  0  0  0  0  0  0  0  0  0  0  0  0
   35.4390   27.1140   38.1550 C   0  0  0  0  0  0  0  0  0  0  0  0
   35.3030   28.3920   38.6480 C   0  0  0  0  0  0  0  0  0  0  0  0
   34.2150   29.0990   38.1950 C   0  0  0  0  0  0  0  0  0  0  0  0
   33.2760   28.6190   37.3040 C   0  0  0  0  0  0  0  0  0  0  0  0
   33.4430   27.3400   36.8330 C   0  0  0  0  0  0  0  0  0  0  0  0
   32.2330   26.7630   35.7040 Cl  0  0  0  0  0  0  0  0  0  0  0  0
   34.5120   26.5910   37.2530 C   0  0  0  0  0  0  0  0  0  0  0  0
   34.1180   30.1150   38.5950 H   0  0  0  0  0  0  0  0  0  0  0  0
   34.6030   25.5890   36.8550 H   0  0  0  0  0  0  0  0  0  0  0  0
   32.1860   29.5260   36.9430 C   0  0  0  0  0  0  0  0  0  0  0  0
   31.1590   29.8490   37.8050 C   0  0  0  0  0  0  0  0  0  0  0  0
   31.1370   29.4240   38.7970 H   0  0  0  0  0  0  0  0  0  0  0  0
   30.1220   30.7000   37.4870 C   0  0  0  0  0  3  0  0  0  0  0  0
   30.0930   31.2750   36.2350 C   0  0  0  0  0  0  0  0  0  0  0  0
   29.0770   32.1010   35.9410 N   0  0  0  0  0  0  0  0  0  0  0  0
   28.9650   32.7100   34.7420 C   0  0  0  0  0  0  0  0  0  0  0  0
   28.1000   33.3540   34.6250 H   0  0  0  0  0  0  0  0  0  0  0  0
   29.9640   32.4370   33.8140 C   0  0  0  0  0  3  0  0  0  0  0  0
   30.9980   31.5950   34.1130 C   0  0  0  0  0  3  0  0  0  0  0  0
   31.0940   30.9830   35.3440 C   0  0  0  0  0  0  0  0  0  0  0  0
   32.1220   30.1270   35.6870 C   0  0  0  0  0  3  0  0  0  0  0  0
   36.9160   29.2610   41.8010 C   0  0  0  0  0  0  0  0  0  0  0  0
   38.0210   30.0110   41.4110 C   0  0  0  0  0  0  0  0  0  0  0  0
   38.2280   30.2300   40.0200 C   0  0  0  0  0  0  0  0  0  0  0  0
   37.3180   29.6840   39.1760 N   0  0  0  0  0  0  0  0  0  0  0  0
   36.2570   28.9610   39.5930 C   0  0  0  0  0  0  0  0  0  0  0  0
   36.0520   28.7480   40.9050 N   0  0  0  0  0  0  0  0  0  0  0  0
   36.7290   29.0750   42.8640 H   0  0  0  0  0  0  0  0  0  0  0  0
   38.7100   30.4190   42.1380 H   0  0  0  0  0  0  0  0  0  0  0  0
   39.0620   30.7990   39.6730 H   0  0  0  0  0  0  0  0  0  0  0  0
  2  1  1  0  0  0  0
  2  3  1  0  0  0  0
  3 27  1  0  0  0  0
  4  9  1  0  0  0  0
  4  3  2  0  0  0  0
  5  4  1  0  0  0  0
  6  8  1  0  0  0  0
  6  5  2  0  0  0  0
  7  6  1  0  0  0  0
  8  2  2  0  0  0  0
 10  8  1  0  0  0  0
 11  5  1  0  0  0  0
 11 12  1  0  0  0  0
 12 13  1  0  0  0  0
 14 12  2  0  0  0  0
 15 14  1  0  0  0  0
 16 15  1  0  0  0  0
 17 16  2  0  0  0  0
 18 17  1  0  0  0  0
 19 20  2  0  0  0  0
 19 17  1  0  0  0  0
 20 21  1  0  0  0  0
 21 22  1  0  0  0  0
 21 15  2  0  0  0  0
 22 11  2  0  0  0  0
 23 29  1  0  0  0  0
 24 23  1  0  0  0  0
 24 30  1  0  0  0  0
 25 24  2  0  0  0  0
 26 27  2  0  0  0  0
 26 25  1  0  0  0  0
 27 28  1  0  0  0  0
 28 23  2  0  0  0  0
 31 25  1  0  0  0  0
M  END
>  <minimizedAffinity>
-5.76696301

$$$$

 OpenBabel03252506033D

 31 34  0  0  0  0  0  0  0  0999 V2000
   36.8750   23.5110   40.9240 Cl  0  0  0  0  0  0  0  0  0  0  0  0
   37.2500   25.2050   40.9760 C   0  0  0  0  0  0  0  0  0  0  0  0
   37.7920   25.8360   39.8790 C   0  0  0  0  0  0  0  0  0  0  0  0
   38.0480   27.1790   40.0230 C   0  0  0  0  0  0  0  0  0  0  0  0
   37.8020   27.9120   41.1660 C   0  0  0  0  0  0  0  0  0  0  0  0
   37.2610   27.2510   42.2410 C   0  0  0  0  0  0  0  0  0  0  0  0
   36.9630   28.2120   43.6760 Cl  0  0  0  0  0  0  0  0  0  0  0  0
   36.9860   25.9100   42.1500 C   0  0  0  0  0  0  0  0  0  0  0  0
   38.4790   27.6700   39.1420 H   0  0  0  0  0  0  0  0  0  0  0  0
   36.5610   25.4310   43.0220 H   0  0  0  0  0  0  0  0  0  0  0  0
   38.1450   29.3350   41.1230 C   0  0  0  0  0  0  0  0  0  0  0  0
   39.1940   29.8780   41.8330 C   0  0  0  0  0  0  0  0  0  0  0  0
   39.8060   29.2440   42.4570 H   0  0  0  0  0  0  0  0  0  0  0  0
   39.5350   31.2140   41.8080 C   0  0  0  0  0  3  0  0  0  0  0  0
   38.7920   32.0750   41.0300 C   0  0  0  0  0  0  0  0  0  0  0  0
   39.1360   33.3720   41.0170 N   0  0  0  0  0  0  0  0  0  0  0  0
   38.4680   34.2900   40.2860 C   0  0  0  0  0  0  0  0  0  0  0  0
   38.8420   35.3060   40.3590 H   0  0  0  0  0  0  0  0  0  0  0  0
   37.3930   33.8220   39.5390 C   0  0  0  0  0  3  0  0  0  0  0  0
   37.0420   32.5010   39.5530 C   0  0  0  0  0  3  0  0  0  0  0  0
   37.7380   31.5800   40.3070 C   0  0  0  0  0  0  0  0  0  0  0  0
   37.4170   30.2370   40.3480 C   0  0  0  0  0  3  0  0  0  0  0  0
   39.4600   23.6690   37.4670 C   0  0  0  0  0  0  0  0  0  0  0  0
   38.6590   23.7600   36.3320 C   0  0  0  0  0  0  0  0  0  0  0  0
   37.5070   24.5910   36.3890 C   0  0  0  0  0  0  0  0  0  0  0  0
   37.2770   25.2370   37.5590 N   0  0  0  0  0  0  0  0  0  0  0  0
   38.0780   25.1230   38.6400 C   0  0  0  0  0  0  0  0  0  0  0  0
   39.1710   24.3400   38.5980 N   0  0  0  0  0  0  0  0  0  0  0  0
   40.3550   23.0370   37.4550 H   0  0  0  0  0  0  0  0  0  0  0  0
   38.9000   23.2170   35.4290 H   0  0  0  0  0  0  0  0  0  0  0  0
   36.8620   24.6920   35.5430 H   0  0  0  0  0  0  0  0  0  0  0  0
  1  2  1  0  0  0  0
  2  8  1  0  0  0  0
  3  4  1  0  0  0  0
  3  2  2  0  0  0  0
  4  5  2  0  0  0  0
  5  6  1  0  0  0  0
  6  7  1  0  0  0  0
  8  6  2  0  0  0  0
  8 10  1  0  0  0  0
  9  4  1  0  0  0  0
 11  5  1  0  0  0  0
 11 12  1  0  0  0  0
 12 13  1  0  0  0  0
 14 12  2  0  0  0  0
 15 14  1  0  0  0  0
 16 15  1  0  0  0  0
 17 18  1  0  0  0  0
 17 16  2  0  0  0  0
 19 20  2  0  0  0  0
 19 17  1  0  0  0  0
 20 21  1  0  0  0  0
 21 22  1  0  0  0  0
 21 15  2  0  0  0  0
 22 11  2  0  0  0  0
 23 28  1  0  0  0  0
 24 25  1  0  0  0  0
 24 23  2  0  0  0  0
 25 26  2  0  0  0  0
 26 27  1  0  0  0  0
 27  3  1  0  0  0  0
 28 27  2  0  0  0  0
 29 23  1  0  0  0  0
 30 24  1  0  0  0  0
 31 25  1  0  0  0  0
M  END
>  <minimizedAffinity>
-5.5558877

$$$$

 OpenBabel03252506033D

 31 34  0  0  0  0  0  0  0  0999 V2000
   40.0080   34.3490   40.4490 Cl  0  0  0  0  0  0  0  0  0  0  0  0
   39.4490   32.7280   40.7240 C   0  0  0  0  0  0  0  0  0  0  0  0
   40.3420   31.7140   40.9840 C   0  0  0  0  0  0  0  0  0  0  0  0
   39.7960   30.4700   41.1910 C   0  0  0  0  0  0  0  0  0  0  0  0
   38.4470   30.1830   41.1550 C   0  0  0  0  0  0  0  0  0  0  0  0
   37.5840   31.2190   40.8930 C   0  0  0  0  0  0  0  0  0  0  0  0
   35.8780   30.8190   40.8540 Cl  0  0  0  0  0  0  0  0  0  0  0  0
   38.0760   32.4800   40.6790 C   0  0  0  0  0  0  0  0  0  0  0  0
   40.5190   29.6700   41.3970 H   0  0  0  0  0  0  0  0  0  0  0  0
   37.3590   33.2650   40.4760 H   0  0  0  0  0  0  0  0  0  0  0  0
   38.0620   28.7920   41.4010 C   0  0  0  0  0  0  0  0  0  0  0  0
   37.9870   28.2440   42.6640 C   0  0  0  0  0  0  0  0  0  0  0  0
   38.2200   28.8490   43.5270 H   0  0  0  0  0  0  0  0  0  0  0  0
   37.6270   26.9380   42.9200 C   0  0  0  0  0  3  0  0  0  0  0  0
   37.3170   26.1140   41.8600 C   0  0  0  0  0  0  0  0  0  0  0  0
   36.9690   24.8450   42.1250 N   0  0  0  0  0  0  0  0  0  0  0  0
   36.6500   23.9650   41.1530 C   0  0  0  0  0  0  0  0  0  0  0  0
   36.3850   22.9700   41.4940 H   0  0  0  0  0  0  0  0  0  0  0  0
   36.7000   24.4410   39.8470 C   0  0  0  0  0  3  0  0  0  0  0  0
   37.0560   25.7320   39.5770 C   0  0  0  0  0  3  0  0  0  0  0  0
   37.3780   26.6160   40.5850 C   0  0  0  0  0  0  0  0  0  0  0  0
   37.7420   27.9280   40.3550 C   0  0  0  0  0  3  0  0  0  0  0  0
   43.7990   32.1220   39.8980 C   0  0  0  0  0  0  0  0  0  0  0  0
   44.4890   32.3760   41.0800 C   0  0  0  0  0  0  0  0  0  0  0  0
   43.7500   32.4090   42.2950 C   0  0  0  0  0  0  0  0  0  0  0  0
   42.4150   32.1880   42.2020 N   0  0  0  0  0  0  0  0  0  0  0  0
   41.7810   31.9450   41.0360 C   0  0  0  0  0  0  0  0  0  0  0  0
   42.4700   31.9120   39.8810 N   0  0  0  0  0  0  0  0  0  0  0  0
   44.3400   32.0900   38.9460 H   0  0  0  0  0  0  0  0  0  0  0  0
   45.5570   32.5430   41.0830 H   0  0  0  0  0  0  0  0  0  0  0  0
   44.2360   32.5990   43.2260 H   0  0  0  0  0  0  0  0  0  0  0  0
  1  2  1  0  0  0  0
  2  3  1  0  0  0  0
  3 27  1  0  0  0  0
  3  4  2  0  0  0  0
  4  9  1  0  0  0  0
  5  4  1  0  0  0  0
  5 11  1  0  0  0  0
  6  5  2  0  0  0  0
  7  6  1  0  0  0  0
  8  2  2  0  0  0  0
  8  6  1  0  0  0  0
 10  8  1  0  0  0  0
 11 12  1  0  0  0  0
 12 14  2  0  0  0  0
 12 13  1  0  0  0  0
 15 16  1  0  0  0  0
 15 14  1  0  0  0  0
 17 18  1  0  0  0  0
 17 16  2  0  0  0  0
 19 17  1  0  0  0  0
 20 19  2  0  0  0  0
 20 21  1  0  0  0  0
 21 15  2  0  0  0  0
 22 21  1  0  0  0  0
 22 11  2  0  0  0  0
 23 24  1  0  0  0  0
 24 30  1  0  0  0  0
 24 25  2  0  0  0  0
 25 31  1  0  0  0  0
 26 25  1  0  0  0  0
 27 26  2  0  0  0  0
 28 23  2  0  0  0  0
 28 27  1  0  0  0  0
 29 23  1  0  0  0  0
M  END
>  <minimizedAffinity>
-5.54237032

$$$$

 OpenBabel03252506033D

 31 34  0  0  0  0  0  0  0  0999 V2000
   37.6550   23.1090   41.0680 Cl  0  0  0  0  0  0  0  0  0  0  0  0
   37.8670   24.8320   41.1010 C   0  0  0  0  0  0  0  0  0  0  0  0
   38.5910   25.4670   40.1170 C   0  0  0  0  0  0  0  0  0  0  0  0
   38.6960   26.8320   40.2340 C   0  0  0  0  0  0  0  0  0  0  0  0
   38.1380   27.5840   41.2480 C   0  0  0  0  0  0  0  0  0  0  0  0
   37.4220   26.9180   42.2120 C   0  0  0  0  0  0  0  0  0  0  0  0
   36.7280   27.9030   43.4850 Cl  0  0  0  0  0  0  0  0  0  0  0  0
   37.2870   25.5550   42.1430 C   0  0  0  0  0  0  0  0  0  0  0  0
   39.2750   27.3260   39.4440 H   0  0  0  0  0  0  0  0  0  0  0  0
   36.7150   25.0730   42.9250 H   0  0  0  0  0  0  0  0  0  0  0  0
   38.3620   29.0290   41.1970 C   0  0  0  0  0  0  0  0  0  0  0  0
   39.3330   29.6660   41.9400 C   0  0  0  0  0  0  0  0  0  0  0  0
   39.9700   29.0930   42.5970 H   0  0  0  0  0  0  0  0  0  0  0  0
   39.5630   31.0260   41.9090 C   0  0  0  0  0  3  0  0  0  0  0  0
   38.7840   31.8130   41.0900 C   0  0  0  0  0  0  0  0  0  0  0  0
   39.0200   33.1340   41.0710 N   0  0  0  0  0  0  0  0  0  0  0  0
   38.3090   33.9840   40.3010 C   0  0  0  0  0  0  0  0  0  0  0  0
   38.5940   35.0280   40.3730 H   0  0  0  0  0  0  0  0  0  0  0  0
   37.3070   33.4190   39.5180 C   0  0  0  0  0  3  0  0  0  0  0  0
   37.0670   32.0740   39.5380 C   0  0  0  0  0  3  0  0  0  0  0  0
   37.8050   31.2230   40.3320 C   0  0  0  0  0  0  0  0  0  0  0  0
   37.5950   29.8590   40.3810 C   0  0  0  0  0  3  0  0  0  0  0  0
   39.0490   23.9120   36.8510 C   0  0  0  0  0  0  0  0  0  0  0  0
   40.3270   23.3670   36.9200 C   0  0  0  0  0  0  0  0  0  0  0  0
   41.0640   23.5350   38.1260 C   0  0  0  0  0  0  0  0  0  0  0  0
   40.4530   24.2200   39.1230 N   0  0  0  0  0  0  0  0  0  0  0  0
   39.2090   24.7350   39.0180 C   0  0  0  0  0  0  0  0  0  0  0  0
   38.5040   24.5830   37.8830 N   0  0  0  0  0  0  0  0  0  0  0  0
   38.4560   23.8000   35.9360 H   0  0  0  0  0  0  0  0  0  0  0  0
   40.7570   22.8300   36.0860 H   0  0  0  0  0  0  0  0  0  0  0  0
   42.0490   23.1340   38.2260 H   0  0  0  0  0  0  0  0  0  0  0  0
  1  2  1  0  0  0  0
  2  8  1  0  0  0  0
  3  4  1  0  0  0  0
  3  2  2  0  0  0  0
  4  5  2  0  0  0  0
  5  6  1  0  0  0  0
  6  7  1  0  0  0  0
  8  6  2  0  0  0  0
  8 10  1  0  0  0  0
  9  4  1  0  0  0  0
 11  5  1  0  0  0  0
 11 12  1  0  0  0  0
 12 13  1  0  0  0  0
 14 12  2  0  0  0  0
 15 14  1  0  0  0  0
 16 15  1  0  0  0  0
 17 18  1  0  0  0  0
 17 16  2  0  0  0  0
 19 20  2  0  0  0  0
 19 17  1  0  0  0  0
 20 21  1  0  0  0  0
 21 22  1  0  0  0  0
 21 15  2  0  0  0  0
 22 11  2  0  0  0  0
 23 24  2  0  0  0  0
 23 28  1  0  0  0  0
 24 25  1  0  0  0  0
 25 31  1  0  0  0  0
 25 26  2  0  0  0  0
 27 26  1  0  0  0  0
 27  3  1  0  0  0  0
 28 27  2  0  0  0  0
 29 23  1  0  0  0  0
 30 24  1  0  0  0  0
M  END
>  <minimizedAffinity>
-5.53873158

$$$$

 OpenBabel03252506033D

 31 34  0  0  0  0  0  0  0  0999 V2000
   37.9530   33.6440   39.9290 Cl  0  0  0  0  0  0  0  0  0  0  0  0
   37.8400   31.9290   40.1770 C   0  0  0  0  0  0  0  0  0  0  0  0
   38.9760   31.1680   40.3350 C   0  0  0  0  0  0  0  0  0  0  0  0
   38.7770   29.8220   40.5300 C   0  0  0  0  0  0  0  0  0  0  0  0
   37.5440   29.2040   40.5740 C   0  0  0  0  0  0  0  0  0  0  0  0
   36.4320   29.9940   40.4120 C   0  0  0  0  0  0  0  0  0  0  0  0
   34.8820   29.1770   40.4730 Cl  0  0  0  0  0  0  0  0  0  0  0  0
   36.5740   31.3430   40.2160 C   0  0  0  0  0  0  0  0  0  0  0  0
   39.6900   29.2270   40.6540 H   0  0  0  0  0  0  0  0  0  0  0  0
   35.6700   31.9250   40.0930 H   0  0  0  0  0  0  0  0  0  0  0  0
   37.5390   27.7570   40.7900 C   0  0  0  0  0  0  0  0  0  0  0  0
   37.3500   27.1820   42.0290 C   0  0  0  0  0  0  0  0  0  0  0  0
   37.1960   27.8080   42.8940 H   0  0  0  0  0  0  0  0  0  0  0  0
   37.3410   25.8210   42.2560 C   0  0  0  0  0  3  0  0  0  0  0  0
   37.5320   24.9680   41.1910 C   0  0  0  0  0  0  0  0  0  0  0  0
   37.5210   23.6470   41.4290 N   0  0  0  0  0  0  0  0  0  0  0  0
   37.6990   22.7350   40.4500 C   0  0  0  0  0  0  0  0  0  0  0  0
   37.6700   21.6980   40.7680 H   0  0  0  0  0  0  0  0  0  0  0  0
   37.8980   23.2350   39.1680 C   0  0  0  0  0  3  0  0  0  0  0  0
   37.9090   24.5800   38.9250 C   0  0  0  0  0  3  0  0  0  0  0  0
   37.7250   25.4950   39.9400 C   0  0  0  0  0  0  0  0  0  0  0  0
   37.7290   26.8610   39.7380 C   0  0  0  0  0  3  0  0  0  0  0  0
   42.1150   32.4890   39.0320 C   0  0  0  0  0  0  0  0  0  0  0  0
   42.8190   32.8560   40.1750 C   0  0  0  0  0  0  0  0  0  0  0  0
   42.2020   32.6470   41.4400 C   0  0  0  0  0  0  0  0  0  0  0  0
   40.9620   32.0990   41.4300 N   0  0  0  0  0  0  0  0  0  0  0  0
   40.3100   31.7550   40.2990 C   0  0  0  0  0  0  0  0  0  0  0  0
   40.8840   31.9490   39.0970 N   0  0  0  0  0  0  0  0  0  0  0  0
   42.5630   32.6370   38.0440 H   0  0  0  0  0  0  0  0  0  0  0  0
   43.8080   33.2890   40.1130 H   0  0  0  0  0  0  0  0  0  0  0  0
   42.7030   32.9130   42.3450 H   0  0  0  0  0  0  0  0  0  0  0  0
  1  2  1  0  0  0  0
  2  8  2  0  0  0  0
  2  3  1  0  0  0  0
  3  4  2  0  0  0  0
  4  5  1  0  0  0  0
  4  9  1  0  0  0  0
  5 11  1  0  0  0  0
  6  7  1  0  0  0  0
  6  5  2  0  0  0  0
  8  6  1  0  0  0  0
 10  8  1  0  0  0  0
 11 12  1  0  0  0  0
 12 14  2  0  0  0  0
 12 13  1  0  0  0  0
 15 16  1  0  0  0  0
 15 14  1  0  0  0  0
 17 18  1  0  0  0  0
 17 16  2  0  0  0  0
 19 17  1  0  0  0  0
 20 19  2  0  0  0  0
 20 21  1  0  0  0  0
 21 15  2  0  0  0  0
 22 21  1  0  0  0  0
 22 11  2  0  0  0  0
 23 28  2  0  0  0  0
 23 24  1  0  0  0  0
 24 25  2  0  0  0  0
 25 31  1  0  0  0  0
 26 25  1  0  0  0  0
 27  3  1  0  0  0  0
 27 26  2  0  0  0  0
 28 27  1  0  0  0  0
 29 23  1  0  0  0  0
 30 24  1  0  0  0  0
M  END
>  <minimizedAffinity>
-5.53068113

$$$$

 OpenBabel03252506033D

 31 34  0  0  0  0  0  0  0  0999 V2000
   36.6290   23.9050   41.1830 Cl  0  0  0  0  0  0  0  0  0  0  0  0
   36.9610   25.6040   41.0650 C   0  0  0  0  0  0  0  0  0  0  0  0
   37.0100   26.2250   39.8380 C   0  0  0  0  0  0  0  0  0  0  0  0
   37.2760   27.5730   39.8550 C   0  0  0  0  0  0  0  0  0  0  0  0
   37.4920   28.3210   40.9940 C   0  0  0  0  0  0  0  0  0  0  0  0
   37.4360   27.6700   42.2020 C   0  0  0  0  0  0  0  0  0  0  0  0
   37.7160   28.6500   43.6280 Cl  0  0  0  0  0  0  0  0  0  0  0  0
   37.1740   26.3250   42.2410 C   0  0  0  0  0  0  0  0  0  0  0  0
   37.3120   28.0560   38.8700 H   0  0  0  0  0  0  0  0  0  0  0  0
   37.1390   25.8540   43.2150 H   0  0  0  0  0  0  0  0  0  0  0  0
   37.7620   29.7480   40.8050 C   0  0  0  0  0  0  0  0  0  0  0  0
   36.7680   30.6820   40.6080 C   0  0  0  0  0  0  0  0  0  0  0  0
   35.7340   30.3710   40.5870 H   0  0  0  0  0  0  0  0  0  0  0  0
   36.9980   32.0300   40.4280 C   0  0  0  0  0  3  0  0  0  0  0  0
   38.2960   32.4900   40.4430 C   0  0  0  0  0  0  0  0  0  0  0  0
   38.5040   33.8040   40.2660 N   0  0  0  0  0  0  0  0  0  0  0  0
   39.7400   34.3470   40.2660 C   0  0  0  0  0  0  0  0  0  0  0  0
   39.7780   35.4200   40.1130 H   0  0  0  0  0  0  0  0  0  0  0  0
   40.8010   33.4690   40.4590 C   0  0  0  0  0  3  0  0  0  0  0  0
   40.5900   32.1310   40.6390 C   0  0  0  0  0  3  0  0  0  0  0  0
   39.3190   31.5970   40.6360 C   0  0  0  0  0  0  0  0  0  0  0  0
   39.0620   30.2510   40.8140 C   0  0  0  0  0  3  0  0  0  0  0  0
   37.6980   24.3320   36.7980 C   0  0  0  0  0  0  0  0  0  0  0  0
   36.4370   24.1160   36.2500 C   0  0  0  0  0  0  0  0  0  0  0  0
   35.3070   24.6350   36.9420 C   0  0  0  0  0  0  0  0  0  0  0  0
   35.5530   25.3070   38.0930 N   0  0  0  0  0  0  0  0  0  0  0  0
   36.7930   25.4960   38.5940 C   0  0  0  0  0  0  0  0  0  0  0  0
   37.8680   25.0090   37.9490 N   0  0  0  0  0  0  0  0  0  0  0  0
   38.5880   23.9450   36.2900 H   0  0  0  0  0  0  0  0  0  0  0  0
   36.3110   23.5700   35.3260 H   0  0  0  0  0  0  0  0  0  0  0  0
   34.3200   24.4940   36.5600 H   0  0  0  0  0  0  0  0  0  0  0  0
  2  1  1  0  0  0  0
  2  8  1  0  0  0  0
  3  4  1  0  0  0  0
  3  2  2  0  0  0  0
  4  5  2  0  0  0  0
  5  6  1  0  0  0  0
  6  8  2  0  0  0  0
  6  7  1  0  0  0  0
  8 10  1  0  0  0  0
  9  4  1  0  0  0  0
 11 22  1  0  0  0  0
 11  5  1  0  0  0  0
 12 11  2  0  0  0  0
 13 12  1  0  0  0  0
 14 15  2  0  0  0  0
 14 12  1  0  0  0  0
 15 21  1  0  0  0  0
 16 17  2  0  0  0  0
 16 15  1  0  0  0  0
 17 19  1  0  0  0  0
 18 17  1  0  0  0  0
 19 20  2  0  0  0  0
 21 20  1  0  0  0  0
 21 22  2  0  0  0  0
 23 28  1  0  0  0  0
 24 23  2  0  0  0  0
 24 25  1  0  0  0  0
 25 26  2  0  0  0  0
 26 27  1  0  0  0  0
 27  3  1  0  0  0  0
 28 27  2  0  0  0  0
 29 23  1  0  0  0  0
 30 24  1  0  0  0  0
 31 25  1  0  0  0  0
M  END
>  <minimizedAffinity>
-5.52021885

$$$$

 OpenBabel03252506033D

 31 34  0  0  0  0  0  0  0  0999 V2000
   38.1610   34.3490   39.7900 Cl  0  0  0  0  0  0  0  0  0  0  0  0
   38.2380   32.6520   40.1470 C   0  0  0  0  0  0  0  0  0  0  0  0
   39.4500   32.0030   40.2090 C   0  0  0  0  0  0  0  0  0  0  0  0
   39.4010   30.6610   40.5020 C   0  0  0  0  0  0  0  0  0  0  0  0
   38.2440   29.9450   40.7310 C   0  0  0  0  0  0  0  0  0  0  0  0
   37.0520   30.6230   40.6620 C   0  0  0  0  0  0  0  0  0  0  0  0
   35.6030   29.6830   40.9570 Cl  0  0  0  0  0  0  0  0  0  0  0  0
   37.0450   31.9640   40.3720 C   0  0  0  0  0  0  0  0  0  0  0  0
   40.3740   30.1560   40.5490 H   0  0  0  0  0  0  0  0  0  0  0  0
   36.0830   32.4570   40.3280 H   0  0  0  0  0  0  0  0  0  0  0  0
   38.3990   28.5200   41.0290 C   0  0  0  0  0  0  0  0  0  0  0  0
   37.7990   27.5260   40.2850 C   0  0  0  0  0  0  0  0  0  0  0  0
   37.1810   27.7870   39.4400 H   0  0  0  0  0  0  0  0  0  0  0  0
   37.9300   26.1780   40.5470 C   0  0  0  0  0  3  0  0  0  0  0  0
   38.7060   25.7810   41.6130 C   0  0  0  0  0  0  0  0  0  0  0  0
   38.8240   24.4660   41.8550 N   0  0  0  0  0  0  0  0  0  0  0  0
   39.5620   23.9820   42.8760 C   0  0  0  0  0  0  0  0  0  0  0  0
   39.5790   22.9010   42.9680 H   0  0  0  0  0  0  0  0  0  0  0  0
   40.2020   24.9220   43.6760 C   0  0  0  0  0  3  0  0  0  0  0  0
   40.0820   26.2610   43.4310 C   0  0  0  0  0  3  0  0  0  0  0  0
   39.3230   26.7350   42.3820 C   0  0  0  0  0  0  0  0  0  0  0  0
   39.1760   28.0780   42.0990 C   0  0  0  0  0  3  0  0  0  0  0  0
   42.5300   33.8450   40.8570 C   0  0  0  0  0  0  0  0  0  0  0  0
   43.0870   34.0120   39.5930 C   0  0  0  0  0  0  0  0  0  0  0  0
   42.3890   33.4770   38.4750 C   0  0  0  0  0  0  0  0  0  0  0  0
   41.2210   32.8400   38.7350 N   0  0  0  0  0  0  0  0  0  0  0  0
   40.7110   32.6970   39.9770 C   0  0  0  0  0  0  0  0  0  0  0  0
   41.3630   33.1990   41.0410 N   0  0  0  0  0  0  0  0  0  0  0  0
   43.0430   34.2460   41.7380 H   0  0  0  0  0  0  0  0  0  0  0  0
   44.0250   34.5320   39.4560 H   0  0  0  0  0  0  0  0  0  0  0  0
   42.7780   33.5800   37.4860 H   0  0  0  0  0  0  0  0  0  0  0  0
  1  2  1  0  0  0  0
  2  3  2  0  0  0  0
  2  8  1  0  0  0  0
  3  4  1  0  0  0  0
  4  9  1  0  0  0  0
  4  5  2  0  0  0  0
  5 11  1  0  0  0  0
  6  5  1  0  0  0  0
  6  7  1  0  0  0  0
  8  6  2  0  0  0  0
 10  8  1  0  0  0  0
 11 22  1  0  0  0  0
 12 14  1  0  0  0  0
 12 11  2  0  0  0  0
 13 12  1  0  0  0  0
 14 15  2  0  0  0  0
 15 16  1  0  0  0  0
 15 21  1  0  0  0  0
 16 17  2  0  0  0  0
 17 18  1  0  0  0  0
 17 19  1  0  0  0  0
 20 19  2  0  0  0  0
 21 20  1  0  0  0  0
 22 21  2  0  0  0  0
 23 28  1  0  0  0  0
 23 29  1  0  0  0  0
 24 23  2  0  0  0  0
 25 26  2  0  0  0  0
 25 24  1  0  0  0  0
 26 27  1  0  0  0  0
 27  3  1  0  0  0  0
 27 28  2  0  0  0  0
 30 24  1  0  0  0  0
 31 25  1  0  0  0  0
M  END
>  <minimizedAffinity>
-5.47703075

$$$$

 OpenBabel03252506033D

 31 34  0  0  0  0  0  0  0  0999 V2000
   37.8250   24.9900   40.9420 Cl  0  0  0  0  0  0  0  0  0  0  0  0
   36.8460   25.8910   39.8270 C   0  0  0  0  0  0  0  0  0  0  0  0
   36.7230   27.2570   39.9490 C   0  0  0  0  0  0  0  0  0  0  0  0
   35.9280   27.8750   39.0130 C   0  0  0  0  0  0  0  0  0  0  0  0
   35.2630   27.2300   37.9910 C   0  0  0  0  0  0  0  0  0  0  0  0
   35.4070   25.8670   37.9000 C   0  0  0  0  0  0  0  0  0  0  0  0
   34.5490   25.0790   36.5900 Cl  0  0  0  0  0  0  0  0  0  0  0  0
   36.1900   25.2010   38.8080 C   0  0  0  0  0  0  0  0  0  0  0  0
   35.8390   28.9630   39.1210 H   0  0  0  0  0  0  0  0  0  0  0  0
   36.2740   24.1270   38.6970 H   0  0  0  0  0  0  0  0  0  0  0  0
   34.4620   28.0650   37.0940 C   0  0  0  0  0  0  0  0  0  0  0  0
   34.8450   28.3670   35.8050 C   0  0  0  0  0  0  0  0  0  0  0  0
   35.7750   27.9820   35.4170 H   0  0  0  0  0  0  0  0  0  0  0  0
   34.1070   29.1510   34.9430 C   0  0  0  0  0  3  0  0  0  0  0  0
   32.9090   29.6740   35.3800 C   0  0  0  0  0  0  0  0  0  0  0  0
   32.2040   30.4350   34.5300 N   0  0  0  0  0  0  0  0  0  0  0  0
   31.0200   30.9890   34.8680 C   0  0  0  0  0  0  0  0  0  0  0  0
   30.5450   31.5830   34.0940 H   0  0  0  0  0  0  0  0  0  0  0  0
   30.5610   30.7310   36.1550 C   0  0  0  0  0  3  0  0  0  0  0  0
   31.2800   29.9560   37.0210 C   0  0  0  0  0  3  0  0  0  0  0  0
   32.4880   29.3990   36.6560 C   0  0  0  0  0  0  0  0  0  0  0  0
   33.2450   28.6110   37.5000 C   0  0  0  0  0  3  0  0  0  0  0  0
   39.1930   29.3240   41.6590 C   0  0  0  0  0  0  0  0  0  0  0  0
   38.7010   29.4190   42.9570 C   0  0  0  0  0  0  0  0  0  0  0  0
   37.4810   28.7550   43.2640 C   0  0  0  0  0  0  0  0  0  0  0  0
   36.8880   28.0720   42.2540 N   0  0  0  0  0  0  0  0  0  0  0  0
   37.3960   28.0020   41.0050 C   0  0  0  0  0  0  0  0  0  0  0  0
   38.5490   28.6270   40.7040 N   0  0  0  0  0  0  0  0  0  0  0  0
   40.1300   29.8240   41.3910 H   0  0  0  0  0  0  0  0  0  0  0  0
   39.2250   29.9810   43.7180 H   0  0  0  0  0  0  0  0  0  0  0  0
   37.0650   28.8000   44.2470 H   0  0  0  0  0  0  0  0  0  0  0  0
  2  3  1  0  0  0  0
  2  1  1  0  0  0  0
  3 27  1  0  0  0  0
  4  9  1  0  0  0  0
  4  3  2  0  0  0  0
  5  4  1  0  0  0  0
  6  5  2  0  0  0  0
  6  8  1  0  0  0  0
  7  6  1  0  0  0  0
  8  2  2  0  0  0  0
 10  8  1  0  0  0  0
 11 22  1  0  0  0  0
 11  5  1  0  0  0  0
 12 11  2  0  0  0  0
 13 12  1  0  0  0  0
 14 15  2  0  0  0  0
 14 12  1  0  0  0  0
 15 21  1  0  0  0  0
 16 17  2  0  0  0  0
 16 15  1  0  0  0  0
 17 19  1  0  0  0  0
 18 17  1  0  0  0  0
 19 20  2  0  0  0  0
 21 20  1  0  0  0  0
 21 22  2  0  0  0  0
 23 24  1  0  0  0  0
 24 25  2  0  0  0  0
 24 30  1  0  0  0  0
 25 31  1  0  0  0  0
 26 25  1  0  0  0  0
 27 26  2  0  0  0  0
 28 27  1  0  0  0  0
 28 23  2  0  0  0  0
 29 23  1  0  0  0  0
M  END
>  <minimizedAffinity>
-5.45609522

$$$$
