
 OpenBabel03242517043D

 36 39  0  0  0  0  0  0  0  0999 V2000
   46.6280   34.7640   42.0420 C   0  0  0  0  0  0  0  0  0  0  0  0
   47.9340   35.2160   42.0020 C   0  0  0  0  0  0  0  0  0  0  0  0
   48.6680   35.0240   40.8420 C   0  0  0  0  0  0  0  0  0  0  0  0
   48.0940   34.4020   39.7730 C   0  0  0  0  0  0  0  0  0  0  0  0
   46.8070   33.9460   39.7840 C   0  0  0  0  0  0  0  0  0  0  0  0
   46.0700   34.1440   40.9650 C   0  0  0  0  0  0  0  0  0  0  0  0
   48.4130   35.7150   42.8420 H   0  0  0  0  0  0  0  0  0  0  0  0
   49.6940   35.3370   40.7040 H   0  0  0  0  0  0  0  0  0  0  0  0
   48.6320   34.2340   38.8520 H   0  0  0  0  0  0  0  0  0  0  0  0
   46.2910   33.4410   38.9640 H   0  0  0  0  0  0  0  0  0  0  0  0
   44.5190   36.2300   44.8100 C   0  0  0  0  0  0  0  0  0  0  0  0
   45.1720   36.1190   43.5570 C   0  0  0  0  0  0  0  0  0  0  0  0
   45.9130   34.9960   43.2870 C   0  0  0  0  0  0  0  0  0  0  0  0
   45.9680   34.0480   44.2650 N   0  0  0  0  0  0  0  0  0  0  0  0
   45.3470   34.1550   45.4560 C   0  0  0  0  0  0  0  0  0  0  0  0
   44.6130   35.2580   45.7340 N   0  0  0  0  0  0  0  0  0  0  0  0
   43.9570   37.1130   44.9770 H   0  0  0  0  0  0  0  0  0  0  0  0
   45.1070   36.8920   42.8020 H   0  0  0  0  0  0  0  0  0  0  0  0
   45.4800   33.3210   46.1360 H   0  0  0  0  0  0  0  0  0  0  0  0
   43.4700   34.2960   40.9150 C   0  0  0  0  0  0  0  0  0  0  0  0
   43.2560   35.4370   40.5350 O   0  0  0  0  0  0  0  0  0  0  0  0
   44.7350   33.7220   41.1310 N   0  0  0  0  0  0  0  0  0  0  0  0
   44.8390   32.7390   41.5070 H   0  0  0  0  0  0  0  0  0  0  0  0
   42.3540   33.4880   41.1550 O   0  0  0  0  0  0  0  0  0  0  0  0
   41.2550   33.5950   40.3370 C   0  0  0  0  0  0  0  0  0  0  0  0
   40.3670   34.6600   40.3090 C   0  0  0  0  0  0  0  0  0  0  0  0
   40.5950   35.4590   41.0080 H   0  0  0  0  0  0  0  0  0  0  0  0
   39.2840   34.6770   39.4450 C   0  0  0  0  0  0  0  0  0  0  0  0
   39.0470   33.6130   38.5680 C   0  0  0  0  0  0  0  0  0  0  0  0
   37.9900   33.6560   37.7410 N   0  0  0  0  0  0  0  0  0  0  0  0
   37.7510   32.6300   36.8860 C   0  0  0  0  0  0  0  0  0  0  0  0
   36.8950   32.6600   36.2150 H   0  0  0  0  0  0  0  0  0  0  0  0
   38.5870   31.5570   36.8670 C   0  0  0  0  0  0  0  0  0  0  0  0
   39.6650   31.5350   37.7230 C   0  0  0  0  0  0  0  0  0  0  0  0
   39.9490   32.5700   38.6220 C   0  0  0  0  0  0  0  0  0  0  0  0
   41.0320   32.5410   39.4760 C   0  0  0  0  0  0  0  0  0  0  0  0
  1 13  1  0  0  0  0
  2  1  1  0  0  0  0
  2  7  1  0  0  0  0
  3  2  2  0  0  0  0
  4  5  2  0  0  0  0
  4  3  1  0  0  0  0
  5  6  1  0  0  0  0
  6 22  1  0  0  0  0
  6  1  2  0  0  0  0
  8  3  1  0  0  0  0
  9  4  1  0  0  0  0
 10  5  1  0  0  0  0
 11 17  1  0  0  0  0
 11 16  1  0  0  0  0
 12 11  2  0  0  0  0
 13 12  1  0  0  0  0
 13 14  2  0  0  0  0
 14 15  1  0  0  0  0
 15 16  2  0  0  0  0
 15 19  1  0  0  0  0
 18 12  1  0  0  0  0
 20 22  1  0  0  0  0
 20 24  1  0  0  0  0
 21 20  2  0  0  0  0
 22 23  1  0  0  0  0
 25 24  1  0  0  0  0
 26 25  1  0  0  0  0
 26 27  1  0  0  0  0
 28 26  2  0  0  0  0
 29 35  1  0  0  0  0
 29 28  1  0  0  0  0
 30 29  2  0  0  0  0
 31 30  1  0  0  0  0
 32 31  1  0  0  0  0
 33 31  2  0  0  0  0
 33 34  1  0  0  0  0
 34 35  2  0  0  0  0
 35 36  1  0  0  0  0
 36 25  2  0  0  0  0
M  END
>  <minimizedAffinity>
-6.96114492

>  <minimizedRMSD>
1.03639102

$$$$
