
 OpenBabel03252500583D

 41 44  0  0  0  0  0  0  0  0999 V2000
   42.4580   34.2820   40.8980 O   0  0  0  0  0  0  0  0  0  0  0  0
   41.1340   34.1270   40.5300 C   0  0  0  0  0  0  0  0  0  0  0  0
   40.4230   35.2550   40.1590 C   0  0  0  0  0  0  0  0  0  0  0  0
   39.0930   35.1990   39.7760 C   0  0  0  0  0  0  0  0  0  0  0  0
   38.4860   33.9880   39.7710 N   0  0  0  0  0  0  0  0  0  0  0  0
   39.1710   32.8920   40.1280 C   0  0  0  0  0  0  0  0  0  0  0  0
   40.4460   32.9800   40.4920 N   0  0  0  0  0  0  0  0  0  0  0  0
   40.8710   36.2390   40.1520 H   0  0  0  0  0  0  0  0  0  0  0  0
   38.5480   36.0830   39.4890 H   0  0  0  0  0  0  0  0  0  0  0  0
   38.4910   31.6020   40.1120 C   0  0  0  0  0  0  0  0  0  0  0  0
   37.8040   31.1410   41.2210 C   0  0  0  0  0  0  0  0  0  0  0  0
   37.7510   31.7230   42.1290 H   0  0  0  0  0  0  0  0  0  0  0  0
   37.1390   29.9110   41.2470 C   0  0  0  0  0  3  0  0  0  0  0  0
   37.1900   29.1470   40.1000 C   0  0  0  0  0  0  0  0  0  0  0  0
   36.5780   27.9290   40.0110 N   0  0  0  0  0  0  0  0  0  0  0  0
   36.6680   27.2230   38.8450 C   0  0  0  0  0  0  0  0  0  0  0  0
   36.1390   26.2630   38.8900 H   0  0  0  0  0  0  0  0  0  0  0  0
   37.3420   27.6470   37.7180 C   0  0  0  0  0  3  0  0  0  0  0  0
   37.9790   28.8920   37.7820 C   0  0  0  0  0  3  0  0  0  0  0  0
   37.8650   29.5730   38.9760 C   0  0  0  0  0  0  0  0  0  0  0  0
   38.5170   30.8050   38.9830 C   0  0  0  0  0  3  0  0  0  0  0  0
   43.5110   33.9220   38.5020 O   0  0  0  0  0  0  0  0  0  0  0  0
   43.6480   33.5360   39.9640 P   0  0  2  0  0  0  0  0  0  0  0  0
   43.4270   31.8660   40.0930 O   0  0  0  0  0  0  0  0  0  0  0  0
   43.3400   31.6700   41.0690 H   0  0  0  0  0  0  0  0  0  0  0  0
   45.2220   33.8910   40.5020 O   0  0  0  0  0  0  0  0  0  0  0  0
   46.9750   34.2200   42.0360 C   0  0  0  0  0  0  0  0  0  0  0  0
   45.6910   33.7900   41.8070 C   0  0  0  0  0  0  0  0  0  0  0  0
   44.9590   33.2880   42.8980 C   0  0  0  0  0  0  0  0  0  0  0  0
   45.5720   33.2640   44.0990 N   0  0  0  0  0  0  0  0  0  0  0  0
   46.8230   33.6890   44.2940 C   0  0  0  0  0  0  0  0  0  0  0  0
   47.5170   34.1650   43.2620 N   0  0  0  0  0  0  0  0  0  0  0  0
   43.9660   32.9650   42.6720 H   0  0  0  0  0  0  0  0  0  0  0  0
   47.2820   33.6520   45.2810 H   0  0  0  0  0  0  0  0  0  0  0  0
   47.7960   34.7570   40.9390 C   0  0  0  0  0  0  0  0  0  0  0  0
   47.2250   35.3210   40.1920 H   0  0  0  0  0  0  0  0  0  0  0  0
   48.2860   33.8940   40.4370 H   0  0  0  0  0  0  0  0  0  0  0  0
   48.8540   35.6520   41.5150 C   0  0  0  0  0  0  0  0  0  0  0  0
   48.8860   36.6230   40.9890 H   0  0  0  0  0  0  0  0  0  0  0  0
   49.8870   35.2170   41.4210 H   0  0  0  0  0  0  0  0  0  0  0  0
   48.6400   35.8690   42.5930 H   0  0  0  0  0  0  0  0  0  0  0  0
  2  1  1  0  0  0  0
  3  2  2  0  0  0  0
  4  3  1  0  0  0  0
  5  4  2  0  0  0  0
  5  6  1  0  0  0  0
  6  7  2  0  0  0  0
  7  2  1  0  0  0  0
  8  3  1  0  0  0  0
  9  4  1  0  0  0  0
 10  6  1  0  0  0  0
 10 11  1  0  0  0  0
 11 13  2  0  0  0  0
 11 12  1  0  0  0  0
 14 13  1  0  0  0  0
 15 14  1  0  0  0  0
 16 17  1  0  0  0  0
 16 15  2  0  0  0  0
 18 19  2  0  0  0  0
 18 16  1  0  0  0  0
 19 20  1  0  0  0  0
 20 21  1  0  0  0  0
 20 14  2  0  0  0  0
 21 10  2  0  0  0  0
 23 22  2  6  0  0  0
 23 24  1  0  0  0  0
 23 26  1  0  0  0  0
 23  1  1  0  0  0  0
 24 25  1  0  0  0  0
 26 28  1  0  0  0  0
 27 32  1  0  0  0  0
 28 27  2  0  0  0  0
 28 29  1  0  0  0  0
 29 30  2  0  0  0  0
 30 31  1  0  0  0  0
 31 34  1  0  0  0  0
 32 31  2  0  0  0  0
 33 29  1  0  0  0  0
 35 38  1  0  0  0  0
 35 27  1  0  0  0  0
 36 35  1  0  0  0  0
 37 35  1  0  0  0  0
 38 41  1  0  0  0  0
 39 38  1  0  0  0  0
 40 38  1  0  0  0  0
M  END
>  <minimizedAffinity>
-6.03378296

>  <minimizedRMSD>
2.03859591

$$$$
