
 OpenBabel03252501083D

 43 47  0  0  1  0  0  0  0  0999 V2000
   46.9150   33.8400   37.1110 O   0  0  0  0  0  0  0  0  0  0  0  0
   46.0820   32.7510   36.9430 C   0  0  0  0  0  0  0  0  0  0  0  0
   46.3540   31.5550   36.2900 C   0  0  0  0  0  0  0  0  0  0  0  0
   45.4210   30.5700   36.2100 C   0  0  0  0  0  0  0  0  0  0  0  0
   44.1820   30.7400   36.7770 C   0  0  0  0  0  0  0  0  0  0  0  0
   43.9440   31.9530   37.4240 C   0  0  0  0  0  0  0  0  0  0  0  0
   44.8670   32.9260   37.5030 N   0  0  0  0  0  0  0  0  0  0  0  0
   47.3680   31.5430   35.8840 H   0  0  0  0  0  0  0  0  0  0  0  0
   45.7780   29.7030   35.6730 H   0  0  0  0  0  0  0  0  0  0  0  0
   43.5410   29.8930   36.6440 H   0  0  0  0  0  0  0  0  0  0  0  0
   42.6170   32.1150   37.9950 C   0  0  0  0  0  0  0  0  0  0  0  0
   41.7880   31.0310   38.1820 C   0  0  0  0  0  0  0  0  0  0  0  0
   42.2160   30.0870   37.8780 H   0  0  0  0  0  0  0  0  0  0  0  0
   40.5360   31.1550   38.7130 C   0  0  0  0  0  0  0  0  0  0  0  0
   40.0190   32.3720   39.0960 C   0  0  0  0  0  0  0  0  0  0  0  0
   38.7840   32.4760   39.6160 N   0  0  0  0  0  0  0  0  0  0  0  0
   38.2510   33.6690   40.0030 C   0  0  0  0  0  0  0  0  0  0  0  0
   37.2660   33.7310   40.4150 H   0  0  0  0  0  0  0  0  0  0  0  0
   39.0600   34.7720   39.8260 C   0  0  0  0  0  0  0  0  0  0  0  0
   40.3310   34.7040   39.2970 C   0  0  0  0  0  0  0  0  0  0  0  0
   40.8290   33.4800   38.9210 C   0  0  0  0  0  0  0  0  0  0  0  0
   42.0890   33.3230   38.3820 C   0  0  0  0  0  0  0  0  0  0  0  0
   48.8860   32.5280   38.0420 O   0  0  0  0  0  0  0  0  0  0  0  0
   48.2030   33.8890   38.1880 P   0  0  1  0  0  0  0  0  0  0  0  0
   49.3220   35.0110   37.6060 O   0  0  0  0  0  0  0  0  0  0  0  0
   49.2500   35.1710   36.6470 H   0  0  0  0  0  0  0  0  0  0  0  0
   47.6820   34.1600   39.7160 O   0  0  0  0  0  0  0  0  0  0  0  0
   47.9020   35.2840   41.8480 C   0  0  1  0  0  0  0  0  0  0  0  0
   49.1200   34.4700   41.7440 C   0  0  0  0  0  0  0  0  0  0  0  0
   48.3890   35.0000   40.4990 C   0  0  1  0  0  0  0  0  0  0  0  0
   47.9430   36.2980   42.2690 H   0  0  0  0  0  0  0  0  0  0  0  0
   50.0850   34.9190   42.0340 H   0  0  0  0  0  0  0  0  0  0  0  0
   49.0670   33.3610   41.7870 H   0  0  0  0  0  0  0  0  0  0  0  0
   49.0340   35.7180   39.9590 H   0  0  0  0  0  0  0  0  0  0  0  0
   45.6420   32.6580   43.3820 C   0  0  0  0  0  0  0  0  0  0  0  0
   46.7980   33.3330   43.0040 C   0  0  0  0  0  0  0  0  0  0  0  0
   46.6750   34.5360   42.2830 C   0  0  0  0  0  0  0  0  0  0  0  0
   45.4310   34.9950   41.9800 N   0  0  0  0  0  0  0  0  0  0  0  0
   44.3260   34.3050   42.3680 C   0  0  0  0  0  0  0  0  0  0  0  0
   44.4320   33.1460   43.0640 N   0  0  0  0  0  0  0  0  0  0  0  0
   45.6920   31.7320   43.9370 H   0  0  0  0  0  0  0  0  0  0  0  0
   47.7650   32.9310   43.2670 H   0  0  0  0  0  0  0  0  0  0  0  0
   43.4540   34.8450   42.0270 H   0  0  0  0  0  0  0  0  0  0  0  0
  1 24  1  0  0  0  0
  2  1  1  0  0  0  0
  2  7  1  0  0  0  0
  3  2  2  0  0  0  0
  4  3  1  0  0  0  0
  4  5  2  0  0  0  0
  5  6  1  0  0  0  0
  6  7  2  0  0  0  0
  6 11  1  0  0  0  0
  8  3  1  0  0  0  0
  9  4  1  0  0  0  0
 10  5  1  0  0  0  0
 11 12  2  0  0  0  0
 11 22  1  0  0  0  0
 12 14  1  0  0  0  0
 13 12  1  0  0  0  0
 14 15  2  0  0  0  0
 15 16  1  0  0  0  0
 16 17  2  0  0  0  0
 17 18  1  0  0  0  0
 19 17  1  0  0  0  0
 20 19  2  0  0  0  0
 21 15  1  0  0  0  0
 21 20  1  0  0  0  0
 22 21  2  0  0  0  0
 24 23  2  6  0  0  0
 24 27  1  0  0  0  0
 25 24  1  0  0  0  0
 26 25  1  0  0  0  0
 27 30  1  0  0  0  0
 28 31  1  1  0  0  0
 28 37  1  0  0  0  0
 29 33  1  0  0  0  0
 29 28  1  0  0  0  0
 29 32  1  0  0  0  0
 30 34  1  6  0  0  0
 30 29  1  0  0  0  0
 30 28  1  0  0  0  0
 35 41  1  0  0  0  0
 36 42  1  0  0  0  0
 36 35  2  0  0  0  0
 37 36  1  0  0  0  0
 38 37  2  0  0  0  0
 38 39  1  0  0  0  0
 39 40  2  0  0  0  0
 40 35  1  0  0  0  0
 43 39  1  0  0  0  0
M  END
>  <minimizedAffinity>
-6.08073997

>  <minimizedRMSD>
1.56183004

$$$$
