
 OpenBabel03242513553D

 22 24  0  0  0  0  0  0  0  0999 V2000
   38.0690   29.3240   42.4760 C   0  0  0  0  0  0  0  0  0  0  0  0
   39.2450   29.9200   42.8840 C   0  0  0  0  0  0  0  0  0  0  0  0
   39.7970   29.3650   43.6290 H   0  0  0  0  0  0  0  0  0  0  0  0
   39.6200   31.1280   42.3380 C   0  0  0  0  0  3  0  0  0  0  0  0
   38.8570   31.7800   41.3850 C   0  0  0  0  0  0  0  0  0  0  0  0
   39.3010   32.9540   40.9100 N   0  0  0  0  0  0  0  0  0  0  0  0
   38.5820   33.6160   39.9800 C   0  0  0  0  0  0  0  0  0  0  0  0
   38.8740   34.5770   39.5420 H   0  0  0  0  0  0  0  0  0  0  0  0
   37.4080   33.0570   39.5490 C   0  0  0  0  0  3  0  0  0  0  0  0
   36.9410   31.8340   40.0410 C   0  0  0  0  0  3  0  0  0  0  0  0
   37.6870   31.1670   40.9920 C   0  0  0  0  0  0  0  0  0  0  0  0
   37.2690   29.9490   41.5160 C   0  0  0  0  0  3  0  0  0  0  0  0
   37.5350   28.1140   42.9130 O   0  0  0  0  0  0  0  0  0  0  0  0
   39.3860   26.6810   43.6800 C   0  0  0  0  0  0  0  0  0  0  0  0
   38.2170   26.9190   42.9420 C   0  0  0  0  0  0  0  0  0  0  0  0
   37.7130   25.8530   42.1780 C   0  0  0  0  0  0  0  0  0  0  0  0
   38.3750   24.6760   42.1990 N   0  0  0  0  0  0  0  0  0  0  0  0
   39.4980   24.4770   42.9190 C   0  0  0  0  0  0  0  0  0  0  0  0
   39.9930   25.5040   43.6610 N   0  0  0  0  0  0  0  0  0  0  0  0
   39.6920   27.5670   44.2330 H   0  0  0  0  0  0  0  0  0  0  0  0
   36.8120   25.9570   41.5790 H   0  0  0  0  0  0  0  0  0  0  0  0
   39.9740   23.5100   42.8880 H   0  0  0  0  0  0  0  0  0  0  0  0
  1  2  1  0  0  0  0
  1 13  1  0  0  0  0
  2  3  1  0  0  0  0
  4  2  2  0  0  0  0
  5  4  1  0  0  0  0
  6  5  2  0  0  0  0
  7  6  1  0  0  0  0
  8  7  1  0  0  0  0
  9  7  2  0  0  0  0
  9 10  1  0  0  0  0
 10 11  2  0  0  0  0
 11  5  1  0  0  0  0
 11 12  1  0  0  0  0
 12  1  2  0  0  0  0
 13 15  1  0  0  0  0
 14 20  1  0  0  0  0
 15 14  2  0  0  0  0
 16 17  2  0  0  0  0
 16 15  1  0  0  0  0
 17 18  1  0  0  0  0
 18 19  2  0  0  0  0
 19 14  1  0  0  0  0
 21 16  1  0  0  0  0
 22 18  1  0  0  0  0
M  END
>  <minimizedAffinity>
-5.06116247

$$$$

 OpenBabel03242513553D

 22 24  0  0  0  0  0  0  0  0999 V2000
   37.8460   31.6230   40.7000 C   0  0  0  0  0  0  0  0  0  0  0  0
   36.5960   31.1570   40.3450 C   0  0  0  0  0  0  0  0  0  0  0  0
   36.0570   31.7930   39.6570 H   0  0  0  0  0  0  0  0  0  0  0  0
   36.1410   29.9670   40.8670 C   0  0  0  0  0  3  0  0  0  0  0  0
   36.8930   29.2070   41.7470 C   0  0  0  0  0  0  0  0  0  0  0  0
   36.3680   28.0610   42.2070 N   0  0  0  0  0  0  0  0  0  0  0  0
   37.0740   27.2960   43.0650 C   0  0  0  0  0  0  0  0  0  0  0  0
   36.7170   26.3490   43.4840 H   0  0  0  0  0  0  0  0  0  0  0  0
   38.3190   27.7250   43.4410 C   0  0  0  0  0  3  0  0  0  0  0  0
   38.8710   28.9180   42.9650 C   0  0  0  0  0  3  0  0  0  0  0  0
   38.1380   29.6910   42.0880 C   0  0  0  0  0  0  0  0  0  0  0  0
   38.6380   30.8870   41.5840 C   0  0  0  0  0  3  0  0  0  0  0  0
   38.4670   32.7950   40.2730 O   0  0  0  0  0  0  0  0  0  0  0  0
   39.5710   32.0320   38.2070 C   0  0  0  0  0  0  0  0  0  0  0  0
   39.4770   32.8540   39.3400 C   0  0  0  0  0  0  0  0  0  0  0  0
   40.4940   33.8040   39.5290 C   0  0  0  0  0  0  0  0  0  0  0  0
   41.4910   33.8710   38.6190 N   0  0  0  0  0  0  0  0  0  0  0  0
   41.5550   33.0670   37.5390 C   0  0  0  0  0  0  0  0  0  0  0  0
   40.5740   32.1430   37.3490 N   0  0  0  0  0  0  0  0  0  0  0  0
   38.7390   31.3340   38.1550 H   0  0  0  0  0  0  0  0  0  0  0  0
   40.4940   34.4780   40.3810 H   0  0  0  0  0  0  0  0  0  0  0  0
   42.3800   33.1750   36.8540 H   0  0  0  0  0  0  0  0  0  0  0  0
  1 12  1  0  0  0  0
  2  1  2  0  0  0  0
  2  4  1  0  0  0  0
  3  2  1  0  0  0  0
  4  5  2  0  0  0  0
  5 11  1  0  0  0  0
  5  6  1  0  0  0  0
  6  7  2  0  0  0  0
  7  9  1  0  0  0  0
  7  8  1  0  0  0  0
 10  9  2  0  0  0  0
 11 10  1  0  0  0  0
 12 11  2  0  0  0  0
 13  1  1  0  0  0  0
 14 15  1  0  0  0  0
 15 16  2  0  0  0  0
 15 13  1  0  0  0  0
 16 21  1  0  0  0  0
 17 16  1  0  0  0  0
 18 17  2  0  0  0  0
 19 18  1  0  0  0  0
 19 14  2  0  0  0  0
 20 14  1  0  0  0  0
 22 18  1  0  0  0  0
M  END
>  <minimizedAffinity>
-5.03979015

$$$$

 OpenBabel03242513553D

 22 24  0  0  0  0  0  0  0  0999 V2000
   37.4180   28.9120   42.1160 C   0  0  0  0  0  0  0  0  0  0  0  0
   38.5400   29.0740   42.9050 C   0  0  0  0  0  0  0  0  0  0  0  0
   38.7730   30.1010   43.1510 H   0  0  0  0  0  0  0  0  0  0  0  0
   39.2550   27.9680   43.3060 C   0  0  0  0  0  3  0  0  0  0  0  0
   38.8920   26.6800   42.9480 C   0  0  0  0  0  0  0  0  0  0  0  0
   39.6490   25.6620   43.3840 N   0  0  0  0  0  0  0  0  0  0  0  0
   39.3240   24.3950   43.0540 C   0  0  0  0  0  0  0  0  0  0  0  0
   39.8880   23.5100   43.3690 H   0  0  0  0  0  0  0  0  0  0  0  0
   38.2170   24.1930   42.2720 C   0  0  0  0  0  3  0  0  0  0  0  0
   37.4250   25.2510   41.8150 C   0  0  0  0  0  3  0  0  0  0  0  0
   37.7690   26.5410   42.1610 C   0  0  0  0  0  0  0  0  0  0  0  0
   37.0180   27.6300   41.7330 C   0  0  0  0  0  3  0  0  0  0  0  0
   36.5790   29.9070   41.6210 O   0  0  0  0  0  0  0  0  0  0  0  0
   36.6280   30.1720   39.1730 C   0  0  0  0  0  0  0  0  0  0  0  0
   36.8170   30.6410   40.4820 C   0  0  0  0  0  0  0  0  0  0  0  0
   37.2850   31.9560   40.6300 C   0  0  0  0  0  0  0  0  0  0  0  0
   37.5220   32.6860   39.5180 N   0  0  0  0  0  0  0  0  0  0  0  0
   37.3310   32.2080   38.2710 C   0  0  0  0  0  0  0  0  0  0  0  0
   36.8780   30.9350   38.1190 N   0  0  0  0  0  0  0  0  0  0  0  0
   36.2660   29.1470   39.1680 H   0  0  0  0  0  0  0  0  0  0  0  0
   37.4580   32.3930   41.6100 H   0  0  0  0  0  0  0  0  0  0  0  0
   37.5410   32.8470   37.4280 H   0  0  0  0  0  0  0  0  0  0  0  0
  1  2  1  0  0  0  0
  2  3  1  0  0  0  0
  2  4  2  0  0  0  0
  5  4  1  0  0  0  0
  5  6  1  0  0  0  0
  7  8  1  0  0  0  0
  7  6  2  0  0  0  0
  9  7  1  0  0  0  0
 10 11  1  0  0  0  0
 10  9  2  0  0  0  0
 11  5  2  0  0  0  0
 12  1  2  0  0  0  0
 12 11  1  0  0  0  0
 13  1  1  0  0  0  0
 14 15  1  0  0  0  0
 15 16  2  0  0  0  0
 15 13  1  0  0  0  0
 16 21  1  0  0  0  0
 17 16  1  0  0  0  0
 18 17  2  0  0  0  0
 19 18  1  0  0  0  0
 19 14  2  0  0  0  0
 20 14  1  0  0  0  0
 22 18  1  0  0  0  0
M  END
>  <minimizedAffinity>
-5.03734446

$$$$

 OpenBabel03242513553D

 22 24  0  0  0  0  0  0  0  0999 V2000
   37.2810   28.8250   42.0450 C   0  0  0  0  0  0  0  0  0  0  0  0
   36.6020   27.6710   41.7100 C   0  0  0  0  0  0  0  0  0  0  0  0
   35.6350   27.8330   41.2560 H   0  0  0  0  0  0  0  0  0  0  0  0
   37.1770   26.4460   41.9650 C   0  0  0  0  0  3  0  0  0  0  0  0
   38.4250   26.3190   42.5510 C   0  0  0  0  0  0  0  0  0  0  0  0
   38.9060   25.0840   42.7630 N   0  0  0  0  0  0  0  0  0  0  0  0
   40.1190   24.9250   43.3330 C   0  0  0  0  0  0  0  0  0  0  0  0
   40.5810   23.9540   43.5380 H   0  0  0  0  0  0  0  0  0  0  0  0
   40.8240   26.0470   43.6800 C   0  0  0  0  0  3  0  0  0  0  0  0
   40.3270   27.3360   43.4610 C   0  0  0  0  0  3  0  0  0  0  0  0
   39.0860   27.4840   42.8770 C   0  0  0  0  0  0  0  0  0  0  0  0
   38.5430   28.7420   42.6380 C   0  0  0  0  0  3  0  0  0  0  0  0
   36.8610   30.1400   41.8620 O   0  0  0  0  0  0  0  0  0  0  0  0
   37.8040   32.0920   40.6910 C   0  0  0  0  0  0  0  0  0  0  0  0
   37.0860   30.8870   40.7280 C   0  0  0  0  0  0  0  0  0  0  0  0
   36.5610   30.4160   39.5130 C   0  0  0  0  0  0  0  0  0  0  0  0
   36.7760   31.1410   38.3940 N   0  0  0  0  0  0  0  0  0  0  0  0
   37.4710   32.2970   38.3890 C   0  0  0  0  0  0  0  0  0  0  0  0
   37.9820   32.7600   39.5620 N   0  0  0  0  0  0  0  0  0  0  0  0
   38.1650   32.3670   41.6790 H   0  0  0  0  0  0  0  0  0  0  0  0
   35.9940   29.4910   39.4580 H   0  0  0  0  0  0  0  0  0  0  0  0
   37.6030   32.8240   37.4580 H   0  0  0  0  0  0  0  0  0  0  0  0
  1 12  1  0  0  0  0
  2  4  1  0  0  0  0
  2  1  2  0  0  0  0
  3  2  1  0  0  0  0
  4  5  2  0  0  0  0
  5  6  1  0  0  0  0
  5 11  1  0  0  0  0
  6  7  2  0  0  0  0
  7  8  1  0  0  0  0
  7  9  1  0  0  0  0
 10  9  2  0  0  0  0
 11 10  1  0  0  0  0
 12 11  2  0  0  0  0
 13  1  1  0  0  0  0
 14 15  1  0  0  0  0
 14 20  1  0  0  0  0
 15 13  1  0  0  0  0
 16 15  2  0  0  0  0
 17 16  1  0  0  0  0
 18 17  2  0  0  0  0
 18 19  1  0  0  0  0
 19 14  2  0  0  0  0
 21 16  1  0  0  0  0
 22 18  1  0  0  0  0
M  END
>  <minimizedAffinity>
-4.95836115

$$$$

 OpenBabel03242513553D

 22 24  0  0  0  0  0  0  0  0999 V2000
   36.8780   28.7340   42.0200 C   0  0  0  0  0  0  0  0  0  0  0  0
   35.8750   28.7650   41.0730 C   0  0  0  0  0  0  0  0  0  0  0  0
   35.1750   27.9440   41.1320 H   0  0  0  0  0  0  0  0  0  0  0  0
   35.8370   29.7920   40.1570 C   0  0  0  0  0  3  0  0  0  0  0  0
   36.7740   30.8120   40.1440 C   0  0  0  0  0  0  0  0  0  0  0  0
   36.6580   31.7710   39.2140 N   0  0  0  0  0  0  0  0  0  0  0  0
   37.5550   32.7790   39.1740 C   0  0  0  0  0  0  0  0  0  0  0  0
   37.5300   33.5990   38.4480 H   0  0  0  0  0  0  0  0  0  0  0  0
   38.5660   32.7840   40.0990 C   0  0  0  0  0  3  0  0  0  0  0  0
   38.6900   31.7860   41.0700 C   0  0  0  0  0  3  0  0  0  0  0  0
   37.7670   30.7620   41.1000 C   0  0  0  0  0  0  0  0  0  0  0  0
   37.8450   29.7430   42.0430 C   0  0  0  0  0  3  0  0  0  0  0  0
   37.0740   27.7820   43.0180 O   0  0  0  0  0  0  0  0  0  0  0  0
   37.7780   25.5730   42.1870 C   0  0  0  0  0  0  0  0  0  0  0  0
   37.9680   26.7390   42.9440 C   0  0  0  0  0  0  0  0  0  0  0  0
   39.1620   26.8390   43.6780 C   0  0  0  0  0  0  0  0  0  0  0  0
   40.0470   25.8200   43.6120 N   0  0  0  0  0  0  0  0  0  0  0  0
   39.8360   24.7110   42.8750 C   0  0  0  0  0  0  0  0  0  0  0  0
   38.6830   24.6050   42.1620 N   0  0  0  0  0  0  0  0  0  0  0  0
   36.8270   25.5940   41.6600 H   0  0  0  0  0  0  0  0  0  0  0  0
   39.3840   27.7100   44.2880 H   0  0  0  0  0  0  0  0  0  0  0  0
   40.5860   23.9360   42.8700 H   0  0  0  0  0  0  0  0  0  0  0  0
  1 12  1  0  0  0  0
  1 13  1  0  0  0  0
  2  3  1  0  0  0  0
  2  1  2  0  0  0  0
  4  2  1  0  0  0  0
  5  4  2  0  0  0  0
  5 11  1  0  0  0  0
  6  5  1  0  0  0  0
  7  6  2  0  0  0  0
  7  9  1  0  0  0  0
  8  7  1  0  0  0  0
  9 10  2  0  0  0  0
 10 11  1  0  0  0  0
 11 12  2  0  0  0  0
 14 15  1  0  0  0  0
 15 13  1  0  0  0  0
 15 16  2  0  0  0  0
 16 21  1  0  0  0  0
 17 16  1  0  0  0  0
 18 17  2  0  0  0  0
 19 14  2  0  0  0  0
 19 18  1  0  0  0  0
 20 14  1  0  0  0  0
 22 18  1  0  0  0  0
M  END
>  <minimizedAffinity>
-4.77865791

$$$$

 OpenBabel03242513553D

 22 24  0  0  0  0  0  0  0  0999 V2000
   35.5850   29.6770   39.9560 C   0  0  0  0  0  0  0  0  0  0  0  0
   34.3590   29.1080   39.6740 C   0  0  0  0  0  0  0  0  0  0  0  0
   33.7430   28.9140   40.5410 H   0  0  0  0  0  0  0  0  0  0  0  0
   34.0180   28.8390   38.3670 C   0  0  0  0  0  3  0  0  0  0  0  0
   34.8650   29.1180   37.3070 C   0  0  0  0  0  0  0  0  0  0  0  0
   34.4490   28.8200   36.0670 N   0  0  0  0  0  0  0  0  0  0  0  0
   35.2500   29.0780   35.0110 C   0  0  0  0  0  0  0  0  0  0  0  0
   34.9850   28.8660   33.9700 H   0  0  0  0  0  0  0  0  0  0  0  0
   36.4750   29.6430   35.2500 C   0  0  0  0  0  3  0  0  0  0  0  0
   36.9120   29.9550   36.5410 C   0  0  0  0  0  3  0  0  0  0  0  0
   36.0840   29.6860   37.6110 C   0  0  0  0  0  0  0  0  0  0  0  0
   36.4690   29.9740   38.9150 C   0  0  0  0  0  3  0  0  0  0  0  0
   36.0950   30.0180   41.2060 O   0  0  0  0  0  0  0  0  0  0  0  0
   38.3000   29.7380   42.2680 C   0  0  0  0  0  0  0  0  0  0  0  0
   37.0240   29.2810   41.9030 C   0  0  0  0  0  0  0  0  0  0  0  0
   36.6810   27.9720   42.2800 C   0  0  0  0  0  0  0  0  0  0  0  0
   37.5860   27.2390   42.9640 N   0  0  0  0  0  0  0  0  0  0  0  0
   38.8050   27.7070   43.3020 C   0  0  0  0  0  0  0  0  0  0  0  0
   39.1460   28.9730   42.9400 N   0  0  0  0  0  0  0  0  0  0  0  0
   38.4660   30.7580   41.9300 H   0  0  0  0  0  0  0  0  0  0  0  0
   35.7130   27.5440   42.0350 H   0  0  0  0  0  0  0  0  0  0  0  0
   39.4780   27.0660   43.8490 H   0  0  0  0  0  0  0  0  0  0  0  0
  1 13  1  0  0  0  0
  2  1  1  0  0  0  0
  2  3  1  0  0  0  0
  4  2  2  0  0  0  0
  5 11  1  0  0  0  0
  5  4  1  0  0  0  0
  6  5  2  0  0  0  0
  7  9  2  0  0  0  0
  7  6  1  0  0  0  0
  8  7  1  0  0  0  0
  9 10  1  0  0  0  0
 10 11  2  0  0  0  0
 11 12  1  0  0  0  0
 12  1  2  0  0  0  0
 13 15  1  0  0  0  0
 14 19  1  0  0  0  0
 15 14  2  0  0  0  0
 15 16  1  0  0  0  0
 16 17  2  0  0  0  0
 17 18  1  0  0  0  0
 18 22  1  0  0  0  0
 19 18  2  0  0  0  0
 20 14  1  0  0  0  0
 21 16  1  0  0  0  0
M  END
>  <minimizedAffinity>
-4.74023914

$$$$

 OpenBabel03242513553D

 22 24  0  0  0  0  0  0  0  0999 V2000
   36.4150   29.6290   40.3820 C   0  0  0  0  0  0  0  0  0  0  0  0
   36.2050   29.0490   39.1470 C   0  0  0  0  0  0  0  0  0  0  0  0
   35.9900   29.7490   38.3520 H   0  0  0  0  0  0  0  0  0  0  0  0
   36.2790   27.6800   39.0170 C   0  0  0  0  0  3  0  0  0  0  0  0
   36.5600   26.8470   40.0870 C   0  0  0  0  0  0  0  0  0  0  0  0
   36.6110   25.5250   39.8670 N   0  0  0  0  0  0  0  0  0  0  0  0
   36.8820   24.6850   40.8880 C   0  0  0  0  0  0  0  0  0  0  0  0
   36.9430   23.5950   40.7920 H   0  0  0  0  0  0  0  0  0  0  0  0
   37.0970   25.2230   42.1300 C   0  0  0  0  0  3  0  0  0  0  0  0
   37.0450   26.6000   42.3640 C   0  0  0  0  0  3  0  0  0  0  0  0
   36.7670   27.4470   41.3110 C   0  0  0  0  0  0  0  0  0  0  0  0
   36.7010   28.8250   41.4880 C   0  0  0  0  0  3  0  0  0  0  0  0
   36.3820   30.9850   40.6990 O   0  0  0  0  0  0  0  0  0  0  0  0
   38.7200   31.6150   41.1490 C   0  0  0  0  0  0  0  0  0  0  0  0
   37.4520   31.8430   40.5940 C   0  0  0  0  0  0  0  0  0  0  0  0
   37.2710   33.0390   39.8800 C   0  0  0  0  0  0  0  0  0  0  0  0
   38.3150   33.8890   39.7710 N   0  0  0  0  0  0  0  0  0  0  0  0
   39.5240   33.6420   40.3160 C   0  0  0  0  0  0  0  0  0  0  0  0
   39.7080   32.4860   41.0090 N   0  0  0  0  0  0  0  0  0  0  0  0
   38.7540   30.6660   41.6790 H   0  0  0  0  0  0  0  0  0  0  0  0
   36.3190   33.2900   39.4200 H   0  0  0  0  0  0  0  0  0  0  0  0
   40.3130   34.3660   40.1900 H   0  0  0  0  0  0  0  0  0  0  0  0
  1 13  1  0  0  0  0
  1 12  1  0  0  0  0
  2  1  2  0  0  0  0
  3  2  1  0  0  0  0
  4  2  1  0  0  0  0
  4  5  2  0  0  0  0
  5 11  1  0  0  0  0
  6  5  1  0  0  0  0
  6  7  2  0  0  0  0
  7  9  1  0  0  0  0
  8  7  1  0  0  0  0
  9 10  2  0  0  0  0
 11 12  2  0  0  0  0
 11 10  1  0  0  0  0
 14 20  1  0  0  0  0
 15 13  1  0  0  0  0
 15 14  2  0  0  0  0
 16 15  1  0  0  0  0
 17 16  2  0  0  0  0
 17 18  1  0  0  0  0
 18 19  2  0  0  0  0
 19 14  1  0  0  0  0
 21 16  1  0  0  0  0
 22 18  1  0  0  0  0
M  END
>  <minimizedAffinity>
-4.73444939

$$$$

 OpenBabel03242513553D

 22 24  0  0  0  0  0  0  0  0999 V2000
   37.1840   29.6390   41.5130 C   0  0  0  0  0  0  0  0  0  0  0  0
   37.5180   29.1920   42.7760 C   0  0  0  0  0  0  0  0  0  0  0  0
   37.7430   29.9750   43.4860 H   0  0  0  0  0  0  0  0  0  0  0  0
   37.5400   27.8390   43.0340 C   0  0  0  0  0  3  0  0  0  0  0  0
   37.2390   26.8940   42.0690 C   0  0  0  0  0  0  0  0  0  0  0  0
   37.2870   25.5980   42.4110 N   0  0  0  0  0  0  0  0  0  0  0  0
   36.9990   24.6510   41.4940 C   0  0  0  0  0  0  0  0  0  0  0  0
   37.0150   23.5730   41.6930 H   0  0  0  0  0  0  0  0  0  0  0  0
   36.6630   25.0550   40.2280 C   0  0  0  0  0  3  0  0  0  0  0  0
   36.6110   26.4040   39.8670 C   0  0  0  0  0  3  0  0  0  0  0  0
   36.9080   27.3620   40.8150 C   0  0  0  0  0  0  0  0  0  0  0  0
   36.8730   28.7180   40.5090 C   0  0  0  0  0  3  0  0  0  0  0  0
   37.1090   30.9580   41.0730 O   0  0  0  0  0  0  0  0  0  0  0  0
   39.5220   31.2870   40.7010 C   0  0  0  0  0  0  0  0  0  0  0  0
   38.1900   31.7280   40.7110 C   0  0  0  0  0  0  0  0  0  0  0  0
   37.9520   33.0570   40.3220 C   0  0  0  0  0  0  0  0  0  0  0  0
   39.0060   33.8230   39.9640 N   0  0  0  0  0  0  0  0  0  0  0  0
   40.2770   33.3700   39.9650 C   0  0  0  0  0  0  0  0  0  0  0  0
   40.5160   32.0850   40.3410 N   0  0  0  0  0  0  0  0  0  0  0  0
   39.5960   30.2500   41.0180 H   0  0  0  0  0  0  0  0  0  0  0  0
   36.9490   33.4750   40.3020 H   0  0  0  0  0  0  0  0  0  0  0  0
   41.0700   34.0380   39.6680 H   0  0  0  0  0  0  0  0  0  0  0  0
  1  2  1  0  0  0  0
  2  4  2  0  0  0  0
  2  3  1  0  0  0  0
  5  6  1  0  0  0  0
  5  4  1  0  0  0  0
  7  8  1  0  0  0  0
  7  6  2  0  0  0  0
  9  7  1  0  0  0  0
 10  9  2  0  0  0  0
 10 11  1  0  0  0  0
 11  5  2  0  0  0  0
 12 11  1  0  0  0  0
 12  1  2  0  0  0  0
 13  1  1  0  0  0  0
 14 15  1  0  0  0  0
 14 20  1  0  0  0  0
 15 13  1  0  0  0  0
 16 15  2  0  0  0  0
 17 18  2  0  0  0  0
 17 16  1  0  0  0  0
 18 19  1  0  0  0  0
 19 14  2  0  0  0  0
 21 16  1  0  0  0  0
 22 18  1  0  0  0  0
M  END
>  <minimizedAffinity>
-4.70781612

$$$$

 OpenBabel03242513553D

 22 24  0  0  0  0  0  0  0  0999 V2000
   38.4690   28.2210   42.7320 C   0  0  0  0  0  0  0  0  0  0  0  0
   39.6900   28.8460   42.8880 C   0  0  0  0  0  0  0  0  0  0  0  0
   40.4240   28.2710   43.4330 H   0  0  0  0  0  0  0  0  0  0  0  0
   39.8810   30.1050   42.3620 C   0  0  0  0  0  3  0  0  0  0  0  0
   38.8880   30.7800   41.6730 C   0  0  0  0  0  0  0  0  0  0  0  0
   39.1640   32.0040   41.1970 N   0  0  0  0  0  0  0  0  0  0  0  0
   38.2190   32.6900   40.5210 C   0  0  0  0  0  0  0  0  0  0  0  0
   38.3650   33.6910   40.1000 H   0  0  0  0  0  0  0  0  0  0  0  0
   36.9940   32.1020   40.3450 C   0  0  0  0  0  3  0  0  0  0  0  0
   36.7010   30.8280   40.8400 C   0  0  0  0  0  3  0  0  0  0  0  0
   37.6770   30.1380   41.5290 C   0  0  0  0  0  0  0  0  0  0  0  0
   37.4400   28.8680   42.0430 C   0  0  0  0  0  3  0  0  0  0  0  0
   38.0970   26.9600   43.1910 O   0  0  0  0  0  0  0  0  0  0  0  0
   36.9380   25.0610   42.1340 C   0  0  0  0  0  0  0  0  0  0  0  0
   38.0830   25.8180   42.4230 C   0  0  0  0  0  0  0  0  0  0  0  0
   39.3010   25.3670   41.8880 C   0  0  0  0  0  0  0  0  0  0  0  0
   39.2990   24.2470   41.1330 N   0  0  0  0  0  0  0  0  0  0  0  0
   38.1800   23.5400   40.8710 C   0  0  0  0  0  0  0  0  0  0  0  0
   36.9970   23.9680   41.3870 N   0  0  0  0  0  0  0  0  0  0  0  0
   36.0520   25.4920   42.5950 H   0  0  0  0  0  0  0  0  0  0  0  0
   40.2330   25.8980   42.0660 H   0  0  0  0  0  0  0  0  0  0  0  0
   38.2530   22.6540   40.2610 H   0  0  0  0  0  0  0  0  0  0  0  0
  1  2  1  0  0  0  0
  1 13  1  0  0  0  0
  2  3  1  0  0  0  0
  4  2  2  0  0  0  0
  5  4  1  0  0  0  0
  6  5  2  0  0  0  0
  7  6  1  0  0  0  0
  8  7  1  0  0  0  0
  9  7  2  0  0  0  0
  9 10  1  0  0  0  0
 10 11  2  0  0  0  0
 11  5  1  0  0  0  0
 11 12  1  0  0  0  0
 12  1  2  0  0  0  0
 14 15  1  0  0  0  0
 14 20  1  0  0  0  0
 15 13  1  0  0  0  0
 16 21  1  0  0  0  0
 16 15  2  0  0  0  0
 17 16  1  0  0  0  0
 18 17  2  0  0  0  0
 18 19  1  0  0  0  0
 19 14  2  0  0  0  0
 22 18  1  0  0  0  0
M  END
>  <minimizedAffinity>
-4.62801456

$$$$
