
 OpenBabel03252506473D

 45 49  0  0  1  0  0  0  0  0999 V2000
   49.5070   33.4060   41.3960 N   0  0  1  0  0  0  0  0  0  0  0  0
   50.7370   33.1050   42.0850 C   0  0  0  0  0  0  0  0  0  0  0  0
   51.3310   31.7850   41.6830 C   0  0  0  0  0  0  0  0  0  0  0  0
   50.4220   30.6820   42.1770 C   0  0  0  0  0  0  0  0  0  0  0  0
   48.9710   31.0910   42.0600 C   0  0  0  0  0  0  0  0  0  0  0  0
   48.8470   32.1830   41.0060 C   0  0  2  0  0  0  0  0  0  0  0  0
   50.5700   33.0770   43.1900 H   0  0  0  0  0  0  0  0  0  0  0  0
   51.4800   33.8820   41.8760 H   0  0  0  0  0  0  0  0  0  0  0  0
   52.2750   31.6930   42.2790 H   0  0  0  0  0  0  0  0  0  0  0  0
   51.5690   31.7320   40.6120 H   0  0  0  0  0  0  0  0  0  0  0  0
   50.5530   29.8340   41.4710 H   0  0  0  0  0  0  0  0  0  0  0  0
   50.6860   30.3220   43.1870 H   0  0  0  0  0  0  0  0  0  0  0  0
   48.6640   31.4770   43.0430 H   0  0  0  0  0  0  0  0  0  0  0  0
   48.3200   30.2650   41.7330 H   0  0  0  0  0  0  0  0  0  0  0  0
   47.7600   32.4000   40.9520 H   0  0  0  0  0  0  0  0  0  0  0  0
   47.3250   34.6750   41.9550 C   0  0  1  0  0  0  0  0  0  0  0  0
   48.4140   35.6060   41.6930 C   0  0  0  0  0  0  0  0  0  0  0  0
   48.7480   34.2590   42.2490 C   0  0  2  0  0  0  0  0  0  0  0  0
   46.8750   33.9970   41.1720 H   0  0  0  0  0  0  0  0  0  0  0  0
   48.6340   35.8310   40.6140 H   0  0  0  0  0  0  0  0  0  0  0  0
   48.4540   36.5210   42.3070 H   0  0  0  0  0  0  0  0  0  0  0  0
   49.0180   34.2580   43.3280 H   0  0  0  0  0  0  0  0  0  0  0  0
   45.5620   36.0370   43.1150 C   0  0  0  0  0  0  0  0  0  0  0  0
   46.3900   34.8900   43.0730 C   0  0  0  0  0  0  0  0  0  0  0  0
   46.2880   33.9730   44.1140 C   0  0  0  0  0  0  0  0  0  0  0  0
   45.4010   34.2260   45.1130 N   0  0  0  0  0  0  0  0  0  0  0  0
   44.6250   35.3150   45.1370 C   0  0  0  0  0  0  0  0  0  0  0  0
   44.6980   36.2390   44.1300 N   0  0  0  0  0  0  0  0  0  0  0  0
   45.6710   36.7250   42.2880 H   0  0  0  0  0  0  0  0  0  0  0  0
   46.8970   33.0730   44.1420 H   0  0  0  0  0  0  0  0  0  0  0  0
   43.9200   35.5120   45.9350 H   0  0  0  0  0  0  0  0  0  0  0  0
   49.2440   31.6620   39.7370 N   0  0  0  0  0  0  0  0  0  0  0  0
   50.1450   31.1040   39.6910 H   0  0  0  0  0  0  0  0  0  0  0  0
   48.5730   31.8000   38.5120 C   0  0  0  0  0  0  0  0  0  0  0  0
   47.2310   32.0210   38.3600 C   0  0  0  0  0  0  0  0  0  0  0  0
   46.6060   32.1080   39.2230 H   0  0  0  0  0  0  0  0  0  0  0  0
   46.5480   32.1550   37.1780 C   0  0  0  0  0  3  0  0  0  0  0  0
   47.2850   32.0580   35.9980 C   0  0  0  0  0  0  0  0  0  0  0  0
   46.7160   32.1750   34.7870 N   0  0  0  0  0  0  0  0  0  0  0  0
   47.4200   32.0830   33.6460 C   0  0  0  0  0  0  0  0  0  0  0  0
   46.8330   32.1960   32.7540 H   0  0  0  0  0  0  0  0  0  0  0  0
   48.7970   31.8600   33.6640 C   0  0  0  0  0  3  0  0  0  0  0  0
   49.3700   31.7430   34.9120 C   0  0  0  0  0  3  0  0  0  0  0  0
   48.6360   31.8380   36.0720 C   0  0  0  0  0  0  0  0  0  0  0  0
   49.2360   31.7170   37.2950 C   0  0  0  0  0  3  0  0  0  0  0  0
  1  2  1  1  0  0  0
  1 18  1  0  0  0  0
  2  7  1  0  0  0  0
  3  2  1  0  0  0  0
  3  4  1  0  0  0  0
  3  9  1  0  0  0  0
  4 12  1  0  0  0  0
  5  4  1  0  0  0  0
  5 13  1  0  0  0  0
  6 15  1  6  0  0  0
  6  1  1  0  0  0  0
  6  5  1  0  0  0  0
  8  2  1  0  0  0  0
 10  3  1  0  0  0  0
 11  4  1  0  0  0  0
 14  5  1  0  0  0  0
 16 19  1  6  0  0  0
 16 18  1  0  0  0  0
 16 24  1  0  0  0  0
 17 16  1  0  0  0  0
 17 18  1  0  0  0  0
 17 21  1  0  0  0  0
 18 22  1  1  0  0  0
 20 17  1  0  0  0  0
 23 28  1  0  0  0  0
 24 23  2  0  0  0  0
 24 25  1  0  0  0  0
 25 30  1  0  0  0  0
 25 26  2  0  0  0  0
 26 27  1  0  0  0  0
 27 31  1  0  0  0  0
 28 27  2  0  0  0  0
 29 23  1  0  0  0  0
 32  6  1  0  0  0  0
 33 32  1  0  0  0  0
 34 32  1  0  0  0  0
 35 34  1  0  0  0  0
 35 36  1  0  0  0  0
 37 35  2  0  0  0  0
 38 44  1  0  0  0  0
 38 37  1  0  0  0  0
 39 38  2  0  0  0  0
 40 42  2  0  0  0  0
 40 39  1  0  0  0  0
 41 40  1  0  0  0  0
 42 43  1  0  0  0  0
 43 44  2  0  0  0  0
 44 45  1  0  0  0  0
 45 34  2  0  0  0  0
M  END
>  <minimizedAffinity>
-5.64468241

>  <minimizedRMSD>
1.5893538

$$$$
