
 OpenBabel03252506463D

 45 49  0  0  1  0  0  0  0  0999 V2000
   49.2940   33.0530   41.5820 N   0  0  1  0  0  0  0  0  0  0  0  0
   50.6510   33.1010   42.0650 C   0  0  0  0  0  0  0  0  0  0  0  0
   51.3730   31.7900   41.9330 C   0  0  0  0  0  0  0  0  0  0  0  0
   50.7390   30.7990   42.8840 C   0  0  0  0  0  0  0  0  0  0  0  0
   49.2430   31.0020   42.9520 C   0  0  0  0  0  0  0  0  0  0  0  0
   48.7800   31.7080   41.6850 C   0  0  2  0  0  0  0  0  0  0  0  0
   50.6720   33.3890   43.1460 H   0  0  0  0  0  0  0  0  0  0  0  0
   51.2200   33.8520   41.5060 H   0  0  0  0  0  0  0  0  0  0  0  0
   52.4030   31.9790   42.3300 H   0  0  0  0  0  0  0  0  0  0  0  0
   51.4400   31.4430   40.8940 H   0  0  0  0  0  0  0  0  0  0  0  0
   50.8870   29.7960   42.4290 H   0  0  0  0  0  0  0  0  0  0  0  0
   51.2170   30.7880   43.8800 H   0  0  0  0  0  0  0  0  0  0  0  0
   49.0420   31.6320   43.8310 H   0  0  0  0  0  0  0  0  0  0  0  0
   48.6860   30.0540   43.0030 H   0  0  0  0  0  0  0  0  0  0  0  0
   47.6790   31.7860   41.7920 H   0  0  0  0  0  0  0  0  0  0  0  0
   47.1140   34.3730   42.0100 C   0  0  1  0  0  0  0  0  0  0  0  0
   48.1660   35.2540   41.5210 C   0  0  0  0  0  0  0  0  0  0  0  0
   48.5590   34.0390   42.3000 C   0  0  2  0  0  0  0  0  0  0  0  0
   46.6410   33.5530   41.3920 H   0  0  0  0  0  0  0  0  0  0  0  0
   48.3250   35.2750   40.4080 H   0  0  0  0  0  0  0  0  0  0  0  0
   48.2140   36.2690   41.9500 H   0  0  0  0  0  0  0  0  0  0  0  0
   48.8830   34.2450   43.3440 H   0  0  0  0  0  0  0  0  0  0  0  0
   45.5350   36.0120   43.0730 C   0  0  0  0  0  0  0  0  0  0  0  0
   46.2310   34.7800   43.1170 C   0  0  0  0  0  0  0  0  0  0  0  0
   46.0500   33.9680   44.2320 C   0  0  0  0  0  0  0  0  0  0  0  0
   45.2170   34.3980   45.2150 N   0  0  0  0  0  0  0  0  0  0  0  0
   44.5650   35.5650   45.1580 C   0  0  0  0  0  0  0  0  0  0  0  0
   44.7190   36.3910   44.0770 N   0  0  0  0  0  0  0  0  0  0  0  0
   45.7020   36.6140   42.1910 H   0  0  0  0  0  0  0  0  0  0  0  0
   46.5560   33.0110   44.3270 H   0  0  0  0  0  0  0  0  0  0  0  0
   43.9030   35.9040   45.9450 H   0  0  0  0  0  0  0  0  0  0  0  0
   49.0440   30.8740   40.5560 N   0  0  0  0  0  0  0  0  0  0  0  0
   49.2840   29.8560   40.7380 H   0  0  0  0  0  0  0  0  0  0  0  0
   49.0240   31.2410   39.2020 C   0  0  0  0  0  0  0  0  0  0  0  0
   50.1180   31.5830   38.4550 C   0  0  0  0  0  0  0  0  0  0  0  0
   51.0880   31.5760   38.9000 H   0  0  0  0  0  0  0  0  0  0  0  0
   50.1270   31.9490   37.1330 C   0  0  0  0  0  3  0  0  0  0  0  0
   48.9030   31.9820   36.4670 C   0  0  0  0  0  0  0  0  0  0  0  0
   48.8010   32.3260   35.1720 N   0  0  0  0  0  0  0  0  0  0  0  0
   47.6230   32.3590   34.5250 C   0  0  0  0  0  0  0  0  0  0  0  0
   47.6940   32.6530   33.4940 H   0  0  0  0  0  0  0  0  0  0  0  0
   46.4340   32.0320   35.1740 C   0  0  0  0  0  3  0  0  0  0  0  0
   46.5510   31.6800   36.5020 C   0  0  0  0  0  3  0  0  0  0  0  0
   47.7630   31.6510   37.1520 C   0  0  0  0  0  0  0  0  0  0  0  0
   47.8450   31.2960   38.4700 C   0  0  0  0  0  3  0  0  0  0  0  0
  1  6  1  0  0  0  0
  1  2  1  1  0  0  0
  1 18  1  0  0  0  0
  2  7  1  0  0  0  0
  3  2  1  0  0  0  0
  3  9  1  0  0  0  0
  3  4  1  0  0  0  0
  4  5  1  0  0  0  0
  4 12  1  0  0  0  0
  5 14  1  0  0  0  0
  5 13  1  0  0  0  0
  6 15  1  1  0  0  0
  6  5  1  0  0  0  0
  8  2  1  0  0  0  0
 10  3  1  0  0  0  0
 11  4  1  0  0  0  0
 16 19  1  6  0  0  0
 16 18  1  0  0  0  0
 16 24  1  0  0  0  0
 17 21  1  0  0  0  0
 17 16  1  0  0  0  0
 17 18  1  0  0  0  0
 18 22  1  1  0  0  0
 20 17  1  0  0  0  0
 23 24  2  0  0  0  0
 23 28  1  0  0  0  0
 24 25  1  0  0  0  0
 25 30  1  0  0  0  0
 25 26  2  0  0  0  0
 27 26  1  0  0  0  0
 27 31  1  0  0  0  0
 28 27  2  0  0  0  0
 29 23  1  0  0  0  0
 32 33  1  0  0  0  0
 32  6  1  0  0  0  0
 34 32  1  0  0  0  0
 35 36  1  0  0  0  0
 35 34  2  0  0  0  0
 37 35  1  0  0  0  0
 38 37  2  0  0  0  0
 38 44  1  0  0  0  0
 39 38  1  0  0  0  0
 40 39  2  0  0  0  0
 40 42  1  0  0  0  0
 41 40  1  0  0  0  0
 42 43  2  0  0  0  0
 43 44  1  0  0  0  0
 44 45  2  0  0  0  0
 45 34  1  0  0  0  0
M  END
>  <minimizedAffinity>
-5.36737537

>  <minimizedRMSD>
1.22846198

$$$$
