
 OpenBabel03252505403D

 31 34  0  0  1  0  0  0  0  0999 V2000
   45.5700   32.4470   45.9770 C   0  0  1  0  0  0  0  0  0  0  0  0
   46.2800   33.7770   45.6610 C   0  0  0  0  0  0  0  0  0  0  0  0
   45.7550   32.8790   44.5970 C   0  0  1  0  0  0  0  0  0  0  0  0
   44.5690   32.6340   46.4630 H   0  0  0  0  0  0  0  0  0  0  0  0
   47.3600   33.8400   45.8920 H   0  0  0  0  0  0  0  0  0  0  0  0
   45.7140   34.7250   45.8500 H   0  0  0  0  0  0  0  0  0  0  0  0
   44.8160   33.1900   44.0450 H   0  0  0  0  0  0  0  0  0  0  0  0
   46.7990   32.4090   43.6720 C   0  0  0  0  0  0  0  0  0  0  0  0
   46.4990   31.3080   42.8570 C   0  0  0  0  0  0  0  0  0  0  0  0
   45.5240   30.7960   42.9050 H   0  0  0  0  0  0  0  0  0  0  0  0
   47.3860   30.7630   41.9220 C   0  0  0  0  0  3  0  0  0  0  0  0
   48.6310   31.3420   41.7940 C   0  0  0  0  0  0  0  0  0  0  0  0
   49.5270   30.8630   40.9140 N   0  0  0  0  0  0  0  0  0  0  0  0
   50.7370   31.4310   40.7930 C   0  0  0  0  0  0  0  0  0  0  0  0
   51.4130   30.9990   40.0670 H   0  0  0  0  0  0  0  0  0  0  0  0
   51.1200   32.5250   41.5600 C   0  0  0  0  0  3  0  0  0  0  0  0
   50.2120   33.0480   42.4860 C   0  0  0  0  0  3  0  0  0  0  0  0
   48.9740   32.4260   42.5720 C   0  0  0  0  0  0  0  0  0  0  0  0
   48.0640   32.9260   43.4790 C   0  0  0  0  0  3  0  0  0  0  0  0
   46.4100   31.4390   46.6540 C   0  0  0  0  0  0  0  0  0  0  0  0
   46.1520   30.0830   46.3330 C   0  0  0  0  0  0  0  0  0  0  0  0
   46.9370   29.1150   46.9390 C   0  0  0  0  0  0  0  0  0  0  0  0
   47.9070   29.5190   47.8070 N   0  0  0  0  0  0  0  0  0  0  0  0
   48.1160   30.8230   48.0840 C   0  0  0  0  0  0  0  0  0  0  0  0
   47.3620   31.7770   47.5020 N   0  0  0  0  0  0  0  0  0  0  0  0
   45.3920   29.7050   45.6610 H   0  0  0  0  0  0  0  0  0  0  0  0
   46.7950   28.0620   46.7390 H   0  0  0  0  0  0  0  0  0  0  0  0
   49.2290   31.0610   49.0620 C   0  0  0  0  0  0  0  0  0  0  0  0
   49.4760   32.3970   49.2450 F   0  0  0  0  0  0  0  0  0  0  0  0
   50.3960   30.4460   48.6090 F   0  0  0  0  0  0  0  0  0  0  0  0
   48.9190   30.4210   50.2600 F   0  0  0  0  0  0  0  0  0  0  0  0
  1  4  1  1  0  0  0
  1 20  1  0  0  0  0
  2  6  1  0  0  0  0
  2  5  1  0  0  0  0
  2  1  1  0  0  0  0
  3  7  1  6  0  0  0
  3  2  1  0  0  0  0
  3  1  1  0  0  0  0
  8  3  1  0  0  0  0
  9 10  1  0  0  0  0
  9  8  2  0  0  0  0
 11  9  1  0  0  0  0
 12 11  2  0  0  0  0
 12 18  1  0  0  0  0
 13 12  1  0  0  0  0
 14 13  2  0  0  0  0
 14 16  1  0  0  0  0
 15 14  1  0  0  0  0
 16 17  2  0  0  0  0
 17 18  1  0  0  0  0
 18 19  2  0  0  0  0
 19  8  1  0  0  0  0
 20 25  1  0  0  0  0
 21 20  2  0  0  0  0
 21 22  1  0  0  0  0
 22 23  2  0  0  0  0
 23 24  1  0  0  0  0
 24 28  1  0  0  0  0
 25 24  2  0  0  0  0
 26 21  1  0  0  0  0
 27 22  1  0  0  0  0
 28 29  1  0  0  0  0
 28 31  1  0  0  0  0
 30 28  1  0  0  0  0
M  END
>  <minimizedAffinity>
-4.45319605

>  <minimizedRMSD>
4.55007601

$$$$
