
 OpenBabel03252509163D

 28 31  0  0  0  0  0  0  0  0999 V2000
   45.8490   33.2170   45.7420 C   0  0  0  0  0  0  0  0  0  0  0  0
   45.3760   33.2340   47.0800 C   0  0  0  0  0  0  0  0  0  0  0  0
   46.0410   32.4970   47.9980 C   0  0  0  0  0  0  0  0  0  0  0  0
   47.1730   31.7410   47.6030 C   0  0  0  0  0  0  0  0  0  0  0  0
   47.2930   32.1050   45.8170 S   0  0  0  0  0  0  0  0  0  0  0  0
   44.5110   33.8220   47.3520 H   0  0  0  0  0  0  0  0  0  0  0  0
   45.8150   32.4060   49.0230 H   0  0  0  0  0  0  0  0  0  0  0  0
   48.0700   30.8890   48.2760 C   0  0  0  0  0  0  0  0  0  0  0  0
   48.8210   31.4140   49.3040 C   0  0  0  0  0  0  0  0  0  0  0  0
   48.7650   32.4440   49.6290 H   0  0  0  0  0  0  0  0  0  0  0  0
   49.7020   30.5350   49.9470 C   0  0  0  0  0  3  0  0  0  0  0  0
   49.7910   29.2010   49.5450 C   0  0  0  0  0  0  0  0  0  0  0  0
   50.6680   28.4020   50.2140 N   0  0  0  0  0  0  0  0  0  0  0  0
   50.8110   27.1050   49.8860 C   0  0  0  0  0  0  0  0  0  0  0  0
   51.5060   26.5100   50.4300 H   0  0  0  0  0  0  0  0  0  0  0  0
   50.0370   26.6040   48.8400 C   0  0  0  0  0  3  0  0  0  0  0  0
   49.1460   27.3910   48.1500 C   0  0  0  0  0  3  0  0  0  0  0  0
   49.0140   28.7170   48.5020 C   0  0  0  0  0  0  0  0  0  0  0  0
   48.1290   29.5810   47.8480 C   0  0  0  0  0  3  0  0  0  0  0  0
   44.3390   35.8020   43.5440 C   0  0  0  0  0  0  0  0  0  0  0  0
   44.0930   35.0220   42.3870 C   0  0  0  0  0  0  0  0  0  0  0  0
   44.4540   33.6590   42.4170 C   0  0  0  0  0  0  0  0  0  0  0  0
   45.0250   33.1690   43.5680 N   0  0  0  0  0  0  0  0  0  0  0  0
   45.2360   33.9610   44.6430 C   0  0  0  0  0  0  0  0  0  0  0  0
   44.8960   35.2740   44.6360 N   0  0  0  0  0  0  0  0  0  0  0  0
   44.0630   36.8450   43.5230 H   0  0  0  0  0  0  0  0  0  0  0  0
   43.6490   35.4080   41.4940 H   0  0  0  0  0  0  0  0  0  0  0  0
   44.3010   32.9940   41.5780 H   0  0  0  0  0  0  0  0  0  0  0  0
  1  5  1  0  0  0  0
  1  2  2  0  0  0  0
  2  6  1  0  0  0  0
  2  3  1  0  0  0  0
  3  7  1  0  0  0  0
  4  3  2  0  0  0  0
  4  8  1  0  0  0  0
  5  4  1  0  0  0  0
  8  9  1  0  0  0  0
  9 10  1  0  0  0  0
  9 11  2  0  0  0  0
 12 11  1  0  0  0  0
 12 13  1  0  0  0  0
 14 13  2  0  0  0  0
 14 15  1  0  0  0  0
 16 14  1  0  0  0  0
 17 18  1  0  0  0  0
 17 16  2  0  0  0  0
 18 12  2  0  0  0  0
 19  8  2  0  0  0  0
 19 18  1  0  0  0  0
 20 25  1  0  0  0  0
 21 22  1  0  0  0  0
 21 20  2  0  0  0  0
 22 23  2  0  0  0  0
 23 24  1  0  0  0  0
 24  1  1  0  0  0  0
 25 24  2  0  0  0  0
 26 20  1  0  0  0  0
 27 21  1  0  0  0  0
 28 22  1  0  0  0  0
M  END
>  <minimizedAffinity>
-4.92198277

>  <minimizedRMSD>
1.80495965

$$$$
