
 OpenBabel03252508173D

 50 55  0  0  1  0  0  0  0  0999 V2000
   46.8240   31.6240   48.2380 C   0  0  1  0  0  0  0  0  0  0  0  0
   46.3380   30.5790   49.1830 C   0  0  0  0  0  0  0  0  0  0  0  0
   47.6020   31.2620   49.4380 C   0  0  1  0  0  0  0  0  0  0  0  0
   46.0770   32.4720   48.2170 H   0  0  0  0  0  0  0  0  0  0  0  0
   45.4940   30.7510   49.8800 H   0  0  0  0  0  0  0  0  0  0  0  0
   46.4040   29.5100   48.8630 H   0  0  0  0  0  0  0  0  0  0  0  0
   47.6030   32.0110   50.2570 H   0  0  0  0  0  0  0  0  0  0  0  0
   48.9230   30.5850   49.2400 C   0  0  2  0  0  0  0  0  0  0  0  0
   49.6090   30.1940   50.5740 C   0  0  0  0  0  0  0  0  0  0  0  0
   50.1650   31.2940   49.7700 C   0  0  1  0  0  0  0  0  0  0  0  0
   49.0690   29.7880   48.5020 H   0  0  0  0  0  0  0  0  0  0  0  0
   49.1220   30.4980   51.5190 H   0  0  0  0  0  0  0  0  0  0  0  0
   50.1660   29.2680   50.6560 H   0  0  0  0  0  0  0  0  0  0  0  0
   50.0340   32.3390   50.1180 H   0  0  0  0  0  0  0  0  0  0  0  0
   51.4550   31.0430   49.0970 C   0  0  0  0  0  0  0  0  0  0  0  0
   51.5400   29.9340   48.2470 C   0  0  0  0  0  0  0  0  0  0  0  0
   50.7070   29.2560   48.0630 H   0  0  0  0  0  0  0  0  0  0  0  0
   52.7300   29.6440   47.5830 C   0  0  0  0  0  3  0  0  0  0  0  0
   53.8520   30.4420   47.7450 C   0  0  0  0  0  0  0  0  0  0  0  0
   54.9860   30.1510   47.1010 N   0  0  0  0  0  0  0  0  0  0  0  0
   56.1050   30.8850   47.2160 C   0  0  0  0  0  0  0  0  0  0  0  0
   57.0010   30.6150   46.6780 H   0  0  0  0  0  0  0  0  0  0  0  0
   56.0370   31.9870   48.0540 C   0  0  0  0  0  3  0  0  0  0  0  0
   54.8710   32.3270   48.7480 C   0  0  0  0  0  3  0  0  0  0  0  0
   53.7340   31.5360   48.5960 C   0  0  0  0  0  0  0  0  0  0  0  0
   52.5630   31.8490   49.2710 C   0  0  0  0  0  3  0  0  0  0  0  0
   47.2330   31.1290   46.8980 C   0  0  0  0  0  0  0  0  0  0  0  0
   46.5220   30.2890   46.6400 H   0  0  0  0  0  0  0  0  0  0  0  0
   48.2280   30.7460   46.7690 H   0  0  0  0  0  0  0  0  0  0  0  0
   46.1210   33.0620   46.1460 C   0  0  0  0  0  3  0  0  0  0  0  0
   46.9520   32.1590   45.8310 C   0  0  0  0  0  3  0  0  0  0  0  0
   44.5450   35.8890   44.3810 C   0  0  0  0  0  0  0  0  0  0  0  0
   45.1760   35.8740   43.1430 C   0  0  0  0  0  0  0  0  0  0  0  0
   46.1110   34.9070   42.9540 C   0  0  0  0  0  0  0  0  0  0  0  0
   46.3870   34.0170   43.9490 N   0  0  0  0  0  0  0  0  0  0  0  0
   45.7580   34.0590   45.1360 C   0  0  0  0  0  0  0  0  0  0  0  0
   44.8490   34.9990   45.3200 N   0  0  0  0  0  0  0  0  0  0  0  0
   43.7870   36.6420   44.5870 H   0  0  0  0  0  0  0  0  0  0  0  0
   44.9380   36.5940   42.3700 H   0  0  0  0  0  0  0  0  0  0  0  0
   46.8550   34.7670   41.7080 C   0  0  0  0  0  0  0  0  0  0  0  0
   48.0570   35.3550   41.4430 C   0  0  0  0  0  0  0  0  0  0  0  0
   48.7480   35.2120   40.2570 C   0  0  0  0  0  0  0  0  0  0  0  0
   48.2190   34.4300   39.2500 C   0  0  0  0  0  0  0  0  0  0  0  0
   47.0150   33.8130   39.4550 C   0  0  0  0  0  0  0  0  0  0  0  0
   46.3680   33.9930   40.6650 C   0  0  0  0  0  0  0  0  0  0  0  0
   48.5070   35.9830   42.2190 H   0  0  0  0  0  0  0  0  0  0  0  0
   49.6920   35.6800   40.0630 H   0  0  0  0  0  0  0  0  0  0  0  0
   48.6760   34.2480   38.2800 H   0  0  0  0  0  0  0  0  0  0  0  0
   46.5560   33.1900   38.7020 H   0  0  0  0  0  0  0  0  0  0  0  0
   45.4080   33.4820   40.7890 H   0  0  0  0  0  0  0  0  0  0  0  0
  1  4  1  1  0  0  0
  1  2  1  0  0  0  0
  1  3  1  0  0  0  0
  2  3  1  0  0  0  0
  2  5  1  0  0  0  0
  3  7  1  1  0  0  0
  6  2  1  0  0  0  0
  8 11  1  6  0  0  0
  8  3  1  0  0  0  0
  8 10  1  0  0  0  0
  8  9  1  0  0  0  0
  9 13  1  0  0  0  0
  9 12  1  0  0  0  0
 10 14  1  1  0  0  0
 10  9  1  0  0  0  0
 15 26  1  0  0  0  0
 15 10  1  0  0  0  0
 16 15  2  0  0  0  0
 17 16  1  0  0  0  0
 18 19  2  0  0  0  0
 18 16  1  0  0  0  0
 19 25  1  0  0  0  0
 20 21  2  0  0  0  0
 20 19  1  0  0  0  0
 21 23  1  0  0  0  0
 22 21  1  0  0  0  0
 23 24  2  0  0  0  0
 25 24  1  0  0  0  0
 25 26  2  0  0  0  0
 27  1  1  0  0  0  0
 28 27  1  0  0  0  0
 29 27  1  0  0  0  0
 31 30  2  0  0  0  0
 31 27  1  0  0  0  0
 32 38  1  0  0  0  0
 32 37  1  0  0  0  0
 33 32  2  0  0  0  0
 34 33  1  0  0  0  0
 34 35  2  0  0  0  0
 35 36  1  0  0  0  0
 36 37  2  0  0  0  0
 36 30  1  0  0  0  0
 39 33  1  0  0  0  0
 40 34  1  0  0  0  0
 41 40  1  0  0  0  0
 41 46  1  0  0  0  0
 42 41  2  0  0  0  0
 43 44  2  0  0  0  0
 43 42  1  0  0  0  0
 44 45  1  0  0  0  0
 45 50  1  0  0  0  0
 45 40  2  0  0  0  0
 47 42  1  0  0  0  0
 48 43  1  0  0  0  0
 49 44  1  0  0  0  0
M  END
>  <minimizedAffinity>
-6.81807613

>  <minimizedRMSD>
1.00857544

$$$$
