
 OpenBabel03252507263D

 30 33  0  0  0  0  0  0  0  0999 V2000
   45.4400   34.0240   45.1610 C   0  0  0  0  0  0  0  0  0  0  0  0
   44.6980   35.1650   45.4660 C   0  0  0  0  0  0  0  0  0  0  0  0
   44.7120   36.2290   44.5360 C   0  0  0  0  0  0  0  0  0  0  0  0
   45.4520   36.0910   43.3790 N   0  0  0  0  0  0  0  0  0  0  0  0
   46.1510   34.9540   43.1460 C   0  0  0  0  0  0  0  0  0  0  0  0
   46.1410   33.9540   44.0160 N   0  0  0  0  0  0  0  0  0  0  0  0
   44.1250   35.2830   46.3500 H   0  0  0  0  0  0  0  0  0  0  0  0
   44.1620   37.1240   44.7200 H   0  0  0  0  0  0  0  0  0  0  0  0
   45.4610   32.8980   46.0860 C   0  0  0  0  0  0  0  0  0  0  0  0
   45.2450   32.9710   47.4310 C   0  0  0  0  0  0  0  0  0  0  0  0
   45.0380   33.9330   47.8720 H   0  0  0  0  0  0  0  0  0  0  0  0
   45.2820   31.8490   48.2460 C   0  0  0  0  0  3  0  0  0  0  0  0
   45.5430   30.6000   47.7240 C   0  0  0  0  0  0  0  0  0  0  0  0
   45.5880   29.4840   48.4780 N   0  0  0  0  0  0  0  0  0  0  0  0
   45.8480   28.2690   47.9260 C   0  0  0  0  0  0  0  0  0  0  0  0
   45.8910   27.3570   48.5060 H   0  0  0  0  0  0  0  0  0  0  0  0
   46.0770   28.1340   46.5550 C   0  0  0  0  0  3  0  0  0  0  0  0
   46.0370   29.2570   45.7570 C   0  0  0  0  0  3  0  0  0  0  0  0
   45.7660   30.4800   46.3770 C   0  0  0  0  0  0  0  0  0  0  0  0
   45.7160   31.6240   45.6150 C   0  0  0  0  0  3  0  0  0  0  0  0
   46.9130   34.8420   41.9170 C   0  0  0  0  0  0  0  0  0  0  0  0
   48.1030   35.5010   41.7600 C   0  0  0  0  0  0  0  0  0  0  0  0
   48.9000   35.4650   40.6360 C   0  0  0  0  0  0  0  0  0  0  0  0
   48.3930   34.6740   39.6130 C   0  0  0  0  0  0  0  0  0  0  0  0
   47.1930   33.9920   39.7340 C   0  0  0  0  0  0  0  0  0  0  0  0
   46.4560   34.0800   40.8920 N   0  0  0  0  0  0  0  0  0  0  0  0
   48.4400   36.1020   42.6010 H   0  0  0  0  0  0  0  0  0  0  0  0
   49.8220   36.0130   40.5930 H   0  0  0  0  0  0  0  0  0  0  0  0
   48.9630   34.5960   38.6950 H   0  0  0  0  0  0  0  0  0  0  0  0
   46.8330   33.3850   38.9110 H   0  0  0  0  0  0  0  0  0  0  0  0
  1  2  1  0  0  0  0
  1  9  1  0  0  0  0
  2  7  1  0  0  0  0
  3  8  1  0  0  0  0
  3  2  2  0  0  0  0
  4  3  1  0  0  0  0
  5  4  2  0  0  0  0
  5  6  1  0  0  0  0
  6  1  2  0  0  0  0
  9 10  1  0  0  0  0
 10 11  1  0  0  0  0
 10 12  2  0  0  0  0
 13 12  1  0  0  0  0
 13 14  1  0  0  0  0
 15 14  2  0  0  0  0
 15 16  1  0  0  0  0
 17 15  1  0  0  0  0
 18 19  1  0  0  0  0
 18 17  2  0  0  0  0
 19 13  2  0  0  0  0
 20  9  2  0  0  0  0
 20 19  1  0  0  0  0
 21  5  1  0  0  0  0
 22 21  1  0  0  0  0
 22 27  1  0  0  0  0
 23 22  2  0  0  0  0
 24 25  2  0  0  0  0
 24 23  1  0  0  0  0
 25 26  1  0  0  0  0
 26 21  2  0  0  0  0
 28 23  1  0  0  0  0
 29 24  1  0  0  0  0
 30 25  1  0  0  0  0
M  END
>  <minimizedAffinity>
-5.86140919

>  <minimizedRMSD>
1.22848928

$$$$
