
 OpenBabel03252504513D

 37 40  0  0  0  0  0  0  0  0999 V2000
   47.1080   34.4700   42.8590 C   0  0  0  0  0  0  0  0  0  0  0  0
   48.1190   33.8530   42.1050 C   0  0  0  0  0  0  0  0  0  0  0  0
   48.6260   32.6560   42.5900 C   0  0  0  0  0  0  0  0  0  0  0  0
   48.1090   32.1710   43.7530 N   0  0  0  0  0  0  0  0  0  0  0  0
   47.1480   32.7780   44.4500 C   0  0  0  0  0  0  0  0  0  0  0  0
   46.6320   33.9470   44.0040 N   0  0  0  0  0  0  0  0  0  0  0  0
   46.6410   35.3970   42.5800 H   0  0  0  0  0  0  0  0  0  0  0  0
   49.4000   32.1520   42.0430 H   0  0  0  0  0  0  0  0  0  0  0  0
   45.5170   30.2190   44.1030 Cl  0  0  0  0  0  0  0  0  0  0  0  0
   45.8960   31.0300   45.6320 C   0  0  0  0  0  0  0  0  0  0  0  0
   46.6490   32.1960   45.6860 C   0  0  0  0  0  0  0  0  0  0  0  0
   46.9250   32.7970   46.8870 C   0  0  0  0  0  0  0  0  0  0  0  0
   46.4430   32.2290   48.0580 C   0  0  0  0  0  0  0  0  0  0  0  0
   45.6990   31.0730   47.9640 C   0  0  0  0  0  0  0  0  0  0  0  0
   45.1140   30.3970   49.4670 Cl  0  0  0  0  0  0  0  0  0  0  0  0
   45.4020   30.4400   46.7800 C   0  0  0  0  0  0  0  0  0  0  0  0
   47.5150   33.7100   46.9400 H   0  0  0  0  0  0  0  0  0  0  0  0
   46.6530   32.6940   49.0130 H   0  0  0  0  0  0  0  0  0  0  0  0
   44.8110   29.5350   46.7950 H   0  0  0  0  0  0  0  0  0  0  0  0
   48.5570   34.4960   40.8920 C   0  0  0  0  0  0  0  0  0  0  0  0
   49.5430   34.0920   40.5870 H   0  0  0  0  0  0  0  0  0  0  0  0
   48.7080   35.5790   41.0390 H   0  0  0  0  0  0  0  0  0  0  0  0
   47.5070   34.3420   39.8300 C   0  0  0  0  0  0  0  0  0  0  0  0
   46.5790   33.9950   40.3650 H   0  0  0  0  0  0  0  0  0  0  0  0
   47.2380   35.3710   39.4790 H   0  0  0  0  0  0  0  0  0  0  0  0
   47.8690   33.4450   38.7280 C   0  0  0  0  0  0  0  0  0  0  0  0
   49.0660   32.7640   38.6400 C   0  0  0  0  0  0  0  0  0  0  0  0
   49.7990   32.8850   39.4270 H   0  0  0  0  0  0  0  0  0  0  0  0
   49.2630   31.9490   37.5320 C   0  0  0  0  0  3  0  0  0  0  0  0
   48.2820   31.8270   36.5410 C   0  0  0  0  0  0  0  0  0  0  0  0
   48.4760   31.0370   35.4690 N   0  0  0  0  0  0  0  0  0  0  0  0
   47.5520   30.9000   34.5000 C   0  0  0  0  0  0  0  0  0  0  0  0
   47.6410   30.2940   33.6280 H   0  0  0  0  0  0  0  0  0  0  0  0
   46.3640   31.5840   34.6000 C   0  0  0  0  0  3  0  0  0  0  0  0
   46.0990   32.4140   35.6760 C   0  0  0  0  0  3  0  0  0  0  0  0
   47.0950   32.5160   36.6480 C   0  0  0  0  0  0  0  0  0  0  0  0
   46.8810   33.3330   37.7480 C   0  0  0  0  0  3  0  0  0  0  0  0
  1  6  1  0  0  0  0
  2  3  1  0  0  0  0
  2  1  2  0  0  0  0
  3  4  2  0  0  0  0
  4  5  1  0  0  0  0
  5 11  1  0  0  0  0
  6  5  2  0  0  0  0
  7  1  1  0  0  0  0
  8  3  1  0  0  0  0
  9 10  1  0  0  0  0
 10 11  2  0  0  0  0
 10 16  1  0  0  0  0
 11 12  1  0  0  0  0
 12 17  1  0  0  0  0
 12 13  2  0  0  0  0
 13 18  1  0  0  0  0
 14 13  1  0  0  0  0
 14 15  1  0  0  0  0
 16 19  1  0  0  0  0
 16 14  2  0  0  0  0
 20 22  1  0  0  0  0
 20  2  1  0  0  0  0
 21 20  1  0  0  0  0
 23 24  1  0  0  0  0
 23 20  1  0  0  0  0
 25 23  1  0  0  0  0
 26 23  1  0  0  0  0
 27 26  1  0  0  0  0
 27 28  1  0  0  0  0
 29 27  2  0  0  0  0
 30 36  1  0  0  0  0
 30 29  1  0  0  0  0
 31 30  2  0  0  0  0
 32 34  2  0  0  0  0
 32 31  1  0  0  0  0
 33 32  1  0  0  0  0
 34 35  1  0  0  0  0
 35 36  2  0  0  0  0
 36 37  1  0  0  0  0
 37 26  2  0  0  0  0
M  END
>  <minimizedAffinity>
-5.18744659

>  <minimizedRMSD>
1.93729615

$$$$
