
 OpenBabel03252502033D

 37 41  0  0  0  0  0  0  0  0999 V2000
   37.3870   32.6320   40.1700 C   0  0  0  0  0  0  0  0  0  0  0  0
   37.0700   31.3720   40.6480 C   0  0  0  0  0  0  0  0  0  0  0  0
   38.0630   30.4310   40.5980 C   0  0  0  0  0  0  0  0  0  0  0  0
   39.2710   30.7480   40.1050 N   0  0  0  0  0  0  0  0  0  0  0  0
   39.5760   31.9430   39.6490 C   0  0  0  0  0  0  0  0  0  0  0  0
   38.6120   32.8550   39.6990 N   0  0  0  0  0  0  0  0  0  0  0  0
   36.5880   33.3690   40.2170 H   0  0  0  0  0  0  0  0  0  0  0  0
   40.8040   32.4990   39.0790 C   0  0  0  0  0  0  0  0  0  0  0  0
   40.9950   32.7400   37.7690 N   0  0  0  0  0  0  0  0  0  0  0  0
   42.0900   33.2420   37.2050 C   0  0  0  0  0  0  0  0  0  0  0  0
   43.1470   33.5580   37.9830 N   0  0  0  0  0  0  0  0  0  0  0  0
   43.0940   33.3690   39.3210 C   0  0  0  0  0  0  0  0  0  0  0  0
   44.1760   33.6950   40.1140 C   0  0  0  0  0  0  0  0  0  0  0  0
   44.1410   33.5100   41.4690 C   0  0  0  0  0  0  0  0  0  0  0  0
   42.9800   32.9860   42.0050 C   0  0  0  0  0  0  0  0  0  0  0  0
   41.9290   32.6750   41.1820 C   0  0  0  0  0  0  0  0  0  0  0  0
   41.9170   32.8440   39.8120 C   0  0  0  0  0  0  0  0  0  0  0  0
   42.1670   33.4070   36.1360 H   0  0  0  0  0  0  0  0  0  0  0  0
   45.0570   34.1020   39.6340 H   0  0  0  0  0  0  0  0  0  0  0  0
   44.9940   33.7730   42.0470 H   0  0  0  0  0  0  0  0  0  0  0  0
   42.9040   32.8220   43.0680 H   0  0  0  0  0  0  0  0  0  0  0  0
   41.0290   32.2620   41.6570 H   0  0  0  0  0  0  0  0  0  0  0  0
   37.8240   29.1070   41.0700 C   0  0  0  0  0  0  0  0  0  0  0  0
   37.9710   28.6940   42.3780 C   0  0  0  0  0  0  0  0  0  0  0  0
   38.2980   29.4420   43.1120 H   0  0  0  0  0  0  0  0  0  0  0  0
   37.7470   27.4230   42.8670 C   0  0  0  0  0  3  0  0  0  0  0  0
   37.3370   26.4840   41.9490 C   0  0  0  0  0  0  0  0  0  0  0  0
   37.0910   25.2000   42.3300 N   0  0  0  0  0  0  0  0  0  0  0  0
   36.6900   24.2920   41.4170 C   0  0  0  0  0  0  0  0  0  0  0  0
   36.5070   23.2770   41.7850 H   0  0  0  0  0  0  0  0  0  0  0  0
   36.4950   24.5420   40.0720 C   0  0  0  0  0  3  0  0  0  0  0  0
   36.7440   25.8550   39.6620 C   0  0  0  0  0  3  0  0  0  0  0  0
   37.1530   26.7780   40.6020 C   0  0  0  0  0  0  0  0  0  0  0  0
   37.4050   28.0850   40.2130 C   0  0  0  0  0  3  0  0  0  0  0  0
   35.7840   31.0950   41.1560 N   0  0  0  0  0  0  0  0  0  0  0  0
   35.2730   30.1820   41.0800 H   0  0  0  0  0  0  0  0  0  0  0  0
   35.2710   31.8540   41.6590 H   0  0  0  0  0  0  0  0  0  0  0  0
  1  7  1  0  0  0  0
  1  2  1  0  0  0  0
  2 35  1  0  0  0  0
  3  2  2  0  0  0  0
  3 23  1  0  0  0  0
  4  3  1  0  0  0  0
  5  6  1  0  0  0  0
  5  4  2  0  0  0  0
  6  1  2  0  0  0  0
  8  5  1  0  0  0  0
  8 17  1  0  0  0  0
  9  8  2  0  0  0  0
 10  9  1  0  0  0  0
 10 11  2  0  0  0  0
 11 12  1  0  0  0  0
 12 17  2  0  0  0  0
 12 13  1  0  0  0  0
 13 14  2  0  0  0  0
 14 15  1  0  0  0  0
 14 20  1  0  0  0  0
 15 21  1  0  0  0  0
 16 22  1  0  0  0  0
 16 15  2  0  0  0  0
 17 16  1  0  0  0  0
 18 10  1  0  0  0  0
 19 13  1  0  0  0  0
 23 24  1  0  0  0  0
 24 26  2  0  0  0  0
 24 25  1  0  0  0  0
 27 28  1  0  0  0  0
 27 26  1  0  0  0  0
 29 30  1  0  0  0  0
 29 28  2  0  0  0  0
 31 29  1  0  0  0  0
 32 31  2  0  0  0  0
 32 33  1  0  0  0  0
 33 27  2  0  0  0  0
 34 33  1  0  0  0  0
 34 23  2  0  0  0  0
 35 37  1  0  0  0  0
 36 35  1  0  0  0  0
M  END
>  <minimizedAffinity>
-7.09866667

$$$$

 OpenBabel03252502033D

 37 41  0  0  0  0  0  0  0  0999 V2000
   37.5670   32.7200   40.4160 C   0  0  0  0  0  0  0  0  0  0  0  0
   37.1840   31.4660   40.8600 C   0  0  0  0  0  0  0  0  0  0  0  0
   38.1870   30.5580   41.0700 C   0  0  0  0  0  0  0  0  0  0  0  0
   39.4660   30.9000   40.8470 N   0  0  0  0  0  0  0  0  0  0  0  0
   39.8350   32.0900   40.4250 C   0  0  0  0  0  0  0  0  0  0  0  0
   38.8600   32.9690   40.2220 N   0  0  0  0  0  0  0  0  0  0  0  0
   36.7590   33.4290   40.2540 H   0  0  0  0  0  0  0  0  0  0  0  0
   41.1440   32.6690   40.1220 C   0  0  0  0  0  0  0  0  0  0  0  0
   41.7530   33.6100   40.8670 N   0  0  0  0  0  0  0  0  0  0  0  0
   42.9380   34.1640   40.6320 C   0  0  0  0  0  0  0  0  0  0  0  0
   43.6440   33.7780   39.5470 N   0  0  0  0  0  0  0  0  0  0  0  0
   43.1530   32.8380   38.7090 C   0  0  0  0  0  0  0  0  0  0  0  0
   43.8770   32.4440   37.6020 C   0  0  0  0  0  0  0  0  0  0  0  0
   43.3960   31.4950   36.7420 C   0  0  0  0  0  0  0  0  0  0  0  0
   42.1590   30.9500   37.0310 C   0  0  0  0  0  0  0  0  0  0  0  0
   41.4730   31.3690   38.1410 C   0  0  0  0  0  0  0  0  0  0  0  0
   41.9170   32.3220   39.0360 C   0  0  0  0  0  0  0  0  0  0  0  0
   43.3630   34.9200   41.2820 H   0  0  0  0  0  0  0  0  0  0  0  0
   44.8390   32.9090   37.4290 H   0  0  0  0  0  0  0  0  0  0  0  0
   43.9820   31.2180   35.9000 H   0  0  0  0  0  0  0  0  0  0  0  0
   41.7370   30.1980   36.3840 H   0  0  0  0  0  0  0  0  0  0  0  0
   40.4950   30.9050   38.3270 H   0  0  0  0  0  0  0  0  0  0  0  0
   37.8830   29.2420   41.5270 C   0  0  0  0  0  0  0  0  0  0  0  0
   37.7770   28.8690   42.8520 C   0  0  0  0  0  0  0  0  0  0  0  0
   37.9390   29.6440   43.6110 H   0  0  0  0  0  0  0  0  0  0  0  0
   37.4830   27.6080   43.3270 C   0  0  0  0  0  3  0  0  0  0  0  0
   37.2780   26.6340   42.3770 C   0  0  0  0  0  0  0  0  0  0  0  0
   36.9840   25.3560   42.7420 N   0  0  0  0  0  0  0  0  0  0  0  0
   36.7870   24.4130   41.7980 C   0  0  0  0  0  0  0  0  0  0  0  0
   36.5530   23.4050   42.1550 H   0  0  0  0  0  0  0  0  0  0  0  0
   36.8560   24.6220   40.4340 C   0  0  0  0  0  3  0  0  0  0  0  0
   37.1580   25.9280   40.0380 C   0  0  0  0  0  3  0  0  0  0  0  0
   37.3580   26.8860   41.0110 C   0  0  0  0  0  0  0  0  0  0  0  0
   37.6580   28.1870   40.6380 C   0  0  0  0  0  3  0  0  0  0  0  0
   35.8250   31.1610   41.0780 N   0  0  0  0  0  0  0  0  0  0  0  0
   35.3670   30.2290   40.9250 H   0  0  0  0  0  0  0  0  0  0  0  0
   35.1920   31.9180   41.4240 H   0  0  0  0  0  0  0  0  0  0  0  0
  1  2  1  0  0  0  0
  2  3  2  0  0  0  0
  2 35  1  0  0  0  0
  3 23  1  0  0  0  0
  4  3  1  0  0  0  0
  5  4  2  0  0  0  0
  6  1  2  0  0  0  0
  6  5  1  0  0  0  0
  7  1  1  0  0  0  0
  8  5  1  0  0  0  0
  8  9  1  0  0  0  0
 10  9  2  0  0  0  0
 10 18  1  0  0  0  0
 11 10  1  0  0  0  0
 12 17  1  0  0  0  0
 12 11  2  0  0  0  0
 13 12  1  0  0  0  0
 14 15  1  0  0  0  0
 14 13  2  0  0  0  0
 15 16  2  0  0  0  0
 16 22  1  0  0  0  0
 16 17  1  0  0  0  0
 17  8  2  0  0  0  0
 19 13  1  0  0  0  0
 20 14  1  0  0  0  0
 21 15  1  0  0  0  0
 23 24  1  0  0  0  0
 24 26  2  0  0  0  0
 24 25  1  0  0  0  0
 27 28  1  0  0  0  0
 27 26  1  0  0  0  0
 29 30  1  0  0  0  0
 29 28  2  0  0  0  0
 31 29  1  0  0  0  0
 32 31  2  0  0  0  0
 32 33  1  0  0  0  0
 33 27  2  0  0  0  0
 34 33  1  0  0  0  0
 34 23  2  0  0  0  0
 35 37  1  0  0  0  0
 36 35  1  0  0  0  0
M  END
>  <minimizedAffinity>
-6.97596598

$$$$

 OpenBabel03252502033D

 37 41  0  0  0  0  0  0  0  0999 V2000
   36.3150   30.4220   41.1900 C   0  0  0  0  0  0  0  0  0  0  0  0
   37.2130   31.2380   40.5220 C   0  0  0  0  0  0  0  0  0  0  0  0
   38.3370   30.6330   40.0260 C   0  0  0  0  0  0  0  0  0  0  0  0
   38.5270   29.3150   40.1970 N   0  0  0  0  0  0  0  0  0  0  0  0
   37.6770   28.5370   40.8320 C   0  0  0  0  0  0  0  0  0  0  0  0
   36.5870   29.1260   41.3120 N   0  0  0  0  0  0  0  0  0  0  0  0
   35.4270   30.9180   41.5770 H   0  0  0  0  0  0  0  0  0  0  0  0
   37.6820   27.1050   41.1300 C   0  0  0  0  0  0  0  0  0  0  0  0
   36.8280   26.2120   40.5970 N   0  0  0  0  0  0  0  0  0  0  0  0
   36.7940   24.9040   40.8370 C   0  0  0  0  0  0  0  0  0  0  0  0
   37.6870   24.3680   41.6960 N   0  0  0  0  0  0  0  0  0  0  0  0
   38.6060   25.1490   42.3050 C   0  0  0  0  0  0  0  0  0  0  0  0
   39.5190   24.5980   43.1830 C   0  0  0  0  0  0  0  0  0  0  0  0
   40.4560   25.3730   43.8090 C   0  0  0  0  0  0  0  0  0  0  0  0
   40.4490   26.7260   43.5260 C   0  0  0  0  0  0  0  0  0  0  0  0
   39.5260   27.2330   42.6490 C   0  0  0  0  0  0  0  0  0  0  0  0
   38.5620   26.4910   41.9930 C   0  0  0  0  0  0  0  0  0  0  0  0
   36.0710   24.2480   40.3660 H   0  0  0  0  0  0  0  0  0  0  0  0
   39.4720   23.5320   43.3640 H   0  0  0  0  0  0  0  0  0  0  0  0
   41.1410   24.9120   44.4790 H   0  0  0  0  0  0  0  0  0  0  0  0
   41.1680   27.3780   43.9940 H   0  0  0  0  0  0  0  0  0  0  0  0
   39.5620   28.3140   42.4570 H   0  0  0  0  0  0  0  0  0  0  0  0
   39.3140   31.3970   39.3230 C   0  0  0  0  0  0  0  0  0  0  0  0
   39.3290   31.6010   37.9590 C   0  0  0  0  0  0  0  0  0  0  0  0
   38.5270   31.1390   37.3690 H   0  0  0  0  0  0  0  0  0  0  0  0
   40.2580   32.3340   37.2490 C   0  0  0  0  0  3  0  0  0  0  0  0
   41.2650   32.9140   37.9870 C   0  0  0  0  0  0  0  0  0  0  0  0
   42.2320   33.6560   37.3820 N   0  0  0  0  0  0  0  0  0  0  0  0
   43.2110   34.2180   38.1190 C   0  0  0  0  0  0  0  0  0  0  0  0
   43.9580   34.8040   37.5750 H   0  0  0  0  0  0  0  0  0  0  0  0
   43.3400   34.1110   39.4910 C   0  0  0  0  0  3  0  0  0  0  0  0
   42.3560   33.3510   40.1310 C   0  0  0  0  0  3  0  0  0  0  0  0
   41.3580   32.7810   39.3680 C   0  0  0  0  0  0  0  0  0  0  0  0
   40.3740   32.0240   39.9860 C   0  0  0  0  0  3  0  0  0  0  0  0
   36.9620   32.6170   40.3700 N   0  0  0  0  0  0  0  0  0  0  0  0
   37.6830   33.3790   40.3590 H   0  0  0  0  0  0  0  0  0  0  0  0
   35.9730   32.9360   40.2590 H   0  0  0  0  0  0  0  0  0  0  0  0
  1  6  1  0  0  0  0
  1  7  1  0  0  0  0
  2  1  2  0  0  0  0
  3  4  2  0  0  0  0
  3  2  1  0  0  0  0
  4  5  1  0  0  0  0
  5  8  1  0  0  0  0
  5  6  2  0  0  0  0
  8 17  1  0  0  0  0
  9 10  1  0  0  0  0
  9  8  2  0  0  0  0
 10 11  2  0  0  0  0
 11 12  1  0  0  0  0
 12 13  1  0  0  0  0
 13 19  1  0  0  0  0
 13 14  2  0  0  0  0
 14 20  1  0  0  0  0
 15 14  1  0  0  0  0
 15 21  1  0  0  0  0
 16 15  2  0  0  0  0
 17 12  2  0  0  0  0
 17 16  1  0  0  0  0
 18 10  1  0  0  0  0
 22 16  1  0  0  0  0
 23 34  1  0  0  0  0
 23  3  1  0  0  0  0
 24 23  2  0  0  0  0
 25 24  1  0  0  0  0
 26 24  1  0  0  0  0
 26 27  2  0  0  0  0
 27 33  1  0  0  0  0
 28 27  1  0  0  0  0
 28 29  2  0  0  0  0
 29 31  1  0  0  0  0
 30 29  1  0  0  0  0
 31 32  2  0  0  0  0
 33 34  2  0  0  0  0
 33 32  1  0  0  0  0
 35  2  1  0  0  0  0
 36 35  1  0  0  0  0
 37 35  1  0  0  0  0
M  END
>  <minimizedAffinity>
-6.89164829

$$$$

 OpenBabel03252502033D

 37 41  0  0  0  0  0  0  0  0999 V2000
   37.5390   31.0870   38.3080 C   0  0  0  0  0  0  0  0  0  0  0  0
   38.7930   31.4360   37.8360 C   0  0  0  0  0  0  0  0  0  0  0  0
   39.8670   30.9350   38.5220 C   0  0  0  0  0  0  0  0  0  0  0  0
   39.6780   30.1490   39.5950 N   0  0  0  0  0  0  0  0  0  0  0  0
   38.4880   29.8150   40.0460 C   0  0  0  0  0  0  0  0  0  0  0  0
   37.4480   30.3020   39.3790 N   0  0  0  0  0  0  0  0  0  0  0  0
   36.6970   31.4920   37.7520 H   0  0  0  0  0  0  0  0  0  0  0  0
   38.0560   28.9880   41.1740 C   0  0  0  0  0  0  0  0  0  0  0  0
   37.9210   29.4310   42.4370 N   0  0  0  0  0  0  0  0  0  0  0  0
   37.5330   28.7190   43.4910 C   0  0  0  0  0  0  0  0  0  0  0  0
   37.2340   27.4120   43.3300 N   0  0  0  0  0  0  0  0  0  0  0  0
   37.3250   26.8330   42.1120 C   0  0  0  0  0  0  0  0  0  0  0  0
   37.0170   25.4970   41.9510 C   0  0  0  0  0  0  0  0  0  0  0  0
   37.1040   24.8940   40.7260 C   0  0  0  0  0  0  0  0  0  0  0  0
   37.5120   25.6770   39.6630 C   0  0  0  0  0  0  0  0  0  0  0  0
   37.8080   26.9990   39.8670 C   0  0  0  0  0  0  0  0  0  0  0  0
   37.7350   27.6520   41.0820 C   0  0  0  0  0  0  0  0  0  0  0  0
   37.4480   29.1510   44.4820 H   0  0  0  0  0  0  0  0  0  0  0  0
   36.7040   24.9360   42.8230 H   0  0  0  0  0  0  0  0  0  0  0  0
   36.8590   23.8620   40.6420 H   0  0  0  0  0  0  0  0  0  0  0  0
   37.5960   25.2470   38.6780 H   0  0  0  0  0  0  0  0  0  0  0  0
   38.1270   27.5800   38.9900 H   0  0  0  0  0  0  0  0  0  0  0  0
   41.1950   31.2430   38.1060 C   0  0  0  0  0  0  0  0  0  0  0  0
   41.9980   32.2120   38.6720 C   0  0  0  0  0  0  0  0  0  0  0  0
   41.5820   32.7910   39.5070 H   0  0  0  0  0  0  0  0  0  0  0  0
   43.2850   32.5340   38.2940 C   0  0  0  0  0  3  0  0  0  0  0  0
   43.8090   31.8100   37.2470 C   0  0  0  0  0  0  0  0  0  0  0  0
   45.0710   32.0510   36.7970 N   0  0  0  0  0  0  0  0  0  0  0  0
   45.5690   31.3330   35.7700 C   0  0  0  0  0  0  0  0  0  0  0  0
   46.5890   31.5730   35.4550 H   0  0  0  0  0  0  0  0  0  0  0  0
   44.8980   30.3310   35.0960 C   0  0  0  0  0  3  0  0  0  0  0  0
   43.5990   30.0690   35.5430 C   0  0  0  0  0  3  0  0  0  0  0  0
   43.0980   30.8080   36.5950 C   0  0  0  0  0  0  0  0  0  0  0  0
   41.8130   30.5620   37.0520 C   0  0  0  0  0  3  0  0  0  0  0  0
   38.9340   32.2650   36.7040 N   0  0  0  0  0  0  0  0  0  0  0  0
   39.6960   32.9690   36.5440 H   0  0  0  0  0  0  0  0  0  0  0  0
   38.2250   32.1910   35.9400 H   0  0  0  0  0  0  0  0  0  0  0  0
  1  6  1  0  0  0  0
  2  1  2  0  0  0  0
  2  3  1  0  0  0  0
  3  4  2  0  0  0  0
  4  5  1  0  0  0  0
  5  8  1  0  0  0  0
  6  5  2  0  0  0  0
  7  1  1  0  0  0  0
  8  9  1  0  0  0  0
  9 10  2  0  0  0  0
 10 18  1  0  0  0  0
 11 10  1  0  0  0  0
 12 11  2  0  0  0  0
 13 12  1  0  0  0  0
 13 19  1  0  0  0  0
 14 13  2  0  0  0  0
 15 16  2  0  0  0  0
 15 14  1  0  0  0  0
 16 17  1  0  0  0  0
 17  8  2  0  0  0  0
 17 12  1  0  0  0  0
 20 14  1  0  0  0  0
 21 15  1  0  0  0  0
 22 16  1  0  0  0  0
 23  3  1  0  0  0  0
 23 24  1  0  0  0  0
 24 25  1  0  0  0  0
 26 24  2  0  0  0  0
 27 26  1  0  0  0  0
 28 27  1  0  0  0  0
 29 28  2  0  0  0  0
 30 29  1  0  0  0  0
 31 32  2  0  0  0  0
 31 29  1  0  0  0  0
 32 33  1  0  0  0  0
 33 34  1  0  0  0  0
 33 27  2  0  0  0  0
 34 23  2  0  0  0  0
 35  2  1  0  0  0  0
 36 35  1  0  0  0  0
 37 35  1  0  0  0  0
M  END
>  <minimizedAffinity>
-6.87054968

$$$$

 OpenBabel03252502033D

 37 41  0  0  0  0  0  0  0  0999 V2000
   37.5330   30.6950   37.6900 C   0  0  0  0  0  0  0  0  0  0  0  0
   38.8140   31.1600   37.4490 C   0  0  0  0  0  0  0  0  0  0  0  0
   39.8410   30.4350   37.9920 C   0  0  0  0  0  0  0  0  0  0  0  0
   39.5820   29.3340   38.7170 N   0  0  0  0  0  0  0  0  0  0  0  0
   38.3660   28.8890   38.9480 C   0  0  0  0  0  0  0  0  0  0  0  0
   37.3710   29.5940   38.4200 N   0  0  0  0  0  0  0  0  0  0  0  0
   36.7290   31.2820   37.2520 H   0  0  0  0  0  0  0  0  0  0  0  0
   37.8620   27.7360   39.6940 C   0  0  0  0  0  0  0  0  0  0  0  0
   37.5770   26.5390   39.1480 N   0  0  0  0  0  0  0  0  0  0  0  0
   37.1170   25.4650   39.7830 C   0  0  0  0  0  0  0  0  0  0  0  0
   36.8970   25.5300   41.1140 N   0  0  0  0  0  0  0  0  0  0  0  0
   37.1420   26.6720   41.7940 C   0  0  0  0  0  0  0  0  0  0  0  0
   36.9160   26.7350   43.1550 C   0  0  0  0  0  0  0  0  0  0  0  0
   37.1570   27.8830   43.8600 C   0  0  0  0  0  0  0  0  0  0  0  0
   37.6340   28.9700   43.1530 C   0  0  0  0  0  0  0  0  0  0  0  0
   37.8430   28.8660   41.8030 C   0  0  0  0  0  0  0  0  0  0  0  0
   37.6150   27.7310   41.0490 C   0  0  0  0  0  0  0  0  0  0  0  0
   36.9110   24.5330   39.2700 H   0  0  0  0  0  0  0  0  0  0  0  0
   36.5420   25.8490   43.6520 H   0  0  0  0  0  0  0  0  0  0  0  0
   36.9710   27.8930   44.9070 H   0  0  0  0  0  0  0  0  0  0  0  0
   37.8390   29.8970   43.6640 H   0  0  0  0  0  0  0  0  0  0  0  0
   38.2230   29.7580   41.2860 H   0  0  0  0  0  0  0  0  0  0  0  0
   41.1930   30.8410   37.7940 C   0  0  0  0  0  0  0  0  0  0  0  0
   41.8770   31.7350   38.5930 C   0  0  0  0  0  0  0  0  0  0  0  0
   41.3380   32.1660   39.4460 H   0  0  0  0  0  0  0  0  0  0  0  0
   43.1830   32.1470   38.4300 C   0  0  0  0  0  3  0  0  0  0  0  0
   43.8610   31.6070   37.3610 C   0  0  0  0  0  0  0  0  0  0  0  0
   45.1540   31.9500   37.1110 N   0  0  0  0  0  0  0  0  0  0  0  0
   45.8030   31.4110   36.0590 C   0  0  0  0  0  0  0  0  0  0  0  0
   46.8410   31.7250   35.9120 H   0  0  0  0  0  0  0  0  0  0  0  0
   45.2650   30.5040   35.1660 C   0  0  0  0  0  3  0  0  0  0  0  0
   43.9360   30.1400   35.4050 C   0  0  0  0  0  3  0  0  0  0  0  0
   43.2800   30.6960   36.4840 C   0  0  0  0  0  0  0  0  0  0  0  0
   41.9620   30.3460   36.7360 C   0  0  0  0  0  3  0  0  0  0  0  0
   39.0280   32.3220   36.6800 N   0  0  0  0  0  0  0  0  0  0  0  0
   39.7970   33.0240   36.8200 H   0  0  0  0  0  0  0  0  0  0  0  0
   38.3740   32.5270   35.8920 H   0  0  0  0  0  0  0  0  0  0  0  0
  1  6  1  0  0  0  0
  2  1  2  0  0  0  0
  2  3  1  0  0  0  0
  3  4  2  0  0  0  0
  4  5  1  0  0  0  0
  5  8  1  0  0  0  0
  6  5  2  0  0  0  0
  7  1  1  0  0  0  0
  8 17  1  0  0  0  0
  9  8  2  0  0  0  0
  9 10  1  0  0  0  0
 10 11  2  0  0  0  0
 11 12  1  0  0  0  0
 12 13  1  0  0  0  0
 13 19  1  0  0  0  0
 13 14  2  0  0  0  0
 14 20  1  0  0  0  0
 15 21  1  0  0  0  0
 15 14  1  0  0  0  0
 16 15  2  0  0  0  0
 17 12  2  0  0  0  0
 17 16  1  0  0  0  0
 18 10  1  0  0  0  0
 22 16  1  0  0  0  0
 23  3  1  0  0  0  0
 23 24  1  0  0  0  0
 24 25  1  0  0  0  0
 26 24  2  0  0  0  0
 27 26  1  0  0  0  0
 28 27  1  0  0  0  0
 29 28  2  0  0  0  0
 30 29  1  0  0  0  0
 31 32  2  0  0  0  0
 31 29  1  0  0  0  0
 32 33  1  0  0  0  0
 33 34  1  0  0  0  0
 33 27  2  0  0  0  0
 34 23  2  0  0  0  0
 35 36  1  0  0  0  0
 35  2  1  0  0  0  0
 37 35  1  0  0  0  0
M  END
>  <minimizedAffinity>
-6.68976641

$$$$

 OpenBabel03252502033D

 37 41  0  0  0  0  0  0  0  0999 V2000
   36.1960   30.5130   41.2020 C   0  0  0  0  0  0  0  0  0  0  0  0
   37.1360   31.2920   40.5480 C   0  0  0  0  0  0  0  0  0  0  0  0
   38.2040   30.6310   40.0020 C   0  0  0  0  0  0  0  0  0  0  0  0
   38.3030   29.2960   40.1140 N   0  0  0  0  0  0  0  0  0  0  0  0
   37.4120   28.5540   40.7340 C   0  0  0  0  0  0  0  0  0  0  0  0
   36.3760   29.1970   41.2630 N   0  0  0  0  0  0  0  0  0  0  0  0
   35.3540   31.0530   41.6290 H   0  0  0  0  0  0  0  0  0  0  0  0
   37.3200   27.1130   40.9720 C   0  0  0  0  0  0  0  0  0  0  0  0
   37.7820   26.4910   42.0720 N   0  0  0  0  0  0  0  0  0  0  0  0
   37.7230   25.1880   42.3320 C   0  0  0  0  0  0  0  0  0  0  0  0
   37.1500   24.3610   41.4310 N   0  0  0  0  0  0  0  0  0  0  0  0
   36.6410   24.8510   40.2780 C   0  0  0  0  0  0  0  0  0  0  0  0
   36.0540   24.0040   39.3590 C   0  0  0  0  0  0  0  0  0  0  0  0
   35.5350   24.4810   38.1870 C   0  0  0  0  0  0  0  0  0  0  0  0
   35.6220   25.8420   37.9660 C   0  0  0  0  0  0  0  0  0  0  0  0
   36.2120   26.6480   38.9030 C   0  0  0  0  0  0  0  0  0  0  0  0
   36.7500   26.2140   40.0990 C   0  0  0  0  0  0  0  0  0  0  0  0
   38.1200   24.7610   43.2460 H   0  0  0  0  0  0  0  0  0  0  0  0
   36.0170   22.9470   39.5910 H   0  0  0  0  0  0  0  0  0  0  0  0
   35.0920   23.7970   37.5040 H   0  0  0  0  0  0  0  0  0  0  0  0
   35.2270   26.2660   37.0570 H   0  0  0  0  0  0  0  0  0  0  0  0
   36.2570   27.7230   38.6800 H   0  0  0  0  0  0  0  0  0  0  0  0
   39.2200   31.3530   39.3100 C   0  0  0  0  0  0  0  0  0  0  0  0
   39.2930   31.5000   37.9400 C   0  0  0  0  0  0  0  0  0  0  0  0
   38.5090   31.0250   37.3360 H   0  0  0  0  0  0  0  0  0  0  0  0
   40.2600   32.1920   37.2400 C   0  0  0  0  0  3  0  0  0  0  0  0
   41.2440   32.7900   37.9940 C   0  0  0  0  0  0  0  0  0  0  0  0
   42.2450   33.4950   37.4000 N   0  0  0  0  0  0  0  0  0  0  0  0
   43.2010   34.0750   38.1540 C   0  0  0  0  0  0  0  0  0  0  0  0
   43.9780   34.6290   37.6180 H   0  0  0  0  0  0  0  0  0  0  0  0
   43.2720   34.0230   39.5330 C   0  0  0  0  0  3  0  0  0  0  0  0
   42.2530   33.3020   40.1620 C   0  0  0  0  0  3  0  0  0  0  0  0
   41.2790   32.7130   39.3830 C   0  0  0  0  0  0  0  0  0  0  0  0
   40.2600   31.9940   39.9890 C   0  0  0  0  0  3  0  0  0  0  0  0
   36.9820   32.6900   40.4600 N   0  0  0  0  0  0  0  0  0  0  0  0
   37.7550   33.3990   40.4630 H   0  0  0  0  0  0  0  0  0  0  0  0
   36.0160   33.0830   40.3840 H   0  0  0  0  0  0  0  0  0  0  0  0
  1  6  1  0  0  0  0
  1  7  1  0  0  0  0
  2  1  2  0  0  0  0
  3  4  2  0  0  0  0
  3  2  1  0  0  0  0
  4  5  1  0  0  0  0
  5  8  1  0  0  0  0
  5  6  2  0  0  0  0
  8  9  1  0  0  0  0
  9 10  2  0  0  0  0
 10 18  1  0  0  0  0
 11 10  1  0  0  0  0
 12 11  2  0  0  0  0
 13 19  1  0  0  0  0
 13 12  1  0  0  0  0
 14 13  2  0  0  0  0
 15 14  1  0  0  0  0
 15 16  2  0  0  0  0
 16 17  1  0  0  0  0
 17 12  1  0  0  0  0
 17  8  2  0  0  0  0
 20 14  1  0  0  0  0
 21 15  1  0  0  0  0
 22 16  1  0  0  0  0
 23 34  1  0  0  0  0
 23  3  1  0  0  0  0
 24 23  2  0  0  0  0
 25 24  1  0  0  0  0
 26 24  1  0  0  0  0
 26 27  2  0  0  0  0
 27 33  1  0  0  0  0
 28 27  1  0  0  0  0
 28 29  2  0  0  0  0
 29 31  1  0  0  0  0
 30 29  1  0  0  0  0
 31 32  2  0  0  0  0
 33 34  2  0  0  0  0
 33 32  1  0  0  0  0
 35 36  1  0  0  0  0
 35  2  1  0  0  0  0
 37 35  1  0  0  0  0
M  END
>  <minimizedAffinity>
-6.68209696

$$$$

 OpenBabel03252502033D

 37 41  0  0  0  0  0  0  0  0999 V2000
   37.5240   31.0330   38.3130 C   0  0  0  0  0  0  0  0  0  0  0  0
   38.7660   31.4100   37.8300 C   0  0  0  0  0  0  0  0  0  0  0  0
   39.8570   30.9090   38.4890 C   0  0  0  0  0  0  0  0  0  0  0  0
   39.6940   30.0960   39.5460 N   0  0  0  0  0  0  0  0  0  0  0  0
   38.5170   29.7360   40.0070 C   0  0  0  0  0  0  0  0  0  0  0  0
   37.4600   30.2230   39.3670 N   0  0  0  0  0  0  0  0  0  0  0  0
   36.6690   31.4390   37.7790 H   0  0  0  0  0  0  0  0  0  0  0  0
   38.1130   28.8770   41.1220 C   0  0  0  0  0  0  0  0  0  0  0  0
   36.8380   28.5940   41.4430 N   0  0  0  0  0  0  0  0  0  0  0  0
   36.4230   27.8220   42.4440 C   0  0  0  0  0  0  0  0  0  0  0  0
   37.3370   27.2400   43.2500 N   0  0  0  0  0  0  0  0  0  0  0  0
   38.6580   27.4360   43.0420 C   0  0  0  0  0  0  0  0  0  0  0  0
   39.5910   26.8380   43.8660 C   0  0  0  0  0  0  0  0  0  0  0  0
   40.9320   27.0270   43.6720 C   0  0  0  0  0  0  0  0  0  0  0  0
   41.3100   27.8380   42.6190 C   0  0  0  0  0  0  0  0  0  0  0  0
   40.3520   28.4130   41.8250 C   0  0  0  0  0  0  0  0  0  0  0  0
   38.9890   28.2520   41.9810 C   0  0  0  0  0  0  0  0  0  0  0  0
   35.3730   27.6420   42.6390 H   0  0  0  0  0  0  0  0  0  0  0  0
   39.2310   26.2150   44.6750 H   0  0  0  0  0  0  0  0  0  0  0  0
   41.6190   26.5500   44.3290 H   0  0  0  0  0  0  0  0  0  0  0  0
   42.3550   28.0170   42.4250 H   0  0  0  0  0  0  0  0  0  0  0  0
   40.7040   29.0480   41.0000 H   0  0  0  0  0  0  0  0  0  0  0  0
   41.1740   31.2450   38.0600 C   0  0  0  0  0  0  0  0  0  0  0  0
   41.8760   30.5880   37.0700 C   0  0  0  0  0  0  0  0  0  0  0  0
   41.3830   29.7420   36.5750 H   0  0  0  0  0  0  0  0  0  0  0  0
   43.1490   30.8870   36.6300 C   0  0  0  0  0  3  0  0  0  0  0  0
   43.7700   31.9490   37.2490 C   0  0  0  0  0  0  0  0  0  0  0  0
   45.0280   32.3250   36.8890 N   0  0  0  0  0  0  0  0  0  0  0  0
   45.6220   33.3670   37.5050 C   0  0  0  0  0  0  0  0  0  0  0  0
   46.6330   33.6210   37.1710 H   0  0  0  0  0  0  0  0  0  0  0  0
   45.0580   34.1270   38.5120 C   0  0  0  0  0  3  0  0  0  0  0  0
   43.7660   33.7560   38.8960 C   0  0  0  0  0  3  0  0  0  0  0  0
   43.1660   32.6890   38.2600 C   0  0  0  0  0  0  0  0  0  0  0  0
   41.8850   32.3070   38.6280 C   0  0  0  0  0  3  0  0  0  0  0  0
   38.8790   32.2670   36.7160 N   0  0  0  0  0  0  0  0  0  0  0  0
   39.6280   32.9840   36.5610 H   0  0  0  0  0  0  0  0  0  0  0  0
   38.1590   32.2010   35.9610 H   0  0  0  0  0  0  0  0  0  0  0  0
  1  6  1  0  0  0  0
  2  1  2  0  0  0  0
  2  3  1  0  0  0  0
  3  4  2  0  0  0  0
  4  5  1  0  0  0  0
  5  8  1  0  0  0  0
  6  5  2  0  0  0  0
  7  1  1  0  0  0  0
  8  9  2  0  0  0  0
  8 17  1  0  0  0  0
  9 10  1  0  0  0  0
 10 18  1  0  0  0  0
 10 11  2  0  0  0  0
 12 11  1  0  0  0  0
 12 13  1  0  0  0  0
 13 19  1  0  0  0  0
 14 13  2  0  0  0  0
 14 20  1  0  0  0  0
 15 14  1  0  0  0  0
 16 17  1  0  0  0  0
 16 15  2  0  0  0  0
 17 12  2  0  0  0  0
 21 15  1  0  0  0  0
 22 16  1  0  0  0  0
 23  3  1  0  0  0  0
 23 34  1  0  0  0  0
 24 23  2  0  0  0  0
 25 24  1  0  0  0  0
 26 24  1  0  0  0  0
 26 27  2  0  0  0  0
 27 33  1  0  0  0  0
 28 27  1  0  0  0  0
 28 29  2  0  0  0  0
 29 31  1  0  0  0  0
 30 29  1  0  0  0  0
 31 32  2  0  0  0  0
 33 34  2  0  0  0  0
 33 32  1  0  0  0  0
 35  2  1  0  0  0  0
 36 35  1  0  0  0  0
 37 35  1  0  0  0  0
M  END
>  <minimizedAffinity>
-6.56848764

$$$$

 OpenBabel03252502033D

 37 41  0  0  0  0  0  0  0  0999 V2000
   35.9450   30.7920   40.0820 C   0  0  0  0  0  0  0  0  0  0  0  0
   37.1190   31.5230   40.1360 C   0  0  0  0  0  0  0  0  0  0  0  0
   38.2740   30.8480   39.8420 C   0  0  0  0  0  0  0  0  0  0  0  0
   38.2330   29.5440   39.5220 N   0  0  0  0  0  0  0  0  0  0  0  0
   37.1190   28.8470   39.4700 C   0  0  0  0  0  0  0  0  0  0  0  0
   36.0000   29.5030   39.7550 N   0  0  0  0  0  0  0  0  0  0  0  0
   35.0370   31.3420   40.3180 H   0  0  0  0  0  0  0  0  0  0  0  0
   36.8460   27.4450   39.1510 C   0  0  0  0  0  0  0  0  0  0  0  0
   36.5530   26.9860   37.9200 N   0  0  0  0  0  0  0  0  0  0  0  0
   36.2980   25.7250   37.5820 C   0  0  0  0  0  0  0  0  0  0  0  0
   36.3220   24.7690   38.5360 N   0  0  0  0  0  0  0  0  0  0  0  0
   36.6040   25.0880   39.8190 C   0  0  0  0  0  0  0  0  0  0  0  0
   36.6300   24.1080   40.7920 C   0  0  0  0  0  0  0  0  0  0  0  0
   36.9120   24.4120   42.0950 C   0  0  0  0  0  0  0  0  0  0  0  0
   37.1700   25.7370   42.3940 C   0  0  0  0  0  0  0  0  0  0  0  0
   37.1340   26.6780   41.3980 C   0  0  0  0  0  0  0  0  0  0  0  0
   36.8550   26.4200   40.0710 C   0  0  0  0  0  0  0  0  0  0  0  0
   36.0690   25.4340   36.5640 H   0  0  0  0  0  0  0  0  0  0  0  0
   36.4180   23.0890   40.4940 H   0  0  0  0  0  0  0  0  0  0  0  0
   36.9210   23.6300   42.8160 H   0  0  0  0  0  0  0  0  0  0  0  0
   37.3980   26.0260   43.4070 H   0  0  0  0  0  0  0  0  0  0  0  0
   37.3460   27.7170   41.6870 H   0  0  0  0  0  0  0  0  0  0  0  0
   39.5300   31.5230   39.8720 C   0  0  0  0  0  0  0  0  0  0  0  0
   40.3300   31.6560   40.9890 C   0  0  0  0  0  0  0  0  0  0  0  0
   39.9730   31.2080   41.9250 H   0  0  0  0  0  0  0  0  0  0  0  0
   41.5490   32.3000   41.0520 C   0  0  0  0  0  3  0  0  0  0  0  0
   41.9990   32.8610   39.8790 C   0  0  0  0  0  0  0  0  0  0  0  0
   43.1890   33.5210   39.8350 N   0  0  0  0  0  0  0  0  0  0  0  0
   43.6160   34.0650   38.6780 C   0  0  0  0  0  0  0  0  0  0  0  0
   44.5810   34.5810   38.7070 H   0  0  0  0  0  0  0  0  0  0  0  0
   42.9370   34.0210   37.4760 C   0  0  0  0  0  3  0  0  0  0  0  0
   41.7110   33.3490   37.5000 C   0  0  0  0  0  3  0  0  0  0  0  0
   41.2830   32.7940   38.6880 C   0  0  0  0  0  0  0  0  0  0  0  0
   40.0700   32.1240   38.7320 C   0  0  0  0  0  3  0  0  0  0  0  0
   37.1040   32.8910   40.4770 N   0  0  0  0  0  0  0  0  0  0  0  0
   37.8480   33.4030   41.0120 H   0  0  0  0  0  0  0  0  0  0  0  0
   36.2860   33.4700   40.1820 H   0  0  0  0  0  0  0  0  0  0  0  0
  1  2  1  0  0  0  0
  1  7  1  0  0  0  0
  2 35  1  0  0  0  0
  3 23  1  0  0  0  0
  3  2  2  0  0  0  0
  4  3  1  0  0  0  0
  5  4  2  0  0  0  0
  5  6  1  0  0  0  0
  6  1  2  0  0  0  0
  8  5  1  0  0  0  0
  8 17  1  0  0  0  0
  9  8  2  0  0  0  0
 10  9  1  0  0  0  0
 10 11  2  0  0  0  0
 11 12  1  0  0  0  0
 12 17  2  0  0  0  0
 12 13  1  0  0  0  0
 13 14  2  0  0  0  0
 14 15  1  0  0  0  0
 14 20  1  0  0  0  0
 15 21  1  0  0  0  0
 16 22  1  0  0  0  0
 16 15  2  0  0  0  0
 17 16  1  0  0  0  0
 18 10  1  0  0  0  0
 19 13  1  0  0  0  0
 23 24  1  0  0  0  0
 24 26  2  0  0  0  0
 24 25  1  0  0  0  0
 27 26  1  0  0  0  0
 28 27  1  0  0  0  0
 29 30  1  0  0  0  0
 29 28  2  0  0  0  0
 31 32  2  0  0  0  0
 31 29  1  0  0  0  0
 32 33  1  0  0  0  0
 33 34  1  0  0  0  0
 33 27  2  0  0  0  0
 34 23  2  0  0  0  0
 35 36  1  0  0  0  0
 37 35  1  0  0  0  0
M  END
>  <minimizedAffinity>
-6.52592373

$$$$

 OpenBabel03252502033D

 37 41  0  0  0  0  0  0  0  0999 V2000
   35.2980   29.1820   35.4350 C   0  0  0  0  0  0  0  0  0  0  0  0
   35.9350   29.2570   36.6620 C   0  0  0  0  0  0  0  0  0  0  0  0
   35.1420   29.1240   37.7720 C   0  0  0  0  0  0  0  0  0  0  0  0
   33.8200   28.9330   37.6390 N   0  0  0  0  0  0  0  0  0  0  0  0
   33.2110   28.8620   36.4750 C   0  0  0  0  0  0  0  0  0  0  0  0
   33.9820   28.9900   35.4010 N   0  0  0  0  0  0  0  0  0  0  0  0
   35.9410   29.2880   34.5640 H   0  0  0  0  0  0  0  0  0  0  0  0
   31.8100   28.6630   36.1040 C   0  0  0  0  0  0  0  0  0  0  0  0
   31.2450   27.4640   35.8730 N   0  0  0  0  0  0  0  0  0  0  0  0
   29.9800   27.2330   35.5340 C   0  0  0  0  0  0  0  0  0  0  0  0
   29.1350   28.2770   35.3940 N   0  0  0  0  0  0  0  0  0  0  0  0
   29.5680   29.5420   35.5970 C   0  0  0  0  0  0  0  0  0  0  0  0
   28.7000   30.6070   35.4530 C   0  0  0  0  0  0  0  0  0  0  0  0
   29.1210   31.8930   35.6540 C   0  0  0  0  0  0  0  0  0  0  0  0
   30.4440   32.0780   36.0040 C   0  0  0  0  0  0  0  0  0  0  0  0
   31.2720   30.9940   36.1360 C   0  0  0  0  0  0  0  0  0  0  0  0
   30.8940   29.6790   35.9450 C   0  0  0  0  0  0  0  0  0  0  0  0
   29.5990   26.2330   35.3650 H   0  0  0  0  0  0  0  0  0  0  0  0
   27.6750   30.3960   35.1760 H   0  0  0  0  0  0  0  0  0  0  0  0
   28.4230   32.6870   35.5330 H   0  0  0  0  0  0  0  0  0  0  0  0
   30.8230   33.0730   36.1730 H   0  0  0  0  0  0  0  0  0  0  0  0
   32.3150   31.1930   36.4170 H   0  0  0  0  0  0  0  0  0  0  0  0
   35.7140   29.1880   39.0760 C   0  0  0  0  0  0  0  0  0  0  0  0
   35.9300   30.3490   39.7900 C   0  0  0  0  0  0  0  0  0  0  0  0
   35.6390   31.2960   39.3180 H   0  0  0  0  0  0  0  0  0  0  0  0
   36.4790   30.4450   41.0520 C   0  0  0  0  0  3  0  0  0  0  0  0
   36.8440   29.2590   41.6470 C   0  0  0  0  0  0  0  0  0  0  0  0
   37.3960   29.2450   42.8910 N   0  0  0  0  0  0  0  0  0  0  0  0
   37.7480   28.0740   43.4590 C   0  0  0  0  0  0  0  0  0  0  0  0
   38.1850   28.1280   44.4610 H   0  0  0  0  0  0  0  0  0  0  0  0
   37.5990   26.8280   42.8810 C   0  0  0  0  0  3  0  0  0  0  0  0
   37.0350   26.8210   41.6020 C   0  0  0  0  0  3  0  0  0  0  0  0
   36.6770   28.0240   41.0280 C   0  0  0  0  0  0  0  0  0  0  0  0
   36.1150   28.0370   39.7610 C   0  0  0  0  0  3  0  0  0  0  0  0
   37.3280   29.4580   36.7430 N   0  0  0  0  0  0  0  0  0  0  0  0
   37.8330   29.9970   37.4880 H   0  0  0  0  0  0  0  0  0  0  0  0
   37.9360   29.0420   36.0010 H   0  0  0  0  0  0  0  0  0  0  0  0
  1  2  1  0  0  0  0
  2 35  1  0  0  0  0
  2  3  2  0  0  0  0
  3 23  1  0  0  0  0
  4  3  1  0  0  0  0
  5  4  2  0  0  0  0
  6  1  2  0  0  0  0
  6  5  1  0  0  0  0
  7  1  1  0  0  0  0
  8  5  1  0  0  0  0
  9  8  2  0  0  0  0
 10  9  1  0  0  0  0
 11 10  2  0  0  0  0
 11 12  1  0  0  0  0
 12 17  1  0  0  0  0
 13 12  2  0  0  0  0
 13 14  1  0  0  0  0
 14 15  2  0  0  0  0
 15 16  1  0  0  0  0
 15 21  1  0  0  0  0
 16 22  1  0  0  0  0
 17  8  1  0  0  0  0
 17 16  2  0  0  0  0
 18 10  1  0  0  0  0
 19 13  1  0  0  0  0
 20 14  1  0  0  0  0
 23 34  2  0  0  0  0
 23 24  1  0  0  0  0
 24 26  2  0  0  0  0
 25 24  1  0  0  0  0
 26 27  1  0  0  0  0
 27 28  1  0  0  0  0
 28 29  2  0  0  0  0
 29 30  1  0  0  0  0
 31 29  1  0  0  0  0
 32 31  2  0  0  0  0
 33 32  1  0  0  0  0
 33 27  2  0  0  0  0
 34 33  1  0  0  0  0
 35 36  1  0  0  0  0
 37 35  1  0  0  0  0
M  END
>  <minimizedAffinity>
-6.45778227

$$$$
