
 OpenBabel03242520423D

 42 46  0  0  1  0  0  0  0  0999 V2000
   46.0110   33.3350   45.2420 C   0  0  0  0  0  0  0  0  0  0  0  0
   46.9530   33.4380   44.2000 C   0  0  0  0  0  0  0  0  0  0  0  0
   47.7090   32.2750   43.8650 C   0  0  0  0  0  0  0  0  0  0  0  0
   47.4850   31.1220   44.5680 N   0  0  0  0  0  0  0  0  0  0  0  0
   46.5680   31.0870   45.5560 C   0  0  0  0  0  0  0  0  0  0  0  0
   45.8440   32.1860   45.8830 N   0  0  0  0  0  0  0  0  0  0  0  0
   46.4040   29.8680   46.2230 N   0  0  0  0  0  0  0  0  0  0  0  0
   47.4970   29.2570   46.9060 C   0  0  2  0  0  0  0  0  0  0  0  0
   47.2710   27.8520   47.3440 C   0  0  0  0  0  0  0  0  0  0  0  0
   45.9390   27.4830   47.6390 N   0  0  0  0  0  0  0  0  0  0  0  0
   45.0000   28.5400   47.5650 C   0  0  0  0  0  0  0  0  0  0  0  0
   45.1190   29.2110   46.2290 C   0  0  0  0  0  0  0  0  0  0  0  0
   45.4690   34.2460   45.4510 H   0  0  0  0  0  0  0  0  0  0  0  0
   47.1660   34.3120   43.6200 H   0  0  0  0  0  0  0  0  0  0  0  0
   48.4390   32.2990   43.0780 H   0  0  0  0  0  0  0  0  0  0  0  0
   48.3210   29.1680   46.1330 H   0  0  0  0  0  0  0  0  0  0  0  0
   47.8890   27.7060   48.2780 H   0  0  0  0  0  0  0  0  0  0  0  0
   47.6810   27.0990   46.6400 H   0  0  0  0  0  0  0  0  0  0  0  0
   45.7940   26.8850   48.4750 H   0  0  0  0  0  0  0  0  0  0  0  0
   43.9670   28.0810   47.5800 H   0  0  0  0  0  0  0  0  0  0  0  0
   45.0070   29.2660   48.3700 H   0  0  0  0  0  0  0  0  0  0  0  0
   44.3490   30.0250   46.2070 H   0  0  0  0  0  0  0  0  0  0  0  0
   44.9550   28.5370   45.3830 H   0  0  0  0  0  0  0  0  0  0  0  0
   48.0260   30.1220   47.9970 C   0  0  0  0  0  0  0  0  0  0  0  0
   47.4430   31.0900   48.7760 C   0  0  0  0  0  0  0  0  0  0  0  0
   48.3030   31.6120   49.6530 N   0  0  0  0  0  0  0  0  0  0  0  0
   49.4580   30.9700   49.4320 C   0  0  0  0  0  0  0  0  0  0  0  0
   49.2940   30.0820   48.4460 N   0  0  0  0  0  0  0  0  0  0  0  0
   46.4140   31.4020   48.6980 H   0  0  0  0  0  0  0  0  0  0  0  0
   48.1150   32.3550   50.3520 H   0  0  0  0  0  0  0  0  0  0  0  0
   50.6860   31.2310   50.1790 C   0  0  0  0  0  0  0  0  0  0  0  0
   51.6920   31.9880   49.6130 C   0  0  0  0  0  0  0  0  0  0  0  0
   51.5960   32.4040   48.6040 H   0  0  0  0  0  0  0  0  0  0  0  0
   52.8750   32.2700   50.2660 C   0  0  0  0  0  0  0  0  0  0  0  0
   53.0430   31.7620   51.5530 C   0  0  0  0  0  0  0  0  0  0  0  0
   54.2150   32.0680   52.1450 N   0  0  0  0  0  0  0  0  0  0  0  0
   54.4510   31.6150   53.3840 C   0  0  0  0  0  0  0  0  0  0  0  0
   55.3480   31.7930   53.9570 H   0  0  0  0  0  0  0  0  0  0  0  0
   53.5080   30.8400   54.0570 C   0  0  0  0  0  0  0  0  0  0  0  0
   52.3260   30.5530   53.4140 C   0  0  0  0  0  0  0  0  0  0  0  0
   52.0490   30.9950   52.1550 C   0  0  0  0  0  0  0  0  0  0  0  0
   50.8880   30.7450   51.4540 C   0  0  0  0  0  0  0  0  0  0  0  0
  1 13  1  0  0  0  0
  1  6  1  0  0  0  0
  2  1  2  0  0  0  0
  3  2  1  0  0  0  0
  3  4  2  0  0  0  0
  4  5  1  0  0  0  0
  5  6  2  0  0  0  0
  5  7  1  0  0  0  0
  7 12  1  0  0  0  0
  7  8  1  0  0  0  0
  8 16  1  6  0  0  0
  8  9  1  0  0  0  0
  8 24  1  0  0  0  0
  9 10  1  0  0  0  0
  9 17  1  0  0  0  0
 10 19  1  0  0  0  0
 11 20  1  0  0  0  0
 11 10  1  0  0  0  0
 11 21  1  0  0  0  0
 12 11  1  0  0  0  0
 14  2  1  0  0  0  0
 15  3  1  0  0  0  0
 18  9  1  0  0  0  0
 22 12  1  0  0  0  0
 23 12  1  0  0  0  0
 24 28  1  0  0  0  0
 24 25  2  0  0  0  0
 25 26  1  0  0  0  0
 26 30  1  0  0  0  0
 27 26  1  0  0  0  0
 27 31  1  0  0  0  0
 28 27  2  0  0  0  0
 29 25  1  0  0  0  0
 31 42  1  0  0  0  0
 32 31  2  0  0  0  0
 32 34  1  0  0  0  0
 33 32  1  0  0  0  0
 34 35  2  0  0  0  0
 35 36  1  0  0  0  0
 35 41  1  0  0  0  0
 36 37  2  0  0  0  0
 37 38  1  0  0  0  0
 37 39  1  0  0  0  0
 40 39  2  0  0  0  0
 41 40  1  0  0  0  0
 42 41  2  0  0  0  0
M  END
>  <minimizedAffinity>
-5.825243

>  <minimizedRMSD>
1.29855931

$$$$
