
 OpenBabel03252504513D

 37 40  0  0  0  0  0  0  0  0999 V2000
   46.8230   34.5390   42.6370 C   0  0  0  0  0  0  0  0  0  0  0  0
   47.9990   34.1090   42.0030 C   0  0  0  0  0  0  0  0  0  0  0  0
   48.6880   33.0610   42.5960 C   0  0  0  0  0  0  0  0  0  0  0  0
   48.1770   32.5310   43.7430 N   0  0  0  0  0  0  0  0  0  0  0  0
   47.0560   32.9600   44.3240 C   0  0  0  0  0  0  0  0  0  0  0  0
   46.3600   33.9800   43.7710 N   0  0  0  0  0  0  0  0  0  0  0  0
   46.2080   35.3400   42.2680 H   0  0  0  0  0  0  0  0  0  0  0  0
   49.5920   32.7020   42.1440 H   0  0  0  0  0  0  0  0  0  0  0  0
   45.7080   30.2440   43.9550 Cl  0  0  0  0  0  0  0  0  0  0  0  0
   45.9460   31.1040   45.4850 C   0  0  0  0  0  0  0  0  0  0  0  0
   46.5740   32.3410   45.5490 C   0  0  0  0  0  0  0  0  0  0  0  0
   46.7440   32.9800   46.7520 C   0  0  0  0  0  0  0  0  0  0  0  0
   46.2790   32.3760   47.9120 C   0  0  0  0  0  0  0  0  0  0  0  0
   45.6620   31.1490   47.8070 C   0  0  0  0  0  0  0  0  0  0  0  0
   45.0940   30.4320   49.2980 Cl  0  0  0  0  0  0  0  0  0  0  0  0
   45.4740   30.4780   46.6230 C   0  0  0  0  0  0  0  0  0  0  0  0
   47.2350   33.9490   46.8130 H   0  0  0  0  0  0  0  0  0  0  0  0
   46.4060   32.8700   48.8680 H   0  0  0  0  0  0  0  0  0  0  0  0
   44.9790   29.5170   46.6290 H   0  0  0  0  0  0  0  0  0  0  0  0
   48.4070   34.7750   40.7930 C   0  0  0  0  0  0  0  0  0  0  0  0
   49.5040   34.6830   40.6640 H   0  0  0  0  0  0  0  0  0  0  0  0
   48.1990   35.8570   40.8360 H   0  0  0  0  0  0  0  0  0  0  0  0
   47.6330   34.2270   39.6290 C   0  0  0  0  0  0  0  0  0  0  0  0
   46.7280   33.7250   40.0710 H   0  0  0  0  0  0  0  0  0  0  0  0
   47.2040   35.1020   39.0750 H   0  0  0  0  0  0  0  0  0  0  0  0
   48.3870   33.3220   38.7550 C   0  0  0  0  0  0  0  0  0  0  0  0
   49.2870   32.3770   39.2040 C   0  0  0  0  0  0  0  0  0  0  0  0
   49.4610   32.2820   40.2680 H   0  0  0  0  0  0  0  0  0  0  0  0
   49.9240   31.5920   38.2530 C   0  0  0  0  0  0  0  0  0  0  0  0
   49.6620   31.7550   36.8880 C   0  0  0  0  0  0  0  0  0  0  0  0
   50.2820   30.9940   35.9670 N   0  0  0  0  0  0  0  0  0  0  0  0
   50.0510   31.1270   34.6490 C   0  0  0  0  0  0  0  0  0  0  0  0
   50.5050   30.5570   33.8700 H   0  0  0  0  0  0  0  0  0  0  0  0
   49.1520   32.0720   34.2140 C   0  0  0  0  0  0  0  0  0  0  0  0
   48.4800   32.8890   35.1060 C   0  0  0  0  0  0  0  0  0  0  0  0
   48.7620   32.7040   36.4610 C   0  0  0  0  0  0  0  0  0  0  0  0
   48.1150   33.4970   37.3980 C   0  0  0  0  0  0  0  0  0  0  0  0
  1  6  1  0  0  0  0
  2  3  1  0  0  0  0
  2  1  2  0  0  0  0
  3  4  2  0  0  0  0
  4  5  1  0  0  0  0
  5 11  1  0  0  0  0
  6  5  2  0  0  0  0
  7  1  1  0  0  0  0
  8  3  1  0  0  0  0
  9 10  1  0  0  0  0
 10 11  2  0  0  0  0
 10 16  1  0  0  0  0
 11 12  1  0  0  0  0
 12 17  1  0  0  0  0
 12 13  2  0  0  0  0
 13 18  1  0  0  0  0
 14 13  1  0  0  0  0
 14 15  1  0  0  0  0
 16 19  1  0  0  0  0
 16 14  2  0  0  0  0
 20 22  1  0  0  0  0
 20  2  1  0  0  0  0
 21 20  1  0  0  0  0
 23 24  1  0  0  0  0
 23 20  1  0  0  0  0
 25 23  1  0  0  0  0
 26 27  1  0  0  0  0
 26 23  1  0  0  0  0
 27 28  1  0  0  0  0
 29 27  2  0  0  0  0
 30 29  1  0  0  0  0
 31 30  2  0  0  0  0
 32 31  1  0  0  0  0
 33 32  1  0  0  0  0
 34 32  2  0  0  0  0
 34 35  1  0  0  0  0
 35 36  2  0  0  0  0
 36 30  1  0  0  0  0
 36 37  1  0  0  0  0
 37 26  2  0  0  0  0
M  END
>  <minimizedAffinity>
-5.5013752

>  <minimizedRMSD>
1.46052074

$$$$
