
 OpenBabel03242521083D

 43 47  0  0  1  0  0  0  0  0999 V2000
   45.9360   32.8090   38.8950 C   0  0  2  0  0  0  0  0  0  0  0  0
   46.7890   31.8450   38.1540 C   0  0  0  0  0  0  0  0  0  0  0  0
   46.1560   33.0680   37.4870 C   0  0  1  0  0  0  0  0  0  0  0  0
   44.9010   32.4260   39.1540 H   0  0  0  0  0  0  0  0  0  0  0  0
   47.8780   31.8630   38.2590 H   0  0  0  0  0  0  0  0  0  0  0  0
   46.3220   30.8920   37.8310 H   0  0  0  0  0  0  0  0  0  0  0  0
   46.9290   33.7620   37.1130 H   0  0  0  0  0  0  0  0  0  0  0  0
   46.5150   34.6320   42.0450 C   0  0  0  0  0  0  0  0  0  0  0  0
   47.7530   35.1490   41.7350 C   0  0  0  0  0  0  0  0  0  0  0  0
   48.4250   34.9380   40.5510 C   0  0  0  0  0  0  0  0  0  0  0  0
   47.8160   34.1470   39.5970 C   0  0  0  0  0  0  0  0  0  0  0  0
   46.5860   33.6430   39.9240 C   0  0  0  0  0  0  0  0  0  0  0  0
   45.9830   33.8750   41.0780 N   0  0  0  0  0  0  0  0  0  0  0  0
   48.2480   35.7800   42.4840 H   0  0  0  0  0  0  0  0  0  0  0  0
   49.4130   35.4080   40.4180 H   0  0  0  0  0  0  0  0  0  0  0  0
   48.3270   33.9780   38.6810 H   0  0  0  0  0  0  0  0  0  0  0  0
   44.4810   36.0670   44.8680 C   0  0  0  0  0  0  0  0  0  0  0  0
   45.0500   35.9830   43.5920 C   0  0  0  0  0  0  0  0  0  0  0  0
   45.8440   34.8830   43.3220 C   0  0  0  0  0  0  0  0  0  0  0  0
   46.0340   33.9510   44.2840 N   0  0  0  0  0  0  0  0  0  0  0  0
   45.4590   34.0740   45.5190 C   0  0  0  0  0  0  0  0  0  0  0  0
   44.6940   35.1240   45.7930 N   0  0  0  0  0  0  0  0  0  0  0  0
   43.8590   36.9300   45.0760 H   0  0  0  0  0  0  0  0  0  0  0  0
   44.9170   36.7080   42.8010 H   0  0  0  0  0  0  0  0  0  0  0  0
   45.6940   33.2550   46.2000 H   0  0  0  0  0  0  0  0  0  0  0  0
   45.1580   32.7950   36.5400 O   0  0  0  0  0  0  0  0  0  0  0  0
   45.4320   30.7630   35.0280 O   0  0  0  0  0  0  0  0  0  0  0  0
   45.7710   32.2610   35.0650 P   0  0  1  0  0  0  0  0  0  0  0  0
   44.9650   32.9720   33.7870 O   0  0  0  0  0  0  0  0  0  0  0  0
   45.6330   33.4000   33.1930 H   0  0  0  0  0  0  0  0  0  0  0  0
   47.4440   32.3390   34.9390 O   0  0  0  0  0  0  0  0  0  0  0  0
   48.2230   31.6190   34.0440 C   0  0  0  0  0  0  0  0  0  0  0  0
   49.5740   31.4040   34.2280 C   0  0  0  0  0  0  0  0  0  0  0  0
   50.0710   31.7960   35.0870 H   0  0  0  0  0  0  0  0  0  0  0  0
   50.3770   30.6920   33.3570 C   0  0  0  0  0  0  0  0  0  0  0  0
   49.8100   30.1530   32.2230 C   0  0  0  0  0  0  0  0  0  0  0  0
   50.6030   29.4600   31.3810 N   0  0  0  0  0  0  0  0  0  0  0  0
   50.1270   28.8920   30.2350 C   0  0  0  0  0  0  0  0  0  0  0  0
   50.8470   28.3620   29.6350 H   0  0  0  0  0  0  0  0  0  0  0  0
   48.7900   29.0640   29.9850 C   0  0  0  0  0  0  0  0  0  0  0  0
   47.9640   29.7730   30.8400 C   0  0  0  0  0  0  0  0  0  0  0  0
   48.4620   30.3410   31.9960 C   0  0  0  0  0  0  0  0  0  0  0  0
   47.6930   31.0600   32.8920 C   0  0  0  0  0  0  0  0  0  0  0  0
  1  4  1  1  0  0  0
  1 12  1  0  0  0  0
  2  5  1  0  0  0  0
  2  1  1  0  0  0  0
  3  7  1  6  0  0  0
  3  2  1  0  0  0  0
  3  1  1  0  0  0  0
  6  2  1  0  0  0  0
  8 19  1  0  0  0  0
  9  8  1  0  0  0  0
  9 14  1  0  0  0  0
 10  9  2  0  0  0  0
 11 12  2  0  0  0  0
 11 10  1  0  0  0  0
 12 13  1  0  0  0  0
 13  8  2  0  0  0  0
 15 10  1  0  0  0  0
 16 11  1  0  0  0  0
 17 23  1  0  0  0  0
 17 22  1  0  0  0  0
 18 17  2  0  0  0  0
 19 18  1  0  0  0  0
 19 20  2  0  0  0  0
 20 21  1  0  0  0  0
 21 22  2  0  0  0  0
 21 25  1  0  0  0  0
 24 18  1  0  0  0  0
 26  3  1  0  0  0  0
 28 27  2  6  0  0  0
 28 26  1  0  0  0  0
 29 28  1  0  0  0  0
 30 29  1  0  0  0  0
 31 28  1  0  0  0  0
 32 33  1  0  0  0  0
 32 31  1  0  0  0  0
 33 34  1  0  0  0  0
 35 33  2  0  0  0  0
 36 35  1  0  0  0  0
 37 36  2  0  0  0  0
 38 37  1  0  0  0  0
 39 38  1  0  0  0  0
 40 38  2  0  0  0  0
 40 41  1  0  0  0  0
 41 42  2  0  0  0  0
 42 36  1  0  0  0  0
 42 43  1  0  0  0  0
 43 32  2  0  0  0  0
M  END
>  <minimizedAffinity>
-7.11753416

>  <minimizedRMSD>
1.32326066

$$$$
