
 OpenBabel03252504273D

 25 27  0  0  0  0  0  0  0  0999 V2000
   42.7160   35.6430   41.9890 O   0  0  0  0  0  0  0  0  0  0  0  0
   41.8920   35.2410   40.9550 C   0  0  0  0  0  0  0  0  0  0  0  0
   42.5030   35.3520   39.7020 C   0  0  0  0  0  0  0  0  0  0  0  0
   43.5210   35.7170   39.5520 H   0  0  0  0  0  0  0  0  0  0  0  0
   41.8560   35.0050   38.5380 C   0  0  0  0  0  0  0  0  0  0  0  0
   40.5680   34.5320   38.6030 C   0  0  0  0  0  0  0  0  0  0  0  0
   39.8420   34.1650   37.5460 N   0  0  0  0  0  0  0  0  0  0  0  0
   38.5830   33.7030   37.5990 C   0  0  0  0  0  0  0  0  0  0  0  0
   38.1450   33.4500   36.6270 H   0  0  0  0  0  0  0  0  0  0  0  0
   37.9520   33.5790   38.8100 C   0  0  0  0  0  0  0  0  0  0  0  0
   38.6470   33.9440   39.9570 C   0  0  0  0  0  0  0  0  0  0  0  0
   39.9550   34.4180   39.8280 C   0  0  0  0  0  0  0  0  0  0  0  0
   40.5840   34.7570   40.9850 C   0  0  0  0  0  0  0  0  0  0  0  0
   44.0730   35.3260   41.9460 C   0  0  0  0  0  0  0  0  0  0  0  0
   44.6740   36.1950   41.6160 H   0  0  0  0  0  0  0  0  0  0  0  0
   44.2760   34.5330   41.1700 H   0  0  0  0  0  0  0  0  0  0  0  0
   44.3510   35.5770   44.3310 C   0  0  0  0  0  0  0  0  0  0  0  0
   44.5840   34.7850   43.2080 C   0  0  0  0  0  0  0  0  0  0  0  0
   45.2590   33.5960   43.4090 C   0  0  0  0  0  0  0  0  0  0  0  0
   45.6450   33.2800   44.6520 N   0  0  0  0  0  0  0  0  0  0  0  0
   45.4040   34.0700   45.7170 C   0  0  0  0  0  0  0  0  0  0  0  0
   44.7360   35.2680   45.5940 N   0  0  0  0  0  0  0  0  0  0  0  0
   43.8250   36.5380   44.2930 H   0  0  0  0  0  0  0  0  0  0  0  0
   45.4240   33.0050   42.5190 H   0  0  0  0  0  0  0  0  0  0  0  0
   45.7310   33.7800   46.7080 H   0  0  0  0  0  0  0  0  0  0  0  0
  2 13  1  0  0  0  0
  2  1  1  0  0  0  0
  3  2  2  0  0  0  0
  4  3  1  0  0  0  0
  5  6  2  0  0  0  0
  5  3  1  0  0  0  0
  6 12  1  0  0  0  0
  7  8  2  0  0  0  0
  7  6  1  0  0  0  0
  8 10  1  0  0  0  0
  9  8  1  0  0  0  0
 10 11  2  0  0  0  0
 12 11  1  0  0  0  0
 12 13  2  0  0  0  0
 14  1  1  0  0  0  0
 14 18  1  0  0  0  0
 15 14  1  0  0  0  0
 16 14  1  0  0  0  0
 17 22  1  0  0  0  0
 18 19  1  0  0  0  0
 18 17  2  0  0  0  0
 19 20  2  0  0  0  0
 20 21  1  0  0  0  0
 21 25  1  0  0  0  0
 22 21  2  0  0  0  0
 23 17  1  0  0  0  0
 24 19  1  0  0  0  0
M  END
>  <minimizedAffinity>
-5.5004487

>  <minimizedRMSD>
3.06059885

$$$$
