
 OpenBabel03252507383D

 41 46  0  0  0  0  0  0  0  0999 V2000
   47.4000   30.7300   46.2090 C   0  0  0  0  0  0  0  0  0  0  0  0
   48.4410   30.2850   47.0660 C   0  0  0  0  0  0  0  0  0  0  0  0
   48.3730   30.6650   48.3920 C   0  0  0  0  0  0  0  0  0  0  0  0
   47.3420   31.4270   48.8050 N   0  0  0  0  0  0  0  0  0  0  0  0
   46.3590   31.8410   47.9680 C   0  0  0  0  0  0  0  0  0  0  0  0
   46.4000   31.4890   46.6860 N   0  0  0  0  0  0  0  0  0  0  0  0
   49.2690   29.6740   46.7420 H   0  0  0  0  0  0  0  0  0  0  0  0
   45.5580   32.4500   48.3520 H   0  0  0  0  0  0  0  0  0  0  0  0
   49.9730   31.3180   50.1080 C   0  0  0  0  0  0  0  0  0  0  0  0
   49.3690   30.2860   49.3950 C   0  0  0  0  0  0  0  0  0  0  0  0
   49.7350   29.0090   49.6720 C   0  0  0  0  0  0  0  0  0  0  0  0
   50.6760   28.6740   50.6240 C   0  0  0  0  0  0  0  0  0  0  0  0
   51.1790   27.5000   51.0530 N   0  0  0  0  0  0  0  0  0  0  0  0
   52.1090   27.7890   52.0420 C   0  0  0  0  0  0  0  0  0  0  0  0
   52.1480   29.1360   52.1920 N   0  0  0  0  0  0  0  0  0  0  0  0
   51.2810   29.6840   51.3340 C   0  0  0  0  0  0  0  0  0  0  0  0
   50.9320   30.9920   51.0780 C   0  0  0  0  0  0  0  0  0  0  0  0
   49.7450   32.3620   49.9550 H   0  0  0  0  0  0  0  0  0  0  0  0
   49.2410   28.2280   49.0960 H   0  0  0  0  0  0  0  0  0  0  0  0
   50.9020   26.5600   50.6880 H   0  0  0  0  0  0  0  0  0  0  0  0
   52.6880   27.0460   52.5850 H   0  0  0  0  0  0  0  0  0  0  0  0
   51.3850   31.7980   51.6140 H   0  0  0  0  0  0  0  0  0  0  0  0
   47.4730   30.3430   44.8680 O   0  0  0  0  0  0  0  0  0  0  0  0
   46.8160   29.1930   44.4440 C   0  0  0  0  0  0  0  0  0  0  0  0
   46.0220   28.9480   45.5050 C   0  0  0  0  0  0  0  0  0  0  0  0
   45.1050   27.3690   44.9390 S   0  0  0  0  0  0  0  0  0  0  0  0
   46.0670   27.4240   43.3160 C   0  0  0  0  0  0  0  0  0  0  0  0
   46.6810   28.3210   43.4750 N   0  0  0  0  0  0  0  0  0  0  0  0
   45.5130   29.0880   46.6010 H   0  0  0  0  0  0  0  0  0  0  0  0
   45.7860   26.3590   42.3370 C   0  0  0  0  0  0  0  0  0  0  0  0
   44.6880   25.5460   42.4020 C   0  0  0  0  0  0  0  0  0  0  0  0
   43.9730   25.6710   43.2040 H   0  0  0  0  0  0  0  0  0  0  0  0
   44.5520   24.5780   41.4000 C   0  0  0  0  0  3  0  0  0  0  0  0
   45.5070   24.4600   40.3860 C   0  0  0  0  0  0  0  0  0  0  0  0
   45.3320   23.5140   39.4470 N   0  0  0  0  0  0  0  0  0  0  0  0
   46.2100   23.3400   38.4360 C   0  0  0  0  0  0  0  0  0  0  0  0
   46.0300   22.5650   37.7010 H   0  0  0  0  0  0  0  0  0  0  0  0
   47.3260   24.1830   38.3920 C   0  0  0  0  0  3  0  0  0  0  0  0
   47.5160   25.1630   39.3560 C   0  0  0  0  0  3  0  0  0  0  0  0
   46.5940   25.3080   40.3730 C   0  0  0  0  0  0  0  0  0  0  0  0
   46.7540   26.2850   41.3620 C   0  0  0  0  0  3  0  0  0  0  0  0
  1  6  2  0  0  0  0
  1  2  1  0  0  0  0
  2  3  2  0  0  0  0
  3  4  1  0  0  0  0
  3 10  1  0  0  0  0
  5  8  1  0  0  0  0
  5  4  2  0  0  0  0
  6  5  1  0  0  0  0
  7  2  1  0  0  0  0
  9 17  1  0  0  0  0
 10 11  1  0  0  0  0
 10  9  2  0  0  0  0
 11 12  2  0  0  0  0
 12 13  1  0  0  0  0
 12 16  1  0  0  0  0
 13 14  1  0  0  0  0
 14 15  2  0  0  0  0
 14 21  1  0  0  0  0
 16 15  1  0  0  0  0
 17 16  2  0  0  0  0
 17 22  1  0  0  0  0
 18  9  1  0  0  0  0
 19 11  1  0  0  0  0
 20 13  1  0  0  0  0
 23  1  1  0  0  0  0
 24 23  1  0  0  0  0
 24 25  2  0  0  0  0
 25 29  1  0  0  0  0
 26 25  1  0  0  0  0
 27 28  2  0  0  0  0
 27 26  1  0  0  0  0
 28 24  1  0  0  0  0
 30 31  1  0  0  0  0
 30 27  1  0  0  0  0
 31 32  1  0  0  0  0
 33 31  2  0  0  0  0
 34 33  1  0  0  0  0
 35 34  2  0  0  0  0
 36 35  1  0  0  0  0
 37 36  1  0  0  0  0
 38 36  2  0  0  0  0
 38 39  1  0  0  0  0
 39 40  2  0  0  0  0
 40 34  1  0  0  0  0
 40 41  1  0  0  0  0
 41 30  2  0  0  0  0
M  END
>  <minimizedAffinity>
-3.42634273

>  <minimizedRMSD>
8.84951496

$$$$
