
 OpenBabel03242513573D

 37 41  0  0  0  0  0  0  0  0999 V2000
   44.7270   35.1680   44.8740 C   0  0  0  0  0  0  0  0  0  0  0  0
   44.6420   34.9350   43.4850 C   0  0  0  0  0  0  0  0  0  0  0  0
   45.2810   33.7890   42.9730 C   0  0  0  0  0  0  0  0  0  0  0  0
   45.9380   32.9850   43.8490 N   0  0  0  0  0  0  0  0  0  0  0  0
   46.0000   33.2340   45.1640 C   0  0  0  0  0  0  0  0  0  0  0  0
   45.3870   34.3330   45.6590 N   0  0  0  0  0  0  0  0  0  0  0  0
   44.2050   36.0730   45.1750 H   0  0  0  0  0  0  0  0  0  0  0  0
   45.2620   33.5420   41.9200 H   0  0  0  0  0  0  0  0  0  0  0  0
   46.7020   32.3740   46.1130 C   0  0  0  0  0  0  0  0  0  0  0  0
   46.8640   32.7540   47.4300 C   0  0  0  0  0  0  0  0  0  0  0  0
   46.4720   33.7030   47.7940 H   0  0  0  0  0  0  0  0  0  0  0  0
   47.5310   31.9470   48.3450 C   0  0  0  0  0  0  0  0  0  0  0  0
   48.0460   30.7400   47.9420 C   0  0  0  0  0  0  0  0  0  0  0  0
   48.7110   29.8770   48.7500 N   0  0  0  0  0  0  0  0  0  0  0  0
   49.1860   28.7070   48.2690 C   0  0  0  0  0  0  0  0  0  0  0  0
   49.7100   28.0490   48.9460 H   0  0  0  0  0  0  0  0  0  0  0  0
   49.0530   28.2770   46.9610 C   0  0  0  0  0  0  0  0  0  0  0  0
   48.3720   29.1440   46.1060 C   0  0  0  0  0  0  0  0  0  0  0  0
   47.9030   30.3260   46.6320 C   0  0  0  0  0  0  0  0  0  0  0  0
   47.2370   31.1510   45.7510 C   0  0  0  0  0  0  0  0  0  0  0  0
   43.9770   35.7450   42.5790 O   0  0  0  0  0  0  0  0  0  0  0  0
   43.2940   35.2820   41.4650 C   0  0  0  0  0  0  0  0  0  0  0  0
   43.8430   34.7270   40.3230 C   0  0  0  0  0  0  0  0  0  0  0  0
   43.0220   34.3140   39.2990 C   0  0  0  0  0  0  0  0  0  0  0  0
   41.6460   34.4290   39.3560 C   0  0  0  0  0  0  0  0  0  0  0  0
   40.9250   34.0020   38.3180 N   0  0  0  0  0  0  0  0  0  0  0  0
   39.5770   34.1020   38.3470 C   0  0  0  0  0  0  0  0  0  0  0  0
   38.9950   34.6430   39.4510 C   0  0  0  0  0  0  0  0  0  0  0  0
   39.7380   35.0930   40.5460 C   0  0  0  0  0  0  0  0  0  0  0  0
   41.1200   34.9860   40.5040 C   0  0  0  0  0  0  0  0  0  0  0  0
   41.9170   35.4150   41.5610 C   0  0  0  0  0  0  0  0  0  0  0  0
   44.9250   34.6530   40.3140 H   0  0  0  0  0  0  0  0  0  0  0  0
   43.5160   33.8890   38.4360 H   0  0  0  0  0  0  0  0  0  0  0  0
   38.9630   33.7670   37.5240 H   0  0  0  0  0  0  0  0  0  0  0  0
   37.9220   34.7560   39.5490 H   0  0  0  0  0  0  0  0  0  0  0  0
   39.2460   35.5190   41.4120 H   0  0  0  0  0  0  0  0  0  0  0  0
   41.3760   35.8320   42.3980 H   0  0  0  0  0  0  0  0  0  0  0  0
  1  7  1  0  0  0  0
  1  6  1  0  0  0  0
  2  1  2  0  0  0  0
  3  2  1  0  0  0  0
  3  4  2  0  0  0  0
  4  5  1  0  0  0  0
  5  6  2  0  0  0  0
  5  9  1  0  0  0  0
  8  3  1  0  0  0  0
  9 10  1  0  0  0  0
 10 11  1  0  0  0  0
 10 12  2  0  0  0  0
 13 12  1  0  0  0  0
 13 14  1  0  0  0  0
 15 14  2  0  0  0  0
 15 16  1  0  0  0  0
 17 15  1  0  0  0  0
 18 19  1  0  0  0  0
 18 17  2  0  0  0  0
 19 13  2  0  0  0  0
 20  9  2  0  0  0  0
 20 19  1  0  0  0  0
 21  2  1  0  0  0  0
 22 31  1  0  0  0  0
 22 21  1  0  0  0  0
 23 22  2  0  0  0  0
 24 25  2  0  0  0  0
 24 23  1  0  0  0  0
 25 30  1  0  0  0  0
 26 27  2  0  0  0  0
 26 25  1  0  0  0  0
 27 28  1  0  0  0  0
 28 35  1  0  0  0  0
 28 29  2  0  0  0  0
 29 36  1  0  0  0  0
 30 29  1  0  0  0  0
 30 31  2  0  0  0  0
 31 37  1  0  0  0  0
 32 23  1  0  0  0  0
 33 24  1  0  0  0  0
 34 27  1  0  0  0  0
M  END
>  <minimizedAffinity>
-6.92460155

>  <minimizedRMSD>
1.63968956

$$$$
