
 OpenBabel03252507223D

 50 54  0  0  1  0  0  0  0  0999 V2000
   47.4980   33.6340   42.9160 C   0  0  0  0  0  0  0  0  0  0  0  0
   48.5910   33.6120   43.5540 O   0  0  0  0  0  0  0  0  0  0  0  0
   47.2400   32.9340   41.6820 N   0  0  0  0  0  0  0  0  0  0  0  0
   46.1010   32.1590   41.2470 C   0  0  0  0  0  0  0  0  0  0  0  0
   45.6590   32.6780   39.8710 C   0  0  0  0  0  0  0  0  0  0  0  0
   46.7380   32.4640   38.8590 C   0  0  0  0  0  0  0  0  0  0  0  0
   48.0350   32.1400   39.5540 C   0  0  0  0  0  0  0  0  0  0  0  0
   48.3200   33.0600   40.7240 C   0  0  2  0  0  0  0  0  0  0  0  0
   46.2730   31.0830   41.1800 H   0  0  0  0  0  0  0  0  0  0  0  0
   45.2140   32.3570   41.9130 H   0  0  0  0  0  0  0  0  0  0  0  0
   44.7910   32.0790   39.5870 H   0  0  0  0  0  0  0  0  0  0  0  0
   45.4170   33.7590   39.9990 H   0  0  0  0  0  0  0  0  0  0  0  0
   46.5010   31.6010   38.1980 H   0  0  0  0  0  0  0  0  0  0  0  0
   46.8710   33.4110   38.2790 H   0  0  0  0  0  0  0  0  0  0  0  0
   48.8840   32.3040   38.8350 H   0  0  0  0  0  0  0  0  0  0  0  0
   48.0730   31.0800   39.8550 H   0  0  0  0  0  0  0  0  0  0  0  0
   48.3010   34.0920   40.3350 H   0  0  0  0  0  0  0  0  0  0  0  0
   46.0370   35.6110   42.7980 C   0  0  0  0  0  0  0  0  0  0  0  0
   46.4260   34.4350   43.4850 C   0  0  0  0  0  0  0  0  0  0  0  0
   45.7850   34.0900   44.6540 C   0  0  0  0  0  0  0  0  0  0  0  0
   44.8010   34.8980   45.1010 N   0  0  0  0  0  0  0  0  0  0  0  0
   44.4180   36.0320   44.4490 C   0  0  0  0  0  0  0  0  0  0  0  0
   45.0450   36.3600   43.3130 N   0  0  0  0  0  0  0  0  0  0  0  0
   46.5460   35.8680   41.8860 H   0  0  0  0  0  0  0  0  0  0  0  0
   43.6280   36.6340   44.8540 H   0  0  0  0  0  0  0  0  0  0  0  0
   46.2010   32.8850   45.3370 C   0  0  0  0  0  0  0  0  0  0  0  0
   45.8990   31.6670   44.8150 C   0  0  0  0  0  0  0  0  0  0  0  0
   46.3100   30.5360   45.4880 C   0  0  0  0  0  0  0  0  0  0  0  0
   47.0190   30.5840   46.6810 C   0  0  0  0  0  0  0  0  0  0  0  0
   47.2980   31.8570   47.1670 C   0  0  0  0  0  0  0  0  0  0  0  0
   46.8860   32.9310   46.4890 N   0  0  0  0  0  0  0  0  0  0  0  0
   45.3600   31.5000   43.9060 H   0  0  0  0  0  0  0  0  0  0  0  0
   46.1120   29.5150   45.1450 H   0  0  0  0  0  0  0  0  0  0  0  0
   47.3530   29.7290   47.2330 H   0  0  0  0  0  0  0  0  0  0  0  0
   47.8470   31.9430   48.0910 H   0  0  0  0  0  0  0  0  0  0  0  0
   49.6760   32.7550   41.2260 C   0  0  0  0  0  0  0  0  0  0  0  0
   50.0380   33.4260   42.0430 H   0  0  0  0  0  0  0  0  0  0  0  0
   50.3130   33.1570   40.3930 H   0  0  0  0  0  0  0  0  0  0  0  0
   50.0630   31.3620   41.3950 C   0  0  0  0  0  0  0  0  0  0  0  0
   50.7260   30.4210   40.6470 C   0  0  0  0  0  0  0  0  0  0  0  0
   51.0550   30.7210   39.6910 H   0  0  0  0  0  0  0  0  0  0  0  0
   51.0080   29.1260   40.9920 C   0  0  0  0  0  3  0  0  0  0  0  0
   50.6190   28.6400   42.2000 C   0  0  0  0  0  0  0  0  0  0  0  0
   50.8900   27.3810   42.5430 N   0  0  0  0  0  0  0  0  0  0  0  0
   50.5380   26.8290   43.7170 C   0  0  0  0  0  0  0  0  0  0  0  0
   50.7420   25.8120   44.0250 H   0  0  0  0  0  0  0  0  0  0  0  0
   49.8580   27.6790   44.5650 C   0  0  0  0  0  3  0  0  0  0  0  0
   49.5470   28.9920   44.2720 C   0  0  0  0  0  3  0  0  0  0  0  0
   49.9510   29.4620   43.0440 C   0  0  0  0  0  0  0  0  0  0  0  0
   49.6990   30.7640   42.6270 C   0  0  0  0  0  3  0  0  0  0  0  0
  1 19  1  0  0  0  0
  1  2  2  0  0  0  0
  3  1  1  0  0  0  0
  4  3  1  0  0  0  0
  4 10  1  0  0  0  0
  5 12  1  0  0  0  0
  5  4  1  0  0  0  0
  6  7  1  0  0  0  0
  6  5  1  0  0  0  0
  7 16  1  0  0  0  0
  7  8  1  0  0  0  0
  8 17  1  6  0  0  0
  8 36  1  0  0  0  0
  8  3  1  0  0  0  0
  9  4  1  0  0  0  0
 11  5  1  0  0  0  0
 13  6  1  0  0  0  0
 14  6  1  0  0  0  0
 15  7  1  0  0  0  0
 18 23  2  0  0  0  0
 18 19  1  0  0  0  0
 19 20  2  0  0  0  0
 20 21  1  0  0  0  0
 20 26  1  0  0  0  0
 22 25  1  0  0  0  0
 22 21  2  0  0  0  0
 23 22  1  0  0  0  0
 24 18  1  0  0  0  0
 26 31  1  0  0  0  0
 27 26  2  0  0  0  0
 27 28  1  0  0  0  0
 28 29  2  0  0  0  0
 29 30  1  0  0  0  0
 29 34  1  0  0  0  0
 30 35  1  0  0  0  0
 31 30  2  0  0  0  0
 32 27  1  0  0  0  0
 33 28  1  0  0  0  0
 36 39  1  0  0  0  0
 36 37  1  0  0  0  0
 38 36  1  0  0  0  0
 39 50  1  0  0  0  0
 40 42  1  0  0  0  0
 40 39  2  0  0  0  0
 41 40  1  0  0  0  0
 42 43  2  0  0  0  0
 43 44  1  0  0  0  0
 43 49  1  0  0  0  0
 44 45  2  0  0  0  0
 45 46  1  0  0  0  0
 45 47  1  0  0  0  0
 48 47  2  0  0  0  0
 49 48  1  0  0  0  0
 50 49  2  0  0  0  0
M  END
>  <minimizedAffinity>
-5.02181244

>  <minimizedRMSD>
0.503118932

$$$$
