
 OpenBabel03252500583D

 41 44  0  0  0  0  0  0  0  0999 V2000
   41.8310   35.3630   41.9550 O   0  0  0  0  0  0  0  0  0  0  0  0
   40.7550   34.7550   41.3350 C   0  0  0  0  0  0  0  0  0  0  0  0
   39.9710   35.5190   40.4890 C   0  0  0  0  0  0  0  0  0  0  0  0
   38.8730   34.9980   39.8240 C   0  0  0  0  0  0  0  0  0  0  0  0
   38.5730   33.6920   40.0240 N   0  0  0  0  0  0  0  0  0  0  0  0
   39.3300   32.9470   40.8420 C   0  0  0  0  0  0  0  0  0  0  0  0
   40.3770   33.4770   41.4650 N   0  0  0  0  0  0  0  0  0  0  0  0
   40.1770   36.5650   40.3050 H   0  0  0  0  0  0  0  0  0  0  0  0
   38.2690   35.6020   39.1670 H   0  0  0  0  0  0  0  0  0  0  0  0
   38.9840   31.5440   41.0370 C   0  0  0  0  0  0  0  0  0  0  0  0
   37.6640   31.1330   41.0870 C   0  0  0  0  0  0  0  0  0  0  0  0
   36.8530   31.8390   40.9830 H   0  0  0  0  0  0  0  0  0  0  0  0
   37.2880   29.7990   41.2710 C   0  0  0  0  0  3  0  0  0  0  0  0
   38.3030   28.8750   41.4070 C   0  0  0  0  0  0  0  0  0  0  0  0
   38.0560   27.5440   41.5910 N   0  0  0  0  0  0  0  0  0  0  0  0
   39.1090   26.6840   41.7180 C   0  0  0  0  0  0  0  0  0  0  0  0
   38.7900   25.6440   41.8620 H   0  0  0  0  0  0  0  0  0  0  0  0
   40.4370   27.0530   41.6730 C   0  0  0  0  0  3  0  0  0  0  0  0
   40.7210   28.4100   41.4850 C   0  0  0  0  0  3  0  0  0  0  0  0
   39.6310   29.2470   41.3620 C   0  0  0  0  0  0  0  0  0  0  0  0
   39.9700   30.5870   41.1760 C   0  0  0  0  0  3  0  0  0  0  0  0
   43.8130   34.9430   40.2610 O   0  0  0  0  0  0  0  0  0  0  0  0
   43.3740   34.7310   41.6980 P   0  0  2  0  0  0  0  0  0  0  0  0
   43.3000   33.0680   41.9890 O   0  0  0  0  0  0  0  0  0  0  0  0
   42.8380   32.9580   42.8680 H   0  0  0  0  0  0  0  0  0  0  0  0
   44.5350   35.3880   42.7530 O   0  0  0  0  0  0  0  0  0  0  0  0
   46.5960   34.3080   43.0930 C   0  0  0  0  0  0  0  0  0  0  0  0
   45.3760   34.6770   43.6020 C   0  0  0  0  0  0  0  0  0  0  0  0
   45.0740   34.3120   44.9260 C   0  0  0  0  0  0  0  0  0  0  0  0
   46.0110   33.6210   45.6080 N   0  0  0  0  0  0  0  0  0  0  0  0
   47.1920   33.2750   45.0890 C   0  0  0  0  0  0  0  0  0  0  0  0
   47.4780   33.6200   43.8340 N   0  0  0  0  0  0  0  0  0  0  0  0
   44.1150   34.6200   45.2780 H   0  0  0  0  0  0  0  0  0  0  0  0
   47.9210   32.7160   45.6730 H   0  0  0  0  0  0  0  0  0  0  0  0
   46.9760   34.6570   41.7150 C   0  0  0  0  0  0  0  0  0  0  0  0
   46.2540   35.3090   41.2080 H   0  0  0  0  0  0  0  0  0  0  0  0
   47.0620   33.7070   41.1420 H   0  0  0  0  0  0  0  0  0  0  0  0
   48.3120   35.3390   41.7350 C   0  0  0  0  0  0  0  0  0  0  0  0
   48.2920   36.2770   41.1510 H   0  0  0  0  0  0  0  0  0  0  0  0
   49.1250   34.7100   41.2770 H   0  0  0  0  0  0  0  0  0  0  0  0
   48.5990   35.6110   42.7830 H   0  0  0  0  0  0  0  0  0  0  0  0
  2  7  1  0  0  0  0
  2  1  1  0  0  0  0
  3  2  2  0  0  0  0
  4  5  2  0  0  0  0
  4  3  1  0  0  0  0
  5  6  1  0  0  0  0
  6 10  1  0  0  0  0
  6  7  2  0  0  0  0
  8  3  1  0  0  0  0
  9  4  1  0  0  0  0
 10 11  2  0  0  0  0
 10 21  1  0  0  0  0
 11 13  1  0  0  0  0
 12 11  1  0  0  0  0
 13 14  2  0  0  0  0
 14 15  1  0  0  0  0
 15 16  2  0  0  0  0
 16 17  1  0  0  0  0
 18 16  1  0  0  0  0
 19 18  2  0  0  0  0
 20 14  1  0  0  0  0
 20 19  1  0  0  0  0
 21 20  2  0  0  0  0
 23 22  2  6  0  0  0
 23  1  1  0  0  0  0
 23 24  1  0  0  0  0
 23 26  1  0  0  0  0
 24 25  1  0  0  0  0
 26 28  1  0  0  0  0
 27 28  2  0  0  0  0
 27 32  1  0  0  0  0
 28 29  1  0  0  0  0
 29 33  1  0  0  0  0
 29 30  2  0  0  0  0
 31 30  1  0  0  0  0
 31 34  1  0  0  0  0
 32 31  2  0  0  0  0
 35 38  1  0  0  0  0
 35 27  1  0  0  0  0
 36 35  1  0  0  0  0
 37 35  1  0  0  0  0
 38 41  1  0  0  0  0
 39 38  1  0  0  0  0
 40 38  1  0  0  0  0
M  END
>  <minimizedAffinity>
-6.02875137

>  <minimizedRMSD>
0.892178535

$$$$
