
 OpenBabel03242518083D

 38 41  0  0  1  0  0  0  0  0999 V2000
   46.5390   34.8410   42.1200 N   0  0  0  0  0  0  0  0  0  0  0  0
   47.9190   35.2360   42.0060 C   0  0  0  0  0  0  0  0  0  0  0  0
   48.6980   34.2090   41.3000 C   0  0  0  0  0  0  0  0  0  0  0  0
   47.9540   33.2710   40.4380 C   0  0  0  0  0  0  0  0  0  0  0  0
   46.6060   33.6730   39.9960 C   0  0  0  0  0  0  0  0  0  0  0  0
   45.7880   34.5020   40.9510 C   0  0  1  0  0  0  0  0  0  0  0  0
   48.3480   35.4750   43.0020 H   0  0  0  0  0  0  0  0  0  0  0  0
   47.9530   36.2110   41.4430 H   0  0  0  0  0  0  0  0  0  0  0  0
   49.4870   34.7290   40.6860 H   0  0  0  0  0  0  0  0  0  0  0  0
   49.2960   33.6330   42.0650 H   0  0  0  0  0  0  0  0  0  0  0  0
   47.8490   32.2890   40.9750 H   0  0  0  0  0  0  0  0  0  0  0  0
   48.5530   33.0320   39.5320 H   0  0  0  0  0  0  0  0  0  0  0  0
   46.7370   34.2930   39.0600 H   0  0  0  0  0  0  0  0  0  0  0  0
   46.0710   32.7700   39.6420 H   0  0  0  0  0  0  0  0  0  0  0  0
   45.4620   35.4710   40.4870 H   0  0  0  0  0  0  0  0  0  0  0  0
   44.5510   33.7260   41.2120 C   0  0  0  0  0  0  0  0  0  0  0  0
   44.6070   32.3900   41.6310 C   0  0  0  0  0  0  0  0  0  0  0  0
   45.6090   31.9400   41.7370 H   0  0  0  0  0  0  0  0  0  0  0  0
   43.5380   31.5710   41.9270 C   0  0  0  0  0  0  0  0  0  0  0  0
   42.2830   32.1250   41.7970 C   0  0  0  0  0  0  0  0  0  0  0  0
   41.1910   31.4100   42.0610 N   0  0  0  0  0  0  0  0  0  0  0  0
   39.9370   31.9000   41.9510 C   0  0  0  0  0  0  0  0  0  0  0  0
   39.1030   31.2560   42.1830 H   0  0  0  0  0  0  0  0  0  0  0  0
   39.7320   33.2210   41.5430 C   0  0  0  0  0  0  0  0  0  0  0  0
   40.8780   33.9550   41.2710 C   0  0  0  0  0  0  0  0  0  0  0  0
   42.1450   33.4270   41.3920 C   0  0  0  0  0  0  0  0  0  0  0  0
   43.2570   34.1810   41.1150 C   0  0  0  0  0  0  0  0  0  0  0  0
   45.0920   35.8740   43.7880 C   0  0  0  0  0  0  0  0  0  0  0  0
   45.9400   34.8070   43.3980 C   0  0  0  0  0  0  0  0  0  0  0  0
   46.1220   33.7750   44.3190 C   0  0  0  0  0  0  0  0  0  0  0  0
   45.4970   33.8410   45.5090 N   0  0  0  0  0  0  0  0  0  0  0  0
   44.6950   34.8760   45.8460 C   0  0  0  0  0  0  0  0  0  0  0  0
   44.4890   35.9010   44.9810 N   0  0  0  0  0  0  0  0  0  0  0  0
   44.8810   36.9530   42.8770 N   0  0  0  0  0  0  0  0  0  0  0  0
   46.7530   32.9590   44.0570 H   0  0  0  0  0  0  0  0  0  0  0  0
   44.1760   34.9630   46.7950 H   0  0  0  0  0  0  0  0  0  0  0  0
   45.7180   37.4540   42.4600 H   0  0  0  0  0  0  0  0  0  0  0  0
   44.0370   37.3970   42.4970 H   0  0  0  0  0  0  0  0  0  0  0  0
  1 29  1  0  0  0  0
  2  1  1  0  0  0  0
  2  7  1  0  0  0  0
  3  2  1  0  0  0  0
  3 10  1  0  0  0  0
  4 11  1  0  0  0  0
  4  3  1  0  0  0  0
  5  4  1  0  0  0  0
  5  6  1  0  0  0  0
  6 15  1  6  0  0  0
  6 16  1  0  0  0  0
  6  1  1  0  0  0  0
  8  2  1  0  0  0  0
  9  3  1  0  0  0  0
 12  4  1  0  0  0  0
 13  5  1  0  0  0  0
 14  5  1  0  0  0  0
 16 17  1  0  0  0  0
 17 18  1  0  0  0  0
 17 19  2  0  0  0  0
 20 19  1  0  0  0  0
 20 21  1  0  0  0  0
 22 21  2  0  0  0  0
 22 23  1  0  0  0  0
 24 22  1  0  0  0  0
 25 26  1  0  0  0  0
 25 24  2  0  0  0  0
 26 20  2  0  0  0  0
 27 16  2  0  0  0  0
 27 26  1  0  0  0  0
 28 33  1  0  0  0  0
 29 28  2  0  0  0  0
 29 30  1  0  0  0  0
 30 31  2  0  0  0  0
 31 32  1  0  0  0  0
 32 36  1  0  0  0  0
 33 32  2  0  0  0  0
 34 28  1  0  0  0  0
 35 30  1  0  0  0  0
 37 34  1  0  0  0  0
 38 34  1  0  0  0  0
M  END
>  <minimizedAffinity>
-6.26027775

>  <minimizedRMSD>
1.16292739

$$$$
