
 OpenBabel03242521553D

 51 56  0  0  0  0  0  0  0  0999 V2000
   45.8360   32.6860   45.4040 C   0  0  0  0  0  0  0  0  0  0  0  0
   45.5480   33.3520   46.5920 C   0  0  0  0  0  0  0  0  0  0  0  0
   45.5040   32.7090   47.8350 C   0  0  0  0  0  0  0  0  0  0  0  0
   45.7510   31.3680   47.9330 C   0  0  0  0  0  0  0  0  0  0  0  0
   46.0390   30.6640   46.7420 C   0  0  0  0  0  0  0  0  0  0  0  0
   46.2210   29.3270   46.8740 C   0  0  0  0  0  0  0  0  0  0  0  0
   46.4310   28.5910   45.7040 C   0  0  0  0  0  0  0  0  0  0  0  0
   46.4340   29.2870   44.4450 C   0  0  0  0  0  0  0  0  0  0  0  0
   46.2320   30.6480   44.4820 C   0  0  0  0  0  0  0  0  0  0  0  0
   46.0490   31.4000   45.5540 C   0  0  0  0  0  0  0  0  0  0  0  0
   45.3480   34.4350   46.5240 H   0  0  0  0  0  0  0  0  0  0  0  0
   45.2680   33.3260   48.6990 H   0  0  0  0  0  0  0  0  0  0  0  0
   45.7200   30.8930   48.8930 H   0  0  0  0  0  0  0  0  0  0  0  0
   46.2040   28.8540   47.8460 H   0  0  0  0  0  0  0  0  0  0  0  0
   46.5740   27.5380   45.8850 H   0  0  0  0  0  0  0  0  0  0  0  0
   46.6130   28.4840   43.7440 H   0  0  0  0  0  0  0  0  0  0  0  0
   44.5540   30.3580   42.8870 C   0  0  0  0  0  0  0  0  0  0  0  0
   45.9510   30.7090   43.0650 C   0  0  0  0  0  0  0  0  0  0  0  0
   46.5540   30.8350   41.8840 C   0  0  0  0  0  0  0  0  0  0  0  0
   45.9640   30.6580   40.6500 C   0  0  0  0  0  0  0  0  0  0  0  0
   44.6400   30.3200   40.5080 C   0  0  0  0  0  0  0  0  0  0  0  0
   43.9370   30.1730   41.6670 C   0  0  0  0  0  0  0  0  0  0  0  0
   47.5970   31.1050   42.1140 H   0  0  0  0  0  0  0  0  0  0  0  0
   46.6400   30.8080   39.8210 H   0  0  0  0  0  0  0  0  0  0  0  0
   44.2400   30.1940   39.5120 H   0  0  0  0  0  0  0  0  0  0  0  0
   43.6010   30.1490   43.9210 O   0  0  0  0  0  0  0  0  0  0  0  0
   42.8660   30.8580   43.9710 H   0  0  0  0  0  0  0  0  0  0  0  0
   42.6120   29.8320   41.4620 O   0  0  0  0  0  0  0  0  0  0  0  0
   41.6350   30.7220   41.1290 C   0  0  0  0  0  0  0  0  0  0  0  0
   40.9640   31.3270   42.1930 C   0  0  0  0  0  0  0  0  0  0  0  0
   41.1930   31.1120   43.2310 H   0  0  0  0  0  0  0  0  0  0  0  0
   39.9570   32.2430   41.9900 C   0  0  0  0  0  0  0  0  0  0  0  0
   39.5760   32.5980   40.7050 C   0  0  0  0  0  0  0  0  0  0  0  0
   38.6090   33.4780   40.4920 N   0  0  0  0  0  0  0  0  0  0  0  0
   38.2300   33.8300   39.2540 C   0  0  0  0  0  0  0  0  0  0  0  0
   37.4410   34.5480   39.1020 H   0  0  0  0  0  0  0  0  0  0  0  0
   38.8700   33.2550   38.1720 C   0  0  0  0  0  0  0  0  0  0  0  0
   39.8810   32.3330   38.3600 C   0  0  0  0  0  0  0  0  0  0  0  0
   40.2350   32.0050   39.6490 C   0  0  0  0  0  0  0  0  0  0  0  0
   41.2380   31.0920   39.8600 C   0  0  0  0  0  0  0  0  0  0  0  0
   45.8800   34.6530   42.2330 C   0  0  0  0  0  0  0  0  0  0  0  0
   47.2670   34.9130   42.1290 C   0  0  0  0  0  0  0  0  0  0  0  0
   48.0620   34.3810   43.1190 C   0  0  0  0  0  0  0  0  0  0  0  0
   47.4190   33.6890   44.0540 N   0  0  0  0  0  0  0  0  0  0  0  0
   46.1240   33.4270   44.1870 C   0  0  0  0  0  0  0  0  0  0  0  0
   45.3830   33.9310   43.2430 N   0  0  0  0  0  0  0  0  0  0  0  0
   45.2300   35.0550   41.4730 H   0  0  0  0  0  0  0  0  0  0  0  0
   47.6860   35.4930   41.3270 H   0  0  0  0  0  0  0  0  0  0  0  0
   49.4740   34.5090   43.1050 N   0  0  0  0  0  0  0  0  0  0  0  0
   50.0480   34.9680   43.8490 H   0  0  0  0  0  0  0  0  0  0  0  0
   50.1330   34.1720   42.3690 H   0  0  0  0  0  0  0  0  0  0  0  0
  1 10  2  0  0  0  0
  1  2  1  0  0  0  0
  2  3  2  0  0  0  0
  3  4  1  0  0  0  0
  3 12  1  0  0  0  0
  4 13  1  0  0  0  0
  5  6  1  0  0  0  0
  5  4  2  0  0  0  0
  6 14  1  0  0  0  0
  7 15  1  0  0  0  0
  7  6  2  0  0  0  0
  8  9  2  0  0  0  0
  8  7  1  0  0  0  0
  9 10  1  0  0  0  0
 10  5  1  0  0  0  0
 11  2  1  0  0  0  0
 16  8  1  0  0  0  0
 17 18  1  0  0  0  0
 17 26  1  0  0  0  0
 18  9  1  0  0  0  0
 19 23  1  0  0  0  0
 19 18  2  0  0  0  0
 20 19  1  0  0  0  0
 21 20  2  0  0  0  0
 21 22  1  0  0  0  0
 22 17  2  0  0  0  0
 24 20  1  0  0  0  0
 25 21  1  0  0  0  0
 26 27  1  0  0  0  0
 28 22  1  0  0  0  0
 29 28  1  0  0  0  0
 29 30  1  0  0  0  0
 30 31  1  0  0  0  0
 32 30  2  0  0  0  0
 33 32  1  0  0  0  0
 34 33  1  0  0  0  0
 35 34  2  0  0  0  0
 36 35  1  0  0  0  0
 37 38  2  0  0  0  0
 37 35  1  0  0  0  0
 38 39  1  0  0  0  0
 39 40  1  0  0  0  0
 39 33  2  0  0  0  0
 40 29  2  0  0  0  0
 41 46  1  0  0  0  0
 42 41  2  0  0  0  0
 42 43  1  0  0  0  0
 43 44  2  0  0  0  0
 44 45  1  0  0  0  0
 45  1  1  0  0  0  0
 46 45  2  0  0  0  0
 47 41  1  0  0  0  0
 48 42  1  0  0  0  0
 49 43  1  0  0  0  0
 49 50  1  0  0  0  0
 51 49  1  0  0  0  0
M  END
>  <minimizedAffinity>
-6.60739946

>  <minimizedRMSD>
3.02523351

$$$$
