
 OpenBabel03242518463D

 48 52  0  0  1  0  0  0  0  0999 V2000
   47.3710   32.9920   44.5130 C   0  0  2  0  0  0  0  0  0  0  0  0
   47.3700   33.4220   43.0900 C   0  0  1  0  0  0  0  0  0  0  0  0
   47.3950   32.2370   42.1230 C   0  0  0  0  0  0  0  0  0  0  0  0
   48.5080   31.4950   42.5260 O   0  0  0  0  0  0  0  0  0  0  0  0
   48.2750   30.8280   43.7100 C   0  0  0  0  0  0  0  0  0  0  0  0
   47.2260   31.4590   44.5730 C   0  0  1  0  0  0  0  0  0  0  0  0
   48.3430   33.2180   44.9710 H   0  0  0  0  0  0  0  0  0  0  0  0
   48.3010   34.0210   42.8750 H   0  0  0  0  0  0  0  0  0  0  0  0
   47.6370   32.6080   41.1080 H   0  0  0  0  0  0  0  0  0  0  0  0
   46.4530   31.6720   42.1570 H   0  0  0  0  0  0  0  0  0  0  0  0
   49.2130   30.7740   44.3300 H   0  0  0  0  0  0  0  0  0  0  0  0
   47.9460   29.7760   43.5210 H   0  0  0  0  0  0  0  0  0  0  0  0
   46.1850   31.2940   44.2190 H   0  0  0  0  0  0  0  0  0  0  0  0
   45.0150   36.2150   42.8340 C   0  0  0  0  0  0  0  0  0  0  0  0
   44.0240   35.7540   41.9170 C   0  0  0  0  0  0  0  0  0  0  0  0
   44.2270   34.4440   41.4090 C   0  0  0  0  0  0  0  0  0  0  0  0
   45.3060   33.7350   41.8080 N   0  0  0  0  0  0  0  0  0  0  0  0
   46.2080   34.2350   42.6820 C   0  0  0  0  0  0  0  0  0  0  0  0
   46.0600   35.4740   43.1920 N   0  0  0  0  0  0  0  0  0  0  0  0
   43.1800   36.3230   41.6120 H   0  0  0  0  0  0  0  0  0  0  0  0
   43.5210   34.0190   40.7080 H   0  0  0  0  0  0  0  0  0  0  0  0
   44.8400   37.4710   43.3380 O   0  0  0  0  0  0  0  0  0  0  0  0
   45.5920   38.1600   43.3970 H   0  0  0  0  0  0  0  0  0  0  0  0
   46.3440   33.5510   45.2730 O   0  0  0  0  0  0  0  0  0  0  0  0
   46.7250   34.1590   45.9690 H   0  0  0  0  0  0  0  0  0  0  0  0
   47.3210   31.1050   45.9000 O   0  0  0  0  0  0  0  0  0  0  0  0
   46.6480   28.5430   45.3650 F   0  0  0  0  0  0  0  0  0  0  0  0
   46.2370   29.2420   46.4440 C   0  0  0  0  0  0  0  0  0  0  0  0
   46.5310   30.5430   46.7970 C   0  0  0  0  0  0  0  0  0  0  0  0
   45.9550   30.9750   47.9810 C   0  0  0  0  0  0  0  0  0  0  0  0
   45.1420   30.2360   48.8060 C   0  0  0  0  0  0  0  0  0  0  0  0
   44.8850   28.9590   48.4090 C   0  0  0  0  0  0  0  0  0  0  0  0
   45.4120   28.4330   47.2440 C   0  0  0  0  0  0  0  0  0  0  0  0
   46.2360   32.0230   48.1940 H   0  0  0  0  0  0  0  0  0  0  0  0
   44.7590   30.6810   49.6920 H   0  0  0  0  0  0  0  0  0  0  0  0
   44.2360   28.3670   49.0690 H   0  0  0  0  0  0  0  0  0  0  0  0
   45.0390   27.0480   46.9660 C   0  0  0  0  0  0  0  0  0  0  0  0
   45.9180   26.0600   47.4240 C   0  0  0  0  0  0  0  0  0  0  0  0
   46.8270   26.3580   47.9580 H   0  0  0  0  0  0  0  0  0  0  0  0
   45.7280   24.7010   47.2530 C   0  0  0  0  0  3  0  0  0  0  0  0
   44.5900   24.3040   46.5840 C   0  0  0  0  0  0  0  0  0  0  0  0
   44.3680   22.9910   46.3970 N   0  0  0  0  0  0  0  0  0  0  0  0
   43.2910   22.5110   45.7590 C   0  0  0  0  0  0  0  0  0  0  0  0
   43.1350   21.4500   45.6220 H   0  0  0  0  0  0  0  0  0  0  0  0
   42.3990   23.4690   45.2930 C   0  0  0  0  0  3  0  0  0  0  0  0
   42.5710   24.8280   45.4540 C   0  0  0  0  0  3  0  0  0  0  0  0
   43.7000   25.2560   46.1200 C   0  0  0  0  0  0  0  0  0  0  0  0
   43.9260   26.5960   46.3100 C   0  0  0  0  0  3  0  0  0  0  0  0
  1  6  1  0  0  0  0
  1  7  1  1  0  0  0
  1 24  1  0  0  0  0
  2  8  1  6  0  0  0
  2  1  1  0  0  0  0
  3 10  1  0  0  0  0
  3  4  1  0  0  0  0
  3  2  1  0  0  0  0
  4  5  1  0  0  0  0
  5 11  1  0  0  0  0
  5  6  1  0  0  0  0
  6 13  1  6  0  0  0
  6 26  1  0  0  0  0
  9  3  1  0  0  0  0
 12  5  1  0  0  0  0
 14 19  1  0  0  0  0
 14 22  1  0  0  0  0
 15 14  2  0  0  0  0
 16 17  2  0  0  0  0
 16 15  1  0  0  0  0
 17 18  1  0  0  0  0
 18  2  1  0  0  0  0
 18 19  2  0  0  0  0
 20 15  1  0  0  0  0
 21 16  1  0  0  0  0
 22 23  1  0  0  0  0
 24 25  1  0  0  0  0
 26 29  1  0  0  0  0
 27 28  1  0  0  0  0
 28 29  2  0  0  0  0
 28 33  1  0  0  0  0
 29 30  1  0  0  0  0
 30 34  1  0  0  0  0
 30 31  2  0  0  0  0
 31 35  1  0  0  0  0
 32 31  1  0  0  0  0
 32 36  1  0  0  0  0
 33 32  2  0  0  0  0
 37 33  1  0  0  0  0
 37 38  1  0  0  0  0
 38 39  1  0  0  0  0
 40 38  2  0  0  0  0
 41 40  1  0  0  0  0
 42 41  1  0  0  0  0
 43 42  2  0  0  0  0
 44 43  1  0  0  0  0
 45 46  2  0  0  0  0
 45 43  1  0  0  0  0
 46 47  1  0  0  0  0
 47 48  1  0  0  0  0
 47 41  2  0  0  0  0
 48 37  2  0  0  0  0
M  END
>  <minimizedAffinity>
-5.64609051

>  <minimizedRMSD>
2.04302716

$$$$
