
 OpenBabel03252509243D

 30 33  0  0  1  0  0  0  0  0999 V2000
   46.7880   34.8280   41.9220 C   0  0  1  0  0  0  0  0  0  0  0  0
   48.2560   35.3290   41.9740 C   0  0  0  0  0  0  0  0  0  0  0  0
   47.7880   33.9270   41.4770 C   0  0  2  0  0  0  0  0  0  0  0  0
   46.1470   35.4560   41.2690 H   0  0  0  0  0  0  0  0  0  0  0  0
   48.6090   35.9740   41.1600 H   0  0  0  0  0  0  0  0  0  0  0  0
   48.7750   35.3760   42.9250 H   0  0  0  0  0  0  0  0  0  0  0  0
   48.1020   33.1060   42.1680 H   0  0  0  0  0  0  0  0  0  0  0  0
   47.9980   33.6330   40.0220 C   0  0  0  0  0  0  0  0  0  0  0  0
   48.2710   34.7430   39.2260 C   0  0  0  0  0  0  0  0  0  0  0  0
   48.3280   35.7440   39.6300 H   0  0  0  0  0  0  0  0  0  0  0  0
   48.4790   34.5640   37.8660 C   0  0  0  0  0  3  0  0  0  0  0  0
   48.4130   33.2950   37.3240 C   0  0  0  0  0  0  0  0  0  0  0  0
   48.6090   33.0730   35.9960 N   0  0  0  0  0  0  0  0  0  0  0  0
   48.5400   31.8290   35.4880 C   0  0  0  0  0  0  0  0  0  0  0  0
   48.7020   31.6800   34.4260 H   0  0  0  0  0  0  0  0  0  0  0  0
   48.2720   30.7120   36.2510 C   0  0  0  0  0  3  0  0  0  0  0  0
   48.0760   30.9760   37.6030 C   0  0  0  0  0  3  0  0  0  0  0  0
   48.1370   32.2400   38.1740 C   0  0  0  0  0  0  0  0  0  0  0  0
   47.9200   32.3520   39.5320 C   0  0  0  0  0  3  0  0  0  0  0  0
   44.7230   35.2910   45.0220 C   0  0  0  0  0  0  0  0  0  0  0  0
   45.2420   35.5400   43.7090 C   0  0  0  0  0  0  0  0  0  0  0  0
   46.2360   34.6790   43.3210 C   0  0  0  0  0  0  0  0  0  0  0  0
   46.6960   33.6570   44.1440 N   0  0  0  0  0  0  0  0  0  0  0  0
   46.1690   33.4810   45.3570 C   0  0  0  0  0  0  0  0  0  0  0  0
   45.1790   34.2990   45.8010 N   0  0  0  0  0  0  0  0  0  0  0  0
   43.9360   35.9440   45.3720 H   0  0  0  0  0  0  0  0  0  0  0  0
   46.6300   32.6500   45.8720 H   0  0  0  0  0  0  0  0  0  0  0  0
   44.7810   36.6080   42.8860 N   0  0  0  0  0  0  0  0  0  0  0  0
   44.4140   36.4910   41.9040 H   0  0  0  0  0  0  0  0  0  0  0  0
   44.8800   37.5010   43.4390 H   0  0  0  0  0  0  0  0  0  0  0  0
  1  4  1  6  0  0  0
  1  2  1  0  0  0  0
  1 22  1  0  0  0  0
  2  6  1  0  0  0  0
  3  1  1  0  0  0  0
  3  2  1  0  0  0  0
  3  7  1  1  0  0  0
  5  2  1  0  0  0  0
  8  3  1  0  0  0  0
  9 10  1  0  0  0  0
  9  8  2  0  0  0  0
 11  9  1  0  0  0  0
 12 11  2  0  0  0  0
 12 18  1  0  0  0  0
 13 12  1  0  0  0  0
 14 13  2  0  0  0  0
 14 16  1  0  0  0  0
 15 14  1  0  0  0  0
 16 17  2  0  0  0  0
 17 18  1  0  0  0  0
 18 19  2  0  0  0  0
 19  8  1  0  0  0  0
 20 26  1  0  0  0  0
 20 25  1  0  0  0  0
 21 20  2  0  0  0  0
 22 21  1  0  0  0  0
 22 23  2  0  0  0  0
 23 24  1  0  0  0  0
 24 25  2  0  0  0  0
 24 27  1  0  0  0  0
 28 30  1  0  0  0  0
 28 21  1  0  0  0  0
 29 28  1  0  0  0  0
M  END
>  <minimizedAffinity>
-5.67362738

>  <minimizedRMSD>
0.527050734

$$$$
