
 OpenBabel03242523313D

 25 27  0  0  0  0  0  0  0  0999 V2000
   37.9350   33.1430   39.9310 S   0  0  0  0  0  0  0  0  0  0  0  0
   37.5420   31.5550   40.6540 C   0  0  0  0  0  0  0  0  0  0  0  0
   36.3210   30.9800   40.3460 C   0  0  0  0  0  0  0  0  0  0  0  0
   35.6460   31.5060   39.6810 H   0  0  0  0  0  0  0  0  0  0  0  0
   36.0400   29.7610   40.9110 C   0  0  0  0  0  3  0  0  0  0  0  0
   36.9230   29.1010   41.7630 C   0  0  0  0  0  0  0  0  0  0  0  0
   36.5860   27.9070   42.2850 N   0  0  0  0  0  0  0  0  0  0  0  0
   37.4330   27.2540   43.1140 C   0  0  0  0  0  0  0  0  0  0  0  0
   37.1350   26.2950   43.5190 H   0  0  0  0  0  0  0  0  0  0  0  0
   38.6390   27.8180   43.4230 C   0  0  0  0  0  3  0  0  0  0  0  0
   38.9760   29.0420   42.8830 C   0  0  0  0  0  3  0  0  0  0  0  0
   38.1230   29.7400   42.0240 C   0  0  0  0  0  0  0  0  0  0  0  0
   38.4680   30.9640   41.4900 C   0  0  0  0  0  3  0  0  0  0  0  0
   39.5640   33.6910   40.5150 C   0  0  0  0  0  0  0  0  0  0  0  0
   39.9560   33.0380   41.3190 H   0  0  0  0  0  0  0  0  0  0  0  0
   39.5340   34.7130   40.9470 H   0  0  0  0  0  0  0  0  0  0  0  0
   42.4190   34.2050   38.1820 C   0  0  0  0  0  0  0  0  0  0  0  0
   42.1680   33.2030   37.2360 C   0  0  0  0  0  0  0  0  0  0  0  0
   41.0420   32.3760   37.4050 C   0  0  0  0  0  0  0  0  0  0  0  0
   40.2250   32.5690   38.4820 N   0  0  0  0  0  0  0  0  0  0  0  0
   40.5070   33.5600   39.3840 C   0  0  0  0  0  0  0  0  0  0  0  0
   41.5850   34.3480   39.2160 N   0  0  0  0  0  0  0  0  0  0  0  0
   43.2790   34.8170   38.0310 H   0  0  0  0  0  0  0  0  0  0  0  0
   42.8030   33.0260   36.3680 H   0  0  0  0  0  0  0  0  0  0  0  0
   40.7730   31.5810   36.7250 H   0  0  0  0  0  0  0  0  0  0  0  0
  1 14  1  0  0  0  0
  1  2  1  0  0  0  0
  2 13  1  0  0  0  0
  3  2  2  0  0  0  0
  3  5  1  0  0  0  0
  4  3  1  0  0  0  0
  5  6  2  0  0  0  0
  6 12  1  0  0  0  0
  6  7  1  0  0  0  0
  7  8  2  0  0  0  0
  8 10  1  0  0  0  0
  8  9  1  0  0  0  0
 11 10  2  0  0  0  0
 12 11  1  0  0  0  0
 13 12  2  0  0  0  0
 14 16  1  0  0  0  0
 14 15  1  0  0  0  0
 17 22  1  0  0  0  0
 18 19  1  0  0  0  0
 18 17  2  0  0  0  0
 19 20  2  0  0  0  0
 20 21  1  0  0  0  0
 21 14  1  0  0  0  0
 22 21  2  0  0  0  0
 23 17  1  0  0  0  0
 24 18  1  0  0  0  0
 25 19  1  0  0  0  0
M  END
>  <minimizedAffinity>
-5.11545706

$$$$

 OpenBabel03242523313D

 25 27  0  0  0  0  0  0  0  0999 V2000
   36.1980   30.5330   41.0590 S   0  0  0  0  0  0  0  0  0  0  0  0
   37.1340   29.1470   41.6940 C   0  0  0  0  0  0  0  0  0  0  0  0
   38.2400   29.4110   42.4830 C   0  0  0  0  0  0  0  0  0  0  0  0
   38.5030   30.4410   42.6910 H   0  0  0  0  0  0  0  0  0  0  0  0
   38.9440   28.3330   42.9600 C   0  0  0  0  0  3  0  0  0  0  0  0
   38.5880   27.0150   42.6820 C   0  0  0  0  0  0  0  0  0  0  0  0
   39.3210   26.0020   43.1800 N   0  0  0  0  0  0  0  0  0  0  0  0
   38.9880   24.7170   42.9180 C   0  0  0  0  0  0  0  0  0  0  0  0
   39.5960   23.9230   43.3320 H   0  0  0  0  0  0  0  0  0  0  0  0
   37.8980   24.4510   42.1380 C   0  0  0  0  0  3  0  0  0  0  0  0
   37.1520   25.4950   41.6320 C   0  0  0  0  0  3  0  0  0  0  0  0
   37.4710   26.8320   41.8850 C   0  0  0  0  0  0  0  0  0  0  0  0
   36.7190   27.8690   41.3740 C   0  0  0  0  0  3  0  0  0  0  0  0
   36.8820   31.0460   39.4590 C   0  0  0  0  0  0  0  0  0  0  0  0
   36.1110   31.4960   38.8040 H   0  0  0  0  0  0  0  0  0  0  0  0
   37.2990   30.1920   38.8850 H   0  0  0  0  0  0  0  0  0  0  0  0
   38.4630   34.3490   40.1340 C   0  0  0  0  0  0  0  0  0  0  0  0
   39.8140   33.9840   40.1970 C   0  0  0  0  0  0  0  0  0  0  0  0
   40.1630   32.6340   40.0120 C   0  0  0  0  0  0  0  0  0  0  0  0
   39.1800   31.7150   39.7750 N   0  0  0  0  0  0  0  0  0  0  0  0
   37.8710   32.1140   39.7210 C   0  0  0  0  0  0  0  0  0  0  0  0
   37.5450   33.4070   39.8990 N   0  0  0  0  0  0  0  0  0  0  0  0
   38.2250   35.3780   40.2790 H   0  0  0  0  0  0  0  0  0  0  0  0
   40.6180   34.6950   40.3860 H   0  0  0  0  0  0  0  0  0  0  0  0
   41.1770   32.2650   40.0430 H   0  0  0  0  0  0  0  0  0  0  0  0
  1  2  1  0  0  0  0
  2  3  1  0  0  0  0
  3  4  1  0  0  0  0
  3  5  2  0  0  0  0
  6  5  1  0  0  0  0
  6  7  1  0  0  0  0
  8  7  2  0  0  0  0
  8  9  1  0  0  0  0
 10  8  1  0  0  0  0
 11 12  1  0  0  0  0
 11 10  2  0  0  0  0
 12  6  2  0  0  0  0
 13  2  2  0  0  0  0
 13 12  1  0  0  0  0
 14 21  1  0  0  0  0
 14  1  1  0  0  0  0
 15 14  1  0  0  0  0
 16 14  1  0  0  0  0
 17 18  1  0  0  0  0
 17 23  1  0  0  0  0
 18 24  1  0  0  0  0
 19 25  1  0  0  0  0
 19 18  2  0  0  0  0
 20 19  1  0  0  0  0
 21 20  2  0  0  0  0
 21 22  1  0  0  0  0
 22 17  2  0  0  0  0
M  END
>  <minimizedAffinity>
-5.08550692

$$$$

 OpenBabel03242523313D

 25 27  0  0  0  0  0  0  0  0999 V2000
   36.2060   30.6120   41.0490 S   0  0  0  0  0  0  0  0  0  0  0  0
   36.9340   29.0700   41.5910 C   0  0  0  0  0  0  0  0  0  0  0  0
   37.7980   29.0990   42.6720 C   0  0  0  0  0  0  0  0  0  0  0  0
   38.0060   30.0470   43.1530 H   0  0  0  0  0  0  0  0  0  0  0  0
   38.3450   27.9040   43.0710 C   0  0  0  0  0  3  0  0  0  0  0  0
   38.0640   26.6950   42.4390 C   0  0  0  0  0  0  0  0  0  0  0  0
   38.6330   25.5590   42.8790 N   0  0  0  0  0  0  0  0  0  0  0  0
   38.3700   24.3770   42.2750 C   0  0  0  0  0  0  0  0  0  0  0  0
   38.8430   23.4780   42.6510 H   0  0  0  0  0  0  0  0  0  0  0  0
   37.5190   24.3440   41.2070 C   0  0  0  0  0  3  0  0  0  0  0  0
   36.9390   25.5140   40.7610 C   0  0  0  0  0  3  0  0  0  0  0  0
   37.1910   26.7490   41.3650 C   0  0  0  0  0  0  0  0  0  0  0  0
   36.6070   27.9130   40.9130 C   0  0  0  0  0  3  0  0  0  0  0  0
   36.8810   31.0660   39.4270 C   0  0  0  0  0  0  0  0  0  0  0  0
   36.1240   31.5600   38.7870 H   0  0  0  0  0  0  0  0  0  0  0  0
   37.2260   30.1810   38.8520 H   0  0  0  0  0  0  0  0  0  0  0  0
   40.1940   32.7030   39.8770 C   0  0  0  0  0  0  0  0  0  0  0  0
   39.8030   34.0320   40.0860 C   0  0  0  0  0  0  0  0  0  0  0  0
   38.4320   34.3470   40.0700 C   0  0  0  0  0  0  0  0  0  0  0  0
   37.5200   33.3550   39.8530 N   0  0  0  0  0  0  0  0  0  0  0  0
   37.9440   32.0680   39.6530 C   0  0  0  0  0  0  0  0  0  0  0  0
   39.2570   31.7740   39.6700 N   0  0  0  0  0  0  0  0  0  0  0  0
   41.2390   32.4910   39.8930 H   0  0  0  0  0  0  0  0  0  0  0  0
   40.5100   34.8440   40.2600 H   0  0  0  0  0  0  0  0  0  0  0  0
   38.0430   35.3430   40.2220 H   0  0  0  0  0  0  0  0  0  0  0  0
  1  2  1  0  0  0  0
  2  3  1  0  0  0  0
  3  5  2  0  0  0  0
  3  4  1  0  0  0  0
  6  7  1  0  0  0  0
  6  5  1  0  0  0  0
  8  9  1  0  0  0  0
  8  7  2  0  0  0  0
 10  8  1  0  0  0  0
 11 10  2  0  0  0  0
 11 12  1  0  0  0  0
 12  6  2  0  0  0  0
 13 12  1  0  0  0  0
 13  2  2  0  0  0  0
 14 21  1  0  0  0  0
 14  1  1  0  0  0  0
 15 14  1  0  0  0  0
 16 14  1  0  0  0  0
 17 23  1  0  0  0  0
 17 18  1  0  0  0  0
 18 24  1  0  0  0  0
 19 18  2  0  0  0  0
 19 25  1  0  0  0  0
 20 19  1  0  0  0  0
 21 22  1  0  0  0  0
 21 20  2  0  0  0  0
 22 17  2  0  0  0  0
M  END
>  <minimizedAffinity>
-5.00948143

$$$$

 OpenBabel03242523313D

 25 27  0  0  0  0  0  0  0  0999 V2000
   39.6800   30.6740   42.7730 S   0  0  0  0  0  0  0  0  0  0  0  0
   38.8870   29.0790   42.6090 C   0  0  0  0  0  0  0  0  0  0  0  0
   37.5100   29.0460   42.4680 C   0  0  0  0  0  0  0  0  0  0  0  0
   36.9600   29.9790   42.4620 H   0  0  0  0  0  0  0  0  0  0  0  0
   36.9210   27.8120   42.3430 C   0  0  0  0  0  3  0  0  0  0  0  0
   37.6470   26.6230   42.3520 C   0  0  0  0  0  0  0  0  0  0  0  0
   37.0090   25.4450   42.2260 N   0  0  0  0  0  0  0  0  0  0  0  0
   37.7010   24.2820   42.2330 C   0  0  0  0  0  0  0  0  0  0  0  0
   37.1610   23.3500   42.1290 H   0  0  0  0  0  0  0  0  0  0  0  0
   39.0600   24.3110   42.3730 C   0  0  0  0  0  3  0  0  0  0  0  0
   39.7070   25.5230   42.5020 C   0  0  0  0  0  3  0  0  0  0  0  0
   39.0190   26.7390   42.4970 C   0  0  0  0  0  0  0  0  0  0  0  0
   39.6740   27.9460   42.6280 C   0  0  0  0  0  3  0  0  0  0  0  0
   40.2590   31.2360   41.1480 C   0  0  0  0  0  0  0  0  0  0  0  0
   40.4100   30.3920   40.4480 H   0  0  0  0  0  0  0  0  0  0  0  0
   41.2380   31.7560   41.2060 H   0  0  0  0  0  0  0  0  0  0  0  0
   37.1700   32.3470   39.3910 C   0  0  0  0  0  0  0  0  0  0  0  0
   37.2810   33.7370   39.5200 C   0  0  0  0  0  0  0  0  0  0  0  0
   38.3940   34.2700   40.1960 C   0  0  0  0  0  0  0  0  0  0  0  0
   39.3350   33.4230   40.7070 N   0  0  0  0  0  0  0  0  0  0  0  0
   39.1880   32.0690   40.5600 C   0  0  0  0  0  0  0  0  0  0  0  0
   38.1220   31.5670   39.9120 N   0  0  0  0  0  0  0  0  0  0  0  0
   36.3170   31.9680   38.8750 H   0  0  0  0  0  0  0  0  0  0  0  0
   36.5450   34.4360   39.1220 H   0  0  0  0  0  0  0  0  0  0  0  0
   38.5600   35.3270   40.3400 H   0  0  0  0  0  0  0  0  0  0  0  0
  2 13  1  0  0  0  0
  2  1  1  0  0  0  0
  3  2  2  0  0  0  0
  4  3  1  0  0  0  0
  5  6  2  0  0  0  0
  5  3  1  0  0  0  0
  6 12  1  0  0  0  0
  7  8  2  0  0  0  0
  7  6  1  0  0  0  0
  8 10  1  0  0  0  0
  9  8  1  0  0  0  0
 10 11  2  0  0  0  0
 12 11  1  0  0  0  0
 12 13  2  0  0  0  0
 14 16  1  0  0  0  0
 14  1  1  0  0  0  0
 15 14  1  0  0  0  0
 17 18  2  0  0  0  0
 17 22  1  0  0  0  0
 18 19  1  0  0  0  0
 19 25  1  0  0  0  0
 19 20  2  0  0  0  0
 21 20  1  0  0  0  0
 21 14  1  0  0  0  0
 22 21  2  0  0  0  0
 23 17  1  0  0  0  0
 24 18  1  0  0  0  0
M  END
>  <minimizedAffinity>
-4.93809652

$$$$

 OpenBabel03242523313D

 25 27  0  0  0  0  0  0  0  0999 V2000
   37.1260   27.8740   43.1360 S   0  0  0  0  0  0  0  0  0  0  0  0
   37.8010   29.3660   42.4170 C   0  0  0  0  0  0  0  0  0  0  0  0
   39.0650   29.7690   42.8120 C   0  0  0  0  0  0  0  0  0  0  0  0
   39.6030   29.1720   43.5380 H   0  0  0  0  0  0  0  0  0  0  0  0
   39.5630   30.9170   42.2470 C   0  0  0  0  0  3  0  0  0  0  0  0
   38.8560   31.6700   41.3130 C   0  0  0  0  0  0  0  0  0  0  0  0
   39.4010   32.7870   40.7980 N   0  0  0  0  0  0  0  0  0  0  0  0
   38.7250   33.5280   39.8900 C   0  0  0  0  0  0  0  0  0  0  0  0
   39.1900   34.4220   39.4930 H   0  0  0  0  0  0  0  0  0  0  0  0
   37.4760   33.1350   39.4980 C   0  0  0  0  0  3  0  0  0  0  0  0
   36.9240   31.9890   40.0310 C   0  0  0  0  0  3  0  0  0  0  0  0
   37.5980   31.2030   40.9700 C   0  0  0  0  0  0  0  0  0  0  0  0
   37.0380   30.0590   41.4980 C   0  0  0  0  0  3  0  0  0  0  0  0
   38.2580   26.4880   42.8340 C   0  0  0  0  0  0  0  0  0  0  0  0
   38.3390   25.8190   43.7130 H   0  0  0  0  0  0  0  0  0  0  0  0
   39.2940   26.8290   42.6230 H   0  0  0  0  0  0  0  0  0  0  0  0
   36.5170   25.4190   39.7210 C   0  0  0  0  0  0  0  0  0  0  0  0
   36.6530   24.0280   39.8110 C   0  0  0  0  0  0  0  0  0  0  0  0
   37.3270   23.4800   40.9170 C   0  0  0  0  0  0  0  0  0  0  0  0
   37.8320   24.3150   41.8730 N   0  0  0  0  0  0  0  0  0  0  0  0
   37.6780   25.6700   41.7480 C   0  0  0  0  0  0  0  0  0  0  0  0
   37.0310   26.1860   40.6870 N   0  0  0  0  0  0  0  0  0  0  0  0
   36.0030   25.8090   38.8730 H   0  0  0  0  0  0  0  0  0  0  0  0
   36.2610   23.3390   39.0620 H   0  0  0  0  0  0  0  0  0  0  0  0
   37.4770   22.4220   41.0660 H   0  0  0  0  0  0  0  0  0  0  0  0
  2  3  1  0  0  0  0
  2  1  1  0  0  0  0
  3  4  1  0  0  0  0
  5  3  2  0  0  0  0
  6  5  1  0  0  0  0
  7  6  2  0  0  0  0
  8  7  1  0  0  0  0
  9  8  1  0  0  0  0
 10  8  2  0  0  0  0
 10 11  1  0  0  0  0
 11 12  2  0  0  0  0
 12  6  1  0  0  0  0
 12 13  1  0  0  0  0
 13  2  2  0  0  0  0
 14  1  1  0  0  0  0
 14 15  1  0  0  0  0
 16 14  1  0  0  0  0
 17 18  2  0  0  0  0
 17 22  1  0  0  0  0
 18 19  1  0  0  0  0
 19 25  1  0  0  0  0
 19 20  2  0  0  0  0
 21 20  1  0  0  0  0
 21 14  1  0  0  0  0
 22 21  2  0  0  0  0
 23 17  1  0  0  0  0
 24 18  1  0  0  0  0
M  END
>  <minimizedAffinity>
-4.92006016

$$$$

 OpenBabel03242523313D

 25 27  0  0  0  0  0  0  0  0999 V2000
   39.7820   30.7330   42.7810 S   0  0  0  0  0  0  0  0  0  0  0  0
   39.6190   28.9530   42.7080 C   0  0  0  0  0  0  0  0  0  0  0  0
   40.7550   28.1850   42.8970 C   0  0  0  0  0  0  0  0  0  0  0  0
   41.7000   28.6810   43.0810 H   0  0  0  0  0  0  0  0  0  0  0  0
   40.6080   26.8210   42.8370 C   0  0  0  0  0  3  0  0  0  0  0  0
   39.3820   26.2020   42.6000 C   0  0  0  0  0  0  0  0  0  0  0  0
   39.3050   24.8600   42.5530 N   0  0  0  0  0  0  0  0  0  0  0  0
   38.1220   24.2450   42.3230 C   0  0  0  0  0  0  0  0  0  0  0  0
   38.0910   23.1630   42.2910 H   0  0  0  0  0  0  0  0  0  0  0  0
   36.9980   25.0000   42.1360 C   0  0  0  0  0  3  0  0  0  0  0  0
   37.0860   26.3760   42.1850 C   0  0  0  0  0  3  0  0  0  0  0  0
   38.2940   27.0390   42.4210 C   0  0  0  0  0  0  0  0  0  0  0  0
   38.3710   28.4150   42.4680 C   0  0  0  0  0  3  0  0  0  0  0  0
   40.3630   31.3570   41.1790 C   0  0  0  0  0  0  0  0  0  0  0  0
   40.5220   30.5390   40.4490 H   0  0  0  0  0  0  0  0  0  0  0  0
   41.3400   31.8790   41.2590 H   0  0  0  0  0  0  0  0  0  0  0  0
   38.3270   34.2890   40.1220 C   0  0  0  0  0  0  0  0  0  0  0  0
   37.2280   33.6460   39.5370 C   0  0  0  0  0  0  0  0  0  0  0  0
   37.1970   32.2400   39.5110 C   0  0  0  0  0  0  0  0  0  0  0  0
   38.2350   31.5380   40.0550 N   0  0  0  0  0  0  0  0  0  0  0  0
   39.2900   32.2040   40.6170 C   0  0  0  0  0  0  0  0  0  0  0  0
   39.3130   33.5500   40.6390 N   0  0  0  0  0  0  0  0  0  0  0  0
   38.3260   35.3550   40.1280 H   0  0  0  0  0  0  0  0  0  0  0  0
   36.3870   34.1820   39.0950 H   0  0  0  0  0  0  0  0  0  0  0  0
   36.3910   31.6650   39.0810 H   0  0  0  0  0  0  0  0  0  0  0  0
  2  1  1  0  0  0  0
  2  3  1  0  0  0  0
  3  4  1  0  0  0  0
  5  3  2  0  0  0  0
  6  5  1  0  0  0  0
  7  6  1  0  0  0  0
  8  7  2  0  0  0  0
  9  8  1  0  0  0  0
 10 11  2  0  0  0  0
 10  8  1  0  0  0  0
 11 12  1  0  0  0  0
 12 13  1  0  0  0  0
 12  6  2  0  0  0  0
 13  2  2  0  0  0  0
 14 16  1  0  0  0  0
 14  1  1  0  0  0  0
 15 14  1  0  0  0  0
 17 23  1  0  0  0  0
 17 22  1  0  0  0  0
 18 17  2  0  0  0  0
 19 18  1  0  0  0  0
 19 20  2  0  0  0  0
 20 21  1  0  0  0  0
 21 22  2  0  0  0  0
 21 14  1  0  0  0  0
 24 18  1  0  0  0  0
 25 19  1  0  0  0  0
M  END
>  <minimizedAffinity>
-4.83273792

$$$$

 OpenBabel03242523313D

 25 27  0  0  0  0  0  0  0  0999 V2000
   37.0490   27.7390   43.3340 S   0  0  0  0  0  0  0  0  0  0  0  0
   37.7090   29.1950   42.5310 C   0  0  0  0  0  0  0  0  0  0  0  0
   38.9700   29.6300   42.9010 C   0  0  0  0  0  0  0  0  0  0  0  0
   39.5150   29.0800   43.6590 H   0  0  0  0  0  0  0  0  0  0  0  0
   39.4580   30.7490   42.2730 C   0  0  0  0  0  3  0  0  0  0  0  0
   38.7420   31.4420   41.2990 C   0  0  0  0  0  0  0  0  0  0  0  0
   39.2770   32.5330   40.7210 N   0  0  0  0  0  0  0  0  0  0  0  0
   38.5940   33.2170   39.7750 C   0  0  0  0  0  0  0  0  0  0  0  0
   39.0500   34.0910   39.3270 H   0  0  0  0  0  0  0  0  0  0  0  0
   37.3480   32.7920   39.4070 C   0  0  0  0  0  3  0  0  0  0  0  0
   36.8070   31.6720   40.0050 C   0  0  0  0  0  3  0  0  0  0  0  0
   37.4890   30.9460   40.9850 C   0  0  0  0  0  0  0  0  0  0  0  0
   36.9390   29.8280   41.5760 C   0  0  0  0  0  3  0  0  0  0  0  0
   37.3850   26.2770   42.3130 C   0  0  0  0  0  0  0  0  0  0  0  0
   37.2100   26.4730   41.2380 H   0  0  0  0  0  0  0  0  0  0  0  0
   36.7250   25.4220   42.5720 H   0  0  0  0  0  0  0  0  0  0  0  0
   40.8170   25.8050   43.6770 C   0  0  0  0  0  0  0  0  0  0  0  0
   41.4920   25.3520   42.5370 C   0  0  0  0  0  0  0  0  0  0  0  0
   40.7770   25.2150   41.3330 C   0  0  0  0  0  0  0  0  0  0  0  0
   39.4470   25.5270   41.3060 N   0  0  0  0  0  0  0  0  0  0  0  0
   38.8250   25.9660   42.4440 C   0  0  0  0  0  0  0  0  0  0  0  0
   39.5150   26.0950   43.5910 N   0  0  0  0  0  0  0  0  0  0  0  0
   41.3820   25.8990   44.5770 H   0  0  0  0  0  0  0  0  0  0  0  0
   42.5520   25.0960   42.5300 H   0  0  0  0  0  0  0  0  0  0  0  0
   41.2160   24.8750   40.4080 H   0  0  0  0  0  0  0  0  0  0  0  0
  2  3  1  0  0  0  0
  2  1  1  0  0  0  0
  3  4  1  0  0  0  0
  5  3  2  0  0  0  0
  6  5  1  0  0  0  0
  7  6  2  0  0  0  0
  8  7  1  0  0  0  0
  9  8  1  0  0  0  0
 10  8  2  0  0  0  0
 10 11  1  0  0  0  0
 11 12  2  0  0  0  0
 12  6  1  0  0  0  0
 12 13  1  0  0  0  0
 13  2  2  0  0  0  0
 14 21  1  0  0  0  0
 14 16  1  0  0  0  0
 14  1  1  0  0  0  0
 15 14  1  0  0  0  0
 17 23  1  0  0  0  0
 18 17  2  0  0  0  0
 19 18  1  0  0  0  0
 20 19  2  0  0  0  0
 20 21  1  0  0  0  0
 21 22  2  0  0  0  0
 22 17  1  0  0  0  0
 24 18  1  0  0  0  0
 25 19  1  0  0  0  0
M  END
>  <minimizedAffinity>
-4.82281256

$$$$

 OpenBabel03242523313D

 25 27  0  0  0  0  0  0  0  0999 V2000
   36.3200   30.3480   41.2610 S   0  0  0  0  0  0  0  0  0  0  0  0
   37.2630   28.9280   41.8040 C   0  0  0  0  0  0  0  0  0  0  0  0
   38.4310   29.1510   42.5120 C   0  0  0  0  0  0  0  0  0  0  0  0
   38.7360   30.1710   42.7150 H   0  0  0  0  0  0  0  0  0  0  0  0
   39.1400   28.0480   42.9200 C   0  0  0  0  0  3  0  0  0  0  0  0
   38.7300   26.7440   42.6500 C   0  0  0  0  0  0  0  0  0  0  0  0
   39.4700   25.7050   43.0780 N   0  0  0  0  0  0  0  0  0  0  0  0
   39.0850   24.4330   42.8230 C   0  0  0  0  0  0  0  0  0  0  0  0
   39.7010   23.6170   43.1790 H   0  0  0  0  0  0  0  0  0  0  0  0
   37.9330   24.2080   42.1230 C   0  0  0  0  0  3  0  0  0  0  0  0
   37.1800   25.2790   41.6880 C   0  0  0  0  0  3  0  0  0  0  0  0
   37.5520   26.6030   41.9360 C   0  0  0  0  0  0  0  0  0  0  0  0
   36.7930   27.6670   41.4970 C   0  0  0  0  0  3  0  0  0  0  0  0
   37.0990   31.0680   39.7890 C   0  0  0  0  0  0  0  0  0  0  0  0
   38.1940   30.9020   39.7760 H   0  0  0  0  0  0  0  0  0  0  0  0
   36.9630   32.1680   39.7360 H   0  0  0  0  0  0  0  0  0  0  0  0
   35.0200   28.9250   37.5640 C   0  0  0  0  0  0  0  0  0  0  0  0
   35.6840   29.0950   36.3420 C   0  0  0  0  0  0  0  0  0  0  0  0
   36.8160   29.9280   36.2940 C   0  0  0  0  0  0  0  0  0  0  0  0
   37.2400   30.5470   37.4350 N   0  0  0  0  0  0  0  0  0  0  0  0
   36.5630   30.3550   38.6100 C   0  0  0  0  0  0  0  0  0  0  0  0
   35.4800   29.5560   38.6480 N   0  0  0  0  0  0  0  0  0  0  0  0
   34.1640   28.2900   37.5730 H   0  0  0  0  0  0  0  0  0  0  0  0
   35.3670   28.6140   35.4170 H   0  0  0  0  0  0  0  0  0  0  0  0
   37.3880   30.1150   35.3980 H   0  0  0  0  0  0  0  0  0  0  0  0
  1  2  1  0  0  0  0
  2  3  1  0  0  0  0
  3  4  1  0  0  0  0
  3  5  2  0  0  0  0
  6  5  1  0  0  0  0
  6  7  1  0  0  0  0
  8  7  2  0  0  0  0
  8  9  1  0  0  0  0
 10  8  1  0  0  0  0
 11 12  1  0  0  0  0
 11 10  2  0  0  0  0
 12  6  2  0  0  0  0
 13  2  2  0  0  0  0
 13 12  1  0  0  0  0
 14  1  1  0  0  0  0
 15 14  1  0  0  0  0
 16 14  1  0  0  0  0
 17 23  1  0  0  0  0
 17 22  1  0  0  0  0
 18 17  2  0  0  0  0
 19 18  1  0  0  0  0
 19 20  2  0  0  0  0
 20 21  1  0  0  0  0
 21 22  2  0  0  0  0
 21 14  1  0  0  0  0
 24 18  1  0  0  0  0
 25 19  1  0  0  0  0
M  END
>  <minimizedAffinity>
-4.78044462

$$$$

 OpenBabel03242523313D

 25 27  0  0  0  0  0  0  0  0999 V2000
   37.1100   28.4670   42.6650 S   0  0  0  0  0  0  0  0  0  0  0  0
   37.5630   29.9730   41.8120 C   0  0  0  0  0  0  0  0  0  0  0  0
   36.5750   30.6620   41.1320 C   0  0  0  0  0  0  0  0  0  0  0  0
   35.5640   30.2720   41.1360 H   0  0  0  0  0  0  0  0  0  0  0  0
   36.9440   31.8150   40.4850 C   0  0  0  0  0  3  0  0  0  0  0  0
   38.2500   32.3020   40.4920 C   0  0  0  0  0  0  0  0  0  0  0  0
   38.5460   33.4390   39.8370 N   0  0  0  0  0  0  0  0  0  0  0  0
   39.8100   33.9230   39.8350 C   0  0  0  0  0  0  0  0  0  0  0  0
   40.0200   34.8400   39.2990 H   0  0  0  0  0  0  0  0  0  0  0  0
   40.7900   33.2450   40.5050 C   0  0  0  0  0  3  0  0  0  0  0  0
   40.4770   32.0800   41.1740 C   0  0  0  0  0  3  0  0  0  0  0  0
   39.1810   31.5560   41.1940 C   0  0  0  0  0  0  0  0  0  0  0  0
   38.8780   30.3900   41.8650 C   0  0  0  0  0  3  0  0  0  0  0  0
   38.5860   27.4420   42.9150 C   0  0  0  0  0  0  0  0  0  0  0  0
   38.7870   27.2600   43.9880 H   0  0  0  0  0  0  0  0  0  0  0  0
   39.5040   27.9220   42.5160 H   0  0  0  0  0  0  0  0  0  0  0  0
   36.8720   24.3600   41.7200 C   0  0  0  0  0  0  0  0  0  0  0  0
   37.9540   23.6500   41.1840 C   0  0  0  0  0  0  0  0  0  0  0  0
   39.2370   24.2250   41.2360 C   0  0  0  0  0  0  0  0  0  0  0  0
   39.3960   25.4560   41.8060 N   0  0  0  0  0  0  0  0  0  0  0  0
   38.3120   26.1170   42.3190 C   0  0  0  0  0  0  0  0  0  0  0  0
   37.0880   25.5610   42.2660 N   0  0  0  0  0  0  0  0  0  0  0  0
   35.9100   23.9030   41.6670 H   0  0  0  0  0  0  0  0  0  0  0  0
   37.8560   22.6670   40.7220 H   0  0  0  0  0  0  0  0  0  0  0  0
   40.1250   23.7500   40.8480 H   0  0  0  0  0  0  0  0  0  0  0  0
  1 14  1  0  0  0  0
  2 13  1  0  0  0  0
  2  1  1  0  0  0  0
  3  4  1  0  0  0  0
  3  2  2  0  0  0  0
  5  6  2  0  0  0  0
  5  3  1  0  0  0  0
  6 12  1  0  0  0  0
  7  6  1  0  0  0  0
  8  7  2  0  0  0  0
  8 10  1  0  0  0  0
  9  8  1  0  0  0  0
 10 11  2  0  0  0  0
 11 12  1  0  0  0  0
 12 13  2  0  0  0  0
 14 15  1  0  0  0  0
 16 14  1  0  0  0  0
 17 22  1  0  0  0  0
 18 19  1  0  0  0  0
 18 17  2  0  0  0  0
 19 20  2  0  0  0  0
 20 21  1  0  0  0  0
 21 14  1  0  0  0  0
 22 21  2  0  0  0  0
 23 17  1  0  0  0  0
 24 18  1  0  0  0  0
 25 19  1  0  0  0  0
M  END
>  <minimizedAffinity>
-4.71503448

$$$$
