
 OpenBabel03252509243D

 30 33  0  0  1  0  0  0  0  0999 V2000
   46.8500   34.7530   42.0030 C   0  0  1  0  0  0  0  0  0  0  0  0
   48.2490   35.4240   42.0680 C   0  0  0  0  0  0  0  0  0  0  0  0
   47.9680   33.9310   41.7110 C   0  0  2  0  0  0  0  0  0  0  0  0
   46.1850   35.2290   41.2540 H   0  0  0  0  0  0  0  0  0  0  0  0
   48.5760   36.0150   41.2040 H   0  0  0  0  0  0  0  0  0  0  0  0
   48.7030   35.6310   43.0310 H   0  0  0  0  0  0  0  0  0  0  0  0
   48.3290   33.2310   42.5030 H   0  0  0  0  0  0  0  0  0  0  0  0
   48.2960   33.5100   40.3100 C   0  0  0  0  0  0  0  0  0  0  0  0
   47.7950   34.3390   39.3080 C   0  0  0  0  0  0  0  0  0  0  0  0
   47.2120   35.2230   39.5290 H   0  0  0  0  0  0  0  0  0  0  0  0
   48.0500   34.0260   37.9820 C   0  0  0  0  0  3  0  0  0  0  0  0
   48.7910   32.9030   37.6730 C   0  0  0  0  0  0  0  0  0  0  0  0
   49.0660   32.5570   36.3860 N   0  0  0  0  0  0  0  0  0  0  0  0
   49.7900   31.4580   36.1080 C   0  0  0  0  0  0  0  0  0  0  0  0
   49.9940   31.2060   35.0720 H   0  0  0  0  0  0  0  0  0  0  0  0
   50.2990   30.6180   37.0770 C   0  0  0  0  0  3  0  0  0  0  0  0
   49.9990   31.0020   38.3800 C   0  0  0  0  0  3  0  0  0  0  0  0
   49.2570   32.1250   38.7180 C   0  0  0  0  0  0  0  0  0  0  0  0
   49.0380   32.3830   40.0560 C   0  0  0  0  0  3  0  0  0  0  0  0
   44.6600   35.4170   44.9790 C   0  0  0  0  0  0  0  0  0  0  0  0
   45.2390   35.5850   43.6770 C   0  0  0  0  0  0  0  0  0  0  0  0
   46.2370   34.6900   43.3830 C   0  0  0  0  0  0  0  0  0  0  0  0
   46.6450   33.7110   44.2820 N   0  0  0  0  0  0  0  0  0  0  0  0
   46.0630   33.6120   45.4790 C   0  0  0  0  0  0  0  0  0  0  0  0
   45.0670   34.4660   45.8320 N   0  0  0  0  0  0  0  0  0  0  0  0
   43.8680   36.0980   45.2560 H   0  0  0  0  0  0  0  0  0  0  0  0
   46.4890   32.8060   46.0590 H   0  0  0  0  0  0  0  0  0  0  0  0
   44.8310   36.6100   42.7750 N   0  0  0  0  0  0  0  0  0  0  0  0
   44.5040   36.4410   41.7870 H   0  0  0  0  0  0  0  0  0  0  0  0
   44.9180   37.5310   43.2810 H   0  0  0  0  0  0  0  0  0  0  0  0
  1  4  1  6  0  0  0
  1  2  1  0  0  0  0
  1 22  1  0  0  0  0
  2  6  1  0  0  0  0
  3  1  1  0  0  0  0
  3  2  1  0  0  0  0
  3  7  1  1  0  0  0
  5  2  1  0  0  0  0
  8  3  1  0  0  0  0
  9 10  1  0  0  0  0
  9  8  2  0  0  0  0
 11  9  1  0  0  0  0
 12 11  2  0  0  0  0
 12 18  1  0  0  0  0
 13 12  1  0  0  0  0
 14 13  2  0  0  0  0
 14 16  1  0  0  0  0
 15 14  1  0  0  0  0
 16 17  2  0  0  0  0
 17 18  1  0  0  0  0
 18 19  2  0  0  0  0
 19  8  1  0  0  0  0
 20 26  1  0  0  0  0
 20 25  1  0  0  0  0
 21 20  2  0  0  0  0
 22 21  1  0  0  0  0
 22 23  2  0  0  0  0
 23 24  1  0  0  0  0
 24 25  2  0  0  0  0
 24 27  1  0  0  0  0
 28 30  1  0  0  0  0
 28 21  1  0  0  0  0
 29 28  1  0  0  0  0
M  END
>  <minimizedAffinity>
-5.55097485

>  <minimizedRMSD>
1.1434629

$$$$
