
 OpenBabel03252504333D

 43 46  0  0  0  0  0  0  0  0999 V2000
   41.6270   35.6260   41.1540 C   0  0  0  0  0  0  0  0  0  0  0  0
   41.5300   35.7680   42.2600 H   0  0  0  0  0  0  0  0  0  0  0  0
   41.1660   36.5610   40.7320 H   0  0  0  0  0  0  0  0  0  0  0  0
   41.0950   33.2630   41.2890 C   0  0  0  0  0  0  0  0  0  0  0  0
   40.6640   34.5200   40.8540 C   0  0  0  0  0  0  0  0  0  0  0  0
   39.4640   34.6270   40.2480 C   0  0  0  0  0  0  0  0  0  0  0  0
   38.7670   33.4990   40.1100 N   0  0  0  0  0  0  0  0  0  0  0  0
   39.1470   32.2980   40.5110 C   0  0  0  0  0  0  0  0  0  0  0  0
   40.3790   32.1420   41.1400 N   0  0  0  0  0  0  0  0  0  0  0  0
   42.0380   33.0690   41.7830 H   0  0  0  0  0  0  0  0  0  0  0  0
   39.1940   35.6170   39.9390 H   0  0  0  0  0  0  0  0  0  0  0  0
   38.3040   31.1110   40.3130 C   0  0  0  0  0  0  0  0  0  0  0  0
   37.4360   30.7140   41.3090 C   0  0  0  0  0  0  0  0  0  0  0  0
   37.3480   31.2460   42.2430 H   0  0  0  0  0  0  0  0  0  0  0  0
   36.6700   29.5870   41.0570 C   0  0  0  0  0  0  0  0  0  0  0  0
   36.7810   28.8970   39.8510 C   0  0  0  0  0  0  0  0  0  0  0  0
   36.0450   27.7870   39.5710 N   0  0  0  0  0  0  0  0  0  0  0  0
   36.1700   27.1380   38.3990 C   0  0  0  0  0  0  0  0  0  0  0  0
   35.5220   26.2880   38.3360 H   0  0  0  0  0  0  0  0  0  0  0  0
   37.0580   27.5740   37.4220 C   0  0  0  0  0  0  0  0  0  0  0  0
   37.8120   28.6870   37.6740 C   0  0  0  0  0  0  0  0  0  0  0  0
   37.6730   29.3470   38.8860 C   0  0  0  0  0  0  0  0  0  0  0  0
   38.4610   30.4740   39.1000 C   0  0  0  0  0  0  0  0  0  0  0  0
   42.8700   35.4400   40.6460 O   0  0  0  0  0  0  0  0  0  0  0  0
   44.0670   35.3390   41.3330 C   0  0  0  0  0  0  0  0  0  0  0  0
   44.0300   35.6220   42.6310 C   0  0  0  0  0  0  0  0  0  0  0  0
   45.2070   35.5790   43.5870 C   0  0  0  0  0  0  0  0  0  0  0  0
   46.0860   35.3170   42.9380 H   0  0  0  0  0  0  0  0  0  0  0  0
   45.4220   36.5700   44.0100 H   0  0  0  0  0  0  0  0  0  0  0  0
   44.9440   34.5920   44.5180 O   0  0  0  0  0  0  0  0  0  0  0  0
   45.5850   32.4600   43.0620 O   0  0  0  0  0  0  0  0  0  0  0  0
   45.9510   33.2580   44.2930 P   0  0  1  0  0  0  0  0  0  0  0  0
   47.5660   33.7650   44.0930 O   0  0  0  0  0  0  0  0  0  0  0  0
   47.6730   34.6050   44.6170 H   0  0  0  0  0  0  0  0  0  0  0  0
   45.9100   32.2670   45.6580 O   0  0  0  0  0  0  0  0  0  0  0  0
   46.2030   32.9600   46.8180 C   0  0  0  0  0  0  0  0  0  0  0  0
   47.0630   32.3080   47.8550 C   0  0  0  0  0  0  0  0  0  0  0  0
   45.5610   32.4110   48.0720 C   0  0  0  0  0  0  0  0  0  0  0  0
   46.3090   34.0520   46.7390 H   0  0  0  0  0  0  0  0  0  0  0  0
   47.7180   32.9430   48.4630 H   0  0  0  0  0  0  0  0  0  0  0  0
   47.3960   31.2710   47.6490 H   0  0  0  0  0  0  0  0  0  0  0  0
   44.9430   31.5130   48.0540 H   0  0  0  0  0  0  0  0  0  0  0  0
   45.2570   33.1500   48.8620 H   0  0  0  0  0  0  0  0  0  0  0  0
  1  2  1  0  0  0  0
  3  1  1  0  0  0  0
  4 10  1  0  0  0  0
  5  1  1  0  0  0  0
  5  4  2  0  0  0  0
  6  5  1  0  0  0  0
  7  6  2  0  0  0  0
  7  8  1  0  0  0  0
  8  9  2  0  0  0  0
  9  4  1  0  0  0  0
 11  6  1  0  0  0  0
 12  8  1  0  0  0  0
 12 13  1  0  0  0  0
 13 14  1  0  0  0  0
 15 13  2  0  0  0  0
 16 15  1  0  0  0  0
 17 16  1  0  0  0  0
 18 17  2  0  0  0  0
 19 18  1  0  0  0  0
 20 21  2  0  0  0  0
 20 18  1  0  0  0  0
 21 22  1  0  0  0  0
 22 23  1  0  0  0  0
 22 16  2  0  0  0  0
 23 12  2  0  0  0  0
 24  1  1  0  0  0  0
 24 25  1  0  0  0  0
 25 26  2  0  0  0  0
 26 27  1  0  0  0  0
 27 29  1  0  0  0  0
 27 30  1  0  0  0  0
 28 27  1  0  0  0  0
 32 31  2  6  0  0  0
 32 30  1  0  0  0  0
 32 35  1  0  0  0  0
 33 32  1  0  0  0  0
 33 34  1  0  0  0  0
 35 36  1  0  0  0  0
 36 37  1  0  0  0  0
 36 38  1  0  0  0  0
 37 38  1  0  0  0  0
 37 40  1  0  0  0  0
 38 43  1  0  0  0  0
 39 36  1  0  0  0  0
 41 37  1  0  0  0  0
 42 38  1  0  0  0  0
M  END
>  <minimizedAffinity>
-5.63225508

>  <minimizedRMSD>
1.14607787

$$$$
