
 OpenBabel03252509103D

 44 48  0  0  0  0  0  0  0  0999 V2000
   36.3130   29.9220   38.6180 C   0  0  0  0  0  0  0  0  0  0  0  0
   37.2360   30.8010   38.1290 C   0  0  0  0  0  0  0  0  0  0  0  0
   37.3710   30.9680   36.7600 C   0  0  0  0  0  0  0  0  0  0  0  0
   36.5800   30.2540   35.8910 C   0  0  0  0  0  0  0  0  0  0  0  0
   35.6250   29.3470   36.3480 C   0  0  0  0  0  0  0  0  0  0  0  0
   35.5090   29.1990   37.7340 C   0  0  0  0  0  0  0  0  0  0  0  0
   38.0980   31.6580   36.3500 H   0  0  0  0  0  0  0  0  0  0  0  0
   36.6160   30.3190   34.8270 H   0  0  0  0  0  0  0  0  0  0  0  0
   34.9750   28.7590   35.7420 H   0  0  0  0  0  0  0  0  0  0  0  0
   34.7710   28.4970   38.1230 H   0  0  0  0  0  0  0  0  0  0  0  0
   41.8620   31.5480   40.3020 Cl  0  0  0  0  0  0  0  0  0  0  0  0
   40.2010   31.9700   39.9750 C   0  0  0  0  0  0  0  0  0  0  0  0
   39.4200   31.2000   39.1740 C   0  0  0  0  0  0  0  0  0  0  0  0
   38.1170   31.6120   38.9640 C   0  0  0  0  0  0  0  0  0  0  0  0
   37.6150   32.7550   39.5300 C   0  0  0  0  0  0  0  0  0  0  0  0
   38.4050   33.5210   40.3320 C   0  0  0  0  0  0  0  0  0  0  0  0
   39.7090   33.1160   40.5500 C   0  0  0  0  0  0  0  0  0  0  0  0
   36.5930   33.0580   39.3490 H   0  0  0  0  0  0  0  0  0  0  0  0
   37.9900   34.4100   40.7650 H   0  0  0  0  0  0  0  0  0  0  0  0
   40.2960   33.7590   41.1940 H   0  0  0  0  0  0  0  0  0  0  0  0
   40.3690   27.5890   38.5360 C   0  0  0  0  0  0  0  0  0  0  0  0
   39.8240   28.7360   39.1210 C   0  0  0  0  0  0  0  0  0  0  0  0
   39.9860   29.9990   38.5760 C   0  0  0  0  0  0  0  0  0  0  0  0
   40.7080   30.0010   37.4530 N   0  0  0  0  0  0  0  0  0  0  0  0
   41.2390   28.9240   36.8750 C   0  0  0  0  0  0  0  0  0  0  0  0
   41.0700   27.7230   37.4140 N   0  0  0  0  0  0  0  0  0  0  0  0
   40.2180   26.6380   38.9920 H   0  0  0  0  0  0  0  0  0  0  0  0
   39.2480   28.6200   40.0440 H   0  0  0  0  0  0  0  0  0  0  0  0
   41.7800   29.1970   35.9710 H   0  0  0  0  0  0  0  0  0  0  0  0
   36.1150   29.6710   40.2720 S   0  0  0  0  0  0  0  0  0  0  0  0
   35.8310   31.0140   40.9780 O   0  0  0  0  0  0  0  0  0  0  0  0
   34.7790   28.9150   40.4130 O   0  0  0  0  0  0  0  0  0  0  0  0
   37.2570   28.9720   41.3240 C   0  0  0  0  0  0  0  0  0  0  0  0
   38.2030   29.5380   42.1680 C   0  0  0  0  0  0  0  0  0  0  0  0
   38.2240   30.6150   42.1710 H   0  0  0  0  0  0  0  0  0  0  0  0
   39.1230   28.9170   42.9560 C   0  0  0  0  0  3  0  0  0  0  0  0
   39.1270   27.5490   42.9180 C   0  0  0  0  0  0  0  0  0  0  0  0
   40.0180   26.8860   43.6800 N   0  0  0  0  0  0  0  0  0  0  0  0
   40.0640   25.5230   43.6780 C   0  0  0  0  0  0  0  0  0  0  0  0
   40.7950   25.0270   44.3050 H   0  0  0  0  0  0  0  0  0  0  0  0
   39.1790   24.7980   42.8800 C   0  0  0  0  0  3  0  0  0  0  0  0
   38.2310   25.4270   42.0680 C   0  0  0  0  0  3  0  0  0  0  0  0
   38.2820   26.7980   42.1540 C   0  0  0  0  0  0  0  0  0  0  0  0
   37.4030   27.5570   41.4070 C   0  0  0  0  0  3  0  0  0  0  0  0
  1 30  1  0  0  0  0
  2  1  1  0  0  0  0
  2 14  1  0  0  0  0
  3  2  2  0  0  0  0
  4  5  2  0  0  0  0
  4  3  1  0  0  0  0
  5  6  1  0  0  0  0
  6 10  1  0  0  0  0
  6  1  2  0  0  0  0
  7  3  1  0  0  0  0
  8  4  1  0  0  0  0
  9  5  1  0  0  0  0
 12 11  1  0  0  0  0
 12 17  1  0  0  0  0
 13 12  2  0  0  0  0
 14 13  1  0  0  0  0
 14 15  2  0  0  0  0
 15 16  1  0  0  0  0
 16 17  2  0  0  0  0
 16 19  1  0  0  0  0
 17 20  1  0  0  0  0
 18 15  1  0  0  0  0
 21 27  1  0  0  0  0
 21 22  1  0  0  0  0
 22 28  1  0  0  0  0
 23 22  2  0  0  0  0
 23 13  1  0  0  0  0
 24 23  1  0  0  0  0
 25 26  1  0  0  0  0
 25 24  2  0  0  0  0
 26 21  2  0  0  0  0
 29 25  1  0  0  0  0
 30 32  2  0  0  0  0
 30 31  2  0  0  0  0
 30 33  1  0  0  0  0
 33 44  2  0  0  0  0
 33 34  1  0  0  0  0
 34 35  1  0  0  0  0
 34 36  2  0  0  0  0
 37 36  1  0  0  0  0
 37 38  1  0  0  0  0
 39 38  2  0  0  0  0
 39 40  1  0  0  0  0
 41 39  1  0  0  0  0
 42 43  1  0  0  0  0
 42 41  2  0  0  0  0
 43 37  2  0  0  0  0
 44 43  1  0  0  0  0
M  END
>  <minimizedAffinity>
-6.87662935

$$$$

 OpenBabel03252509103D

 44 48  0  0  0  0  0  0  0  0999 V2000
   36.2180   27.8550   38.9240 C   0  0  0  0  0  0  0  0  0  0  0  0
   35.8890   28.4800   40.0930 C   0  0  0  0  0  0  0  0  0  0  0  0
   34.6720   29.1320   40.2060 C   0  0  0  0  0  0  0  0  0  0  0  0
   33.7930   29.1520   39.1500 C   0  0  0  0  0  0  0  0  0  0  0  0
   34.0890   28.5270   37.9390 C   0  0  0  0  0  0  0  0  0  0  0  0
   35.3230   27.8760   37.8520 C   0  0  0  0  0  0  0  0  0  0  0  0
   34.3910   29.6350   41.1230 H   0  0  0  0  0  0  0  0  0  0  0  0
   32.8370   29.6280   39.1490 H   0  0  0  0  0  0  0  0  0  0  0  0
   33.4630   28.4960   37.0770 H   0  0  0  0  0  0  0  0  0  0  0  0
   35.5840   27.3770   36.9180 H   0  0  0  0  0  0  0  0  0  0  0  0
   39.6930   30.7170   42.7760 Cl  0  0  0  0  0  0  0  0  0  0  0  0
   38.4780   29.4940   42.5080 C   0  0  0  0  0  0  0  0  0  0  0  0
   37.6870   29.5140   41.4040 C   0  0  0  0  0  0  0  0  0  0  0  0
   36.7450   28.5100   41.2740 C   0  0  0  0  0  0  0  0  0  0  0  0
   36.5990   27.5240   42.2160 C   0  0  0  0  0  0  0  0  0  0  0  0
   37.3970   27.5110   43.3180 C   0  0  0  0  0  0  0  0  0  0  0  0
   38.3430   28.5100   43.4560 C   0  0  0  0  0  0  0  0  0  0  0  0
   35.8540   26.7490   42.0930 H   0  0  0  0  0  0  0  0  0  0  0  0
   37.2660   26.7290   44.0390 H   0  0  0  0  0  0  0  0  0  0  0  0
   38.9530   28.4560   44.3490 H   0  0  0  0  0  0  0  0  0  0  0  0
   37.2300   32.7350   39.4640 C   0  0  0  0  0  0  0  0  0  0  0  0
   37.0570   31.7130   40.4030 C   0  0  0  0  0  0  0  0  0  0  0  0
   37.8570   30.5830   40.4300 C   0  0  0  0  0  0  0  0  0  0  0  0
   38.7930   30.5760   39.4790 N   0  0  0  0  0  0  0  0  0  0  0  0
   38.9810   31.5350   38.5730 C   0  0  0  0  0  0  0  0  0  0  0  0
   38.2030   32.6100   38.5660 N   0  0  0  0  0  0  0  0  0  0  0  0
   36.5900   33.5860   39.4810 H   0  0  0  0  0  0  0  0  0  0  0  0
   36.2550   31.8210   41.1390 H   0  0  0  0  0  0  0  0  0  0  0  0
   39.8090   31.2870   37.9120 H   0  0  0  0  0  0  0  0  0  0  0  0
   37.6900   27.0590   38.7270 S   0  0  0  0  0  0  0  0  0  0  0  0
   37.5310   25.9050   37.7140 O   0  0  0  0  0  0  0  0  0  0  0  0
   38.5970   28.0560   37.9800 O   0  0  0  0  0  0  0  0  0  0  0  0
   38.5950   26.3060   39.9570 C   0  0  0  0  0  0  0  0  0  0  0  0
   38.3670   25.1540   40.6990 C   0  0  0  0  0  0  0  0  0  0  0  0
   37.4570   24.6300   40.4560 H   0  0  0  0  0  0  0  0  0  0  0  0
   39.1160   24.6270   41.7060 C   0  0  0  0  0  3  0  0  0  0  0  0
   40.2480   25.3180   42.0430 C   0  0  0  0  0  0  0  0  0  0  0  0
   41.0230   24.8370   43.0340 N   0  0  0  0  0  0  0  0  0  0  0  0
   42.1620   25.4870   43.4100 C   0  0  0  0  0  0  0  0  0  0  0  0
   42.7580   25.0680   44.2120 H   0  0  0  0  0  0  0  0  0  0  0  0
   42.5350   26.6650   42.7640 C   0  0  0  0  0  3  0  0  0  0  0  0
   41.7730   27.2150   41.7290 C   0  0  0  0  0  3  0  0  0  0  0  0
   40.6530   26.4720   41.4420 C   0  0  0  0  0  0  0  0  0  0  0  0
   39.8010   26.8920   40.4380 C   0  0  0  0  0  3  0  0  0  0  0  0
  1  2  1  0  0  0  0
  2  3  2  0  0  0  0
  2 14  1  0  0  0  0
  3  7  1  0  0  0  0
  4  3  1  0  0  0  0
  5  4  2  0  0  0  0
  6  5  1  0  0  0  0
  6  1  2  0  0  0  0
  8  4  1  0  0  0  0
  9  5  1  0  0  0  0
 10  6  1  0  0  0  0
 12 11  1  0  0  0  0
 12 17  1  0  0  0  0
 13 12  2  0  0  0  0
 14 13  1  0  0  0  0
 14 15  2  0  0  0  0
 15 16  1  0  0  0  0
 16 17  2  0  0  0  0
 16 19  1  0  0  0  0
 17 20  1  0  0  0  0
 18 15  1  0  0  0  0
 21 27  1  0  0  0  0
 21 22  1  0  0  0  0
 22 23  2  0  0  0  0
 22 28  1  0  0  0  0
 23 13  1  0  0  0  0
 24 23  1  0  0  0  0
 25 24  2  0  0  0  0
 26 25  1  0  0  0  0
 26 21  2  0  0  0  0
 29 25  1  0  0  0  0
 30  1  1  0  0  0  0
 30 33  1  0  0  0  0
 31 30  2  0  0  0  0
 32 30  2  0  0  0  0
 33 44  2  0  0  0  0
 33 34  1  0  0  0  0
 34 36  2  0  0  0  0
 35 34  1  0  0  0  0
 36 37  1  0  0  0  0
 37 38  1  0  0  0  0
 38 39  2  0  0  0  0
 39 40  1  0  0  0  0
 41 39  1  0  0  0  0
 42 41  2  0  0  0  0
 43 42  1  0  0  0  0
 43 37  2  0  0  0  0
 44 43  1  0  0  0  0
M  END
>  <minimizedAffinity>
-6.87290764

$$$$

 OpenBabel03252509103D

 44 48  0  0  0  0  0  0  0  0999 V2000
   36.5760   28.0010   41.1910 C   0  0  0  0  0  0  0  0  0  0  0  0
   36.6570   27.0740   40.1930 C   0  0  0  0  0  0  0  0  0  0  0  0
   36.0300   27.3110   38.9810 C   0  0  0  0  0  0  0  0  0  0  0  0
   35.3280   28.4760   38.7770 C   0  0  0  0  0  0  0  0  0  0  0  0
   35.2200   29.4490   39.7700 C   0  0  0  0  0  0  0  0  0  0  0  0
   35.8620   29.1830   40.9830 C   0  0  0  0  0  0  0  0  0  0  0  0
   36.0800   26.5900   38.1750 H   0  0  0  0  0  0  0  0  0  0  0  0
   34.8150   28.7410   37.8790 H   0  0  0  0  0  0  0  0  0  0  0  0
   34.6970   30.3730   39.6910 H   0  0  0  0  0  0  0  0  0  0  0  0
   35.7970   29.9250   41.7800 H   0  0  0  0  0  0  0  0  0  0  0  0
   40.8140   24.2230   39.0680 Cl  0  0  0  0  0  0  0  0  0  0  0  0
   39.2520   24.4910   39.7970 C   0  0  0  0  0  0  0  0  0  0  0  0
   38.6170   25.6860   39.6890 C   0  0  0  0  0  0  0  0  0  0  0  0
   37.3830   25.8140   40.3030 C   0  0  0  0  0  0  0  0  0  0  0  0
   36.8090   24.7830   41.0010 C   0  0  0  0  0  0  0  0  0  0  0  0
   37.4520   23.5870   41.1030 C   0  0  0  0  0  0  0  0  0  0  0  0
   38.6850   23.4500   40.4910 C   0  0  0  0  0  0  0  0  0  0  0  0
   35.8450   24.9070   41.4740 H   0  0  0  0  0  0  0  0  0  0  0  0
   36.9830   22.7960   41.6520 H   0  0  0  0  0  0  0  0  0  0  0  0
   39.1560   22.4810   40.6010 H   0  0  0  0  0  0  0  0  0  0  0  0
   40.6550   28.7650   38.8460 C   0  0  0  0  0  0  0  0  0  0  0  0
   40.0390   27.7340   39.5630 C   0  0  0  0  0  0  0  0  0  0  0  0
   39.2590   26.7660   38.9530 C   0  0  0  0  0  0  0  0  0  0  0  0
   39.1600   26.9230   37.6320 N   0  0  0  0  0  0  0  0  0  0  0  0
   39.7350   27.8940   36.9240 C   0  0  0  0  0  0  0  0  0  0  0  0
   40.4790   28.8120   37.5290 N   0  0  0  0  0  0  0  0  0  0  0  0
   41.2460   29.4890   39.3580 H   0  0  0  0  0  0  0  0  0  0  0  0
   40.1870   27.7010   40.6470 H   0  0  0  0  0  0  0  0  0  0  0  0
   39.4970   27.7960   35.8670 H   0  0  0  0  0  0  0  0  0  0  0  0
   37.3080   27.7580   42.6900 S   0  0  0  0  0  0  0  0  0  0  0  0
   37.3260   29.0800   43.4870 O   0  0  0  0  0  0  0  0  0  0  0  0
   36.3230   26.8830   43.4890 O   0  0  0  0  0  0  0  0  0  0  0  0
   38.8900   27.1850   42.9520 C   0  0  0  0  0  0  0  0  0  0  0  0
   39.3780   25.9160   43.2350 C   0  0  0  0  0  0  0  0  0  0  0  0
   38.6280   25.1450   43.2970 H   0  0  0  0  0  0  0  0  0  0  0  0
   40.6600   25.5310   43.4790 C   0  0  0  0  0  3  0  0  0  0  0  0
   41.6060   26.5190   43.4450 C   0  0  0  0  0  0  0  0  0  0  0  0
   42.8900   26.1890   43.6790 N   0  0  0  0  0  0  0  0  0  0  0  0
   43.8720   27.1360   43.6560 C   0  0  0  0  0  0  0  0  0  0  0  0
   44.8930   26.8310   43.8500 H   0  0  0  0  0  0  0  0  0  0  0  0
   43.5490   28.4660   43.3880 C   0  0  0  0  0  3  0  0  0  0  0  0
   42.2350   28.8720   43.1370 C   0  0  0  0  0  3  0  0  0  0  0  0
   41.3380   27.8310   43.1870 C   0  0  0  0  0  0  0  0  0  0  0  0
   39.9990   28.0810   42.9580 C   0  0  0  0  0  3  0  0  0  0  0  0
  1 30  1  0  0  0  0
  2 14  1  0  0  0  0
  2  1  2  0  0  0  0
  3  2  1  0  0  0  0
  4  3  2  0  0  0  0
  4  5  1  0  0  0  0
  5  6  2  0  0  0  0
  6  1  1  0  0  0  0
  6 10  1  0  0  0  0
  7  3  1  0  0  0  0
  8  4  1  0  0  0  0
  9  5  1  0  0  0  0
 11 12  1  0  0  0  0
 12 17  1  0  0  0  0
 13 12  2  0  0  0  0
 13 14  1  0  0  0  0
 14 15  2  0  0  0  0
 15 16  1  0  0  0  0
 15 18  1  0  0  0  0
 16 19  1  0  0  0  0
 17 20  1  0  0  0  0
 17 16  2  0  0  0  0
 21 27  1  0  0  0  0
 21 22  1  0  0  0  0
 22 28  1  0  0  0  0
 23 22  2  0  0  0  0
 23 13  1  0  0  0  0
 24 23  1  0  0  0  0
 25 26  1  0  0  0  0
 25 24  2  0  0  0  0
 26 21  2  0  0  0  0
 29 25  1  0  0  0  0
 30 33  1  0  0  0  0
 30 31  2  0  0  0  0
 30 32  2  0  0  0  0
 33 44  2  0  0  0  0
 33 34  1  0  0  0  0
 34 35  1  0  0  0  0
 34 36  2  0  0  0  0
 37 36  1  0  0  0  0
 37 38  1  0  0  0  0
 39 38  2  0  0  0  0
 39 40  1  0  0  0  0
 41 39  1  0  0  0  0
 42 43  1  0  0  0  0
 42 41  2  0  0  0  0
 43 37  2  0  0  0  0
 44 43  1  0  0  0  0
M  END
>  <minimizedAffinity>
-6.52844715

$$$$

 OpenBabel03252509103D

 44 48  0  0  0  0  0  0  0  0999 V2000
   37.1840   30.7670   40.0150 C   0  0  0  0  0  0  0  0  0  0  0  0
   38.1040   30.7770   41.0230 C   0  0  0  0  0  0  0  0  0  0  0  0
   38.7940   31.9430   41.3130 C   0  0  0  0  0  0  0  0  0  0  0  0
   38.5570   33.0890   40.5920 C   0  0  0  0  0  0  0  0  0  0  0  0
   37.6260   33.1220   39.5550 C   0  0  0  0  0  0  0  0  0  0  0  0
   36.9430   31.9320   39.2840 C   0  0  0  0  0  0  0  0  0  0  0  0
   39.5290   31.9750   42.1070 H   0  0  0  0  0  0  0  0  0  0  0  0
   39.0410   34.0280   40.7450 H   0  0  0  0  0  0  0  0  0  0  0  0
   37.3850   33.9660   38.9520 H   0  0  0  0  0  0  0  0  0  0  0  0
   36.2080   31.9250   38.4790 H   0  0  0  0  0  0  0  0  0  0  0  0
   41.2730   26.8650   42.1740 Cl  0  0  0  0  0  0  0  0  0  0  0  0
   39.8340   27.8270   42.3900 C   0  0  0  0  0  0  0  0  0  0  0  0
   39.5840   28.9100   41.6100 C   0  0  0  0  0  0  0  0  0  0  0  0
   38.4220   29.6210   41.8530 C   0  0  0  0  0  0  0  0  0  0  0  0
   37.5450   29.2610   42.8440 C   0  0  0  0  0  0  0  0  0  0  0  0
   37.8030   28.1740   43.6210 C   0  0  0  0  0  0  0  0  0  0  0  0
   38.9610   27.4570   43.3830 C   0  0  0  0  0  0  0  0  0  0  0  0
   36.6440   29.8330   43.0170 H   0  0  0  0  0  0  0  0  0  0  0  0
   37.1020   27.9120   44.3880 H   0  0  0  0  0  0  0  0  0  0  0  0
   39.1210   26.6000   44.0280 H   0  0  0  0  0  0  0  0  0  0  0  0
   41.3540   29.2090   38.2740 C   0  0  0  0  0  0  0  0  0  0  0  0
   40.4300   28.8510   39.2610 C   0  0  0  0  0  0  0  0  0  0  0  0
   40.5420   29.2740   40.5750 C   0  0  0  0  0  0  0  0  0  0  0  0
   41.6090   30.0450   40.7920 N   0  0  0  0  0  0  0  0  0  0  0  0
   42.5050   30.4020   39.8720 C   0  0  0  0  0  0  0  0  0  0  0  0
   42.3770   29.9860   38.6180 N   0  0  0  0  0  0  0  0  0  0  0  0
   41.2270   28.8600   37.2760 H   0  0  0  0  0  0  0  0  0  0  0  0
   39.5900   28.2120   38.9720 H   0  0  0  0  0  0  0  0  0  0  0  0
   43.2770   31.0330   40.3070 H   0  0  0  0  0  0  0  0  0  0  0  0
   36.3240   29.3740   39.6120 S   0  0  0  0  0  0  0  0  0  0  0  0
   35.2730   29.0710   40.7010 O   0  0  0  0  0  0  0  0  0  0  0  0
   35.4630   29.7640   38.3950 O   0  0  0  0  0  0  0  0  0  0  0  0
   36.9870   27.8290   39.3440 C   0  0  0  0  0  0  0  0  0  0  0  0
   37.6220   27.2750   38.2390 C   0  0  0  0  0  0  0  0  0  0  0  0
   37.7240   27.9360   37.3950 H   0  0  0  0  0  0  0  0  0  0  0  0
   38.0930   26.0090   38.0740 C   0  0  0  0  0  3  0  0  0  0  0  0
   37.9220   25.1570   39.1310 C   0  0  0  0  0  0  0  0  0  0  0  0
   38.3720   23.8920   39.0170 N   0  0  0  0  0  0  0  0  0  0  0  0
   38.2270   23.0030   40.0400 C   0  0  0  0  0  0  0  0  0  0  0  0
   38.6010   21.9940   39.9090 H   0  0  0  0  0  0  0  0  0  0  0  0
   37.6060   23.4000   41.2240 C   0  0  0  0  0  3  0  0  0  0  0  0
   37.1190   24.6970   41.4040 C   0  0  0  0  0  3  0  0  0  0  0  0
   37.3230   25.4990   40.3060 C   0  0  0  0  0  0  0  0  0  0  0  0
   36.8930   26.8120   40.3380 C   0  0  0  0  0  3  0  0  0  0  0  0
  1  2  1  0  0  0  0
  2  3  2  0  0  0  0
  2 14  1  0  0  0  0
  3  7  1  0  0  0  0
  4  8  1  0  0  0  0
  4  3  1  0  0  0  0
  5  4  2  0  0  0  0
  6  5  1  0  0  0  0
  6  1  2  0  0  0  0
  9  5  1  0  0  0  0
 10  6  1  0  0  0  0
 11 12  1  0  0  0  0
 12 17  1  0  0  0  0
 13 14  1  0  0  0  0
 13 12  2  0  0  0  0
 14 15  2  0  0  0  0
 15 18  1  0  0  0  0
 15 16  1  0  0  0  0
 16 19  1  0  0  0  0
 17 16  2  0  0  0  0
 17 20  1  0  0  0  0
 21 26  2  0  0  0  0
 21 22  1  0  0  0  0
 22 23  2  0  0  0  0
 23 24  1  0  0  0  0
 23 13  1  0  0  0  0
 25 29  1  0  0  0  0
 25 24  2  0  0  0  0
 26 25  1  0  0  0  0
 27 21  1  0  0  0  0
 28 22  1  0  0  0  0
 30  1  1  0  0  0  0
 30 31  2  0  0  0  0
 32 30  2  0  0  0  0
 33 30  1  0  0  0  0
 33 44  1  0  0  0  0
 34 33  2  0  0  0  0
 35 34  1  0  0  0  0
 36 34  1  0  0  0  0
 36 37  2  0  0  0  0
 37 43  1  0  0  0  0
 38 37  1  0  0  0  0
 38 39  2  0  0  0  0
 39 41  1  0  0  0  0
 40 39  1  0  0  0  0
 41 42  2  0  0  0  0
 43 44  2  0  0  0  0
 43 42  1  0  0  0  0
M  END
>  <minimizedAffinity>
-6.45915651

$$$$

 OpenBabel03252509103D

 44 48  0  0  0  0  0  0  0  0999 V2000
   36.1380   27.3530   39.2110 C   0  0  0  0  0  0  0  0  0  0  0  0
   36.7230   26.5780   40.1700 C   0  0  0  0  0  0  0  0  0  0  0  0
   36.7690   25.2030   40.0110 C   0  0  0  0  0  0  0  0  0  0  0  0
   36.2320   24.6150   38.8900 C   0  0  0  0  0  0  0  0  0  0  0  0
   35.6260   25.3690   37.8870 C   0  0  0  0  0  0  0  0  0  0  0  0
   35.5930   26.7540   38.0730 C   0  0  0  0  0  0  0  0  0  0  0  0
   37.2270   24.5690   40.7590 H   0  0  0  0  0  0  0  0  0  0  0  0
   36.2230   23.5670   38.6860 H   0  0  0  0  0  0  0  0  0  0  0  0
   35.1880   24.9900   36.9920 H   0  0  0  0  0  0  0  0  0  0  0  0
   35.1260   27.3720   37.3060 H   0  0  0  0  0  0  0  0  0  0  0  0
   40.9580   27.8420   42.8420 Cl  0  0  0  0  0  0  0  0  0  0  0  0
   39.2350   27.6730   42.6310 C   0  0  0  0  0  0  0  0  0  0  0  0
   38.7080   27.2000   41.4730 C   0  0  0  0  0  0  0  0  0  0  0  0
   37.3300   27.1030   41.3890 C   0  0  0  0  0  0  0  0  0  0  0  0
   36.5110   27.4710   42.4260 C   0  0  0  0  0  0  0  0  0  0  0  0
   37.0490   27.9430   43.5830 C   0  0  0  0  0  0  0  0  0  0  0  0
   38.4250   28.0410   43.6770 C   0  0  0  0  0  0  0  0  0  0  0  0
   35.4370   27.3880   42.3360 H   0  0  0  0  0  0  0  0  0  0  0  0
   36.3890   28.2220   44.3810 H   0  0  0  0  0  0  0  0  0  0  0  0
   38.8030   28.4220   44.6180 H   0  0  0  0  0  0  0  0  0  0  0  0
   40.8320   27.3470   38.3400 C   0  0  0  0  0  0  0  0  0  0  0  0
   39.9680   27.7100   39.3790 C   0  0  0  0  0  0  0  0  0  0  0  0
   39.6030   26.8310   40.3850 C   0  0  0  0  0  0  0  0  0  0  0  0
   40.1530   25.6220   40.2560 N   0  0  0  0  0  0  0  0  0  0  0  0
   40.9780   25.2500   39.2780 C   0  0  0  0  0  0  0  0  0  0  0  0
   41.3150   26.1090   38.3240 N   0  0  0  0  0  0  0  0  0  0  0  0
   41.0850   28.0570   37.5880 H   0  0  0  0  0  0  0  0  0  0  0  0
   39.5730   28.7310   39.3870 H   0  0  0  0  0  0  0  0  0  0  0  0
   41.2840   24.2130   39.4030 H   0  0  0  0  0  0  0  0  0  0  0  0
   36.0420   29.0300   39.3600 S   0  0  0  0  0  0  0  0  0  0  0  0
   35.5120   29.6440   38.0480 O   0  0  0  0  0  0  0  0  0  0  0  0
   34.8930   29.2860   40.3540 O   0  0  0  0  0  0  0  0  0  0  0  0
   37.3320   30.0790   39.7270 C   0  0  0  0  0  0  0  0  0  0  0  0
   37.7580   30.6330   40.9280 C   0  0  0  0  0  0  0  0  0  0  0  0
   37.1790   30.3500   41.7900 H   0  0  0  0  0  0  0  0  0  0  0  0
   38.7780   31.5070   41.1470 C   0  0  0  0  0  3  0  0  0  0  0  0
   39.4850   31.9020   40.0440 C   0  0  0  0  0  0  0  0  0  0  0  0
   40.5050   32.7660   40.2090 N   0  0  0  0  0  0  0  0  0  0  0  0
   41.2410   33.1910   39.1430 C   0  0  0  0  0  0  0  0  0  0  0  0
   42.0530   33.8870   39.3160 H   0  0  0  0  0  0  0  0  0  0  0  0
   40.9400   32.7300   37.8610 C   0  0  0  0  0  3  0  0  0  0  0  0
   39.8950   31.8330   37.6250 C   0  0  0  0  0  3  0  0  0  0  0  0
   39.2280   31.4790   38.7740 C   0  0  0  0  0  0  0  0  0  0  0  0
   38.1690   30.5960   38.6960 C   0  0  0  0  0  3  0  0  0  0  0  0
  1 30  1  0  0  0  0
  1  2  1  0  0  0  0
  2 14  1  0  0  0  0
  3  2  2  0  0  0  0
  3  7  1  0  0  0  0
  4  3  1  0  0  0  0
  5  6  1  0  0  0  0
  5  4  2  0  0  0  0
  6  1  2  0  0  0  0
  8  4  1  0  0  0  0
  9  5  1  0  0  0  0
 10  6  1  0  0  0  0
 12 11  1  0  0  0  0
 12 17  1  0  0  0  0
 13 12  2  0  0  0  0
 14 13  1  0  0  0  0
 14 15  2  0  0  0  0
 15 16  1  0  0  0  0
 16 17  2  0  0  0  0
 16 19  1  0  0  0  0
 17 20  1  0  0  0  0
 18 15  1  0  0  0  0
 21 22  1  0  0  0  0
 22 28  1  0  0  0  0
 22 23  2  0  0  0  0
 23 13  1  0  0  0  0
 24 23  1  0  0  0  0
 25 29  1  0  0  0  0
 25 24  2  0  0  0  0
 26 21  2  0  0  0  0
 26 25  1  0  0  0  0
 27 21  1  0  0  0  0
 30 33  1  0  0  0  0
 30 32  2  0  0  0  0
 31 30  2  0  0  0  0
 33 34  1  0  0  0  0
 34 36  2  0  0  0  0
 34 35  1  0  0  0  0
 37 38  1  0  0  0  0
 37 36  1  0  0  0  0
 39 40  1  0  0  0  0
 39 38  2  0  0  0  0
 41 39  1  0  0  0  0
 42 41  2  0  0  0  0
 42 43  1  0  0  0  0
 43 37  2  0  0  0  0
 44 43  1  0  0  0  0
 44 33  2  0  0  0  0
M  END
>  <minimizedAffinity>
-6.42189884

$$$$

 OpenBabel03252509103D

 44 48  0  0  0  0  0  0  0  0999 V2000
   37.0920   25.9580   39.8040 C   0  0  0  0  0  0  0  0  0  0  0  0
   36.9920   26.6380   40.9830 C   0  0  0  0  0  0  0  0  0  0  0  0
   36.9360   25.9400   42.1780 C   0  0  0  0  0  0  0  0  0  0  0  0
   36.9810   24.5650   42.1830 C   0  0  0  0  0  0  0  0  0  0  0  0
   37.0840   23.8320   41.0010 C   0  0  0  0  0  0  0  0  0  0  0  0
   37.1390   24.5630   39.8100 C   0  0  0  0  0  0  0  0  0  0  0  0
   36.8550   26.4570   43.1250 H   0  0  0  0  0  0  0  0  0  0  0  0
   36.9440   23.9480   43.0530 H   0  0  0  0  0  0  0  0  0  0  0  0
   37.1250   22.7710   40.9210 H   0  0  0  0  0  0  0  0  0  0  0  0
   37.2200   24.0180   38.8690 H   0  0  0  0  0  0  0  0  0  0  0  0
   39.3330   31.0890   42.1590 Cl  0  0  0  0  0  0  0  0  0  0  0  0
   37.9780   30.1280   41.6280 C   0  0  0  0  0  0  0  0  0  0  0  0
   38.0680   28.7770   41.5230 C   0  0  0  0  0  0  0  0  0  0  0  0
   36.9460   28.0930   41.0880 C   0  0  0  0  0  0  0  0  0  0  0  0
   35.7800   28.7390   40.7670 C   0  0  0  0  0  0  0  0  0  0  0  0
   35.6990   30.0930   40.8760 C   0  0  0  0  0  0  0  0  0  0  0  0
   36.8140   30.7850   41.3120 C   0  0  0  0  0  0  0  0  0  0  0  0
   34.9170   28.1830   40.4280 H   0  0  0  0  0  0  0  0  0  0  0  0
   34.7770   30.5750   40.6210 H   0  0  0  0  0  0  0  0  0  0  0  0
   36.6990   31.8600   41.3820 H   0  0  0  0  0  0  0  0  0  0  0  0
   40.9000   27.1820   43.4670 C   0  0  0  0  0  0  0  0  0  0  0  0
   39.6920   27.8150   43.1570 C   0  0  0  0  0  0  0  0  0  0  0  0
   39.3240   28.1220   41.8580 C   0  0  0  0  0  0  0  0  0  0  0  0
   40.2330   27.7570   40.9520 N   0  0  0  0  0  0  0  0  0  0  0  0
   41.3910   27.1530   41.2190 C   0  0  0  0  0  0  0  0  0  0  0  0
   41.7230   26.8680   42.4720 N   0  0  0  0  0  0  0  0  0  0  0  0
   41.1410   26.9660   44.4820 H   0  0  0  0  0  0  0  0  0  0  0  0
   39.0180   28.0710   43.9810 H   0  0  0  0  0  0  0  0  0  0  0  0
   41.9490   26.9640   40.3040 H   0  0  0  0  0  0  0  0  0  0  0  0
   37.1520   26.7570   38.3210 S   0  0  0  0  0  0  0  0  0  0  0  0
   37.9660   25.9250   37.3080 O   0  0  0  0  0  0  0  0  0  0  0  0
   35.7180   26.6830   37.7600 O   0  0  0  0  0  0  0  0  0  0  0  0
   37.7690   28.3200   38.0480 C   0  0  0  0  0  0  0  0  0  0  0  0
   37.1460   29.5120   37.6990 C   0  0  0  0  0  0  0  0  0  0  0  0
   36.0770   29.4480   37.5840 H   0  0  0  0  0  0  0  0  0  0  0  0
   37.7080   30.7260   37.4510 C   0  0  0  0  0  3  0  0  0  0  0  0
   39.0710   30.7940   37.5530 C   0  0  0  0  0  0  0  0  0  0  0  0
   39.6750   31.9750   37.3180 N   0  0  0  0  0  0  0  0  0  0  0  0
   41.0310   32.0970   37.4060 C   0  0  0  0  0  0  0  0  0  0  0  0
   41.4800   33.0630   37.2080 H   0  0  0  0  0  0  0  0  0  0  0  0
   41.8080   30.9900   37.7450 C   0  0  0  0  0  3  0  0  0  0  0  0
   41.2410   29.7380   38.0010 C   0  0  0  0  0  3  0  0  0  0  0  0
   39.8720   29.7410   37.8810 C   0  0  0  0  0  0  0  0  0  0  0  0
   39.1710   28.5720   38.1060 C   0  0  0  0  0  3  0  0  0  0  0  0
  1  6  2  0  0  0  0
  1  2  1  0  0  0  0
  2 14  1  0  0  0  0
  2  3  2  0  0  0  0
  3  4  1  0  0  0  0
  3  7  1  0  0  0  0
  4  8  1  0  0  0  0
  5  4  2  0  0  0  0
  6  5  1  0  0  0  0
  9  5  1  0  0  0  0
 10  6  1  0  0  0  0
 12 11  1  0  0  0  0
 13 12  1  0  0  0  0
 13 23  1  0  0  0  0
 14 13  2  0  0  0  0
 15 16  2  0  0  0  0
 15 14  1  0  0  0  0
 16 17  1  0  0  0  0
 17 20  1  0  0  0  0
 17 12  2  0  0  0  0
 18 15  1  0  0  0  0
 19 16  1  0  0  0  0
 21 27  1  0  0  0  0
 22 21  1  0  0  0  0
 22 28  1  0  0  0  0
 23 22  2  0  0  0  0
 24 25  2  0  0  0  0
 24 23  1  0  0  0  0
 25 26  1  0  0  0  0
 26 21  2  0  0  0  0
 29 25  1  0  0  0  0
 30  1  1  0  0  0  0
 31 30  2  0  0  0  0
 32 30  2  0  0  0  0
 33 44  1  0  0  0  0
 33 30  1  0  0  0  0
 34 33  2  0  0  0  0
 35 34  1  0  0  0  0
 36 37  2  0  0  0  0
 36 34  1  0  0  0  0
 37 43  1  0  0  0  0
 38 39  2  0  0  0  0
 38 37  1  0  0  0  0
 39 41  1  0  0  0  0
 40 39  1  0  0  0  0
 41 42  2  0  0  0  0
 43 42  1  0  0  0  0
 43 44  2  0  0  0  0
M  END
>  <minimizedAffinity>
-6.42146683

$$$$

 OpenBabel03252509103D

 44 48  0  0  0  0  0  0  0  0999 V2000
   38.1710   26.5400   41.8730 C   0  0  0  0  0  0  0  0  0  0  0  0
   37.2910   26.6050   40.8330 C   0  0  0  0  0  0  0  0  0  0  0  0
   36.7910   25.4380   40.2790 C   0  0  0  0  0  0  0  0  0  0  0  0
   37.1770   24.2140   40.7720 C   0  0  0  0  0  0  0  0  0  0  0  0
   38.0730   24.1020   41.8330 C   0  0  0  0  0  0  0  0  0  0  0  0
   38.5620   25.2960   42.3740 C   0  0  0  0  0  0  0  0  0  0  0  0
   36.0930   25.4660   39.4520 H   0  0  0  0  0  0  0  0  0  0  0  0
   36.8440   23.2670   40.4080 H   0  0  0  0  0  0  0  0  0  0  0  0
   38.4200   23.1950   42.2720 H   0  0  0  0  0  0  0  0  0  0  0  0
   39.2640   25.2420   43.2060 H   0  0  0  0  0  0  0  0  0  0  0  0
   37.5300   30.1220   37.0570 Cl  0  0  0  0  0  0  0  0  0  0  0  0
   36.9070   29.4710   38.5510 C   0  0  0  0  0  0  0  0  0  0  0  0
   37.3650   28.2970   39.0560 C   0  0  0  0  0  0  0  0  0  0  0  0
   36.8110   27.8510   40.2430 C   0  0  0  0  0  0  0  0  0  0  0  0
   35.8320   28.5540   40.8970 C   0  0  0  0  0  0  0  0  0  0  0  0
   35.3800   29.7300   40.3840 C   0  0  0  0  0  0  0  0  0  0  0  0
   35.9290   30.1850   39.1990 C   0  0  0  0  0  0  0  0  0  0  0  0
   35.4130   28.1840   41.8230 H   0  0  0  0  0  0  0  0  0  0  0  0
   34.6160   30.2630   40.9140 H   0  0  0  0  0  0  0  0  0  0  0  0
   35.5360   31.1250   38.8320 H   0  0  0  0  0  0  0  0  0  0  0  0
   39.1100   26.0140   36.5890 C   0  0  0  0  0  0  0  0  0  0  0  0
   38.1130   26.7080   37.2820 C   0  0  0  0  0  0  0  0  0  0  0  0
   38.3950   27.5670   38.3300 C   0  0  0  0  0  0  0  0  0  0  0  0
   39.6980   27.6570   38.6030 N   0  0  0  0  0  0  0  0  0  0  0  0
   40.6680   27.0080   37.9600 C   0  0  0  0  0  0  0  0  0  0  0  0
   40.3760   26.1900   36.9570 N   0  0  0  0  0  0  0  0  0  0  0  0
   38.8460   25.3620   35.7880 H   0  0  0  0  0  0  0  0  0  0  0  0
   37.0730   26.5580   36.9740 H   0  0  0  0  0  0  0  0  0  0  0  0
   41.6430   27.2560   38.3770 H   0  0  0  0  0  0  0  0  0  0  0  0
   38.8190   27.9280   42.5770 S   0  0  0  0  0  0  0  0  0  0  0  0
   37.7350   28.6550   43.4000 O   0  0  0  0  0  0  0  0  0  0  0  0
   39.7950   27.4200   43.6570 O   0  0  0  0  0  0  0  0  0  0  0  0
   39.5430   29.2270   41.7490 C   0  0  0  0  0  0  0  0  0  0  0  0
   40.8210   29.3960   41.2320 C   0  0  0  0  0  0  0  0  0  0  0  0
   41.4820   28.5560   41.3690 H   0  0  0  0  0  0  0  0  0  0  0  0
   41.3530   30.4860   40.6150 C   0  0  0  0  0  3  0  0  0  0  0  0
   40.5280   31.5690   40.4820 C   0  0  0  0  0  0  0  0  0  0  0  0
   41.0070   32.6730   39.8770 N   0  0  0  0  0  0  0  0  0  0  0  0
   40.2260   33.7800   39.7190 C   0  0  0  0  0  0  0  0  0  0  0  0
   40.6480   34.6490   39.2280 H   0  0  0  0  0  0  0  0  0  0  0  0
   38.9120   33.7760   40.1860 C   0  0  0  0  0  3  0  0  0  0  0  0
   38.3560   32.6630   40.8220 C   0  0  0  0  0  3  0  0  0  0  0  0
   39.2380   31.6130   40.9220 C   0  0  0  0  0  0  0  0  0  0  0  0
   38.8290   30.4400   41.5270 C   0  0  0  0  0  3  0  0  0  0  0  0
  1  6  1  0  0  0  0
  1 30  1  0  0  0  0
  2  1  2  0  0  0  0
  3  4  2  0  0  0  0
  3  2  1  0  0  0  0
  4  5  1  0  0  0  0
  5  9  1  0  0  0  0
  5  6  2  0  0  0  0
  6 10  1  0  0  0  0
  7  3  1  0  0  0  0
  8  4  1  0  0  0  0
 11 12  1  0  0  0  0
 12 13  2  0  0  0  0
 12 17  1  0  0  0  0
 13 14  1  0  0  0  0
 14  2  1  0  0  0  0
 14 15  2  0  0  0  0
 15 18  1  0  0  0  0
 16 15  1  0  0  0  0
 16 19  1  0  0  0  0
 17 16  2  0  0  0  0
 20 17  1  0  0  0  0
 21 26  2  0  0  0  0
 21 22  1  0  0  0  0
 22 23  2  0  0  0  0
 23 24  1  0  0  0  0
 23 13  1  0  0  0  0
 25 29  1  0  0  0  0
 25 24  2  0  0  0  0
 26 25  1  0  0  0  0
 27 21  1  0  0  0  0
 28 22  1  0  0  0  0
 30 31  2  0  0  0  0
 30 32  2  0  0  0  0
 33 30  1  0  0  0  0
 34 35  1  0  0  0  0
 34 33  2  0  0  0  0
 36 34  1  0  0  0  0
 37 36  2  0  0  0  0
 37 43  1  0  0  0  0
 38 37  1  0  0  0  0
 39 38  2  0  0  0  0
 39 41  1  0  0  0  0
 40 39  1  0  0  0  0
 41 42  2  0  0  0  0
 42 43  1  0  0  0  0
 43 44  2  0  0  0  0
 44 33  1  0  0  0  0
M  END
>  <minimizedAffinity>
-6.37487268

$$$$

 OpenBabel03252509103D

 44 48  0  0  0  0  0  0  0  0999 V2000
   37.9320   26.1400   37.5470 C   0  0  0  0  0  0  0  0  0  0  0  0
   37.0110   26.0240   38.5480 C   0  0  0  0  0  0  0  0  0  0  0  0
   36.4850   24.7810   38.8580 C   0  0  0  0  0  0  0  0  0  0  0  0
   36.8860   23.6640   38.1650 C   0  0  0  0  0  0  0  0  0  0  0  0
   37.8240   23.7380   37.1370 C   0  0  0  0  0  0  0  0  0  0  0  0
   38.3390   25.0040   36.8440 C   0  0  0  0  0  0  0  0  0  0  0  0
   35.7530   24.6660   39.6470 H   0  0  0  0  0  0  0  0  0  0  0  0
   36.5340   22.6700   38.3360 H   0  0  0  0  0  0  0  0  0  0  0  0
   38.1850   22.9220   36.5550 H   0  0  0  0  0  0  0  0  0  0  0  0
   39.0750   25.0950   36.0450 H   0  0  0  0  0  0  0  0  0  0  0  0
   37.0940   28.6960   42.9670 Cl  0  0  0  0  0  0  0  0  0  0  0  0
   36.5330   28.3680   41.3480 C   0  0  0  0  0  0  0  0  0  0  0  0
   37.0240   27.3280   40.6270 C   0  0  0  0  0  0  0  0  0  0  0  0
   36.5280   27.1440   39.3490 C   0  0  0  0  0  0  0  0  0  0  0  0
   35.5770   27.9740   38.8120 C   0  0  0  0  0  0  0  0  0  0  0  0
   35.0900   29.0140   39.5420 C   0  0  0  0  0  0  0  0  0  0  0  0
   35.5790   29.2040   40.8220 C   0  0  0  0  0  0  0  0  0  0  0  0
   35.2060   27.8110   37.8090 H   0  0  0  0  0  0  0  0  0  0  0  0
   34.3460   29.6480   39.1020 H   0  0  0  0  0  0  0  0  0  0  0  0
   35.1600   30.0440   41.3620 H   0  0  0  0  0  0  0  0  0  0  0  0
   38.7280   24.5630   42.5770 C   0  0  0  0  0  0  0  0  0  0  0  0
   37.7410   25.3800   42.0140 C   0  0  0  0  0  0  0  0  0  0  0  0
   38.0430   26.4730   41.2200 C   0  0  0  0  0  0  0  0  0  0  0  0
   39.3540   26.6590   41.0530 N   0  0  0  0  0  0  0  0  0  0  0  0
   40.3140   25.8970   41.5760 C   0  0  0  0  0  0  0  0  0  0  0  0
   40.0020   24.8540   42.3350 N   0  0  0  0  0  0  0  0  0  0  0  0
   38.4480   23.7320   43.1820 H   0  0  0  0  0  0  0  0  0  0  0  0
   36.6940   25.1360   42.2170 H   0  0  0  0  0  0  0  0  0  0  0  0
   41.2980   26.2630   41.2890 H   0  0  0  0  0  0  0  0  0  0  0  0
   38.5960   27.6300   37.1190 S   0  0  0  0  0  0  0  0  0  0  0  0
   39.9720   27.4200   36.4520 O   0  0  0  0  0  0  0  0  0  0  0  0
   37.7230   28.1470   35.9590 O   0  0  0  0  0  0  0  0  0  0  0  0
   38.9270   28.9210   38.1780 C   0  0  0  0  0  0  0  0  0  0  0  0
   39.8830   29.0780   39.1730 C   0  0  0  0  0  0  0  0  0  0  0  0
   40.5450   28.2380   39.3040 H   0  0  0  0  0  0  0  0  0  0  0  0
   40.0670   30.1270   40.0200 C   0  0  0  0  0  3  0  0  0  0  0  0
   39.1980   31.1750   39.8830 C   0  0  0  0  0  0  0  0  0  0  0  0
   39.3380   32.2380   40.6980 N   0  0  0  0  0  0  0  0  0  0  0  0
   38.4980   33.3080   40.6030 C   0  0  0  0  0  0  0  0  0  0  0  0
   38.6440   34.1440   41.2770 H   0  0  0  0  0  0  0  0  0  0  0  0
   37.4780   33.3090   39.6530 C   0  0  0  0  0  3  0  0  0  0  0  0
   37.2800   32.2370   38.7790 C   0  0  0  0  0  3  0  0  0  0  0  0
   38.1860   31.2210   38.9700 C   0  0  0  0  0  0  0  0  0  0  0  0
   38.1150   30.0920   38.1770 C   0  0  0  0  0  3  0  0  0  0  0  0
  1  2  1  0  0  0  0
  2  3  2  0  0  0  0
  2 14  1  0  0  0  0
  3  7  1  0  0  0  0
  4  8  1  0  0  0  0
  4  3  1  0  0  0  0
  5  4  2  0  0  0  0
  6  5  1  0  0  0  0
  6  1  2  0  0  0  0
  9  5  1  0  0  0  0
 10  6  1  0  0  0  0
 12 11  1  0  0  0  0
 13 23  1  0  0  0  0
 13 12  2  0  0  0  0
 14 13  1  0  0  0  0
 15 14  2  0  0  0  0
 15 16  1  0  0  0  0
 16 17  2  0  0  0  0
 17 12  1  0  0  0  0
 17 20  1  0  0  0  0
 18 15  1  0  0  0  0
 19 16  1  0  0  0  0
 21 27  1  0  0  0  0
 22 28  1  0  0  0  0
 22 21  2  0  0  0  0
 23 22  1  0  0  0  0
 24 23  2  0  0  0  0
 24 25  1  0  0  0  0
 25 26  2  0  0  0  0
 26 21  1  0  0  0  0
 29 25  1  0  0  0  0
 30  1  1  0  0  0  0
 30 33  1  0  0  0  0
 31 30  2  0  0  0  0
 32 30  2  0  0  0  0
 33 34  1  0  0  0  0
 34 35  1  0  0  0  0
 34 36  2  0  0  0  0
 37 36  1  0  0  0  0
 37 38  1  0  0  0  0
 39 38  2  0  0  0  0
 39 40  1  0  0  0  0
 41 39  1  0  0  0  0
 42 43  1  0  0  0  0
 42 41  2  0  0  0  0
 43 37  2  0  0  0  0
 44 33  2  0  0  0  0
 44 43  1  0  0  0  0
M  END
>  <minimizedAffinity>
-6.32863903

$$$$

 OpenBabel03252509103D

 44 48  0  0  0  0  0  0  0  0999 V2000
   36.6200   29.4830   39.3760 C   0  0  0  0  0  0  0  0  0  0  0  0
   36.7300   28.2150   39.8690 C   0  0  0  0  0  0  0  0  0  0  0  0
   36.2780   27.1430   39.1170 C   0  0  0  0  0  0  0  0  0  0  0  0
   35.7210   27.3480   37.8770 C   0  0  0  0  0  0  0  0  0  0  0  0
   35.5900   28.6260   37.3370 C   0  0  0  0  0  0  0  0  0  0  0  0
   36.0540   29.6900   38.1160 C   0  0  0  0  0  0  0  0  0  0  0  0
   36.3540   26.1280   39.4890 H   0  0  0  0  0  0  0  0  0  0  0  0
   35.3470   26.5840   37.2320 H   0  0  0  0  0  0  0  0  0  0  0  0
   35.1720   28.8680   36.3870 H   0  0  0  0  0  0  0  0  0  0  0  0
   35.9670   30.7030   37.7210 H   0  0  0  0  0  0  0  0  0  0  0  0
   40.7240   26.4680   42.6380 Cl  0  0  0  0  0  0  0  0  0  0  0  0
   39.1040   27.0860   42.4480 C   0  0  0  0  0  0  0  0  0  0  0  0
   38.6050   27.3980   41.2240 C   0  0  0  0  0  0  0  0  0  0  0  0
   37.3130   27.8890   41.1660 C   0  0  0  0  0  0  0  0  0  0  0  0
   36.5500   28.0630   42.2920 C   0  0  0  0  0  0  0  0  0  0  0  0
   37.0580   27.7470   43.5140 C   0  0  0  0  0  0  0  0  0  0  0  0
   38.3480   27.2540   43.5820 C   0  0  0  0  0  0  0  0  0  0  0  0
   35.5430   28.4500   42.2220 H   0  0  0  0  0  0  0  0  0  0  0  0
   36.4420   27.8900   44.3800 H   0  0  0  0  0  0  0  0  0  0  0  0
   38.7060   27.0170   44.5770 H   0  0  0  0  0  0  0  0  0  0  0  0
   41.0350   28.0380   38.3900 C   0  0  0  0  0  0  0  0  0  0  0  0
   40.2300   28.2260   39.5190 C   0  0  0  0  0  0  0  0  0  0  0  0
   39.4450   27.2150   40.0490 C   0  0  0  0  0  0  0  0  0  0  0  0
   39.5390   26.0660   39.3780 N   0  0  0  0  0  0  0  0  0  0  0  0
   40.2980   25.8600   38.3020 C   0  0  0  0  0  0  0  0  0  0  0  0
   41.0430   26.8420   37.8110 N   0  0  0  0  0  0  0  0  0  0  0  0
   41.6230   28.8450   38.0170 H   0  0  0  0  0  0  0  0  0  0  0  0
   40.2280   29.2120   39.9920 H   0  0  0  0  0  0  0  0  0  0  0  0
   40.1950   24.8370   37.9450 H   0  0  0  0  0  0  0  0  0  0  0  0
   37.1420   30.8250   40.2530 S   0  0  0  0  0  0  0  0  0  0  0  0
   37.0010   32.1000   39.3950 O   0  0  0  0  0  0  0  0  0  0  0  0
   36.0840   31.0280   41.3550 O   0  0  0  0  0  0  0  0  0  0  0  0
   38.6890   31.0420   40.9280 C   0  0  0  0  0  0  0  0  0  0  0  0
   39.2020   30.7310   42.1820 C   0  0  0  0  0  0  0  0  0  0  0  0
   38.5040   30.2620   42.8540 H   0  0  0  0  0  0  0  0  0  0  0  0
   40.4460   30.9730   42.6770 C   0  0  0  0  0  3  0  0  0  0  0  0
   41.3190   31.6100   41.8360 C   0  0  0  0  0  0  0  0  0  0  0  0
   42.5630   31.8720   42.2790 N   0  0  0  0  0  0  0  0  0  0  0  0
   43.4710   32.5040   41.4820 C   0  0  0  0  0  0  0  0  0  0  0  0
   44.4620   32.6970   41.8750 H   0  0  0  0  0  0  0  0  0  0  0  0
   43.1140   32.8870   40.1900 C   0  0  0  0  0  3  0  0  0  0  0  0
   41.8390   32.6440   39.6720 C   0  0  0  0  0  3  0  0  0  0  0  0
   41.0160   32.0030   40.5670 C   0  0  0  0  0  0  0  0  0  0  0  0
   39.7210   31.6950   40.1940 C   0  0  0  0  0  3  0  0  0  0  0  0
  1  2  1  0  0  0  0
  1 30  1  0  0  0  0
  2 14  1  0  0  0  0
  3  7  1  0  0  0  0
  3  2  2  0  0  0  0
  4  3  1  0  0  0  0
  5  4  2  0  0  0  0
  5  6  1  0  0  0  0
  6  1  2  0  0  0  0
  8  4  1  0  0  0  0
  9  5  1  0  0  0  0
 10  6  1  0  0  0  0
 12 11  1  0  0  0  0
 12 17  1  0  0  0  0
 13 12  2  0  0  0  0
 14 13  1  0  0  0  0
 14 15  2  0  0  0  0
 15 16  1  0  0  0  0
 16 17  2  0  0  0  0
 16 19  1  0  0  0  0
 17 20  1  0  0  0  0
 18 15  1  0  0  0  0
 21 22  1  0  0  0  0
 22 28  1  0  0  0  0
 22 23  2  0  0  0  0
 23 13  1  0  0  0  0
 24 23  1  0  0  0  0
 25 24  2  0  0  0  0
 26 25  1  0  0  0  0
 26 21  2  0  0  0  0
 27 21  1  0  0  0  0
 29 25  1  0  0  0  0
 30 33  1  0  0  0  0
 30 32  2  0  0  0  0
 31 30  2  0  0  0  0
 33 34  1  0  0  0  0
 34 36  2  0  0  0  0
 34 35  1  0  0  0  0
 37 38  1  0  0  0  0
 37 36  1  0  0  0  0
 39 40  1  0  0  0  0
 39 38  2  0  0  0  0
 41 39  1  0  0  0  0
 42 41  2  0  0  0  0
 42 43  1  0  0  0  0
 43 37  2  0  0  0  0
 44 43  1  0  0  0  0
 44 33  2  0  0  0  0
M  END
>  <minimizedAffinity>
-6.31004763

$$$$
