
 OpenBabel03252505223D

 31 34  0  0  0  0  0  0  0  0999 V2000
   38.8590   27.5470   40.2890 F   0  0  0  0  0  0  0  0  0  0  0  0
   38.2180   27.6530   41.4750 C   0  0  0  0  0  0  0  0  0  0  0  0
   37.4040   26.6140   41.8760 C   0  0  0  0  0  0  0  0  0  0  0  0
   36.7520   26.7180   43.0770 C   0  0  0  0  0  0  0  0  0  0  0  0
   36.9060   27.8380   43.8670 C   0  0  0  0  0  0  0  0  0  0  0  0
   37.7090   28.8770   43.4840 C   0  0  0  0  0  0  0  0  0  0  0  0
   38.3790   28.7700   42.2490 C   0  0  0  0  0  0  0  0  0  0  0  0
   36.1160   25.8970   43.3820 H   0  0  0  0  0  0  0  0  0  0  0  0
   36.3840   27.9040   44.8130 H   0  0  0  0  0  0  0  0  0  0  0  0
   37.8210   29.7550   44.1180 H   0  0  0  0  0  0  0  0  0  0  0  0
   39.2120   29.8810   41.8810 C   0  0  0  0  0  0  0  0  0  0  0  0
   40.5870   29.9010   41.9730 C   0  0  0  0  0  0  0  0  0  0  0  0
   41.0480   28.9790   42.3590 H   0  0  0  0  0  0  0  0  0  0  0  0
   41.3470   31.0060   41.6020 C   0  0  0  0  0  3  0  0  0  0  0  0
   40.6990   32.1270   41.1250 C   0  0  0  0  0  0  0  0  0  0  0  0
   41.4130   33.2180   40.7560 N   0  0  0  0  0  0  0  0  0  0  0  0
   40.7610   34.3010   40.2930 C   0  0  0  0  0  0  0  0  0  0  0  0
   41.3180   35.1830   39.9940 H   0  0  0  0  0  0  0  0  0  0  0  0
   39.3780   34.3820   40.1640 C   0  0  0  0  0  3  0  0  0  0  0  0
   38.6410   33.2750   40.5360 C   0  0  0  0  0  3  0  0  0  0  0  0
   39.3210   32.1710   41.0090 C   0  0  0  0  0  0  0  0  0  0  0  0
   38.6120   31.0380   41.3950 C   0  0  0  0  0  3  0  0  0  0  0  0
   37.7170   23.1990   40.6150 C   0  0  0  0  0  0  0  0  0  0  0  0
   36.9430   23.2200   39.4270 C   0  0  0  0  0  0  0  0  0  0  0  0
   36.3280   24.4250   39.0920 C   0  0  0  0  0  0  0  0  0  0  0  0
   36.5070   25.5050   39.9210 N   0  0  0  0  0  0  0  0  0  0  0  0
   37.2490   25.4390   41.0340 C   0  0  0  0  0  0  0  0  0  0  0  0
   37.8500   24.2900   41.3780 N   0  0  0  0  0  0  0  0  0  0  0  0
   38.1770   22.2450   40.8400 H   0  0  0  0  0  0  0  0  0  0  0  0
   36.7970   22.3820   38.7750 H   0  0  0  0  0  0  0  0  0  0  0  0
   35.7140   24.5880   38.2240 H   0  0  0  0  0  0  0  0  0  0  0  0
  1  2  1  0  0  0  0
  2  3  2  0  0  0  0
  2  7  1  0  0  0  0
  3  4  1  0  0  0  0
  4  8  1  0  0  0  0
  4  5  2  0  0  0  0
  5  9  1  0  0  0  0
  6  5  1  0  0  0  0
  6 10  1  0  0  0  0
  7  6  2  0  0  0  0
 11 12  1  0  0  0  0
 11  7  1  0  0  0  0
 12 13  1  0  0  0  0
 14 12  2  0  0  0  0
 15 14  1  0  0  0  0
 16 15  2  0  0  0  0
 17 16  1  0  0  0  0
 18 17  1  0  0  0  0
 19 17  2  0  0  0  0
 19 20  1  0  0  0  0
 20 21  2  0  0  0  0
 21 15  1  0  0  0  0
 21 22  1  0  0  0  0
 22 11  2  0  0  0  0
 23 29  1  0  0  0  0
 23 28  1  0  0  0  0
 24 23  2  0  0  0  0
 25 24  1  0  0  0  0
 25 26  2  0  0  0  0
 26 27  1  0  0  0  0
 27 28  2  0  0  0  0
 27  3  1  0  0  0  0
 30 24  1  0  0  0  0
 31 25  1  0  0  0  0
M  END
>  <minimizedAffinity>
-6.0646677

$$$$

 OpenBabel03252505223D

 31 34  0  0  0  0  0  0  0  0999 V2000
   32.8650   29.2370   38.9520 F   0  0  0  0  0  0  0  0  0  0  0  0
   33.6880   29.1810   37.8810 C   0  0  0  0  0  0  0  0  0  0  0  0
   33.1240   29.1320   36.6220 C   0  0  0  0  0  0  0  0  0  0  0  0
   33.9540   29.0730   35.5340 C   0  0  0  0  0  0  0  0  0  0  0  0
   35.3250   29.0630   35.6930 C   0  0  0  0  0  0  0  0  0  0  0  0
   35.8990   29.1100   36.9330 C   0  0  0  0  0  0  0  0  0  0  0  0
   35.0450   29.1700   38.0530 C   0  0  0  0  0  0  0  0  0  0  0  0
   33.5010   29.0350   34.5520 H   0  0  0  0  0  0  0  0  0  0  0  0
   35.9660   29.0160   34.8220 H   0  0  0  0  0  0  0  0  0  0  0  0
   36.9820   29.1020   37.0440 H   0  0  0  0  0  0  0  0  0  0  0  0
   35.6860   29.2190   39.3370 C   0  0  0  0  0  0  0  0  0  0  0  0
   35.9530   30.3730   40.0430 C   0  0  0  0  0  0  0  0  0  0  0  0
   35.6370   31.3080   39.5570 H   0  0  0  0  0  0  0  0  0  0  0  0
   36.5780   30.3630   41.2870 C   0  0  0  0  0  3  0  0  0  0  0  0
   36.9450   29.1510   41.8350 C   0  0  0  0  0  0  0  0  0  0  0  0
   37.5550   29.1090   43.0440 N   0  0  0  0  0  0  0  0  0  0  0  0
   37.9040   27.9170   43.5610 C   0  0  0  0  0  0  0  0  0  0  0  0
   38.3940   27.8670   44.5280 H   0  0  0  0  0  0  0  0  0  0  0  0
   37.6810   26.6980   42.9290 C   0  0  0  0  0  3  0  0  0  0  0  0
   37.0600   26.7280   41.6960 C   0  0  0  0  0  3  0  0  0  0  0  0
   36.7050   27.9570   41.1770 C   0  0  0  0  0  0  0  0  0  0  0  0
   36.0780   28.0260   39.9370 C   0  0  0  0  0  3  0  0  0  0  0  0
   29.6630   30.3010   36.5550 C   0  0  0  0  0  0  0  0  0  0  0  0
   28.9370   29.1450   36.1670 C   0  0  0  0  0  0  0  0  0  0  0  0
   29.6720   27.9830   35.9370 C   0  0  0  0  0  0  0  0  0  0  0  0
   31.0350   28.0270   36.0990 N   0  0  0  0  0  0  0  0  0  0  0  0
   31.6790   29.1420   36.4670 C   0  0  0  0  0  0  0  0  0  0  0  0
   30.9940   30.2740   36.6940 N   0  0  0  0  0  0  0  0  0  0  0  0
   29.0560   31.1820   36.7230 H   0  0  0  0  0  0  0  0  0  0  0  0
   27.8750   29.1030   36.0380 H   0  0  0  0  0  0  0  0  0  0  0  0
   29.2590   27.0360   35.6390 H   0  0  0  0  0  0  0  0  0  0  0  0
  2  7  1  0  0  0  0
  2  1  1  0  0  0  0
  3  2  2  0  0  0  0
  4  5  2  0  0  0  0
  4  3  1  0  0  0  0
  5  6  1  0  0  0  0
  6 10  1  0  0  0  0
  6  7  2  0  0  0  0
  7 11  1  0  0  0  0
  8  4  1  0  0  0  0
  9  5  1  0  0  0  0
 11 22  2  0  0  0  0
 11 12  1  0  0  0  0
 12 14  2  0  0  0  0
 13 12  1  0  0  0  0
 14 15  1  0  0  0  0
 15 16  1  0  0  0  0
 16 17  2  0  0  0  0
 17 18  1  0  0  0  0
 19 17  1  0  0  0  0
 20 19  2  0  0  0  0
 21 20  1  0  0  0  0
 21 15  2  0  0  0  0
 22 21  1  0  0  0  0
 23 28  1  0  0  0  0
 23 29  1  0  0  0  0
 24 23  2  0  0  0  0
 25 26  2  0  0  0  0
 25 24  1  0  0  0  0
 26 27  1  0  0  0  0
 27  3  1  0  0  0  0
 27 28  2  0  0  0  0
 30 24  1  0  0  0  0
 31 25  1  0  0  0  0
M  END
>  <minimizedAffinity>
-5.98817158

$$$$

 OpenBabel03252505223D

 31 34  0  0  0  0  0  0  0  0999 V2000
   38.0370   27.8760   39.8710 F   0  0  0  0  0  0  0  0  0  0  0  0
   37.7010   27.8380   41.1810 C   0  0  0  0  0  0  0  0  0  0  0  0
   37.3880   26.6170   41.7430 C   0  0  0  0  0  0  0  0  0  0  0  0
   37.0460   26.5750   43.0690 C   0  0  0  0  0  0  0  0  0  0  0  0
   37.0140   27.7280   43.8250 C   0  0  0  0  0  0  0  0  0  0  0  0
   37.3210   28.9450   43.2830 C   0  0  0  0  0  0  0  0  0  0  0  0
   37.6730   28.9890   41.9190 C   0  0  0  0  0  0  0  0  0  0  0  0
   36.8030   25.6120   43.4990 H   0  0  0  0  0  0  0  0  0  0  0  0
   36.7420   27.6760   44.8720 H   0  0  0  0  0  0  0  0  0  0  0  0
   37.2920   29.8470   43.8920 H   0  0  0  0  0  0  0  0  0  0  0  0
   37.9880   30.2850   41.3870 C   0  0  0  0  0  0  0  0  0  0  0  0
   37.0790   31.1410   40.8020 C   0  0  0  0  0  0  0  0  0  0  0  0
   36.0440   30.7710   40.7560 H   0  0  0  0  0  0  0  0  0  0  0  0
   37.4390   32.3890   40.3010 C   0  0  0  0  0  3  0  0  0  0  0  0
   38.7580   32.7850   40.3940 C   0  0  0  0  0  0  0  0  0  0  0  0
   39.1390   33.9950   39.9160 N   0  0  0  0  0  0  0  0  0  0  0  0
   40.4290   34.3620   40.0160 C   0  0  0  0  0  0  0  0  0  0  0  0
   40.7500   35.3270   39.6380 H   0  0  0  0  0  0  0  0  0  0  0  0
   41.4220   33.5720   40.5870 C   0  0  0  0  0  3  0  0  0  0  0  0
   41.0450   32.3380   41.0790 C   0  0  0  0  0  3  0  0  0  0  0  0
   39.7180   31.9730   40.9700 C   0  0  0  0  0  0  0  0  0  0  0  0
   39.3020   30.7360   41.4530 C   0  0  0  0  0  3  0  0  0  0  0  0
   38.4550   23.3970   40.3840 C   0  0  0  0  0  0  0  0  0  0  0  0
   37.4760   23.1220   39.3950 C   0  0  0  0  0  0  0  0  0  0  0  0
   36.4640   24.0660   39.2250 C   0  0  0  0  0  0  0  0  0  0  0  0
   36.4770   25.1900   40.0130 N   0  0  0  0  0  0  0  0  0  0  0  0
   37.4240   25.4090   40.9350 C   0  0  0  0  0  0  0  0  0  0  0  0
   38.4080   24.5150   41.1180 N   0  0  0  0  0  0  0  0  0  0  0  0
   39.2230   22.6400   40.4850 H   0  0  0  0  0  0  0  0  0  0  0  0
   37.4580   22.2470   38.7770 H   0  0  0  0  0  0  0  0  0  0  0  0
   35.6590   23.9910   38.5160 H   0  0  0  0  0  0  0  0  0  0  0  0
  1  2  1  0  0  0  0
  2  3  2  0  0  0  0
  2  7  1  0  0  0  0
  3  4  1  0  0  0  0
  4  8  1  0  0  0  0
  4  5  2  0  0  0  0
  5  9  1  0  0  0  0
  6  5  1  0  0  0  0
  6 10  1  0  0  0  0
  7  6  2  0  0  0  0
 11 22  1  0  0  0  0
 11  7  1  0  0  0  0
 12 11  2  0  0  0  0
 13 12  1  0  0  0  0
 14 15  2  0  0  0  0
 14 12  1  0  0  0  0
 15 21  1  0  0  0  0
 16 17  2  0  0  0  0
 16 15  1  0  0  0  0
 17 19  1  0  0  0  0
 18 17  1  0  0  0  0
 19 20  2  0  0  0  0
 21 20  1  0  0  0  0
 21 22  2  0  0  0  0
 23 29  1  0  0  0  0
 23 28  1  0  0  0  0
 24 23  2  0  0  0  0
 25 24  1  0  0  0  0
 25 26  2  0  0  0  0
 26 27  1  0  0  0  0
 27 28  2  0  0  0  0
 27  3  1  0  0  0  0
 30 24  1  0  0  0  0
 31 25  1  0  0  0  0
M  END
>  <minimizedAffinity>
-5.95714045

$$$$

 OpenBabel03252505223D

 31 34  0  0  0  0  0  0  0  0999 V2000
   40.3890   30.5800   40.3450 F   0  0  0  0  0  0  0  0  0  0  0  0
   39.2560   31.3020   40.1890 C   0  0  0  0  0  0  0  0  0  0  0  0
   39.3540   32.5660   39.6430 C   0  0  0  0  0  0  0  0  0  0  0  0
   38.2090   33.3010   39.4840 C   0  0  0  0  0  0  0  0  0  0  0  0
   36.9850   32.7890   39.8610 C   0  0  0  0  0  0  0  0  0  0  0  0
   36.8710   31.5390   40.4030 C   0  0  0  0  0  0  0  0  0  0  0  0
   38.0490   30.7830   40.5680 C   0  0  0  0  0  0  0  0  0  0  0  0
   38.2970   34.2910   39.0550 H   0  0  0  0  0  0  0  0  0  0  0  0
   36.0900   33.3830   39.7280 H   0  0  0  0  0  0  0  0  0  0  0  0
   35.8980   31.1470   40.6960 H   0  0  0  0  0  0  0  0  0  0  0  0
   37.8880   29.4750   41.1400 C   0  0  0  0  0  0  0  0  0  0  0  0
   38.1070   29.1610   42.4650 C   0  0  0  0  0  0  0  0  0  0  0  0
   38.4270   29.9980   43.1020 H   0  0  0  0  0  0  0  0  0  0  0  0
   37.9360   27.8740   42.9670 C   0  0  0  0  0  3  0  0  0  0  0  0
   37.5320   26.8740   42.1070 C   0  0  0  0  0  0  0  0  0  0  0  0
   37.3570   25.6110   42.5680 N   0  0  0  0  0  0  0  0  0  0  0  0
   36.9630   24.6510   41.7120 C   0  0  0  0  0  0  0  0  0  0  0  0
   36.8190   23.6350   42.0650 H   0  0  0  0  0  0  0  0  0  0  0  0
   36.7170   24.8640   40.3590 C   0  0  0  0  0  3  0  0  0  0  0  0
   36.8920   26.1470   39.8790 C   0  0  0  0  0  3  0  0  0  0  0  0
   37.2960   27.1240   40.7670 C   0  0  0  0  0  0  0  0  0  0  0  0
   37.4840   28.4280   40.3180 C   0  0  0  0  0  3  0  0  0  0  0  0
   42.6510   34.1300   39.8330 C   0  0  0  0  0  0  0  0  0  0  0  0
   43.1050   34.0930   38.4890 C   0  0  0  0  0  0  0  0  0  0  0  0
   42.2510   33.5230   37.5460 C   0  0  0  0  0  0  0  0  0  0  0  0
   41.0380   33.0390   37.9700 N   0  0  0  0  0  0  0  0  0  0  0  0
   40.6500   33.0950   39.2510 C   0  0  0  0  0  0  0  0  0  0  0  0
   41.4540   33.6390   40.1770 N   0  0  0  0  0  0  0  0  0  0  0  0
   43.3430   34.5800   40.5330 H   0  0  0  0  0  0  0  0  0  0  0  0
   44.0500   34.4680   38.1510 H   0  0  0  0  0  0  0  0  0  0  0  0
   42.4610   33.4270   36.4960 H   0  0  0  0  0  0  0  0  0  0  0  0
  2  1  1  0  0  0  0
  2  7  1  0  0  0  0
  3  2  2  0  0  0  0
  4  3  1  0  0  0  0
  4  5  2  0  0  0  0
  5  6  1  0  0  0  0
  6  7  2  0  0  0  0
  6 10  1  0  0  0  0
  7 11  1  0  0  0  0
  8  4  1  0  0  0  0
  9  5  1  0  0  0  0
 11 12  1  0  0  0  0
 12 14  2  0  0  0  0
 12 13  1  0  0  0  0
 15 16  1  0  0  0  0
 15 14  1  0  0  0  0
 17 18  1  0  0  0  0
 17 16  2  0  0  0  0
 19 17  1  0  0  0  0
 20 19  2  0  0  0  0
 20 21  1  0  0  0  0
 21 15  2  0  0  0  0
 22 21  1  0  0  0  0
 22 11  2  0  0  0  0
 23 28  1  0  0  0  0
 23 29  1  0  0  0  0
 24 23  2  0  0  0  0
 25 26  2  0  0  0  0
 25 24  1  0  0  0  0
 26 27  1  0  0  0  0
 27  3  1  0  0  0  0
 27 28  2  0  0  0  0
 30 24  1  0  0  0  0
 31 25  1  0  0  0  0
M  END
>  <minimizedAffinity>
-5.88913441

$$$$

 OpenBabel03252505223D

 31 34  0  0  0  0  0  0  0  0999 V2000
   41.3540   31.2470   40.5990 F   0  0  0  0  0  0  0  0  0  0  0  0
   40.4450   32.2390   40.4570 C   0  0  0  0  0  0  0  0  0  0  0  0
   40.9030   33.5290   40.2840 C   0  0  0  0  0  0  0  0  0  0  0  0
   39.9850   34.5360   40.1410 C   0  0  0  0  0  0  0  0  0  0  0  0
   38.6330   34.2660   40.1700 C   0  0  0  0  0  0  0  0  0  0  0  0
   38.1630   32.9940   40.3400 C   0  0  0  0  0  0  0  0  0  0  0  0
   39.1070   31.9570   40.4880 C   0  0  0  0  0  0  0  0  0  0  0  0
   40.3550   35.5440   40.0060 H   0  0  0  0  0  0  0  0  0  0  0  0
   37.9210   35.0740   40.0550 H   0  0  0  0  0  0  0  0  0  0  0  0
   37.0920   32.7950   40.3610 H   0  0  0  0  0  0  0  0  0  0  0  0
   38.5740   30.6350   40.6650 C   0  0  0  0  0  0  0  0  0  0  0  0
   38.3390   29.7350   39.6470 C   0  0  0  0  0  0  0  0  0  0  0  0
   38.5910   30.0900   38.6360 H   0  0  0  0  0  0  0  0  0  0  0  0
   37.8210   28.4640   39.8750 C   0  0  0  0  0  3  0  0  0  0  0  0
   37.5300   28.0890   41.1700 C   0  0  0  0  0  0  0  0  0  0  0  0
   37.0240   26.8580   41.4230 N   0  0  0  0  0  0  0  0  0  0  0  0
   36.7470   26.5120   42.6930 C   0  0  0  0  0  0  0  0  0  0  0  0
   36.3410   25.5290   42.9130 H   0  0  0  0  0  0  0  0  0  0  0  0
   36.9460   27.3450   43.7900 C   0  0  0  0  0  3  0  0  0  0  0  0
   37.4620   28.6020   43.5440 C   0  0  0  0  0  3  0  0  0  0  0  0
   37.7420   28.9450   42.2360 C   0  0  0  0  0  0  0  0  0  0  0  0
   38.2610   30.2040   41.9500 C   0  0  0  0  0  3  0  0  0  0  0  0
   44.2600   34.4910   41.3600 C   0  0  0  0  0  0  0  0  0  0  0  0
   45.0400   34.3110   40.1890 C   0  0  0  0  0  0  0  0  0  0  0  0
   44.3770   33.8570   39.0490 C   0  0  0  0  0  0  0  0  0  0  0  0
   43.0280   33.6160   39.1290 N   0  0  0  0  0  0  0  0  0  0  0  0
   42.3300   33.8010   40.2570 C   0  0  0  0  0  0  0  0  0  0  0  0
   42.9460   34.2360   41.3680 N   0  0  0  0  0  0  0  0  0  0  0  0
   44.8120   34.8430   42.2230 H   0  0  0  0  0  0  0  0  0  0  0  0
   46.0930   34.4960   40.1190 H   0  0  0  0  0  0  0  0  0  0  0  0
   44.8380   33.6770   38.0950 H   0  0  0  0  0  0  0  0  0  0  0  0
  2  7  1  0  0  0  0
  2  1  1  0  0  0  0
  3  2  2  0  0  0  0
  4  5  2  0  0  0  0
  4  3  1  0  0  0  0
  5  6  1  0  0  0  0
  6 10  1  0  0  0  0
  6  7  2  0  0  0  0
  7 11  1  0  0  0  0
  8  4  1  0  0  0  0
  9  5  1  0  0  0  0
 11 22  1  0  0  0  0
 12 14  1  0  0  0  0
 12 11  2  0  0  0  0
 13 12  1  0  0  0  0
 14 15  2  0  0  0  0
 15 16  1  0  0  0  0
 15 21  1  0  0  0  0
 16 17  2  0  0  0  0
 17 18  1  0  0  0  0
 17 19  1  0  0  0  0
 20 19  2  0  0  0  0
 21 20  1  0  0  0  0
 22 21  2  0  0  0  0
 23 28  1  0  0  0  0
 23 29  1  0  0  0  0
 24 23  2  0  0  0  0
 25 26  2  0  0  0  0
 25 24  1  0  0  0  0
 26 27  1  0  0  0  0
 27  3  1  0  0  0  0
 27 28  2  0  0  0  0
 30 24  1  0  0  0  0
 31 25  1  0  0  0  0
M  END
>  <minimizedAffinity>
-5.85648394

$$$$

 OpenBabel03252505223D

 31 34  0  0  0  0  0  0  0  0999 V2000
   38.1040   28.6160   39.7030 F   0  0  0  0  0  0  0  0  0  0  0  0
   37.8250   28.4110   41.0110 C   0  0  0  0  0  0  0  0  0  0  0  0
   38.0720   29.4350   41.9020 C   0  0  0  0  0  0  0  0  0  0  0  0
   37.7920   29.2300   43.2280 C   0  0  0  0  0  0  0  0  0  0  0  0
   37.2750   28.0270   43.6610 C   0  0  0  0  0  0  0  0  0  0  0  0
   37.0250   27.0030   42.7900 C   0  0  0  0  0  0  0  0  0  0  0  0
   37.3130   27.2130   41.4270 C   0  0  0  0  0  0  0  0  0  0  0  0
   37.9890   30.0390   43.9190 H   0  0  0  0  0  0  0  0  0  0  0  0
   37.0590   27.8820   44.7120 H   0  0  0  0  0  0  0  0  0  0  0  0
   36.6160   26.0580   43.1460 H   0  0  0  0  0  0  0  0  0  0  0  0
   37.0370   26.1140   40.5440 C   0  0  0  0  0  0  0  0  0  0  0  0
   36.3020   26.2010   39.3810 C   0  0  0  0  0  0  0  0  0  0  0  0
   35.9130   27.2020   39.1420 H   0  0  0  0  0  0  0  0  0  0  0  0
   36.0640   25.1020   38.5600 C   0  0  0  0  0  3  0  0  0  0  0  0
   36.5840   23.8780   38.9250 C   0  0  0  0  0  0  0  0  0  0  0  0
   36.3700   22.7890   38.1460 N   0  0  0  0  0  0  0  0  0  0  0  0
   36.8860   21.6050   38.5190 C   0  0  0  0  0  0  0  0  0  0  0  0
   36.7230   20.7240   37.9070 H   0  0  0  0  0  0  0  0  0  0  0  0
   37.6400   21.4110   39.6730 C   0  0  0  0  0  3  0  0  0  0  0  0
   37.8650   22.5130   40.4740 C   0  0  0  0  0  3  0  0  0  0  0  0
   37.3310   23.7230   40.0800 C   0  0  0  0  0  0  0  0  0  0  0  0
   37.5360   24.8550   40.8630 C   0  0  0  0  0  3  0  0  0  0  0  0
   40.4550   32.0890   41.1090 C   0  0  0  0  0  0  0  0  0  0  0  0
   39.6380   33.0990   40.5390 C   0  0  0  0  0  0  0  0  0  0  0  0
   38.2730   32.8310   40.4440 C   0  0  0  0  0  0  0  0  0  0  0  0
   37.8080   31.6230   40.9020 N   0  0  0  0  0  0  0  0  0  0  0  0
   38.6180   30.6970   41.4340 C   0  0  0  0  0  0  0  0  0  0  0  0
   39.9350   30.9310   41.5370 N   0  0  0  0  0  0  0  0  0  0  0  0
   41.5070   32.3350   41.1650 H   0  0  0  0  0  0  0  0  0  0  0  0
   39.9920   34.0430   40.1790 H   0  0  0  0  0  0  0  0  0  0  0  0
   37.5360   33.5000   40.0360 H   0  0  0  0  0  0  0  0  0  0  0  0
  1  2  1  0  0  0  0
  2  7  2  0  0  0  0
  2  3  1  0  0  0  0
  3  4  2  0  0  0  0
  4  5  1  0  0  0  0
  4  8  1  0  0  0  0
  5  9  1  0  0  0  0
  6 10  1  0  0  0  0
  6  5  2  0  0  0  0
  7  6  1  0  0  0  0
 11 22  1  0  0  0  0
 11  7  1  0  0  0  0
 12 11  2  0  0  0  0
 13 12  1  0  0  0  0
 14 15  2  0  0  0  0
 14 12  1  0  0  0  0
 15 21  1  0  0  0  0
 16 17  2  0  0  0  0
 16 15  1  0  0  0  0
 17 19  1  0  0  0  0
 18 17  1  0  0  0  0
 19 20  2  0  0  0  0
 21 20  1  0  0  0  0
 21 22  2  0  0  0  0
 23 29  1  0  0  0  0
 23 28  1  0  0  0  0
 24 23  2  0  0  0  0
 25 24  1  0  0  0  0
 25 26  2  0  0  0  0
 26 27  1  0  0  0  0
 27 28  2  0  0  0  0
 27  3  1  0  0  0  0
 30 24  1  0  0  0  0
 31 25  1  0  0  0  0
M  END
>  <minimizedAffinity>
-5.80110312

$$$$

 OpenBabel03252505223D

 31 34  0  0  0  0  0  0  0  0999 V2000
   40.1010   28.9810   41.3450 F   0  0  0  0  0  0  0  0  0  0  0  0
   38.7580   29.1190   41.2570 C   0  0  0  0  0  0  0  0  0  0  0  0
   37.9630   28.0620   41.6510 C   0  0  0  0  0  0  0  0  0  0  0  0
   36.6030   28.1970   41.5630 C   0  0  0  0  0  0  0  0  0  0  0  0
   36.0400   29.3640   41.0890 C   0  0  0  0  0  0  0  0  0  0  0  0
   36.8140   30.4200   40.6940 C   0  0  0  0  0  0  0  0  0  0  0  0
   38.2130   30.2810   40.7850 C   0  0  0  0  0  0  0  0  0  0  0  0
   35.9890   27.3620   41.8740 H   0  0  0  0  0  0  0  0  0  0  0  0
   34.9630   29.4540   41.0260 H   0  0  0  0  0  0  0  0  0  0  0  0
   36.3560   31.3360   40.3220 H   0  0  0  0  0  0  0  0  0  0  0  0
   38.9920   31.4120   40.3610 C   0  0  0  0  0  0  0  0  0  0  0  0
   38.9710   32.6540   40.9590 C   0  0  0  0  0  0  0  0  0  0  0  0
   38.2980   32.7500   41.8230 H   0  0  0  0  0  0  0  0  0  0  0  0
   39.7480   33.7160   40.5060 C   0  0  0  0  0  3  0  0  0  0  0  0
   40.5700   33.5200   39.4160 C   0  0  0  0  0  0  0  0  0  0  0  0
   41.3370   34.5360   38.9520 N   0  0  0  0  0  0  0  0  0  0  0  0
   42.1320   34.3240   37.8880 C   0  0  0  0  0  0  0  0  0  0  0  0
   42.7530   35.1270   37.5040 H   0  0  0  0  0  0  0  0  0  0  0  0
   42.2240   33.1100   37.2130 C   0  0  0  0  0  3  0  0  0  0  0  0
   41.4470   32.0670   37.6770 C   0  0  0  0  0  3  0  0  0  0  0  0
   40.6360   32.2980   38.7710 C   0  0  0  0  0  0  0  0  0  0  0  0
   39.8380   31.2710   39.2650 C   0  0  0  0  0  3  0  0  0  0  0  0
   39.8240   25.7360   43.7670 C   0  0  0  0  0  0  0  0  0  0  0  0
   39.7070   24.5030   43.0760 C   0  0  0  0  0  0  0  0  0  0  0  0
   38.9800   24.5110   41.8850 C   0  0  0  0  0  0  0  0  0  0  0  0
   38.4310   25.6950   41.4610 N   0  0  0  0  0  0  0  0  0  0  0  0
   38.5680   26.8370   42.1470 C   0  0  0  0  0  0  0  0  0  0  0  0
   39.2620   26.8550   43.2960 N   0  0  0  0  0  0  0  0  0  0  0  0
   40.3950   25.6880   44.6860 H   0  0  0  0  0  0  0  0  0  0  0  0
   40.1320   23.5750   43.4000 H   0  0  0  0  0  0  0  0  0  0  0  0
   38.8100   23.6540   41.2580 H   0  0  0  0  0  0  0  0  0  0  0  0
  2  1  1  0  0  0  0
  2  3  1  0  0  0  0
  3 27  1  0  0  0  0
  4  3  2  0  0  0  0
  4  8  1  0  0  0  0
  5  4  1  0  0  0  0
  6  7  1  0  0  0  0
  6  5  2  0  0  0  0
  7  2  2  0  0  0  0
  9  5  1  0  0  0  0
 10  6  1  0  0  0  0
 11  7  1  0  0  0  0
 11 12  1  0  0  0  0
 12 13  1  0  0  0  0
 14 12  2  0  0  0  0
 15 14  1  0  0  0  0
 16 15  1  0  0  0  0
 17 16  2  0  0  0  0
 18 17  1  0  0  0  0
 19 20  2  0  0  0  0
 19 17  1  0  0  0  0
 20 21  1  0  0  0  0
 21 22  1  0  0  0  0
 21 15  2  0  0  0  0
 22 11  2  0  0  0  0
 23 29  1  0  0  0  0
 24 30  1  0  0  0  0
 24 23  2  0  0  0  0
 25 24  1  0  0  0  0
 26 25  2  0  0  0  0
 26 27  1  0  0  0  0
 27 28  2  0  0  0  0
 28 23  1  0  0  0  0
 31 25  1  0  0  0  0
M  END
>  <minimizedAffinity>
-5.79650784

$$$$

 OpenBabel03252505223D

 31 34  0  0  0  0  0  0  0  0999 V2000
   38.9690   27.4450   40.3710 F   0  0  0  0  0  0  0  0  0  0  0  0
   38.2740   27.5750   41.5240 C   0  0  0  0  0  0  0  0  0  0  0  0
   37.4570   26.5350   41.9180 C   0  0  0  0  0  0  0  0  0  0  0  0
   36.7510   26.6630   43.0850 C   0  0  0  0  0  0  0  0  0  0  0  0
   36.8540   27.8070   43.8490 C   0  0  0  0  0  0  0  0  0  0  0  0
   37.6580   28.8460   43.4710 C   0  0  0  0  0  0  0  0  0  0  0  0
   38.3840   28.7150   42.2710 C   0  0  0  0  0  0  0  0  0  0  0  0
   36.1140   25.8410   43.3850 H   0  0  0  0  0  0  0  0  0  0  0  0
   36.2880   27.8910   44.7680 H   0  0  0  0  0  0  0  0  0  0  0  0
   37.7290   29.7440   44.0840 H   0  0  0  0  0  0  0  0  0  0  0  0
   39.2180   29.8280   41.9090 C   0  0  0  0  0  0  0  0  0  0  0  0
   38.9270   30.7430   40.9200 C   0  0  0  0  0  0  0  0  0  0  0  0
   37.9770   30.5790   40.3890 H   0  0  0  0  0  0  0  0  0  0  0  0
   39.7720   31.8050   40.6090 C   0  0  0  0  0  3  0  0  0  0  0  0
   40.9460   31.9470   41.3190 C   0  0  0  0  0  0  0  0  0  0  0  0
   41.7890   32.9710   41.0390 N   0  0  0  0  0  0  0  0  0  0  0  0
   42.9290   33.0920   41.7430 C   0  0  0  0  0  0  0  0  0  0  0  0
   43.6150   33.9060   41.5310 H   0  0  0  0  0  0  0  0  0  0  0  0
   43.3150   32.2220   42.7590 C   0  0  0  0  0  3  0  0  0  0  0  0
   42.4630   31.1750   43.0520 C   0  0  0  0  0  3  0  0  0  0  0  0
   41.2960   31.0620   42.3240 C   0  0  0  0  0  0  0  0  0  0  0  0
   40.4150   30.0190   42.5910 C   0  0  0  0  0  3  0  0  0  0  0  0
   36.4240   24.2170   39.2890 C   0  0  0  0  0  0  0  0  0  0  0  0
   37.1790   23.0500   39.5700 C   0  0  0  0  0  0  0  0  0  0  0  0
   38.0330   23.0970   40.6720 C   0  0  0  0  0  0  0  0  0  0  0  0
   38.0890   24.2550   41.4070 N   0  0  0  0  0  0  0  0  0  0  0  0
   37.3570   25.3350   41.1050 C   0  0  0  0  0  0  0  0  0  0  0  0
   36.5280   25.3140   40.0490 N   0  0  0  0  0  0  0  0  0  0  0  0
   35.7730   24.1400   38.4260 H   0  0  0  0  0  0  0  0  0  0  0  0
   37.1400   22.1430   39.0010 H   0  0  0  0  0  0  0  0  0  0  0  0
   38.6620   22.2910   41.0030 H   0  0  0  0  0  0  0  0  0  0  0  0
  1  2  1  0  0  0  0
  2  3  2  0  0  0  0
  2  7  1  0  0  0  0
  3  4  1  0  0  0  0
  4  8  1  0  0  0  0
  4  5  2  0  0  0  0
  5  9  1  0  0  0  0
  6  5  1  0  0  0  0
  6 10  1  0  0  0  0
  7  6  2  0  0  0  0
 11  7  1  0  0  0  0
 11 22  1  0  0  0  0
 12 11  2  0  0  0  0
 13 12  1  0  0  0  0
 14 12  1  0  0  0  0
 14 15  2  0  0  0  0
 15 21  1  0  0  0  0
 16 15  1  0  0  0  0
 16 17  2  0  0  0  0
 17 19  1  0  0  0  0
 18 17  1  0  0  0  0
 19 20  2  0  0  0  0
 21 22  2  0  0  0  0
 21 20  1  0  0  0  0
 23 24  2  0  0  0  0
 23 28  1  0  0  0  0
 24 25  1  0  0  0  0
 25 31  1  0  0  0  0
 25 26  2  0  0  0  0
 27 26  1  0  0  0  0
 27  3  1  0  0  0  0
 28 27  2  0  0  0  0
 29 23  1  0  0  0  0
 30 24  1  0  0  0  0
M  END
>  <minimizedAffinity>
-5.77351809

$$$$

 OpenBabel03252505223D

 31 34  0  0  0  0  0  0  0  0999 V2000
   38.0710   27.8840   39.8270 F   0  0  0  0  0  0  0  0  0  0  0  0
   37.8830   27.9610   41.1640 C   0  0  0  0  0  0  0  0  0  0  0  0
   37.8870   29.2060   41.7580 C   0  0  0  0  0  0  0  0  0  0  0  0
   37.6980   29.2880   43.1120 C   0  0  0  0  0  0  0  0  0  0  0  0
   37.5080   28.1480   43.8670 C   0  0  0  0  0  0  0  0  0  0  0  0
   37.5020   26.9070   43.2940 C   0  0  0  0  0  0  0  0  0  0  0  0
   37.6970   26.8230   41.9010 C   0  0  0  0  0  0  0  0  0  0  0  0
   37.7020   30.2700   43.5670 H   0  0  0  0  0  0  0  0  0  0  0  0
   37.3600   28.2310   44.9360 H   0  0  0  0  0  0  0  0  0  0  0  0
   37.3510   26.0160   43.9020 H   0  0  0  0  0  0  0  0  0  0  0  0
   37.6840   25.5020   41.3370 C   0  0  0  0  0  0  0  0  0  0  0  0
   38.7030   24.5800   41.4610 C   0  0  0  0  0  0  0  0  0  0  0  0
   39.5750   24.9160   42.0420 H   0  0  0  0  0  0  0  0  0  0  0  0
   38.6380   23.3110   40.8930 C   0  0  0  0  0  3  0  0  0  0  0  0
   37.5110   22.9620   40.1780 C   0  0  0  0  0  0  0  0  0  0  0  0
   37.4190   21.7330   39.6130 N   0  0  0  0  0  0  0  0  0  0  0  0
   36.3120   21.4110   38.9210 C   0  0  0  0  0  0  0  0  0  0  0  0
   36.2230   20.4310   38.4620 H   0  0  0  0  0  0  0  0  0  0  0  0
   35.2310   22.2680   38.7370 C   0  0  0  0  0  3  0  0  0  0  0  0
   35.3130   23.5220   39.3080 C   0  0  0  0  0  3  0  0  0  0  0  0
   36.4550   23.8400   40.0170 C   0  0  0  0  0  0  0  0  0  0  0  0
   36.5730   25.0950   40.6050 C   0  0  0  0  0  3  0  0  0  0  0  0
   37.1950   32.1820   39.7540 C   0  0  0  0  0  0  0  0  0  0  0  0
   38.4890   32.6620   39.4270 C   0  0  0  0  0  0  0  0  0  0  0  0
   39.5760   31.9360   39.9140 C   0  0  0  0  0  0  0  0  0  0  0  0
   39.3300   30.8160   40.6690 N   0  0  0  0  0  0  0  0  0  0  0  0
   38.0880   30.3990   40.9520 C   0  0  0  0  0  0  0  0  0  0  0  0
   37.0270   31.0810   40.4960 N   0  0  0  0  0  0  0  0  0  0  0  0
   36.3790   32.7740   39.3570 H   0  0  0  0  0  0  0  0  0  0  0  0
   38.6890   33.5350   38.8400 H   0  0  0  0  0  0  0  0  0  0  0  0
   40.6090   32.1800   39.7470 H   0  0  0  0  0  0  0  0  0  0  0  0
  1  2  1  0  0  0  0
  2  3  2  0  0  0  0
  2  7  1  0  0  0  0
  3  4  1  0  0  0  0
  4  8  1  0  0  0  0
  4  5  2  0  0  0  0
  5  9  1  0  0  0  0
  6  5  1  0  0  0  0
  6 10  1  0  0  0  0
  7  6  2  0  0  0  0
 11 12  1  0  0  0  0
 11  7  1  0  0  0  0
 12 13  1  0  0  0  0
 14 12  2  0  0  0  0
 15 14  1  0  0  0  0
 16 15  2  0  0  0  0
 17 16  1  0  0  0  0
 18 17  1  0  0  0  0
 19 17  2  0  0  0  0
 19 20  1  0  0  0  0
 20 21  2  0  0  0  0
 21 15  1  0  0  0  0
 21 22  1  0  0  0  0
 22 11  2  0  0  0  0
 23 28  1  0  0  0  0
 24 23  2  0  0  0  0
 24 25  1  0  0  0  0
 25 26  2  0  0  0  0
 26 27  1  0  0  0  0
 27  3  1  0  0  0  0
 28 27  2  0  0  0  0
 29 23  1  0  0  0  0
 30 24  1  0  0  0  0
 31 25  1  0  0  0  0
M  END
>  <minimizedAffinity>
-5.73839188

$$$$
