
 OpenBabel03242510553D

 34 37  0  0  0  0  0  0  0  0999 V2000
   39.7050   32.3120   40.3940 C   0  0  0  0  0  0  0  0  0  0  0  0
   38.7040   33.1860   40.0000 C   0  0  0  0  0  0  0  0  0  0  0  0
   37.3670   32.8560   40.0130 C   0  0  0  0  0  0  0  0  0  0  0  0
   37.0350   31.5790   40.4460 C   0  0  0  0  0  0  0  0  0  0  0  0
   38.0310   30.7000   40.8410 C   0  0  0  0  0  0  0  0  0  0  0  0
   39.3020   31.1060   40.7960 N   0  0  0  0  0  0  0  0  0  0  0  0
   38.9760   34.1740   39.6670 H   0  0  0  0  0  0  0  0  0  0  0  0
   36.6220   33.5670   39.6990 H   0  0  0  0  0  0  0  0  0  0  0  0
   35.9900   31.3090   40.4610 H   0  0  0  0  0  0  0  0  0  0  0  0
   44.6330   35.2860   42.2390 C   0  0  0  0  0  0  0  0  0  0  0  0
   45.4800   34.9300   41.1900 C   0  0  0  0  0  0  0  0  0  0  0  0
   44.9440   34.1670   40.1600 C   0  0  0  0  0  0  0  0  0  0  0  0
   43.6250   33.7960   40.2130 N   0  0  0  0  0  0  0  0  0  0  0  0
   42.8480   34.1660   41.2520 C   0  0  0  0  0  0  0  0  0  0  0  0
   43.3370   34.9150   42.2780 N   0  0  0  0  0  0  0  0  0  0  0  0
   41.1090   32.7140   40.3610 C   0  0  0  0  0  0  0  0  0  0  0  0
   41.9010   32.1480   39.5670 O   0  0  0  0  0  0  0  0  0  0  0  0
   41.4920   33.7620   41.2660 N   0  0  0  0  0  0  0  0  0  0  0  0
   45.0770   35.8850   43.0350 H   0  0  0  0  0  0  0  0  0  0  0  0
   46.5210   35.2550   41.2030 H   0  0  0  0  0  0  0  0  0  0  0  0
   45.5860   33.8840   39.3420 H   0  0  0  0  0  0  0  0  0  0  0  0
   40.8180   34.2000   41.8970 H   0  0  0  0  0  0  0  0  0  0  0  0
   37.7220   29.3540   41.3010 C   0  0  0  0  0  0  0  0  0  0  0  0
   37.5380   28.9830   42.6150 C   0  0  0  0  0  0  0  0  0  0  0  0
   37.6270   29.7400   43.3800 H   0  0  0  0  0  0  0  0  0  0  0  0
   37.2450   27.6910   42.9980 C   0  0  0  0  0  3  0  0  0  0  0  0
   37.1220   26.6930   42.0540 C   0  0  0  0  0  0  0  0  0  0  0  0
   36.8380   25.4500   42.4650 N   0  0  0  0  0  0  0  0  0  0  0  0
   36.7020   24.4140   41.5860 C   0  0  0  0  0  0  0  0  0  0  0  0
   36.4730   23.3920   41.8600 H   0  0  0  0  0  0  0  0  0  0  0  0
   36.8790   24.7380   40.2360 C   0  0  0  0  0  3  0  0  0  0  0  0
   37.1750   26.0190   39.7820 C   0  0  0  0  0  3  0  0  0  0  0  0
   37.2990   27.0180   40.7250 C   0  0  0  0  0  0  0  0  0  0  0  0
   37.5890   28.3230   40.3950 C   0  0  0  0  0  3  0  0  0  0  0  0
  1  6  1  0  0  0  0
  2  3  1  0  0  0  0
  2  1  2  0  0  0  0
  3  4  2  0  0  0  0
  4  9  1  0  0  0  0
  4  5  1  0  0  0  0
  5 23  1  0  0  0  0
  6  5  2  0  0  0  0
  7  2  1  0  0  0  0
  8  3  1  0  0  0  0
 10 15  1  0  0  0  0
 10 19  1  0  0  0  0
 11 20  1  0  0  0  0
 11 10  2  0  0  0  0
 12 13  2  0  0  0  0
 12 11  1  0  0  0  0
 13 14  1  0  0  0  0
 14 18  1  0  0  0  0
 14 15  2  0  0  0  0
 16  1  1  0  0  0  0
 16 18  1  0  0  0  0
 17 16  2  0  0  0  0
 18 22  1  0  0  0  0
 21 12  1  0  0  0  0
 23 24  1  0  0  0  0
 24 26  2  0  0  0  0
 24 25  1  0  0  0  0
 27 28  1  0  0  0  0
 27 26  1  0  0  0  0
 29 30  1  0  0  0  0
 29 28  2  0  0  0  0
 31 29  1  0  0  0  0
 32 31  2  0  0  0  0
 32 33  1  0  0  0  0
 33 27  2  0  0  0  0
 34 33  1  0  0  0  0
 34 23  2  0  0  0  0
M  END
>  <minimizedAffinity>
-6.80011225

$$$$

 OpenBabel03242510553D

 34 37  0  0  0  0  0  0  0  0999 V2000
   37.6930   29.3950   41.8840 C   0  0  0  0  0  0  0  0  0  0  0  0
   37.6900   29.1510   43.2490 C   0  0  0  0  0  0  0  0  0  0  0  0
   37.4810   27.9020   43.7900 C   0  0  0  0  0  0  0  0  0  0  0  0
   37.2660   26.8560   42.9030 C   0  0  0  0  0  0  0  0  0  0  0  0
   37.2680   27.0920   41.5380 C   0  0  0  0  0  0  0  0  0  0  0  0
   37.4790   28.3360   41.1020 N   0  0  0  0  0  0  0  0  0  0  0  0
   37.8580   29.9720   43.9250 H   0  0  0  0  0  0  0  0  0  0  0  0
   37.4870   27.7580   44.8580 H   0  0  0  0  0  0  0  0  0  0  0  0
   37.1020   25.8720   43.3160 H   0  0  0  0  0  0  0  0  0  0  0  0
   40.9870   34.2000   40.2730 C   0  0  0  0  0  0  0  0  0  0  0  0
   39.9360   35.0720   39.9950 C   0  0  0  0  0  0  0  0  0  0  0  0
   38.6430   34.6190   40.2290 C   0  0  0  0  0  0  0  0  0  0  0  0
   38.4520   33.3520   40.7140 N   0  0  0  0  0  0  0  0  0  0  0  0
   39.5040   32.5460   40.9670 C   0  0  0  0  0  0  0  0  0  0  0  0
   40.7840   32.9550   40.7510 N   0  0  0  0  0  0  0  0  0  0  0  0
   37.9200   30.7400   41.3620 C   0  0  0  0  0  0  0  0  0  0  0  0
   36.9650   31.3840   40.8600 O   0  0  0  0  0  0  0  0  0  0  0  0
   39.2610   31.2450   41.4670 N   0  0  0  0  0  0  0  0  0  0  0  0
   41.9910   34.5790   40.0810 H   0  0  0  0  0  0  0  0  0  0  0  0
   40.1500   36.0710   39.6100 H   0  0  0  0  0  0  0  0  0  0  0  0
   37.8200   35.2820   40.0190 H   0  0  0  0  0  0  0  0  0  0  0  0
   40.0130   30.6920   41.8830 H   0  0  0  0  0  0  0  0  0  0  0  0
   37.0470   26.0210   40.5780 C   0  0  0  0  0  0  0  0  0  0  0  0
   36.4160   26.1590   39.3600 C   0  0  0  0  0  0  0  0  0  0  0  0
   36.0500   27.1340   39.0790 H   0  0  0  0  0  0  0  0  0  0  0  0
   36.2340   25.1090   38.4860 C   0  0  0  0  0  3  0  0  0  0  0  0
   36.6860   23.8450   38.8040 C   0  0  0  0  0  0  0  0  0  0  0  0
   36.4890   22.8510   37.9290 N   0  0  0  0  0  0  0  0  0  0  0  0
   36.9110   21.5770   38.1790 C   0  0  0  0  0  0  0  0  0  0  0  0
   36.7800   20.7360   37.5100 H   0  0  0  0  0  0  0  0  0  0  0  0
   37.5580   21.3830   39.4050 C   0  0  0  0  0  3  0  0  0  0  0  0
   37.7760   22.3970   40.3320 C   0  0  0  0  0  3  0  0  0  0  0  0
   37.3230   23.6600   40.0140 C   0  0  0  0  0  0  0  0  0  0  0  0
   37.4820   24.7410   40.8520 C   0  0  0  0  0  3  0  0  0  0  0  0
  1  2  1  0  0  0  0
  2  3  2  0  0  0  0
  2  7  1  0  0  0  0
  3  8  1  0  0  0  0
  4  9  1  0  0  0  0
  4  3  1  0  0  0  0
  5  4  2  0  0  0  0
  6  5  1  0  0  0  0
  6  1  2  0  0  0  0
 10 15  1  0  0  0  0
 11 12  1  0  0  0  0
 11 10  2  0  0  0  0
 12 13  2  0  0  0  0
 13 14  1  0  0  0  0
 14 18  1  0  0  0  0
 15 14  2  0  0  0  0
 16 18  1  0  0  0  0
 16  1  1  0  0  0  0
 17 16  2  0  0  0  0
 18 22  1  0  0  0  0
 19 10  1  0  0  0  0
 20 11  1  0  0  0  0
 21 12  1  0  0  0  0
 23 34  1  0  0  0  0
 23  5  1  0  0  0  0
 24 23  2  0  0  0  0
 25 24  1  0  0  0  0
 26 27  2  0  0  0  0
 26 24  1  0  0  0  0
 27 33  1  0  0  0  0
 28 29  2  0  0  0  0
 28 27  1  0  0  0  0
 29 31  1  0  0  0  0
 30 29  1  0  0  0  0
 31 32  2  0  0  0  0
 33 32  1  0  0  0  0
 33 34  2  0  0  0  0
M  END
>  <minimizedAffinity>
-6.69623995

$$$$

 OpenBabel03242510553D

 34 37  0  0  0  0  0  0  0  0999 V2000
   37.6880   29.3450   41.9720 C   0  0  0  0  0  0  0  0  0  0  0  0
   37.7780   29.1010   43.3340 C   0  0  0  0  0  0  0  0  0  0  0  0
   37.5630   27.8600   43.8930 C   0  0  0  0  0  0  0  0  0  0  0  0
   37.2440   26.8230   43.0270 C   0  0  0  0  0  0  0  0  0  0  0  0
   37.1520   27.0600   41.6640 C   0  0  0  0  0  0  0  0  0  0  0  0
   37.3770   28.2950   41.2110 N   0  0  0  0  0  0  0  0  0  0  0  0
   38.0270   29.9150   43.9930 H   0  0  0  0  0  0  0  0  0  0  0  0
   37.6440   27.7150   44.9570 H   0  0  0  0  0  0  0  0  0  0  0  0
   37.0740   25.8460   43.4530 H   0  0  0  0  0  0  0  0  0  0  0  0
   41.0250   34.0710   40.2220 C   0  0  0  0  0  0  0  0  0  0  0  0
   39.9840   34.9610   39.9660 C   0  0  0  0  0  0  0  0  0  0  0  0
   38.6890   34.5350   40.2420 C   0  0  0  0  0  0  0  0  0  0  0  0
   38.4880   33.2760   40.7440 N   0  0  0  0  0  0  0  0  0  0  0  0
   39.5320   32.4520   40.9730 C   0  0  0  0  0  0  0  0  0  0  0  0
   40.8130   32.8340   40.7170 N   0  0  0  0  0  0  0  0  0  0  0  0
   37.9260   30.6810   41.4320 C   0  0  0  0  0  0  0  0  0  0  0  0
   36.9690   31.3380   40.9510 O   0  0  0  0  0  0  0  0  0  0  0  0
   39.2780   31.1600   41.4930 N   0  0  0  0  0  0  0  0  0  0  0  0
   42.0310   34.4290   39.9970 H   0  0  0  0  0  0  0  0  0  0  0  0
   40.2050   35.9520   39.5660 H   0  0  0  0  0  0  0  0  0  0  0  0
   37.8730   35.2120   40.0490 H   0  0  0  0  0  0  0  0  0  0  0  0
   40.0310   30.5960   41.8920 H   0  0  0  0  0  0  0  0  0  0  0  0
   36.8200   25.9980   40.7260 C   0  0  0  0  0  0  0  0  0  0  0  0
   36.8790   24.6480   40.9960 C   0  0  0  0  0  0  0  0  0  0  0  0
   37.1950   24.3340   41.9800 H   0  0  0  0  0  0  0  0  0  0  0  0
   36.5520   23.6810   40.0690 C   0  0  0  0  0  3  0  0  0  0  0  0
   36.1430   24.0370   38.8010 C   0  0  0  0  0  0  0  0  0  0  0  0
   35.8350   23.0680   37.9290 N   0  0  0  0  0  0  0  0  0  0  0  0
   35.4240   23.3490   36.6570 C   0  0  0  0  0  0  0  0  0  0  0  0
   35.1610   22.6100   35.9110 H   0  0  0  0  0  0  0  0  0  0  0  0
   35.3470   24.7080   36.3320 C   0  0  0  0  0  3  0  0  0  0  0  0
   35.6610   25.7330   37.2180 C   0  0  0  0  0  3  0  0  0  0  0  0
   36.0710   25.3780   38.4850 C   0  0  0  0  0  0  0  0  0  0  0  0
   36.4070   26.3050   39.4470 C   0  0  0  0  0  3  0  0  0  0  0  0
  1  2  1  0  0  0  0
  2  3  2  0  0  0  0
  2  7  1  0  0  0  0
  3  8  1  0  0  0  0
  4  9  1  0  0  0  0
  4  3  1  0  0  0  0
  5  4  2  0  0  0  0
  6  5  1  0  0  0  0
  6  1  2  0  0  0  0
 10 15  1  0  0  0  0
 11 10  2  0  0  0  0
 11 12  1  0  0  0  0
 12 13  2  0  0  0  0
 13 14  1  0  0  0  0
 14 18  1  0  0  0  0
 15 14  2  0  0  0  0
 16 18  1  0  0  0  0
 16  1  1  0  0  0  0
 17 16  2  0  0  0  0
 18 22  1  0  0  0  0
 19 10  1  0  0  0  0
 20 11  1  0  0  0  0
 21 12  1  0  0  0  0
 23 24  1  0  0  0  0
 23  5  1  0  0  0  0
 24 25  1  0  0  0  0
 26 24  2  0  0  0  0
 27 26  1  0  0  0  0
 28 27  2  0  0  0  0
 29 28  1  0  0  0  0
 30 29  1  0  0  0  0
 31 29  2  0  0  0  0
 31 32  1  0  0  0  0
 32 33  2  0  0  0  0
 33 27  1  0  0  0  0
 33 34  1  0  0  0  0
 34 23  2  0  0  0  0
M  END
>  <minimizedAffinity>
-6.53307056

$$$$

 OpenBabel03242510553D

 34 37  0  0  0  0  0  0  0  0999 V2000
   38.5060   28.8610   41.9960 C   0  0  0  0  0  0  0  0  0  0  0  0
   37.8780   29.0860   43.2110 C   0  0  0  0  0  0  0  0  0  0  0  0
   37.1710   28.1150   43.8860 C   0  0  0  0  0  0  0  0  0  0  0  0
   37.1020   26.8590   43.2970 C   0  0  0  0  0  0  0  0  0  0  0  0
   37.7280   26.6270   42.0830 C   0  0  0  0  0  0  0  0  0  0  0  0
   38.3920   27.6280   41.5000 N   0  0  0  0  0  0  0  0  0  0  0  0
   37.9400   30.0650   43.6560 H   0  0  0  0  0  0  0  0  0  0  0  0
   36.6980   28.3340   44.8280 H   0  0  0  0  0  0  0  0  0  0  0  0
   36.5510   26.0900   43.8170 H   0  0  0  0  0  0  0  0  0  0  0  0
   39.6420   34.5430   40.2780 C   0  0  0  0  0  0  0  0  0  0  0  0
   40.7000   34.2770   39.4110 C   0  0  0  0  0  0  0  0  0  0  0  0
   41.0430   32.9460   39.2020 C   0  0  0  0  0  0  0  0  0  0  0  0
   40.3410   31.9620   39.8470 N   0  0  0  0  0  0  0  0  0  0  0  0
   39.3250   32.2730   40.6780 C   0  0  0  0  0  0  0  0  0  0  0  0
   38.9600   33.5640   40.9060 N   0  0  0  0  0  0  0  0  0  0  0  0
   39.2440   29.9270   41.3240 C   0  0  0  0  0  0  0  0  0  0  0  0
   40.3510   29.6770   40.7870 O   0  0  0  0  0  0  0  0  0  0  0  0
   38.6270   31.2240   41.3230 N   0  0  0  0  0  0  0  0  0  0  0  0
   39.3920   35.5950   40.4250 H   0  0  0  0  0  0  0  0  0  0  0  0
   41.2220   35.1040   38.9250 H   0  0  0  0  0  0  0  0  0  0  0  0
   41.8590   32.7240   38.5350 H   0  0  0  0  0  0  0  0  0  0  0  0
   37.7230   31.3900   41.7700 H   0  0  0  0  0  0  0  0  0  0  0  0
   37.6780   25.3240   41.4360 C   0  0  0  0  0  0  0  0  0  0  0  0
   38.7120   24.4140   41.3950 C   0  0  0  0  0  0  0  0  0  0  0  0
   39.6430   24.6720   41.8770 H   0  0  0  0  0  0  0  0  0  0  0  0
   38.6110   23.1900   40.7670 C   0  0  0  0  0  3  0  0  0  0  0  0
   37.4400   22.8200   40.1390 C   0  0  0  0  0  0  0  0  0  0  0  0
   37.3820   21.6230   39.5410 N   0  0  0  0  0  0  0  0  0  0  0  0
   36.2560   21.1930   38.9000 C   0  0  0  0  0  0  0  0  0  0  0  0
   36.1510   20.2380   38.4010 H   0  0  0  0  0  0  0  0  0  0  0  0
   35.1750   22.0820   38.9130 C   0  0  0  0  0  3  0  0  0  0  0  0
   35.2080   23.3290   39.5260 C   0  0  0  0  0  3  0  0  0  0  0  0
   36.3790   23.7000   40.1540 C   0  0  0  0  0  0  0  0  0  0  0  0
   36.5290   24.9100   40.7950 C   0  0  0  0  0  3  0  0  0  0  0  0
  1  2  1  0  0  0  0
  2  7  1  0  0  0  0
  2  3  2  0  0  0  0
  3  8  1  0  0  0  0
  4  9  1  0  0  0  0
  4  3  1  0  0  0  0
  5  4  2  0  0  0  0
  6  1  2  0  0  0  0
  6  5  1  0  0  0  0
 10 19  1  0  0  0  0
 10 15  1  0  0  0  0
 11 10  2  0  0  0  0
 12 11  1  0  0  0  0
 12 13  2  0  0  0  0
 13 14  1  0  0  0  0
 14 15  2  0  0  0  0
 14 18  1  0  0  0  0
 16  1  1  0  0  0  0
 17 16  2  0  0  0  0
 18 16  1  0  0  0  0
 18 22  1  0  0  0  0
 20 11  1  0  0  0  0
 21 12  1  0  0  0  0
 23  5  1  0  0  0  0
 24 23  1  0  0  0  0
 24 25  1  0  0  0  0
 26 24  2  0  0  0  0
 27 33  1  0  0  0  0
 27 26  1  0  0  0  0
 28 27  2  0  0  0  0
 29 31  2  0  0  0  0
 29 28  1  0  0  0  0
 30 29  1  0  0  0  0
 31 32  1  0  0  0  0
 32 33  2  0  0  0  0
 33 34  1  0  0  0  0
 34 23  2  0  0  0  0
M  END
>  <minimizedAffinity>
-6.4629488

$$$$

 OpenBabel03242510553D

 34 37  0  0  0  0  0  0  0  0999 V2000
   37.2070   26.8320   41.4110 C   0  0  0  0  0  0  0  0  0  0  0  0
   37.0210   26.6310   42.7700 C   0  0  0  0  0  0  0  0  0  0  0  0
   37.1400   27.6370   43.7040 C   0  0  0  0  0  0  0  0  0  0  0  0
   37.4620   28.9030   43.2320 C   0  0  0  0  0  0  0  0  0  0  0  0
   37.6500   29.1110   41.8750 C   0  0  0  0  0  0  0  0  0  0  0  0
   37.5130   28.0760   41.0420 N   0  0  0  0  0  0  0  0  0  0  0  0
   36.7720   25.6440   43.1210 H   0  0  0  0  0  0  0  0  0  0  0  0
   36.9870   27.4360   44.7510 H   0  0  0  0  0  0  0  0  0  0  0  0
   37.5580   29.6990   43.9550 H   0  0  0  0  0  0  0  0  0  0  0  0
   37.7250   21.1310   39.4720 C   0  0  0  0  0  0  0  0  0  0  0  0
   37.3150   21.3340   38.1560 C   0  0  0  0  0  0  0  0  0  0  0  0
   37.0340   22.6380   37.7630 C   0  0  0  0  0  0  0  0  0  0  0  0
   37.1660   23.6570   38.6690 N   0  0  0  0  0  0  0  0  0  0  0  0
   37.5660   23.4060   39.9330 C   0  0  0  0  0  0  0  0  0  0  0  0
   37.8510   22.1430   40.3530 N   0  0  0  0  0  0  0  0  0  0  0  0
   37.0680   25.7290   40.4630 C   0  0  0  0  0  0  0  0  0  0  0  0
   36.4340   25.9030   39.3930 O   0  0  0  0  0  0  0  0  0  0  0  0
   37.6890   24.4890   40.8360 N   0  0  0  0  0  0  0  0  0  0  0  0
   37.9400   20.1000   39.7550 H   0  0  0  0  0  0  0  0  0  0  0  0
   37.2290   20.4830   37.4790 H   0  0  0  0  0  0  0  0  0  0  0  0
   36.7150   22.8110   36.7480 H   0  0  0  0  0  0  0  0  0  0  0  0
   38.1990   24.3850   41.7160 H   0  0  0  0  0  0  0  0  0  0  0  0
   37.9870   30.4230   41.3440 C   0  0  0  0  0  0  0  0  0  0  0  0
   37.0940   31.3110   40.7840 C   0  0  0  0  0  0  0  0  0  0  0  0
   36.0540   31.0260   40.7270 H   0  0  0  0  0  0  0  0  0  0  0  0
   37.4670   32.5450   40.2960 C   0  0  0  0  0  3  0  0  0  0  0  0
   38.7850   32.9490   40.3490 C   0  0  0  0  0  0  0  0  0  0  0  0
   39.1080   34.1550   39.8640 N   0  0  0  0  0  0  0  0  0  0  0  0
   40.3920   34.6190   39.8850 C   0  0  0  0  0  0  0  0  0  0  0  0
   40.7110   35.5830   39.5080 H   0  0  0  0  0  0  0  0  0  0  0  0
   41.3400   33.7540   40.4440 C   0  0  0  0  0  3  0  0  0  0  0  0
   41.0310   32.4980   40.9550 C   0  0  0  0  0  3  0  0  0  0  0  0
   39.7150   32.0920   40.9010 C   0  0  0  0  0  0  0  0  0  0  0  0
   39.2910   30.8710   41.3760 C   0  0  0  0  0  3  0  0  0  0  0  0
  1  2  1  0  0  0  0
  2  7  1  0  0  0  0
  2  3  2  0  0  0  0
  3  8  1  0  0  0  0
  4  3  1  0  0  0  0
  4  9  1  0  0  0  0
  5  4  2  0  0  0  0
  6  1  2  0  0  0  0
  6  5  1  0  0  0  0
 10 19  1  0  0  0  0
 10 15  1  0  0  0  0
 11 10  2  0  0  0  0
 12 11  1  0  0  0  0
 12 13  2  0  0  0  0
 13 14  1  0  0  0  0
 14 15  2  0  0  0  0
 14 18  1  0  0  0  0
 16 18  1  0  0  0  0
 16  1  1  0  0  0  0
 17 16  2  0  0  0  0
 18 22  1  0  0  0  0
 20 11  1  0  0  0  0
 21 12  1  0  0  0  0
 23 34  1  0  0  0  0
 23  5  1  0  0  0  0
 24 23  2  0  0  0  0
 25 24  1  0  0  0  0
 26 27  2  0  0  0  0
 26 24  1  0  0  0  0
 27 33  1  0  0  0  0
 28 29  2  0  0  0  0
 28 27  1  0  0  0  0
 29 31  1  0  0  0  0
 30 29  1  0  0  0  0
 31 32  2  0  0  0  0
 33 32  1  0  0  0  0
 33 34  2  0  0  0  0
M  END
>  <minimizedAffinity>
-6.25540876

$$$$

 OpenBabel03242510553D

 34 37  0  0  0  0  0  0  0  0999 V2000
   38.6990   29.9940   42.0040 C   0  0  0  0  0  0  0  0  0  0  0  0
   38.4000   29.2000   43.1010 C   0  0  0  0  0  0  0  0  0  0  0  0
   37.3130   28.3560   43.1470 C   0  0  0  0  0  0  0  0  0  0  0  0
   36.4930   28.3190   42.0270 C   0  0  0  0  0  0  0  0  0  0  0  0
   36.7850   29.1100   40.9270 C   0  0  0  0  0  0  0  0  0  0  0  0
   37.8620   29.8980   40.9700 N   0  0  0  0  0  0  0  0  0  0  0  0
   39.0450   29.2390   43.9620 H   0  0  0  0  0  0  0  0  0  0  0  0
   37.1190   27.7560   44.0200 H   0  0  0  0  0  0  0  0  0  0  0  0
   35.6380   27.6610   42.0510 H   0  0  0  0  0  0  0  0  0  0  0  0
   42.0010   34.7820   40.3610 C   0  0  0  0  0  0  0  0  0  0  0  0
   43.1810   34.4400   41.0200 C   0  0  0  0  0  0  0  0  0  0  0  0
   43.2170   33.2220   41.6880 C   0  0  0  0  0  0  0  0  0  0  0  0
   42.1090   32.4150   41.6750 N   0  0  0  0  0  0  0  0  0  0  0  0
   40.9900   32.7930   41.0220 C   0  0  0  0  0  0  0  0  0  0  0  0
   40.9180   33.9780   40.3570 N   0  0  0  0  0  0  0  0  0  0  0  0
   39.8660   30.8710   42.0080 C   0  0  0  0  0  0  0  0  0  0  0  0
   40.7930   30.6730   42.8320 O   0  0  0  0  0  0  0  0  0  0  0  0
   39.8690   31.9290   41.0360 N   0  0  0  0  0  0  0  0  0  0  0  0
   41.9990   35.7420   39.8440 H   0  0  0  0  0  0  0  0  0  0  0  0
   44.0320   35.1240   40.9940 H   0  0  0  0  0  0  0  0  0  0  0  0
   44.1220   32.9440   42.2020 H   0  0  0  0  0  0  0  0  0  0  0  0
   39.0960   32.0590   40.3800 H   0  0  0  0  0  0  0  0  0  0  0  0
   35.9500   29.0970   39.7350 C   0  0  0  0  0  0  0  0  0  0  0  0
   34.5770   28.9730   39.7240 C   0  0  0  0  0  0  0  0  0  0  0  0
   34.0630   28.8770   40.6690 H   0  0  0  0  0  0  0  0  0  0  0  0
   33.8320   28.9680   38.5640 C   0  0  0  0  0  3  0  0  0  0  0  0
   34.4480   29.0890   37.3360 C   0  0  0  0  0  0  0  0  0  0  0  0
   33.6900   29.0790   36.2320 N   0  0  0  0  0  0  0  0  0  0  0  0
   34.2340   29.1950   34.9850 C   0  0  0  0  0  0  0  0  0  0  0  0
   33.6710   29.1940   34.0590 H   0  0  0  0  0  0  0  0  0  0  0  0
   35.6260   29.3230   34.9400 C   0  0  0  0  0  3  0  0  0  0  0  0
   36.4370   29.3370   36.0700 C   0  0  0  0  0  3  0  0  0  0  0  0
   35.8220   29.2150   37.2980 C   0  0  0  0  0  0  0  0  0  0  0  0
   36.5210   29.2150   38.4850 C   0  0  0  0  0  3  0  0  0  0  0  0
  1 16  1  0  0  0  0
  1  2  1  0  0  0  0
  2  3  2  0  0  0  0
  2  7  1  0  0  0  0
  3  8  1  0  0  0  0
  4  9  1  0  0  0  0
  4  3  1  0  0  0  0
  5  6  1  0  0  0  0
  5  4  2  0  0  0  0
  6  1  2  0  0  0  0
 10 11  1  0  0  0  0
 11 12  2  0  0  0  0
 12 21  1  0  0  0  0
 13 12  1  0  0  0  0
 14 18  1  0  0  0  0
 14 13  2  0  0  0  0
 15 10  2  0  0  0  0
 15 14  1  0  0  0  0
 16 17  2  0  0  0  0
 18 16  1  0  0  0  0
 19 10  1  0  0  0  0
 20 11  1  0  0  0  0
 22 18  1  0  0  0  0
 23  5  1  0  0  0  0
 24 23  1  0  0  0  0
 24 25  1  0  0  0  0
 26 24  2  0  0  0  0
 27 26  1  0  0  0  0
 28 27  2  0  0  0  0
 29 28  1  0  0  0  0
 30 29  1  0  0  0  0
 31 29  2  0  0  0  0
 31 32  1  0  0  0  0
 32 33  2  0  0  0  0
 33 27  1  0  0  0  0
 33 34  1  0  0  0  0
 34 23  2  0  0  0  0
M  END
>  <minimizedAffinity>
-6.24853134

$$$$

 OpenBabel03242510553D

 34 37  0  0  0  0  0  0  0  0999 V2000
   38.5760   28.9310   42.4090 C   0  0  0  0  0  0  0  0  0  0  0  0
   37.7070   28.9810   43.4870 C   0  0  0  0  0  0  0  0  0  0  0  0
   36.9730   27.8970   43.9150 C   0  0  0  0  0  0  0  0  0  0  0  0
   37.1320   26.7090   43.2140 C   0  0  0  0  0  0  0  0  0  0  0  0
   38.0000   26.6520   42.1350 C   0  0  0  0  0  0  0  0  0  0  0  0
   38.6710   27.7530   41.7910 N   0  0  0  0  0  0  0  0  0  0  0  0
   37.5930   29.9090   44.0220 H   0  0  0  0  0  0  0  0  0  0  0  0
   36.3080   27.9810   44.7580 H   0  0  0  0  0  0  0  0  0  0  0  0
   36.5620   25.8520   43.5400 H   0  0  0  0  0  0  0  0  0  0  0  0
   39.3110   34.5340   40.2650 C   0  0  0  0  0  0  0  0  0  0  0  0
   40.7020   34.5290   40.1790 C   0  0  0  0  0  0  0  0  0  0  0  0
   41.3640   33.3510   40.5050 C   0  0  0  0  0  0  0  0  0  0  0  0
   40.6360   32.2570   40.8930 N   0  0  0  0  0  0  0  0  0  0  0  0
   39.2900   32.3130   40.9600 C   0  0  0  0  0  0  0  0  0  0  0  0
   38.6080   33.4490   40.6480 N   0  0  0  0  0  0  0  0  0  0  0  0
   39.3310   30.1110   41.9980 C   0  0  0  0  0  0  0  0  0  0  0  0
   40.5690   30.1640   42.2040 O   0  0  0  0  0  0  0  0  0  0  0  0
   38.5790   31.1590   41.3650 N   0  0  0  0  0  0  0  0  0  0  0  0
   38.8150   35.4700   40.0040 H   0  0  0  0  0  0  0  0  0  0  0  0
   41.2270   35.4330   39.8630 H   0  0  0  0  0  0  0  0  0  0  0  0
   42.4390   33.3320   40.4430 H   0  0  0  0  0  0  0  0  0  0  0  0
   37.5710   31.0810   41.2130 H   0  0  0  0  0  0  0  0  0  0  0  0
   38.1930   25.4250   41.3760 C   0  0  0  0  0  0  0  0  0  0  0  0
   37.4360   24.2800   41.5040 C   0  0  0  0  0  0  0  0  0  0  0  0
   36.6290   24.2760   42.2210 H   0  0  0  0  0  0  0  0  0  0  0  0
   37.6620   23.1430   40.7590 C   0  0  0  0  0  3  0  0  0  0  0  0
   38.6820   23.1050   39.8310 C   0  0  0  0  0  0  0  0  0  0  0  0
   38.8690   21.9810   39.1260 N   0  0  0  0  0  0  0  0  0  0  0  0
   39.8600   21.8740   38.1920 C   0  0  0  0  0  0  0  0  0  0  0  0
   40.0580   20.9930   37.5940 H   0  0  0  0  0  0  0  0  0  0  0  0
   40.6590   23.0110   38.0240 C   0  0  0  0  0  3  0  0  0  0  0  0
   40.4860   24.1890   38.7410 C   0  0  0  0  0  3  0  0  0  0  0  0
   39.4660   24.2280   39.6690 C   0  0  0  0  0  0  0  0  0  0  0  0
   39.2000   25.3390   40.4380 C   0  0  0  0  0  3  0  0  0  0  0  0
  1  2  1  0  0  0  0
  2  3  2  0  0  0  0
  2  7  1  0  0  0  0
  3  8  1  0  0  0  0
  4  9  1  0  0  0  0
  4  3  1  0  0  0  0
  5  4  2  0  0  0  0
  6  5  1  0  0  0  0
  6  1  2  0  0  0  0
 10 15  1  0  0  0  0
 11 10  2  0  0  0  0
 11 12  1  0  0  0  0
 12 13  2  0  0  0  0
 13 14  1  0  0  0  0
 14 18  1  0  0  0  0
 15 14  2  0  0  0  0
 16 17  2  0  0  0  0
 16  1  1  0  0  0  0
 18 16  1  0  0  0  0
 19 10  1  0  0  0  0
 20 11  1  0  0  0  0
 21 12  1  0  0  0  0
 22 18  1  0  0  0  0
 23 24  1  0  0  0  0
 23  5  1  0  0  0  0
 24 25  1  0  0  0  0
 26 24  2  0  0  0  0
 27 26  1  0  0  0  0
 28 27  2  0  0  0  0
 29 28  1  0  0  0  0
 30 29  1  0  0  0  0
 31 29  2  0  0  0  0
 31 32  1  0  0  0  0
 32 33  2  0  0  0  0
 33 27  1  0  0  0  0
 33 34  1  0  0  0  0
 34 23  2  0  0  0  0
M  END
>  <minimizedAffinity>
-6.22985029

$$$$

 OpenBabel03242510553D

 34 37  0  0  0  0  0  0  0  0999 V2000
   38.5830   27.3030   42.0740 C   0  0  0  0  0  0  0  0  0  0  0  0
   39.4020   27.0260   43.1580 C   0  0  0  0  0  0  0  0  0  0  0  0
   39.7310   25.7460   43.5470 C   0  0  0  0  0  0  0  0  0  0  0  0
   39.2030   24.7030   42.7990 C   0  0  0  0  0  0  0  0  0  0  0  0
   38.3830   24.9720   41.7140 C   0  0  0  0  0  0  0  0  0  0  0  0
   38.1180   26.2440   41.4100 N   0  0  0  0  0  0  0  0  0  0  0  0
   39.8040   27.8460   43.7290 H   0  0  0  0  0  0  0  0  0  0  0  0
   40.3710   25.5770   44.3960 H   0  0  0  0  0  0  0  0  0  0  0  0
   39.4540   23.6950   43.0930 H   0  0  0  0  0  0  0  0  0  0  0  0
   37.2950   31.8400   38.2940 C   0  0  0  0  0  0  0  0  0  0  0  0
   37.3410   32.8830   39.2180 C   0  0  0  0  0  0  0  0  0  0  0  0
   37.7000   32.5710   40.5240 C   0  0  0  0  0  0  0  0  0  0  0  0
   37.9900   31.2720   40.8510 N   0  0  0  0  0  0  0  0  0  0  0  0
   37.9300   30.2980   39.9180 C   0  0  0  0  0  0  0  0  0  0  0  0
   37.5830   30.5660   38.6290 N   0  0  0  0  0  0  0  0  0  0  0  0
   38.2660   28.6800   41.7050 C   0  0  0  0  0  0  0  0  0  0  0  0
   38.0390   29.5290   42.6020 O   0  0  0  0  0  0  0  0  0  0  0  0
   38.2360   28.9710   40.2990 N   0  0  0  0  0  0  0  0  0  0  0  0
   37.0110   32.1100   37.2770 H   0  0  0  0  0  0  0  0  0  0  0  0
   37.1010   33.8980   38.8990 H   0  0  0  0  0  0  0  0  0  0  0  0
   37.7400   33.3660   41.2500 H   0  0  0  0  0  0  0  0  0  0  0  0
   38.4270   28.2520   39.5970 H   0  0  0  0  0  0  0  0  0  0  0  0
   37.8120   23.9040   40.9060 C   0  0  0  0  0  0  0  0  0  0  0  0
   38.4720   22.7580   40.5170 C   0  0  0  0  0  0  0  0  0  0  0  0
   39.4970   22.6250   40.8290 H   0  0  0  0  0  0  0  0  0  0  0  0
   37.8830   21.7760   39.7500 C   0  0  0  0  0  3  0  0  0  0  0  0
   36.5750   21.9050   39.3310 C   0  0  0  0  0  0  0  0  0  0  0  0
   36.0390   20.9290   38.5870 N   0  0  0  0  0  0  0  0  0  0  0  0
   34.7510   20.9920   38.1370 C   0  0  0  0  0  0  0  0  0  0  0  0
   34.2650   20.2350   37.5340 H   0  0  0  0  0  0  0  0  0  0  0  0
   34.0360   22.1380   38.5040 C   0  0  0  0  0  3  0  0  0  0  0  0
   34.5690   23.1660   39.2760 C   0  0  0  0  0  3  0  0  0  0  0  0
   35.8760   23.0370   39.6950 C   0  0  0  0  0  0  0  0  0  0  0  0
   36.5090   23.9890   40.4630 C   0  0  0  0  0  3  0  0  0  0  0  0
  1  2  1  0  0  0  0
  2  3  2  0  0  0  0
  2  7  1  0  0  0  0
  3  8  1  0  0  0  0
  4  9  1  0  0  0  0
  4  3  1  0  0  0  0
  5  4  2  0  0  0  0
  6  5  1  0  0  0  0
  6  1  2  0  0  0  0
 10 15  2  0  0  0  0
 10 11  1  0  0  0  0
 11 12  2  0  0  0  0
 12 13  1  0  0  0  0
 12 21  1  0  0  0  0
 14 18  1  0  0  0  0
 14 13  2  0  0  0  0
 15 14  1  0  0  0  0
 16  1  1  0  0  0  0
 16 17  2  0  0  0  0
 18 16  1  0  0  0  0
 19 10  1  0  0  0  0
 20 11  1  0  0  0  0
 22 18  1  0  0  0  0
 23  5  1  0  0  0  0
 24 25  1  0  0  0  0
 24 23  1  0  0  0  0
 26 24  2  0  0  0  0
 27 33  1  0  0  0  0
 27 26  1  0  0  0  0
 28 27  2  0  0  0  0
 29 31  2  0  0  0  0
 29 28  1  0  0  0  0
 30 29  1  0  0  0  0
 31 32  1  0  0  0  0
 32 33  2  0  0  0  0
 33 34  1  0  0  0  0
 34 23  2  0  0  0  0
M  END
>  <minimizedAffinity>
-6.10217524

$$$$

 OpenBabel03242510553D

 34 37  0  0  0  0  0  0  0  0999 V2000
   37.9250   26.5580   42.1790 C   0  0  0  0  0  0  0  0  0  0  0  0
   37.0070   26.7090   43.2070 C   0  0  0  0  0  0  0  0  0  0  0  0
   36.8150   27.8960   43.8780 C   0  0  0  0  0  0  0  0  0  0  0  0
   37.5920   28.9780   43.4850 C   0  0  0  0  0  0  0  0  0  0  0  0
   38.5110   28.8350   42.4570 C   0  0  0  0  0  0  0  0  0  0  0  0
   38.6290   27.6450   41.8620 N   0  0  0  0  0  0  0  0  0  0  0  0
   36.4120   25.8610   43.5020 H   0  0  0  0  0  0  0  0  0  0  0  0
   36.0910   27.9680   44.6720 H   0  0  0  0  0  0  0  0  0  0  0  0
   37.4500   29.9140   44.0030 H   0  0  0  0  0  0  0  0  0  0  0  0
   36.1550   21.7640   38.9510 C   0  0  0  0  0  0  0  0  0  0  0  0
   37.3230   21.0120   39.0630 C   0  0  0  0  0  0  0  0  0  0  0  0
   38.3470   21.5250   39.8500 C   0  0  0  0  0  0  0  0  0  0  0  0
   38.1750   22.7330   40.4740 N   0  0  0  0  0  0  0  0  0  0  0  0
   37.0240   23.4230   40.3330 C   0  0  0  0  0  0  0  0  0  0  0  0
   35.9990   22.9510   39.5710 N   0  0  0  0  0  0  0  0  0  0  0  0
   38.0880   25.2750   41.5000 C   0  0  0  0  0  0  0  0  0  0  0  0
   39.2330   24.7700   41.3880 O   0  0  0  0  0  0  0  0  0  0  0  0
   36.8890   24.6660   40.9950 N   0  0  0  0  0  0  0  0  0  0  0  0
   35.3670   21.3400   38.3280 H   0  0  0  0  0  0  0  0  0  0  0  0
   37.4020   20.0560   38.5420 H   0  0  0  0  0  0  0  0  0  0  0  0
   39.2560   20.9550   39.9470 H   0  0  0  0  0  0  0  0  0  0  0  0
   35.9740   25.1070   41.1060 H   0  0  0  0  0  0  0  0  0  0  0  0
   39.3420   29.9460   42.0170 C   0  0  0  0  0  0  0  0  0  0  0  0
   40.7180   29.9800   42.0660 C   0  0  0  0  0  0  0  0  0  0  0  0
   41.2400   29.1210   42.4600 H   0  0  0  0  0  0  0  0  0  0  0  0
   41.4580   31.0600   41.6340 C   0  0  0  0  0  3  0  0  0  0  0  0
   40.8330   32.1780   41.1220 C   0  0  0  0  0  0  0  0  0  0  0  0
   41.5870   33.2070   40.7130 N   0  0  0  0  0  0  0  0  0  0  0  0
   41.0340   34.3440   40.1970 C   0  0  0  0  0  0  0  0  0  0  0  0
   41.5920   35.2050   39.8510 H   0  0  0  0  0  0  0  0  0  0  0  0
   39.6360   34.3590   40.1250 C   0  0  0  0  0  3  0  0  0  0  0  0
   38.8300   33.3050   40.5430 C   0  0  0  0  0  3  0  0  0  0  0  0
   39.4550   32.1880   41.0550 C   0  0  0  0  0  0  0  0  0  0  0  0
   38.7610   31.0840   41.4990 C   0  0  0  0  0  3  0  0  0  0  0  0
  1  2  1  0  0  0  0
  2  7  1  0  0  0  0
  2  3  2  0  0  0  0
  3  8  1  0  0  0  0
  4  3  1  0  0  0  0
  4  9  1  0  0  0  0
  5  4  2  0  0  0  0
  6  1  2  0  0  0  0
  6  5  1  0  0  0  0
 10 11  2  0  0  0  0
 10 15  1  0  0  0  0
 11 12  1  0  0  0  0
 12 21  1  0  0  0  0
 12 13  2  0  0  0  0
 14 13  1  0  0  0  0
 14 18  1  0  0  0  0
 15 14  2  0  0  0  0
 16  1  1  0  0  0  0
 17 16  2  0  0  0  0
 18 22  1  0  0  0  0
 18 16  1  0  0  0  0
 19 10  1  0  0  0  0
 20 11  1  0  0  0  0
 23 24  1  0  0  0  0
 23  5  1  0  0  0  0
 24 25  1  0  0  0  0
 26 24  2  0  0  0  0
 27 26  1  0  0  0  0
 28 27  2  0  0  0  0
 29 28  1  0  0  0  0
 30 29  1  0  0  0  0
 31 29  2  0  0  0  0
 31 32  1  0  0  0  0
 32 33  2  0  0  0  0
 33 27  1  0  0  0  0
 33 34  1  0  0  0  0
 34 23  2  0  0  0  0
M  END
>  <minimizedAffinity>
-6.09848166

$$$$
