
 OpenBabel03252509083D

 44 48  0  0  0  0  0  0  0  0999 V2000
   48.1650   32.0300   38.6220 C   0  0  0  0  0  0  0  0  0  0  0  0
   46.9390   32.5660   38.3520 C   0  0  0  0  0  0  0  0  0  0  0  0
   46.4570   33.6080   39.1260 C   0  0  0  0  0  0  0  0  0  0  0  0
   47.2070   34.1070   40.1650 C   0  0  0  0  0  0  0  0  0  0  0  0
   48.4640   33.5890   40.4750 C   0  0  0  0  0  0  0  0  0  0  0  0
   48.9260   32.5380   39.6770 C   0  0  0  0  0  0  0  0  0  0  0  0
   45.4870   34.0480   38.9310 H   0  0  0  0  0  0  0  0  0  0  0  0
   46.9160   34.9050   40.8110 H   0  0  0  0  0  0  0  0  0  0  0  0
   49.1050   33.9190   41.2590 H   0  0  0  0  0  0  0  0  0  0  0  0
   49.9060   32.1110   39.8930 H   0  0  0  0  0  0  0  0  0  0  0  0
   42.8430   29.8440   36.7720 Cl  0  0  0  0  0  0  0  0  0  0  0  0
   44.2250   30.8790   36.5200 C   0  0  0  0  0  0  0  0  0  0  0  0
   44.9970   31.2920   37.5580 C   0  0  0  0  0  0  0  0  0  0  0  0
   46.0700   32.1170   37.2690 C   0  0  0  0  0  0  0  0  0  0  0  0
   46.3560   32.5150   35.9890 C   0  0  0  0  0  0  0  0  0  0  0  0
   45.5780   32.0950   34.9540 C   0  0  0  0  0  0  0  0  0  0  0  0
   44.5040   31.2690   35.2330 C   0  0  0  0  0  0  0  0  0  0  0  0
   47.2000   33.1610   35.7870 H   0  0  0  0  0  0  0  0  0  0  0  0
   45.8220   32.4180   33.9620 H   0  0  0  0  0  0  0  0  0  0  0  0
   43.9150   30.9620   34.3770 H   0  0  0  0  0  0  0  0  0  0  0  0
   43.4350   31.1200   41.0040 C   0  0  0  0  0  0  0  0  0  0  0  0
   43.7560   31.5420   39.7100 C   0  0  0  0  0  0  0  0  0  0  0  0
   44.6590   30.8640   38.9080 C   0  0  0  0  0  0  0  0  0  0  0  0
   45.1800   29.7850   39.4950 N   0  0  0  0  0  0  0  0  0  0  0  0
   44.8930   29.3610   40.7250 C   0  0  0  0  0  0  0  0  0  0  0  0
   44.0240   30.0250   41.4760 N   0  0  0  0  0  0  0  0  0  0  0  0
   42.7340   31.6740   41.5850 H   0  0  0  0  0  0  0  0  0  0  0  0
   43.2680   32.4430   39.3260 H   0  0  0  0  0  0  0  0  0  0  0  0
   45.4530   28.4590   40.9640 H   0  0  0  0  0  0  0  0  0  0  0  0
   48.7950   30.7530   37.7190 S   0  0  0  0  0  0  0  0  0  0  0  0
   49.8510   29.9940   38.5490 O   0  0  0  0  0  0  0  0  0  0  0  0
   47.6460   29.7320   37.6000 O   0  0  0  0  0  0  0  0  0  0  0  0
   49.5760   30.8790   36.2120 C   0  0  0  0  0  0  0  0  0  0  0  0
   49.1750   31.4500   35.0100 C   0  0  0  0  0  0  0  0  0  0  0  0
   48.1960   31.8990   35.0230 H   0  0  0  0  0  0  0  0  0  0  0  0
   49.8360   31.4790   33.8200 C   0  0  0  0  0  3  0  0  0  0  0  0
   51.0590   30.8670   33.7920 C   0  0  0  0  0  0  0  0  0  0  0  0
   51.7530   30.8690   32.6360 N   0  0  0  0  0  0  0  0  0  0  0  0
   52.9770   30.2740   32.5550 C   0  0  0  0  0  0  0  0  0  0  0  0
   53.5030   30.2970   31.6070 H   0  0  0  0  0  0  0  0  0  0  0  0
   53.5240   29.6530   33.6760 C   0  0  0  0  0  3  0  0  0  0  0  0
   52.8560   29.6150   34.9020 C   0  0  0  0  0  3  0  0  0  0  0  0
   51.6350   30.2470   34.8610 C   0  0  0  0  0  0  0  0  0  0  0  0
   50.8580   30.2940   36.0010 C   0  0  0  0  0  3  0  0  0  0  0  0
  1  6  1  0  0  0  0
  2  1  2  0  0  0  0
  2  3  1  0  0  0  0
  3  4  2  0  0  0  0
  4  5  1  0  0  0  0
  4  8  1  0  0  0  0
  5  9  1  0  0  0  0
  6 10  1  0  0  0  0
  6  5  2  0  0  0  0
  7  3  1  0  0  0  0
 12 11  1  0  0  0  0
 12 13  1  0  0  0  0
 13 23  1  0  0  0  0
 14 13  2  0  0  0  0
 14  2  1  0  0  0  0
 15 14  1  0  0  0  0
 16 17  1  0  0  0  0
 16 15  2  0  0  0  0
 17 12  2  0  0  0  0
 18 15  1  0  0  0  0
 19 16  1  0  0  0  0
 20 17  1  0  0  0  0
 21 26  1  0  0  0  0
 21 27  1  0  0  0  0
 22 21  2  0  0  0  0
 23 24  2  0  0  0  0
 23 22  1  0  0  0  0
 24 25  1  0  0  0  0
 25 29  1  0  0  0  0
 25 26  2  0  0  0  0
 28 22  1  0  0  0  0
 30 31  2  0  0  0  0
 30  1  1  0  0  0  0
 32 30  2  0  0  0  0
 33 30  1  0  0  0  0
 34 35  1  0  0  0  0
 34 33  2  0  0  0  0
 36 34  1  0  0  0  0
 37 36  2  0  0  0  0
 37 43  1  0  0  0  0
 38 37  1  0  0  0  0
 39 38  2  0  0  0  0
 39 41  1  0  0  0  0
 40 39  1  0  0  0  0
 41 42  2  0  0  0  0
 43 42  1  0  0  0  0
 43 44  2  0  0  0  0
 44 33  1  0  0  0  0
M  END
>  <minimizedAffinity>
-3.91336465

>  <minimizedRMSD>
7.72532606

$$$$
