
 OpenBabel03252504513D

 37 40  0  0  0  0  0  0  0  0999 V2000
   47.0330   34.5900   42.7050 C   0  0  0  0  0  0  0  0  0  0  0  0
   48.2150   34.1560   42.0830 C   0  0  0  0  0  0  0  0  0  0  0  0
   48.8600   33.0650   42.6470 C   0  0  0  0  0  0  0  0  0  0  0  0
   48.3040   32.4990   43.7550 N   0  0  0  0  0  0  0  0  0  0  0  0
   47.1790   32.9320   44.3250 C   0  0  0  0  0  0  0  0  0  0  0  0
   46.5250   33.9940   43.7990 N   0  0  0  0  0  0  0  0  0  0  0  0
   46.4500   35.4230   42.3560 H   0  0  0  0  0  0  0  0  0  0  0  0
   49.7670   32.7020   42.2030 H   0  0  0  0  0  0  0  0  0  0  0  0
   45.8230   30.2450   43.8060 Cl  0  0  0  0  0  0  0  0  0  0  0  0
   46.0130   31.0450   45.3750 C   0  0  0  0  0  0  0  0  0  0  0  0
   46.6480   32.2730   45.5080 C   0  0  0  0  0  0  0  0  0  0  0  0
   46.7790   32.8660   46.7380 C   0  0  0  0  0  0  0  0  0  0  0  0
   46.2670   32.2240   47.8580 C   0  0  0  0  0  0  0  0  0  0  0  0
   45.6440   31.0080   47.6860 C   0  0  0  0  0  0  0  0  0  0  0  0
   45.0160   30.2410   49.1270 Cl  0  0  0  0  0  0  0  0  0  0  0  0
   45.4940   30.3830   46.4710 C   0  0  0  0  0  0  0  0  0  0  0  0
   47.2750   33.8270   46.8530 H   0  0  0  0  0  0  0  0  0  0  0  0
   46.3630   32.6810   48.8360 H   0  0  0  0  0  0  0  0  0  0  0  0
   44.9910   29.4270   46.4230 H   0  0  0  0  0  0  0  0  0  0  0  0
   48.6740   34.8640   40.9150 C   0  0  0  0  0  0  0  0  0  0  0  0
   49.7440   34.6400   40.7350 H   0  0  0  0  0  0  0  0  0  0  0  0
   48.6140   35.9570   41.0540 H   0  0  0  0  0  0  0  0  0  0  0  0
   47.7990   34.5240   39.7430 C   0  0  0  0  0  0  0  0  0  0  0  0
   46.7490   34.7710   40.0620 H   0  0  0  0  0  0  0  0  0  0  0  0
   48.0130   35.2770   38.9410 H   0  0  0  0  0  0  0  0  0  0  0  0
   47.9140   33.1420   39.2650 C   0  0  0  0  0  0  0  0  0  0  0  0
   49.0950   32.5550   38.8590 C   0  0  0  0  0  0  0  0  0  0  0  0
   50.0070   33.1360   38.8860 H   0  0  0  0  0  0  0  0  0  0  0  0
   49.0440   31.2350   38.4300 C   0  0  0  0  0  3  0  0  0  0  0  0
   47.8370   30.5280   38.4140 C   0  0  0  0  0  0  0  0  0  0  0  0
   47.7890   29.2490   37.9990 N   0  0  0  0  0  0  0  0  0  0  0  0
   46.6450   28.5420   37.9710 C   0  0  0  0  0  0  0  0  0  0  0  0
   46.5370   27.5290   37.6550 H   0  0  0  0  0  0  0  0  0  0  0  0
   45.4760   29.1390   38.3780 C   0  0  0  0  0  3  0  0  0  0  0  0
   45.4520   30.4510   38.8170 C   0  0  0  0  0  3  0  0  0  0  0  0
   46.6700   31.1320   38.8230 C   0  0  0  0  0  0  0  0  0  0  0  0
   46.7020   32.4500   39.2530 C   0  0  0  0  0  3  0  0  0  0  0  0
  1  6  1  0  0  0  0
  2  3  1  0  0  0  0
  2  1  2  0  0  0  0
  3  4  2  0  0  0  0
  4  5  1  0  0  0  0
  5 11  1  0  0  0  0
  6  5  2  0  0  0  0
  7  1  1  0  0  0  0
  8  3  1  0  0  0  0
  9 10  1  0  0  0  0
 10 11  2  0  0  0  0
 10 16  1  0  0  0  0
 11 12  1  0  0  0  0
 12 17  1  0  0  0  0
 12 13  2  0  0  0  0
 13 18  1  0  0  0  0
 14 13  1  0  0  0  0
 14 15  1  0  0  0  0
 16 14  2  0  0  0  0
 19 16  1  0  0  0  0
 20 22  1  0  0  0  0
 20  2  1  0  0  0  0
 21 20  1  0  0  0  0
 23 24  1  0  0  0  0
 23 20  1  0  0  0  0
 25 23  1  0  0  0  0
 26 23  1  0  0  0  0
 27 28  1  0  0  0  0
 27 26  2  0  0  0  0
 29 27  1  0  0  0  0
 30 29  2  0  0  0  0
 30 36  1  0  0  0  0
 31 30  1  0  0  0  0
 32 31  2  0  0  0  0
 32 34  1  0  0  0  0
 33 32  1  0  0  0  0
 34 35  2  0  0  0  0
 35 36  1  0  0  0  0
 36 37  2  0  0  0  0
 37 26  1  0  0  0  0
M  END
>  <minimizedAffinity>
-4.50401974

>  <minimizedRMSD>
1.22753596

$$$$
