
 OpenBabel03252509243D

 30 33  0  0  1  0  0  0  0  0999 V2000
   46.1970   34.7420   41.9110 C   0  0  1  0  0  0  0  0  0  0  0  0
   47.7170   35.0200   41.7570 C   0  0  0  0  0  0  0  0  0  0  0  0
   46.9850   33.6990   41.3630 C   0  0  2  0  0  0  0  0  0  0  0  0
   45.5740   35.4540   41.3310 H   0  0  0  0  0  0  0  0  0  0  0  0
   48.0480   35.6000   40.8870 H   0  0  0  0  0  0  0  0  0  0  0  0
   48.3590   34.9950   42.6300 H   0  0  0  0  0  0  0  0  0  0  0  0
   47.2650   32.8460   42.0280 H   0  0  0  0  0  0  0  0  0  0  0  0
   46.9540   33.3670   39.9010 C   0  0  0  0  0  0  0  0  0  0  0  0
   45.6820   33.2400   39.3480 C   0  0  0  0  0  0  0  0  0  0  0  0
   44.7820   33.3710   39.9340 H   0  0  0  0  0  0  0  0  0  0  0  0
   45.5580   32.9350   38.0010 C   0  0  0  0  0  3  0  0  0  0  0  0
   46.6910   32.7620   37.2310 C   0  0  0  0  0  0  0  0  0  0  0  0
   46.6170   32.4620   35.9060 N   0  0  0  0  0  0  0  0  0  0  0  0
   47.7350   32.2980   35.1740 C   0  0  0  0  0  0  0  0  0  0  0  0
   47.6480   32.0590   34.1190 H   0  0  0  0  0  0  0  0  0  0  0  0
   49.0080   32.4180   35.6930 C   0  0  0  0  0  3  0  0  0  0  0  0
   49.0450   32.7260   37.0490 C   0  0  0  0  0  3  0  0  0  0  0  0
   47.9230   32.9040   37.8460 C   0  0  0  0  0  0  0  0  0  0  0  0
   48.1120   33.2060   39.1800 C   0  0  0  0  0  3  0  0  0  0  0  0
   44.6490   35.5220   45.2400 C   0  0  0  0  0  0  0  0  0  0  0  0
   45.0180   35.6830   43.8640 C   0  0  0  0  0  0  0  0  0  0  0  0
   45.8210   34.6860   43.3740 C   0  0  0  0  0  0  0  0  0  0  0  0
   46.2390   33.6160   44.1580 N   0  0  0  0  0  0  0  0  0  0  0  0
   45.8580   33.5290   45.4340 C   0  0  0  0  0  0  0  0  0  0  0  0
   45.0610   34.4840   45.9800 N   0  0  0  0  0  0  0  0  0  0  0  0
   44.0150   36.2840   45.6710 H   0  0  0  0  0  0  0  0  0  0  0  0
   46.2630   32.6450   45.9070 H   0  0  0  0  0  0  0  0  0  0  0  0
   44.6060   36.7990   43.0780 N   0  0  0  0  0  0  0  0  0  0  0  0
   44.0980   36.7260   42.1570 H   0  0  0  0  0  0  0  0  0  0  0  0
   44.9000   37.6730   43.5890 H   0  0  0  0  0  0  0  0  0  0  0  0
  1  4  1  6  0  0  0
  1 22  1  0  0  0  0
  2  1  1  0  0  0  0
  2  6  1  0  0  0  0
  3  2  1  0  0  0  0
  3  1  1  0  0  0  0
  3  7  1  1  0  0  0
  5  2  1  0  0  0  0
  8  3  1  0  0  0  0
  9  8  1  0  0  0  0
  9 10  1  0  0  0  0
 11  9  2  0  0  0  0
 12 18  1  0  0  0  0
 12 11  1  0  0  0  0
 13 12  2  0  0  0  0
 14 16  2  0  0  0  0
 14 13  1  0  0  0  0
 15 14  1  0  0  0  0
 16 17  1  0  0  0  0
 17 18  2  0  0  0  0
 18 19  1  0  0  0  0
 19  8  2  0  0  0  0
 20 26  1  0  0  0  0
 20 25  1  0  0  0  0
 21 20  2  0  0  0  0
 22 21  1  0  0  0  0
 22 23  2  0  0  0  0
 23 24  1  0  0  0  0
 24 27  1  0  0  0  0
 24 25  2  0  0  0  0
 28 30  1  0  0  0  0
 28 21  1  0  0  0  0
 29 28  1  0  0  0  0
M  END
>  <minimizedAffinity>
-5.45793772

>  <minimizedRMSD>
1.00882983

$$$$
