
 OpenBabel03252501543D

 22 23  0  0  0  0  0  0  0  0999 V2000
   44.6200   35.5860   45.0330 C   0  0  0  0  0  0  0  0  0  0  0  0
   45.2460   35.4950   43.7840 C   0  0  0  0  0  0  0  0  0  0  0  0
   46.1090   34.4370   43.5410 C   0  0  0  0  0  0  0  0  0  0  0  0
   46.2960   33.5460   44.5330 N   0  0  0  0  0  0  0  0  0  0  0  0
   45.6890   33.6440   45.7240 C   0  0  0  0  0  0  0  0  0  0  0  0
   44.8310   34.6690   46.0110 N   0  0  0  0  0  0  0  0  0  0  0  0
   43.9390   36.3590   45.3230 H   0  0  0  0  0  0  0  0  0  0  0  0
   45.9340   32.8590   46.4210 H   0  0  0  0  0  0  0  0  0  0  0  0
   46.6730   34.4540   42.2590 N   0  0  0  0  0  0  0  0  0  0  0  0
   47.8790   35.0840   42.1470 C   0  0  0  0  0  0  0  0  0  0  0  0
   48.5070   35.1450   40.9040 C   0  0  0  0  0  0  0  0  0  0  0  0
   49.4630   35.6270   40.7410 H   0  0  0  0  0  0  0  0  0  0  0  0
   47.8270   34.5440   39.8830 C   0  0  0  0  0  0  0  0  0  0  0  0
   48.3810   34.5860   38.7450 O   0  0  0  0  0  0  0  0  0  0  0  0
   46.6550   33.9170   39.9350 N   0  0  0  0  0  0  0  0  0  0  0  0
   46.0810   33.8860   41.1730 C   0  0  0  0  0  0  0  0  0  0  0  0
   44.9560   33.3140   41.3490 O   0  0  0  0  0  0  0  0  0  0  0  0
   46.1940   33.4810   39.1190 H   0  0  0  0  0  0  0  0  0  0  0  0
   44.8900   36.5870   42.8510 C   0  0  0  0  0  0  0  0  0  0  0  0
   45.0550   37.6050   43.2690 H   0  0  0  0  0  0  0  0  0  0  0  0
   45.5200   36.5580   41.9160 H   0  0  0  0  0  0  0  0  0  0  0  0
   43.8070   36.4650   42.5780 H   0  0  0  0  0  0  0  0  0  0  0  0
  1  7  1  0  0  0  0
  1  6  1  0  0  0  0
  2  1  2  0  0  0  0
  3  2  1  0  0  0  0
  3  4  2  0  0  0  0
  4  5  1  0  0  0  0
  5  6  2  0  0  0  0
  5  8  1  0  0  0  0
  9  3  1  0  0  0  0
 10  9  1  0  0  0  0
 11 10  2  0  0  0  0
 12 11  1  0  0  0  0
 13 15  1  0  0  0  0
 13 11  1  0  0  0  0
 14 13  2  0  0  0  0
 15 16  1  0  0  0  0
 16 17  2  0  0  0  0
 16  9  1  0  0  0  0
 18 15  1  0  0  0  0
 19 20  1  0  0  0  0
 19  2  1  0  0  0  0
 21 19  1  0  0  0  0
 22 19  1  0  0  0  0
M  END
>  <minimizedAffinity>
-4.99974489

>  <minimizedRMSD>
1.99235892

$$$$
