
 OpenBabel03252504103D

 26 27  0  0  0  0  0  0  0  0999 V2000
   46.9990   34.2060   43.0960 C   0  0  0  0  0  0  0  0  0  0  0  0
   45.8360   34.6840   43.7160 C   0  0  0  0  0  0  0  0  0  0  0  0
   45.3050   33.9420   44.7850 C   0  0  0  0  0  0  0  0  0  0  0  0
   45.9410   32.8060   45.1600 N   0  0  0  0  0  0  0  0  0  0  0  0
   47.0680   32.3750   44.5310 C   0  0  0  0  0  0  0  0  0  0  0  0
   47.5870   33.0720   43.5110 N   0  0  0  0  0  0  0  0  0  0  0  0
   44.4190   34.2960   45.2680 H   0  0  0  0  0  0  0  0  0  0  0  0
   47.6930   31.1730   44.9700 N   0  0  0  0  0  0  0  0  0  0  0  0
   48.3470   30.3890   44.0940 C   0  0  0  0  0  3  0  0  0  0  0  0
   48.9760   29.2040   44.4650 C   0  0  0  0  0  0  0  0  0  0  0  0
   49.4980   28.5840   43.7450 H   0  0  0  0  0  0  0  0  0  0  0  0
   48.8720   28.9000   45.8070 C   0  0  0  0  0  0  0  0  0  0  0  0
   49.4320   27.8250   46.1950 O   0  0  0  0  0  0  0  0  0  0  0  0
   48.2230   29.6710   46.6990 N   0  0  0  0  0  0  0  0  0  0  0  0
   47.6340   30.8180   46.2520 C   0  0  0  0  0  0  0  0  0  0  0  0
   47.0210   31.5530   47.0690 O   0  0  0  0  0  0  0  0  0  0  0  0
   48.1850   29.3800   47.6950 H   0  0  0  0  0  0  0  0  0  0  0  0
   45.2200   35.9440   43.2240 C   0  0  0  0  0  0  0  0  0  0  0  0
   46.1910   36.8970   43.0020 F   0  0  0  0  0  0  0  0  0  0  0  0
   44.6140   35.6810   42.0020 F   0  0  0  0  0  0  0  0  0  0  0  0
   44.2950   36.4860   44.0700 F   0  0  0  0  0  0  0  0  0  0  0  0
   47.4950   34.9290   42.0740 O   0  0  0  0  0  0  0  0  0  0  0  0
   48.8440   35.0670   41.7120 C   0  0  0  0  0  0  0  0  0  0  0  0
   49.5560   35.3590   42.8710 F   0  0  0  0  0  0  0  0  0  0  0  0
   49.2750   33.9270   41.0760 F   0  0  0  0  0  0  0  0  0  0  0  0
   49.0010   36.1970   40.9180 F   0  0  0  0  0  0  0  0  0  0  0  0
  1  6  2  0  0  0  0
  1  2  1  0  0  0  0
  2  3  2  0  0  0  0
  3  4  1  0  0  0  0
  3  7  1  0  0  0  0
  5  8  1  0  0  0  0
  5  4  2  0  0  0  0
  6  5  1  0  0  0  0
  8 15  1  0  0  0  0
  9 10  2  0  0  0  0
  9  8  1  0  0  0  0
 10 12  1  0  0  0  0
 11 10  1  0  0  0  0
 12 13  2  0  0  0  0
 12 14  1  0  0  0  0
 14 17  1  0  0  0  0
 15 14  1  0  0  0  0
 15 16  2  0  0  0  0
 18  2  1  0  0  0  0
 18 21  1  0  0  0  0
 19 18  1  0  0  0  0
 20 18  1  0  0  0  0
 22  1  1  0  0  0  0
 23 22  1  0  0  0  0
 23 24  1  0  0  0  0
 25 23  1  0  0  0  0
 26 23  1  0  0  0  0
M  END
>  <minimizedAffinity>
-5.38483763

>  <minimizedRMSD>
0.671339512

$$$$
