
 OpenBabel03242520203D

 36 38  0  0  0  0  0  0  0  0999 V2000
   35.5960   28.6990   40.7130 C   0  0  0  0  0  0  0  0  0  0  0  0
   35.5320   28.0920   39.7830 H   0  0  0  0  0  0  0  0  0  0  0  0
   34.6210   28.5980   41.2530 H   0  0  0  0  0  0  0  0  0  0  0  0
   38.0720   26.4770   42.5010 C   0  0  0  0  0  0  0  0  0  0  0  0
   37.0580   26.8960   41.6180 C   0  0  0  0  0  0  0  0  0  0  0  0
   36.6520   28.2210   41.6360 C   0  0  0  0  0  0  0  0  0  0  0  0
   37.2720   29.0580   42.5250 N   0  0  0  0  0  0  0  0  0  0  0  0
   38.2540   28.6030   43.3630 C   0  0  0  0  0  0  0  0  0  0  0  0
   38.6380   27.3380   43.3430 N   0  0  0  0  0  0  0  0  0  0  0  0
   36.6260   26.1650   40.9520 H   0  0  0  0  0  0  0  0  0  0  0  0
   38.6970   29.3270   44.0410 H   0  0  0  0  0  0  0  0  0  0  0  0
   38.4890   25.0490   42.4810 C   0  0  0  0  0  0  0  0  0  0  0  0
   39.7400   24.8230   41.5620 C   0  0  0  0  0  0  0  0  0  0  0  0
   39.7180   24.5720   43.0070 C   0  0  0  0  0  0  0  0  0  0  0  0
   37.6380   24.3540   42.2380 H   0  0  0  0  0  0  0  0  0  0  0  0
   40.2090   25.7140   41.1210 H   0  0  0  0  0  0  0  0  0  0  0  0
   39.6700   23.9220   40.9190 H   0  0  0  0  0  0  0  0  0  0  0  0
   40.3280   25.3090   43.6100 H   0  0  0  0  0  0  0  0  0  0  0  0
   39.8350   23.5570   43.4390 H   0  0  0  0  0  0  0  0  0  0  0  0
   35.8050   30.1360   40.3370 C   0  0  0  0  0  0  0  0  0  0  0  0
   34.9340   30.4860   39.7480 H   0  0  0  0  0  0  0  0  0  0  0  0
   35.8230   30.8130   41.2330 H   0  0  0  0  0  0  0  0  0  0  0  0
   37.7270   31.6070   39.7780 C   0  0  0  0  0  0  0  0  0  0  0  0
   37.3740   32.4730   40.6370 O   0  0  0  0  0  0  0  0  0  0  0  0
   37.0540   30.3750   39.6330 N   0  0  0  0  0  0  0  0  0  0  0  0
   37.3760   29.6070   39.0610 H   0  0  0  0  0  0  0  0  0  0  0  0
   41.9940   33.1160   39.4110 H   0  0  0  0  0  0  0  0  0  0  0  0
   41.1510   32.7840   38.8980 N   0  0  0  0  0  0  0  0  0  0  0  0
   40.0450   32.4280   39.5690 C   0  0  0  0  0  3  0  0  0  0  0  0
   38.8740   31.9730   38.9540 C   0  0  0  0  0  0  0  0  0  0  0  0
   39.0130   31.9430   37.6080 C   0  0  0  0  0  0  0  0  0  0  0  0
   38.0460   31.5570   36.9220 O   0  0  0  0  0  0  0  0  0  0  0  0
   40.0900   32.2870   36.9100 N   0  0  0  0  0  0  0  0  0  0  0  0
   41.1870   32.7180   37.5570 C   0  0  0  0  0  0  0  0  0  0  0  0
   42.2300   33.0570   36.9800 O   0  0  0  0  0  0  0  0  0  0  0  0
   40.1360   32.2420   35.8810 H   0  0  0  0  0  0  0  0  0  0  0  0
  1  3  1  0  0  0  0
  1  6  1  0  0  0  0
  2  1  1  0  0  0  0
  4  9  1  0  0  0  0
  5  6  1  0  0  0  0
  5  4  2  0  0  0  0
  6  7  2  0  0  0  0
  7  8  1  0  0  0  0
  8 11  1  0  0  0  0
  9  8  2  0  0  0  0
 10  5  1  0  0  0  0
 12  4  1  0  0  0  0
 12 14  1  0  0  0  0
 13 12  1  0  0  0  0
 13 14  1  0  0  0  0
 14 19  1  0  0  0  0
 14 18  1  0  0  0  0
 15 12  1  0  0  0  0
 16 13  1  0  0  0  0
 17 13  1  0  0  0  0
 20  1  1  0  0  0  0
 20 22  1  0  0  0  0
 21 20  1  0  0  0  0
 23 24  2  0  0  0  0
 25 23  1  0  0  0  0
 25 20  1  0  0  0  0
 26 25  1  0  0  0  0
 28 27  1  0  0  0  0
 28 29  1  0  0  0  0
 30 29  2  0  0  0  0
 30 23  1  0  0  0  0
 31 30  1  0  0  0  0
 32 31  2  0  0  0  0
 33 34  1  0  0  0  0
 33 31  1  0  0  0  0
 34 28  1  0  0  0  0
 35 34  2  0  0  0  0
 36 33  1  0  0  0  0
M  END
>  <minimizedAffinity>
-5.6602335

$$$$

 OpenBabel03242520203D

 36 38  0  0  0  0  0  0  0  0999 V2000
   35.9660   29.0510   40.6070 C   0  0  0  0  0  0  0  0  0  0  0  0
   36.2500   28.8820   39.5450 H   0  0  0  0  0  0  0  0  0  0  0  0
   34.9660   28.5760   40.7710 H   0  0  0  0  0  0  0  0  0  0  0  0
   38.0610   26.4800   42.4150 C   0  0  0  0  0  0  0  0  0  0  0  0
   37.1520   27.0520   41.5040 C   0  0  0  0  0  0  0  0  0  0  0  0
   36.9070   28.4140   41.5590 C   0  0  0  0  0  0  0  0  0  0  0  0
   37.5750   29.1360   42.5110 N   0  0  0  0  0  0  0  0  0  0  0  0
   38.4490   28.5340   43.3760 C   0  0  0  0  0  0  0  0  0  0  0  0
   38.6800   27.2340   43.3200 N   0  0  0  0  0  0  0  0  0  0  0  0
   36.6720   26.4040   40.7870 H   0  0  0  0  0  0  0  0  0  0  0  0
   38.9390   29.1730   44.1040 H   0  0  0  0  0  0  0  0  0  0  0  0
   38.3050   25.0130   42.3530 C   0  0  0  0  0  0  0  0  0  0  0  0
   39.5320   24.6670   41.4390 C   0  0  0  0  0  0  0  0  0  0  0  0
   39.4610   24.3770   42.8750 C   0  0  0  0  0  0  0  0  0  0  0  0
   37.3800   24.4330   42.0810 H   0  0  0  0  0  0  0  0  0  0  0  0
   40.1080   25.5090   41.0310 H   0  0  0  0  0  0  0  0  0  0  0  0
   39.3620   23.8010   40.7670 H   0  0  0  0  0  0  0  0  0  0  0  0
   40.1470   25.0170   43.5070 H   0  0  0  0  0  0  0  0  0  0  0  0
   39.4500   23.3420   43.2760 H   0  0  0  0  0  0  0  0  0  0  0  0
   35.8560   30.5270   40.8490 C   0  0  0  0  0  0  0  0  0  0  0  0
   34.9710   30.9170   40.3080 H   0  0  0  0  0  0  0  0  0  0  0  0
   35.6510   30.7680   41.9260 H   0  0  0  0  0  0  0  0  0  0  0  0
   37.4050   31.4580   39.1440 C   0  0  0  0  0  0  0  0  0  0  0  0
   36.6150   31.1590   38.1960 O   0  0  0  0  0  0  0  0  0  0  0  0
   37.0600   31.2620   40.4990 N   0  0  0  0  0  0  0  0  0  0  0  0
   37.5960   31.6040   41.2840 H   0  0  0  0  0  0  0  0  0  0  0  0
   40.5950   32.1060   35.9780 H   0  0  0  0  0  0  0  0  0  0  0  0
   40.3090   32.2890   36.9610 N   0  0  0  0  0  0  0  0  0  0  0  0
   39.1440   31.8130   37.4290 C   0  0  0  0  0  3  0  0  0  0  0  0
   38.6900   32.0160   38.7370 C   0  0  0  0  0  0  0  0  0  0  0  0
   39.5770   32.7480   39.4510 C   0  0  0  0  0  0  0  0  0  0  0  0
   39.3060   33.0090   40.6390 O   0  0  0  0  0  0  0  0  0  0  0  0
   40.7370   33.2340   39.0230 N   0  0  0  0  0  0  0  0  0  0  0  0
   41.1210   33.0070   37.7550 C   0  0  0  0  0  0  0  0  0  0  0  0
   42.1860   33.4260   37.2800 O   0  0  0  0  0  0  0  0  0  0  0  0
   41.3730   33.7880   39.6170 H   0  0  0  0  0  0  0  0  0  0  0  0
  1  3  1  0  0  0  0
  1 20  1  0  0  0  0
  1  6  1  0  0  0  0
  2  1  1  0  0  0  0
  4  9  1  0  0  0  0
  5  6  1  0  0  0  0
  5  4  2  0  0  0  0
  6  7  2  0  0  0  0
  7  8  1  0  0  0  0
  8 11  1  0  0  0  0
  9  8  2  0  0  0  0
 10  5  1  0  0  0  0
 12  4  1  0  0  0  0
 12 14  1  0  0  0  0
 13 12  1  0  0  0  0
 13 14  1  0  0  0  0
 14 19  1  0  0  0  0
 14 18  1  0  0  0  0
 15 12  1  0  0  0  0
 16 13  1  0  0  0  0
 17 13  1  0  0  0  0
 20 22  1  0  0  0  0
 21 20  1  0  0  0  0
 23 25  1  0  0  0  0
 24 23  2  0  0  0  0
 25 20  1  0  0  0  0
 25 26  1  0  0  0  0
 27 28  1  0  0  0  0
 28 29  1  0  0  0  0
 28 34  1  0  0  0  0
 29 30  2  0  0  0  0
 30 23  1  0  0  0  0
 30 31  1  0  0  0  0
 31 32  2  0  0  0  0
 33 31  1  0  0  0  0
 33 36  1  0  0  0  0
 34 33  1  0  0  0  0
 35 34  2  0  0  0  0
M  END
>  <minimizedAffinity>
-5.57156849

$$$$

 OpenBabel03242520203D

 36 38  0  0  0  0  0  0  0  0999 V2000
   36.2490   25.7930   38.7420 C   0  0  0  0  0  0  0  0  0  0  0  0
   36.3540   24.8360   38.1860 H   0  0  0  0  0  0  0  0  0  0  0  0
   35.3110   25.7330   39.3490 H   0  0  0  0  0  0  0  0  0  0  0  0
   38.1880   26.6020   41.8810 C   0  0  0  0  0  0  0  0  0  0  0  0
   37.1070   26.3980   41.0010 C   0  0  0  0  0  0  0  0  0  0  0  0
   37.3630   26.0280   39.6910 C   0  0  0  0  0  0  0  0  0  0  0  0
   38.6730   25.8800   39.3220 N   0  0  0  0  0  0  0  0  0  0  0  0
   39.6900   26.0900   40.2150 C   0  0  0  0  0  0  0  0  0  0  0  0
   39.4420   26.4430   41.4640 N   0  0  0  0  0  0  0  0  0  0  0  0
   36.1070   26.5380   41.3810 H   0  0  0  0  0  0  0  0  0  0  0  0
   40.7030   25.9540   39.8470 H   0  0  0  0  0  0  0  0  0  0  0  0
   37.9000   27.0120   43.2820 C   0  0  0  0  0  0  0  0  0  0  0  0
   37.9310   28.5700   43.4500 C   0  0  0  0  0  0  0  0  0  0  0  0
   36.7460   27.7370   43.6770 C   0  0  0  0  0  0  0  0  0  0  0  0
   38.5500   26.4790   44.0300 H   0  0  0  0  0  0  0  0  0  0  0  0
   38.0690   29.1720   42.5400 H   0  0  0  0  0  0  0  0  0  0  0  0
   38.4550   28.9140   44.3640 H   0  0  0  0  0  0  0  0  0  0  0  0
   35.9380   27.8640   42.8950 H   0  0  0  0  0  0  0  0  0  0  0  0
   36.2760   27.6250   44.6750 H   0  0  0  0  0  0  0  0  0  0  0  0
   36.1250   26.9140   37.7530 C   0  0  0  0  0  0  0  0  0  0  0  0
   36.5270   26.5800   36.7760 H   0  0  0  0  0  0  0  0  0  0  0  0
   35.0540   27.1750   37.5370 H   0  0  0  0  0  0  0  0  0  0  0  0
   35.9630   29.2290   38.6400 C   0  0  0  0  0  0  0  0  0  0  0  0
   34.7130   29.1170   38.8320 O   0  0  0  0  0  0  0  0  0  0  0  0
   36.7540   28.1480   38.1940 N   0  0  0  0  0  0  0  0  0  0  0  0
   37.7630   28.1510   38.1540 H   0  0  0  0  0  0  0  0  0  0  0  0
   36.7980   32.6410   41.5180 H   0  0  0  0  0  0  0  0  0  0  0  0
   36.9060   32.2900   40.5440 N   0  0  0  0  0  0  0  0  0  0  0  0
   36.4190   31.0890   40.1970 C   0  0  0  0  0  3  0  0  0  0  0  0
   36.5250   30.5480   38.9100 C   0  0  0  0  0  0  0  0  0  0  0  0
   37.1760   31.3950   38.0800 C   0  0  0  0  0  0  0  0  0  0  0  0
   37.3460   31.0470   36.8950 O   0  0  0  0  0  0  0  0  0  0  0  0
   37.6700   32.5900   38.3870 N   0  0  0  0  0  0  0  0  0  0  0  0
   37.5390   33.0570   39.6400 C   0  0  0  0  0  0  0  0  0  0  0  0
   37.9720   34.1600   40.0060 O   0  0  0  0  0  0  0  0  0  0  0  0
   38.1590   33.1920   37.7070 H   0  0  0  0  0  0  0  0  0  0  0  0
  1  3  1  0  0  0  0
  1  6  1  0  0  0  0
  2  1  1  0  0  0  0
  4 12  1  0  0  0  0
  5 10  1  0  0  0  0
  5  4  2  0  0  0  0
  6  5  1  0  0  0  0
  7  6  2  0  0  0  0
  7  8  1  0  0  0  0
  8  9  2  0  0  0  0
  9  4  1  0  0  0  0
 11  8  1  0  0  0  0
 12 13  1  0  0  0  0
 12 14  1  0  0  0  0
 12 15  1  0  0  0  0
 13 14  1  0  0  0  0
 13 17  1  0  0  0  0
 14 19  1  0  0  0  0
 16 13  1  0  0  0  0
 18 14  1  0  0  0  0
 20 25  1  0  0  0  0
 20  1  1  0  0  0  0
 21 20  1  0  0  0  0
 22 20  1  0  0  0  0
 23 24  2  0  0  0  0
 23 30  1  0  0  0  0
 25 23  1  0  0  0  0
 26 25  1  0  0  0  0
 28 27  1  0  0  0  0
 29 28  1  0  0  0  0
 30 29  2  0  0  0  0
 31 33  1  0  0  0  0
 31 30  1  0  0  0  0
 32 31  2  0  0  0  0
 33 34  1  0  0  0  0
 34 35  2  0  0  0  0
 34 28  1  0  0  0  0
 36 33  1  0  0  0  0
M  END
>  <minimizedAffinity>
-5.42690468

$$$$

 OpenBabel03242520203D

 36 38  0  0  0  0  0  0  0  0999 V2000
   36.5350   26.3130   37.9690 C   0  0  0  0  0  0  0  0  0  0  0  0
   37.4370   26.8960   37.6810 H   0  0  0  0  0  0  0  0  0  0  0  0
   36.3320   25.5750   37.1520 H   0  0  0  0  0  0  0  0  0  0  0  0
   37.8160   25.1830   41.3380 C   0  0  0  0  0  0  0  0  0  0  0  0
   37.6620   25.9390   40.1590 C   0  0  0  0  0  0  0  0  0  0  0  0
   36.7320   25.5350   39.2150 C   0  0  0  0  0  0  0  0  0  0  0  0
   36.0050   24.4070   39.4890 N   0  0  0  0  0  0  0  0  0  0  0  0
   36.1920   23.7060   40.6500 C   0  0  0  0  0  0  0  0  0  0  0  0
   37.0810   24.0950   41.5470 N   0  0  0  0  0  0  0  0  0  0  0  0
   38.2790   26.8150   40.0290 H   0  0  0  0  0  0  0  0  0  0  0  0
   35.5790   22.8210   40.7940 H   0  0  0  0  0  0  0  0  0  0  0  0
   38.8280   25.6220   42.3370 C   0  0  0  0  0  0  0  0  0  0  0  0
   39.5510   24.4010   43.0050 C   0  0  0  0  0  0  0  0  0  0  0  0
   40.2250   25.4200   42.1950 C   0  0  0  0  0  0  0  0  0  0  0  0
   38.4060   26.3440   43.0900 H   0  0  0  0  0  0  0  0  0  0  0  0
   39.3090   23.4000   42.6200 H   0  0  0  0  0  0  0  0  0  0  0  0
   39.6800   24.4990   44.1020 H   0  0  0  0  0  0  0  0  0  0  0  0
   40.5810   25.0460   41.1890 H   0  0  0  0  0  0  0  0  0  0  0  0
   40.9800   26.1160   42.6160 H   0  0  0  0  0  0  0  0  0  0  0  0
   35.3700   27.2500   38.0850 C   0  0  0  0  0  0  0  0  0  0  0  0
   34.9660   27.4520   37.0730 H   0  0  0  0  0  0  0  0  0  0  0  0
   34.5080   26.7920   38.6410 H   0  0  0  0  0  0  0  0  0  0  0  0
   36.2040   29.5900   38.0820 C   0  0  0  0  0  0  0  0  0  0  0  0
   36.2540   29.6200   36.8140 O   0  0  0  0  0  0  0  0  0  0  0  0
   35.6870   28.4830   38.7880 N   0  0  0  0  0  0  0  0  0  0  0  0
   35.5050   28.4670   39.7810 H   0  0  0  0  0  0  0  0  0  0  0  0
   38.6180   33.4360   38.0030 H   0  0  0  0  0  0  0  0  0  0  0  0
   38.0290   32.8000   38.5800 N   0  0  0  0  0  0  0  0  0  0  0  0
   37.5150   31.6810   38.0480 C   0  0  0  0  0  3  0  0  0  0  0  0
   36.7160   30.7770   38.7580 C   0  0  0  0  0  0  0  0  0  0  0  0
   36.5380   31.1860   40.0350 C   0  0  0  0  0  0  0  0  0  0  0  0
   35.8440   30.4790   40.7910 O   0  0  0  0  0  0  0  0  0  0  0  0
   37.0310   32.2860   40.5960 N   0  0  0  0  0  0  0  0  0  0  0  0
   37.7930   33.1170   39.8650 C   0  0  0  0  0  0  0  0  0  0  0  0
   38.2880   34.1610   40.3130 O   0  0  0  0  0  0  0  0  0  0  0  0
   36.8590   32.5450   41.5800 H   0  0  0  0  0  0  0  0  0  0  0  0
  1 20  1  0  0  0  0
  1  6  1  0  0  0  0
  2  1  1  0  0  0  0
  3  1  1  0  0  0  0
  4  9  1  0  0  0  0
  4 12  1  0  0  0  0
  5  4  2  0  0  0  0
  6  7  2  0  0  0  0
  6  5  1  0  0  0  0
  7  8  1  0  0  0  0
  8 11  1  0  0  0  0
  8  9  2  0  0  0  0
 10  5  1  0  0  0  0
 12 13  1  0  0  0  0
 12 15  1  0  0  0  0
 13 17  1  0  0  0  0
 14 12  1  0  0  0  0
 14 19  1  0  0  0  0
 14 13  1  0  0  0  0
 16 13  1  0  0  0  0
 18 14  1  0  0  0  0
 20 22  1  0  0  0  0
 20 25  1  0  0  0  0
 21 20  1  0  0  0  0
 23 30  1  0  0  0  0
 23 25  1  0  0  0  0
 24 23  2  0  0  0  0
 25 26  1  0  0  0  0
 27 28  1  0  0  0  0
 28 34  1  0  0  0  0
 29 28  1  0  0  0  0
 29 30  2  0  0  0  0
 30 31  1  0  0  0  0
 31 33  1  0  0  0  0
 31 32  2  0  0  0  0
 33 36  1  0  0  0  0
 34 35  2  0  0  0  0
 34 33  1  0  0  0  0
M  END
>  <minimizedAffinity>
-5.1731286

$$$$

 OpenBabel03242520203D

 36 38  0  0  0  0  0  0  0  0999 V2000
   35.5850   29.1550   40.6200 C   0  0  0  0  0  0  0  0  0  0  0  0
   34.9970   28.4210   40.0260 H   0  0  0  0  0  0  0  0  0  0  0  0
   34.8640   29.7520   41.2330 H   0  0  0  0  0  0  0  0  0  0  0  0
   37.8440   26.6150   42.2700 C   0  0  0  0  0  0  0  0  0  0  0  0
   36.9460   27.2010   41.3560 C   0  0  0  0  0  0  0  0  0  0  0  0
   36.5200   28.5030   41.5680 C   0  0  0  0  0  0  0  0  0  0  0  0
   37.0060   29.1520   42.6710 N   0  0  0  0  0  0  0  0  0  0  0  0
   37.8780   28.5390   43.5300 C   0  0  0  0  0  0  0  0  0  0  0  0
   38.2810   27.2980   43.3240 N   0  0  0  0  0  0  0  0  0  0  0  0
   36.6160   26.6120   40.5140 H   0  0  0  0  0  0  0  0  0  0  0  0
   38.2180   29.1190   44.3830 H   0  0  0  0  0  0  0  0  0  0  0  0
   38.2830   25.2120   42.0360 C   0  0  0  0  0  0  0  0  0  0  0  0
   39.7610   25.1450   41.5160 C   0  0  0  0  0  0  0  0  0  0  0  0
   39.3010   24.5640   42.7820 C   0  0  0  0  0  0  0  0  0  0  0  0
   37.5650   24.6370   41.3880 H   0  0  0  0  0  0  0  0  0  0  0  0
   40.3190   26.0900   41.4650 H   0  0  0  0  0  0  0  0  0  0  0  0
   39.9140   24.4250   40.6870 H   0  0  0  0  0  0  0  0  0  0  0  0
   39.6770   25.1070   43.7000 H   0  0  0  0  0  0  0  0  0  0  0  0
   39.3050   23.4710   42.9740 H   0  0  0  0  0  0  0  0  0  0  0  0
   36.3090   30.0710   39.6790 C   0  0  0  0  0  0  0  0  0  0  0  0
   36.4650   29.5480   38.7140 H   0  0  0  0  0  0  0  0  0  0  0  0
   35.6970   30.9730   39.4080 H   0  0  0  0  0  0  0  0  0  0  0  0
   37.9140   31.9350   40.0190 C   0  0  0  0  0  0  0  0  0  0  0  0
   37.1060   32.7830   39.5290 O   0  0  0  0  0  0  0  0  0  0  0  0
   37.5580   30.5830   40.2150 N   0  0  0  0  0  0  0  0  0  0  0  0
   38.1160   29.9090   40.7190 H   0  0  0  0  0  0  0  0  0  0  0  0
   41.2050   35.0170   39.4710 H   0  0  0  0  0  0  0  0  0  0  0  0
   40.9040   34.1590   39.9790 N   0  0  0  0  0  0  0  0  0  0  0  0
   39.7080   33.6050   39.7260 C   0  0  0  0  0  3  0  0  0  0  0  0
   39.2330   32.4540   40.3650 C   0  0  0  0  0  0  0  0  0  0  0  0
   40.1370   31.9860   41.2570 C   0  0  0  0  0  0  0  0  0  0  0  0
   39.8510   30.9610   41.9050 O   0  0  0  0  0  0  0  0  0  0  0  0
   41.3280   32.5070   41.5330 N   0  0  0  0  0  0  0  0  0  0  0  0
   41.7310   33.6150   40.8870 C   0  0  0  0  0  0  0  0  0  0  0  0
   42.8250   34.1610   41.0860 O   0  0  0  0  0  0  0  0  0  0  0  0
   41.9750   32.1030   42.2270 H   0  0  0  0  0  0  0  0  0  0  0  0
  1  3  1  0  0  0  0
  1  6  1  0  0  0  0
  2  1  1  0  0  0  0
  4  9  1  0  0  0  0
  5  6  1  0  0  0  0
  5  4  2  0  0  0  0
  6  7  2  0  0  0  0
  7  8  1  0  0  0  0
  8 11  1  0  0  0  0
  9  8  2  0  0  0  0
 10  5  1  0  0  0  0
 12  4  1  0  0  0  0
 12 14  1  0  0  0  0
 13 12  1  0  0  0  0
 13 14  1  0  0  0  0
 14 19  1  0  0  0  0
 14 18  1  0  0  0  0
 15 12  1  0  0  0  0
 16 13  1  0  0  0  0
 17 13  1  0  0  0  0
 20 25  1  0  0  0  0
 20  1  1  0  0  0  0
 21 20  1  0  0  0  0
 22 20  1  0  0  0  0
 23 25  1  0  0  0  0
 23 30  1  0  0  0  0
 24 23  2  0  0  0  0
 25 26  1  0  0  0  0
 27 28  1  0  0  0  0
 28 34  1  0  0  0  0
 29 28  1  0  0  0  0
 29 30  2  0  0  0  0
 30 31  1  0  0  0  0
 31 33  1  0  0  0  0
 31 32  2  0  0  0  0
 33 36  1  0  0  0  0
 34 35  2  0  0  0  0
 34 33  1  0  0  0  0
M  END
>  <minimizedAffinity>
-5.08268213

$$$$

 OpenBabel03242520203D

 36 38  0  0  0  0  0  0  0  0999 V2000
   40.0060   30.2710   42.5870 C   0  0  0  0  0  0  0  0  0  0  0  0
   40.2730   30.6190   43.6080 H   0  0  0  0  0  0  0  0  0  0  0  0
   40.9530   29.9750   42.0700 H   0  0  0  0  0  0  0  0  0  0  0  0
   38.7680   26.7160   42.2740 C   0  0  0  0  0  0  0  0  0  0  0  0
   39.6240   27.8340   42.2390 C   0  0  0  0  0  0  0  0  0  0  0  0
   39.1290   29.0760   42.6010 C   0  0  0  0  0  0  0  0  0  0  0  0
   37.8150   29.1440   42.9790 N   0  0  0  0  0  0  0  0  0  0  0  0
   37.0220   28.0290   42.9980 C   0  0  0  0  0  0  0  0  0  0  0  0
   37.4980   26.8460   42.6510 N   0  0  0  0  0  0  0  0  0  0  0  0
   40.6460   27.6840   41.9270 H   0  0  0  0  0  0  0  0  0  0  0  0
   35.9900   28.1640   43.3080 H   0  0  0  0  0  0  0  0  0  0  0  0
   39.3090   25.3900   41.8710 C   0  0  0  0  0  0  0  0  0  0  0  0
   39.6960   24.5170   43.1150 C   0  0  0  0  0  0  0  0  0  0  0  0
   38.6660   24.1540   42.1370 C   0  0  0  0  0  0  0  0  0  0  0  0
   40.1440   25.4750   41.1200 H   0  0  0  0  0  0  0  0  0  0  0  0
   39.4560   24.9230   44.1080 H   0  0  0  0  0  0  0  0  0  0  0  0
   40.6640   23.9870   43.0090 H   0  0  0  0  0  0  0  0  0  0  0  0
   37.6100   24.2110   42.5400 H   0  0  0  0  0  0  0  0  0  0  0  0
   38.7580   23.2710   41.4720 H   0  0  0  0  0  0  0  0  0  0  0  0
   39.3720   31.4070   41.8400 C   0  0  0  0  0  0  0  0  0  0  0  0
   38.4770   31.7500   42.3970 H   0  0  0  0  0  0  0  0  0  0  0  0
   40.0350   32.3130   41.7990 H   0  0  0  0  0  0  0  0  0  0  0  0
   37.7170   31.1680   40.0030 C   0  0  0  0  0  0  0  0  0  0  0  0
   36.7910   31.6760   40.7080 O   0  0  0  0  0  0  0  0  0  0  0  0
   39.0500   31.0860   40.4600 N   0  0  0  0  0  0  0  0  0  0  0  0
   39.8380   30.8140   39.8890 H   0  0  0  0  0  0  0  0  0  0  0  0
   34.9440   28.6670   37.4200 H   0  0  0  0  0  0  0  0  0  0  0  0
   35.7630   29.3090   37.4320 N   0  0  0  0  0  0  0  0  0  0  0  0
   36.2150   29.8100   38.5920 C   0  0  0  0  0  3  0  0  0  0  0  0
   37.3090   30.6770   38.6910 C   0  0  0  0  0  0  0  0  0  0  0  0
   37.8370   30.9340   37.4720 C   0  0  0  0  0  0  0  0  0  0  0  0
   38.8230   31.6940   37.4030 O   0  0  0  0  0  0  0  0  0  0  0  0
   37.4180   30.4560   36.3050 N   0  0  0  0  0  0  0  0  0  0  0  0
   36.3610   29.6260   36.2720 C   0  0  0  0  0  0  0  0  0  0  0  0
   35.9090   29.1390   35.2260 O   0  0  0  0  0  0  0  0  0  0  0  0
   37.8640   30.6900   35.4050 H   0  0  0  0  0  0  0  0  0  0  0  0
  1  6  1  0  0  0  0
  1  2  1  0  0  0  0
  3  1  1  0  0  0  0
  4  9  1  0  0  0  0
  5  4  2  0  0  0  0
  5  6  1  0  0  0  0
  6  7  2  0  0  0  0
  7  8  1  0  0  0  0
  8 11  1  0  0  0  0
  9  8  2  0  0  0  0
 10  5  1  0  0  0  0
 12 14  1  0  0  0  0
 12  4  1  0  0  0  0
 12 13  1  0  0  0  0
 13 16  1  0  0  0  0
 14 18  1  0  0  0  0
 14 13  1  0  0  0  0
 15 12  1  0  0  0  0
 17 13  1  0  0  0  0
 19 14  1  0  0  0  0
 20 21  1  0  0  0  0
 20  1  1  0  0  0  0
 22 20  1  0  0  0  0
 23 25  1  0  0  0  0
 23 24  2  0  0  0  0
 25 20  1  0  0  0  0
 26 25  1  0  0  0  0
 27 28  1  0  0  0  0
 28 29  1  0  0  0  0
 29 30  2  0  0  0  0
 30 23  1  0  0  0  0
 31 30  1  0  0  0  0
 32 31  2  0  0  0  0
 33 31  1  0  0  0  0
 34 33  1  0  0  0  0
 34 28  1  0  0  0  0
 35 34  2  0  0  0  0
 36 33  1  0  0  0  0
M  END
>  <minimizedAffinity>
-5.00000334

$$$$

 OpenBabel03242520203D

 36 38  0  0  0  0  0  0  0  0999 V2000
   38.0950   25.8650   42.3200 C   0  0  0  0  0  0  0  0  0  0  0  0
   38.1290   25.1920   43.2040 H   0  0  0  0  0  0  0  0  0  0  0  0
   39.0550   26.4390   42.2920 H   0  0  0  0  0  0  0  0  0  0  0  0
   36.7090   24.0300   39.3230 C   0  0  0  0  0  0  0  0  0  0  0  0
   36.7670   24.7240   40.5470 C   0  0  0  0  0  0  0  0  0  0  0  0
   37.9980   25.1230   41.0400 C   0  0  0  0  0  0  0  0  0  0  0  0
   39.1050   24.8140   40.2950 N   0  0  0  0  0  0  0  0  0  0  0  0
   38.9970   24.1370   39.1100 C   0  0  0  0  0  0  0  0  0  0  0  0
   37.8200   23.7580   38.6440 N   0  0  0  0  0  0  0  0  0  0  0  0
   35.8410   24.9240   41.0650 H   0  0  0  0  0  0  0  0  0  0  0  0
   39.9200   23.9270   38.5780 H   0  0  0  0  0  0  0  0  0  0  0  0
   35.3800   23.5980   38.8110 C   0  0  0  0  0  0  0  0  0  0  0  0
   35.2270   22.0370   38.8400 C   0  0  0  0  0  0  0  0  0  0  0  0
   34.3890   22.9650   39.6070 C   0  0  0  0  0  0  0  0  0  0  0  0
   35.1390   24.0420   37.8060 H   0  0  0  0  0  0  0  0  0  0  0  0
   36.0440   21.4600   39.2950 H   0  0  0  0  0  0  0  0  0  0  0  0
   34.7600   21.6140   37.9280 H   0  0  0  0  0  0  0  0  0  0  0  0
   34.5780   22.9400   40.7220 H   0  0  0  0  0  0  0  0  0  0  0  0
   33.3020   23.0820   39.4200 H   0  0  0  0  0  0  0  0  0  0  0  0
   36.9530   26.8230   42.4860 C   0  0  0  0  0  0  0  0  0  0  0  0
   36.0060   26.3010   42.2450 H   0  0  0  0  0  0  0  0  0  0  0  0
   36.8250   27.1520   43.5520 H   0  0  0  0  0  0  0  0  0  0  0  0
   37.7620   29.1610   42.2620 C   0  0  0  0  0  0  0  0  0  0  0  0
   38.3880   29.0990   43.3640 O   0  0  0  0  0  0  0  0  0  0  0  0
   37.1020   28.0420   41.7090 N   0  0  0  0  0  0  0  0  0  0  0  0
   36.7080   28.0080   40.7800 H   0  0  0  0  0  0  0  0  0  0  0  0
   39.9670   32.9370   41.0350 H   0  0  0  0  0  0  0  0  0  0  0  0
   39.0620   32.4220   41.0130 N   0  0  0  0  0  0  0  0  0  0  0  0
   38.9530   31.2170   41.5920 C   0  0  0  0  0  3  0  0  0  0  0  0
   37.7730   30.4640   41.6060 C   0  0  0  0  0  0  0  0  0  0  0  0
   36.7750   31.1140   40.9630 C   0  0  0  0  0  0  0  0  0  0  0  0
   35.6590   30.5630   40.8940 O   0  0  0  0  0  0  0  0  0  0  0  0
   36.8470   32.3060   40.3790 N   0  0  0  0  0  0  0  0  0  0  0  0
   38.0070   32.9830   40.3980 C   0  0  0  0  0  0  0  0  0  0  0  0
   38.1560   34.0980   39.8770 O   0  0  0  0  0  0  0  0  0  0  0  0
   36.0480   32.7510   39.9020 H   0  0  0  0  0  0  0  0  0  0  0  0
  1 20  1  0  0  0  0
  1  2  1  0  0  0  0
  3  1  1  0  0  0  0
  4  5  1  0  0  0  0
  5  6  2  0  0  0  0
  5 10  1  0  0  0  0
  6  1  1  0  0  0  0
  7  6  1  0  0  0  0
  8  7  2  0  0  0  0
  9  8  1  0  0  0  0
  9  4  2  0  0  0  0
 11  8  1  0  0  0  0
 12 13  1  0  0  0  0
 12  4  1  0  0  0  0
 12 14  1  0  0  0  0
 13 16  1  0  0  0  0
 13 14  1  0  0  0  0
 14 18  1  0  0  0  0
 15 12  1  0  0  0  0
 17 13  1  0  0  0  0
 19 14  1  0  0  0  0
 20 22  1  0  0  0  0
 21 20  1  0  0  0  0
 23 24  2  0  0  0  0
 25 23  1  0  0  0  0
 25 20  1  0  0  0  0
 26 25  1  0  0  0  0
 28 27  1  0  0  0  0
 28 29  1  0  0  0  0
 29 30  2  0  0  0  0
 30 23  1  0  0  0  0
 31 30  1  0  0  0  0
 32 31  2  0  0  0  0
 33 34  1  0  0  0  0
 33 31  1  0  0  0  0
 34 28  1  0  0  0  0
 35 34  2  0  0  0  0
 36 33  1  0  0  0  0
M  END
>  <minimizedAffinity>
-4.97197866

$$$$

 OpenBabel03242520203D

 36 38  0  0  0  0  0  0  0  0999 V2000
   37.5990   28.5540   43.3400 C   0  0  0  0  0  0  0  0  0  0  0  0
   36.5000   28.6910   43.2460 H   0  0  0  0  0  0  0  0  0  0  0  0
   37.8440   28.5040   44.4310 H   0  0  0  0  0  0  0  0  0  0  0  0
   37.6430   25.1560   41.6900 C   0  0  0  0  0  0  0  0  0  0  0  0
   37.1620   26.3460   42.2710 C   0  0  0  0  0  0  0  0  0  0  0  0
   38.0690   27.2850   42.7340 C   0  0  0  0  0  0  0  0  0  0  0  0
   39.4010   26.9960   42.5980 N   0  0  0  0  0  0  0  0  0  0  0  0
   39.8180   25.8240   42.0270 C   0  0  0  0  0  0  0  0  0  0  0  0
   38.9500   24.9310   41.5860 N   0  0  0  0  0  0  0  0  0  0  0  0
   36.0950   26.4880   42.3360 H   0  0  0  0  0  0  0  0  0  0  0  0
   40.8900   25.6660   41.9550 H   0  0  0  0  0  0  0  0  0  0  0  0
   36.6570   24.1500   41.2080 C   0  0  0  0  0  0  0  0  0  0  0  0
   36.2110   24.4360   39.7320 C   0  0  0  0  0  0  0  0  0  0  0  0
   36.9130   23.2240   40.1640 C   0  0  0  0  0  0  0  0  0  0  0  0
   35.7870   24.0260   41.9110 H   0  0  0  0  0  0  0  0  0  0  0  0
   36.7150   25.2590   39.2040 H   0  0  0  0  0  0  0  0  0  0  0  0
   35.1220   24.3230   39.5610 H   0  0  0  0  0  0  0  0  0  0  0  0
   37.9820   23.1570   39.7990 H   0  0  0  0  0  0  0  0  0  0  0  0
   36.4480   22.2170   40.1240 H   0  0  0  0  0  0  0  0  0  0  0  0
   38.2880   29.7400   42.7330 C   0  0  0  0  0  0  0  0  0  0  0  0
   37.8170   30.6660   43.1170 H   0  0  0  0  0  0  0  0  0  0  0  0
   39.3610   29.8200   43.0550 H   0  0  0  0  0  0  0  0  0  0  0  0
   37.2680   30.3240   40.5440 C   0  0  0  0  0  0  0  0  0  0  0  0
   36.3820   31.0450   41.0970 O   0  0  0  0  0  0  0  0  0  0  0  0
   38.3090   29.7160   41.2800 N   0  0  0  0  0  0  0  0  0  0  0  0
   39.1050   29.2470   40.8720 H   0  0  0  0  0  0  0  0  0  0  0  0
   34.8380   29.0630   36.9210 H   0  0  0  0  0  0  0  0  0  0  0  0
   35.7400   29.4600   37.2580 N   0  0  0  0  0  0  0  0  0  0  0  0
   35.9550   29.6400   38.5700 C   0  0  0  0  0  3  0  0  0  0  0  0
   37.1380   30.1660   39.1000 C   0  0  0  0  0  0  0  0  0  0  0  0
   38.0200   30.4640   38.1170 C   0  0  0  0  0  0  0  0  0  0  0  0
   39.1250   30.9430   38.4390 O   0  0  0  0  0  0  0  0  0  0  0  0
   37.8420   30.2990   36.8100 N   0  0  0  0  0  0  0  0  0  0  0  0
   36.6840   29.7880   36.3600 C   0  0  0  0  0  0  0  0  0  0  0  0
   36.4400   29.6050   35.1580 O   0  0  0  0  0  0  0  0  0  0  0  0
   38.5550   30.5460   36.1070 H   0  0  0  0  0  0  0  0  0  0  0  0
  1  3  1  0  0  0  0
  2  1  1  0  0  0  0
  4  5  1  0  0  0  0
  5 10  1  0  0  0  0
  5  6  2  0  0  0  0
  6  1  1  0  0  0  0
  7  6  1  0  0  0  0
  8  7  2  0  0  0  0
  9  4  2  0  0  0  0
  9  8  1  0  0  0  0
 11  8  1  0  0  0  0
 12  4  1  0  0  0  0
 12 15  1  0  0  0  0
 13 14  1  0  0  0  0
 13 12  1  0  0  0  0
 14 12  1  0  0  0  0
 16 13  1  0  0  0  0
 17 13  1  0  0  0  0
 18 14  1  0  0  0  0
 19 14  1  0  0  0  0
 20 22  1  0  0  0  0
 20 21  1  0  0  0  0
 20  1  1  0  0  0  0
 23 24  2  0  0  0  0
 23 25  1  0  0  0  0
 25 20  1  0  0  0  0
 26 25  1  0  0  0  0
 27 28  1  0  0  0  0
 28 29  1  0  0  0  0
 29 30  2  0  0  0  0
 30 23  1  0  0  0  0
 31 32  2  0  0  0  0
 31 30  1  0  0  0  0
 33 31  1  0  0  0  0
 34 33  1  0  0  0  0
 34 28  1  0  0  0  0
 35 34  2  0  0  0  0
 36 33  1  0  0  0  0
M  END
>  <minimizedAffinity>
-4.96281195

$$$$

 OpenBabel03242520203D

 36 38  0  0  0  0  0  0  0  0999 V2000
   36.6520   29.5620   41.5560 C   0  0  0  0  0  0  0  0  0  0  0  0
   35.9330   29.5520   42.4050 H   0  0  0  0  0  0  0  0  0  0  0  0
   37.6840   29.6130   41.9860 H   0  0  0  0  0  0  0  0  0  0  0  0
   36.7660   25.9380   40.4980 C   0  0  0  0  0  0  0  0  0  0  0  0
   36.8480   27.0910   41.3020 C   0  0  0  0  0  0  0  0  0  0  0  0
   36.5860   28.3290   40.7370 C   0  0  0  0  0  0  0  0  0  0  0  0
   36.2570   28.3570   39.4080 N   0  0  0  0  0  0  0  0  0  0  0  0
   36.1900   27.2070   38.6680 C   0  0  0  0  0  0  0  0  0  0  0  0
   36.4410   26.0290   39.2110 N   0  0  0  0  0  0  0  0  0  0  0  0
   37.1150   26.9720   42.3410 H   0  0  0  0  0  0  0  0  0  0  0  0
   35.9240   27.3120   37.6200 H   0  0  0  0  0  0  0  0  0  0  0  0
   37.0610   24.6160   41.1160 C   0  0  0  0  0  0  0  0  0  0  0  0
   38.5670   24.2160   40.9380 C   0  0  0  0  0  0  0  0  0  0  0  0
   37.9160   24.4350   42.2330 C   0  0  0  0  0  0  0  0  0  0  0  0
   36.3520   23.8120   40.7740 H   0  0  0  0  0  0  0  0  0  0  0  0
   39.2340   24.9580   40.4750 H   0  0  0  0  0  0  0  0  0  0  0  0
   38.7200   23.1560   40.6520 H   0  0  0  0  0  0  0  0  0  0  0  0
   38.2570   25.3730   42.7660 H   0  0  0  0  0  0  0  0  0  0  0  0
   37.7740   23.6220   42.9760 H   0  0  0  0  0  0  0  0  0  0  0  0
   36.4020   30.7860   40.7270 C   0  0  0  0  0  0  0  0  0  0  0  0
   35.4400   30.6680   40.1900 H   0  0  0  0  0  0  0  0  0  0  0  0
   36.2580   31.7050   41.3560 H   0  0  0  0  0  0  0  0  0  0  0  0
   38.5720   31.8930   40.2400 C   0  0  0  0  0  0  0  0  0  0  0  0
   38.7300   32.2210   41.4560 O   0  0  0  0  0  0  0  0  0  0  0  0
   37.4870   31.0970   39.8120 N   0  0  0  0  0  0  0  0  0  0  0  0
   37.3930   30.7030   38.8860 H   0  0  0  0  0  0  0  0  0  0  0  0
   42.3370   34.3080   39.4560 H   0  0  0  0  0  0  0  0  0  0  0  0
   41.5950   33.7090   39.0370 N   0  0  0  0  0  0  0  0  0  0  0  0
   40.6170   33.2040   39.8050 C   0  0  0  0  0  3  0  0  0  0  0  0
   39.5860   32.3930   39.3180 C   0  0  0  0  0  0  0  0  0  0  0  0
   39.7140   32.1930   37.9860 C   0  0  0  0  0  0  0  0  0  0  0  0
   38.8640   31.4860   37.4100 O   0  0  0  0  0  0  0  0  0  0  0  0
   40.6660   32.6760   37.1950 N   0  0  0  0  0  0  0  0  0  0  0  0
   41.6310   33.4500   37.7190 C   0  0  0  0  0  0  0  0  0  0  0  0
   42.5540   33.9380   37.0510 O   0  0  0  0  0  0  0  0  0  0  0  0
   40.7110   32.4870   36.1820 H   0  0  0  0  0  0  0  0  0  0  0  0
  1  3  1  0  0  0  0
  1  2  1  0  0  0  0
  4 12  1  0  0  0  0
  4  5  1  0  0  0  0
  5 10  1  0  0  0  0
  6  5  2  0  0  0  0
  6  1  1  0  0  0  0
  7  6  1  0  0  0  0
  8  9  1  0  0  0  0
  8  7  2  0  0  0  0
  9  4  2  0  0  0  0
 11  8  1  0  0  0  0
 12 14  1  0  0  0  0
 13 12  1  0  0  0  0
 13 14  1  0  0  0  0
 14 18  1  0  0  0  0
 14 19  1  0  0  0  0
 15 12  1  0  0  0  0
 16 13  1  0  0  0  0
 17 13  1  0  0  0  0
 20 22  1  0  0  0  0
 20  1  1  0  0  0  0
 21 20  1  0  0  0  0
 23 24  2  0  0  0  0
 25 23  1  0  0  0  0
 25 20  1  0  0  0  0
 26 25  1  0  0  0  0
 28 27  1  0  0  0  0
 28 29  1  0  0  0  0
 30 29  2  0  0  0  0
 30 23  1  0  0  0  0
 31 30  1  0  0  0  0
 32 31  2  0  0  0  0
 33 34  1  0  0  0  0
 33 31  1  0  0  0  0
 34 28  1  0  0  0  0
 35 34  2  0  0  0  0
 36 33  1  0  0  0  0
M  END
>  <minimizedAffinity>
-4.96087742

$$$$
