
 OpenBabel03252507473D

 38 40  0  0  0  0  0  0  0  0999 V2000
   35.1250   29.0510   40.1310 C   0  0  0  0  0  0  0  0  0  0  0  0
   34.1950   28.6920   40.5900 H   0  0  0  0  0  0  0  0  0  0  0  0
   34.9670   30.0930   39.8120 H   0  0  0  0  0  0  0  0  0  0  0  0
   36.2170   28.9300   41.1150 C   0  0  0  0  0  0  0  0  0  0  0  0
   37.0450   30.0290   41.2610 C   0  0  0  0  0  0  0  0  0  0  0  0
   38.1030   30.0270   42.1550 C   0  0  0  0  0  0  0  0  0  0  0  0
   38.2810   28.8740   42.8880 N   0  0  0  0  0  0  0  0  0  0  0  0
   37.4530   27.8270   42.7170 C   0  0  0  0  0  0  0  0  0  0  0  0
   36.4460   27.8540   41.8510 N   0  0  0  0  0  0  0  0  0  0  0  0
   38.7560   30.8650   42.2850 H   0  0  0  0  0  0  0  0  0  0  0  0
   37.5660   26.9010   43.2780 H   0  0  0  0  0  0  0  0  0  0  0  0
   36.7700   31.5270   40.2730 S   0  0  0  0  0  0  0  0  0  0  0  0
   39.8480   30.2460   36.7050 H   0  0  0  0  0  0  0  0  0  0  0  0
   39.6210   30.9590   37.4380 N   0  0  0  0  0  0  0  0  0  0  0  0
   38.5340   30.7130   38.1670 C   0  0  0  0  0  3  0  0  0  0  0  0
   38.1740   31.6020   39.1460 C   0  0  0  0  0  0  0  0  0  0  0  0
   38.9400   32.7420   39.3630 C   0  0  0  0  0  0  0  0  0  0  0  0
   38.7180   33.6450   40.2370 O   0  0  0  0  0  0  0  0  0  0  0  0
   40.0430   32.9660   38.6030 N   0  0  0  0  0  0  0  0  0  0  0  0
   40.3730   32.0690   37.6430 C   0  0  0  0  0  0  0  0  0  0  0  0
   41.3770   32.2190   36.9100 O   0  0  0  0  0  0  0  0  0  0  0  0
   40.6450   33.8150   38.7390 H   0  0  0  0  0  0  0  0  0  0  0  0
   35.3750   28.2570   38.8740 C   0  0  0  0  0  0  0  0  0  0  0  0
   36.3410   28.5620   38.4270 H   0  0  0  0  0  0  0  0  0  0  0  0
   35.5010   27.1830   39.1690 H   0  0  0  0  0  0  0  0  0  0  0  0
   34.2400   28.2730   37.9190 C   0  0  0  0  0  0  0  0  0  0  0  0
   34.1170   27.2200   36.9560 C   0  0  0  0  0  0  0  0  0  0  0  0
   32.5990   27.6770   36.0370 S   0  0  0  0  0  0  0  0  0  0  0  0
   32.3800   29.2270   37.1160 C   0  0  0  0  0  0  0  0  0  0  0  0
   33.2790   29.1460   37.8150 N   0  0  0  0  0  0  0  0  0  0  0  0
   34.7730   26.3730   36.8230 H   0  0  0  0  0  0  0  0  0  0  0  0
   31.3310   30.1190   36.9510 O   0  0  0  0  0  0  0  0  0  0  0  0
   28.9990   29.4120   37.9930 O   0  0  0  0  0  0  0  0  0  0  0  0
   30.2300   30.2800   38.2450 P   0  0  0  0  0  0  0  0  0  0  0  0
   31.0030   29.7370   39.6460 O   0  0  0  0  0  0  0  0  0  0  0  0
   30.3920   29.8600   40.4160 H   0  0  0  0  0  0  0  0  0  0  0  0
   29.7930   31.9020   38.4320 O   0  0  0  0  0  0  0  0  0  0  0  0
   29.0000   32.1190   37.9080 H   0  0  0  0  0  0  0  0  0  0  0  0
  1  2  1  0  0  0  0
  1  4  1  0  0  0  0
  3  1  1  0  0  0  0
  4  5  2  0  0  0  0
  4  9  1  0  0  0  0
  5  6  1  0  0  0  0
  6 10  1  0  0  0  0
  6  7  2  0  0  0  0
  8  7  1  0  0  0  0
  8 11  1  0  0  0  0
  9  8  2  0  0  0  0
 12  5  1  0  0  0  0
 13 14  1  0  0  0  0
 14 20  1  0  0  0  0
 14 15  1  0  0  0  0
 15 16  2  0  0  0  0
 16 17  1  0  0  0  0
 16 12  1  0  0  0  0
 17 18  2  0  0  0  0
 19 22  1  0  0  0  0
 19 17  1  0  0  0  0
 20 19  1  0  0  0  0
 21 20  2  0  0  0  0
 23 25  1  0  0  0  0
 23  1  1  0  0  0  0
 24 23  1  0  0  0  0
 26 23  1  0  0  0  0
 27 26  2  0  0  0  0
 28 27  1  0  0  0  0
 28 29  1  0  0  0  0
 29 30  2  0  0  0  0
 30 26  1  0  0  0  0
 31 27  1  0  0  0  0
 32 29  1  0  0  0  0
 32 34  1  0  0  0  0
 33 34  2  0  0  0  0
 34 37  1  0  0  0  0
 34 35  1  0  0  0  0
 35 36  1  0  0  0  0
 38 37  1  0  0  0  0
M  END
>  <minimizedAffinity>
-6.00214481

$$$$

 OpenBabel03252507473D

 38 40  0  0  0  0  0  0  0  0999 V2000
   36.9470   31.3050   39.4640 C   0  0  0  0  0  0  0  0  0  0  0  0
   37.4460   31.2990   38.4860 H   0  0  0  0  0  0  0  0  0  0  0  0
   35.8960   31.5950   39.3080 H   0  0  0  0  0  0  0  0  0  0  0  0
   37.0710   29.9640   40.0670 C   0  0  0  0  0  0  0  0  0  0  0  0
   37.8300   29.0400   39.3720 C   0  0  0  0  0  0  0  0  0  0  0  0
   38.0150   27.7500   39.8440 C   0  0  0  0  0  0  0  0  0  0  0  0
   37.4030   27.4450   41.0400 N   0  0  0  0  0  0  0  0  0  0  0  0
   36.6740   28.3730   41.6850 C   0  0  0  0  0  0  0  0  0  0  0  0
   36.5110   29.6030   41.2100 N   0  0  0  0  0  0  0  0  0  0  0  0
   38.5970   27.0190   39.3230 H   0  0  0  0  0  0  0  0  0  0  0  0
   36.1760   28.1650   42.6310 H   0  0  0  0  0  0  0  0  0  0  0  0
   38.6170   29.4900   37.7990 S   0  0  0  0  0  0  0  0  0  0  0  0
   34.7020   29.7160   34.8900 H   0  0  0  0  0  0  0  0  0  0  0  0
   35.5470   29.1610   35.1620 N   0  0  0  0  0  0  0  0  0  0  0  0
   36.3010   29.6890   36.1240 C   0  0  0  0  0  3  0  0  0  0  0  0
   37.4240   29.0190   36.5330 C   0  0  0  0  0  0  0  0  0  0  0  0
   37.7620   27.8070   35.9430 C   0  0  0  0  0  0  0  0  0  0  0  0
   38.7740   27.0840   36.2280 O   0  0  0  0  0  0  0  0  0  0  0  0
   36.9730   27.2930   34.9630 N   0  0  0  0  0  0  0  0  0  0  0  0
   35.8700   27.9790   34.5810 C   0  0  0  0  0  0  0  0  0  0  0  0
   35.1040   27.5580   33.6840 O   0  0  0  0  0  0  0  0  0  0  0  0
   37.1970   26.3800   34.4950 H   0  0  0  0  0  0  0  0  0  0  0  0
   37.5640   32.3900   40.3090 C   0  0  0  0  0  0  0  0  0  0  0  0
   37.2680   33.3820   39.9150 H   0  0  0  0  0  0  0  0  0  0  0  0
   37.1150   32.3210   41.3330 H   0  0  0  0  0  0  0  0  0  0  0  0
   39.0260   32.2350   40.5090 C   0  0  0  0  0  0  0  0  0  0  0  0
   39.5110   31.6520   41.7240 C   0  0  0  0  0  0  0  0  0  0  0  0
   41.3300   31.6790   41.4970 S   0  0  0  0  0  0  0  0  0  0  0  0
   41.1310   32.4790   39.7840 C   0  0  0  0  0  0  0  0  0  0  0  0
   39.9950   32.5650   39.7040 N   0  0  0  0  0  0  0  0  0  0  0  0
   38.9270   31.2920   42.5570 H   0  0  0  0  0  0  0  0  0  0  0  0
   42.2080   32.8070   38.9750 O   0  0  0  0  0  0  0  0  0  0  0  0
   42.6400   31.5110   36.7050 O   0  0  0  0  0  0  0  0  0  0  0  0
   41.9640   32.7500   37.2870 P   0  0  0  0  0  0  0  0  0  0  0  0
   40.3010   32.6450   37.0120 O   0  0  0  0  0  0  0  0  0  0  0  0
   40.1370   32.6510   36.0350 H   0  0  0  0  0  0  0  0  0  0  0  0
   42.5690   34.1560   36.5690 O   0  0  0  0  0  0  0  0  0  0  0  0
   43.5010   34.0460   36.3020 H   0  0  0  0  0  0  0  0  0  0  0  0
  1  4  1  0  0  0  0
  1 23  1  0  0  0  0
  2  1  1  0  0  0  0
  3  1  1  0  0  0  0
  4  9  1  0  0  0  0
  5  6  1  0  0  0  0
  5  4  2  0  0  0  0
  6  7  2  0  0  0  0
  7  8  1  0  0  0  0
  8 11  1  0  0  0  0
  9  8  2  0  0  0  0
 10  6  1  0  0  0  0
 12  5  1  0  0  0  0
 13 14  1  0  0  0  0
 14 15  1  0  0  0  0
 15 16  2  0  0  0  0
 16 12  1  0  0  0  0
 17 18  2  0  0  0  0
 17 16  1  0  0  0  0
 19 17  1  0  0  0  0
 20 19  1  0  0  0  0
 20 14  1  0  0  0  0
 21 20  2  0  0  0  0
 22 19  1  0  0  0  0
 23 26  1  0  0  0  0
 23 25  1  0  0  0  0
 24 23  1  0  0  0  0
 26 27  2  0  0  0  0
 27 31  1  0  0  0  0
 28 27  1  0  0  0  0
 29 28  1  0  0  0  0
 30 29  2  0  0  0  0
 30 26  1  0  0  0  0
 32 29  1  0  0  0  0
 33 34  2  0  0  0  0
 34 32  1  0  0  0  0
 35 34  1  0  0  0  0
 36 35  1  0  0  0  0
 37 34  1  0  0  0  0
 38 37  1  0  0  0  0
M  END
>  <minimizedAffinity>
-5.53684092

$$$$

 OpenBabel03252507473D

 38 40  0  0  0  0  0  0  0  0999 V2000
   36.7300   28.6900   39.0250 C   0  0  0  0  0  0  0  0  0  0  0  0
   36.8380   29.6670   38.5350 H   0  0  0  0  0  0  0  0  0  0  0  0
   37.1270   27.9230   38.3430 H   0  0  0  0  0  0  0  0  0  0  0  0
   37.4540   28.7220   40.3100 C   0  0  0  0  0  0  0  0  0  0  0  0
   37.7960   29.9710   40.7980 C   0  0  0  0  0  0  0  0  0  0  0  0
   38.4780   30.1210   41.9950 C   0  0  0  0  0  0  0  0  0  0  0  0
   38.7930   28.9610   42.6670 N   0  0  0  0  0  0  0  0  0  0  0  0
   38.4410   27.7650   42.1590 C   0  0  0  0  0  0  0  0  0  0  0  0
   37.7890   27.6490   41.0080 N   0  0  0  0  0  0  0  0  0  0  0  0
   38.7530   31.0760   42.3910 H   0  0  0  0  0  0  0  0  0  0  0  0
   38.6750   26.8290   42.6630 H   0  0  0  0  0  0  0  0  0  0  0  0
   37.3600   31.4720   39.8750 S   0  0  0  0  0  0  0  0  0  0  0  0
   41.8970   33.2270   39.4650 H   0  0  0  0  0  0  0  0  0  0  0  0
   41.0660   32.8510   38.9530 N   0  0  0  0  0  0  0  0  0  0  0  0
   40.0250   32.5100   39.7100 C   0  0  0  0  0  3  0  0  0  0  0  0
   38.9000   32.0100   39.1100 C   0  0  0  0  0  0  0  0  0  0  0  0
   38.8580   31.8630   37.7280 C   0  0  0  0  0  0  0  0  0  0  0  0
   37.8790   31.4130   37.0450 O   0  0  0  0  0  0  0  0  0  0  0  0
   39.9360   32.2200   36.9810 N   0  0  0  0  0  0  0  0  0  0  0  0
   41.0330   32.7110   37.6040 C   0  0  0  0  0  0  0  0  0  0  0  0
   42.0570   33.0570   36.9710 O   0  0  0  0  0  0  0  0  0  0  0  0
   39.9400   32.1230   35.9360 H   0  0  0  0  0  0  0  0  0  0  0  0
   35.2610   28.3960   39.1850 C   0  0  0  0  0  0  0  0  0  0  0  0
   35.1270   27.3600   39.5530 H   0  0  0  0  0  0  0  0  0  0  0  0
   34.8670   29.0610   39.9960 H   0  0  0  0  0  0  0  0  0  0  0  0
   34.4500   28.7170   37.9850 C   0  0  0  0  0  0  0  0  0  0  0  0
   35.0970   28.8520   36.7150 C   0  0  0  0  0  0  0  0  0  0  0  0
   33.7080   29.2380   35.5830 S   0  0  0  0  0  0  0  0  0  0  0  0
   32.4730   29.1520   37.0260 C   0  0  0  0  0  0  0  0  0  0  0  0
   33.1630   28.9050   37.9020 N   0  0  0  0  0  0  0  0  0  0  0  0
   36.1500   28.7460   36.5010 H   0  0  0  0  0  0  0  0  0  0  0  0
   31.1120   29.3640   36.8680 O   0  0  0  0  0  0  0  0  0  0  0  0
   30.2170   31.6440   37.8800 O   0  0  0  0  0  0  0  0  0  0  0  0
   30.2890   30.1420   38.1450 P   0  0  0  0  0  0  0  0  0  0  0  0
   28.7190   29.5210   38.1970 O   0  0  0  0  0  0  0  0  0  0  0  0
   28.2370   29.9320   38.9590 H   0  0  0  0  0  0  0  0  0  0  0  0
   31.0710   29.8280   39.6100 O   0  0  0  0  0  0  0  0  0  0  0  0
   31.7420   30.5080   39.8080 H   0  0  0  0  0  0  0  0  0  0  0  0
  1 23  1  0  0  0  0
  1  4  1  0  0  0  0
  2  1  1  0  0  0  0
  3  1  1  0  0  0  0
  4  5  2  0  0  0  0
  4  9  1  0  0  0  0
  5  6  1  0  0  0  0
  6 10  1  0  0  0  0
  6  7  2  0  0  0  0
  8 11  1  0  0  0  0
  8  7  1  0  0  0  0
  9  8  2  0  0  0  0
 12  5  1  0  0  0  0
 14 13  1  0  0  0  0
 14 15  1  0  0  0  0
 16 15  2  0  0  0  0
 16 12  1  0  0  0  0
 17 16  1  0  0  0  0
 18 17  2  0  0  0  0
 19 20  1  0  0  0  0
 19 17  1  0  0  0  0
 20 14  1  0  0  0  0
 21 20  2  0  0  0  0
 22 19  1  0  0  0  0
 23 24  1  0  0  0  0
 23 25  1  0  0  0  0
 26 23  1  0  0  0  0
 27 26  2  0  0  0  0
 28 27  1  0  0  0  0
 28 29  1  0  0  0  0
 29 30  2  0  0  0  0
 30 26  1  0  0  0  0
 31 27  1  0  0  0  0
 32 29  1  0  0  0  0
 32 34  1  0  0  0  0
 33 34  2  0  0  0  0
 34 35  1  0  0  0  0
 34 37  1  0  0  0  0
 35 36  1  0  0  0  0
 37 38  1  0  0  0  0
M  END
>  <minimizedAffinity>
-5.53468037

$$$$

 OpenBabel03252507473D

 38 40  0  0  0  0  0  0  0  0999 V2000
   36.6030   27.6560   42.3460 C   0  0  0  0  0  0  0  0  0  0  0  0
   36.4640   28.4020   41.5520 H   0  0  0  0  0  0  0  0  0  0  0  0
   35.6740   27.6100   42.9350 H   0  0  0  0  0  0  0  0  0  0  0  0
   36.9360   26.3600   41.7260 C   0  0  0  0  0  0  0  0  0  0  0  0
   37.0930   26.3530   40.3510 C   0  0  0  0  0  0  0  0  0  0  0  0
   37.4050   25.1930   39.6620 C   0  0  0  0  0  0  0  0  0  0  0  0
   37.5500   24.0520   40.4210 N   0  0  0  0  0  0  0  0  0  0  0  0
   37.3900   24.1020   41.7560 C   0  0  0  0  0  0  0  0  0  0  0  0
   37.0890   25.2280   42.3930 N   0  0  0  0  0  0  0  0  0  0  0  0
   37.5310   25.1630   38.6000 H   0  0  0  0  0  0  0  0  0  0  0  0
   37.4960   23.2200   42.3860 H   0  0  0  0  0  0  0  0  0  0  0  0
   36.8910   27.8820   39.3930 S   0  0  0  0  0  0  0  0  0  0  0  0
   41.7370   28.2020   38.8790 H   0  0  0  0  0  0  0  0  0  0  0  0
   40.8080   28.2950   38.4050 N   0  0  0  0  0  0  0  0  0  0  0  0
   39.7430   28.0500   39.1650 C   0  0  0  0  0  3  0  0  0  0  0  0
   38.4930   28.1530   38.6120 C   0  0  0  0  0  0  0  0  0  0  0  0
   38.3530   28.5080   37.2750 C   0  0  0  0  0  0  0  0  0  0  0  0
   37.2540   28.6390   36.6400 O   0  0  0  0  0  0  0  0  0  0  0  0
   39.4590   28.7520   36.5250 N   0  0  0  0  0  0  0  0  0  0  0  0
   40.6800   28.6420   37.0990 C   0  0  0  0  0  0  0  0  0  0  0  0
   41.7360   28.8540   36.4610 O   0  0  0  0  0  0  0  0  0  0  0  0
   39.3910   29.0220   35.5130 H   0  0  0  0  0  0  0  0  0  0  0  0
   37.6740   28.1510   43.2840 C   0  0  0  0  0  0  0  0  0  0  0  0
   37.2100   28.5040   44.2260 H   0  0  0  0  0  0  0  0  0  0  0  0
   38.3110   27.2740   43.5680 H   0  0  0  0  0  0  0  0  0  0  0  0
   38.6050   29.1300   42.6700 C   0  0  0  0  0  0  0  0  0  0  0  0
   40.0160   28.9690   42.8530 C   0  0  0  0  0  0  0  0  0  0  0  0
   40.7170   30.3870   41.9260 S   0  0  0  0  0  0  0  0  0  0  0  0
   38.9720   30.9660   41.4410 C   0  0  0  0  0  0  0  0  0  0  0  0
   38.3210   30.1740   41.9450 N   0  0  0  0  0  0  0  0  0  0  0  0
   40.5210   28.1920   43.4060 H   0  0  0  0  0  0  0  0  0  0  0  0
   38.7400   32.0920   40.6660 O   0  0  0  0  0  0  0  0  0  0  0  0
   37.1210   31.4610   38.6650 O   0  0  0  0  0  0  0  0  0  0  0  0
   37.1910   32.2540   39.9680 P   0  0  0  0  0  0  0  0  0  0  0  0
   36.0680   31.6150   41.0570 O   0  0  0  0  0  0  0  0  0  0  0  0
   35.1570   31.7370   40.6860 H   0  0  0  0  0  0  0  0  0  0  0  0
   36.8490   33.8870   39.6960 O   0  0  0  0  0  0  0  0  0  0  0  0
   37.1320   34.1650   38.8040 H   0  0  0  0  0  0  0  0  0  0  0  0
  1  3  1  0  0  0  0
  1 23  1  0  0  0  0
  2  1  1  0  0  0  0
  4  1  1  0  0  0  0
  4  9  1  0  0  0  0
  5  4  2  0  0  0  0
  6  5  1  0  0  0  0
  6  7  2  0  0  0  0
  7  8  1  0  0  0  0
  8 11  1  0  0  0  0
  8  9  2  0  0  0  0
 10  6  1  0  0  0  0
 12  5  1  0  0  0  0
 14 13  1  0  0  0  0
 14 15  1  0  0  0  0
 16 15  2  0  0  0  0
 16 12  1  0  0  0  0
 17 16  1  0  0  0  0
 18 17  2  0  0  0  0
 19 20  1  0  0  0  0
 19 17  1  0  0  0  0
 20 14  1  0  0  0  0
 21 20  2  0  0  0  0
 22 19  1  0  0  0  0
 23 25  1  0  0  0  0
 23 24  1  0  0  0  0
 26 27  2  0  0  0  0
 26 23  1  0  0  0  0
 27 31  1  0  0  0  0
 28 27  1  0  0  0  0
 29 28  1  0  0  0  0
 29 30  2  0  0  0  0
 30 26  1  0  0  0  0
 32 29  1  0  0  0  0
 33 34  2  0  0  0  0
 34 32  1  0  0  0  0
 34 35  1  0  0  0  0
 36 35  1  0  0  0  0
 37 34  1  0  0  0  0
 38 37  1  0  0  0  0
M  END
>  <minimizedAffinity>
-5.47036076

$$$$

 OpenBabel03252507473D

 38 40  0  0  0  0  0  0  0  0999 V2000
   37.6170   26.2220   40.1790 C   0  0  0  0  0  0  0  0  0  0  0  0
   38.3990   26.4480   39.4430 H   0  0  0  0  0  0  0  0  0  0  0  0
   37.6790   25.1510   40.4240 H   0  0  0  0  0  0  0  0  0  0  0  0
   37.8190   27.0780   41.3640 C   0  0  0  0  0  0  0  0  0  0  0  0
   39.1050   27.5400   41.5820 C   0  0  0  0  0  0  0  0  0  0  0  0
   39.4110   28.3500   42.6630 C   0  0  0  0  0  0  0  0  0  0  0  0
   38.3670   28.6670   43.5040 N   0  0  0  0  0  0  0  0  0  0  0  0
   37.1310   28.1970   43.2560 C   0  0  0  0  0  0  0  0  0  0  0  0
   36.8630   27.4210   42.2120 N   0  0  0  0  0  0  0  0  0  0  0  0
   40.3980   28.7190   42.8520 H   0  0  0  0  0  0  0  0  0  0  0  0
   36.2830   28.4270   43.9000 H   0  0  0  0  0  0  0  0  0  0  0  0
   40.4490   27.0950   40.4460 S   0  0  0  0  0  0  0  0  0  0  0  0
   42.6160   24.0140   43.5520 H   0  0  0  0  0  0  0  0  0  0  0  0
   42.7240   24.8830   42.9790 N   0  0  0  0  0  0  0  0  0  0  0  0
   41.6570   25.2460   42.2710 C   0  0  0  0  0  3  0  0  0  0  0  0
   41.7230   26.3740   41.4970 C   0  0  0  0  0  0  0  0  0  0  0  0
   42.8950   27.1210   41.4580 C   0  0  0  0  0  0  0  0  0  0  0  0
   43.0910   28.1860   40.7840 O   0  0  0  0  0  0  0  0  0  0  0  0
   43.9690   26.7260   42.1920 N   0  0  0  0  0  0  0  0  0  0  0  0
   43.8720   25.6060   42.9470 C   0  0  0  0  0  0  0  0  0  0  0  0
   44.8250   25.1910   43.6450 O   0  0  0  0  0  0  0  0  0  0  0  0
   44.8690   27.2650   42.1880 H   0  0  0  0  0  0  0  0  0  0  0  0
   36.2730   26.4290   39.5270 C   0  0  0  0  0  0  0  0  0  0  0  0
   35.9550   25.4950   39.0250 H   0  0  0  0  0  0  0  0  0  0  0  0
   35.5240   26.6100   40.3400 H   0  0  0  0  0  0  0  0  0  0  0  0
   36.2070   27.6300   38.6580 C   0  0  0  0  0  0  0  0  0  0  0  0
   35.7900   27.4910   37.2960 C   0  0  0  0  0  0  0  0  0  0  0  0
   35.8700   29.2090   36.6610 S   0  0  0  0  0  0  0  0  0  0  0  0
   36.4570   29.8360   38.3570 C   0  0  0  0  0  0  0  0  0  0  0  0
   36.4840   28.8670   38.9610 N   0  0  0  0  0  0  0  0  0  0  0  0
   35.5030   26.5820   36.7880 H   0  0  0  0  0  0  0  0  0  0  0  0
   36.7370   31.1700   38.6130 O   0  0  0  0  0  0  0  0  0  0  0  0
   38.3560   31.1400   40.7100 O   0  0  0  0  0  0  0  0  0  0  0  0
   36.9840   31.6190   40.2400 P   0  0  0  0  0  0  0  0  0  0  0  0
   36.9380   33.3050   40.3210 O   0  0  0  0  0  0  0  0  0  0  0  0
   37.0400   33.5840   41.2660 H   0  0  0  0  0  0  0  0  0  0  0  0
   35.7590   30.9720   41.2090 O   0  0  0  0  0  0  0  0  0  0  0  0
   36.0050   30.0940   41.5550 H   0  0  0  0  0  0  0  0  0  0  0  0
  1  3  1  0  0  0  0
  1  4  1  0  0  0  0
  2  1  1  0  0  0  0
  4  5  2  0  0  0  0
  4  9  1  0  0  0  0
  5  6  1  0  0  0  0
  6 10  1  0  0  0  0
  6  7  2  0  0  0  0
  8  7  1  0  0  0  0
  8 11  1  0  0  0  0
  9  8  2  0  0  0  0
 12 16  1  0  0  0  0
 12  5  1  0  0  0  0
 14 13  1  0  0  0  0
 15 14  1  0  0  0  0
 16 15  2  0  0  0  0
 17 16  1  0  0  0  0
 17 19  1  0  0  0  0
 18 17  2  0  0  0  0
 19 20  1  0  0  0  0
 20 14  1  0  0  0  0
 20 21  2  0  0  0  0
 22 19  1  0  0  0  0
 23  1  1  0  0  0  0
 23 25  1  0  0  0  0
 24 23  1  0  0  0  0
 26 30  1  0  0  0  0
 26 23  1  0  0  0  0
 27 26  2  0  0  0  0
 28 27  1  0  0  0  0
 28 29  1  0  0  0  0
 29 32  1  0  0  0  0
 29 30  2  0  0  0  0
 31 27  1  0  0  0  0
 32 34  1  0  0  0  0
 34 35  1  0  0  0  0
 34 33  2  0  0  0  0
 34 37  1  0  0  0  0
 35 36  1  0  0  0  0
 37 38  1  0  0  0  0
M  END
>  <minimizedAffinity>
-5.46056461

$$$$

 OpenBabel03252507473D

 38 40  0  0  0  0  0  0  0  0999 V2000
   35.6080   28.3400   39.9700 C   0  0  0  0  0  0  0  0  0  0  0  0
   34.6050   28.0930   40.3430 H   0  0  0  0  0  0  0  0  0  0  0  0
   35.5550   29.3220   39.4760 H   0  0  0  0  0  0  0  0  0  0  0  0
   36.5510   28.3360   41.1050 C   0  0  0  0  0  0  0  0  0  0  0  0
   37.0700   29.5620   41.4830 C   0  0  0  0  0  0  0  0  0  0  0  0
   37.9640   29.6780   42.5350 C   0  0  0  0  0  0  0  0  0  0  0  0
   38.3040   28.5090   43.1790 N   0  0  0  0  0  0  0  0  0  0  0  0
   37.7760   27.3370   42.7800 C   0  0  0  0  0  0  0  0  0  0  0  0
   36.9210   27.2530   41.7670 N   0  0  0  0  0  0  0  0  0  0  0  0
   38.3780   30.6150   42.8450 H   0  0  0  0  0  0  0  0  0  0  0  0
   38.0240   26.3950   43.2660 H   0  0  0  0  0  0  0  0  0  0  0  0
   36.5920   31.0760   40.6030 S   0  0  0  0  0  0  0  0  0  0  0  0
   39.3160   30.3370   36.6190 H   0  0  0  0  0  0  0  0  0  0  0  0
   39.1600   30.9390   37.4610 N   0  0  0  0  0  0  0  0  0  0  0  0
   38.1470   30.5810   38.2480 C   0  0  0  0  0  3  0  0  0  0  0  0
   37.8820   31.3220   39.3700 C   0  0  0  0  0  0  0  0  0  0  0  0
   38.6670   32.4310   39.6710 C   0  0  0  0  0  0  0  0  0  0  0  0
   38.5300   33.2020   40.6770 O   0  0  0  0  0  0  0  0  0  0  0  0
   39.6940   32.7710   38.8480 N   0  0  0  0  0  0  0  0  0  0  0  0
   39.9300   32.0190   37.7470 C   0  0  0  0  0  0  0  0  0  0  0  0
   40.8600   32.2800   36.9510 O   0  0  0  0  0  0  0  0  0  0  0  0
   40.3060   33.6000   39.0430 H   0  0  0  0  0  0  0  0  0  0  0  0
   35.9760   27.3470   38.8970 C   0  0  0  0  0  0  0  0  0  0  0  0
   37.0750   27.3340   38.7620 H   0  0  0  0  0  0  0  0  0  0  0  0
   35.7020   26.3260   39.2700 H   0  0  0  0  0  0  0  0  0  0  0  0
   35.2170   27.5200   37.6340 C   0  0  0  0  0  0  0  0  0  0  0  0
   34.1450   26.6220   37.3280 C   0  0  0  0  0  0  0  0  0  0  0  0
   33.5420   27.2350   35.7090 S   0  0  0  0  0  0  0  0  0  0  0  0
   34.8480   28.6160   35.7160 C   0  0  0  0  0  0  0  0  0  0  0  0
   35.3840   28.4180   36.7040 N   0  0  0  0  0  0  0  0  0  0  0  0
   33.7960   25.7910   37.9220 H   0  0  0  0  0  0  0  0  0  0  0  0
   34.9730   29.5410   34.6900 O   0  0  0  0  0  0  0  0  0  0  0  0
   36.5620   29.6650   32.5730 O   0  0  0  0  0  0  0  0  0  0  0  0
   36.5430   29.8360   34.0900 P   0  0  0  0  0  0  0  0  0  0  0  0
   36.9430   31.4350   34.4630 O   0  0  0  0  0  0  0  0  0  0  0  0
   37.8680   31.6130   34.1580 H   0  0  0  0  0  0  0  0  0  0  0  0
   37.6470   28.7900   34.8270 O   0  0  0  0  0  0  0  0  0  0  0  0
   37.7530   27.9670   34.3140 H   0  0  0  0  0  0  0  0  0  0  0  0
  1  2  1  0  0  0  0
  1  4  1  0  0  0  0
  3  1  1  0  0  0  0
  4  5  2  0  0  0  0
  4  9  1  0  0  0  0
  5  6  1  0  0  0  0
  6 10  1  0  0  0  0
  6  7  2  0  0  0  0
  8  7  1  0  0  0  0
  8 11  1  0  0  0  0
  9  8  2  0  0  0  0
 12  5  1  0  0  0  0
 13 14  1  0  0  0  0
 14 20  1  0  0  0  0
 14 15  1  0  0  0  0
 15 16  2  0  0  0  0
 16 17  1  0  0  0  0
 16 12  1  0  0  0  0
 17 18  2  0  0  0  0
 19 22  1  0  0  0  0
 19 17  1  0  0  0  0
 20 19  1  0  0  0  0
 21 20  2  0  0  0  0
 23 25  1  0  0  0  0
 23  1  1  0  0  0  0
 24 23  1  0  0  0  0
 26 23  1  0  0  0  0
 27 26  2  0  0  0  0
 27 31  1  0  0  0  0
 28 29  1  0  0  0  0
 28 27  1  0  0  0  0
 29 30  2  0  0  0  0
 30 26  1  0  0  0  0
 32 29  1  0  0  0  0
 33 34  2  0  0  0  0
 34 35  1  0  0  0  0
 34 32  1  0  0  0  0
 34 37  1  0  0  0  0
 36 35  1  0  0  0  0
 38 37  1  0  0  0  0
M  END
>  <minimizedAffinity>
-5.4306345

$$$$

 OpenBabel03252507473D

 38 40  0  0  0  0  0  0  0  0999 V2000
   37.0160   31.3040   40.5270 C   0  0  0  0  0  0  0  0  0  0  0  0
   36.0890   31.5320   41.0700 H   0  0  0  0  0  0  0  0  0  0  0  0
   37.8390   31.2680   41.2560 H   0  0  0  0  0  0  0  0  0  0  0  0
   36.8460   30.0240   39.8150 C   0  0  0  0  0  0  0  0  0  0  0  0
   36.8180   28.8810   40.5940 C   0  0  0  0  0  0  0  0  0  0  0  0
   36.6640   27.6230   40.0330 C   0  0  0  0  0  0  0  0  0  0  0  0
   36.5380   27.5780   38.6620 N   0  0  0  0  0  0  0  0  0  0  0  0
   36.5700   28.7130   37.9400 C   0  0  0  0  0  0  0  0  0  0  0  0
   36.7200   29.9070   38.5030 N   0  0  0  0  0  0  0  0  0  0  0  0
   36.6390   26.7260   40.6160 H   0  0  0  0  0  0  0  0  0  0  0  0
   36.4760   28.7130   36.8560 H   0  0  0  0  0  0  0  0  0  0  0  0
   36.9860   28.9910   42.3980 S   0  0  0  0  0  0  0  0  0  0  0  0
   39.6580   25.0710   43.5530 H   0  0  0  0  0  0  0  0  0  0  0  0
   39.6720   26.0960   43.3420 N   0  0  0  0  0  0  0  0  0  0  0  0
   38.4900   26.6480   43.0760 C   0  0  0  0  0  3  0  0  0  0  0  0
   38.4300   27.9870   42.7910 C   0  0  0  0  0  0  0  0  0  0  0  0
   39.5950   28.7470   42.7800 C   0  0  0  0  0  0  0  0  0  0  0  0
   39.6800   29.9960   42.5320 O   0  0  0  0  0  0  0  0  0  0  0  0
   40.7870   28.1550   43.0550 N   0  0  0  0  0  0  0  0  0  0  0  0
   40.8130   26.8300   43.3330 C   0  0  0  0  0  0  0  0  0  0  0  0
   41.8790   26.2270   43.5940 O   0  0  0  0  0  0  0  0  0  0  0  0
   41.6860   28.6970   43.0560 H   0  0  0  0  0  0  0  0  0  0  0  0
   37.3210   32.4550   39.6020 C   0  0  0  0  0  0  0  0  0  0  0  0
   36.9220   32.2370   38.5920 H   0  0  0  0  0  0  0  0  0  0  0  0
   36.7510   33.3470   39.9690 H   0  0  0  0  0  0  0  0  0  0  0  0
   38.7460   32.8690   39.6090 C   0  0  0  0  0  0  0  0  0  0  0  0
   39.1190   34.0930   40.2510 C   0  0  0  0  0  0  0  0  0  0  0  0
   40.9330   34.1560   39.9950 S   0  0  0  0  0  0  0  0  0  0  0  0
   40.8850   32.5040   39.0560 C   0  0  0  0  0  0  0  0  0  0  0  0
   39.7710   32.2540   39.0920 N   0  0  0  0  0  0  0  0  0  0  0  0
   38.4710   34.7920   40.7570 H   0  0  0  0  0  0  0  0  0  0  0  0
   42.0180   31.9030   38.5280 O   0  0  0  0  0  0  0  0  0  0  0  0
   44.1070   33.5320   38.4510 O   0  0  0  0  0  0  0  0  0  0  0  0
   43.0450   32.8750   37.5720 P   0  0  0  0  0  0  0  0  0  0  0  0
   43.8100   31.8670   36.4530 O   0  0  0  0  0  0  0  0  0  0  0  0
   44.3810   32.4200   35.8620 H   0  0  0  0  0  0  0  0  0  0  0  0
   42.1360   34.0420   36.7540 O   0  0  0  0  0  0  0  0  0  0  0  0
   42.0650   34.8650   37.2730 H   0  0  0  0  0  0  0  0  0  0  0  0
  1  2  1  0  0  0  0
  1  3  1  0  0  0  0
  4  1  1  0  0  0  0
  4  5  1  0  0  0  0
  5 12  1  0  0  0  0
  6  5  2  0  0  0  0
  6 10  1  0  0  0  0
  7  6  1  0  0  0  0
  8  9  1  0  0  0  0
  8  7  2  0  0  0  0
  9  4  2  0  0  0  0
 11  8  1  0  0  0  0
 12 16  1  0  0  0  0
 14 13  1  0  0  0  0
 15 14  1  0  0  0  0
 16 15  2  0  0  0  0
 17 16  1  0  0  0  0
 17 19  1  0  0  0  0
 18 17  2  0  0  0  0
 19 22  1  0  0  0  0
 19 20  1  0  0  0  0
 20 14  1  0  0  0  0
 20 21  2  0  0  0  0
 23 26  1  0  0  0  0
 23 25  1  0  0  0  0
 23  1  1  0  0  0  0
 24 23  1  0  0  0  0
 26 27  2  0  0  0  0
 27 31  1  0  0  0  0
 28 27  1  0  0  0  0
 29 30  2  0  0  0  0
 29 28  1  0  0  0  0
 30 26  1  0  0  0  0
 32 29  1  0  0  0  0
 34 33  2  0  0  0  0
 34 32  1  0  0  0  0
 35 34  1  0  0  0  0
 36 35  1  0  0  0  0
 37 38  1  0  0  0  0
 37 34  1  0  0  0  0
M  END
>  <minimizedAffinity>
-5.41301966

$$$$

 OpenBabel03252507473D

 38 40  0  0  0  0  0  0  0  0999 V2000
   36.6400   27.6140   42.3460 C   0  0  0  0  0  0  0  0  0  0  0  0
   36.4900   28.4010   41.5950 H   0  0  0  0  0  0  0  0  0  0  0  0
   35.7120   27.5200   42.9300 H   0  0  0  0  0  0  0  0  0  0  0  0
   36.9950   26.3600   41.6550 C   0  0  0  0  0  0  0  0  0  0  0  0
   37.2890   26.4580   40.3070 C   0  0  0  0  0  0  0  0  0  0  0  0
   37.6350   25.3450   39.5570 C   0  0  0  0  0  0  0  0  0  0  0  0
   37.6690   24.1430   40.2290 N   0  0  0  0  0  0  0  0  0  0  0  0
   37.3760   24.0910   41.5410 C   0  0  0  0  0  0  0  0  0  0  0  0
   37.0470   25.1730   42.2370 N   0  0  0  0  0  0  0  0  0  0  0  0
   37.8660   25.3960   38.5130 H   0  0  0  0  0  0  0  0  0  0  0  0
   37.3920   23.1580   42.1020 H   0  0  0  0  0  0  0  0  0  0  0  0
   37.2310   28.0650   39.4640 S   0  0  0  0  0  0  0  0  0  0  0  0
   34.4170   26.8220   35.6720 H   0  0  0  0  0  0  0  0  0  0  0  0
   34.4730   27.3600   36.5690 N   0  0  0  0  0  0  0  0  0  0  0  0
   35.6370   27.2940   37.2110 C   0  0  0  0  0  3  0  0  0  0  0  0
   35.7860   27.9730   38.3920 C   0  0  0  0  0  0  0  0  0  0  0  0
   34.7260   28.7150   38.9030 C   0  0  0  0  0  0  0  0  0  0  0  0
   34.7300   29.3900   39.9860 O   0  0  0  0  0  0  0  0  0  0  0  0
   33.5490   28.7620   38.2250 N   0  0  0  0  0  0  0  0  0  0  0  0
   33.4340   28.0810   37.0610 C   0  0  0  0  0  0  0  0  0  0  0  0
   32.3760   28.0850   36.3910 O   0  0  0  0  0  0  0  0  0  0  0  0
   32.7290   29.3120   38.5810 H   0  0  0  0  0  0  0  0  0  0  0  0
   37.7020   28.0740   43.3120 C   0  0  0  0  0  0  0  0  0  0  0  0
   37.2260   28.4390   44.2430 H   0  0  0  0  0  0  0  0  0  0  0  0
   38.3040   27.1760   43.6090 H   0  0  0  0  0  0  0  0  0  0  0  0
   38.6770   29.0250   42.7240 C   0  0  0  0  0  0  0  0  0  0  0  0
   40.0740   28.7080   42.7550 C   0  0  0  0  0  0  0  0  0  0  0  0
   40.8420   30.1530   41.9290 S   0  0  0  0  0  0  0  0  0  0  0  0
   39.1350   30.9500   41.6760 C   0  0  0  0  0  0  0  0  0  0  0  0
   38.4480   30.1710   42.1490 N   0  0  0  0  0  0  0  0  0  0  0  0
   40.5370   27.8260   43.1700 H   0  0  0  0  0  0  0  0  0  0  0  0
   38.9600   32.1780   41.0550 O   0  0  0  0  0  0  0  0  0  0  0  0
   37.3930   33.8410   39.7120 O   0  0  0  0  0  0  0  0  0  0  0  0
   37.5730   32.3690   40.0790 P   0  0  0  0  0  0  0  0  0  0  0  0
   37.8140   31.4790   38.6640 O   0  0  0  0  0  0  0  0  0  0  0  0
   37.0010   31.5460   38.1010 H   0  0  0  0  0  0  0  0  0  0  0  0
   36.2120   31.7830   40.8920 O   0  0  0  0  0  0  0  0  0  0  0  0
   35.7780   32.4850   41.4110 H   0  0  0  0  0  0  0  0  0  0  0  0
  1  3  1  0  0  0  0
  1 23  1  0  0  0  0
  2  1  1  0  0  0  0
  4  9  1  0  0  0  0
  4  1  1  0  0  0  0
  5  4  2  0  0  0  0
  6  7  2  0  0  0  0
  6  5  1  0  0  0  0
  7  8  1  0  0  0  0
  8 11  1  0  0  0  0
  8  9  2  0  0  0  0
 10  6  1  0  0  0  0
 12  5  1  0  0  0  0
 13 14  1  0  0  0  0
 14 20  1  0  0  0  0
 14 15  1  0  0  0  0
 15 16  2  0  0  0  0
 16 17  1  0  0  0  0
 16 12  1  0  0  0  0
 17 18  2  0  0  0  0
 19 22  1  0  0  0  0
 19 17  1  0  0  0  0
 20 19  1  0  0  0  0
 21 20  2  0  0  0  0
 23 25  1  0  0  0  0
 23 24  1  0  0  0  0
 26 27  2  0  0  0  0
 26 23  1  0  0  0  0
 27 31  1  0  0  0  0
 28 27  1  0  0  0  0
 29 28  1  0  0  0  0
 29 30  2  0  0  0  0
 30 26  1  0  0  0  0
 32 29  1  0  0  0  0
 33 34  2  0  0  0  0
 34 37  1  0  0  0  0
 34 32  1  0  0  0  0
 35 34  1  0  0  0  0
 36 35  1  0  0  0  0
 37 38  1  0  0  0  0
M  END
>  <minimizedAffinity>
-5.38250542

$$$$

 OpenBabel03252507473D

 38 40  0  0  0  0  0  0  0  0999 V2000
   37.2190   28.1360   39.2850 C   0  0  0  0  0  0  0  0  0  0  0  0
   36.2910   27.6350   38.9810 H   0  0  0  0  0  0  0  0  0  0  0  0
   37.1560   29.1900   38.9730 H   0  0  0  0  0  0  0  0  0  0  0  0
   37.3770   27.9970   40.7460 C   0  0  0  0  0  0  0  0  0  0  0  0
   37.1310   29.1270   41.5060 C   0  0  0  0  0  0  0  0  0  0  0  0
   37.2480   29.1120   42.8860 C   0  0  0  0  0  0  0  0  0  0  0  0
   37.6210   27.9140   43.4550 N   0  0  0  0  0  0  0  0  0  0  0  0
   37.8510   26.8390   42.6800 C   0  0  0  0  0  0  0  0  0  0  0  0
   37.7330   26.8790   41.3570 N   0  0  0  0  0  0  0  0  0  0  0  0
   37.0620   29.9730   43.4950 H   0  0  0  0  0  0  0  0  0  0  0  0
   38.1490   25.8770   43.0950 H   0  0  0  0  0  0  0  0  0  0  0  0
   36.6400   30.6830   40.7110 S   0  0  0  0  0  0  0  0  0  0  0  0
   40.9750   32.4340   42.1210 H   0  0  0  0  0  0  0  0  0  0  0  0
   40.1970   32.5070   41.4240 N   0  0  0  0  0  0  0  0  0  0  0  0
   39.1850   31.6600   41.5960 C   0  0  0  0  0  3  0  0  0  0  0  0
   38.1300   31.6980   40.7220 C   0  0  0  0  0  0  0  0  0  0  0  0
   38.1300   32.6100   39.6730 C   0  0  0  0  0  0  0  0  0  0  0  0
   37.2170   32.7510   38.7940 O   0  0  0  0  0  0  0  0  0  0  0  0
   39.1780   33.4620   39.5230 N   0  0  0  0  0  0  0  0  0  0  0  0
   40.2060   33.4000   40.4030 C   0  0  0  0  0  0  0  0  0  0  0  0
   41.2000   34.1580   40.3180 O   0  0  0  0  0  0  0  0  0  0  0  0
   39.2130   34.1640   38.7440 H   0  0  0  0  0  0  0  0  0  0  0  0
   38.3640   27.5340   38.5100 C   0  0  0  0  0  0  0  0  0  0  0  0
   38.3290   26.4300   38.5930 H   0  0  0  0  0  0  0  0  0  0  0  0
   38.1990   27.7640   37.4260 H   0  0  0  0  0  0  0  0  0  0  0  0
   39.6860   28.1190   38.8410 C   0  0  0  0  0  0  0  0  0  0  0  0
   40.7120   27.2800   39.3820 C   0  0  0  0  0  0  0  0  0  0  0  0
   42.1140   28.4370   39.6120 S   0  0  0  0  0  0  0  0  0  0  0  0
   41.0740   29.8750   38.9320 C   0  0  0  0  0  0  0  0  0  0  0  0
   40.0840   29.3530   38.7050 N   0  0  0  0  0  0  0  0  0  0  0  0
   40.6500   26.2230   39.5940 H   0  0  0  0  0  0  0  0  0  0  0  0
   41.5600   31.1690   38.8150 O   0  0  0  0  0  0  0  0  0  0  0  0
   42.8090   32.8550   37.1970 O   0  0  0  0  0  0  0  0  0  0  0  0
   41.6920   31.8150   37.2410 P   0  0  0  0  0  0  0  0  0  0  0  0
   42.0850   30.5470   36.1970 O   0  0  0  0  0  0  0  0  0  0  0  0
   42.1270   30.8950   35.2710 H   0  0  0  0  0  0  0  0  0  0  0  0
   40.2180   32.4980   36.7730 O   0  0  0  0  0  0  0  0  0  0  0  0
   40.1730   33.4420   37.0110 H   0  0  0  0  0  0  0  0  0  0  0  0
  1  4  1  0  0  0  0
  2  1  1  0  0  0  0
  3  1  1  0  0  0  0
  4  9  2  0  0  0  0
  4  5  1  0  0  0  0
  5  6  2  0  0  0  0
  6  7  1  0  0  0  0
  6 10  1  0  0  0  0
  8 11  1  0  0  0  0
  8  7  2  0  0  0  0
  9  8  1  0  0  0  0
 12 16  1  0  0  0  0
 12  5  1  0  0  0  0
 14 15  1  0  0  0  0
 14 13  1  0  0  0  0
 16 15  2  0  0  0  0
 17 16  1  0  0  0  0
 18 17  2  0  0  0  0
 19 17  1  0  0  0  0
 19 20  1  0  0  0  0
 20 14  1  0  0  0  0
 21 20  2  0  0  0  0
 22 19  1  0  0  0  0
 23 24  1  0  0  0  0
 23 26  1  0  0  0  0
 23  1  1  0  0  0  0
 25 23  1  0  0  0  0
 26 27  2  0  0  0  0
 27 31  1  0  0  0  0
 27 28  1  0  0  0  0
 29 28  1  0  0  0  0
 30 26  1  0  0  0  0
 30 29  2  0  0  0  0
 32 29  1  0  0  0  0
 33 34  2  0  0  0  0
 34 32  1  0  0  0  0
 35 34  1  0  0  0  0
 36 35  1  0  0  0  0
 37 38  1  0  0  0  0
 37 34  1  0  0  0  0
M  END
>  <minimizedAffinity>
-5.32425117

$$$$
