
 OpenBabel03252506223D

 36 38  0  0  0  0  0  0  0  0999 V2000
   44.5300   35.1810   42.4430 C   0  0  0  0  0  0  0  0  0  0  0  0
   43.4030   35.4610   41.6810 C   0  0  0  0  0  0  0  0  0  0  0  0
   43.3520   34.9380   40.3770 C   0  0  0  0  0  0  0  0  0  0  0  0
   44.3990   34.1920   39.9260 N   0  0  0  0  0  0  0  0  0  0  0  0
   45.4670   33.9500   40.7010 C   0  0  0  0  0  0  0  0  0  0  0  0
   45.5390   34.4370   41.9520 N   0  0  0  0  0  0  0  0  0  0  0  0
   42.5920   36.0440   42.0420 H   0  0  0  0  0  0  0  0  0  0  0  0
   42.4970   35.1150   39.7140 H   0  0  0  0  0  0  0  0  0  0  0  0
   48.2120   35.2100   40.7700 Cl  0  0  0  0  0  0  0  0  0  0  0  0
   47.8370   33.6510   40.1320 C   0  0  0  0  0  0  0  0  0  0  0  0
   46.5590   33.1260   40.1280 C   0  0  0  0  0  0  0  0  0  0  0  0
   46.2260   31.8900   39.6290 C   0  0  0  0  0  0  0  0  0  0  0  0
   47.2550   31.1480   39.1050 C   0  0  0  0  0  0  0  0  0  0  0  0
   48.5750   31.5650   39.0510 C   0  0  0  0  0  0  0  0  0  0  0  0
   48.8010   32.8250   39.5800 C   0  0  0  0  0  0  0  0  0  0  0  0
   45.2030   31.5200   39.6500 H   0  0  0  0  0  0  0  0  0  0  0  0
   47.0000   30.1670   38.7080 H   0  0  0  0  0  0  0  0  0  0  0  0
   49.3850   30.9830   38.6400 H   0  0  0  0  0  0  0  0  0  0  0  0
   49.8350   33.1720   39.5470 H   0  0  0  0  0  0  0  0  0  0  0  0
   44.6080   35.7140   43.8040 C   0  0  0  0  0  3  0  0  0  0  0  0
   44.9350   36.9940   43.9380 C   0  0  0  0  0  3  0  0  0  0  0  0
   45.0450   37.5820   45.3370 C   0  0  0  0  0  0  0  0  0  0  0  0
   44.2370   37.0860   45.9660 H   0  0  0  0  0  0  0  0  0  0  0  0
   46.0350   37.1670   45.7010 H   0  0  0  0  0  0  0  0  0  0  0  0
   44.9610   38.9780   45.2140 N   0  0  0  0  0  0  0  0  0  0  0  0
   45.4340   38.9900   46.1790 H   0  0  0  0  0  0  0  0  0  0  0  0
   44.9390   43.1700   43.4910 H   0  0  0  0  0  0  0  0  0  0  0  0
   44.8390   42.5670   44.3180 N   0  0  0  0  0  0  0  0  0  0  0  0
   44.9900   41.2610   44.0580 C   0  0  0  0  0  3  0  0  0  0  0  0
   44.8770   40.3760   45.0910 C   0  0  0  0  0  0  0  0  0  0  0  0
   44.6080   40.8290   46.3840 C   0  0  0  0  0  0  0  0  0  0  0  0
   44.4630   40.1860   47.4830 O   0  0  0  0  0  0  0  0  0  0  0  0
   44.4540   42.1620   46.6450 N   0  0  0  0  0  0  0  0  0  0  0  0
   44.5830   42.9440   45.5770 C   0  0  0  0  0  0  0  0  0  0  0  0
   44.4640   44.1890   45.6880 O   0  0  0  0  0  0  0  0  0  0  0  0
   44.2540   42.6330   47.5540 H   0  0  0  0  0  0  0  0  0  0  0  0
  1 20  1  0  0  0  0
  2  7  1  0  0  0  0
  2  1  2  0  0  0  0
  3  2  1  0  0  0  0
  4  3  2  0  0  0  0
  4  5  1  0  0  0  0
  5  6  2  0  0  0  0
  6  1  1  0  0  0  0
  8  3  1  0  0  0  0
 10  9  1  0  0  0  0
 11 10  1  0  0  0  0
 11  5  1  0  0  0  0
 12 16  1  0  0  0  0
 12 11  2  0  0  0  0
 13 12  1  0  0  0  0
 14 13  2  0  0  0  0
 14 15  1  0  0  0  0
 15 10  2  0  0  0  0
 17 13  1  0  0  0  0
 18 14  1  0  0  0  0
 19 15  1  0  0  0  0
 20 21  2  0  0  0  0
 21 22  1  0  0  0  0
 22 24  1  0  0  0  0
 22 23  1  0  0  0  0
 25 22  1  0  0  0  0
 25 26  1  0  0  0  0
 27 28  1  0  0  0  0
 28 34  1  0  0  0  0
 29 28  1  0  0  0  0
 29 30  2  0  0  0  0
 30 25  1  0  0  0  0
 30 31  1  0  0  0  0
 31 33  1  0  0  0  0
 31 32  2  0  0  0  0
 33 36  1  0  0  0  0
 34 35  2  0  0  0  0
 34 33  1  0  0  0  0
M  END
>  <minimizedAffinity>
-2.88485241

>  <minimizedRMSD>
2.38810182

$$$$
