
 OpenBabel03252506273D

 46 50  0  0  0  0  0  0  0  0999 V2000
   36.8410   27.7910   39.5730 C   0  0  0  0  0  0  0  0  0  0  0  0
   36.5850   29.1480   39.6800 C   0  0  0  0  0  0  0  0  0  0  0  0
   36.6040   29.6740   40.9690 C   0  0  0  0  0  0  0  0  0  0  0  0
   36.8590   28.9040   42.0810 C   0  0  0  0  0  0  0  0  0  0  0  0
   36.9390   29.1250   43.4020 N   0  0  0  0  0  0  0  0  0  0  0  0
   37.2220   27.9960   44.0660 C   0  0  0  0  0  0  0  0  0  0  0  0
   37.3410   26.9590   43.1610 C   0  0  0  0  0  0  0  0  0  0  0  0
   37.1100   27.5560   41.9500 C   0  0  0  0  0  0  0  0  0  0  0  0
   37.0950   27.0210   40.6750 C   0  0  0  0  0  0  0  0  0  0  0  0
   36.8140   27.4360   38.5410 H   0  0  0  0  0  0  0  0  0  0  0  0
   36.4220   30.7150   41.2060 H   0  0  0  0  0  0  0  0  0  0  0  0
   36.8000   30.0640   43.8720 H   0  0  0  0  0  0  0  0  0  0  0  0
   37.3380   27.9220   45.1400 H   0  0  0  0  0  0  0  0  0  0  0  0
   37.5620   25.9160   43.3330 H   0  0  0  0  0  0  0  0  0  0  0  0
   37.3500   25.6320   40.4810 N   0  0  0  0  0  0  0  0  0  0  0  0
   36.4450   24.6350   40.4730 C   0  0  0  0  0  3  0  0  0  0  0  0
   36.8920   23.3340   40.2650 C   0  0  0  0  0  0  0  0  0  0  0  0
   36.1400   22.5540   40.2640 H   0  0  0  0  0  0  0  0  0  0  0  0
   38.2330   23.0720   40.0720 C   0  0  0  0  0  0  0  0  0  0  0  0
   38.6410   21.8980   39.8830 O   0  0  0  0  0  0  0  0  0  0  0  0
   39.1100   24.1160   40.0880 N   0  0  0  0  0  0  0  0  0  0  0  0
   38.6570   25.3680   40.2910 C   0  0  0  0  0  0  0  0  0  0  0  0
   39.5790   26.2480   40.2830 O   0  0  0  0  0  0  0  0  0  0  0  0
   40.1290   23.8770   39.9370 H   0  0  0  0  0  0  0  0  0  0  0  0
   36.2970   30.1310   38.6480 C   0  0  0  0  0  0  0  0  0  0  0  0
   35.5840   29.7330   37.8880 H   0  0  0  0  0  0  0  0  0  0  0  0
   35.7110   30.9600   39.1390 H   0  0  0  0  0  0  0  0  0  0  0  0
   37.4560   30.7730   37.9830 C   0  0  0  0  0  0  0  0  0  0  0  0
   38.2740   30.0000   37.9230 H   0  0  0  0  0  0  0  0  0  0  0  0
   37.1950   31.0590   36.9670 H   0  0  0  0  0  0  0  0  0  0  0  0
   39.2680   33.2720   39.7780 C   0  0  0  0  0  0  0  0  0  0  0  0
   37.9590   33.7610   39.8490 C   0  0  0  0  0  0  0  0  0  0  0  0
   37.1350   32.9010   39.1980 C   0  0  0  0  0  0  0  0  0  0  0  0
   37.9090   31.9180   38.7420 N   0  0  0  0  0  0  0  0  0  0  0  0
   39.1970   32.1240   39.0820 N   0  0  0  0  0  0  0  0  0  0  0  0
   37.6090   34.6730   40.3340 H   0  0  0  0  0  0  0  0  0  0  0  0
   36.0540   32.9790   39.0630 H   0  0  0  0  0  0  0  0  0  0  0  0
   41.5060   35.8410   41.0930 C   0  0  0  0  0  0  0  0  0  0  0  0
   42.6430   35.1100   41.4580 C   0  0  0  0  0  0  0  0  0  0  0  0
   42.6270   33.7380   41.2460 C   0  0  0  0  0  0  0  0  0  0  0  0
   41.5130   33.2140   40.7030 N   0  0  0  0  0  0  0  0  0  0  0  0
   40.4330   33.9190   40.3590 C   0  0  0  0  0  0  0  0  0  0  0  0
   40.4400   35.2360   40.5590 N   0  0  0  0  0  0  0  0  0  0  0  0
   41.5520   36.9110   41.2710 H   0  0  0  0  0  0  0  0  0  0  0  0
   43.5380   35.5020   41.8890 H   0  0  0  0  0  0  0  0  0  0  0  0
   43.4420   33.0650   41.4850 H   0  0  0  0  0  0  0  0  0  0  0  0
  1  2  2  0  0  0  0
  1  9  1  0  0  0  0
  2  3  1  0  0  0  0
  3 11  1  0  0  0  0
  3  4  2  0  0  0  0
  4  5  1  0  0  0  0
  5 12  1  0  0  0  0
  5  6  1  0  0  0  0
  6 13  1  0  0  0  0
  7 14  1  0  0  0  0
  7  6  2  0  0  0  0
  8  4  1  0  0  0  0
  8  7  1  0  0  0  0
  9  8  2  0  0  0  0
 10  1  1  0  0  0  0
 15  9  1  0  0  0  0
 16 15  1  0  0  0  0
 17 16  2  0  0  0  0
 18 17  1  0  0  0  0
 19 21  1  0  0  0  0
 19 17  1  0  0  0  0
 20 19  2  0  0  0  0
 21 22  1  0  0  0  0
 22 15  1  0  0  0  0
 23 22  2  0  0  0  0
 24 21  1  0  0  0  0
 25 27  1  0  0  0  0
 25  2  1  0  0  0  0
 26 25  1  0  0  0  0
 28 25  1  0  0  0  0
 28 34  1  0  0  0  0
 29 28  1  0  0  0  0
 30 28  1  0  0  0  0
 31 32  1  0  0  0  0
 31 42  1  0  0  0  0
 32 36  1  0  0  0  0
 33 32  2  0  0  0  0
 34 35  1  0  0  0  0
 34 33  1  0  0  0  0
 35 31  2  0  0  0  0
 37 33  1  0  0  0  0
 38 44  1  0  0  0  0
 38 39  1  0  0  0  0
 39 45  1  0  0  0  0
 40 39  2  0  0  0  0
 40 46  1  0  0  0  0
 41 40  1  0  0  0  0
 42 43  1  0  0  0  0
 42 41  2  0  0  0  0
 43 38  2  0  0  0  0
M  END
>  <minimizedAffinity>
-6.99126434

$$$$

 OpenBabel03252506273D

 46 50  0  0  0  0  0  0  0  0999 V2000
   39.3730   32.6240   40.1700 C   0  0  0  0  0  0  0  0  0  0  0  0
   38.4090   31.9520   39.4360 C   0  0  0  0  0  0  0  0  0  0  0  0
   38.8570   31.3050   38.2880 C   0  0  0  0  0  0  0  0  0  0  0  0
   40.1760   31.3230   37.8920 C   0  0  0  0  0  0  0  0  0  0  0  0
   40.8770   30.8100   36.8700 N   0  0  0  0  0  0  0  0  0  0  0  0
   42.1740   31.1360   36.9600 C   0  0  0  0  0  0  0  0  0  0  0  0
   42.3680   31.9030   38.0910 C   0  0  0  0  0  0  0  0  0  0  0  0
   41.1160   31.9970   38.6390 C   0  0  0  0  0  0  0  0  0  0  0  0
   40.6840   32.6440   39.7820 C   0  0  0  0  0  0  0  0  0  0  0  0
   38.9640   33.1110   41.0590 H   0  0  0  0  0  0  0  0  0  0  0  0
   38.2210   30.7420   37.6170 H   0  0  0  0  0  0  0  0  0  0  0  0
   40.4710   30.2220   36.0870 H   0  0  0  0  0  0  0  0  0  0  0  0
   42.9370   30.8360   36.2520 H   0  0  0  0  0  0  0  0  0  0  0  0
   43.2760   32.3400   38.4800 H   0  0  0  0  0  0  0  0  0  0  0  0
   41.6150   33.3570   40.5930 N   0  0  0  0  0  0  0  0  0  0  0  0
   42.4600   32.8400   41.5040 C   0  0  0  0  0  3  0  0  0  0  0  0
   43.2990   33.7050   42.2000 C   0  0  0  0  0  0  0  0  0  0  0  0
   43.9680   33.2580   42.9250 H   0  0  0  0  0  0  0  0  0  0  0  0
   43.2640   35.0630   41.9610 C   0  0  0  0  0  0  0  0  0  0  0  0
   44.0210   35.8480   42.5870 O   0  0  0  0  0  0  0  0  0  0  0  0
   42.3910   35.5400   41.0290 N   0  0  0  0  0  0  0  0  0  0  0  0
   41.5880   34.6850   40.3660 C   0  0  0  0  0  0  0  0  0  0  0  0
   40.8210   35.2590   39.5240 O   0  0  0  0  0  0  0  0  0  0  0  0
   42.3920   36.5860   40.8720 H   0  0  0  0  0  0  0  0  0  0  0  0
   36.9820   31.8090   39.6720 C   0  0  0  0  0  0  0  0  0  0  0  0
   36.4300   32.7510   39.4440 H   0  0  0  0  0  0  0  0  0  0  0  0
   36.5910   31.0890   38.8980 H   0  0  0  0  0  0  0  0  0  0  0  0
   36.5650   31.2740   40.9910 C   0  0  0  0  0  0  0  0  0  0  0  0
   37.2000   31.7830   41.7710 H   0  0  0  0  0  0  0  0  0  0  0  0
   35.5280   31.5300   41.1890 H   0  0  0  0  0  0  0  0  0  0  0  0
   37.6390   27.9230   41.5980 C   0  0  0  0  0  0  0  0  0  0  0  0
   36.5580   27.7250   40.7320 C   0  0  0  0  0  0  0  0  0  0  0  0
   36.0330   28.9330   40.4040 C   0  0  0  0  0  0  0  0  0  0  0  0
   36.7650   29.8420   41.0460 N   0  0  0  0  0  0  0  0  0  0  0  0
   37.7370   29.2520   41.7690 N   0  0  0  0  0  0  0  0  0  0  0  0
   36.1650   26.7790   40.3550 H   0  0  0  0  0  0  0  0  0  0  0  0
   35.1830   29.1410   39.7500 H   0  0  0  0  0  0  0  0  0  0  0  0
   39.8920   26.1070   43.8260 C   0  0  0  0  0  0  0  0  0  0  0  0
   39.9920   24.8510   43.2160 C   0  0  0  0  0  0  0  0  0  0  0  0
   39.2820   24.6420   42.0410 C   0  0  0  0  0  0  0  0  0  0  0  0
   38.5480   25.6700   41.5770 N   0  0  0  0  0  0  0  0  0  0  0  0
   38.4580   26.8640   42.1670 C   0  0  0  0  0  0  0  0  0  0  0  0
   39.1350   27.0730   43.2940 N   0  0  0  0  0  0  0  0  0  0  0  0
   40.4590   26.2360   44.7430 H   0  0  0  0  0  0  0  0  0  0  0  0
   40.5670   24.0200   43.5630 H   0  0  0  0  0  0  0  0  0  0  0  0
   39.2770   23.7190   41.4760 H   0  0  0  0  0  0  0  0  0  0  0  0
  1 10  1  0  0  0  0
  2 25  1  0  0  0  0
  2  1  2  0  0  0  0
  3  2  1  0  0  0  0
  4  3  2  0  0  0  0
  4  8  1  0  0  0  0
  5  6  1  0  0  0  0
  5  4  1  0  0  0  0
  6  7  2  0  0  0  0
  7 14  1  0  0  0  0
  7  8  1  0  0  0  0
  8  9  2  0  0  0  0
  9  1  1  0  0  0  0
  9 15  1  0  0  0  0
 11  3  1  0  0  0  0
 12  5  1  0  0  0  0
 13  6  1  0  0  0  0
 15 16  1  0  0  0  0
 16 17  2  0  0  0  0
 17 18  1  0  0  0  0
 19 17  1  0  0  0  0
 19 20  2  0  0  0  0
 21 19  1  0  0  0  0
 22 15  1  0  0  0  0
 22 21  1  0  0  0  0
 23 22  2  0  0  0  0
 24 21  1  0  0  0  0
 25 28  1  0  0  0  0
 26 25  1  0  0  0  0
 27 25  1  0  0  0  0
 28 34  1  0  0  0  0
 28 30  1  0  0  0  0
 28 29  1  0  0  0  0
 31 35  2  0  0  0  0
 31 42  1  0  0  0  0
 32 31  1  0  0  0  0
 33 32  2  0  0  0  0
 33 34  1  0  0  0  0
 34 35  1  0  0  0  0
 36 32  1  0  0  0  0
 37 33  1  0  0  0  0
 38 44  1  0  0  0  0
 39 45  1  0  0  0  0
 39 38  2  0  0  0  0
 40 39  1  0  0  0  0
 41 40  2  0  0  0  0
 41 42  1  0  0  0  0
 42 43  2  0  0  0  0
 43 38  1  0  0  0  0
 46 40  1  0  0  0  0
M  END
>  <minimizedAffinity>
-6.83601904

$$$$

 OpenBabel03252506273D

 46 50  0  0  0  0  0  0  0  0999 V2000
   40.2470   27.5150   43.2430 C   0  0  0  0  0  0  0  0  0  0  0  0
   41.0210   26.5300   43.8330 C   0  0  0  0  0  0  0  0  0  0  0  0
   40.5760   25.2220   43.6660 C   0  0  0  0  0  0  0  0  0  0  0  0
   39.4370   24.9090   42.9580 C   0  0  0  0  0  0  0  0  0  0  0  0
   38.7850   23.7810   42.6400 N   0  0  0  0  0  0  0  0  0  0  0  0
   37.6920   24.0420   41.9090 C   0  0  0  0  0  0  0  0  0  0  0  0
   37.5930   25.4060   41.7200 C   0  0  0  0  0  0  0  0  0  0  0  0
   38.6840   25.9070   42.3790 C   0  0  0  0  0  0  0  0  0  0  0  0
   39.1150   27.2110   42.5390 C   0  0  0  0  0  0  0  0  0  0  0  0
   40.6440   28.5200   43.4070 H   0  0  0  0  0  0  0  0  0  0  0  0
   41.0760   24.3500   44.0690 H   0  0  0  0  0  0  0  0  0  0  0  0
   39.0840   22.8040   42.9220 H   0  0  0  0  0  0  0  0  0  0  0  0
   37.0060   23.2930   41.5330 H   0  0  0  0  0  0  0  0  0  0  0  0
   36.8470   25.9760   41.1840 H   0  0  0  0  0  0  0  0  0  0  0  0
   38.3740   28.2830   41.9600 N   0  0  0  0  0  0  0  0  0  0  0  0
   38.4900   28.7670   40.7090 C   0  0  0  0  0  3  0  0  0  0  0  0
   37.6710   29.8250   40.3270 C   0  0  0  0  0  0  0  0  0  0  0  0
   37.7880   30.1920   39.3140 H   0  0  0  0  0  0  0  0  0  0  0  0
   36.7590   30.3650   41.2110 C   0  0  0  0  0  0  0  0  0  0  0  0
   36.0170   31.3210   40.8690 O   0  0  0  0  0  0  0  0  0  0  0  0
   36.6790   29.8400   42.4670 N   0  0  0  0  0  0  0  0  0  0  0  0
   37.4810   28.8160   42.8170 C   0  0  0  0  0  0  0  0  0  0  0  0
   37.3050   28.4210   44.0160 O   0  0  0  0  0  0  0  0  0  0  0  0
   35.9700   30.2800   43.1170 H   0  0  0  0  0  0  0  0  0  0  0  0
   42.2420   26.6400   44.6130 C   0  0  0  0  0  0  0  0  0  0  0  0
   42.0760   27.2000   45.5630 H   0  0  0  0  0  0  0  0  0  0  0  0
   42.5000   25.6010   44.9690 H   0  0  0  0  0  0  0  0  0  0  0  0
   43.4460   27.1540   43.9160 C   0  0  0  0  0  0  0  0  0  0  0  0
   44.3400   26.6560   44.3870 H   0  0  0  0  0  0  0  0  0  0  0  0
   43.4220   26.8710   42.8670 H   0  0  0  0  0  0  0  0  0  0  0  0
   43.4890   30.7040   43.5290 C   0  0  0  0  0  0  0  0  0  0  0  0
   43.8440   30.5580   44.8750 C   0  0  0  0  0  0  0  0  0  0  0  0
   43.8710   29.2360   45.1790 C   0  0  0  0  0  0  0  0  0  0  0  0
   43.5440   28.5910   44.0610 N   0  0  0  0  0  0  0  0  0  0  0  0
   43.3110   29.4590   43.0560 N   0  0  0  0  0  0  0  0  0  0  0  0
   44.0700   31.3430   45.5980 H   0  0  0  0  0  0  0  0  0  0  0  0
   44.1100   28.7720   46.1390 H   0  0  0  0  0  0  0  0  0  0  0  0
   44.0320   34.1710   42.5170 C   0  0  0  0  0  0  0  0  0  0  0  0
   43.0810   34.3560   41.5070 C   0  0  0  0  0  0  0  0  0  0  0  0
   42.2600   33.2830   41.1850 C   0  0  0  0  0  0  0  0  0  0  0  0
   42.4440   32.1420   41.8730 N   0  0  0  0  0  0  0  0  0  0  0  0
   43.3550   31.9740   42.8340 C   0  0  0  0  0  0  0  0  0  0  0  0
   44.1460   32.9980   43.1490 N   0  0  0  0  0  0  0  0  0  0  0  0
   44.6570   35.0290   42.7440 H   0  0  0  0  0  0  0  0  0  0  0  0
   42.9140   35.2510   40.9480 H   0  0  0  0  0  0  0  0  0  0  0  0
   41.4880   33.3010   40.4260 H   0  0  0  0  0  0  0  0  0  0  0  0
  1 10  1  0  0  0  0
  1  2  1  0  0  0  0
  2 25  1  0  0  0  0
  3  2  2  0  0  0  0
  3 11  1  0  0  0  0
  4  3  1  0  0  0  0
  5 12  1  0  0  0  0
  5  4  1  0  0  0  0
  6  5  1  0  0  0  0
  7  6  2  0  0  0  0
  7  8  1  0  0  0  0
  8  9  1  0  0  0  0
  8  4  2  0  0  0  0
  9  1  2  0  0  0  0
 13  6  1  0  0  0  0
 14  7  1  0  0  0  0
 15  9  1  0  0  0  0
 15 22  1  0  0  0  0
 16 15  1  0  0  0  0
 17 16  2  0  0  0  0
 17 19  1  0  0  0  0
 18 17  1  0  0  0  0
 19 21  1  0  0  0  0
 20 19  2  0  0  0  0
 21 22  1  0  0  0  0
 21 24  1  0  0  0  0
 22 23  2  0  0  0  0
 25 27  1  0  0  0  0
 25 26  1  0  0  0  0
 28 34  1  0  0  0  0
 28 29  1  0  0  0  0
 28 25  1  0  0  0  0
 30 28  1  0  0  0  0
 31 32  1  0  0  0  0
 32 33  2  0  0  0  0
 32 36  1  0  0  0  0
 33 37  1  0  0  0  0
 34 33  1  0  0  0  0
 35 31  2  0  0  0  0
 35 34  1  0  0  0  0
 38 44  1  0  0  0  0
 38 43  1  0  0  0  0
 39 38  2  0  0  0  0
 40 39  1  0  0  0  0
 40 41  2  0  0  0  0
 41 42  1  0  0  0  0
 42 43  2  0  0  0  0
 42 31  1  0  0  0  0
 45 39  1  0  0  0  0
 46 40  1  0  0  0  0
M  END
>  <minimizedAffinity>
-6.71983528

$$$$

 OpenBabel03252506273D

 46 50  0  0  0  0  0  0  0  0999 V2000
   39.0930   31.6330   39.0500 C   0  0  0  0  0  0  0  0  0  0  0  0
   37.8600   32.0090   39.5570 C   0  0  0  0  0  0  0  0  0  0  0  0
   37.7680   33.3150   40.0320 C   0  0  0  0  0  0  0  0  0  0  0  0
   38.8300   34.1910   40.0070 C   0  0  0  0  0  0  0  0  0  0  0  0
   39.0330   35.4630   40.3810 N   0  0  0  0  0  0  0  0  0  0  0  0
   40.2910   35.8480   40.1280 C   0  0  0  0  0  0  0  0  0  0  0  0
   40.9780   34.7950   39.5560 C   0  0  0  0  0  0  0  0  0  0  0  0
   40.0470   33.7930   39.4970 C   0  0  0  0  0  0  0  0  0  0  0  0
   40.1510   32.4980   39.0220 C   0  0  0  0  0  0  0  0  0  0  0  0
   39.1050   30.6010   38.6920 H   0  0  0  0  0  0  0  0  0  0  0  0
   36.8710   33.7480   40.4560 H   0  0  0  0  0  0  0  0  0  0  0  0
   38.3020   36.0920   40.8200 H   0  0  0  0  0  0  0  0  0  0  0  0
   40.6920   36.8320   40.3410 H   0  0  0  0  0  0  0  0  0  0  0  0
   42.0040   34.7420   39.2220 H   0  0  0  0  0  0  0  0  0  0  0  0
   41.3870   32.0340   38.4830 N   0  0  0  0  0  0  0  0  0  0  0  0
   41.7930   32.1120   37.2020 C   0  0  0  0  0  3  0  0  0  0  0  0
   43.0430   31.5990   36.8690 C   0  0  0  0  0  0  0  0  0  0  0  0
   43.3420   31.6770   35.8310 H   0  0  0  0  0  0  0  0  0  0  0  0
   43.8470   31.0240   37.8310 C   0  0  0  0  0  0  0  0  0  0  0  0
   44.9780   30.5600   37.5340 O   0  0  0  0  0  0  0  0  0  0  0  0
   43.3920   30.9690   39.1150 N   0  0  0  0  0  0  0  0  0  0  0  0
   42.1790   31.4710   39.4160 C   0  0  0  0  0  0  0  0  0  0  0  0
   41.8740   31.3560   40.6490 O   0  0  0  0  0  0  0  0  0  0  0  0
   44.0350   30.5210   39.8250 H   0  0  0  0  0  0  0  0  0  0  0  0
   36.6250   31.2530   39.6760 C   0  0  0  0  0  0  0  0  0  0  0  0
   35.7930   31.7290   39.1060 H   0  0  0  0  0  0  0  0  0  0  0  0
   36.7830   30.2780   39.1310 H   0  0  0  0  0  0  0  0  0  0  0  0
   36.1770   30.9000   41.0450 C   0  0  0  0  0  0  0  0  0  0  0  0
   36.5640   31.7010   41.7370 H   0  0  0  0  0  0  0  0  0  0  0  0
   35.0930   30.9090   41.1000 H   0  0  0  0  0  0  0  0  0  0  0  0
   38.0900   28.1290   42.2350 C   0  0  0  0  0  0  0  0  0  0  0  0
   36.9200   27.5010   41.7920 C   0  0  0  0  0  0  0  0  0  0  0  0
   36.0760   28.4440   41.3010 C   0  0  0  0  0  0  0  0  0  0  0  0
   36.7040   29.6100   41.4370 N   0  0  0  0  0  0  0  0  0  0  0  0
   37.9180   29.4400   41.9970 N   0  0  0  0  0  0  0  0  0  0  0  0
   36.6800   26.4370   41.8160 H   0  0  0  0  0  0  0  0  0  0  0  0
   35.0810   28.2990   40.8770 H   0  0  0  0  0  0  0  0  0  0  0  0
   41.4060   27.5030   43.6300 C   0  0  0  0  0  0  0  0  0  0  0  0
   41.3660   26.1380   43.9370 C   0  0  0  0  0  0  0  0  0  0  0  0
   40.1950   25.4450   43.6590 C   0  0  0  0  0  0  0  0  0  0  0  0
   39.1830   26.1450   43.1120 N   0  0  0  0  0  0  0  0  0  0  0  0
   39.2310   27.4480   42.8240 C   0  0  0  0  0  0  0  0  0  0  0  0
   40.3510   28.1190   43.0880 N   0  0  0  0  0  0  0  0  0  0  0  0
   42.3360   28.0140   43.8610 H   0  0  0  0  0  0  0  0  0  0  0  0
   42.1530   25.5600   44.3690 H   0  0  0  0  0  0  0  0  0  0  0  0
   40.0390   24.3910   43.8480 H   0  0  0  0  0  0  0  0  0  0  0  0
  1  2  1  0  0  0  0
  2 25  1  0  0  0  0
  2  3  2  0  0  0  0
  3 11  1  0  0  0  0
  4  3  1  0  0  0  0
  4  5  1  0  0  0  0
  5 12  1  0  0  0  0
  6 13  1  0  0  0  0
  6  5  1  0  0  0  0
  7  6  2  0  0  0  0
  8  7  1  0  0  0  0
  8  4  2  0  0  0  0
  9  1  2  0  0  0  0
  9  8  1  0  0  0  0
 10  1  1  0  0  0  0
 14  7  1  0  0  0  0
 15  9  1  0  0  0  0
 15 22  1  0  0  0  0
 16 15  1  0  0  0  0
 17 16  2  0  0  0  0
 17 19  1  0  0  0  0
 18 17  1  0  0  0  0
 19 21  1  0  0  0  0
 20 19  2  0  0  0  0
 21 22  1  0  0  0  0
 21 24  1  0  0  0  0
 22 23  2  0  0  0  0
 25 28  1  0  0  0  0
 26 25  1  0  0  0  0
 27 25  1  0  0  0  0
 28 30  1  0  0  0  0
 28 34  1  0  0  0  0
 28 29  1  0  0  0  0
 31 42  1  0  0  0  0
 32 36  1  0  0  0  0
 32 31  1  0  0  0  0
 33 34  1  0  0  0  0
 33 32  2  0  0  0  0
 34 35  1  0  0  0  0
 35 31  2  0  0  0  0
 37 33  1  0  0  0  0
 38 44  1  0  0  0  0
 38 39  1  0  0  0  0
 39 45  1  0  0  0  0
 40 46  1  0  0  0  0
 40 39  2  0  0  0  0
 41 40  1  0  0  0  0
 42 43  1  0  0  0  0
 42 41  2  0  0  0  0
 43 38  2  0  0  0  0
M  END
>  <minimizedAffinity>
-6.678864

$$$$

 OpenBabel03252506273D

 46 50  0  0  0  0  0  0  0  0999 V2000
   37.6730   30.3600   40.1420 C   0  0  0  0  0  0  0  0  0  0  0  0
   37.2030   31.0690   39.0480 C   0  0  0  0  0  0  0  0  0  0  0  0
   36.4790   30.3370   38.1110 C   0  0  0  0  0  0  0  0  0  0  0  0
   36.2370   28.9880   38.2490 C   0  0  0  0  0  0  0  0  0  0  0  0
   35.5960   28.0510   37.5350 N   0  0  0  0  0  0  0  0  0  0  0  0
   35.6610   26.8550   38.1340 C   0  0  0  0  0  0  0  0  0  0  0  0
   36.3770   26.9790   39.3090 C   0  0  0  0  0  0  0  0  0  0  0  0
   36.7150   28.3050   39.3450 C   0  0  0  0  0  0  0  0  0  0  0  0
   37.4360   29.0210   40.2830 C   0  0  0  0  0  0  0  0  0  0  0  0
   38.2320   30.9860   40.8420 H   0  0  0  0  0  0  0  0  0  0  0  0
   36.0510   30.7540   37.2090 H   0  0  0  0  0  0  0  0  0  0  0  0
   35.0970   28.2220   36.6150 H   0  0  0  0  0  0  0  0  0  0  0  0
   35.2160   25.9450   37.7490 H   0  0  0  0  0  0  0  0  0  0  0  0
   36.6270   26.2290   40.0450 H   0  0  0  0  0  0  0  0  0  0  0  0
   37.9530   28.3650   41.4380 N   0  0  0  0  0  0  0  0  0  0  0  0
   37.3360   28.2020   42.6240 C   0  0  0  0  0  3  0  0  0  0  0  0
   38.0100   27.5270   43.6370 C   0  0  0  0  0  0  0  0  0  0  0  0
   37.4870   27.4120   44.5780 H   0  0  0  0  0  0  0  0  0  0  0  0
   39.2830   27.0350   43.4300 C   0  0  0  0  0  0  0  0  0  0  0  0
   39.8950   26.4230   44.3420 O   0  0  0  0  0  0  0  0  0  0  0  0
   39.8650   27.2240   42.2120 N   0  0  0  0  0  0  0  0  0  0  0  0
   39.1960   27.8800   41.2450 C   0  0  0  0  0  0  0  0  0  0  0  0
   39.8520   27.9890   40.1570 O   0  0  0  0  0  0  0  0  0  0  0  0
   40.8410   26.8340   42.0900 H   0  0  0  0  0  0  0  0  0  0  0  0
   37.3430   32.4760   38.7130 C   0  0  0  0  0  0  0  0  0  0  0  0
   38.1870   32.6490   38.0050 H   0  0  0  0  0  0  0  0  0  0  0  0
   36.4360   32.7620   38.1070 H   0  0  0  0  0  0  0  0  0  0  0  0
   37.4120   33.4370   39.8410 C   0  0  0  0  0  0  0  0  0  0  0  0
   36.5920   34.1930   39.6830 H   0  0  0  0  0  0  0  0  0  0  0  0
   37.2180   32.9270   40.7810 H   0  0  0  0  0  0  0  0  0  0  0  0
   40.8510   34.3850   39.6740 C   0  0  0  0  0  0  0  0  0  0  0  0
   40.2460   35.5730   40.1000 C   0  0  0  0  0  0  0  0  0  0  0  0
   38.9100   35.3680   40.2130 C   0  0  0  0  0  0  0  0  0  0  0  0
   38.6990   34.0990   39.8690 N   0  0  0  0  0  0  0  0  0  0  0  0
   39.8560   33.4910   39.5410 N   0  0  0  0  0  0  0  0  0  0  0  0
   40.7260   36.5290   40.3180 H   0  0  0  0  0  0  0  0  0  0  0  0
   38.1440   36.0820   40.5220 H   0  0  0  0  0  0  0  0  0  0  0  0
   44.4430   34.0680   40.2550 C   0  0  0  0  0  0  0  0  0  0  0  0
   44.9540   33.8800   38.9650 C   0  0  0  0  0  0  0  0  0  0  0  0
   44.0550   33.8660   37.9070 C   0  0  0  0  0  0  0  0  0  0  0  0
   42.7540   34.0340   38.2050 N   0  0  0  0  0  0  0  0  0  0  0  0
   42.2750   34.2110   39.4380 C   0  0  0  0  0  0  0  0  0  0  0  0
   43.1300   34.2260   40.4590 N   0  0  0  0  0  0  0  0  0  0  0  0
   45.1720   34.0740   41.0590 H   0  0  0  0  0  0  0  0  0  0  0  0
   45.9800   33.7450   38.7020 H   0  0  0  0  0  0  0  0  0  0  0  0
   44.3250   33.7300   36.8670 H   0  0  0  0  0  0  0  0  0  0  0  0
  1  9  1  0  0  0  0
  1 10  1  0  0  0  0
  2  1  2  0  0  0  0
  3  4  2  0  0  0  0
  3  2  1  0  0  0  0
  4  8  1  0  0  0  0
  5  6  1  0  0  0  0
  5  4  1  0  0  0  0
  6  7  2  0  0  0  0
  7  8  1  0  0  0  0
  7 14  1  0  0  0  0
  8  9  2  0  0  0  0
  9 15  1  0  0  0  0
 11  3  1  0  0  0  0
 12  5  1  0  0  0  0
 13  6  1  0  0  0  0
 15 16  1  0  0  0  0
 16 17  2  0  0  0  0
 17 18  1  0  0  0  0
 19 17  1  0  0  0  0
 19 20  2  0  0  0  0
 21 19  1  0  0  0  0
 22 15  1  0  0  0  0
 22 21  1  0  0  0  0
 23 22  2  0  0  0  0
 24 21  1  0  0  0  0
 25  2  1  0  0  0  0
 25 28  1  0  0  0  0
 26 25  1  0  0  0  0
 27 25  1  0  0  0  0
 28 34  1  0  0  0  0
 28 30  1  0  0  0  0
 29 28  1  0  0  0  0
 31 32  1  0  0  0  0
 32 33  2  0  0  0  0
 32 36  1  0  0  0  0
 33 37  1  0  0  0  0
 34 33  1  0  0  0  0
 35 31  2  0  0  0  0
 35 34  1  0  0  0  0
 38 43  1  0  0  0  0
 38 44  1  0  0  0  0
 39 38  2  0  0  0  0
 40 41  2  0  0  0  0
 40 39  1  0  0  0  0
 41 42  1  0  0  0  0
 42 31  1  0  0  0  0
 42 43  2  0  0  0  0
 45 39  1  0  0  0  0
 46 40  1  0  0  0  0
M  END
>  <minimizedAffinity>
-6.62354374

$$$$

 OpenBabel03252506273D

 46 50  0  0  0  0  0  0  0  0999 V2000
   36.5580   30.6170   38.7250 C   0  0  0  0  0  0  0  0  0  0  0  0
   37.0550   31.6440   39.5090 C   0  0  0  0  0  0  0  0  0  0  0  0
   37.2680   31.3410   40.8520 C   0  0  0  0  0  0  0  0  0  0  0  0
   37.0060   30.0980   41.3820 C   0  0  0  0  0  0  0  0  0  0  0  0
   37.1070   29.5320   42.5940 N   0  0  0  0  0  0  0  0  0  0  0  0
   36.7060   28.2540   42.5680 C   0  0  0  0  0  0  0  0  0  0  0  0
   36.3140   27.9320   41.2830 C   0  0  0  0  0  0  0  0  0  0  0  0
   36.5120   29.0910   40.5820 C   0  0  0  0  0  0  0  0  0  0  0  0
   36.2960   29.3800   39.2470 C   0  0  0  0  0  0  0  0  0  0  0  0
   36.4120   30.9130   37.6840 H   0  0  0  0  0  0  0  0  0  0  0  0
   37.6520   32.0410   41.5830 H   0  0  0  0  0  0  0  0  0  0  0  0
   37.4580   30.0200   43.4670 H   0  0  0  0  0  0  0  0  0  0  0  0
   36.6980   27.5900   43.4240 H   0  0  0  0  0  0  0  0  0  0  0  0
   35.9360   26.9980   40.8910 H   0  0  0  0  0  0  0  0  0  0  0  0
   35.7860   28.3750   38.3730 N   0  0  0  0  0  0  0  0  0  0  0  0
   36.4990   27.4830   37.6610 C   0  0  0  0  0  3  0  0  0  0  0  0
   35.8150   26.5740   36.8600 C   0  0  0  0  0  0  0  0  0  0  0  0
   36.4170   25.8680   36.2990 H   0  0  0  0  0  0  0  0  0  0  0  0
   34.4370   26.5870   36.7980 C   0  0  0  0  0  0  0  0  0  0  0  0
   33.8150   25.7670   36.0750 O   0  0  0  0  0  0  0  0  0  0  0  0
   33.7600   27.5100   37.5380 N   0  0  0  0  0  0  0  0  0  0  0  0
   34.4410   28.3810   38.3070 C   0  0  0  0  0  0  0  0  0  0  0  0
   33.6890   29.1880   38.9460 O   0  0  0  0  0  0  0  0  0  0  0  0
   32.7050   27.4900   37.4650 H   0  0  0  0  0  0  0  0  0  0  0  0
   37.3970   33.0120   39.1550 C   0  0  0  0  0  0  0  0  0  0  0  0
   38.1530   33.0490   38.3360 H   0  0  0  0  0  0  0  0  0  0  0  0
   36.4810   33.4670   38.6800 H   0  0  0  0  0  0  0  0  0  0  0  0
   37.7900   33.9190   40.2610 C   0  0  0  0  0  0  0  0  0  0  0  0
   37.0250   34.7450   40.3000 H   0  0  0  0  0  0  0  0  0  0  0  0
   37.7560   33.3910   41.2100 H   0  0  0  0  0  0  0  0  0  0  0  0
   41.2440   34.5440   39.6030 C   0  0  0  0  0  0  0  0  0  0  0  0
   40.7410   35.8410   39.7550 C   0  0  0  0  0  0  0  0  0  0  0  0
   39.4110   35.7680   40.0150 C   0  0  0  0  0  0  0  0  0  0  0  0
   39.1060   34.4720   40.0230 N   0  0  0  0  0  0  0  0  0  0  0  0
   40.1970   33.7200   39.7780 N   0  0  0  0  0  0  0  0  0  0  0  0
   41.2860   36.7840   39.6840 H   0  0  0  0  0  0  0  0  0  0  0  0
   38.7140   36.5910   40.1860 H   0  0  0  0  0  0  0  0  0  0  0  0
   44.7820   33.7630   40.0580 C   0  0  0  0  0  0  0  0  0  0  0  0
   45.2370   33.5920   38.7450 C   0  0  0  0  0  0  0  0  0  0  0  0
   44.3190   33.7490   37.7150 C   0  0  0  0  0  0  0  0  0  0  0  0
   43.0550   34.0550   38.0610 N   0  0  0  0  0  0  0  0  0  0  0  0
   42.6300   34.2140   39.3160 C   0  0  0  0  0  0  0  0  0  0  0  0
   43.5040   34.0660   40.3100 N   0  0  0  0  0  0  0  0  0  0  0  0
   45.5250   33.6330   40.8380 H   0  0  0  0  0  0  0  0  0  0  0  0
   46.2330   33.3510   38.4440 H   0  0  0  0  0  0  0  0  0  0  0  0
   44.5470   33.6450   36.6610 H   0  0  0  0  0  0  0  0  0  0  0  0
  1  9  2  0  0  0  0
  1  2  1  0  0  0  0
  2  3  2  0  0  0  0
  3  4  1  0  0  0  0
  3 11  1  0  0  0  0
  4  5  1  0  0  0  0
  5 12  1  0  0  0  0
  6  5  1  0  0  0  0
  6 13  1  0  0  0  0
  7  6  2  0  0  0  0
  8  7  1  0  0  0  0
  8  4  2  0  0  0  0
  9  8  1  0  0  0  0
 10  1  1  0  0  0  0
 14  7  1  0  0  0  0
 15  9  1  0  0  0  0
 16 15  1  0  0  0  0
 17 16  2  0  0  0  0
 18 17  1  0  0  0  0
 19 17  1  0  0  0  0
 19 21  1  0  0  0  0
 20 19  2  0  0  0  0
 21 22  1  0  0  0  0
 22 15  1  0  0  0  0
 22 23  2  0  0  0  0
 24 21  1  0  0  0  0
 25  2  1  0  0  0  0
 25 28  1  0  0  0  0
 26 25  1  0  0  0  0
 27 25  1  0  0  0  0
 28 29  1  0  0  0  0
 28 30  1  0  0  0  0
 31 32  1  0  0  0  0
 31 35  2  0  0  0  0
 32 33  2  0  0  0  0
 33 34  1  0  0  0  0
 33 37  1  0  0  0  0
 34 28  1  0  0  0  0
 35 34  1  0  0  0  0
 36 32  1  0  0  0  0
 38 43  1  0  0  0  0
 38 44  1  0  0  0  0
 39 38  2  0  0  0  0
 40 41  2  0  0  0  0
 40 39  1  0  0  0  0
 41 42  1  0  0  0  0
 42 31  1  0  0  0  0
 42 43  2  0  0  0  0
 45 39  1  0  0  0  0
 46 40  1  0  0  0  0
M  END
>  <minimizedAffinity>
-6.60962439

$$$$

 OpenBabel03252506273D

 46 50  0  0  0  0  0  0  0  0999 V2000
   36.4790   29.9580   38.7320 C   0  0  0  0  0  0  0  0  0  0  0  0
   35.3600   29.2770   39.1810 C   0  0  0  0  0  0  0  0  0  0  0  0
   35.3880   28.8620   40.5100 C   0  0  0  0  0  0  0  0  0  0  0  0
   36.4580   29.1070   41.3410 C   0  0  0  0  0  0  0  0  0  0  0  0
   36.7600   28.8380   42.6200 N   0  0  0  0  0  0  0  0  0  0  0  0
   37.9700   29.3140   42.9430 C   0  0  0  0  0  0  0  0  0  0  0  0
   38.5190   29.9340   41.8380 C   0  0  0  0  0  0  0  0  0  0  0  0
   37.5610   29.7870   40.8720 C   0  0  0  0  0  0  0  0  0  0  0  0
   37.5450   30.2040   39.5530 C   0  0  0  0  0  0  0  0  0  0  0  0
   36.4000   30.2580   37.6850 H   0  0  0  0  0  0  0  0  0  0  0  0
   34.5870   28.3210   40.9980 H   0  0  0  0  0  0  0  0  0  0  0  0
   36.1310   28.3200   43.2980 H   0  0  0  0  0  0  0  0  0  0  0  0
   38.4310   29.2210   43.9190 H   0  0  0  0  0  0  0  0  0  0  0  0
   39.4750   30.4280   41.7290 H   0  0  0  0  0  0  0  0  0  0  0  0
   38.6600   30.9120   39.0160 N   0  0  0  0  0  0  0  0  0  0  0  0
   39.7550   30.3830   38.4390 C   0  0  0  0  0  3  0  0  0  0  0  0
   40.7420   31.2460   37.9720 C   0  0  0  0  0  0  0  0  0  0  0  0
   41.6100   30.7900   37.5120 H   0  0  0  0  0  0  0  0  0  0  0  0
   40.5990   32.6130   38.0970 C   0  0  0  0  0  0  0  0  0  0  0  0
   41.4890   33.3950   37.6750 O   0  0  0  0  0  0  0  0  0  0  0  0
   39.4720   33.1000   38.6880 N   0  0  0  0  0  0  0  0  0  0  0  0
   38.5290   32.2480   39.1340 C   0  0  0  0  0  0  0  0  0  0  0  0
   37.5280   32.8320   39.6650 O   0  0  0  0  0  0  0  0  0  0  0  0
   39.3980   34.1520   38.7660 H   0  0  0  0  0  0  0  0  0  0  0  0
   34.1380   28.9180   38.4800 C   0  0  0  0  0  0  0  0  0  0  0  0
   33.7450   27.9300   38.8150 H   0  0  0  0  0  0  0  0  0  0  0  0
   33.3400   29.6400   38.8190 H   0  0  0  0  0  0  0  0  0  0  0  0
   34.1630   28.9870   36.9980 C   0  0  0  0  0  0  0  0  0  0  0  0
   34.9870   29.7030   36.7140 H   0  0  0  0  0  0  0  0  0  0  0  0
   34.4100   28.0150   36.5810 H   0  0  0  0  0  0  0  0  0  0  0  0
   31.4080   30.1840   35.0670 C   0  0  0  0  0  0  0  0  0  0  0  0
   30.8450   30.0950   36.3450 C   0  0  0  0  0  0  0  0  0  0  0  0
   31.7900   29.6440   37.2090 C   0  0  0  0  0  0  0  0  0  0  0  0
   32.8950   29.4630   36.4890 N   0  0  0  0  0  0  0  0  0  0  0  0
   32.6840   29.7830   35.1970 N   0  0  0  0  0  0  0  0  0  0  0  0
   29.8240   30.3350   36.6470 H   0  0  0  0  0  0  0  0  0  0  0  0
   31.6870   29.4610   38.2810 H   0  0  0  0  0  0  0  0  0  0  0  0
   29.6730   30.1450   31.8540 C   0  0  0  0  0  0  0  0  0  0  0  0
   29.3820   31.4970   31.6370 C   0  0  0  0  0  0  0  0  0  0  0  0
   29.7890   32.4100   32.6020 C   0  0  0  0  0  0  0  0  0  0  0  0
   30.4340   31.9210   33.6770 N   0  0  0  0  0  0  0  0  0  0  0  0
   30.7050   30.6290   33.8750 C   0  0  0  0  0  0  0  0  0  0  0  0
   30.3190   29.7470   32.9550 N   0  0  0  0  0  0  0  0  0  0  0  0
   29.3410   29.4590   31.0810 H   0  0  0  0  0  0  0  0  0  0  0  0
   28.8730   31.9110   30.7940 H   0  0  0  0  0  0  0  0  0  0  0  0
   29.6250   33.4800   32.5500 H   0  0  0  0  0  0  0  0  0  0  0  0
  1  2  2  0  0  0  0
  1  9  1  0  0  0  0
  2  3  1  0  0  0  0
  3 11  1  0  0  0  0
  3  4  2  0  0  0  0
  4  5  1  0  0  0  0
  5  6  1  0  0  0  0
  5 12  1  0  0  0  0
  6 13  1  0  0  0  0
  7  6  2  0  0  0  0
  8  4  1  0  0  0  0
  8  7  1  0  0  0  0
  9  8  2  0  0  0  0
 10  1  1  0  0  0  0
 14  7  1  0  0  0  0
 15 22  1  0  0  0  0
 15  9  1  0  0  0  0
 16 15  1  0  0  0  0
 17 19  1  0  0  0  0
 17 16  2  0  0  0  0
 18 17  1  0  0  0  0
 19 21  1  0  0  0  0
 20 19  2  0  0  0  0
 21 24  1  0  0  0  0
 21 22  1  0  0  0  0
 22 23  2  0  0  0  0
 25 26  1  0  0  0  0
 25 27  1  0  0  0  0
 25  2  1  0  0  0  0
 28 25  1  0  0  0  0
 29 28  1  0  0  0  0
 30 28  1  0  0  0  0
 31 35  2  0  0  0  0
 31 32  1  0  0  0  0
 32 36  1  0  0  0  0
 32 33  2  0  0  0  0
 33 37  1  0  0  0  0
 34 28  1  0  0  0  0
 34 33  1  0  0  0  0
 35 34  1  0  0  0  0
 38 43  1  0  0  0  0
 39 38  2  0  0  0  0
 39 40  1  0  0  0  0
 40 41  2  0  0  0  0
 41 42  1  0  0  0  0
 42 31  1  0  0  0  0
 43 42  2  0  0  0  0
 44 38  1  0  0  0  0
 45 39  1  0  0  0  0
 46 40  1  0  0  0  0
M  END
>  <minimizedAffinity>
-6.54239416

$$$$

 OpenBabel03252506273D

 46 50  0  0  0  0  0  0  0  0999 V2000
   37.7770   28.1280   39.9130 C   0  0  0  0  0  0  0  0  0  0  0  0
   37.7190   29.5010   40.0870 C   0  0  0  0  0  0  0  0  0  0  0  0
   37.4540   29.9420   41.3810 C   0  0  0  0  0  0  0  0  0  0  0  0
   37.2580   29.0770   42.4340 C   0  0  0  0  0  0  0  0  0  0  0  0
   36.9950   29.2050   43.7430 N   0  0  0  0  0  0  0  0  0  0  0  0
   36.8960   28.0070   44.3370 C   0  0  0  0  0  0  0  0  0  0  0  0
   37.1000   27.0190   43.3940 C   0  0  0  0  0  0  0  0  0  0  0  0
   37.3200   27.7150   42.2360 C   0  0  0  0  0  0  0  0  0  0  0  0
   37.5830   27.2650   40.9550 C   0  0  0  0  0  0  0  0  0  0  0  0
   37.9880   27.8420   38.8790 H   0  0  0  0  0  0  0  0  0  0  0  0
   37.3800   30.9830   41.6680 H   0  0  0  0  0  0  0  0  0  0  0  0
   36.8780   30.1260   44.2540 H   0  0  0  0  0  0  0  0  0  0  0  0
   36.6890   27.8540   45.3900 H   0  0  0  0  0  0  0  0  0  0  0  0
   37.0960   25.9450   43.5100 H   0  0  0  0  0  0  0  0  0  0  0  0
   37.6590   25.8650   40.6930 N   0  0  0  0  0  0  0  0  0  0  0  0
   36.6470   25.0500   40.3430 C   0  0  0  0  0  3  0  0  0  0  0  0
   36.9230   23.7030   40.1280 C   0  0  0  0  0  0  0  0  0  0  0  0
   36.0880   23.0720   39.8470 H   0  0  0  0  0  0  0  0  0  0  0  0
   38.2060   23.2150   40.2690 C   0  0  0  0  0  0  0  0  0  0  0  0
   38.4600   21.9990   40.0750 O   0  0  0  0  0  0  0  0  0  0  0  0
   39.1970   24.0810   40.6250 N   0  0  0  0  0  0  0  0  0  0  0  0
   38.9090   25.3810   40.8290 C   0  0  0  0  0  0  0  0  0  0  0  0
   39.9230   26.0800   41.1550 O   0  0  0  0  0  0  0  0  0  0  0  0
   40.1670   23.6720   40.7240 H   0  0  0  0  0  0  0  0  0  0  0  0
   37.8940   30.5760   39.1250 C   0  0  0  0  0  0  0  0  0  0  0  0
   36.9470   30.7990   38.5800 H   0  0  0  0  0  0  0  0  0  0  0  0
   38.0790   31.5190   39.7150 H   0  0  0  0  0  0  0  0  0  0  0  0
   39.0220   30.4520   38.1700 C   0  0  0  0  0  0  0  0  0  0  0  0
   39.5150   29.4580   38.3660 H   0  0  0  0  0  0  0  0  0  0  0  0
   38.6510   30.4430   37.1490 H   0  0  0  0  0  0  0  0  0  0  0  0
   41.2370   32.9700   39.3980 C   0  0  0  0  0  0  0  0  0  0  0  0
   41.3920   33.1020   38.0130 C   0  0  0  0  0  0  0  0  0  0  0  0
   40.5970   32.1920   37.3950 C   0  0  0  0  0  0  0  0  0  0  0  0
   39.9740   31.5250   38.3640 N   0  0  0  0  0  0  0  0  0  0  0  0
   40.3460   31.9790   39.5770 N   0  0  0  0  0  0  0  0  0  0  0  0
   42.0320   33.8020   37.4740 H   0  0  0  0  0  0  0  0  0  0  0  0
   40.4760   32.0240   36.3220 H   0  0  0  0  0  0  0  0  0  0  0  0
   43.5660   33.9790   42.0230 C   0  0  0  0  0  0  0  0  0  0  0  0
   43.2060   35.3100   42.2680 C   0  0  0  0  0  0  0  0  0  0  0  0
   42.1620   35.8460   41.5250 C   0  0  0  0  0  0  0  0  0  0  0  0
   41.5750   35.0400   40.6220 N   0  0  0  0  0  0  0  0  0  0  0  0
   41.9260   33.7730   40.3950 C   0  0  0  0  0  0  0  0  0  0  0  0
   42.9260   33.2500   41.1030 N   0  0  0  0  0  0  0  0  0  0  0  0
   44.3850   33.5910   42.6200 H   0  0  0  0  0  0  0  0  0  0  0  0
   43.6560   35.9690   42.9780 H   0  0  0  0  0  0  0  0  0  0  0  0
   41.7910   36.8590   41.6210 H   0  0  0  0  0  0  0  0  0  0  0  0
  1  2  2  0  0  0  0
  1  9  1  0  0  0  0
  2  3  1  0  0  0  0
  3 11  1  0  0  0  0
  3  4  2  0  0  0  0
  4  5  1  0  0  0  0
  5 12  1  0  0  0  0
  5  6  1  0  0  0  0
  6 13  1  0  0  0  0
  7 14  1  0  0  0  0
  7  6  2  0  0  0  0
  8  4  1  0  0  0  0
  8  7  1  0  0  0  0
  9  8  2  0  0  0  0
 10  1  1  0  0  0  0
 15 22  1  0  0  0  0
 15  9  1  0  0  0  0
 16 15  1  0  0  0  0
 17 19  1  0  0  0  0
 17 16  2  0  0  0  0
 18 17  1  0  0  0  0
 19 21  1  0  0  0  0
 20 19  2  0  0  0  0
 21 24  1  0  0  0  0
 21 22  1  0  0  0  0
 22 23  2  0  0  0  0
 25 27  1  0  0  0  0
 25  2  1  0  0  0  0
 26 25  1  0  0  0  0
 28 34  1  0  0  0  0
 28 29  1  0  0  0  0
 28 25  1  0  0  0  0
 30 28  1  0  0  0  0
 31 35  2  0  0  0  0
 31 42  1  0  0  0  0
 32 31  1  0  0  0  0
 33 32  2  0  0  0  0
 33 34  1  0  0  0  0
 34 35  1  0  0  0  0
 36 32  1  0  0  0  0
 37 33  1  0  0  0  0
 38 39  1  0  0  0  0
 38 44  1  0  0  0  0
 39 45  1  0  0  0  0
 40 46  1  0  0  0  0
 40 39  2  0  0  0  0
 41 40  1  0  0  0  0
 42 41  2  0  0  0  0
 42 43  1  0  0  0  0
 43 38  2  0  0  0  0
M  END
>  <minimizedAffinity>
-6.48103428

$$$$

 OpenBabel03252506273D

 46 50  0  0  0  0  0  0  0  0999 V2000
   37.1340   27.7030   39.3780 C   0  0  0  0  0  0  0  0  0  0  0  0
   36.8610   26.3480   39.2920 C   0  0  0  0  0  0  0  0  0  0  0  0
   35.7850   25.9920   38.4830 C   0  0  0  0  0  0  0  0  0  0  0  0
   35.0290   26.9200   37.8020 C   0  0  0  0  0  0  0  0  0  0  0  0
   33.9710   26.8760   36.9780 N   0  0  0  0  0  0  0  0  0  0  0  0
   33.6140   28.1060   36.5820 C   0  0  0  0  0  0  0  0  0  0  0  0
   34.4640   29.0290   37.1590 C   0  0  0  0  0  0  0  0  0  0  0  0
   35.3200   28.2630   37.9030 C   0  0  0  0  0  0  0  0  0  0  0  0
   36.3860   28.6290   38.7040 C   0  0  0  0  0  0  0  0  0  0  0  0
   37.9870   27.9220   40.0250 H   0  0  0  0  0  0  0  0  0  0  0  0
   35.4540   24.9740   38.3200 H   0  0  0  0  0  0  0  0  0  0  0  0
   33.4740   25.9920   36.6710 H   0  0  0  0  0  0  0  0  0  0  0  0
   32.7900   28.3250   35.9140 H   0  0  0  0  0  0  0  0  0  0  0  0
   34.4770   30.1060   37.0660 H   0  0  0  0  0  0  0  0  0  0  0  0
   36.7330   30.0050   38.8440 N   0  0  0  0  0  0  0  0  0  0  0  0
   37.4420   30.7550   37.9790 C   0  0  0  0  0  3  0  0  0  0  0  0
   37.6770   32.0890   38.2950 C   0  0  0  0  0  0  0  0  0  0  0  0
   38.2500   32.6670   37.5790 H   0  0  0  0  0  0  0  0  0  0  0  0
   37.1940   32.6320   39.4680 C   0  0  0  0  0  0  0  0  0  0  0  0
   37.4050   33.8370   39.7570 O   0  0  0  0  0  0  0  0  0  0  0  0
   36.4820   31.8320   40.3110 N   0  0  0  0  0  0  0  0  0  0  0  0
   36.2650   30.5430   39.9870 C   0  0  0  0  0  0  0  0  0  0  0  0
   35.5860   29.9070   40.8600 O   0  0  0  0  0  0  0  0  0  0  0  0
   36.1280   32.2820   41.2010 H   0  0  0  0  0  0  0  0  0  0  0  0
   37.5240   25.2170   39.9190 C   0  0  0  0  0  0  0  0  0  0  0  0
   37.4080   24.2860   39.3160 H   0  0  0  0  0  0  0  0  0  0  0  0
   38.6330   25.4180   39.8700 H   0  0  0  0  0  0  0  0  0  0  0  0
   37.2080   24.9530   41.3430 C   0  0  0  0  0  0  0  0  0  0  0  0
   36.0930   25.0670   41.4630 H   0  0  0  0  0  0  0  0  0  0  0  0
   37.4660   23.9290   41.6020 H   0  0  0  0  0  0  0  0  0  0  0  0
   39.5450   26.9300   43.1830 C   0  0  0  0  0  0  0  0  0  0  0  0
   38.3220   27.4620   43.6070 C   0  0  0  0  0  0  0  0  0  0  0  0
   37.3150   26.8000   42.9820 C   0  0  0  0  0  0  0  0  0  0  0  0
   37.8980   25.8920   42.2010 N   0  0  0  0  0  0  0  0  0  0  0  0
   39.2400   25.9550   42.3100 N   0  0  0  0  0  0  0  0  0  0  0  0
   38.1540   28.2740   44.3170 H   0  0  0  0  0  0  0  0  0  0  0  0
   36.2400   26.9610   43.0830 H   0  0  0  0  0  0  0  0  0  0  0  0
   42.6250   28.8690   43.4800 C   0  0  0  0  0  0  0  0  0  0  0  0
   43.3160   28.2060   44.5010 C   0  0  0  0  0  0  0  0  0  0  0  0
   42.7130   27.0960   45.0770 C   0  0  0  0  0  0  0  0  0  0  0  0
   41.5040   26.7410   44.6060 N   0  0  0  0  0  0  0  0  0  0  0  0
   40.8520   27.3800   43.6330 C   0  0  0  0  0  0  0  0  0  0  0  0
   41.4220   28.4460   43.0750 N   0  0  0  0  0  0  0  0  0  0  0  0
   43.1240   29.7330   43.0510 H   0  0  0  0  0  0  0  0  0  0  0  0
   44.2750   28.4670   44.8910 H   0  0  0  0  0  0  0  0  0  0  0  0
   43.1450   26.5000   45.8720 H   0  0  0  0  0  0  0  0  0  0  0  0
  1 10  1  0  0  0  0
  2  1  1  0  0  0  0
  2 25  1  0  0  0  0
  3  2  2  0  0  0  0
  4  8  2  0  0  0  0
  4  3  1  0  0  0  0
  5  4  1  0  0  0  0
  6  5  1  0  0  0  0
  6  7  2  0  0  0  0
  7  8  1  0  0  0  0
  8  9  1  0  0  0  0
  9 15  1  0  0  0  0
  9  1  2  0  0  0  0
 11  3  1  0  0  0  0
 12  5  1  0  0  0  0
 13  6  1  0  0  0  0
 14  7  1  0  0  0  0
 15 22  1  0  0  0  0
 16 17  2  0  0  0  0
 16 15  1  0  0  0  0
 17 19  1  0  0  0  0
 18 17  1  0  0  0  0
 19 20  2  0  0  0  0
 19 21  1  0  0  0  0
 21 24  1  0  0  0  0
 22 21  1  0  0  0  0
 22 23  2  0  0  0  0
 25 28  1  0  0  0  0
 26 25  1  0  0  0  0
 27 25  1  0  0  0  0
 28 29  1  0  0  0  0
 28 30  1  0  0  0  0
 28 34  1  0  0  0  0
 31 32  1  0  0  0  0
 31 42  1  0  0  0  0
 32 36  1  0  0  0  0
 33 37  1  0  0  0  0
 33 32  2  0  0  0  0
 34 35  1  0  0  0  0
 34 33  1  0  0  0  0
 35 31  2  0  0  0  0
 38 39  1  0  0  0  0
 39 45  1  0  0  0  0
 39 40  2  0  0  0  0
 40 46  1  0  0  0  0
 41 40  1  0  0  0  0
 42 41  2  0  0  0  0
 43 38  2  0  0  0  0
 43 42  1  0  0  0  0
 44 38  1  0  0  0  0
M  END
>  <minimizedAffinity>
-6.46754932

$$$$
