
 OpenBabel03242513473D

 26 28  0  0  1  0  0  0  0  0999 V2000
   37.2450   30.9110   37.8830 C   0  0  1  0  0  0  0  0  0  0  0  0
   38.0540   29.6530   37.4920 C   0  0  0  0  0  0  0  0  0  0  0  0
   36.9010   29.6120   38.4120 C   0  0  1  0  0  0  0  0  0  0  0  0
   36.7200   31.3260   36.9970 H   0  0  0  0  0  0  0  0  0  0  0  0
   39.0880   29.6090   37.8090 H   0  0  0  0  0  0  0  0  0  0  0  0
   37.9360   29.2840   36.4300 H   0  0  0  0  0  0  0  0  0  0  0  0
   35.9250   29.1740   38.0320 H   0  0  0  0  0  0  0  0  0  0  0  0
   37.1940   29.2100   39.7710 N   0  0  0  0  0  0  0  0  0  0  0  0
   38.3520   28.7930   40.3130 C   0  0  0  0  0  3  0  0  0  0  0  0
   38.4710   28.4440   41.6360 C   0  0  0  0  0  0  0  0  0  0  0  0
   39.4540   28.1170   41.9820 H   0  0  0  0  0  0  0  0  0  0  0  0
   37.4110   28.5000   42.4930 C   0  0  0  0  0  0  0  0  0  0  0  0
   37.5930   28.1700   43.6760 O   0  0  0  0  0  0  0  0  0  0  0  0
   36.2480   28.9130   41.9730 N   0  0  0  0  0  0  0  0  0  0  0  0
   36.1780   29.2450   40.6720 C   0  0  0  0  0  0  0  0  0  0  0  0
   35.0250   29.6270   40.2710 O   0  0  0  0  0  0  0  0  0  0  0  0
   35.4160   28.9710   42.5890 H   0  0  0  0  0  0  0  0  0  0  0  0
   38.0400   31.9160   38.6190 C   0  0  0  0  0  0  0  0  0  0  0  0
   37.3520   32.7700   39.5330 C   0  0  0  0  0  0  0  0  0  0  0  0
   38.0870   33.7170   40.2440 C   0  0  0  0  0  0  0  0  0  0  0  0
   39.4390   33.7640   40.0160 N   0  0  0  0  0  0  0  0  0  0  0  0
   40.0530   32.9350   39.1410 C   0  0  0  0  0  0  0  0  0  0  0  0
   39.3550   32.0130   38.4440 N   0  0  0  0  0  0  0  0  0  0  0  0
   36.3020   32.7340   39.7100 H   0  0  0  0  0  0  0  0  0  0  0  0
   37.6450   34.4000   40.9520 H   0  0  0  0  0  0  0  0  0  0  0  0
   41.1340   33.0210   39.0020 H   0  0  0  0  0  0  0  0  0  0  0  0
  1  4  1  6  0  0  0
  1  3  1  0  0  0  0
  1 18  1  0  0  0  0
  2  5  1  0  0  0  0
  2  1  1  0  0  0  0
  2  3  1  0  0  0  0
  3  7  1  6  0  0  0
  3  8  1  0  0  0  0
  6  2  1  0  0  0  0
  8  9  1  0  0  0  0
  8 15  1  0  0  0  0
  9 10  2  0  0  0  0
 10 11  1  0  0  0  0
 10 12  1  0  0  0  0
 12 13  2  0  0  0  0
 14 12  1  0  0  0  0
 14 17  1  0  0  0  0
 15 14  1  0  0  0  0
 16 15  2  0  0  0  0
 18 19  1  0  0  0  0
 19 24  1  0  0  0  0
 19 20  2  0  0  0  0
 20 25  1  0  0  0  0
 21 20  1  0  0  0  0
 22 21  2  0  0  0  0
 23 18  2  0  0  0  0
 23 22  1  0  0  0  0
 26 22  1  0  0  0  0
M  END
>  <minimizedAffinity>
-4.58365297

$$$$

 OpenBabel03242513473D

 26 28  0  0  1  0  0  0  0  0999 V2000
   36.2020   28.0700   40.0490 C   0  0  1  0  0  0  0  0  0  0  0  0
   34.9880   29.0100   40.2320 C   0  0  0  0  0  0  0  0  0  0  0  0
   36.0440   29.2490   39.2290 C   0  0  1  0  0  0  0  0  0  0  0  0
   35.8710   27.0740   39.6890 H   0  0  0  0  0  0  0  0  0  0  0  0
   34.9080   29.5430   41.1710 H   0  0  0  0  0  0  0  0  0  0  0  0
   33.9840   28.6110   39.9020 H   0  0  0  0  0  0  0  0  0  0  0  0
   35.8030   29.0550   38.1370 H   0  0  0  0  0  0  0  0  0  0  0  0
   36.8280   30.4510   39.4160 N   0  0  0  0  0  0  0  0  0  0  0  0
   36.7080   31.4220   40.3380 C   0  0  0  0  0  3  0  0  0  0  0  0
   37.5410   32.5130   40.3850 C   0  0  0  0  0  0  0  0  0  0  0  0
   37.3620   33.2480   41.1720 H   0  0  0  0  0  0  0  0  0  0  0  0
   38.5550   32.6810   39.4880 C   0  0  0  0  0  0  0  0  0  0  0  0
   39.2690   33.6920   39.5910 O   0  0  0  0  0  0  0  0  0  0  0  0
   38.6930   31.7250   38.5610 N   0  0  0  0  0  0  0  0  0  0  0  0
   37.8540   30.6740   38.5530 C   0  0  0  0  0  0  0  0  0  0  0  0
   38.0680   29.8170   37.6290 O   0  0  0  0  0  0  0  0  0  0  0  0
   39.4510   31.8130   37.8590 H   0  0  0  0  0  0  0  0  0  0  0  0
   37.0780   28.0050   41.2370 C   0  0  0  0  0  0  0  0  0  0  0  0
   36.4720   27.7020   42.4940 C   0  0  0  0  0  0  0  0  0  0  0  0
   37.2830   27.6250   43.6250 C   0  0  0  0  0  0  0  0  0  0  0  0
   38.6250   27.8490   43.4520 N   0  0  0  0  0  0  0  0  0  0  0  0
   39.1600   28.1330   42.2420 C   0  0  0  0  0  0  0  0  0  0  0  0
   38.3880   28.2110   41.1380 N   0  0  0  0  0  0  0  0  0  0  0  0
   35.4300   27.5280   42.6290 H   0  0  0  0  0  0  0  0  0  0  0  0
   36.9060   27.4020   44.6110 H   0  0  0  0  0  0  0  0  0  0  0  0
   40.2380   28.3020   42.1680 H   0  0  0  0  0  0  0  0  0  0  0  0
  1  4  1  6  0  0  0
  1  2  1  0  0  0  0
  1 18  1  0  0  0  0
  2  5  1  0  0  0  0
  3  7  1  6  0  0  0
  3  8  1  0  0  0  0
  3  1  1  0  0  0  0
  3  2  1  0  0  0  0
  6  2  1  0  0  0  0
  8  9  1  0  0  0  0
  9 10  2  0  0  0  0
 10 11  1  0  0  0  0
 12 13  2  0  0  0  0
 12 10  1  0  0  0  0
 14 12  1  0  0  0  0
 15 14  1  0  0  0  0
 15  8  1  0  0  0  0
 16 15  2  0  0  0  0
 17 14  1  0  0  0  0
 18 19  1  0  0  0  0
 19 24  1  0  0  0  0
 19 20  2  0  0  0  0
 20 25  1  0  0  0  0
 21 20  1  0  0  0  0
 22 21  2  0  0  0  0
 23 18  2  0  0  0  0
 23 22  1  0  0  0  0
 26 22  1  0  0  0  0
M  END
>  <minimizedAffinity>
-4.56431103

$$$$

 OpenBabel03242513473D

 26 28  0  0  1  0  0  0  0  0999 V2000
   37.8430   28.3370   43.4490 C   0  0  1  0  0  0  0  0  0  0  0  0
   36.5450   27.4970   43.4750 C   0  0  0  0  0  0  0  0  0  0  0  0
   37.8490   26.9480   43.0530 C   0  0  1  0  0  0  0  0  0  0  0  0
   38.1280   28.6410   44.4780 H   0  0  0  0  0  0  0  0  0  0  0  0
   35.7550   27.7820   42.7910 H   0  0  0  0  0  0  0  0  0  0  0  0
   36.1300   27.2360   44.4920 H   0  0  0  0  0  0  0  0  0  0  0  0
   38.3880   26.2420   43.7610 H   0  0  0  0  0  0  0  0  0  0  0  0
   37.9360   26.5210   41.6740 N   0  0  0  0  0  0  0  0  0  0  0  0
   38.5230   27.1200   40.6240 C   0  0  0  0  0  3  0  0  0  0  0  0
   38.5200   26.5810   39.3610 C   0  0  0  0  0  0  0  0  0  0  0  0
   39.0250   27.1440   38.5730 H   0  0  0  0  0  0  0  0  0  0  0  0
   37.9160   25.3880   39.0900 C   0  0  0  0  0  0  0  0  0  0  0  0
   37.9530   24.9610   37.9240 O   0  0  0  0  0  0  0  0  0  0  0  0
   37.3250   24.7740   40.1220 N   0  0  0  0  0  0  0  0  0  0  0  0
   37.3530   25.3390   41.3420 C   0  0  0  0  0  0  0  0  0  0  0  0
   36.7610   24.6750   42.2610 O   0  0  0  0  0  0  0  0  0  0  0  0
   36.8530   23.8650   39.9610 H   0  0  0  0  0  0  0  0  0  0  0  0
   37.7940   29.4650   42.4950 C   0  0  0  0  0  0  0  0  0  0  0  0
   38.9960   30.2040   42.2780 C   0  0  0  0  0  0  0  0  0  0  0  0
   38.9730   31.2650   41.3750 C   0  0  0  0  0  0  0  0  0  0  0  0
   37.7830   31.5290   40.7460 N   0  0  0  0  0  0  0  0  0  0  0  0
   36.6660   30.8030   40.9800 C   0  0  0  0  0  0  0  0  0  0  0  0
   36.6720   29.7730   41.8520 N   0  0  0  0  0  0  0  0  0  0  0  0
   39.9210   30.0000   42.7660 H   0  0  0  0  0  0  0  0  0  0  0  0
   39.8350   31.8740   41.1530 H   0  0  0  0  0  0  0  0  0  0  0  0
   35.7460   31.0620   40.4480 H   0  0  0  0  0  0  0  0  0  0  0  0
  1  2  1  0  0  0  0
  1  4  1  1  0  0  0
  2  6  1  0  0  0  0
  3  1  1  0  0  0  0
  3  2  1  0  0  0  0
  3  7  1  1  0  0  0
  5  2  1  0  0  0  0
  8  3  1  0  0  0  0
  9  8  1  0  0  0  0
 10  9  2  0  0  0  0
 11 10  1  0  0  0  0
 12 10  1  0  0  0  0
 12 14  1  0  0  0  0
 13 12  2  0  0  0  0
 14 15  1  0  0  0  0
 15  8  1  0  0  0  0
 15 16  2  0  0  0  0
 17 14  1  0  0  0  0
 18  1  1  0  0  0  0
 19 18  1  0  0  0  0
 19 24  1  0  0  0  0
 20 19  2  0  0  0  0
 21 22  2  0  0  0  0
 21 20  1  0  0  0  0
 22 23  1  0  0  0  0
 23 18  2  0  0  0  0
 25 20  1  0  0  0  0
 26 22  1  0  0  0  0
M  END
>  <minimizedAffinity>
-4.54891491

$$$$

 OpenBabel03242513473D

 26 28  0  0  1  0  0  0  0  0999 V2000
   37.9220   28.3470   42.6680 C   0  0  1  0  0  0  0  0  0  0  0  0
   36.9140   27.7410   43.6710 C   0  0  0  0  0  0  0  0  0  0  0  0
   38.1390   27.0390   43.2420 C   0  0  1  0  0  0  0  0  0  0  0  0
   38.4040   29.2490   43.1000 H   0  0  0  0  0  0  0  0  0  0  0  0
   35.9210   27.5140   43.3020 H   0  0  0  0  0  0  0  0  0  0  0  0
   36.8700   28.2150   44.6960 H   0  0  0  0  0  0  0  0  0  0  0  0
   39.0020   26.9670   43.9770 H   0  0  0  0  0  0  0  0  0  0  0  0
   37.9360   25.8110   42.5060 N   0  0  0  0  0  0  0  0  0  0  0  0
   36.8360   25.3560   41.8790 C   0  0  0  0  0  3  0  0  0  0  0  0
   36.8010   24.1540   41.2150 C   0  0  0  0  0  0  0  0  0  0  0  0
   35.8610   23.8720   40.7370 H   0  0  0  0  0  0  0  0  0  0  0  0
   37.8930   23.3380   41.1460 C   0  0  0  0  0  0  0  0  0  0  0  0
   37.7880   22.2670   40.5280 O   0  0  0  0  0  0  0  0  0  0  0  0
   38.9990   23.7740   41.7630 N   0  0  0  0  0  0  0  0  0  0  0  0
   38.9870   24.9560   42.4020 C   0  0  0  0  0  0  0  0  0  0  0  0
   40.0910   25.2830   42.9590 O   0  0  0  0  0  0  0  0  0  0  0  0
   39.8520   23.1850   41.7360 H   0  0  0  0  0  0  0  0  0  0  0  0
   37.3510   28.5720   41.3240 C   0  0  0  0  0  0  0  0  0  0  0  0
   38.2200   28.4340   40.2000 C   0  0  0  0  0  0  0  0  0  0  0  0
   37.6970   28.6320   38.9240 C   0  0  0  0  0  0  0  0  0  0  0  0
   36.3650   28.9490   38.8320 N   0  0  0  0  0  0  0  0  0  0  0  0
   35.5750   29.0690   39.9230 C   0  0  0  0  0  0  0  0  0  0  0  0
   36.0670   28.8810   41.1660 N   0  0  0  0  0  0  0  0  0  0  0  0
   39.2540   28.1880   40.2700 H   0  0  0  0  0  0  0  0  0  0  0  0
   38.2840   28.5480   38.0220 H   0  0  0  0  0  0  0  0  0  0  0  0
   34.5210   29.3240   39.7860 H   0  0  0  0  0  0  0  0  0  0  0  0
  1  4  1  1  0  0  0
  1  3  1  0  0  0  0
  1  2  1  0  0  0  0
  2  6  1  0  0  0  0
  3  2  1  0  0  0  0
  3  7  1  1  0  0  0
  5  2  1  0  0  0  0
  8  3  1  0  0  0  0
  9  8  1  0  0  0  0
 10  9  2  0  0  0  0
 11 10  1  0  0  0  0
 12 10  1  0  0  0  0
 12 14  1  0  0  0  0
 13 12  2  0  0  0  0
 14 15  1  0  0  0  0
 15  8  1  0  0  0  0
 15 16  2  0  0  0  0
 17 14  1  0  0  0  0
 18  1  1  0  0  0  0
 19 24  1  0  0  0  0
 19 18  2  0  0  0  0
 20 19  1  0  0  0  0
 21 20  2  0  0  0  0
 21 22  1  0  0  0  0
 22 23  2  0  0  0  0
 23 18  1  0  0  0  0
 25 20  1  0  0  0  0
 26 22  1  0  0  0  0
M  END
>  <minimizedAffinity>
-4.5086751

$$$$

 OpenBabel03242513473D

 26 28  0  0  1  0  0  0  0  0999 V2000
   36.8040   27.5760   42.9380 C   0  0  1  0  0  0  0  0  0  0  0  0
   38.1450   27.7760   43.6790 C   0  0  0  0  0  0  0  0  0  0  0  0
   37.4630   28.8610   42.9480 C   0  0  1  0  0  0  0  0  0  0  0  0
   35.9930   27.3420   43.6580 H   0  0  0  0  0  0  0  0  0  0  0  0
   39.0060   27.2370   43.3040 H   0  0  0  0  0  0  0  0  0  0  0  0
   38.1090   27.7530   44.8080 H   0  0  0  0  0  0  0  0  0  0  0  0
   36.9430   29.6710   43.5510 H   0  0  0  0  0  0  0  0  0  0  0  0
   38.1730   29.3940   41.8060 N   0  0  0  0  0  0  0  0  0  0  0  0
   39.4060   29.1100   41.3500 C   0  0  0  0  0  3  0  0  0  0  0  0
   39.9450   29.7070   40.2370 C   0  0  0  0  0  0  0  0  0  0  0  0
   40.9550   29.4090   39.9470 H   0  0  0  0  0  0  0  0  0  0  0  0
   39.2540   30.6350   39.5140 C   0  0  0  0  0  0  0  0  0  0  0  0
   39.8050   31.1330   38.5180 O   0  0  0  0  0  0  0  0  0  0  0  0
   38.0240   30.9330   39.9500 N   0  0  0  0  0  0  0  0  0  0  0  0
   37.5370   30.3230   41.0450 C   0  0  0  0  0  0  0  0  0  0  0  0
   36.3540   30.6750   41.3810 O   0  0  0  0  0  0  0  0  0  0  0  0
   37.4640   31.6340   39.4310 H   0  0  0  0  0  0  0  0  0  0  0  0
   36.8900   26.6160   41.8180 C   0  0  0  0  0  0  0  0  0  0  0  0
   37.2470   25.2680   42.1240 C   0  0  0  0  0  0  0  0  0  0  0  0
   37.3230   24.3450   41.0820 C   0  0  0  0  0  0  0  0  0  0  0  0
   37.0450   24.7990   39.8180 N   0  0  0  0  0  0  0  0  0  0  0  0
   36.7090   26.0860   39.5710 C   0  0  0  0  0  0  0  0  0  0  0  0
   36.6320   26.9920   40.5680 N   0  0  0  0  0  0  0  0  0  0  0  0
   37.4630   24.9140   43.1050 H   0  0  0  0  0  0  0  0  0  0  0  0
   37.5870   23.3090   41.2260 H   0  0  0  0  0  0  0  0  0  0  0  0
   36.4990   26.3890   38.5410 H   0  0  0  0  0  0  0  0  0  0  0  0
  1  3  1  0  0  0  0
  1  4  1  1  0  0  0
  1  2  1  0  0  0  0
  2  6  1  0  0  0  0
  3  7  1  1  0  0  0
  3  2  1  0  0  0  0
  5  2  1  0  0  0  0
  8  3  1  0  0  0  0
  9  8  1  0  0  0  0
 10  9  2  0  0  0  0
 11 10  1  0  0  0  0
 12 14  1  0  0  0  0
 12 10  1  0  0  0  0
 13 12  2  0  0  0  0
 14 15  1  0  0  0  0
 15 16  2  0  0  0  0
 15  8  1  0  0  0  0
 17 14  1  0  0  0  0
 18 19  1  0  0  0  0
 18  1  1  0  0  0  0
 19 24  1  0  0  0  0
 20 25  1  0  0  0  0
 20 19  2  0  0  0  0
 21 20  1  0  0  0  0
 22 21  2  0  0  0  0
 22 23  1  0  0  0  0
 23 18  2  0  0  0  0
 26 22  1  0  0  0  0
M  END
>  <minimizedAffinity>
-4.40048361

$$$$

 OpenBabel03242513473D

 26 28  0  0  1  0  0  0  0  0999 V2000
   38.9330   28.4890   42.9310 C   0  0  1  0  0  0  0  0  0  0  0  0
   37.5120   28.3110   43.5150 C   0  0  0  0  0  0  0  0  0  0  0  0
   38.5250   27.2380   43.5270 C   0  0  1  0  0  0  0  0  0  0  0  0
   39.5000   29.2430   43.5140 H   0  0  0  0  0  0  0  0  0  0  0  0
   36.6810   28.3550   42.8230 H   0  0  0  0  0  0  0  0  0  0  0  0
   37.2820   28.8730   44.4680 H   0  0  0  0  0  0  0  0  0  0  0  0
   39.0260   26.9820   44.5140 H   0  0  0  0  0  0  0  0  0  0  0  0
   38.2040   26.0610   42.7500 N   0  0  0  0  0  0  0  0  0  0  0  0
   37.1180   25.7920   42.0040 C   0  0  0  0  0  3  0  0  0  0  0  0
   36.9590   24.6140   41.3160 C   0  0  0  0  0  0  0  0  0  0  0  0
   36.0400   24.4900   40.7390 H   0  0  0  0  0  0  0  0  0  0  0  0
   37.9050   23.6310   41.3460 C   0  0  0  0  0  0  0  0  0  0  0  0
   37.6930   22.5920   40.6990 O   0  0  0  0  0  0  0  0  0  0  0  0
   38.9950   23.8790   42.0830 N   0  0  0  0  0  0  0  0  0  0  0  0
   39.1080   25.0460   42.7390 C   0  0  0  0  0  0  0  0  0  0  0  0
   40.1850   25.1860   43.4140 O   0  0  0  0  0  0  0  0  0  0  0  0
   39.7390   23.1580   42.1330 H   0  0  0  0  0  0  0  0  0  0  0  0
   38.9410   28.7430   41.4750 C   0  0  0  0  0  0  0  0  0  0  0  0
   40.0670   28.2840   40.7260 C   0  0  0  0  0  0  0  0  0  0  0  0
   40.0880   28.5050   39.3500 C   0  0  0  0  0  0  0  0  0  0  0  0
   39.0120   29.1550   38.8010 N   0  0  0  0  0  0  0  0  0  0  0  0
   37.9630   29.5730   39.5470 C   0  0  0  0  0  0  0  0  0  0  0  0
   37.9290   29.3670   40.8800 N   0  0  0  0  0  0  0  0  0  0  0  0
   40.9020   27.7790   41.1520 H   0  0  0  0  0  0  0  0  0  0  0  0
   40.8990   28.1920   38.7120 H   0  0  0  0  0  0  0  0  0  0  0  0
   37.1350   30.0870   39.0520 H   0  0  0  0  0  0  0  0  0  0  0  0
  1  4  1  1  0  0  0
  1  2  1  0  0  0  0
  1  3  1  0  0  0  0
  2  3  1  0  0  0  0
  2  6  1  0  0  0  0
  3  7  1  1  0  0  0
  5  2  1  0  0  0  0
  8  3  1  0  0  0  0
  9  8  1  0  0  0  0
 10 12  1  0  0  0  0
 10  9  2  0  0  0  0
 11 10  1  0  0  0  0
 12 14  1  0  0  0  0
 13 12  2  0  0  0  0
 14 17  1  0  0  0  0
 14 15  1  0  0  0  0
 15  8  1  0  0  0  0
 15 16  2  0  0  0  0
 18  1  1  0  0  0  0
 19 24  1  0  0  0  0
 19 18  2  0  0  0  0
 20 19  1  0  0  0  0
 21 20  2  0  0  0  0
 21 22  1  0  0  0  0
 22 23  2  0  0  0  0
 23 18  1  0  0  0  0
 25 20  1  0  0  0  0
 26 22  1  0  0  0  0
M  END
>  <minimizedAffinity>
-4.39647341

$$$$

 OpenBabel03242513473D

 26 28  0  0  1  0  0  0  0  0999 V2000
   36.8730   25.2740   42.2800 C   0  0  1  0  0  0  0  0  0  0  0  0
   36.8400   24.6370   40.8710 C   0  0  0  0  0  0  0  0  0  0  0  0
   37.8850   24.3290   41.8670 C   0  0  1  0  0  0  0  0  0  0  0  0
   35.9940   24.9490   42.8730 H   0  0  0  0  0  0  0  0  0  0  0  0
   36.9830   25.2970   40.0240 H   0  0  0  0  0  0  0  0  0  0  0  0
   36.0180   23.8890   40.6720 H   0  0  0  0  0  0  0  0  0  0  0  0
   37.8500   23.3200   42.3870 H   0  0  0  0  0  0  0  0  0  0  0  0
   39.2310   24.7200   41.5090 N   0  0  0  0  0  0  0  0  0  0  0  0
   39.7310   25.0870   40.3160 C   0  0  0  0  0  3  0  0  0  0  0  0
   41.0480   25.4340   40.1360 C   0  0  0  0  0  0  0  0  0  0  0  0
   41.3580   25.7180   39.1280 H   0  0  0  0  0  0  0  0  0  0  0  0
   41.9400   25.4300   41.1680 C   0  0  0  0  0  0  0  0  0  0  0  0
   43.1150   25.7570   40.9300 O   0  0  0  0  0  0  0  0  0  0  0  0
   41.4620   25.0680   42.3650 N   0  0  0  0  0  0  0  0  0  0  0  0
   40.1660   24.7360   42.4950 C   0  0  0  0  0  0  0  0  0  0  0  0
   39.8070   24.4050   43.6770 O   0  0  0  0  0  0  0  0  0  0  0  0
   42.1060   25.0510   43.1770 H   0  0  0  0  0  0  0  0  0  0  0  0
   37.0580   26.7400   42.2580 C   0  0  0  0  0  0  0  0  0  0  0  0
   37.6400   27.3540   43.4090 C   0  0  0  0  0  0  0  0  0  0  0  0
   37.8320   28.7340   43.4030 C   0  0  0  0  0  0  0  0  0  0  0  0
   37.4460   29.4180   42.2780 N   0  0  0  0  0  0  0  0  0  0  0  0
   36.8990   28.7970   41.2070 C   0  0  0  0  0  0  0  0  0  0  0  0
   36.7060   27.4610   41.1980 N   0  0  0  0  0  0  0  0  0  0  0  0
   37.9390   26.8240   44.2820 H   0  0  0  0  0  0  0  0  0  0  0  0
   38.2630   29.2770   44.2300 H   0  0  0  0  0  0  0  0  0  0  0  0
   36.6110   29.3960   40.3390 H   0  0  0  0  0  0  0  0  0  0  0  0
  1  4  1  1  0  0  0
  2  3  1  0  0  0  0
  2  1  1  0  0  0  0
  3  1  1  0  0  0  0
  3  7  1  1  0  0  0
  5  2  1  0  0  0  0
  6  2  1  0  0  0  0
  8  3  1  0  0  0  0
  8 15  1  0  0  0  0
  9  8  1  0  0  0  0
 10  9  2  0  0  0  0
 10 12  1  0  0  0  0
 11 10  1  0  0  0  0
 12 14  1  0  0  0  0
 13 12  2  0  0  0  0
 14 15  1  0  0  0  0
 14 17  1  0  0  0  0
 15 16  2  0  0  0  0
 18  1  1  0  0  0  0
 18 19  1  0  0  0  0
 19 24  1  0  0  0  0
 20 19  2  0  0  0  0
 20 25  1  0  0  0  0
 21 20  1  0  0  0  0
 22 21  2  0  0  0  0
 23 22  1  0  0  0  0
 23 18  2  0  0  0  0
 26 22  1  0  0  0  0
M  END
>  <minimizedAffinity>
-4.3900609

$$$$

 OpenBabel03242513473D

 26 28  0  0  1  0  0  0  0  0999 V2000
   37.5660   28.4420   43.3590 C   0  0  1  0  0  0  0  0  0  0  0  0
   38.6160   29.5390   43.0700 C   0  0  0  0  0  0  0  0  0  0  0  0
   37.3550   29.4160   42.3130 C   0  0  1  0  0  0  0  0  0  0  0  0
   37.1270   28.5810   44.3680 H   0  0  0  0  0  0  0  0  0  0  0  0
   39.5820   29.2180   42.7000 H   0  0  0  0  0  0  0  0  0  0  0  0
   38.7260   30.3530   43.8460 H   0  0  0  0  0  0  0  0  0  0  0  0
   36.5330   30.1730   42.5110 H   0  0  0  0  0  0  0  0  0  0  0  0
   37.4930   29.1060   40.9070 N   0  0  0  0  0  0  0  0  0  0  0  0
   38.6020   29.0150   40.1510 C   0  0  0  0  0  3  0  0  0  0  0  0
   38.5680   28.7070   38.8130 C   0  0  0  0  0  0  0  0  0  0  0  0
   39.5230   28.6570   38.2850 H   0  0  0  0  0  0  0  0  0  0  0  0
   37.3940   28.4700   38.1590 C   0  0  0  0  0  0  0  0  0  0  0  0
   37.4400   28.1960   36.9490 O   0  0  0  0  0  0  0  0  0  0  0  0
   36.2780   28.5550   38.8940 N   0  0  0  0  0  0  0  0  0  0  0  0
   36.3590   28.8590   40.2010 C   0  0  0  0  0  0  0  0  0  0  0  0
   35.2380   28.9160   40.8140 O   0  0  0  0  0  0  0  0  0  0  0  0
   35.3630   28.3820   38.4370 H   0  0  0  0  0  0  0  0  0  0  0  0
   38.0670   27.0720   43.1200 C   0  0  0  0  0  0  0  0  0  0  0  0
   37.2020   26.1560   42.4460 C   0  0  0  0  0  0  0  0  0  0  0  0
   37.6610   24.8630   42.2020 C   0  0  0  0  0  0  0  0  0  0  0  0
   38.9270   24.5540   42.6300 N   0  0  0  0  0  0  0  0  0  0  0  0
   39.7150   25.4520   43.2650 C   0  0  0  0  0  0  0  0  0  0  0  0
   39.2850   26.7080   43.5090 N   0  0  0  0  0  0  0  0  0  0  0  0
   36.2200   26.3960   42.1140 H   0  0  0  0  0  0  0  0  0  0  0  0
   37.0730   24.1100   41.7010 H   0  0  0  0  0  0  0  0  0  0  0  0
   40.7150   25.1460   43.5830 H   0  0  0  0  0  0  0  0  0  0  0  0
  1  4  1  1  0  0  0
  2  1  1  0  0  0  0
  2  6  1  0  0  0  0
  3  7  1  1  0  0  0
  3  2  1  0  0  0  0
  3  1  1  0  0  0  0
  5  2  1  0  0  0  0
  8  3  1  0  0  0  0
  9  8  1  0  0  0  0
 10  9  2  0  0  0  0
 11 10  1  0  0  0  0
 12 10  1  0  0  0  0
 12 14  1  0  0  0  0
 13 12  2  0  0  0  0
 14 15  1  0  0  0  0
 15 16  2  0  0  0  0
 15  8  1  0  0  0  0
 17 14  1  0  0  0  0
 18  1  1  0  0  0  0
 18 23  1  0  0  0  0
 19 18  2  0  0  0  0
 20 19  1  0  0  0  0
 20 21  2  0  0  0  0
 21 22  1  0  0  0  0
 22 23  2  0  0  0  0
 22 26  1  0  0  0  0
 24 19  1  0  0  0  0
 25 20  1  0  0  0  0
M  END
>  <minimizedAffinity>
-4.38133192

$$$$

 OpenBabel03242513473D

 26 28  0  0  1  0  0  0  0  0999 V2000
   35.6160   29.0440   40.1120 C   0  0  1  0  0  0  0  0  0  0  0  0
   36.1020   27.7720   39.3790 C   0  0  0  0  0  0  0  0  0  0  0  0
   36.2180   27.9500   40.8390 C   0  0  1  0  0  0  0  0  0  0  0  0
   34.5130   29.1400   40.0320 H   0  0  0  0  0  0  0  0  0  0  0  0
   36.9250   27.8820   38.6850 H   0  0  0  0  0  0  0  0  0  0  0  0
   35.3030   27.0910   38.9610 H   0  0  0  0  0  0  0  0  0  0  0  0
   35.5140   27.3650   41.5100 H   0  0  0  0  0  0  0  0  0  0  0  0
   37.5660   27.9980   41.3620 N   0  0  0  0  0  0  0  0  0  0  0  0
   38.7380   28.0930   40.7100 C   0  0  0  0  0  3  0  0  0  0  0  0
   39.9500   28.1280   41.3570 C   0  0  0  0  0  0  0  0  0  0  0  0
   40.8470   28.2060   40.7390 H   0  0  0  0  0  0  0  0  0  0  0  0
   40.0400   28.0710   42.7170 C   0  0  0  0  0  0  0  0  0  0  0  0
   41.1690   28.1080   43.2330 O   0  0  0  0  0  0  0  0  0  0  0  0
   38.8840   27.9770   43.3860 N   0  0  0  0  0  0  0  0  0  0  0  0
   37.7220   27.9460   42.7110 C   0  0  0  0  0  0  0  0  0  0  0  0
   36.6740   27.8550   43.4390 O   0  0  0  0  0  0  0  0  0  0  0  0
   38.9070   27.9310   44.4220 H   0  0  0  0  0  0  0  0  0  0  0  0
   36.3430   30.2660   39.7120 C   0  0  0  0  0  0  0  0  0  0  0  0
   36.6650   31.2120   40.7320 C   0  0  0  0  0  0  0  0  0  0  0  0
   37.3600   32.3660   40.3760 C   0  0  0  0  0  0  0  0  0  0  0  0
   37.6930   32.5170   39.0530 N   0  0  0  0  0  0  0  0  0  0  0  0
   37.3690   31.5950   38.1170 C   0  0  0  0  0  0  0  0  0  0  0  0
   36.6960   30.4730   38.4470 N   0  0  0  0  0  0  0  0  0  0  0  0
   36.4070   31.0960   41.7580 H   0  0  0  0  0  0  0  0  0  0  0  0
   37.6420   33.1310   41.0830 H   0  0  0  0  0  0  0  0  0  0  0  0
   37.6620   31.7720   37.0790 H   0  0  0  0  0  0  0  0  0  0  0  0
  1  4  1  1  0  0  0
  1  3  1  0  0  0  0
  2  1  1  0  0  0  0
  2  3  1  0  0  0  0
  3  8  1  0  0  0  0
  3  7  1  1  0  0  0
  5  2  1  0  0  0  0
  6  2  1  0  0  0  0
  8 15  1  0  0  0  0
  9 10  2  0  0  0  0
  9  8  1  0  0  0  0
 10 12  1  0  0  0  0
 11 10  1  0  0  0  0
 12 13  2  0  0  0  0
 12 14  1  0  0  0  0
 14 17  1  0  0  0  0
 15 14  1  0  0  0  0
 15 16  2  0  0  0  0
 18  1  1  0  0  0  0
 18 19  1  0  0  0  0
 19 24  1  0  0  0  0
 20 19  2  0  0  0  0
 20 25  1  0  0  0  0
 21 20  1  0  0  0  0
 22 23  1  0  0  0  0
 22 21  2  0  0  0  0
 23 18  2  0  0  0  0
 26 22  1  0  0  0  0
M  END
>  <minimizedAffinity>
-4.38084888

$$$$
