
 OpenBabel03252504043D

 20 21  0  0  0  0  0  0  0  0999 V2000
   44.9600   35.1180   44.7580 C   0  0  0  0  0  0  0  0  0  0  0  0
   45.7950   33.9700   44.7670 C   0  0  0  0  0  0  0  0  0  0  0  0
   45.8460   33.2450   45.9630 C   0  0  0  0  0  0  0  0  0  0  0  0
   45.1270   33.6440   47.0290 N   0  0  0  0  0  0  0  0  0  0  0  0
   44.3350   34.7580   46.9780 C   0  0  0  0  0  0  0  0  0  0  0  0
   44.2680   35.4720   45.8380 N   0  0  0  0  0  0  0  0  0  0  0  0
   44.9410   35.6580   43.8200 H   0  0  0  0  0  0  0  0  0  0  0  0
   43.7750   35.0360   47.8670 H   0  0  0  0  0  0  0  0  0  0  0  0
   46.6840   32.0920   45.9730 N   0  0  0  0  0  0  0  0  0  0  0  0
   46.6500   31.4070   44.7940 C   0  0  0  0  0  3  0  0  0  0  0  0
   47.3990   30.2710   44.6320 C   0  0  0  0  0  0  0  0  0  0  0  0
   47.4090   29.6830   43.7090 H   0  0  0  0  0  0  0  0  0  0  0  0
   48.1970   29.7990   45.6520 C   0  0  0  0  0  0  0  0  0  0  0  0
   48.9150   28.7490   45.5600 O   0  0  0  0  0  0  0  0  0  0  0  0
   48.1920   30.5230   46.8070 N   0  0  0  0  0  0  0  0  0  0  0  0
   47.4550   31.6400   46.9650 C   0  0  0  0  0  0  0  0  0  0  0  0
   47.4230   32.3260   47.9980 O   0  0  0  0  0  0  0  0  0  0  0  0
   48.7740   30.2060   47.5940 H   0  0  0  0  0  0  0  0  0  0  0  0
   46.5290   33.5640   43.6760 O   0  0  0  0  0  0  0  0  0  0  0  0
   46.7800   34.2070   42.9520 H   0  0  0  0  0  0  0  0  0  0  0  0
  1  2  2  0  0  0  0
  1  6  1  0  0  0  0
  2  3  1  0  0  0  0
  3  9  1  0  0  0  0
  3  4  2  0  0  0  0
  5  4  1  0  0  0  0
  5  8  1  0  0  0  0
  6  5  2  0  0  0  0
  7  1  1  0  0  0  0
  9 16  1  0  0  0  0
 10  9  1  0  0  0  0
 11 10  2  0  0  0  0
 11 13  1  0  0  0  0
 12 11  1  0  0  0  0
 13 15  1  0  0  0  0
 14 13  2  0  0  0  0
 15 16  1  0  0  0  0
 15 18  1  0  0  0  0
 16 17  2  0  0  0  0
 19  2  1  0  0  0  0
 20 19  1  0  0  0  0
M  END
>  <minimizedAffinity>
-2.57052159

>  <minimizedRMSD>
5.83474684

$$$$
