
 OpenBabel03252508463D

 46 48  0  0  0  0  0  0  0  0999 V2000
   42.1610   31.8830   42.4980 N   0  0  0  0  0  0  0  0  0  0  0  0
   42.4180   30.9110   42.7810 H   0  0  0  0  0  0  0  0  0  0  0  0
   43.0370   32.5070   41.5620 C   0  0  0  0  0  0  0  0  0  0  0  0
   43.7380   31.7490   41.1050 H   0  0  0  0  0  0  0  0  0  0  0  0
   42.4280   32.9060   40.7320 H   0  0  0  0  0  0  0  0  0  0  0  0
   43.6690   34.9210   41.8000 C   0  0  0  0  0  0  0  0  0  0  0  0
   43.8920   33.5860   42.1290 C   0  0  0  0  0  0  0  0  0  0  0  0
   44.9240   33.2880   42.9950 C   0  0  0  0  0  0  0  0  0  0  0  0
   45.6980   34.2980   43.5040 C   0  0  0  0  0  0  0  0  0  0  0  0
   45.5000   35.6140   43.1980 C   0  0  0  0  0  0  0  0  0  0  0  0
   44.4560   35.8630   42.3290 C   0  0  0  0  0  0  0  0  0  0  0  0
   45.1340   32.2650   43.2770 H   0  0  0  0  0  0  0  0  0  0  0  0
   46.5130   34.0450   44.1890 H   0  0  0  0  0  0  0  0  0  0  0  0
   46.0810   36.4430   43.5720 H   0  0  0  0  0  0  0  0  0  0  0  0
   44.2200   36.8860   42.0250 H   0  0  0  0  0  0  0  0  0  0  0  0
   40.3440   35.8730   40.2870 C   0  0  0  0  0  0  0  0  0  0  0  0
   41.3310   35.6640   41.2570 C   0  0  0  0  0  0  0  0  0  0  0  0
   42.5650   35.1780   40.8830 C   0  0  0  0  0  0  0  0  0  0  0  0
   42.7430   34.9260   39.5530 N   0  0  0  0  0  0  0  0  0  0  0  0
   41.7860   35.1310   38.6220 C   0  0  0  0  0  0  0  0  0  0  0  0
   40.5890   35.6060   39.0040 N   0  0  0  0  0  0  0  0  0  0  0  0
   39.3760   36.2560   40.5850 H   0  0  0  0  0  0  0  0  0  0  0  0
   41.1740   35.8670   42.2880 H   0  0  0  0  0  0  0  0  0  0  0  0
   42.1210   34.8690   37.6130 H   0  0  0  0  0  0  0  0  0  0  0  0
   40.5220   31.9120   41.9870 S   0  0  0  0  0  0  0  0  0  0  0  0
   39.7870   33.0830   42.5970 O   0  0  0  0  0  0  0  0  0  0  0  0
   38.9380   33.0430   43.1000 H   0  0  0  0  0  0  0  0  0  0  0  0
   39.8360   30.6350   42.3240 O   0  0  0  0  0  0  0  0  0  0  0  0
   40.2700   29.7330   42.1970 H   0  0  0  0  0  0  0  0  0  0  0  0
   40.5150   32.1010   40.3160 O   0  0  0  0  0  0  0  0  0  0  0  0
   39.5500   31.2440   39.7950 C   0  0  0  0  0  0  0  0  0  0  0  0
   38.9840   31.8320   39.0230 H   0  0  0  0  0  0  0  0  0  0  0  0
   38.8490   30.8380   40.5170 H   0  0  0  0  0  0  0  0  0  0  0  0
   40.2590   30.1240   39.0080 C   0  0  0  0  0  0  0  0  0  0  0  0
   41.2460   30.5040   38.6780 H   0  0  0  0  0  0  0  0  0  0  0  0
   40.4370   29.2670   39.6680 H   0  0  0  0  0  0  0  0  0  0  0  0
   39.4130   29.7340   37.9010 N   0  0  0  0  0  0  0  0  0  0  0  0
   39.2800   30.5600   36.8370 C   0  0  0  0  0  3  0  0  0  0  0  0
   38.4560   30.1350   35.8030 C   0  0  0  0  0  0  0  0  0  0  0  0
   38.3110   30.7670   34.9140 H   0  0  0  0  0  0  0  0  0  0  0  0
   37.8230   28.9140   35.9050 C   0  0  0  0  0  0  0  0  0  0  0  0
   37.0580   28.4810   34.9830 O   0  0  0  0  0  0  0  0  0  0  0  0
   37.9920   28.1250   36.9950 N   0  0  0  0  0  0  0  0  0  0  0  0
   38.7900   28.5430   37.9900 C   0  0  0  0  0  0  0  0  0  0  0  0
   38.9520   27.8010   39.0180 O   0  0  0  0  0  0  0  0  0  0  0  0
   37.5310   27.1960   37.1070 H   0  0  0  0  0  0  0  0  0  0  0  0
  1  2  1  0  0  0  0
  3  7  1  0  0  0  0
  3  1  1  0  0  0  0
  4  3  1  0  0  0  0
  5  3  1  0  0  0  0
  6  7  2  0  0  0  0
  6 11  1  0  0  0  0
  7  8  1  0  0  0  0
  8 12  1  0  0  0  0
  8  9  2  0  0  0  0
  9 13  1  0  0  0  0
 10  9  1  0  0  0  0
 10 14  1  0  0  0  0
 11 10  2  0  0  0  0
 15 11  1  0  0  0  0
 16 22  1  0  0  0  0
 16 17  1  0  0  0  0
 17 23  1  0  0  0  0
 18 17  2  0  0  0  0
 18  6  1  0  0  0  0
 19 18  1  0  0  0  0
 20 21  1  0  0  0  0
 20 19  2  0  0  0  0
 21 16  2  0  0  0  0
 24 20  1  0  0  0  0
 25 28  1  0  0  0  0
 25  1  1  0  0  0  0
 25 26  1  0  0  0  0
 26 27  1  0  0  0  0
 29 28  1  0  0  0  0
 30 25  1  0  0  0  0
 31 30  1  0  0  0  0
 31 33  1  0  0  0  0
 32 31  1  0  0  0  0
 34 36  1  0  0  0  0
 34 31  1  0  0  0  0
 35 34  1  0  0  0  0
 37 44  1  0  0  0  0
 37 34  1  0  0  0  0
 38 37  1  0  0  0  0
 39 41  1  0  0  0  0
 39 38  2  0  0  0  0
 40 39  1  0  0  0  0
 41 43  1  0  0  0  0
 42 41  2  0  0  0  0
 43 46  1  0  0  0  0
 43 44  1  0  0  0  0
 44 45  2  0  0  0  0
M  END
>  <minimizedAffinity>
-5.215487

>  <minimizedRMSD>
2.20361209

$$$$
