
 OpenBabel03252504003D

 35 38  0  0  1  0  0  0  0  0999 V2000
   47.4980   34.7870   42.5480 C   0  0  0  0  0  0  0  0  0  0  0  0
   46.3260   35.2920   41.9760 C   0  0  0  0  0  0  0  0  0  0  0  0
   45.1280   34.9690   42.5850 C   0  0  0  0  0  0  0  0  0  0  0  0
   45.1390   34.1920   43.6930 N   0  0  0  0  0  0  0  0  0  0  0  0
   46.2820   33.7210   44.2220 C   0  0  0  0  0  0  0  0  0  0  0  0
   47.4720   34.0200   43.6470 N   0  0  0  0  0  0  0  0  0  0  0  0
   46.3310   35.9100   41.0930 H   0  0  0  0  0  0  0  0  0  0  0  0
   44.2180   35.3570   42.1460 H   0  0  0  0  0  0  0  0  0  0  0  0
   47.1350   31.7660   45.4200 C   0  0  0  0  0  0  0  0  0  0  0  0
   46.3060   32.8780   45.4220 C   0  0  0  0  0  0  0  0  0  0  0  0
   45.5300   33.1750   46.5350 C   0  0  0  0  0  0  0  0  0  0  0  0
   45.5880   32.3520   47.6400 C   0  0  0  0  0  0  0  0  0  0  0  0
   44.9900   32.3590   48.8310 N   0  0  0  0  0  0  0  0  0  0  0  0
   45.4050   31.3050   49.5690 C   0  0  0  0  0  0  0  0  0  0  0  0
   46.3100   30.5690   48.8530 C   0  0  0  0  0  0  0  0  0  0  0  0
   46.4260   31.2250   47.6410 C   0  0  0  0  0  0  0  0  0  0  0  0
   47.1990   30.9380   46.5220 C   0  0  0  0  0  0  0  0  0  0  0  0
   47.7160   31.5640   44.5560 H   0  0  0  0  0  0  0  0  0  0  0  0
   44.9010   34.0420   46.5020 H   0  0  0  0  0  0  0  0  0  0  0  0
   44.3020   33.0750   49.1410 H   0  0  0  0  0  0  0  0  0  0  0  0
   45.1230   31.0090   50.5770 H   0  0  0  0  0  0  0  0  0  0  0  0
   46.8250   29.6740   49.1520 H   0  0  0  0  0  0  0  0  0  0  0  0
   47.8620   30.0850   46.4640 H   0  0  0  0  0  0  0  0  0  0  0  0
   48.7300   35.1460   41.8820 C   0  0  1  0  0  0  0  0  0  0  0  0
   49.0290   36.3510   41.5450 O   0  0  0  0  0  0  0  0  0  0  0  0
   52.2070   32.3060   42.7680 H   0  0  0  0  0  0  0  0  0  0  0  0
   51.4030   32.5570   42.1800 N   0  0  0  0  0  0  0  0  0  0  0  0
   50.6550   33.6470   42.4400 C   0  0  0  0  0  0  0  0  0  0  0  0
   49.5860   33.9630   41.6450 C   0  0  0  0  0  0  0  0  0  0  0  0
   49.2480   33.1720   40.5570 C   0  0  0  0  0  0  0  0  0  0  0  0
   48.2910   33.3680   39.7620 O   0  0  0  0  0  0  0  0  0  0  0  0
   50.0550   32.1070   40.3810 N   0  0  0  0  0  0  0  0  0  0  0  0
   51.1130   31.7450   41.1220 C   0  0  0  0  0  0  0  0  0  0  0  0
   51.7800   30.7190   40.8390 O   0  0  0  0  0  0  0  0  0  0  0  0
   49.8380   31.4770   39.5670 H   0  0  0  0  0  0  0  0  0  0  0  0
  1  6  1  0  0  0  0
  2  1  2  0  0  0  0
  2  3  1  0  0  0  0
  3  4  2  0  0  0  0
  4  5  1  0  0  0  0
  5 10  1  0  0  0  0
  6  5  2  0  0  0  0
  7  2  1  0  0  0  0
  8  3  1  0  0  0  0
  9 10  2  0  0  0  0
  9 17  1  0  0  0  0
 10 11  1  0  0  0  0
 11 12  2  0  0  0  0
 12 16  1  0  0  0  0
 12 13  1  0  0  0  0
 13 20  1  0  0  0  0
 13 14  1  0  0  0  0
 14 21  1  0  0  0  0
 15 22  1  0  0  0  0
 15 14  2  0  0  0  0
 16 15  1  0  0  0  0
 17 16  2  0  0  0  0
 18  9  1  0  0  0  0
 19 11  1  0  0  0  0
 23 17  1  0  0  0  0
 24 25  1  1  0  0  0
 24  1  1  0  0  0  0
 27 28  1  0  0  0  0
 27 26  1  0  0  0  0
 29 24  1  0  0  0  0
 29 28  2  0  0  0  0
 30 29  1  0  0  0  0
 31 30  2  0  0  0  0
 32 30  1  0  0  0  0
 32 33  1  0  0  0  0
 33 27  1  0  0  0  0
 34 33  2  0  0  0  0
 35 32  1  0  0  0  0
M  END
>  <minimizedAffinity>
-6.69708014

>  <minimizedRMSD>
2.11511302

$$$$
