
 OpenBabel03242519473D

 39 41  0  0  1  0  0  0  0  0999 V2000
   46.5580   32.5600   46.5870 C   0  0  2  0  0  0  0  0  0  0  0  0
   47.1390   32.6420   45.2320 C   0  0  1  0  0  0  0  0  0  0  0  0
   46.8680   31.3170   44.6540 O   0  0  0  0  0  0  0  0  0  0  0  0
   47.4800   30.5910   45.7130 C   0  0  0  0  0  0  0  0  0  0  0  0
   46.5920   31.0700   46.8940 C   0  0  2  0  0  0  0  0  0  0  0  0
   47.0980   33.1540   47.3250 H   0  0  0  0  0  0  0  0  0  0  0  0
   48.2640   32.7000   45.3070 H   0  0  0  0  0  0  0  0  0  0  0  0
   47.5290   29.5390   45.5900 H   0  0  0  0  0  0  0  0  0  0  0  0
   48.5020   31.0390   45.9030 H   0  0  0  0  0  0  0  0  0  0  0  0
   47.1080   30.7960   47.8260 H   0  0  0  0  0  0  0  0  0  0  0  0
   44.8470   35.2200   44.0780 C   0  0  0  0  0  0  0  0  0  0  0  0
   45.4420   35.6890   42.8960 C   0  0  0  0  0  0  0  0  0  0  0  0
   46.6490   35.1130   42.4700 C   0  0  0  0  0  0  0  0  0  0  0  0
   47.1920   34.1160   43.2300 N   0  0  0  0  0  0  0  0  0  0  0  0
   46.5970   33.6850   44.3640 C   0  0  0  0  0  0  0  0  0  0  0  0
   45.4290   34.2270   44.7940 N   0  0  0  0  0  0  0  0  0  0  0  0
   44.9790   36.4730   42.3330 H   0  0  0  0  0  0  0  0  0  0  0  0
   47.1440   35.4400   41.5670 H   0  0  0  0  0  0  0  0  0  0  0  0
   43.6510   35.7690   44.5350 O   0  0  0  0  0  0  0  0  0  0  0  0
   43.7290   36.7200   44.9030 H   0  0  0  0  0  0  0  0  0  0  0  0
   45.1760   32.9600   46.5380 O   0  0  0  0  0  0  0  0  0  0  0  0
   44.6610   32.2170   46.1330 H   0  0  0  0  0  0  0  0  0  0  0  0
   45.3530   30.4780   46.7150 O   0  0  0  0  0  0  0  0  0  0  0  0
   45.1880   29.2930   47.3970 C   0  0  0  0  0  0  0  0  0  0  0  0
   45.6440   29.2820   48.3830 H   0  0  0  0  0  0  0  0  0  0  0  0
   44.0340   29.3900   47.7090 H   0  0  0  0  0  0  0  0  0  0  0  0
   45.1740   28.0690   46.5680 C   0  0  0  0  0  0  0  0  0  0  0  0
   45.5780   28.2110   45.5390 H   0  0  0  0  0  0  0  0  0  0  0  0
   45.8530   27.3300   47.0460 H   0  0  0  0  0  0  0  0  0  0  0  0
   43.8560   27.5030   46.3780 N   0  0  0  0  0  0  0  0  0  0  0  0
   43.6710   26.4240   47.2060 C   0  0  0  0  0  3  0  0  0  0  0  0
   42.5210   25.6630   47.2850 C   0  0  0  0  0  0  0  0  0  0  0  0
   42.3880   24.8170   47.9410 H   0  0  0  0  0  0  0  0  0  0  0  0
   41.4540   25.9860   46.4780 C   0  0  0  0  0  0  0  0  0  0  0  0
   40.3480   25.4110   46.4180 O   0  0  0  0  0  0  0  0  0  0  0  0
   41.6460   27.0360   45.6760 N   0  0  0  0  0  0  0  0  0  0  0  0
   42.7760   27.7340   45.6420 C   0  0  0  0  0  0  0  0  0  0  0  0
   42.9210   28.7130   44.8760 O   0  0  0  0  0  0  0  0  0  0  0  0
   40.9040   27.3680   45.0240 H   0  0  0  0  0  0  0  0  0  0  0  0
  1  5  1  0  0  0  0
  1  6  1  1  0  0  0
  2  7  1  1  0  0  0
  2  1  1  0  0  0  0
  3  2  1  0  0  0  0
  3  4  1  0  0  0  0
  4  9  1  0  0  0  0
  4  5  1  0  0  0  0
  5 10  1  1  0  0  0
  8  4  1  0  0  0  0
 11 19  1  0  0  0  0
 11 16  1  0  0  0  0
 12 11  2  0  0  0  0
 13 12  1  0  0  0  0
 13 14  2  0  0  0  0
 14 15  1  0  0  0  0
 15 16  2  0  0  0  0
 15  2  1  0  0  0  0
 17 12  1  0  0  0  0
 18 13  1  0  0  0  0
 19 20  1  0  0  0  0
 21  1  1  0  0  0  0
 22 21  1  0  0  0  0
 23  5  1  0  0  0  0
 23 24  1  0  0  0  0
 24 26  1  0  0  0  0
 24 25  1  0  0  0  0
 27 29  1  0  0  0  0
 27 24  1  0  0  0  0
 28 27  1  0  0  0  0
 30 27  1  0  0  0  0
 30 31  1  0  0  0  0
 31 32  2  0  0  0  0
 32 33  1  0  0  0  0
 34 32  1  0  0  0  0
 35 34  2  0  0  0  0
 36 34  1  0  0  0  0
 37 36  1  0  0  0  0
 37 30  1  0  0  0  0
 38 37  2  0  0  0  0
 39 36  1  0  0  0  0
M  END
>  <minimizedAffinity>
-5.66639757

>  <minimizedRMSD>
1.07884538

$$$$
