
 OpenBabel03252507463D

 38 40  0  0  0  0  0  0  0  0999 V2000
   47.0740   34.3000   40.8450 C   0  0  0  0  0  0  0  0  0  0  0  0
   47.1630   35.0090   40.0120 H   0  0  0  0  0  0  0  0  0  0  0  0
   46.4840   33.4380   40.4970 H   0  0  0  0  0  0  0  0  0  0  0  0
   48.4280   33.9090   41.2820 C   0  0  0  0  0  0  0  0  0  0  0  0
   48.8740   32.6640   40.8750 C   0  0  0  0  0  0  0  0  0  0  0  0
   50.1290   32.1930   41.2260 C   0  0  0  0  0  0  0  0  0  0  0  0
   50.9020   33.0310   41.9990 N   0  0  0  0  0  0  0  0  0  0  0  0
   50.4300   34.2350   42.3730 C   0  0  0  0  0  0  0  0  0  0  0  0
   49.2220   34.6630   42.0230 N   0  0  0  0  0  0  0  0  0  0  0  0
   50.4950   31.2340   40.9240 H   0  0  0  0  0  0  0  0  0  0  0  0
   51.0130   34.9220   42.9840 H   0  0  0  0  0  0  0  0  0  0  0  0
   47.8190   31.5940   39.8570 S   0  0  0  0  0  0  0  0  0  0  0  0
   47.0220   34.1140   35.7520 H   0  0  0  0  0  0  0  0  0  0  0  0
   47.6310   33.4110   36.2300 N   0  0  0  0  0  0  0  0  0  0  0  0
   47.2910   33.1060   37.4810 C   0  0  0  0  0  3  0  0  0  0  0  0
   48.0430   32.1920   38.1720 C   0  0  0  0  0  0  0  0  0  0  0  0
   49.1430   31.5980   37.5640 C   0  0  0  0  0  0  0  0  0  0  0  0
   49.9230   30.7370   38.0910 O   0  0  0  0  0  0  0  0  0  0  0  0
   49.4670   31.9290   36.2860 N   0  0  0  0  0  0  0  0  0  0  0  0
   48.7030   32.8360   35.6300 C   0  0  0  0  0  0  0  0  0  0  0  0
   48.9500   33.1830   34.4520 O   0  0  0  0  0  0  0  0  0  0  0  0
   50.2890   31.5010   35.7960 H   0  0  0  0  0  0  0  0  0  0  0  0
   46.2670   34.9500   41.9410 C   0  0  0  0  0  0  0  0  0  0  0  0
   46.5730   34.5370   42.9220 H   0  0  0  0  0  0  0  0  0  0  0  0
   46.5420   36.0360   41.9670 H   0  0  0  0  0  0  0  0  0  0  0  0
   44.8030   34.9190   41.7060 C   0  0  0  0  0  0  0  0  0  0  0  0
   43.9190   35.4370   42.7080 C   0  0  0  0  0  0  0  0  0  0  0  0
   42.2620   35.1820   41.9670 S   0  0  0  0  0  0  0  0  0  0  0  0
   43.0440   34.4130   40.4150 C   0  0  0  0  0  0  0  0  0  0  0  0
   44.1560   34.4700   40.6680 N   0  0  0  0  0  0  0  0  0  0  0  0
   44.1890   35.8680   43.6600 H   0  0  0  0  0  0  0  0  0  0  0  0
   42.2960   33.9510   39.3430 O   0  0  0  0  0  0  0  0  0  0  0  0
   40.3840   34.4350   37.5730 O   0  0  0  0  0  0  0  0  0  0  0  0
   41.4660   35.1140   38.4100 P   0  0  0  0  0  0  0  0  0  0  0  0
   40.7300   36.1980   39.4770 O   0  0  0  0  0  0  0  0  0  0  0  0
   40.2760   36.9050   38.9530 H   0  0  0  0  0  0  0  0  0  0  0  0
   42.5560   35.9450   37.4220 O   0  0  0  0  0  0  0  0  0  0  0  0
   42.6490   35.5120   36.5520 H   0  0  0  0  0  0  0  0  0  0  0  0
  1  4  1  0  0  0  0
  1 23  1  0  0  0  0
  2  1  1  0  0  0  0
  3  1  1  0  0  0  0
  4  9  1  0  0  0  0
  5  6  1  0  0  0  0
  5  4  2  0  0  0  0
  6  7  2  0  0  0  0
  7  8  1  0  0  0  0
  8 11  1  0  0  0  0
  9  8  2  0  0  0  0
 10  6  1  0  0  0  0
 12  5  1  0  0  0  0
 13 14  1  0  0  0  0
 14 15  1  0  0  0  0
 15 16  2  0  0  0  0
 16 12  1  0  0  0  0
 17 18  2  0  0  0  0
 17 16  1  0  0  0  0
 19 17  1  0  0  0  0
 20 14  1  0  0  0  0
 20 19  1  0  0  0  0
 21 20  2  0  0  0  0
 22 19  1  0  0  0  0
 23 25  1  0  0  0  0
 23 24  1  0  0  0  0
 26 23  1  0  0  0  0
 26 27  2  0  0  0  0
 27 31  1  0  0  0  0
 28 27  1  0  0  0  0
 29 30  2  0  0  0  0
 29 28  1  0  0  0  0
 30 26  1  0  0  0  0
 32 29  1  0  0  0  0
 33 34  2  0  0  0  0
 34 32  1  0  0  0  0
 34 35  1  0  0  0  0
 36 35  1  0  0  0  0
 37 34  1  0  0  0  0
 38 37  1  0  0  0  0
M  END
>  <minimizedAffinity>
-5.3304534

>  <minimizedRMSD>
0.345273972

$$$$
