
 OpenBabel03242518383D

 40 43  0  0  1  0  0  0  0  0999 V2000
   46.7860   33.2140   41.6640 O   0  0  0  0  0  0  0  0  0  0  0  0
   47.0000   33.4270   40.2780 C   0  0  0  0  0  0  0  0  0  0  0  0
   48.1000   33.9340   39.5770 C   0  0  0  0  0  0  0  0  0  0  0  0
   47.8000   33.9390   38.2260 C   0  0  0  0  0  0  0  0  0  0  0  0
   46.5390   33.4360   38.1680 C   0  0  0  0  0  0  0  0  0  0  0  0
   46.0730   33.1390   39.3660 O   0  0  0  0  0  0  0  0  0  0  0  0
   48.9850   34.2410   40.1090 H   0  0  0  0  0  0  0  0  0  0  0  0
   48.4740   34.2810   37.4530 H   0  0  0  0  0  0  0  0  0  0  0  0
   45.7660   33.2440   36.9220 C   0  0  2  0  0  0  0  0  0  0  0  0
   45.0290   32.0030   36.6840 C   0  0  0  0  0  0  0  0  0  0  0  0
   46.3440   32.1330   36.0070 C   0  0  1  0  0  0  0  0  0  0  0  0
   45.5130   34.1920   36.4240 H   0  0  0  0  0  0  0  0  0  0  0  0
   44.8800   31.2440   37.4860 H   0  0  0  0  0  0  0  0  0  0  0  0
   44.1060   32.1220   36.0470 H   0  0  0  0  0  0  0  0  0  0  0  0
   47.2310   31.6140   36.3590 H   0  0  0  0  0  0  0  0  0  0  0  0
   47.3680   32.1080   33.7440 C   0  0  0  0  0  0  0  0  0  0  0  0
   48.4060   31.5120   34.1550 O   0  0  0  0  0  0  0  0  0  0  0  0
   46.3010   32.4980   34.5930 N   0  0  0  0  0  0  0  0  0  0  0  0
   47.3760   32.2920   32.6780 H   0  0  0  0  0  0  0  0  0  0  0  0
   45.4930   33.0360   34.2210 H   0  0  0  0  0  0  0  0  0  0  0  0
   47.1560   34.2490   42.5720 C   0  0  0  0  0  0  0  0  0  0  0  0
   48.1470   34.9420   42.2620 O   0  0  0  0  0  0  0  0  0  0  0  0
   46.3380   34.3670   43.7360 C   0  0  0  0  0  0  0  0  0  0  0  0
   45.5050   35.4570   43.7650 C   0  0  0  0  0  0  0  0  0  0  0  0
   44.6800   35.6420   44.8610 C   0  0  0  0  0  0  0  0  0  0  0  0
   44.7290   34.7310   45.8640 N   0  0  0  0  0  0  0  0  0  0  0  0
   45.5510   33.6760   45.8090 C   0  0  0  0  0  0  0  0  0  0  0  0
   46.3430   33.5210   44.7330 N   0  0  0  0  0  0  0  0  0  0  0  0
   45.4070   36.2240   43.0110 H   0  0  0  0  0  0  0  0  0  0  0  0
   44.0010   36.4840   44.9400 H   0  0  0  0  0  0  0  0  0  0  0  0
   45.5600   32.7510   46.8940 N   0  0  0  0  0  0  0  0  0  0  0  0
   44.5290   31.9870   47.3090 C   0  0  0  0  0  3  0  0  0  0  0  0
   44.6740   31.1290   48.3800 C   0  0  0  0  0  0  0  0  0  0  0  0
   43.8260   30.5410   48.6720 H   0  0  0  0  0  0  0  0  0  0  0  0
   45.9170   31.1020   48.9860 C   0  0  0  0  0  0  0  0  0  0  0  0
   46.0650   30.3150   49.9760 O   0  0  0  0  0  0  0  0  0  0  0  0
   46.9320   31.8540   48.5800 N   0  0  0  0  0  0  0  0  0  0  0  0
   46.7570   32.6930   47.5170 C   0  0  0  0  0  0  0  0  0  0  0  0
   47.7820   33.3610   47.2120 O   0  0  0  0  0  0  0  0  0  0  0  0
   47.8450   31.7720   49.0990 H   0  0  0  0  0  0  0  0  0  0  0  0
  1 21  1  0  0  0  0
  2  1  1  0  0  0  0
  3  7  1  0  0  0  0
  3  2  2  0  0  0  0
  4  3  1  0  0  0  0
  5  4  2  0  0  0  0
  5  6  1  0  0  0  0
  6  2  1  0  0  0  0
  8  4  1  0  0  0  0
  9 12  1  6  0  0  0
  9  5  1  0  0  0  0
 10  9  1  0  0  0  0
 10 13  1  0  0  0  0
 11 15  1  1  0  0  0
 11 10  1  0  0  0  0
 11  9  1  0  0  0  0
 14 10  1  0  0  0  0
 16 17  2  0  0  0  0
 16 18  1  0  0  0  0
 18 11  1  0  0  0  0
 19 16  1  0  0  0  0
 20 18  1  0  0  0  0
 21 23  1  0  0  0  0
 22 21  2  0  0  0  0
 23 24  2  0  0  0  0
 23 28  1  0  0  0  0
 24 25  1  0  0  0  0
 25 30  1  0  0  0  0
 25 26  2  0  0  0  0
 27 26  1  0  0  0  0
 27 31  1  0  0  0  0
 28 27  2  0  0  0  0
 29 24  1  0  0  0  0
 31 32  1  0  0  0  0
 31 38  1  0  0  0  0
 32 33  2  0  0  0  0
 33 34  1  0  0  0  0
 33 35  1  0  0  0  0
 35 36  2  0  0  0  0
 37 35  1  0  0  0  0
 37 40  1  0  0  0  0
 38 37  1  0  0  0  0
 39 38  2  0  0  0  0
M  END
>  <minimizedAffinity>
-3.80266261

>  <minimizedRMSD>
0.84871918

$$$$
