
 OpenBabel03252503483D

 45 48  0  0  1  0  0  0  0  0999 V2000
   37.0190   25.7060   42.2930 C   0  0  0  0  0  0  0  0  0  0  0  0
   37.7380   25.4610   43.1120 H   0  0  0  0  0  0  0  0  0  0  0  0
   36.0270   25.6840   42.7880 H   0  0  0  0  0  0  0  0  0  0  0  0
   37.1830   24.6870   41.2510 C   0  0  0  0  0  0  0  0  0  0  0  0
   36.1540   24.1000   40.5490 C   0  0  0  0  0  0  0  0  0  0  0  0
   36.3600   23.1400   39.5850 C   0  0  0  0  0  0  0  0  0  0  0  0
   37.6620   22.7520   39.3170 C   0  0  0  0  0  0  0  0  0  0  0  0
   38.7150   23.3400   40.0220 C   0  0  0  0  0  0  0  0  0  0  0  0
   38.4820   24.3170   40.9970 C   0  0  0  0  0  0  0  0  0  0  0  0
   35.1780   24.4970   40.8590 H   0  0  0  0  0  0  0  0  0  0  0  0
   35.4730   22.7510   39.0990 H   0  0  0  0  0  0  0  0  0  0  0  0
   37.7140   21.9950   38.5480 H   0  0  0  0  0  0  0  0  0  0  0  0
   39.6390   22.8890   39.6530 H   0  0  0  0  0  0  0  0  0  0  0  0
   39.7670   24.6750   41.4710 N   0  0  0  0  0  0  0  0  0  0  0  0
   40.5820   25.2870   40.5570 C   0  0  0  0  0  3  0  0  0  0  0  0
   41.8800   25.7270   40.8360 C   0  0  0  0  0  0  0  0  0  0  0  0
   42.4590   26.2020   40.0560 H   0  0  0  0  0  0  0  0  0  0  0  0
   42.3190   25.5130   42.1060 C   0  0  0  0  0  0  0  0  0  0  0  0
   43.4860   25.8890   42.4190 O   0  0  0  0  0  0  0  0  0  0  0  0
   41.5380   24.9160   43.0180 N   0  0  0  0  0  0  0  0  0  0  0  0
   40.3200   24.5250   42.6870 C   0  0  0  0  0  0  0  0  0  0  0  0
   39.5910   23.9680   43.5450 O   0  0  0  0  0  0  0  0  0  0  0  0
   41.8750   24.7530   43.9870 H   0  0  0  0  0  0  0  0  0  0  0  0
   36.6340   27.5690   40.7030 C   0  0  0  0  0  0  0  0  0  0  0  0
   37.3380   27.0270   41.7730 C   0  0  0  0  0  0  0  0  0  0  0  0
   38.3570   27.8070   42.3200 C   0  0  0  0  0  0  0  0  0  0  0  0
   38.6430   29.0330   41.8340 N   0  0  0  0  0  0  0  0  0  0  0  0
   37.9320   29.5260   40.7880 C   0  0  0  0  0  0  0  0  0  0  0  0
   36.9330   28.8010   40.2250 N   0  0  0  0  0  0  0  0  0  0  0  0
   35.8540   26.9880   40.2720 H   0  0  0  0  0  0  0  0  0  0  0  0
   38.9730   27.4910   43.1210 H   0  0  0  0  0  0  0  0  0  0  0  0
   36.9890   31.6390   39.8770 C   0  0  2  0  0  0  0  0  0  0  0  0
   38.2690   30.8610   40.2950 C   0  0  1  0  0  0  0  0  0  0  0  0
   38.7520   31.7240   41.2200 O   0  0  0  0  0  0  0  0  0  0  0  0
   38.6910   32.9810   40.6990 C   0  0  0  0  0  0  0  0  0  0  0  0
   37.6790   32.9730   39.5640 C   0  0  2  0  0  0  0  0  0  0  0  0
   36.5470   31.1790   38.9870 H   0  0  0  0  0  0  0  0  0  0  0  0
   38.9300   30.7880   39.4020 H   0  0  0  0  0  0  0  0  0  0  0  0
   38.2980   33.6740   41.4750 H   0  0  0  0  0  0  0  0  0  0  0  0
   39.6650   33.3940   40.3800 H   0  0  0  0  0  0  0  0  0  0  0  0
   38.2670   32.9080   38.6230 H   0  0  0  0  0  0  0  0  0  0  0  0
   36.1910   31.8350   40.9410 O   0  0  0  0  0  0  0  0  0  0  0  0
   35.2490   31.9720   40.6320 H   0  0  0  0  0  0  0  0  0  0  0  0
   36.8120   34.0380   39.5820 O   0  0  0  0  0  0  0  0  0  0  0  0
   36.8940   34.5450   40.4080 H   0  0  0  0  0  0  0  0  0  0  0  0
  1  3  1  0  0  0  0
  1  2  1  0  0  0  0
  4  1  1  0  0  0  0
  5 10  1  0  0  0  0
  5  4  2  0  0  0  0
  6  5  1  0  0  0  0
  7  6  2  0  0  0  0
  7  8  1  0  0  0  0
  8  9  2  0  0  0  0
  9  4  1  0  0  0  0
  9 14  1  0  0  0  0
 11  6  1  0  0  0  0
 12  7  1  0  0  0  0
 13  8  1  0  0  0  0
 14 21  1  0  0  0  0
 15 16  2  0  0  0  0
 15 14  1  0  0  0  0
 16 18  1  0  0  0  0
 17 16  1  0  0  0  0
 18 19  2  0  0  0  0
 18 20  1  0  0  0  0
 20 23  1  0  0  0  0
 21 20  1  0  0  0  0
 21 22  2  0  0  0  0
 24 25  1  0  0  0  0
 25  1  1  0  0  0  0
 25 26  2  0  0  0  0
 26 31  1  0  0  0  0
 27 26  1  0  0  0  0
 28 27  2  0  0  0  0
 29 24  2  0  0  0  0
 29 28  1  0  0  0  0
 30 24  1  0  0  0  0
 32 37  1  6  0  0  0
 32 33  1  0  0  0  0
 32 42  1  0  0  0  0
 33 38  1  6  0  0  0
 33 28  1  0  0  0  0
 33 34  1  0  0  0  0
 35 34  1  0  0  0  0
 35 39  1  0  0  0  0
 36 41  1  6  0  0  0
 36 44  1  0  0  0  0
 36 32  1  0  0  0  0
 36 35  1  0  0  0  0
 40 35  1  0  0  0  0
 43 42  1  0  0  0  0
 44 45  1  0  0  0  0
M  END
>  <minimizedAffinity>
-6.83791542

$$$$

 OpenBabel03252503483D

 45 48  0  0  1  0  0  0  0  0999 V2000
   35.4510   29.4150   40.6720 C   0  0  0  0  0  0  0  0  0  0  0  0
   34.5250   28.8470   40.9290 H   0  0  0  0  0  0  0  0  0  0  0  0
   35.2490   30.4420   41.0360 H   0  0  0  0  0  0  0  0  0  0  0  0
   35.6260   29.3270   39.2180 C   0  0  0  0  0  0  0  0  0  0  0  0
   34.9050   28.5050   38.3820 C   0  0  0  0  0  0  0  0  0  0  0  0
   35.1140   28.4520   37.0240 C   0  0  0  0  0  0  0  0  0  0  0  0
   36.0960   29.2640   36.4820 C   0  0  0  0  0  0  0  0  0  0  0  0
   36.8350   30.1030   37.3190 C   0  0  0  0  0  0  0  0  0  0  0  0
   36.6040   30.1420   38.6980 C   0  0  0  0  0  0  0  0  0  0  0  0
   34.1620   27.9180   38.9390 H   0  0  0  0  0  0  0  0  0  0  0  0
   34.4840   27.7670   36.4670 H   0  0  0  0  0  0  0  0  0  0  0  0
   36.1800   29.1460   35.4110 H   0  0  0  0  0  0  0  0  0  0  0  0
   37.5440   30.6430   36.6870 H   0  0  0  0  0  0  0  0  0  0  0  0
   37.5200   31.1000   39.1970 N   0  0  0  0  0  0  0  0  0  0  0  0
   37.0130   32.3590   39.3790 C   0  0  0  0  0  3  0  0  0  0  0  0
   37.7530   33.4370   39.8740 C   0  0  0  0  0  0  0  0  0  0  0  0
   37.2770   34.4000   39.9880 H   0  0  0  0  0  0  0  0  0  0  0  0
   39.0520   33.1740   40.1800 C   0  0  0  0  0  0  0  0  0  0  0  0
   39.7740   34.1100   40.6320 O   0  0  0  0  0  0  0  0  0  0  0  0
   39.5700   31.9480   40.0100 N   0  0  0  0  0  0  0  0  0  0  0  0
   38.8130   30.9740   39.5380 C   0  0  0  0  0  0  0  0  0  0  0  0
   39.3010   29.8270   39.3840 O   0  0  0  0  0  0  0  0  0  0  0  0
   40.5620   31.7490   40.2440 H   0  0  0  0  0  0  0  0  0  0  0  0
   36.9650   27.4960   41.0910 C   0  0  0  0  0  0  0  0  0  0  0  0
   36.5780   28.8050   41.3610 C   0  0  0  0  0  0  0  0  0  0  0  0
   37.3210   29.5010   42.3160 C   0  0  0  0  0  0  0  0  0  0  0  0
   38.3680   28.9290   42.9460 N   0  0  0  0  0  0  0  0  0  0  0  0
   38.7130   27.6490   42.6550 C   0  0  0  0  0  0  0  0  0  0  0  0
   38.0180   26.9360   41.7330 N   0  0  0  0  0  0  0  0  0  0  0  0
   36.4100   26.9510   40.3670 H   0  0  0  0  0  0  0  0  0  0  0  0
   37.1070   30.4930   42.6170 H   0  0  0  0  0  0  0  0  0  0  0  0
   40.3360   25.7640   42.6540 C   0  0  2  0  0  0  0  0  0  0  0  0
   39.8580   27.0680   43.3550 C   0  0  1  0  0  0  0  0  0  0  0  0
   41.0080   27.7800   43.2910 O   0  0  0  0  0  0  0  0  0  0  0  0
   42.0310   26.9680   43.6800 C   0  0  0  0  0  0  0  0  0  0  0  0
   41.5710   25.5260   43.5330 C   0  0  2  0  0  0  0  0  0  0  0  0
   39.5820   24.9800   42.7730 H   0  0  0  0  0  0  0  0  0  0  0  0
   39.5800   26.8100   44.4020 H   0  0  0  0  0  0  0  0  0  0  0  0
   42.8860   27.1060   42.9820 H   0  0  0  0  0  0  0  0  0  0  0  0
   42.4210   27.1740   44.6930 H   0  0  0  0  0  0  0  0  0  0  0  0
   41.2790   25.1870   44.5490 H   0  0  0  0  0  0  0  0  0  0  0  0
   40.7680   26.0330   41.4100 O   0  0  0  0  0  0  0  0  0  0  0  0
   40.7080   25.2060   40.8490 H   0  0  0  0  0  0  0  0  0  0  0  0
   42.4960   24.7040   42.9370 O   0  0  0  0  0  0  0  0  0  0  0  0
   43.2390   25.2160   42.5720 H   0  0  0  0  0  0  0  0  0  0  0  0
  1  2  1  0  0  0  0
  1  3  1  0  0  0  0
  1 25  1  0  0  0  0
  4  1  1  0  0  0  0
  5 10  1  0  0  0  0
  5  4  2  0  0  0  0
  6  5  1  0  0  0  0
  7  6  2  0  0  0  0
  7  8  1  0  0  0  0
  8  9  2  0  0  0  0
  9 14  1  0  0  0  0
  9  4  1  0  0  0  0
 11  6  1  0  0  0  0
 12  7  1  0  0  0  0
 13  8  1  0  0  0  0
 14 15  1  0  0  0  0
 14 21  1  0  0  0  0
 15 16  2  0  0  0  0
 16 17  1  0  0  0  0
 16 18  1  0  0  0  0
 18 19  2  0  0  0  0
 20 18  1  0  0  0  0
 20 23  1  0  0  0  0
 21 20  1  0  0  0  0
 22 21  2  0  0  0  0
 24 25  2  0  0  0  0
 24 29  1  0  0  0  0
 25 26  1  0  0  0  0
 26 31  1  0  0  0  0
 26 27  2  0  0  0  0
 28 27  1  0  0  0  0
 28 33  1  0  0  0  0
 29 28  2  0  0  0  0
 30 24  1  0  0  0  0
 32 37  1  1  0  0  0
 32 33  1  0  0  0  0
 32 36  1  0  0  0  0
 33 38  1  1  0  0  0
 34 33  1  0  0  0  0
 34 35  1  0  0  0  0
 35 40  1  0  0  0  0
 36 35  1  0  0  0  0
 36 41  1  1  0  0  0
 39 35  1  0  0  0  0
 42 32  1  0  0  0  0
 43 42  1  0  0  0  0
 44 36  1  0  0  0  0
 45 44  1  0  0  0  0
M  END
>  <minimizedAffinity>
-6.68052244

$$$$

 OpenBabel03252503483D

 45 48  0  0  1  0  0  0  0  0999 V2000
   36.2130   28.8520   40.5520 C   0  0  0  0  0  0  0  0  0  0  0  0
   36.4630   28.2140   41.4330 H   0  0  0  0  0  0  0  0  0  0  0  0
   35.3320   29.4380   40.8820 H   0  0  0  0  0  0  0  0  0  0  0  0
   35.9370   27.9510   39.4270 C   0  0  0  0  0  0  0  0  0  0  0  0
   35.0920   28.2330   38.3770 C   0  0  0  0  0  0  0  0  0  0  0  0
   34.8580   27.3480   37.3490 C   0  0  0  0  0  0  0  0  0  0  0  0
   35.5040   26.1240   37.3810 C   0  0  0  0  0  0  0  0  0  0  0  0
   36.3640   25.8260   38.4410 C   0  0  0  0  0  0  0  0  0  0  0  0
   36.5880   26.7420   39.4750 C   0  0  0  0  0  0  0  0  0  0  0  0
   34.6480   29.2320   38.4750 H   0  0  0  0  0  0  0  0  0  0  0  0
   34.1740   27.6800   36.5770 H   0  0  0  0  0  0  0  0  0  0  0  0
   35.2520   25.5050   36.5320 H   0  0  0  0  0  0  0  0  0  0  0  0
   36.7560   24.8220   38.2630 H   0  0  0  0  0  0  0  0  0  0  0  0
   37.5090   26.1010   40.3390 N   0  0  0  0  0  0  0  0  0  0  0  0
   36.9540   25.2860   41.2900 C   0  0  0  0  0  3  0  0  0  0  0  0
   37.6950   24.5570   42.2250 C   0  0  0  0  0  0  0  0  0  0  0  0
   37.1790   23.9360   42.9440 H   0  0  0  0  0  0  0  0  0  0  0  0
   39.0470   24.6960   42.1500 C   0  0  0  0  0  0  0  0  0  0  0  0
   39.7720   24.0620   42.9700 O   0  0  0  0  0  0  0  0  0  0  0  0
   39.6120   25.4880   41.2260 N   0  0  0  0  0  0  0  0  0  0  0  0
   38.8510   26.1490   40.3720 C   0  0  0  0  0  0  0  0  0  0  0  0
   39.3850   26.8870   39.5070 O   0  0  0  0  0  0  0  0  0  0  0  0
   40.6440   25.5930   41.1710 H   0  0  0  0  0  0  0  0  0  0  0  0
   38.4620   29.7460   41.0960 C   0  0  0  0  0  0  0  0  0  0  0  0
   37.3540   29.7050   40.2550 C   0  0  0  0  0  0  0  0  0  0  0  0
   37.3920   30.5150   39.1190 C   0  0  0  0  0  0  0  0  0  0  0  0
   38.4560   31.2990   38.8490 N   0  0  0  0  0  0  0  0  0  0  0  0
   39.5170   31.3100   39.6950 C   0  0  0  0  0  0  0  0  0  0  0  0
   39.5220   30.5390   40.8110 N   0  0  0  0  0  0  0  0  0  0  0  0
   38.4500   29.1360   41.9670 H   0  0  0  0  0  0  0  0  0  0  0  0
   36.6000   30.5820   38.4200 H   0  0  0  0  0  0  0  0  0  0  0  0
   40.9400   32.1470   37.8340 C   0  0  2  0  0  0  0  0  0  0  0  0
   40.6530   32.1690   39.3630 C   0  0  1  0  0  0  0  0  0  0  0  0
   40.4510   33.4980   39.5240 O   0  0  0  0  0  0  0  0  0  0  0  0
   41.4440   34.1600   38.8670 C   0  0  0  0  0  0  0  0  0  0  0  0
   42.0430   33.2130   37.8390 C   0  0  2  0  0  0  0  0  0  0  0  0
   41.3130   31.1610   37.5390 H   0  0  0  0  0  0  0  0  0  0  0  0
   41.5700   31.8160   39.8860 H   0  0  0  0  0  0  0  0  0  0  0  0
   40.9990   35.0090   38.3020 H   0  0  0  0  0  0  0  0  0  0  0  0
   42.2180   34.5970   39.5240 H   0  0  0  0  0  0  0  0  0  0  0  0
   42.9790   32.8170   38.2880 H   0  0  0  0  0  0  0  0  0  0  0  0
   39.8930   32.6480   37.1550 O   0  0  0  0  0  0  0  0  0  0  0  0
   39.9020   32.2950   36.2180 H   0  0  0  0  0  0  0  0  0  0  0  0
   42.2380   33.7820   36.6040 O   0  0  0  0  0  0  0  0  0  0  0  0
   41.8210   34.6590   36.5500 H   0  0  0  0  0  0  0  0  0  0  0  0
  1  3  1  0  0  0  0
  1  2  1  0  0  0  0
  4  9  1  0  0  0  0
  4  1  1  0  0  0  0
  5 10  1  0  0  0  0
  5  4  2  0  0  0  0
  6  7  2  0  0  0  0
  6  5  1  0  0  0  0
  7  8  1  0  0  0  0
  8  9  2  0  0  0  0
  9 14  1  0  0  0  0
 11  6  1  0  0  0  0
 12  7  1  0  0  0  0
 13  8  1  0  0  0  0
 14 21  1  0  0  0  0
 14 15  1  0  0  0  0
 15 16  2  0  0  0  0
 16 17  1  0  0  0  0
 18 16  1  0  0  0  0
 18 19  2  0  0  0  0
 20 18  1  0  0  0  0
 21 20  1  0  0  0  0
 22 21  2  0  0  0  0
 23 20  1  0  0  0  0
 24 30  1  0  0  0  0
 25  1  1  0  0  0  0
 25 24  2  0  0  0  0
 26 25  1  0  0  0  0
 27 26  2  0  0  0  0
 27 28  1  0  0  0  0
 28 29  2  0  0  0  0
 29 24  1  0  0  0  0
 31 26  1  0  0  0  0
 32 37  1  6  0  0  0
 32 36  1  0  0  0  0
 32 33  1  0  0  0  0
 33 34  1  0  0  0  0
 33 28  1  0  0  0  0
 33 38  1  1  0  0  0
 35 40  1  0  0  0  0
 35 34  1  0  0  0  0
 36 41  1  1  0  0  0
 36 35  1  0  0  0  0
 39 35  1  0  0  0  0
 42 32  1  0  0  0  0
 43 42  1  0  0  0  0
 44 36  1  0  0  0  0
 45 44  1  0  0  0  0
M  END
>  <minimizedAffinity>
-6.33224821

$$$$

 OpenBabel03252503483D

 45 48  0  0  1  0  0  0  0  0999 V2000
   37.0760   30.6100   41.4350 C   0  0  0  0  0  0  0  0  0  0  0  0
   36.8240   31.2230   42.3340 H   0  0  0  0  0  0  0  0  0  0  0  0
   36.2460   30.8110   40.7280 H   0  0  0  0  0  0  0  0  0  0  0  0
   37.1560   29.2120   41.8710 C   0  0  0  0  0  0  0  0  0  0  0  0
   37.5530   28.7940   43.1210 C   0  0  0  0  0  0  0  0  0  0  0  0
   37.6220   27.4670   43.4780 C   0  0  0  0  0  0  0  0  0  0  0  0
   37.2750   26.5170   42.5330 C   0  0  0  0  0  0  0  0  0  0  0  0
   36.8690   26.9280   41.2600 C   0  0  0  0  0  0  0  0  0  0  0  0
   36.8060   28.2840   40.9190 C   0  0  0  0  0  0  0  0  0  0  0  0
   37.7990   29.6450   43.7700 H   0  0  0  0  0  0  0  0  0  0  0  0
   37.9470   27.2590   44.4910 H   0  0  0  0  0  0  0  0  0  0  0  0
   37.3620   25.5090   42.9120 H   0  0  0  0  0  0  0  0  0  0  0  0
   36.6480   26.0250   40.6870 H   0  0  0  0  0  0  0  0  0  0  0  0
   36.3510   28.3040   39.5790 N   0  0  0  0  0  0  0  0  0  0  0  0
   37.2320   27.8170   38.6510 C   0  0  0  0  0  3  0  0  0  0  0  0
   36.9640   27.7400   37.2800 C   0  0  0  0  0  0  0  0  0  0  0  0
   37.7150   27.3420   36.6130 H   0  0  0  0  0  0  0  0  0  0  0  0
   35.7400   28.1880   36.8900 C   0  0  0  0  0  0  0  0  0  0  0  0
   35.4380   28.1450   35.6610 O   0  0  0  0  0  0  0  0  0  0  0  0
   34.8600   28.6680   37.7820 N   0  0  0  0  0  0  0  0  0  0  0  0
   35.1790   28.7120   39.0630 C   0  0  0  0  0  0  0  0  0  0  0  0
   34.3510   29.1600   39.8940 O   0  0  0  0  0  0  0  0  0  0  0  0
   33.9270   29.0100   37.4810 H   0  0  0  0  0  0  0  0  0  0  0  0
   38.5950   31.1160   39.5420 C   0  0  0  0  0  0  0  0  0  0  0  0
   38.3570   31.0570   40.9110 C   0  0  0  0  0  0  0  0  0  0  0  0
   39.4000   31.4480   41.7520 C   0  0  0  0  0  0  0  0  0  0  0  0
   40.5840   31.8660   41.2570 N   0  0  0  0  0  0  0  0  0  0  0  0
   40.7760   31.9080   39.9140 C   0  0  0  0  0  0  0  0  0  0  0  0
   39.7900   31.5370   39.0600 N   0  0  0  0  0  0  0  0  0  0  0  0
   37.8120   30.8210   38.8850 H   0  0  0  0  0  0  0  0  0  0  0  0
   39.3420   31.4250   42.8080 H   0  0  0  0  0  0  0  0  0  0  0  0
   41.9840   32.7660   37.9160 C   0  0  2  0  0  0  0  0  0  0  0  0
   42.0710   32.3730   39.4180 C   0  0  1  0  0  0  0  0  0  0  0  0
   42.5040   33.5520   39.9230 O   0  0  0  0  0  0  0  0  0  0  0  0
   43.5180   34.0050   39.1340 C   0  0  0  0  0  0  0  0  0  0  0  0
   43.4110   33.3110   37.7850 C   0  0  2  0  0  0  0  0  0  0  0  0
   41.8200   31.8710   37.3060 H   0  0  0  0  0  0  0  0  0  0  0  0
   42.8340   31.5680   39.5160 H   0  0  0  0  0  0  0  0  0  0  0  0
   43.3740   35.0920   38.9490 H   0  0  0  0  0  0  0  0  0  0  0  0
   44.5260   33.8960   39.5740 H   0  0  0  0  0  0  0  0  0  0  0  0
   44.1560   32.4870   37.7980 H   0  0  0  0  0  0  0  0  0  0  0  0
   41.1380   33.7980   37.7500 O   0  0  0  0  0  0  0  0  0  0  0  0
   40.7920   33.8000   36.8110 H   0  0  0  0  0  0  0  0  0  0  0  0
   43.5630   34.1530   36.7110 O   0  0  0  0  0  0  0  0  0  0  0  0
   43.5650   35.0850   36.9920 H   0  0  0  0  0  0  0  0  0  0  0  0
  1  4  1  0  0  0  0
  1  2  1  0  0  0  0
  3  1  1  0  0  0  0
  4  5  1  0  0  0  0
  5  6  2  0  0  0  0
  5 10  1  0  0  0  0
  6 11  1  0  0  0  0
  7 12  1  0  0  0  0
  7  6  1  0  0  0  0
  8  7  2  0  0  0  0
  9  8  1  0  0  0  0
  9  4  2  0  0  0  0
 13  8  1  0  0  0  0
 14  9  1  0  0  0  0
 15 14  1  0  0  0  0
 16 15  2  0  0  0  0
 17 16  1  0  0  0  0
 18 16  1  0  0  0  0
 18 20  1  0  0  0  0
 19 18  2  0  0  0  0
 20 21  1  0  0  0  0
 21 14  1  0  0  0  0
 21 22  2  0  0  0  0
 23 20  1  0  0  0  0
 24 25  1  0  0  0  0
 25  1  1  0  0  0  0
 25 26  2  0  0  0  0
 26 31  1  0  0  0  0
 27 26  1  0  0  0  0
 28 27  2  0  0  0  0
 29 24  2  0  0  0  0
 29 28  1  0  0  0  0
 30 24  1  0  0  0  0
 32 37  1  6  0  0  0
 32 33  1  0  0  0  0
 33 38  1  1  0  0  0
 33 28  1  0  0  0  0
 33 34  1  0  0  0  0
 35 40  1  0  0  0  0
 35 34  1  0  0  0  0
 36 41  1  6  0  0  0
 36 32  1  0  0  0  0
 36 35  1  0  0  0  0
 39 35  1  0  0  0  0
 42 32  1  0  0  0  0
 43 42  1  0  0  0  0
 44 45  1  0  0  0  0
 44 36  1  0  0  0  0
M  END
>  <minimizedAffinity>
-6.25275326

$$$$

 OpenBabel03252503483D

 45 48  0  0  1  0  0  0  0  0999 V2000
   36.2720   28.5910   39.5910 C   0  0  0  0  0  0  0  0  0  0  0  0
   35.4100   29.1470   40.0330 H   0  0  0  0  0  0  0  0  0  0  0  0
   35.8940   28.2380   38.6110 H   0  0  0  0  0  0  0  0  0  0  0  0
   36.6110   27.5060   40.5200 C   0  0  0  0  0  0  0  0  0  0  0  0
   36.5950   27.6060   41.8920 C   0  0  0  0  0  0  0  0  0  0  0  0
   36.9310   26.5600   42.7210 C   0  0  0  0  0  0  0  0  0  0  0  0
   37.3020   25.3590   42.1400 C   0  0  0  0  0  0  0  0  0  0  0  0
   37.3220   25.2450   40.7470 C   0  0  0  0  0  0  0  0  0  0  0  0
   36.9740   26.3220   39.9240 C   0  0  0  0  0  0  0  0  0  0  0  0
   36.2840   28.6070   42.2190 H   0  0  0  0  0  0  0  0  0  0  0  0
   36.8810   26.7560   43.7860 H   0  0  0  0  0  0  0  0  0  0  0  0
   37.5460   24.6060   42.8750 H   0  0  0  0  0  0  0  0  0  0  0  0
   37.6400   24.2260   40.5140 H   0  0  0  0  0  0  0  0  0  0  0  0
   37.1010   25.8290   38.6030 N   0  0  0  0  0  0  0  0  0  0  0  0
   38.3850   25.6570   38.1590 C   0  0  0  0  0  3  0  0  0  0  0  0
   38.7170   25.1690   36.8920 C   0  0  0  0  0  0  0  0  0  0  0  0
   39.7570   25.0630   36.6190 H   0  0  0  0  0  0  0  0  0  0  0  0
   37.6680   24.8580   36.0820 C   0  0  0  0  0  0  0  0  0  0  0  0
   37.9050   24.4120   34.9220 O   0  0  0  0  0  0  0  0  0  0  0  0
   36.4020   25.0180   36.4960 N   0  0  0  0  0  0  0  0  0  0  0  0
   36.1600   25.4840   37.7080 C   0  0  0  0  0  0  0  0  0  0  0  0
   34.9720   25.6290   38.0920 O   0  0  0  0  0  0  0  0  0  0  0  0
   35.6030   24.7800   35.8760 H   0  0  0  0  0  0  0  0  0  0  0  0
   37.4910   30.6560   40.2240 C   0  0  0  0  0  0  0  0  0  0  0  0
   37.3920   29.5070   39.4450 C   0  0  0  0  0  0  0  0  0  0  0  0
   38.4150   29.2770   38.5240 C   0  0  0  0  0  0  0  0  0  0  0  0
   39.4540   30.1300   38.3980 N   0  0  0  0  0  0  0  0  0  0  0  0
   39.5130   31.2400   39.1770 C   0  0  0  0  0  0  0  0  0  0  0  0
   38.5390   31.5020   40.0850 N   0  0  0  0  0  0  0  0  0  0  0  0
   36.7200   30.8470   40.9310 H   0  0  0  0  0  0  0  0  0  0  0  0
   38.4370   28.4500   37.8650 H   0  0  0  0  0  0  0  0  0  0  0  0
   41.1210   32.1830   37.5310 C   0  0  2  0  0  0  0  0  0  0  0  0
   40.6580   32.1350   39.0150 C   0  0  1  0  0  0  0  0  0  0  0  0
   40.4040   33.4520   39.2020 O   0  0  0  0  0  0  0  0  0  0  0  0
   41.4490   34.1610   38.6920 C   0  0  0  0  0  0  0  0  0  0  0  0
   42.1880   33.2700   37.7060 C   0  0  2  0  0  0  0  0  0  0  0  0
   41.5510   31.2170   37.2430 H   0  0  0  0  0  0  0  0  0  0  0  0
   41.5160   31.7800   39.6280 H   0  0  0  0  0  0  0  0  0  0  0  0
   41.0520   35.0230   38.1120 H   0  0  0  0  0  0  0  0  0  0  0  0
   42.1300   34.5870   39.4520 H   0  0  0  0  0  0  0  0  0  0  0  0
   43.0750   32.8760   38.2460 H   0  0  0  0  0  0  0  0  0  0  0  0
   40.1480   32.6890   36.7520 O   0  0  0  0  0  0  0  0  0  0  0  0
   40.2760   32.3750   35.8110 H   0  0  0  0  0  0  0  0  0  0  0  0
   42.5110   33.8930   36.5260 O   0  0  0  0  0  0  0  0  0  0  0  0
   42.0810   34.7630   36.4570 H   0  0  0  0  0  0  0  0  0  0  0  0
  1  2  1  0  0  0  0
  1  4  1  0  0  0  0
  3  1  1  0  0  0  0
  4  5  1  0  0  0  0
  5 10  1  0  0  0  0
  5  6  2  0  0  0  0
  6 11  1  0  0  0  0
  7  6  1  0  0  0  0
  7 12  1  0  0  0  0
  8  7  2  0  0  0  0
  9  4  2  0  0  0  0
  9  8  1  0  0  0  0
 13  8  1  0  0  0  0
 14  9  1  0  0  0  0
 15 14  1  0  0  0  0
 16 15  2  0  0  0  0
 17 16  1  0  0  0  0
 18 20  1  0  0  0  0
 18 16  1  0  0  0  0
 19 18  2  0  0  0  0
 20 21  1  0  0  0  0
 21 22  2  0  0  0  0
 21 14  1  0  0  0  0
 23 20  1  0  0  0  0
 24 30  1  0  0  0  0
 25  1  1  0  0  0  0
 25 24  2  0  0  0  0
 26 25  1  0  0  0  0
 27 26  2  0  0  0  0
 27 28  1  0  0  0  0
 28 29  2  0  0  0  0
 29 24  1  0  0  0  0
 31 26  1  0  0  0  0
 32 37  1  6  0  0  0
 32 36  1  0  0  0  0
 32 33  1  0  0  0  0
 33 28  1  0  0  0  0
 33 34  1  0  0  0  0
 33 38  1  1  0  0  0
 35 34  1  0  0  0  0
 35 40  1  0  0  0  0
 36 41  1  1  0  0  0
 36 35  1  0  0  0  0
 39 35  1  0  0  0  0
 42 32  1  0  0  0  0
 43 42  1  0  0  0  0
 44 36  1  0  0  0  0
 45 44  1  0  0  0  0
M  END
>  <minimizedAffinity>
-6.19741106

$$$$

 OpenBabel03252503483D

 45 48  0  0  1  0  0  0  0  0999 V2000
   37.4420   27.8190   39.4390 C   0  0  0  0  0  0  0  0  0  0  0  0
   36.6740   28.5870   39.1770 H   0  0  0  0  0  0  0  0  0  0  0  0
   37.0800   26.8940   38.9460 H   0  0  0  0  0  0  0  0  0  0  0  0
   37.4850   27.7290   40.9030 C   0  0  0  0  0  0  0  0  0  0  0  0
   37.4420   26.5590   41.6260 C   0  0  0  0  0  0  0  0  0  0  0  0
   37.4750   26.5280   43.0010 C   0  0  0  0  0  0  0  0  0  0  0  0
   37.5540   27.7320   43.6790 C   0  0  0  0  0  0  0  0  0  0  0  0
   37.5980   28.9280   42.9570 C   0  0  0  0  0  0  0  0  0  0  0  0
   37.5650   28.9350   41.5590 C   0  0  0  0  0  0  0  0  0  0  0  0
   37.3800   25.6810   40.9670 H   0  0  0  0  0  0  0  0  0  0  0  0
   37.4370   25.5470   43.4600 H   0  0  0  0  0  0  0  0  0  0  0  0
   37.5740   27.5990   44.7510 H   0  0  0  0  0  0  0  0  0  0  0  0
   37.6580   29.7400   43.6860 H   0  0  0  0  0  0  0  0  0  0  0  0
   37.6400   30.3020   41.1970 N   0  0  0  0  0  0  0  0  0  0  0  0
   38.8630   30.8910   41.3730 C   0  0  0  0  0  3  0  0  0  0  0  0
   39.1420   32.2250   41.0630 C   0  0  0  0  0  0  0  0  0  0  0  0
   40.1360   32.6140   41.2320 H   0  0  0  0  0  0  0  0  0  0  0  0
   38.1040   32.9460   40.5570 C   0  0  0  0  0  0  0  0  0  0  0  0
   38.2940   34.1610   40.2580 O   0  0  0  0  0  0  0  0  0  0  0  0
   36.8970   32.3900   40.3760 N   0  0  0  0  0  0  0  0  0  0  0  0
   36.7030   31.1210   40.6910 C   0  0  0  0  0  0  0  0  0  0  0  0
   35.5720   30.6040   40.5160 O   0  0  0  0  0  0  0  0  0  0  0  0
   36.1060   32.9410   39.9910 H   0  0  0  0  0  0  0  0  0  0  0  0
   39.9020   27.5770   39.2440 C   0  0  0  0  0  0  0  0  0  0  0  0
   38.7290   28.2480   38.9150 C   0  0  0  0  0  0  0  0  0  0  0  0
   38.8470   29.3460   38.0610 C   0  0  0  0  0  0  0  0  0  0  0  0
   40.0440   29.7350   37.5760 N   0  0  0  0  0  0  0  0  0  0  0  0
   41.1660   29.0520   37.9220 C   0  0  0  0  0  0  0  0  0  0  0  0
   41.0970   27.9800   38.7500 N   0  0  0  0  0  0  0  0  0  0  0  0
   39.8310   26.7380   39.8950 H   0  0  0  0  0  0  0  0  0  0  0  0
   38.0280   29.9450   37.7590 H   0  0  0  0  0  0  0  0  0  0  0  0
   42.3770   31.0010   36.9630 C   0  0  2  0  0  0  0  0  0  0  0  0
   42.4430   29.5010   37.3690 C   0  0  1  0  0  0  0  0  0  0  0  0
   43.4730   29.5620   38.2460 O   0  0  0  0  0  0  0  0  0  0  0  0
   44.4670   30.3020   37.6820 C   0  0  0  0  0  0  0  0  0  0  0  0
   43.8540   31.1530   36.5800 C   0  0  2  0  0  0  0  0  0  0  0  0
   41.7080   31.1260   36.1060 H   0  0  0  0  0  0  0  0  0  0  0  0
   42.6980   28.9130   36.4590 H   0  0  0  0  0  0  0  0  0  0  0  0
   44.8710   31.0040   38.4430 H   0  0  0  0  0  0  0  0  0  0  0  0
   45.3270   29.7130   37.3160 H   0  0  0  0  0  0  0  0  0  0  0  0
   44.0750   30.6310   35.6240 H   0  0  0  0  0  0  0  0  0  0  0  0
   42.1570   31.7700   38.0450 O   0  0  0  0  0  0  0  0  0  0  0  0
   41.7440   32.6360   37.7610 H   0  0  0  0  0  0  0  0  0  0  0  0
   44.2740   32.4600   36.5860 O   0  0  0  0  0  0  0  0  0  0  0  0
   44.7830   32.6630   37.3900 H   0  0  0  0  0  0  0  0  0  0  0  0
  1  4  1  0  0  0  0
  2  1  1  0  0  0  0
  3  1  1  0  0  0  0
  4  9  2  0  0  0  0
  4  5  1  0  0  0  0
  5  6  2  0  0  0  0
  6 11  1  0  0  0  0
  6  7  1  0  0  0  0
  7 12  1  0  0  0  0
  8  7  2  0  0  0  0
  8 13  1  0  0  0  0
  9  8  1  0  0  0  0
 10  5  1  0  0  0  0
 14 15  1  0  0  0  0
 14  9  1  0  0  0  0
 16 17  1  0  0  0  0
 16 15  2  0  0  0  0
 18 16  1  0  0  0  0
 19 18  2  0  0  0  0
 20 18  1  0  0  0  0
 20 21  1  0  0  0  0
 21 14  1  0  0  0  0
 22 21  2  0  0  0  0
 23 20  1  0  0  0  0
 24 30  1  0  0  0  0
 25 24  1  0  0  0  0
 25  1  1  0  0  0  0
 26 25  2  0  0  0  0
 27 28  2  0  0  0  0
 27 26  1  0  0  0  0
 28 29  1  0  0  0  0
 29 24  2  0  0  0  0
 31 26  1  0  0  0  0
 32 37  1  6  0  0  0
 32 33  1  0  0  0  0
 32 42  1  0  0  0  0
 33 38  1  6  0  0  0
 33 28  1  0  0  0  0
 33 34  1  0  0  0  0
 35 34  1  0  0  0  0
 35 39  1  0  0  0  0
 36 41  1  6  0  0  0
 36 44  1  0  0  0  0
 36 32  1  0  0  0  0
 36 35  1  0  0  0  0
 40 35  1  0  0  0  0
 43 42  1  0  0  0  0
 44 45  1  0  0  0  0
M  END
>  <minimizedAffinity>
-6.19240522

$$$$

 OpenBabel03252503483D

 45 48  0  0  1  0  0  0  0  0999 V2000
   38.1420   27.8340   39.4900 C   0  0  0  0  0  0  0  0  0  0  0  0
   38.5040   26.8320   39.1560 H   0  0  0  0  0  0  0  0  0  0  0  0
   38.9840   28.5170   39.2600 H   0  0  0  0  0  0  0  0  0  0  0  0
   37.8390   27.7310   40.9220 C   0  0  0  0  0  0  0  0  0  0  0  0
   37.6700   26.5520   41.6130 C   0  0  0  0  0  0  0  0  0  0  0  0
   37.3770   26.5090   42.9560 C   0  0  0  0  0  0  0  0  0  0  0  0
   37.2470   27.7080   43.6350 C   0  0  0  0  0  0  0  0  0  0  0  0
   37.4170   28.9120   42.9460 C   0  0  0  0  0  0  0  0  0  0  0  0
   37.7160   28.9320   41.5800 C   0  0  0  0  0  0  0  0  0  0  0  0
   37.8000   25.6800   40.9570 H   0  0  0  0  0  0  0  0  0  0  0  0
   37.2670   25.5220   43.3920 H   0  0  0  0  0  0  0  0  0  0  0  0
   37.0170   27.5640   44.6810 H   0  0  0  0  0  0  0  0  0  0  0  0
   37.2710   29.7180   43.6690 H   0  0  0  0  0  0  0  0  0  0  0  0
   37.8230   30.3040   41.2480 N   0  0  0  0  0  0  0  0  0  0  0  0
   39.0760   30.8430   41.3710 C   0  0  0  0  0  3  0  0  0  0  0  0
   39.3880   32.1740   41.0780 C   0  0  0  0  0  0  0  0  0  0  0  0
   40.4040   32.5210   41.2030 H   0  0  0  0  0  0  0  0  0  0  0  0
   38.3530   32.9450   40.6490 C   0  0  0  0  0  0  0  0  0  0  0  0
   38.5720   34.1600   40.3690 O   0  0  0  0  0  0  0  0  0  0  0  0
   37.1170   32.4390   40.5200 N   0  0  0  0  0  0  0  0  0  0  0  0
   36.8930   31.1700   40.8140 C   0  0  0  0  0  0  0  0  0  0  0  0
   35.7350   30.6990   40.6900 O   0  0  0  0  0  0  0  0  0  0  0  0
   36.3280   33.0290   40.1930 H   0  0  0  0  0  0  0  0  0  0  0  0
   36.9840   29.0900   37.6930 C   0  0  0  0  0  0  0  0  0  0  0  0
   36.9440   28.1720   38.7370 C   0  0  0  0  0  0  0  0  0  0  0  0
   35.7070   27.5920   39.0240 C   0  0  0  0  0  0  0  0  0  0  0  0
   34.6020   27.9080   38.3170 N   0  0  0  0  0  0  0  0  0  0  0  0
   34.6830   28.8100   37.3050 C   0  0  0  0  0  0  0  0  0  0  0  0
   35.8660   29.3970   36.9940 N   0  0  0  0  0  0  0  0  0  0  0  0
   37.9180   29.5420   37.4610 H   0  0  0  0  0  0  0  0  0  0  0  0
   35.5520   26.8980   39.8070 H   0  0  0  0  0  0  0  0  0  0  0  0
   32.9590   27.8750   35.7760 C   0  0  2  0  0  0  0  0  0  0  0  0
   33.4640   29.1200   36.5600 C   0  0  1  0  0  0  0  0  0  0  0  0
   32.3630   29.3610   37.3090 O   0  0  0  0  0  0  0  0  0  0  0  0
   31.2730   29.2920   36.4960 C   0  0  0  0  0  0  0  0  0  0  0  0
   31.6580   28.5000   35.2570 C   0  0  2  0  0  0  0  0  0  0  0  0
   33.6580   27.6340   34.9680 H   0  0  0  0  0  0  0  0  0  0  0  0
   33.6580   29.9310   35.8220 H   0  0  0  0  0  0  0  0  0  0  0  0
   30.4740   28.7150   37.0110 H   0  0  0  0  0  0  0  0  0  0  0  0
   30.8300   30.2710   36.2370 H   0  0  0  0  0  0  0  0  0  0  0  0
   31.8640   29.2470   34.4600 H   0  0  0  0  0  0  0  0  0  0  0  0
   32.6250   26.8890   36.6270 O   0  0  0  0  0  0  0  0  0  0  0  0
   32.6750   26.0080   36.1550 H   0  0  0  0  0  0  0  0  0  0  0  0
   30.7290   27.5600   34.8840 O   0  0  0  0  0  0  0  0  0  0  0  0
   30.0420   27.4550   35.5650 H   0  0  0  0  0  0  0  0  0  0  0  0
  1  4  1  0  0  0  0
  2  1  1  0  0  0  0
  3  1  1  0  0  0  0
  4  9  2  0  0  0  0
  4  5  1  0  0  0  0
  5  6  2  0  0  0  0
  6 11  1  0  0  0  0
  6  7  1  0  0  0  0
  7 12  1  0  0  0  0
  8  7  2  0  0  0  0
  8 13  1  0  0  0  0
  9  8  1  0  0  0  0
 10  5  1  0  0  0  0
 14 15  1  0  0  0  0
 14  9  1  0  0  0  0
 16 17  1  0  0  0  0
 16 15  2  0  0  0  0
 18 16  1  0  0  0  0
 19 18  2  0  0  0  0
 20 18  1  0  0  0  0
 20 21  1  0  0  0  0
 21 14  1  0  0  0  0
 22 21  2  0  0  0  0
 23 20  1  0  0  0  0
 24 25  1  0  0  0  0
 25 26  2  0  0  0  0
 25  1  1  0  0  0  0
 26 31  1  0  0  0  0
 27 26  1  0  0  0  0
 28 27  2  0  0  0  0
 29 28  1  0  0  0  0
 29 24  2  0  0  0  0
 30 24  1  0  0  0  0
 32 37  1  6  0  0  0
 32 33  1  0  0  0  0
 32 42  1  0  0  0  0
 33 38  1  6  0  0  0
 33 28  1  0  0  0  0
 33 34  1  0  0  0  0
 35 39  1  0  0  0  0
 35 34  1  0  0  0  0
 36 41  1  6  0  0  0
 36 32  1  0  0  0  0
 36 35  1  0  0  0  0
 40 35  1  0  0  0  0
 43 42  1  0  0  0  0
 44 36  1  0  0  0  0
 44 45  1  0  0  0  0
M  END
>  <minimizedAffinity>
-6.16074896

$$$$

 OpenBabel03252503483D

 45 48  0  0  1  0  0  0  0  0999 V2000
   36.8460   31.5780   40.6440 C   0  0  0  0  0  0  0  0  0  0  0  0
   36.1490   31.5130   39.7740 H   0  0  0  0  0  0  0  0  0  0  0  0
   36.2940   32.1850   41.3890 H   0  0  0  0  0  0  0  0  0  0  0  0
   38.0820   32.2080   40.1660 C   0  0  0  0  0  0  0  0  0  0  0  0
   38.7200   33.2630   40.7780 C   0  0  0  0  0  0  0  0  0  0  0  0
   39.8740   33.8260   40.2830 C   0  0  0  0  0  0  0  0  0  0  0  0
   40.4090   33.3030   39.1190 C   0  0  0  0  0  0  0  0  0  0  0  0
   39.7720   32.2310   38.4890 C   0  0  0  0  0  0  0  0  0  0  0  0
   38.6000   31.6730   39.0100 C   0  0  0  0  0  0  0  0  0  0  0  0
   38.1920   33.5800   41.6870 H   0  0  0  0  0  0  0  0  0  0  0  0
   40.2860   34.6520   40.8510 H   0  0  0  0  0  0  0  0  0  0  0  0
   41.3120   33.8140   38.8160 H   0  0  0  0  0  0  0  0  0  0  0  0
   40.3600   31.9850   37.6010 H   0  0  0  0  0  0  0  0  0  0  0  0
   38.2660   30.6230   38.1210 N   0  0  0  0  0  0  0  0  0  0  0  0
   37.3350   30.9330   37.1670 C   0  0  0  0  0  3  0  0  0  0  0  0
   36.8850   30.0380   36.1910 C   0  0  0  0  0  0  0  0  0  0  0  0
   36.1460   30.3620   35.4730 H   0  0  0  0  0  0  0  0  0  0  0  0
   37.4330   28.7930   36.2310 C   0  0  0  0  0  0  0  0  0  0  0  0
   37.0650   27.9370   35.3740 O   0  0  0  0  0  0  0  0  0  0  0  0
   38.3480   28.4670   37.1560 N   0  0  0  0  0  0  0  0  0  0  0  0
   38.7280   29.3630   38.0490 C   0  0  0  0  0  0  0  0  0  0  0  0
   39.5870   29.0540   38.9120 O   0  0  0  0  0  0  0  0  0  0  0  0
   38.7640   27.5160   37.1850 H   0  0  0  0  0  0  0  0  0  0  0  0
   38.1610   29.9760   42.0050 C   0  0  0  0  0  0  0  0  0  0  0  0
   37.1120   30.2320   41.1280 C   0  0  0  0  0  0  0  0  0  0  0  0
   36.3310   29.1420   40.7410 C   0  0  0  0  0  0  0  0  0  0  0  0
   36.5820   27.8980   41.1980 N   0  0  0  0  0  0  0  0  0  0  0  0
   37.6160   27.6900   42.0530 C   0  0  0  0  0  0  0  0  0  0  0  0
   38.4010   28.7210   42.4550 N   0  0  0  0  0  0  0  0  0  0  0  0
   38.7680   30.7940   42.3110 H   0  0  0  0  0  0  0  0  0  0  0  0
   35.5210   29.2130   40.0630 H   0  0  0  0  0  0  0  0  0  0  0  0
   37.4100   25.2810   41.4680 C   0  0  2  0  0  0  0  0  0  0  0  0
   37.8500   26.3280   42.5310 C   0  0  1  0  0  0  0  0  0  0  0  0
   39.1490   25.9670   42.6610 O   0  0  0  0  0  0  0  0  0  0  0  0
   39.2020   24.6110   42.7750 C   0  0  0  0  0  0  0  0  0  0  0  0
   37.9090   24.0390   42.2160 C   0  0  2  0  0  0  0  0  0  0  0  0
   36.3200   25.2950   41.3620 H   0  0  0  0  0  0  0  0  0  0  0  0
   37.2660   26.1380   43.4590 H   0  0  0  0  0  0  0  0  0  0  0  0
   40.0270   24.2270   42.1360 H   0  0  0  0  0  0  0  0  0  0  0  0
   39.4060   24.2440   43.7980 H   0  0  0  0  0  0  0  0  0  0  0  0
   37.2640   23.8130   43.0920 H   0  0  0  0  0  0  0  0  0  0  0  0
   38.1480   25.4080   40.3520 O   0  0  0  0  0  0  0  0  0  0  0  0
   37.6430   25.0340   39.5720 H   0  0  0  0  0  0  0  0  0  0  0  0
   38.0900   22.9570   41.3890 O   0  0  0  0  0  0  0  0  0  0  0  0
   39.0310   22.8270   41.1790 H   0  0  0  0  0  0  0  0  0  0  0  0
  1 25  1  0  0  0  0
  1  3  1  0  0  0  0
  2  1  1  0  0  0  0
  4  1  1  0  0  0  0
  4  5  1  0  0  0  0
  5 10  1  0  0  0  0
  6  5  2  0  0  0  0
  6 11  1  0  0  0  0
  7  6  1  0  0  0  0
  8  9  1  0  0  0  0
  8  7  2  0  0  0  0
  9  4  2  0  0  0  0
 12  7  1  0  0  0  0
 13  8  1  0  0  0  0
 14  9  1  0  0  0  0
 15 14  1  0  0  0  0
 16 18  1  0  0  0  0
 16 15  2  0  0  0  0
 17 16  1  0  0  0  0
 18 20  1  0  0  0  0
 19 18  2  0  0  0  0
 20 23  1  0  0  0  0
 20 21  1  0  0  0  0
 21 14  1  0  0  0  0
 21 22  2  0  0  0  0
 24 30  1  0  0  0  0
 24 29  1  0  0  0  0
 25 24  2  0  0  0  0
 26 25  1  0  0  0  0
 26 27  2  0  0  0  0
 27 28  1  0  0  0  0
 28 29  2  0  0  0  0
 28 33  1  0  0  0  0
 31 26  1  0  0  0  0
 32 37  1  6  0  0  0
 32 36  1  0  0  0  0
 32 33  1  0  0  0  0
 33 34  1  0  0  0  0
 33 38  1  1  0  0  0
 34 35  1  0  0  0  0
 35 40  1  0  0  0  0
 36 35  1  0  0  0  0
 36 41  1  1  0  0  0
 39 35  1  0  0  0  0
 42 32  1  0  0  0  0
 43 42  1  0  0  0  0
 44 36  1  0  0  0  0
 45 44  1  0  0  0  0
M  END
>  <minimizedAffinity>
-6.06939936

$$$$

 OpenBabel03252503483D

 45 48  0  0  1  0  0  0  0  0999 V2000
   38.4890   27.8200   39.5620 C   0  0  0  0  0  0  0  0  0  0  0  0
   39.0740   26.8930   39.3480 H   0  0  0  0  0  0  0  0  0  0  0  0
   39.2190   28.6420   39.4200 H   0  0  0  0  0  0  0  0  0  0  0  0
   37.9850   27.7090   40.9360 C   0  0  0  0  0  0  0  0  0  0  0  0
   37.7910   26.5280   41.6150 C   0  0  0  0  0  0  0  0  0  0  0  0
   37.3060   26.4760   42.9010 C   0  0  0  0  0  0  0  0  0  0  0  0
   37.0030   27.6700   43.5330 C   0  0  0  0  0  0  0  0  0  0  0  0
   37.1960   28.8760   42.8560 C   0  0  0  0  0  0  0  0  0  0  0  0
   37.6920   28.9050   41.5480 C   0  0  0  0  0  0  0  0  0  0  0  0
   38.0700   25.6610   41.0000 H   0  0  0  0  0  0  0  0  0  0  0  0
   37.1960   25.4880   43.3330 H   0  0  0  0  0  0  0  0  0  0  0  0
   36.6310   27.5190   44.5370 H   0  0  0  0  0  0  0  0  0  0  0  0
   36.8950   29.6770   43.5350 H   0  0  0  0  0  0  0  0  0  0  0  0
   37.7600   30.2790   41.2120 N   0  0  0  0  0  0  0  0  0  0  0  0
   38.9710   30.8790   41.4330 C   0  0  0  0  0  3  0  0  0  0  0  0
   39.2420   32.2220   41.1540 C   0  0  0  0  0  0  0  0  0  0  0  0
   40.2260   32.6190   41.3600 H   0  0  0  0  0  0  0  0  0  0  0  0
   38.2110   32.9390   40.6310 C   0  0  0  0  0  0  0  0  0  0  0  0
   38.3940   34.1610   40.3580 O   0  0  0  0  0  0  0  0  0  0  0  0
   37.0160   32.3720   40.4040 N   0  0  0  0  0  0  0  0  0  0  0  0
   36.8290   31.0960   40.6920 C   0  0  0  0  0  0  0  0  0  0  0  0
   35.7100   30.5680   40.4750 O   0  0  0  0  0  0  0  0  0  0  0  0
   36.2300   32.9210   40.0060 H   0  0  0  0  0  0  0  0  0  0  0  0
   36.3810   26.9410   38.5970 C   0  0  0  0  0  0  0  0  0  0  0  0
   37.3850   27.9030   38.6190 C   0  0  0  0  0  0  0  0  0  0  0  0
   37.2800   28.9470   37.6980 C   0  0  0  0  0  0  0  0  0  0  0  0
   36.2500   29.0190   36.8290 N   0  0  0  0  0  0  0  0  0  0  0  0
   35.2910   28.0590   36.8410 C   0  0  0  0  0  0  0  0  0  0  0  0
   35.3540   27.0260   37.7180 N   0  0  0  0  0  0  0  0  0  0  0  0
   36.4440   26.1370   39.2910 H   0  0  0  0  0  0  0  0  0  0  0  0
   37.9940   29.7230   37.6080 H   0  0  0  0  0  0  0  0  0  0  0  0
   32.8380   27.7710   36.5460 C   0  0  2  0  0  0  0  0  0  0  0  0
   34.1880   28.1770   35.8880 C   0  0  1  0  0  0  0  0  0  0  0  0
   33.8710   29.4370   35.5090 O   0  0  0  0  0  0  0  0  0  0  0  0
   32.6470   29.4060   34.9140 C   0  0  0  0  0  0  0  0  0  0  0  0
   31.9380   28.1360   35.3590 C   0  0  2  0  0  0  0  0  0  0  0  0
   32.8340   26.6970   36.7580 H   0  0  0  0  0  0  0  0  0  0  0  0
   34.3570   27.5050   35.0160 H   0  0  0  0  0  0  0  0  0  0  0  0
   32.0410   30.2610   35.2890 H   0  0  0  0  0  0  0  0  0  0  0  0
   32.6680   29.5010   33.8130 H   0  0  0  0  0  0  0  0  0  0  0  0
   32.0560   27.4070   34.5290 H   0  0  0  0  0  0  0  0  0  0  0  0
   32.5390   28.6080   37.5550 O   0  0  0  0  0  0  0  0  0  0  0  0
   31.9200   28.1520   38.1960 H   0  0  0  0  0  0  0  0  0  0  0  0
   30.6280   28.3270   35.7230 O   0  0  0  0  0  0  0  0  0  0  0  0
   30.4120   29.2740   35.7780 H   0  0  0  0  0  0  0  0  0  0  0  0
  1  4  1  0  0  0  0
  2  1  1  0  0  0  0
  3  1  1  0  0  0  0
  4  9  2  0  0  0  0
  4  5  1  0  0  0  0
  5  6  2  0  0  0  0
  6 11  1  0  0  0  0
  6  7  1  0  0  0  0
  7 12  1  0  0  0  0
  8  7  2  0  0  0  0
  8 13  1  0  0  0  0
  9  8  1  0  0  0  0
 10  5  1  0  0  0  0
 14 15  1  0  0  0  0
 14  9  1  0  0  0  0
 16 17  1  0  0  0  0
 16 15  2  0  0  0  0
 18 16  1  0  0  0  0
 19 18  2  0  0  0  0
 20 18  1  0  0  0  0
 20 21  1  0  0  0  0
 21 14  1  0  0  0  0
 22 21  2  0  0  0  0
 23 20  1  0  0  0  0
 24 25  1  0  0  0  0
 24 30  1  0  0  0  0
 25  1  1  0  0  0  0
 26 25  2  0  0  0  0
 27 28  2  0  0  0  0
 27 26  1  0  0  0  0
 28 29  1  0  0  0  0
 29 24  2  0  0  0  0
 31 26  1  0  0  0  0
 32 37  1  1  0  0  0
 32 42  1  0  0  0  0
 33 38  1  6  0  0  0
 33 32  1  0  0  0  0
 33 28  1  0  0  0  0
 34 33  1  0  0  0  0
 35 39  1  0  0  0  0
 35 36  1  0  0  0  0
 35 34  1  0  0  0  0
 36 41  1  6  0  0  0
 36 44  1  0  0  0  0
 36 32  1  0  0  0  0
 40 35  1  0  0  0  0
 42 43  1  0  0  0  0
 44 45  1  0  0  0  0
M  END
>  <minimizedAffinity>
-6.01955032

$$$$
