
 OpenBabel03252508463D

 46 48  0  0  0  0  0  0  0  0999 V2000
   42.5690   31.6280   42.5550 N   0  0  0  0  0  0  0  0  0  0  0  0
   43.0720   30.7150   42.6340 H   0  0  0  0  0  0  0  0  0  0  0  0
   43.0940   32.5430   41.5970 C   0  0  0  0  0  0  0  0  0  0  0  0
   43.7300   32.0040   40.8360 H   0  0  0  0  0  0  0  0  0  0  0  0
   42.2480   32.9810   41.0390 H   0  0  0  0  0  0  0  0  0  0  0  0
   43.6760   34.9650   41.8830 C   0  0  0  0  0  0  0  0  0  0  0  0
   43.9420   33.6280   42.1670 C   0  0  0  0  0  0  0  0  0  0  0  0
   45.0080   33.3300   42.9900 C   0  0  0  0  0  0  0  0  0  0  0  0
   45.7740   34.3440   43.5030 C   0  0  0  0  0  0  0  0  0  0  0  0
   45.5350   35.6630   43.2410 C   0  0  0  0  0  0  0  0  0  0  0  0
   44.4580   35.9100   42.4130 C   0  0  0  0  0  0  0  0  0  0  0  0
   45.2500   32.3050   43.2360 H   0  0  0  0  0  0  0  0  0  0  0  0
   46.6170   34.0930   44.1540 H   0  0  0  0  0  0  0  0  0  0  0  0
   46.1080   36.4950   43.6200 H   0  0  0  0  0  0  0  0  0  0  0  0
   44.1880   36.9360   42.1460 H   0  0  0  0  0  0  0  0  0  0  0  0
   40.2650   35.8200   40.5110 C   0  0  0  0  0  0  0  0  0  0  0  0
   41.2860   35.6020   41.4430 C   0  0  0  0  0  0  0  0  0  0  0  0
   42.5370   35.2200   41.0090 C   0  0  0  0  0  0  0  0  0  0  0  0
   42.6970   35.0770   39.6620 N   0  0  0  0  0  0  0  0  0  0  0  0
   41.7080   35.2910   38.7680 C   0  0  0  0  0  0  0  0  0  0  0  0
   40.4940   35.6620   39.2070 N   0  0  0  0  0  0  0  0  0  0  0  0
   39.2830   36.1210   40.8560 H   0  0  0  0  0  0  0  0  0  0  0  0
   41.1420   35.7190   42.4900 H   0  0  0  0  0  0  0  0  0  0  0  0
   42.0340   35.1240   37.7350 H   0  0  0  0  0  0  0  0  0  0  0  0
   40.8910   31.3350   42.3370 S   0  0  0  0  0  0  0  0  0  0  0  0
   40.0950   32.6090   42.4980 O   0  0  0  0  0  0  0  0  0  0  0  0
   39.3190   32.7440   43.0940 H   0  0  0  0  0  0  0  0  0  0  0  0
   40.4040   30.2950   43.2840 O   0  0  0  0  0  0  0  0  0  0  0  0
   40.9250   29.4550   43.4870 H   0  0  0  0  0  0  0  0  0  0  0  0
   40.6740   30.7750   40.7660 O   0  0  0  0  0  0  0  0  0  0  0  0
   40.1570   29.4850   40.8420 C   0  0  0  0  0  0  0  0  0  0  0  0
   39.0650   29.5640   40.5910 H   0  0  0  0  0  0  0  0  0  0  0  0
   40.2650   28.9950   41.8050 H   0  0  0  0  0  0  0  0  0  0  0  0
   40.7700   28.6410   39.7090 C   0  0  0  0  0  0  0  0  0  0  0  0
   41.8610   28.8320   39.6860 H   0  0  0  0  0  0  0  0  0  0  0  0
   40.6250   27.5760   39.9240 H   0  0  0  0  0  0  0  0  0  0  0  0
   40.1160   28.9930   38.4660 N   0  0  0  0  0  0  0  0  0  0  0  0
   38.7820   28.8140   38.3380 C   0  0  0  0  0  3  0  0  0  0  0  0
   38.2080   29.1700   37.1230 C   0  0  0  0  0  0  0  0  0  0  0  0
   37.1270   29.0440   36.9630 H   0  0  0  0  0  0  0  0  0  0  0  0
   39.0100   29.6800   36.1240 C   0  0  0  0  0  0  0  0  0  0  0  0
   38.5290   30.0210   34.9950 O   0  0  0  0  0  0  0  0  0  0  0  0
   40.3440   29.8400   36.3070 N   0  0  0  0  0  0  0  0  0  0  0  0
   40.8900   29.4930   37.4830 C   0  0  0  0  0  0  0  0  0  0  0  0
   42.1470   29.6430   37.6590 O   0  0  0  0  0  0  0  0  0  0  0  0
   40.9810   30.2220   35.5750 H   0  0  0  0  0  0  0  0  0  0  0  0
  1  2  1  0  0  0  0
  3  7  1  0  0  0  0
  3  1  1  0  0  0  0
  4  3  1  0  0  0  0
  5  3  1  0  0  0  0
  6  7  2  0  0  0  0
  6 11  1  0  0  0  0
  7  8  1  0  0  0  0
  8 12  1  0  0  0  0
  8  9  2  0  0  0  0
  9 13  1  0  0  0  0
 10  9  1  0  0  0  0
 10 14  1  0  0  0  0
 11 10  2  0  0  0  0
 15 11  1  0  0  0  0
 16 22  1  0  0  0  0
 16 17  1  0  0  0  0
 17 23  1  0  0  0  0
 18 17  2  0  0  0  0
 18  6  1  0  0  0  0
 19 18  1  0  0  0  0
 20 21  1  0  0  0  0
 20 19  2  0  0  0  0
 21 16  2  0  0  0  0
 24 20  1  0  0  0  0
 25 26  1  0  0  0  0
 25  1  1  0  0  0  0
 25 28  1  0  0  0  0
 26 27  1  0  0  0  0
 28 29  1  0  0  0  0
 30 31  1  0  0  0  0
 30 25  1  0  0  0  0
 31 33  1  0  0  0  0
 32 31  1  0  0  0  0
 34 36  1  0  0  0  0
 34 31  1  0  0  0  0
 35 34  1  0  0  0  0
 37 34  1  0  0  0  0
 38 37  1  0  0  0  0
 39 38  2  0  0  0  0
 40 39  1  0  0  0  0
 41 43  1  0  0  0  0
 41 39  1  0  0  0  0
 42 41  2  0  0  0  0
 43 44  1  0  0  0  0
 44 45  2  0  0  0  0
 44 37  1  0  0  0  0
 46 43  1  0  0  0  0
M  END
>  <minimizedAffinity>
-5.04162979

>  <minimizedRMSD>
1.73145211

$$$$
