
 OpenBabel03252506183D

 24 25  0  0  0  0  0  0  0  0999 V2000
   44.8200   35.7570   43.4970 C   0  0  0  0  0  0  0  0  0  0  0  0
   44.4710   35.7680   42.1350 C   0  0  0  0  0  0  0  0  0  0  0  0
   44.4530   34.5650   41.4420 C   0  0  0  0  0  0  0  0  0  0  0  0
   44.7730   33.4390   42.1180 N   0  0  0  0  0  0  0  0  0  0  0  0
   45.1040   33.4520   43.4280 C   0  0  0  0  0  0  0  0  0  0  0  0
   45.1250   34.5970   44.1060 N   0  0  0  0  0  0  0  0  0  0  0  0
   44.2360   36.7230   41.7060 H   0  0  0  0  0  0  0  0  0  0  0  0
   44.1850   34.5720   40.3920 H   0  0  0  0  0  0  0  0  0  0  0  0
   45.4120   32.1810   43.9850 N   0  0  0  0  0  0  0  0  0  0  0  0
   44.8510   31.0250   43.5280 C   0  0  0  0  0  3  0  0  0  0  0  0
   45.1690   29.8030   44.0880 C   0  0  0  0  0  0  0  0  0  0  0  0
   44.6920   28.9060   43.6840 H   0  0  0  0  0  0  0  0  0  0  0  0
   46.0720   29.7450   45.1300 C   0  0  0  0  0  0  0  0  0  0  0  0
   46.3420   28.6260   45.6180 O   0  0  0  0  0  0  0  0  0  0  0  0
   46.6060   30.9230   45.5540 N   0  0  0  0  0  0  0  0  0  0  0  0
   46.2870   32.1060   44.9980 C   0  0  0  0  0  0  0  0  0  0  0  0
   46.8710   33.1150   45.5070 O   0  0  0  0  0  0  0  0  0  0  0  0
   47.2860   30.7740   46.3560 H   0  0  0  0  0  0  0  0  0  0  0  0
   44.8440   37.0250   44.2480 C   0  0  0  0  0  3  0  0  0  0  0  0
   45.3300   38.0850   43.6150 C   0  0  0  0  0  3  0  0  0  0  0  0
   45.3830   39.4000   44.3190 C   0  0  0  0  0  0  0  0  0  0  0  0
   45.4000   40.1870   43.5140 H   0  0  0  0  0  0  0  0  0  0  0  0
   44.5570   39.5390   45.0290 H   0  0  0  0  0  0  0  0  0  0  0  0
   46.3340   39.4580   44.8830 H   0  0  0  0  0  0  0  0  0  0  0  0
  1  6  1  0  0  0  0
  1 19  1  0  0  0  0
  2  1  2  0  0  0  0
  3  4  2  0  0  0  0
  3  2  1  0  0  0  0
  4  5  1  0  0  0  0
  5  9  1  0  0  0  0
  5  6  2  0  0  0  0
  7  2  1  0  0  0  0
  8  3  1  0  0  0  0
  9 16  1  0  0  0  0
 10  9  1  0  0  0  0
 10 11  2  0  0  0  0
 11 13  1  0  0  0  0
 12 11  1  0  0  0  0
 13 15  1  0  0  0  0
 13 14  2  0  0  0  0
 15 18  1  0  0  0  0
 16 17  2  0  0  0  0
 16 15  1  0  0  0  0
 20 19  2  0  0  0  0
 20 21  1  0  0  0  0
 21 24  1  0  0  0  0
 21 23  1  0  0  0  0
 22 21  1  0  0  0  0
M  END
>  <minimizedAffinity>
-3.51847148

>  <minimizedRMSD>
0.54850471

$$$$
