
 OpenBabel03242521443D

 39 41  0  0  1  0  0  0  0  0999 V2000
   45.5810   35.5270   43.7220 C   0  0  0  0  0  0  0  0  0  0  0  0
   46.6130   34.7300   43.2310 C   0  0  0  0  0  0  0  0  0  0  0  0
   47.0260   33.6070   43.9380 C   0  0  0  0  0  0  0  0  0  0  0  0
   46.3900   33.3500   45.0810 N   0  0  0  0  0  0  0  0  0  0  0  0
   45.3880   34.1220   45.5580 C   0  0  0  0  0  0  0  0  0  0  0  0
   44.9740   35.2120   44.8890 N   0  0  0  0  0  0  0  0  0  0  0  0
   47.0430   35.0350   42.3090 H   0  0  0  0  0  0  0  0  0  0  0  0
   44.8780   33.9040   46.4870 H   0  0  0  0  0  0  0  0  0  0  0  0
   49.0830   33.5980   42.5500 C   0  0  2  0  0  0  0  0  0  0  0  0
   48.1050   32.8240   43.3630 C   0  0  2  0  0  0  0  0  0  0  0  0
   47.6800   31.8450   42.4180 O   0  0  0  0  0  0  0  0  0  0  0  0
   48.8920   31.3460   41.9720 C   0  0  0  0  0  0  0  0  0  0  0  0
   49.9330   32.4180   42.0430 C   0  0  1  0  0  0  0  0  0  0  0  0
   48.6230   34.0070   41.6100 H   0  0  0  0  0  0  0  0  0  0  0  0
   48.6490   32.2990   44.1820 H   0  0  0  0  0  0  0  0  0  0  0  0
   49.1720   30.4380   42.5640 H   0  0  0  0  0  0  0  0  0  0  0  0
   48.7640   31.0630   40.9040 H   0  0  0  0  0  0  0  0  0  0  0  0
   50.7510   32.1900   42.7340 H   0  0  0  0  0  0  0  0  0  0  0  0
   49.7910   34.5330   43.2420 O   0  0  0  0  0  0  0  0  0  0  0  0
   50.5940   34.7640   42.6910 H   0  0  0  0  0  0  0  0  0  0  0  0
   50.4950   32.7640   40.8180 O   0  0  0  0  0  0  0  0  0  0  0  0
   49.8800   32.7570   40.0650 H   0  0  0  0  0  0  0  0  0  0  0  0
   45.1560   36.7390   42.9560 C   0  0  0  0  0  0  0  0  0  0  0  0
   46.0190   37.0800   42.3330 H   0  0  0  0  0  0  0  0  0  0  0  0
   44.2500   36.5350   42.3410 H   0  0  0  0  0  0  0  0  0  0  0  0
   45.3500   39.1240   43.9160 C   0  0  0  0  0  0  0  0  0  0  0  0
   46.0800   39.4280   42.9030 O   0  0  0  0  0  0  0  0  0  0  0  0
   44.8880   37.7930   43.8940 N   0  0  0  0  0  0  0  0  0  0  0  0
   44.2480   37.4900   44.6540 H   0  0  0  0  0  0  0  0  0  0  0  0
   44.8670   40.2200   48.2530 H   0  0  0  0  0  0  0  0  0  0  0  0
   44.8640   40.5640   47.2790 N   0  0  0  0  0  0  0  0  0  0  0  0
   45.0870   39.7240   46.2600 C   0  0  0  0  0  3  0  0  0  0  0  0
   45.0950   40.1350   44.9240 C   0  0  0  0  0  0  0  0  0  0  0  0
   44.8480   41.4810   44.7870 C   0  0  0  0  0  0  0  0  0  0  0  0
   44.8410   41.9130   43.6110 O   0  0  0  0  0  0  0  0  0  0  0  0
   44.6220   42.3430   45.7880 N   0  0  0  0  0  0  0  0  0  0  0  0
   44.6320   41.8660   47.0430 C   0  0  0  0  0  0  0  0  0  0  0  0
   44.4210   42.6830   47.9560 O   0  0  0  0  0  0  0  0  0  0  0  0
   44.4480   43.3430   45.5480 H   0  0  0  0  0  0  0  0  0  0  0  0
  1  6  1  0  0  0  0
  2  1  2  0  0  0  0
  2  3  1  0  0  0  0
  3  4  2  0  0  0  0
  4  5  1  0  0  0  0
  5  8  1  0  0  0  0
  6  5  2  0  0  0  0
  7  2  1  0  0  0  0
  9 14  1  6  0  0  0
  9 19  1  0  0  0  0
  9 10  1  0  0  0  0
 10  3  1  0  0  0  0
 10 15  1  1  0  0  0
 11 10  1  0  0  0  0
 12 13  1  0  0  0  0
 12 11  1  0  0  0  0
 12 16  1  0  0  0  0
 13  9  1  0  0  0  0
 13 18  1  1  0  0  0
 17 12  1  0  0  0  0
 20 19  1  0  0  0  0
 21 13  1  0  0  0  0
 22 21  1  0  0  0  0
 23  1  1  0  0  0  0
 23 28  1  0  0  0  0
 24 23  1  0  0  0  0
 25 23  1  0  0  0  0
 26 33  1  0  0  0  0
 27 26  2  0  0  0  0
 28 26  1  0  0  0  0
 28 29  1  0  0  0  0
 31 30  1  0  0  0  0
 32 31  1  0  0  0  0
 33 32  2  0  0  0  0
 34 33  1  0  0  0  0
 34 36  1  0  0  0  0
 35 34  2  0  0  0  0
 36 37  1  0  0  0  0
 37 31  1  0  0  0  0
 37 38  2  0  0  0  0
 39 36  1  0  0  0  0
M  END
>  <minimizedAffinity>
-3.25675058

>  <minimizedRMSD>
0.89363265

$$$$
