
 OpenBabel03242518373D

 36 39  0  0  1  0  0  0  0  0999 V2000
   37.1370   26.7270   42.6700 C   0  0  0  0  0  0  0  0  0  0  0  0
   37.7150   27.4350   43.7160 C   0  0  0  0  0  0  0  0  0  0  0  0
   37.6300   28.7930   43.4410 C   0  0  0  0  0  0  0  0  0  0  0  0
   36.9980   28.8390   42.2270 C   0  0  0  0  0  0  0  0  0  0  0  0
   36.7150   27.6300   41.7850 O   0  0  0  0  0  0  0  0  0  0  0  0
   38.1330   26.9080   44.5590 H   0  0  0  0  0  0  0  0  0  0  0  0
   38.0050   29.5590   44.0960 H   0  0  0  0  0  0  0  0  0  0  0  0
   36.6710   30.0820   41.5090 C   0  0  2  0  0  0  0  0  0  0  0  0
   36.2760   30.0270   40.0890 C   0  0  0  0  0  0  0  0  0  0  0  0
   37.6790   30.4390   40.3980 C   0  0  1  0  0  0  0  0  0  0  0  0
   36.3750   30.9240   42.1680 H   0  0  0  0  0  0  0  0  0  0  0  0
   35.5980   30.8430   39.7290 H   0  0  0  0  0  0  0  0  0  0  0  0
   36.1560   29.0080   39.6400 H   0  0  0  0  0  0  0  0  0  0  0  0
   38.4780   29.7130   40.1800 H   0  0  0  0  0  0  0  0  0  0  0  0
   38.0450   31.8340   40.3870 N   0  0  0  0  0  0  0  0  0  0  0  0
   37.2530   32.6140   39.6250 C   0  0  0  0  0  3  0  0  0  0  0  0
   37.4840   33.9850   39.5160 C   0  0  0  0  0  0  0  0  0  0  0  0
   36.8950   34.6760   38.9260 H   0  0  0  0  0  0  0  0  0  0  0  0
   38.5710   34.4350   40.2520 C   0  0  0  0  0  0  0  0  0  0  0  0
   38.8450   35.6610   40.2060 O   0  0  0  0  0  0  0  0  0  0  0  0
   39.3710   33.6640   41.0190 N   0  0  0  0  0  0  0  0  0  0  0  0
   39.0730   32.3340   41.0660 C   0  0  0  0  0  0  0  0  0  0  0  0
   39.7890   31.5830   41.7670 O   0  0  0  0  0  0  0  0  0  0  0  0
   40.1680   34.0950   41.5360 H   0  0  0  0  0  0  0  0  0  0  0  0
   36.9650   25.3460   42.4590 O   0  0  0  0  0  0  0  0  0  0  0  0
   37.9070   24.6340   41.6890 C   0  0  0  0  0  0  0  0  0  0  0  0
   39.1090   24.9610   41.8670 O   0  0  0  0  0  0  0  0  0  0  0  0
   37.3950   23.6410   40.8130 C   0  0  0  0  0  0  0  0  0  0  0  0
   36.1700   23.9160   40.2710 C   0  0  0  0  0  0  0  0  0  0  0  0
   35.6130   22.9840   39.4040 C   0  0  0  0  0  0  0  0  0  0  0  0
   36.3110   21.8510   39.1380 N   0  0  0  0  0  0  0  0  0  0  0  0
   37.5020   21.6160   39.6840 C   0  0  0  0  0  0  0  0  0  0  0  0
   38.0310   22.5230   40.5200 N   0  0  0  0  0  0  0  0  0  0  0  0
   35.6060   24.8050   40.4690 H   0  0  0  0  0  0  0  0  0  0  0  0
   34.6450   23.1490   38.9440 H   0  0  0  0  0  0  0  0  0  0  0  0
   37.9640   20.6790   39.3990 H   0  0  0  0  0  0  0  0  0  0  0  0
  1  2  2  0  0  0  0
  2  6  1  0  0  0  0
  3  2  1  0  0  0  0
  3  7  1  0  0  0  0
  4  3  2  0  0  0  0
  5  4  1  0  0  0  0
  5  1  1  0  0  0  0
  8 11  1  1  0  0  0
  8  4  1  0  0  0  0
  9 10  1  0  0  0  0
  9  8  1  0  0  0  0
 10 14  1  6  0  0  0
 10  8  1  0  0  0  0
 12  9  1  0  0  0  0
 13  9  1  0  0  0  0
 15 10  1  0  0  0  0
 15 22  1  0  0  0  0
 16 15  1  0  0  0  0
 17 16  2  0  0  0  0
 17 19  1  0  0  0  0
 18 17  1  0  0  0  0
 19 21  1  0  0  0  0
 20 19  2  0  0  0  0
 21 22  1  0  0  0  0
 21 24  1  0  0  0  0
 22 23  2  0  0  0  0
 25  1  1  0  0  0  0
 26 27  2  0  0  0  0
 26 25  1  0  0  0  0
 28 26  1  0  0  0  0
 29 34  1  0  0  0  0
 29 28  2  0  0  0  0
 30 29  1  0  0  0  0
 31 30  2  0  0  0  0
 31 32  1  0  0  0  0
 32 33  2  0  0  0  0
 33 28  1  0  0  0  0
 35 30  1  0  0  0  0
 36 32  1  0  0  0  0
M  END
>  <minimizedAffinity>
-6.30986691

$$$$

 OpenBabel03242518373D

 36 39  0  0  1  0  0  0  0  0999 V2000
   37.0110   26.7680   42.8050 C   0  0  0  0  0  0  0  0  0  0  0  0
   37.6370   27.5080   43.8010 C   0  0  0  0  0  0  0  0  0  0  0  0
   37.5970   28.8520   43.4540 C   0  0  0  0  0  0  0  0  0  0  0  0
   36.9420   28.8570   42.2510 C   0  0  0  0  0  0  0  0  0  0  0  0
   36.6050   27.6380   41.8810 O   0  0  0  0  0  0  0  0  0  0  0  0
   38.0520   27.0120   44.6630 H   0  0  0  0  0  0  0  0  0  0  0  0
   38.0150   29.6370   44.0590 H   0  0  0  0  0  0  0  0  0  0  0  0
   36.6480   30.0720   41.4730 C   0  0  2  0  0  0  0  0  0  0  0  0
   36.3650   29.9680   40.0290 C   0  0  0  0  0  0  0  0  0  0  0  0
   37.7320   30.4190   40.4330 C   0  0  1  0  0  0  0  0  0  0  0  0
   36.2840   30.9250   42.0820 H   0  0  0  0  0  0  0  0  0  0  0  0
   35.7020   30.7570   39.5930 H   0  0  0  0  0  0  0  0  0  0  0  0
   36.3020   28.9330   39.6020 H   0  0  0  0  0  0  0  0  0  0  0  0
   38.5600   29.7050   40.2990 H   0  0  0  0  0  0  0  0  0  0  0  0
   38.0690   31.8210   40.4080 N   0  0  0  0  0  0  0  0  0  0  0  0
   37.2750   32.5740   39.6230 C   0  0  0  0  0  3  0  0  0  0  0  0
   37.4790   33.9480   39.4980 C   0  0  0  0  0  0  0  0  0  0  0  0
   36.8860   34.6190   38.8890 H   0  0  0  0  0  0  0  0  0  0  0  0
   38.5450   34.4300   40.2450 C   0  0  0  0  0  0  0  0  0  0  0  0
   38.7950   35.6610   40.1860 O   0  0  0  0  0  0  0  0  0  0  0  0
   39.3480   33.6870   41.0350 N   0  0  0  0  0  0  0  0  0  0  0  0
   39.0760   32.3510   41.0970 C   0  0  0  0  0  0  0  0  0  0  0  0
   39.7960   31.6250   41.8190 O   0  0  0  0  0  0  0  0  0  0  0  0
   40.1270   34.1410   41.5590 H   0  0  0  0  0  0  0  0  0  0  0  0
   36.7830   25.3850   42.6730 O   0  0  0  0  0  0  0  0  0  0  0  0
   37.5600   24.6320   41.7700 C   0  0  0  0  0  0  0  0  0  0  0  0
   36.9150   23.8530   41.0210 O   0  0  0  0  0  0  0  0  0  0  0  0
   38.9640   24.8390   41.8100 C   0  0  0  0  0  0  0  0  0  0  0  0
   39.5290   25.2350   40.6290 C   0  0  0  0  0  0  0  0  0  0  0  0
   40.9010   25.4560   40.6020 C   0  0  0  0  0  0  0  0  0  0  0  0
   41.6090   25.2670   41.7440 N   0  0  0  0  0  0  0  0  0  0  0  0
   41.0240   24.8810   42.8760 C   0  0  0  0  0  0  0  0  0  0  0  0
   39.6990   24.6710   42.8920 N   0  0  0  0  0  0  0  0  0  0  0  0
   38.9860   25.3890   39.7190 H   0  0  0  0  0  0  0  0  0  0  0  0
   41.4030   25.7710   39.6940 H   0  0  0  0  0  0  0  0  0  0  0  0
   41.6900   24.7630   43.7210 H   0  0  0  0  0  0  0  0  0  0  0  0
  1  2  2  0  0  0  0
  2  6  1  0  0  0  0
  3  2  1  0  0  0  0
  3  7  1  0  0  0  0
  4  3  2  0  0  0  0
  5  4  1  0  0  0  0
  5  1  1  0  0  0  0
  8 11  1  1  0  0  0
  8  4  1  0  0  0  0
  9 10  1  0  0  0  0
  9  8  1  0  0  0  0
 10 14  1  6  0  0  0
 10  8  1  0  0  0  0
 12  9  1  0  0  0  0
 13  9  1  0  0  0  0
 15 10  1  0  0  0  0
 15 22  1  0  0  0  0
 16 15  1  0  0  0  0
 17 16  2  0  0  0  0
 17 19  1  0  0  0  0
 18 17  1  0  0  0  0
 19 21  1  0  0  0  0
 20 19  2  0  0  0  0
 21 22  1  0  0  0  0
 21 24  1  0  0  0  0
 22 23  2  0  0  0  0
 25  1  1  0  0  0  0
 26 28  1  0  0  0  0
 26 25  1  0  0  0  0
 27 26  2  0  0  0  0
 28 33  1  0  0  0  0
 29 28  2  0  0  0  0
 30 29  1  0  0  0  0
 30 31  2  0  0  0  0
 31 32  1  0  0  0  0
 32 33  2  0  0  0  0
 32 36  1  0  0  0  0
 34 29  1  0  0  0  0
 35 30  1  0  0  0  0
M  END
>  <minimizedAffinity>
-6.283494

$$$$

 OpenBabel03242518373D

 36 39  0  0  1  0  0  0  0  0999 V2000
   36.5420   28.8510   41.5480 C   0  0  0  0  0  0  0  0  0  0  0  0
   35.6430   29.0070   40.4990 C   0  0  0  0  0  0  0  0  0  0  0  0
   35.7880   30.2810   39.9690 C   0  0  0  0  0  0  0  0  0  0  0  0
   36.7790   30.8400   40.7330 C   0  0  0  0  0  0  0  0  0  0  0  0
   37.2100   29.9990   41.6510 O   0  0  0  0  0  0  0  0  0  0  0  0
   34.9850   28.1980   40.2280 H   0  0  0  0  0  0  0  0  0  0  0  0
   35.2080   30.6530   39.1430 H   0  0  0  0  0  0  0  0  0  0  0  0
   37.2980   32.2060   40.5470 C   0  0  2  0  0  0  0  0  0  0  0  0
   37.1930   32.8570   39.2280 C   0  0  0  0  0  0  0  0  0  0  0  0
   38.5190   32.2820   39.6080 C   0  0  1  0  0  0  0  0  0  0  0  0
   37.3840   32.7910   41.4850 H   0  0  0  0  0  0  0  0  0  0  0  0
   37.1300   33.9750   39.2280 H   0  0  0  0  0  0  0  0  0  0  0  0
   36.6300   32.2990   38.4350 H   0  0  0  0  0  0  0  0  0  0  0  0
   38.8320   31.3560   39.1010 H   0  0  0  0  0  0  0  0  0  0  0  0
   39.5660   33.1400   40.1040 N   0  0  0  0  0  0  0  0  0  0  0  0
   39.4190   34.4410   39.7910 C   0  0  0  0  0  3  0  0  0  0  0  0
   40.3530   35.3920   40.2020 C   0  0  0  0  0  0  0  0  0  0  0  0
   40.3050   36.4530   39.9900 H   0  0  0  0  0  0  0  0  0  0  0  0
   41.4040   34.8660   40.9400 C   0  0  0  0  0  0  0  0  0  0  0  0
   42.2900   35.6600   41.3480 O   0  0  0  0  0  0  0  0  0  0  0  0
   41.5630   33.5650   41.2620 N   0  0  0  0  0  0  0  0  0  0  0  0
   40.6010   32.7060   40.8170 C   0  0  0  0  0  0  0  0  0  0  0  0
   40.7100   31.4900   41.0930 O   0  0  0  0  0  0  0  0  0  0  0  0
   42.3900   33.2650   41.8230 H   0  0  0  0  0  0  0  0  0  0  0  0
   36.7970   27.7650   42.4060 O   0  0  0  0  0  0  0  0  0  0  0  0
   37.5990   27.9520   43.5510 C   0  0  0  0  0  0  0  0  0  0  0  0
   36.9950   28.3780   44.5700 O   0  0  0  0  0  0  0  0  0  0  0  0
   38.9780   27.6400   43.4220 C   0  0  0  0  0  0  0  0  0  0  0  0
   39.3250   26.3670   43.7820 C   0  0  0  0  0  0  0  0  0  0  0  0
   40.6600   25.9980   43.6780 C   0  0  0  0  0  0  0  0  0  0  0  0
   41.5510   26.9160   43.2260 N   0  0  0  0  0  0  0  0  0  0  0  0
   41.1770   28.1470   42.8840 C   0  0  0  0  0  0  0  0  0  0  0  0
   39.8840   28.4930   42.9870 N   0  0  0  0  0  0  0  0  0  0  0  0
   38.6350   25.6300   44.1410 H   0  0  0  0  0  0  0  0  0  0  0  0
   40.9930   25.0030   43.9490 H   0  0  0  0  0  0  0  0  0  0  0  0
   41.9750   28.7920   42.5370 H   0  0  0  0  0  0  0  0  0  0  0  0
  1  5  1  0  0  0  0
  1 25  1  0  0  0  0
  2  1  2  0  0  0  0
  3  2  1  0  0  0  0
  3  4  2  0  0  0  0
  4  5  1  0  0  0  0
  6  2  1  0  0  0  0
  7  3  1  0  0  0  0
  8  4  1  0  0  0  0
  8 11  1  1  0  0  0
  9 10  1  0  0  0  0
  9  8  1  0  0  0  0
 10 14  1  6  0  0  0
 10 15  1  0  0  0  0
 10  8  1  0  0  0  0
 12  9  1  0  0  0  0
 13  9  1  0  0  0  0
 15 22  1  0  0  0  0
 16 15  1  0  0  0  0
 16 17  2  0  0  0  0
 17 19  1  0  0  0  0
 18 17  1  0  0  0  0
 19 21  1  0  0  0  0
 19 20  2  0  0  0  0
 21 24  1  0  0  0  0
 22 23  2  0  0  0  0
 22 21  1  0  0  0  0
 25 26  1  0  0  0  0
 26 27  2  0  0  0  0
 28 26  1  0  0  0  0
 28 29  1  0  0  0  0
 29 34  1  0  0  0  0
 30 29  2  0  0  0  0
 30 35  1  0  0  0  0
 31 30  1  0  0  0  0
 32 33  1  0  0  0  0
 32 31  2  0  0  0  0
 33 28  2  0  0  0  0
 36 32  1  0  0  0  0
M  END
>  <minimizedAffinity>
-6.24160767

$$$$

 OpenBabel03242518373D

 36 39  0  0  1  0  0  0  0  0999 V2000
   38.1480   27.3320   43.3780 C   0  0  0  0  0  0  0  0  0  0  0  0
   37.1560   26.6900   42.6470 C   0  0  0  0  0  0  0  0  0  0  0  0
   36.4880   27.6290   41.8740 C   0  0  0  0  0  0  0  0  0  0  0  0
   37.1170   28.8070   42.1790 C   0  0  0  0  0  0  0  0  0  0  0  0
   38.0820   28.6240   43.0570 O   0  0  0  0  0  0  0  0  0  0  0  0
   37.0160   25.6250   42.7450 H   0  0  0  0  0  0  0  0  0  0  0  0
   35.6730   27.3880   41.2150 H   0  0  0  0  0  0  0  0  0  0  0  0
   36.7620   30.1110   41.5950 C   0  0  2  0  0  0  0  0  0  0  0  0
   36.1700   30.1740   40.2450 C   0  0  0  0  0  0  0  0  0  0  0  0
   37.6230   30.5000   40.3760 C   0  0  1  0  0  0  0  0  0  0  0  0
   36.6070   30.9170   42.3420 H   0  0  0  0  0  0  0  0  0  0  0  0
   35.4940   31.0430   40.0380 H   0  0  0  0  0  0  0  0  0  0  0  0
   35.9330   29.1950   39.7540 H   0  0  0  0  0  0  0  0  0  0  0  0
   38.3430   29.7550   40.0000 H   0  0  0  0  0  0  0  0  0  0  0  0
   38.0590   31.8740   40.4010 N   0  0  0  0  0  0  0  0  0  0  0  0
   37.2700   32.7240   39.7160 C   0  0  0  0  0  3  0  0  0  0  0  0
   37.5640   34.0860   39.6500 C   0  0  0  0  0  0  0  0  0  0  0  0
   36.9810   34.8300   39.1220 H   0  0  0  0  0  0  0  0  0  0  0  0
   38.7120   34.4480   40.3420 C   0  0  0  0  0  0  0  0  0  0  0  0
   39.0460   35.6610   40.3300 O   0  0  0  0  0  0  0  0  0  0  0  0
   39.5100   33.6070   41.0320 N   0  0  0  0  0  0  0  0  0  0  0  0
   39.1460   32.2930   41.0420 C   0  0  0  0  0  0  0  0  0  0  0  0
   39.8590   31.4780   41.6710 O   0  0  0  0  0  0  0  0  0  0  0  0
   40.3550   33.9750   41.5210 H   0  0  0  0  0  0  0  0  0  0  0  0
   39.0950   26.8440   44.2990 O   0  0  0  0  0  0  0  0  0  0  0  0
   40.2850   26.2520   43.8310 C   0  0  0  0  0  0  0  0  0  0  0  0
   40.1930   25.0400   43.5040 O   0  0  0  0  0  0  0  0  0  0  0  0
   41.4350   27.0830   43.7820 C   0  0  0  0  0  0  0  0  0  0  0  0
   42.2050   27.0790   44.9120 C   0  0  0  0  0  0  0  0  0  0  0  0
   43.3470   27.8720   44.9280 C   0  0  0  0  0  0  0  0  0  0  0  0
   43.6400   28.6070   43.8260 N   0  0  0  0  0  0  0  0  0  0  0  0
   42.8650   28.5850   42.7430 C   0  0  0  0  0  0  0  0  0  0  0  0
   41.7660   27.8160   42.7370 N   0  0  0  0  0  0  0  0  0  0  0  0
   41.9900   26.5060   45.7900 H   0  0  0  0  0  0  0  0  0  0  0  0
   43.9950   27.9090   45.7970 H   0  0  0  0  0  0  0  0  0  0  0  0
   43.1990   29.2120   41.9250 H   0  0  0  0  0  0  0  0  0  0  0  0
  1 25  1  0  0  0  0
  2  6  1  0  0  0  0
  2  1  2  0  0  0  0
  3  4  2  0  0  0  0
  3  2  1  0  0  0  0
  4  5  1  0  0  0  0
  5  1  1  0  0  0  0
  7  3  1  0  0  0  0
  8  4  1  0  0  0  0
  8 11  1  1  0  0  0
  9 10  1  0  0  0  0
  9  8  1  0  0  0  0
 10 14  1  6  0  0  0
 10 15  1  0  0  0  0
 10  8  1  0  0  0  0
 12  9  1  0  0  0  0
 13  9  1  0  0  0  0
 15 22  1  0  0  0  0
 16 15  1  0  0  0  0
 17 16  2  0  0  0  0
 17 19  1  0  0  0  0
 18 17  1  0  0  0  0
 19 21  1  0  0  0  0
 20 19  2  0  0  0  0
 21 22  1  0  0  0  0
 21 24  1  0  0  0  0
 22 23  2  0  0  0  0
 26 25  1  0  0  0  0
 27 26  2  0  0  0  0
 28 26  1  0  0  0  0
 28 29  1  0  0  0  0
 29 30  2  0  0  0  0
 29 34  1  0  0  0  0
 30 35  1  0  0  0  0
 31 30  1  0  0  0  0
 32 31  2  0  0  0  0
 33 32  1  0  0  0  0
 33 28  2  0  0  0  0
 36 32  1  0  0  0  0
M  END
>  <minimizedAffinity>
-6.21095181

$$$$

 OpenBabel03242518373D

 36 39  0  0  1  0  0  0  0  0999 V2000
   36.5290   28.8570   41.7850 C   0  0  0  0  0  0  0  0  0  0  0  0
   35.6710   28.9110   40.6930 C   0  0  0  0  0  0  0  0  0  0  0  0
   35.8400   30.1290   40.0480 C   0  0  0  0  0  0  0  0  0  0  0  0
   36.8020   30.7590   40.7920 C   0  0  0  0  0  0  0  0  0  0  0  0
   37.1960   30.0110   41.8020 O   0  0  0  0  0  0  0  0  0  0  0  0
   35.0210   28.0790   40.4750 H   0  0  0  0  0  0  0  0  0  0  0  0
   35.2920   30.4200   39.1700 H   0  0  0  0  0  0  0  0  0  0  0  0
   37.3320   32.1010   40.4960 C   0  0  2  0  0  0  0  0  0  0  0  0
   37.3130   32.6080   39.1110 C   0  0  0  0  0  0  0  0  0  0  0  0
   38.6120   32.0850   39.6350 C   0  0  1  0  0  0  0  0  0  0  0  0
   37.3570   32.7830   41.3700 H   0  0  0  0  0  0  0  0  0  0  0  0
   37.2500   33.7190   38.9880 H   0  0  0  0  0  0  0  0  0  0  0  0
   36.8030   31.9650   38.3470 H   0  0  0  0  0  0  0  0  0  0  0  0
   38.9570   31.1130   39.2500 H   0  0  0  0  0  0  0  0  0  0  0  0
   39.6240   32.9990   40.1040 N   0  0  0  0  0  0  0  0  0  0  0  0
   39.4260   34.2830   39.7500 C   0  0  0  0  0  3  0  0  0  0  0  0
   40.3220   35.2820   40.1310 C   0  0  0  0  0  0  0  0  0  0  0  0
   40.2330   36.3330   39.8870 H   0  0  0  0  0  0  0  0  0  0  0  0
   41.3930   34.8210   40.8850 C   0  0  0  0  0  0  0  0  0  0  0  0
   42.2470   35.6610   41.2680 O   0  0  0  0  0  0  0  0  0  0  0  0
   41.6020   33.5380   41.2460 N   0  0  0  0  0  0  0  0  0  0  0  0
   40.6750   32.6280   40.8290 C   0  0  0  0  0  0  0  0  0  0  0  0
   40.8310   31.4260   41.1430 O   0  0  0  0  0  0  0  0  0  0  0  0
   42.4400   33.2870   41.8160 H   0  0  0  0  0  0  0  0  0  0  0  0
   36.7480   27.8590   42.7520 O   0  0  0  0  0  0  0  0  0  0  0  0
   37.9950   27.2030   42.8090 C   0  0  0  0  0  0  0  0  0  0  0  0
   38.8790   27.7810   43.4930 O   0  0  0  0  0  0  0  0  0  0  0  0
   38.1050   25.9800   42.0970 C   0  0  0  0  0  0  0  0  0  0  0  0
   36.9560   25.2430   42.0200 C   0  0  0  0  0  0  0  0  0  0  0  0
   36.9970   24.0350   41.3350 C   0  0  0  0  0  0  0  0  0  0  0  0
   38.1710   23.6470   40.7770 N   0  0  0  0  0  0  0  0  0  0  0  0
   39.2720   24.3910   40.8720 C   0  0  0  0  0  0  0  0  0  0  0  0
   39.2210   25.5570   41.5360 N   0  0  0  0  0  0  0  0  0  0  0  0
   36.0200   25.5330   42.4540 H   0  0  0  0  0  0  0  0  0  0  0  0
   36.1160   23.4090   41.2420 H   0  0  0  0  0  0  0  0  0  0  0  0
   40.1490   23.9800   40.3890 H   0  0  0  0  0  0  0  0  0  0  0  0
  1  5  1  0  0  0  0
  1 25  1  0  0  0  0
  2  1  2  0  0  0  0
  3  2  1  0  0  0  0
  3  4  2  0  0  0  0
  4  5  1  0  0  0  0
  6  2  1  0  0  0  0
  7  3  1  0  0  0  0
  8  4  1  0  0  0  0
  8 11  1  1  0  0  0
  9 10  1  0  0  0  0
  9  8  1  0  0  0  0
 10 14  1  6  0  0  0
 10 15  1  0  0  0  0
 10  8  1  0  0  0  0
 12  9  1  0  0  0  0
 13  9  1  0  0  0  0
 15 22  1  0  0  0  0
 16 15  1  0  0  0  0
 16 17  2  0  0  0  0
 17 19  1  0  0  0  0
 18 17  1  0  0  0  0
 19 21  1  0  0  0  0
 19 20  2  0  0  0  0
 21 24  1  0  0  0  0
 22 23  2  0  0  0  0
 22 21  1  0  0  0  0
 25 26  1  0  0  0  0
 26 27  2  0  0  0  0
 28 26  1  0  0  0  0
 29 28  1  0  0  0  0
 29 34  1  0  0  0  0
 30 29  2  0  0  0  0
 31 32  2  0  0  0  0
 31 30  1  0  0  0  0
 32 33  1  0  0  0  0
 33 28  2  0  0  0  0
 35 30  1  0  0  0  0
 36 32  1  0  0  0  0
M  END
>  <minimizedAffinity>
-6.09997511

$$$$

 OpenBabel03242518373D

 36 39  0  0  1  0  0  0  0  0999 V2000
   38.9110   34.2410   40.5040 C   0  0  0  0  0  0  0  0  0  0  0  0
   37.8290   34.5310   39.6820 C   0  0  0  0  0  0  0  0  0  0  0  0
   37.1360   33.3580   39.4190 C   0  0  0  0  0  0  0  0  0  0  0  0
   37.8430   32.4040   40.1040 C   0  0  0  0  0  0  0  0  0  0  0  0
   38.8760   32.9290   40.7310 O   0  0  0  0  0  0  0  0  0  0  0  0
   37.6520   35.5450   39.3590 H   0  0  0  0  0  0  0  0  0  0  0  0
   36.2550   33.3090   38.8060 H   0  0  0  0  0  0  0  0  0  0  0  0
   37.4900   30.9750   40.1370 C   0  0  2  0  0  0  0  0  0  0  0  0
   36.0750   30.5720   40.2500 C   0  0  0  0  0  0  0  0  0  0  0  0
   36.9100   30.5120   41.4890 C   0  0  1  0  0  0  0  0  0  0  0  0
   38.2560   30.3060   39.6960 H   0  0  0  0  0  0  0  0  0  0  0  0
   35.8010   29.5840   39.8000 H   0  0  0  0  0  0  0  0  0  0  0  0
   35.3140   31.3940   40.2160 H   0  0  0  0  0  0  0  0  0  0  0  0
   36.7290   31.2790   42.2580 H   0  0  0  0  0  0  0  0  0  0  0  0
   37.4500   29.2530   41.9380 N   0  0  0  0  0  0  0  0  0  0  0  0
   36.7280   28.1740   41.5790 C   0  0  0  0  0  3  0  0  0  0  0  0
   37.1260   26.8870   41.9410 C   0  0  0  0  0  0  0  0  0  0  0  0
   36.6020   25.9730   41.6920 H   0  0  0  0  0  0  0  0  0  0  0  0
   38.3010   26.8470   42.6810 C   0  0  0  0  0  0  0  0  0  0  0  0
   38.7260   25.7220   43.0470 O   0  0  0  0  0  0  0  0  0  0  0  0
   39.0330   27.9200   43.0470 N   0  0  0  0  0  0  0  0  0  0  0  0
   38.5680   29.1400   42.6490 C   0  0  0  0  0  0  0  0  0  0  0  0
   39.2170   30.1620   42.9670 O   0  0  0  0  0  0  0  0  0  0  0  0
   39.9040   27.7900   43.6050 H   0  0  0  0  0  0  0  0  0  0  0  0
   39.9130   35.0620   41.0540 O   0  0  0  0  0  0  0  0  0  0  0  0
   41.1940   35.0920   40.4670 C   0  0  0  0  0  0  0  0  0  0  0  0
   41.2230   35.4050   39.2490 O   0  0  0  0  0  0  0  0  0  0  0  0
   42.2900   34.7680   41.3100 C   0  0  0  0  0  0  0  0  0  0  0  0
   42.6080   33.4400   41.3700 C   0  0  0  0  0  0  0  0  0  0  0  0
   43.6720   33.0560   42.1770 C   0  0  0  0  0  0  0  0  0  0  0  0
   44.3410   34.0170   42.8640 N   0  0  0  0  0  0  0  0  0  0  0  0
   44.0030   35.3020   42.7810 C   0  0  0  0  0  0  0  0  0  0  0  0
   42.9740   35.6610   41.9980 N   0  0  0  0  0  0  0  0  0  0  0  0
   42.0910   32.6680   40.8350 H   0  0  0  0  0  0  0  0  0  0  0  0
   43.9690   32.0170   42.2630 H   0  0  0  0  0  0  0  0  0  0  0  0
   44.6080   35.9770   43.3730 H   0  0  0  0  0  0  0  0  0  0  0  0
  1  5  1  0  0  0  0
  1 25  1  0  0  0  0
  2  1  2  0  0  0  0
  3  2  1  0  0  0  0
  3  4  2  0  0  0  0
  4  8  1  0  0  0  0
  4  5  1  0  0  0  0
  6  2  1  0  0  0  0
  7  3  1  0  0  0  0
  8 11  1  6  0  0  0
  8  9  1  0  0  0  0
  8 10  1  0  0  0  0
  9 10  1  0  0  0  0
 10 15  1  0  0  0  0
 10 14  1  1  0  0  0
 12  9  1  0  0  0  0
 13  9  1  0  0  0  0
 15 22  1  0  0  0  0
 16 15  1  0  0  0  0
 16 17  2  0  0  0  0
 17 19  1  0  0  0  0
 18 17  1  0  0  0  0
 19 21  1  0  0  0  0
 19 20  2  0  0  0  0
 21 24  1  0  0  0  0
 22 23  2  0  0  0  0
 22 21  1  0  0  0  0
 26 25  1  0  0  0  0
 26 28  1  0  0  0  0
 27 26  2  0  0  0  0
 28 29  2  0  0  0  0
 28 33  1  0  0  0  0
 29 30  1  0  0  0  0
 30 35  1  0  0  0  0
 30 31  2  0  0  0  0
 32 31  1  0  0  0  0
 32 36  1  0  0  0  0
 33 32  2  0  0  0  0
 34 29  1  0  0  0  0
M  END
>  <minimizedAffinity>
-6.04426241

$$$$

 OpenBabel03242518373D

 36 39  0  0  1  0  0  0  0  0999 V2000
   38.4590   32.3500   40.8620 C   0  0  0  0  0  0  0  0  0  0  0  0
   37.3210   32.3650   40.0650 C   0  0  0  0  0  0  0  0  0  0  0  0
   36.6000   31.2000   40.2900 C   0  0  0  0  0  0  0  0  0  0  0  0
   37.3480   30.5310   41.2230 C   0  0  0  0  0  0  0  0  0  0  0  0
   38.4290   31.2090   41.5490 O   0  0  0  0  0  0  0  0  0  0  0  0
   37.1290   33.2010   39.4130 H   0  0  0  0  0  0  0  0  0  0  0  0
   35.6740   30.9670   39.7960 H   0  0  0  0  0  0  0  0  0  0  0  0
   36.9850   29.2220   41.7910 C   0  0  2  0  0  0  0  0  0  0  0  0
   37.6830   28.7250   42.9930 C   0  0  0  0  0  0  0  0  0  0  0  0
   38.1010   28.1640   41.6710 C   0  0  1  0  0  0  0  0  0  0  0  0
   35.9690   28.8720   41.5170 H   0  0  0  0  0  0  0  0  0  0  0  0
   37.1040   28.0320   43.6540 H   0  0  0  0  0  0  0  0  0  0  0  0
   38.4130   29.4250   43.4760 H   0  0  0  0  0  0  0  0  0  0  0  0
   39.0730   28.4890   41.2690 H   0  0  0  0  0  0  0  0  0  0  0  0
   37.6180   26.8730   41.2470 N   0  0  0  0  0  0  0  0  0  0  0  0
   37.3230   26.0270   42.2530 C   0  0  0  0  0  3  0  0  0  0  0  0
   36.8460   24.7420   41.9970 C   0  0  0  0  0  0  0  0  0  0  0  0
   36.5880   24.0060   42.7480 H   0  0  0  0  0  0  0  0  0  0  0  0
   36.7130   24.4480   40.6470 C   0  0  0  0  0  0  0  0  0  0  0  0
   36.2870   23.3070   40.3330 O   0  0  0  0  0  0  0  0  0  0  0  0
   37.0030   25.2870   39.6300 N   0  0  0  0  0  0  0  0  0  0  0  0
   37.4660   26.5230   39.9730 C   0  0  0  0  0  0  0  0  0  0  0  0
   37.7470   27.3330   39.0600 O   0  0  0  0  0  0  0  0  0  0  0  0
   36.8700   24.9740   38.6440 H   0  0  0  0  0  0  0  0  0  0  0  0
   39.5070   33.2790   41.0120 O   0  0  0  0  0  0  0  0  0  0  0  0
   39.7450   34.2330   40.0020 C   0  0  0  0  0  0  0  0  0  0  0  0
   39.0910   35.3030   40.1050 O   0  0  0  0  0  0  0  0  0  0  0  0
   40.6860   33.8790   38.9990 C   0  0  0  0  0  0  0  0  0  0  0  0
   41.7100   34.7670   38.8210 C   0  0  0  0  0  0  0  0  0  0  0  0
   42.6660   34.4780   37.8540 C   0  0  0  0  0  0  0  0  0  0  0  0
   42.5360   33.3330   37.1380 N   0  0  0  0  0  0  0  0  0  0  0  0
   41.5240   32.4910   37.3390 C   0  0  0  0  0  0  0  0  0  0  0  0
   40.6070   32.7790   38.2760 N   0  0  0  0  0  0  0  0  0  0  0  0
   41.8290   35.6750   39.3770 H   0  0  0  0  0  0  0  0  0  0  0  0
   43.5000   35.1460   37.6690 H   0  0  0  0  0  0  0  0  0  0  0  0
   41.5240   31.6110   36.7090 H   0  0  0  0  0  0  0  0  0  0  0  0
  1 25  1  0  0  0  0
  1  5  1  0  0  0  0
  2  3  1  0  0  0  0
  2  1  2  0  0  0  0
  3  4  2  0  0  0  0
  4  5  1  0  0  0  0
  4  8  1  0  0  0  0
  6  2  1  0  0  0  0
  7  3  1  0  0  0  0
  8 11  1  6  0  0  0
  8  9  1  0  0  0  0
  9 13  1  0  0  0  0
  9 12  1  0  0  0  0
 10 14  1  6  0  0  0
 10  8  1  0  0  0  0
 10  9  1  0  0  0  0
 15 10  1  0  0  0  0
 15 16  1  0  0  0  0
 17 16  2  0  0  0  0
 17 18  1  0  0  0  0
 19 17  1  0  0  0  0
 20 19  2  0  0  0  0
 21 22  1  0  0  0  0
 21 19  1  0  0  0  0
 22 15  1  0  0  0  0
 23 22  2  0  0  0  0
 24 21  1  0  0  0  0
 26 27  2  0  0  0  0
 26 25  1  0  0  0  0
 28 26  1  0  0  0  0
 29 28  1  0  0  0  0
 29 34  1  0  0  0  0
 30 29  2  0  0  0  0
 31 32  2  0  0  0  0
 31 30  1  0  0  0  0
 32 33  1  0  0  0  0
 33 28  2  0  0  0  0
 35 30  1  0  0  0  0
 36 32  1  0  0  0  0
M  END
>  <minimizedAffinity>
-5.94622231

$$$$

 OpenBabel03242518373D

 36 39  0  0  1  0  0  0  0  0999 V2000
   38.1240   32.6680   40.3670 C   0  0  0  0  0  0  0  0  0  0  0  0
   37.4000   32.6240   39.1810 C   0  0  0  0  0  0  0  0  0  0  0  0
   36.9320   31.3310   38.9870 C   0  0  0  0  0  0  0  0  0  0  0  0
   37.4040   30.6490   40.0780 C   0  0  0  0  0  0  0  0  0  0  0  0
   38.0980   31.4360   40.8750 O   0  0  0  0  0  0  0  0  0  0  0  0
   37.2840   33.5150   38.5860 H   0  0  0  0  0  0  0  0  0  0  0  0
   36.3410   31.0310   38.1410 H   0  0  0  0  0  0  0  0  0  0  0  0
   37.1610   29.2190   40.3290 C   0  0  2  0  0  0  0  0  0  0  0  0
   35.8770   28.7840   40.9090 C   0  0  0  0  0  0  0  0  0  0  0  0
   37.0550   28.8620   41.8260 C   0  0  1  0  0  0  0  0  0  0  0  0
   37.7920   28.5370   39.7230 H   0  0  0  0  0  0  0  0  0  0  0  0
   35.5350   27.7510   40.6450 H   0  0  0  0  0  0  0  0  0  0  0  0
   35.0960   29.5750   41.0530 H   0  0  0  0  0  0  0  0  0  0  0  0
   37.0770   29.6900   42.5520 H   0  0  0  0  0  0  0  0  0  0  0  0
   37.7800   27.6660   42.1790 N   0  0  0  0  0  0  0  0  0  0  0  0
   37.1310   26.5180   41.9070 C   0  0  0  0  0  3  0  0  0  0  0  0
   37.7060   25.2800   42.1930 C   0  0  0  0  0  0  0  0  0  0  0  0
   37.2490   24.3160   42.0060 H   0  0  0  0  0  0  0  0  0  0  0  0
   38.9690   25.3630   42.7630 C   0  0  0  0  0  0  0  0  0  0  0  0
   39.5560   24.2890   43.0510 O   0  0  0  0  0  0  0  0  0  0  0  0
   39.6300   26.5070   43.0390 N   0  0  0  0  0  0  0  0  0  0  0  0
   38.9910   27.6710   42.7270 C   0  0  0  0  0  0  0  0  0  0  0  0
   39.5700   28.7550   42.9660 O   0  0  0  0  0  0  0  0  0  0  0  0
   40.5800   26.4680   43.4690 H   0  0  0  0  0  0  0  0  0  0  0  0
   38.7970   33.7220   41.0120 O   0  0  0  0  0  0  0  0  0  0  0  0
   39.5050   34.6720   40.2480 C   0  0  0  0  0  0  0  0  0  0  0  0
   38.8320   35.6610   39.8570 O   0  0  0  0  0  0  0  0  0  0  0  0
   40.8780   34.4040   40.0110 C   0  0  0  0  0  0  0  0  0  0  0  0
   41.1840   34.0050   38.7390 C   0  0  0  0  0  0  0  0  0  0  0  0
   42.5130   33.7280   38.4410 C   0  0  0  0  0  0  0  0  0  0  0  0
   43.4380   33.8670   39.4240 N   0  0  0  0  0  0  0  0  0  0  0  0
   43.1030   34.2590   40.6520 C   0  0  0  0  0  0  0  0  0  0  0  0
   41.8170   34.5240   40.9290 N   0  0  0  0  0  0  0  0  0  0  0  0
   40.4680   33.8900   37.9510 H   0  0  0  0  0  0  0  0  0  0  0  0
   42.8140   33.4080   37.4500 H   0  0  0  0  0  0  0  0  0  0  0  0
   43.9260   34.3340   41.3520 H   0  0  0  0  0  0  0  0  0  0  0  0
  1  5  1  0  0  0  0
  1 25  1  0  0  0  0
  2  1  2  0  0  0  0
  3  2  1  0  0  0  0
  3  4  2  0  0  0  0
  4  8  1  0  0  0  0
  4  5  1  0  0  0  0
  6  2  1  0  0  0  0
  7  3  1  0  0  0  0
  8 11  1  6  0  0  0
  8  9  1  0  0  0  0
  8 10  1  0  0  0  0
  9 13  1  0  0  0  0
  9 10  1  0  0  0  0
 10 15  1  0  0  0  0
 10 14  1  1  0  0  0
 12  9  1  0  0  0  0
 15 22  1  0  0  0  0
 16 15  1  0  0  0  0
 16 17  2  0  0  0  0
 17 19  1  0  0  0  0
 18 17  1  0  0  0  0
 19 21  1  0  0  0  0
 19 20  2  0  0  0  0
 21 24  1  0  0  0  0
 22 23  2  0  0  0  0
 22 21  1  0  0  0  0
 26 25  1  0  0  0  0
 27 26  2  0  0  0  0
 28 26  1  0  0  0  0
 28 33  1  0  0  0  0
 29 28  2  0  0  0  0
 30 29  1  0  0  0  0
 30 31  2  0  0  0  0
 31 32  1  0  0  0  0
 32 33  2  0  0  0  0
 32 36  1  0  0  0  0
 34 29  1  0  0  0  0
 35 30  1  0  0  0  0
M  END
>  <minimizedAffinity>
-5.94415522

$$$$

 OpenBabel03242518373D

 36 39  0  0  1  0  0  0  0  0999 V2000
   37.4520   29.5260   40.3030 C   0  0  0  0  0  0  0  0  0  0  0  0
   36.5820   30.2810   39.5240 C   0  0  0  0  0  0  0  0  0  0  0  0
   36.9410   31.6180   39.6180 C   0  0  0  0  0  0  0  0  0  0  0  0
   38.0230   31.6060   40.4590 C   0  0  0  0  0  0  0  0  0  0  0  0
   38.3110   30.3820   40.8530 O   0  0  0  0  0  0  0  0  0  0  0  0
   35.7900   29.7980   38.9760 H   0  0  0  0  0  0  0  0  0  0  0  0
   36.4260   32.4120   39.1070 H   0  0  0  0  0  0  0  0  0  0  0  0
   38.7700   32.8080   40.8660 C   0  0  2  0  0  0  0  0  0  0  0  0
   38.6050   34.0640   40.1120 C   0  0  0  0  0  0  0  0  0  0  0  0
   39.8320   33.2540   39.8400 C   0  0  1  0  0  0  0  0  0  0  0  0
   39.1060   32.7980   41.9230 H   0  0  0  0  0  0  0  0  0  0  0  0
   38.7660   35.0140   40.6830 H   0  0  0  0  0  0  0  0  0  0  0  0
   37.8330   34.0650   39.2990 H   0  0  0  0  0  0  0  0  0  0  0  0
   39.8770   32.7120   38.8830 H   0  0  0  0  0  0  0  0  0  0  0  0
   41.0890   33.6180   40.4450 N   0  0  0  0  0  0  0  0  0  0  0  0
   41.6330   32.6630   41.2230 C   0  0  0  0  0  3  0  0  0  0  0  0
   42.8480   32.8710   41.8750 C   0  0  0  0  0  0  0  0  0  0  0  0
   43.3490   32.1550   42.5160 H   0  0  0  0  0  0  0  0  0  0  0  0
   43.4090   34.1180   41.6390 C   0  0  0  0  0  0  0  0  0  0  0  0
   44.5070   34.3830   42.1920 O   0  0  0  0  0  0  0  0  0  0  0  0
   42.8750   35.0830   40.8610 N   0  0  0  0  0  0  0  0  0  0  0  0
   41.6830   34.7940   40.2630 C   0  0  0  0  0  0  0  0  0  0  0  0
   41.1530   35.6610   39.5330 O   0  0  0  0  0  0  0  0  0  0  0  0
   43.3730   35.9930   40.7440 H   0  0  0  0  0  0  0  0  0  0  0  0
   37.5230   28.1420   40.5480 O   0  0  0  0  0  0  0  0  0  0  0  0
   37.2450   27.6450   41.8380 C   0  0  0  0  0  0  0  0  0  0  0  0
   36.2000   28.0950   42.3760 O   0  0  0  0  0  0  0  0  0  0  0  0
   38.1660   26.7060   42.3730 C   0  0  0  0  0  0  0  0  0  0  0  0
   39.0330   27.2060   43.3040 C   0  0  0  0  0  0  0  0  0  0  0  0
   39.9600   26.3370   43.8680 C   0  0  0  0  0  0  0  0  0  0  0  0
   39.9590   25.0410   43.4670 N   0  0  0  0  0  0  0  0  0  0  0  0
   39.0980   24.5900   42.5560 C   0  0  0  0  0  0  0  0  0  0  0  0
   38.2060   25.4370   42.0190 N   0  0  0  0  0  0  0  0  0  0  0  0
   39.0490   28.2250   43.6330 H   0  0  0  0  0  0  0  0  0  0  0  0
   40.6720   26.6770   44.6110 H   0  0  0  0  0  0  0  0  0  0  0  0
   39.1910   23.5380   42.3150 H   0  0  0  0  0  0  0  0  0  0  0  0
  1 25  1  0  0  0  0
  1  5  1  0  0  0  0
  2  3  1  0  0  0  0
  2  1  2  0  0  0  0
  3  4  2  0  0  0  0
  4  5  1  0  0  0  0
  4  8  1  0  0  0  0
  6  2  1  0  0  0  0
  7  3  1  0  0  0  0
  8 11  1  1  0  0  0
  9 12  1  0  0  0  0
  9  8  1  0  0  0  0
 10 14  1  6  0  0  0
 10  9  1  0  0  0  0
 10 15  1  0  0  0  0
 10  8  1  0  0  0  0
 13  9  1  0  0  0  0
 15 16  1  0  0  0  0
 16 17  2  0  0  0  0
 17 18  1  0  0  0  0
 19 17  1  0  0  0  0
 19 20  2  0  0  0  0
 21 19  1  0  0  0  0
 22 15  1  0  0  0  0
 22 21  1  0  0  0  0
 23 22  2  0  0  0  0
 24 21  1  0  0  0  0
 25 26  1  0  0  0  0
 26 28  1  0  0  0  0
 26 27  2  0  0  0  0
 28 29  1  0  0  0  0
 29 34  1  0  0  0  0
 29 30  2  0  0  0  0
 30 35  1  0  0  0  0
 31 30  1  0  0  0  0
 32 31  2  0  0  0  0
 33 28  2  0  0  0  0
 33 32  1  0  0  0  0
 36 32  1  0  0  0  0
M  END
>  <minimizedAffinity>
-5.91169357

$$$$
