
 OpenBabel03242519163D

 43 46  0  0  1  0  0  0  0  0999 V2000
   48.3870   34.1030   40.9590 C   0  0  0  0  0  0  0  0  0  0  0  0
   47.7620   34.2230   39.7390 C   0  0  0  0  0  0  0  0  0  0  0  0
   48.0450   33.3910   38.6520 C   0  0  0  0  0  0  0  0  0  0  0  0
   48.9930   32.4400   38.8760 N   0  0  0  0  0  0  0  0  0  0  0  0
   49.5990   32.3290   40.0700 C   0  0  0  0  0  0  0  0  0  0  0  0
   49.2990   33.1470   41.0850 N   0  0  0  0  0  0  0  0  0  0  0  0
   47.0110   35.0180   39.6500 H   0  0  0  0  0  0  0  0  0  0  0  0
   47.5320   33.5170   37.7080 H   0  0  0  0  0  0  0  0  0  0  0  0
   50.6230   31.2680   40.3330 C   0  0  2  0  0  0  0  0  0  0  0  0
   51.2110   31.1650   41.7040 C   0  0  0  0  0  0  0  0  0  0  0  0
   52.0250   31.7340   40.5300 C   0  0  1  0  0  0  0  0  0  0  0  0
   50.4450   30.3520   39.7350 H   0  0  0  0  0  0  0  0  0  0  0  0
   51.4840   30.1520   42.0760 H   0  0  0  0  0  0  0  0  0  0  0  0
   50.8400   31.8800   42.4670 H   0  0  0  0  0  0  0  0  0  0  0  0
   52.2130   32.8180   40.4890 H   0  0  0  0  0  0  0  0  0  0  0  0
   53.1400   30.9040   40.1430 N   0  0  0  0  0  0  0  0  0  0  0  0
   53.8260   30.0260   40.8930 C   0  0  0  0  0  0  0  0  0  0  0  0
   54.8770   29.3080   40.3600 C   0  0  0  0  0  0  0  0  0  0  0  0
   55.4060   28.6020   41.0130 H   0  0  0  0  0  0  0  0  0  0  0  0
   55.2760   29.4510   39.0360 C   0  0  0  0  0  0  0  0  0  0  0  0
   56.2340   28.7970   38.5470 O   0  0  0  0  0  0  0  0  0  0  0  0
   54.5580   30.3460   38.3180 N   0  0  0  0  0  0  0  0  0  0  0  0
   53.5350   31.0430   38.8440 C   0  0  0  0  0  0  0  0  0  0  0  0
   52.9490   31.8510   38.0450 O   0  0  0  0  0  0  0  0  0  0  0  0
   54.8470   30.4670   37.3130 H   0  0  0  0  0  0  0  0  0  0  0  0
   48.0710   34.9660   42.0760 C   0  0  0  0  0  0  0  0  0  0  0  0
   48.6820   34.7130   42.9680 H   0  0  0  0  0  0  0  0  0  0  0  0
   48.3410   36.0220   41.8110 H   0  0  0  0  0  0  0  0  0  0  0  0
   46.6310   34.8920   42.4110 C   0  0  0  0  0  0  0  0  0  0  0  0
   46.0670   34.2960   41.6460 H   0  0  0  0  0  0  0  0  0  0  0  0
   46.1610   35.8960   42.3730 H   0  0  0  0  0  0  0  0  0  0  0  0
   44.6550   36.3200   44.1070 Cl  0  0  0  0  0  0  0  0  0  0  0  0
   45.4680   34.8830   44.6330 C   0  0  0  0  0  0  0  0  0  0  0  0
   46.3620   34.3120   43.7560 C   0  0  0  0  0  0  0  0  0  0  0  0
   47.0180   33.1620   44.1720 C   0  0  0  0  0  0  0  0  0  0  0  0
   46.7830   32.6090   45.4170 C   0  0  0  0  0  0  0  0  0  0  0  0
   45.8690   33.2040   46.2930 C   0  0  0  0  0  0  0  0  0  0  0  0
   45.2180   34.3510   45.8720 C   0  0  0  0  0  0  0  0  0  0  0  0
   47.7350   32.6540   43.5420 H   0  0  0  0  0  0  0  0  0  0  0  0
   47.3130   31.7050   45.7100 H   0  0  0  0  0  0  0  0  0  0  0  0
   45.6650   32.7980   47.2660 H   0  0  0  0  0  0  0  0  0  0  0  0
   44.2850   35.0260   46.6700 O   0  0  0  0  0  0  0  0  0  0  0  0
   43.8320   34.4260   47.3750 H   0  0  0  0  0  0  0  0  0  0  0  0
  1  6  1  0  0  0  0
  1 26  1  0  0  0  0
  2  1  2  0  0  0  0
  3  4  2  0  0  0  0
  3  2  1  0  0  0  0
  4  5  1  0  0  0  0
  5  9  1  0  0  0  0
  5  6  2  0  0  0  0
  7  2  1  0  0  0  0
  8  3  1  0  0  0  0
  9 12  1  6  0  0  0
  9 11  1  0  0  0  0
  9 10  1  0  0  0  0
 10 13  1  0  0  0  0
 10 14  1  0  0  0  0
 11 15  1  6  0  0  0
 11 10  1  0  0  0  0
 16 11  1  0  0  0  0
 16 17  1  0  0  0  0
 18 17  2  0  0  0  0
 18 19  1  0  0  0  0
 20 18  1  0  0  0  0
 21 20  2  0  0  0  0
 22 23  1  0  0  0  0
 22 20  1  0  0  0  0
 23 16  1  0  0  0  0
 24 23  2  0  0  0  0
 25 22  1  0  0  0  0
 26 29  1  0  0  0  0
 26 27  1  0  0  0  0
 28 26  1  0  0  0  0
 29 34  1  0  0  0  0
 30 29  1  0  0  0  0
 31 29  1  0  0  0  0
 32 33  1  0  0  0  0
 33 38  1  0  0  0  0
 34 35  1  0  0  0  0
 34 33  2  0  0  0  0
 35 36  2  0  0  0  0
 36 40  1  0  0  0  0
 36 37  1  0  0  0  0
 37 41  1  0  0  0  0
 38 37  2  0  0  0  0
 38 42  1  0  0  0  0
 39 35  1  0  0  0  0
 42 43  1  0  0  0  0
M  END
>  <minimizedAffinity>
-6.22988892

>  <minimizedRMSD>
0.720378399

$$$$
