
 OpenBabel03252508463D

 46 48  0  0  0  0  0  0  0  0999 V2000
   42.6760   31.5550   42.5300 N   0  0  0  0  0  0  0  0  0  0  0  0
   43.1820   30.6450   42.4380 H   0  0  0  0  0  0  0  0  0  0  0  0
   43.0510   32.5670   41.5980 C   0  0  0  0  0  0  0  0  0  0  0  0
   43.6240   32.1210   40.7340 H   0  0  0  0  0  0  0  0  0  0  0  0
   42.1310   33.0000   41.1700 H   0  0  0  0  0  0  0  0  0  0  0  0
   43.6480   34.9860   41.8720 C   0  0  0  0  0  0  0  0  0  0  0  0
   43.9080   33.6480   42.1610 C   0  0  0  0  0  0  0  0  0  0  0  0
   44.9750   33.3490   42.9810 C   0  0  0  0  0  0  0  0  0  0  0  0
   45.7490   34.3600   43.4870 C   0  0  0  0  0  0  0  0  0  0  0  0
   45.5170   35.6790   43.2200 C   0  0  0  0  0  0  0  0  0  0  0  0
   44.4380   35.9290   42.3960 C   0  0  0  0  0  0  0  0  0  0  0  0
   45.2120   32.3230   43.2310 H   0  0  0  0  0  0  0  0  0  0  0  0
   46.5920   34.1070   44.1370 H   0  0  0  0  0  0  0  0  0  0  0  0
   46.0960   36.5100   43.5940 H   0  0  0  0  0  0  0  0  0  0  0  0
   44.1730   36.9550   42.1250 H   0  0  0  0  0  0  0  0  0  0  0  0
   40.2340   35.8410   40.5090 C   0  0  0  0  0  0  0  0  0  0  0  0
   41.2570   35.6190   41.4390 C   0  0  0  0  0  0  0  0  0  0  0  0
   42.5080   35.2440   41.0010 C   0  0  0  0  0  0  0  0  0  0  0  0
   42.6670   35.1120   39.6530 N   0  0  0  0  0  0  0  0  0  0  0  0
   41.6770   35.3290   38.7610 C   0  0  0  0  0  0  0  0  0  0  0  0
   40.4620   35.6930   39.2050 N   0  0  0  0  0  0  0  0  0  0  0  0
   39.2510   36.1360   40.8570 H   0  0  0  0  0  0  0  0  0  0  0  0
   41.1130   35.7280   42.4870 H   0  0  0  0  0  0  0  0  0  0  0  0
   42.0020   35.1700   37.7270 H   0  0  0  0  0  0  0  0  0  0  0  0
   40.9840   31.2670   42.5430 S   0  0  0  0  0  0  0  0  0  0  0  0
   40.2170   32.5610   42.6860 O   0  0  0  0  0  0  0  0  0  0  0  0
   39.5190   32.7580   43.3580 H   0  0  0  0  0  0  0  0  0  0  0  0
   40.6130   30.3210   43.6310 O   0  0  0  0  0  0  0  0  0  0  0  0
   41.1530   29.4950   43.8440 H   0  0  0  0  0  0  0  0  0  0  0  0
   40.5750   30.5740   41.0670 O   0  0  0  0  0  0  0  0  0  0  0  0
   40.8140   29.2060   41.1590 C   0  0  0  0  0  0  0  0  0  0  0  0
   39.8100   28.7040   41.1330 H   0  0  0  0  0  0  0  0  0  0  0  0
   41.3490   28.8840   42.0460 H   0  0  0  0  0  0  0  0  0  0  0  0
   41.5280   28.7430   39.8730 C   0  0  0  0  0  0  0  0  0  0  0  0
   42.5190   29.2350   39.8310 H   0  0  0  0  0  0  0  0  0  0  0  0
   41.6960   27.6610   39.9150 H   0  0  0  0  0  0  0  0  0  0  0  0
   40.6920   29.0740   38.7390 N   0  0  0  0  0  0  0  0  0  0  0  0
   39.4530   28.5410   38.6410 C   0  0  0  0  0  3  0  0  0  0  0  0
   38.6960   28.8940   37.5310 C   0  0  0  0  0  0  0  0  0  0  0  0
   37.6810   28.4900   37.4000 H   0  0  0  0  0  0  0  0  0  0  0  0
   39.2330   29.7550   36.5960 C   0  0  0  0  0  0  0  0  0  0  0  0
   38.5760   30.1070   35.5620 O   0  0  0  0  0  0  0  0  0  0  0  0
   40.4820   30.2590   36.7440 N   0  0  0  0  0  0  0  0  0  0  0  0
   41.2070   29.9140   37.8190 C   0  0  0  0  0  0  0  0  0  0  0  0
   42.3840   30.3880   37.9610 O   0  0  0  0  0  0  0  0  0  0  0  0
   40.9200   30.9130   36.0580 H   0  0  0  0  0  0  0  0  0  0  0  0
  1 25  1  0  0  0  0
  2  1  1  0  0  0  0
  3  7  1  0  0  0  0
  3  1  1  0  0  0  0
  4  3  1  0  0  0  0
  5  3  1  0  0  0  0
  6  7  2  0  0  0  0
  6 11  1  0  0  0  0
  7  8  1  0  0  0  0
  8 12  1  0  0  0  0
  8  9  2  0  0  0  0
  9 13  1  0  0  0  0
 10  9  1  0  0  0  0
 10 14  1  0  0  0  0
 11 10  2  0  0  0  0
 15 11  1  0  0  0  0
 16 22  1  0  0  0  0
 16 17  1  0  0  0  0
 17 23  1  0  0  0  0
 18 17  2  0  0  0  0
 18  6  1  0  0  0  0
 19 18  1  0  0  0  0
 20 21  1  0  0  0  0
 20 19  2  0  0  0  0
 21 16  2  0  0  0  0
 24 20  1  0  0  0  0
 25 26  1  0  0  0  0
 25 28  1  0  0  0  0
 26 27  1  0  0  0  0
 28 29  1  0  0  0  0
 30 31  1  0  0  0  0
 30 25  1  0  0  0  0
 31 33  1  0  0  0  0
 32 31  1  0  0  0  0
 34 36  1  0  0  0  0
 34 31  1  0  0  0  0
 35 34  1  0  0  0  0
 37 34  1  0  0  0  0
 38 37  1  0  0  0  0
 39 38  2  0  0  0  0
 40 39  1  0  0  0  0
 41 43  1  0  0  0  0
 41 39  1  0  0  0  0
 42 41  2  0  0  0  0
 43 44  1  0  0  0  0
 44 45  2  0  0  0  0
 44 37  1  0  0  0  0
 46 43  1  0  0  0  0
M  END
>  <minimizedAffinity>
-4.97360659

>  <minimizedRMSD>
1.45806396

$$$$
