
 OpenBabel03242520203D

 36 38  0  0  0  0  0  0  0  0999 V2000
   48.5470   28.1750   43.9590 C   0  0  0  0  0  0  0  0  0  0  0  0
   49.3620   27.5670   44.4110 H   0  0  0  0  0  0  0  0  0  0  0  0
   48.4350   27.8530   42.8930 H   0  0  0  0  0  0  0  0  0  0  0  0
   45.9090   27.2090   46.4840 C   0  0  0  0  0  0  0  0  0  0  0  0
   47.1690   27.3940   45.8820 C   0  0  0  0  0  0  0  0  0  0  0  0
   47.2380   27.9550   44.6170 C   0  0  0  0  0  0  0  0  0  0  0  0
   46.0570   28.3030   44.0170 N   0  0  0  0  0  0  0  0  0  0  0  0
   44.8560   28.1020   44.6440 C   0  0  0  0  0  0  0  0  0  0  0  0
   44.7950   27.5670   45.8500 N   0  0  0  0  0  0  0  0  0  0  0  0
   48.0470   27.0890   46.4310 H   0  0  0  0  0  0  0  0  0  0  0  0
   43.9630   28.4030   44.1030 H   0  0  0  0  0  0  0  0  0  0  0  0
   45.8500   26.5930   47.8370 C   0  0  0  0  0  0  0  0  0  0  0  0
   45.5030   25.0660   47.7660 C   0  0  0  0  0  0  0  0  0  0  0  0
   46.7560   25.6050   48.3020 C   0  0  0  0  0  0  0  0  0  0  0  0
   45.1790   27.1610   48.5410 H   0  0  0  0  0  0  0  0  0  0  0  0
   45.4300   24.6120   46.7670 H   0  0  0  0  0  0  0  0  0  0  0  0
   44.7620   24.7370   48.5220 H   0  0  0  0  0  0  0  0  0  0  0  0
   47.6590   25.4030   47.6510 H   0  0  0  0  0  0  0  0  0  0  0  0
   47.0430   25.5050   49.3690 H   0  0  0  0  0  0  0  0  0  0  0  0
   48.9450   29.6200   43.9980 C   0  0  0  0  0  0  0  0  0  0  0  0
   49.8680   29.7250   44.6030 H   0  0  0  0  0  0  0  0  0  0  0  0
   49.2320   30.0110   42.9850 H   0  0  0  0  0  0  0  0  0  0  0  0
   47.7910   31.8200   43.9920 C   0  0  0  0  0  0  0  0  0  0  0  0
   48.4890   32.2360   43.0160 O   0  0  0  0  0  0  0  0  0  0  0  0
   47.8910   30.4980   44.4780 N   0  0  0  0  0  0  0  0  0  0  0  0
   47.2680   30.0870   45.1580 H   0  0  0  0  0  0  0  0  0  0  0  0
   44.8710   35.2650   43.5050 H   0  0  0  0  0  0  0  0  0  0  0  0
   45.3450   34.6250   44.1760 N   0  0  0  0  0  0  0  0  0  0  0  0
   46.2040   33.6930   43.7360 C   0  0  0  0  0  3  0  0  0  0  0  0
   46.8790   32.7990   44.5740 C   0  0  0  0  0  0  0  0  0  0  0  0
   46.5490   33.0060   45.8700 C   0  0  0  0  0  0  0  0  0  0  0  0
   47.0750   32.2800   46.7360 O   0  0  0  0  0  0  0  0  0  0  0  0
   45.7050   33.9170   46.3430 N   0  0  0  0  0  0  0  0  0  0  0  0
   45.0850   34.7490   45.4890 C   0  0  0  0  0  0  0  0  0  0  0  0
   44.2850   35.6240   45.8490 O   0  0  0  0  0  0  0  0  0  0  0  0
   45.4930   34.0260   47.3470 H   0  0  0  0  0  0  0  0  0  0  0  0
  1 20  1  0  0  0  0
  1  2  1  0  0  0  0
  1  6  1  0  0  0  0
  3  1  1  0  0  0  0
  4 12  1  0  0  0  0
  5 10  1  0  0  0  0
  5  4  1  0  0  0  0
  6  5  2  0  0  0  0
  7  6  1  0  0  0  0
  7  8  2  0  0  0  0
  8  9  1  0  0  0  0
  9  4  2  0  0  0  0
 11  8  1  0  0  0  0
 12 14  1  0  0  0  0
 12 15  1  0  0  0  0
 13 12  1  0  0  0  0
 13 14  1  0  0  0  0
 13 17  1  0  0  0  0
 14 19  1  0  0  0  0
 16 13  1  0  0  0  0
 18 14  1  0  0  0  0
 20 25  1  0  0  0  0
 20 21  1  0  0  0  0
 22 20  1  0  0  0  0
 23 25  1  0  0  0  0
 23 30  1  0  0  0  0
 24 23  2  0  0  0  0
 25 26  1  0  0  0  0
 27 28  1  0  0  0  0
 28 34  1  0  0  0  0
 29 28  1  0  0  0  0
 29 30  2  0  0  0  0
 30 31  1  0  0  0  0
 31 33  1  0  0  0  0
 31 32  2  0  0  0  0
 33 36  1  0  0  0  0
 34 35  2  0  0  0  0
 34 33  1  0  0  0  0
M  END
>  <minimizedAffinity>
-3.52808547

>  <minimizedRMSD>
10.2935181

$$$$
