
 OpenBabel03242522523D

 27 28  0  0  0  0  0  0  0  0999 V2000
   36.8090   29.5850   39.5970 O   0  0  0  0  0  0  0  0  0  0  0  0
   36.7840   29.8590   41.1210 P   0  0  2  0  0  0  0  0  0  0  0  0
   35.5840   31.0180   41.3450 O   0  0  0  0  0  0  0  0  0  0  0  0
   35.4710   31.2540   42.2850 H   0  0  0  0  0  0  0  0  0  0  0  0
   38.2920   30.4910   41.5390 O   0  0  0  0  0  0  0  0  0  0  0  0
   40.5620   33.1620   40.5690 C   0  0  0  0  0  0  0  0  0  0  0  0
   40.0770   31.9270   41.0630 C   0  0  0  0  0  0  0  0  0  0  0  0
   38.7220   31.7030   41.0440 C   0  0  0  0  0  0  0  0  0  0  0  0
   37.8900   32.6670   40.5510 N   0  0  0  0  0  0  0  0  0  0  0  0
   38.3960   33.8290   40.0910 C   0  0  0  0  0  0  0  0  0  0  0  0
   39.7090   34.0870   40.0940 N   0  0  0  0  0  0  0  0  0  0  0  0
   41.6070   33.4340   40.5410 H   0  0  0  0  0  0  0  0  0  0  0  0
   40.8740   31.3150   41.3950 H   0  0  0  0  0  0  0  0  0  0  0  0
   37.6940   34.5620   39.7120 H   0  0  0  0  0  0  0  0  0  0  0  0
   36.4600   28.4440   41.9070 O   0  0  0  0  0  0  0  0  0  0  0  0
   37.1610   27.3100   42.1000 C   0  0  0  0  0  0  0  0  0  0  0  0
   38.0280   27.4100   43.0920 O   0  0  0  0  0  0  0  0  0  0  0  0
   38.7240   23.0010   42.6600 H   0  0  0  0  0  0  0  0  0  0  0  0
   38.2350   23.6410   42.0270 N   0  0  0  0  0  0  0  0  0  0  0  0
   38.0140   24.9070   42.3520 C   0  0  0  0  0  3  0  0  0  0  0  0
   37.3710   25.9050   41.6180 C   0  0  0  0  0  0  0  0  0  0  0  0
   36.9020   25.5390   40.3990 C   0  0  0  0  0  0  0  0  0  0  0  0
   36.2980   26.2460   39.5650 O   0  0  0  0  0  0  0  0  0  0  0  0
   37.1070   24.2430   40.0210 N   0  0  0  0  0  0  0  0  0  0  0  0
   37.7410   23.3650   40.8100 C   0  0  0  0  0  0  0  0  0  0  0  0
   37.8810   22.1920   40.3720 O   0  0  0  0  0  0  0  0  0  0  0  0
   36.7590   23.9300   39.0890 H   0  0  0  0  0  0  0  0  0  0  0  0
  2  1  2  6  0  0  0
  2  3  1  0  0  0  0
  2  5  1  0  0  0  0
  2 15  1  0  0  0  0
  3  4  1  0  0  0  0
  6  7  1  0  0  0  0
  7 13  1  0  0  0  0
  8  7  2  0  0  0  0
  8  5  1  0  0  0  0
  9  8  1  0  0  0  0
 10 11  1  0  0  0  0
 10  9  2  0  0  0  0
 11  6  2  0  0  0  0
 12  6  1  0  0  0  0
 14 10  1  0  0  0  0
 15 16  1  0  0  0  0
 16 17  2  0  0  0  0
 19 20  1  0  0  0  0
 19 18  1  0  0  0  0
 21 16  1  0  0  0  0
 21 20  2  0  0  0  0
 22 21  1  0  0  0  0
 23 22  2  0  0  0  0
 24 22  1  0  0  0  0
 24 25  1  0  0  0  0
 25 19  1  0  0  0  0
 26 25  2  0  0  0  0
 27 24  1  0  0  0  0
M  END
>  <minimizedAffinity>
-5.42688322

$$$$

 OpenBabel03242522523D

 27 28  0  0  0  0  0  0  0  0999 V2000
   38.9620   28.9160   41.6680 O   0  0  0  0  0  0  0  0  0  0  0  0
   37.4460   29.2270   41.7380 P   0  0  2  0  0  0  0  0  0  0  0  0
   37.0920   29.3430   43.3800 O   0  0  0  0  0  0  0  0  0  0  0  0
   36.1540   29.5570   43.5400 H   0  0  0  0  0  0  0  0  0  0  0  0
   36.6360   27.9130   41.0570 O   0  0  0  0  0  0  0  0  0  0  0  0
   37.7150   24.6230   42.1740 C   0  0  0  0  0  0  0  0  0  0  0  0
   37.1320   25.9140   42.1680 C   0  0  0  0  0  0  0  0  0  0  0  0
   37.2100   26.6600   41.0180 C   0  0  0  0  0  0  0  0  0  0  0  0
   37.8380   26.1400   39.9220 N   0  0  0  0  0  0  0  0  0  0  0  0
   38.3780   24.9060   39.9720 C   0  0  0  0  0  0  0  0  0  0  0  0
   38.3260   24.1480   41.0740 N   0  0  0  0  0  0  0  0  0  0  0  0
   37.7070   23.9600   43.0260 H   0  0  0  0  0  0  0  0  0  0  0  0
   36.6930   26.1330   43.1050 H   0  0  0  0  0  0  0  0  0  0  0  0
   38.8660   24.5390   39.0770 H   0  0  0  0  0  0  0  0  0  0  0  0
   37.1570   30.6310   40.9210 O   0  0  0  0  0  0  0  0  0  0  0  0
   37.6080   31.1350   39.7550 C   0  0  0  0  0  0  0  0  0  0  0  0
   36.6650   31.2050   38.8320 O   0  0  0  0  0  0  0  0  0  0  0  0
   39.8940   32.2640   35.9060 H   0  0  0  0  0  0  0  0  0  0  0  0
   39.9320   32.2460   36.9290 N   0  0  0  0  0  0  0  0  0  0  0  0
   38.9270   31.7740   37.6530 C   0  0  0  0  0  3  0  0  0  0  0  0
   38.8120   31.6740   39.0410 C   0  0  0  0  0  0  0  0  0  0  0  0
   39.8720   32.1210   39.7590 C   0  0  0  0  0  0  0  0  0  0  0  0
   40.0060   32.1370   41.0010 O   0  0  0  0  0  0  0  0  0  0  0  0
   40.9310   32.6170   39.0560 N   0  0  0  0  0  0  0  0  0  0  0  0
   40.9340   32.6640   37.7160 C   0  0  0  0  0  0  0  0  0  0  0  0
   41.9590   33.1400   37.1570 O   0  0  0  0  0  0  0  0  0  0  0  0
   41.7630   32.9680   39.5790 H   0  0  0  0  0  0  0  0  0  0  0  0
  2  1  2  6  0  0  0
  2  3  1  0  0  0  0
  3  4  1  0  0  0  0
  5  2  1  0  0  0  0
  6 12  1  0  0  0  0
  7  6  1  0  0  0  0
  7 13  1  0  0  0  0
  8  5  1  0  0  0  0
  8  7  2  0  0  0  0
  9 10  2  0  0  0  0
  9  8  1  0  0  0  0
 10 11  1  0  0  0  0
 11  6  2  0  0  0  0
 14 10  1  0  0  0  0
 15  2  1  0  0  0  0
 16 15  1  0  0  0  0
 17 16  2  0  0  0  0
 18 19  1  0  0  0  0
 19 20  1  0  0  0  0
 19 25  1  0  0  0  0
 20 21  2  0  0  0  0
 21 16  1  0  0  0  0
 21 22  1  0  0  0  0
 22 23  2  0  0  0  0
 24 27  1  0  0  0  0
 24 22  1  0  0  0  0
 25 24  1  0  0  0  0
 26 25  2  0  0  0  0
M  END
>  <minimizedAffinity>
-5.15839148

$$$$

 OpenBabel03242522523D

 27 28  0  0  0  0  0  0  0  0999 V2000
   37.3350   32.7930   40.3030 O   0  0  0  0  0  0  0  0  0  0  0  0
   37.1960   31.2750   40.5780 P   0  0  2  0  0  0  0  0  0  0  0  0
   35.6870   31.0930   41.3030 O   0  0  0  0  0  0  0  0  0  0  0  0
   35.4870   30.1600   41.5050 H   0  0  0  0  0  0  0  0  0  0  0  0
   38.4200   30.8500   41.6590 O   0  0  0  0  0  0  0  0  0  0  0  0
   39.6920   27.8130   43.2040 C   0  0  0  0  0  0  0  0  0  0  0  0
   39.6460   29.0710   42.5550 C   0  0  0  0  0  0  0  0  0  0  0  0
   38.4180   29.6280   42.2970 C   0  0  0  0  0  0  0  0  0  0  0  0
   37.2860   28.9620   42.6710 N   0  0  0  0  0  0  0  0  0  0  0  0
   37.3770   27.7660   43.2870 C   0  0  0  0  0  0  0  0  0  0  0  0
   38.5540   27.1880   43.5560 N   0  0  0  0  0  0  0  0  0  0  0  0
   40.6050   27.2920   43.4520 H   0  0  0  0  0  0  0  0  0  0  0  0
   40.6220   29.4240   42.3510 H   0  0  0  0  0  0  0  0  0  0  0  0
   36.4500   27.2770   43.5630 H   0  0  0  0  0  0  0  0  0  0  0  0
   37.3180   30.4660   39.1450 O   0  0  0  0  0  0  0  0  0  0  0  0
   36.6250   29.4500   38.5930 C   0  0  0  0  0  0  0  0  0  0  0  0
   37.2540   28.2920   38.6910 O   0  0  0  0  0  0  0  0  0  0  0  0
   34.3100   28.3080   34.7640 H   0  0  0  0  0  0  0  0  0  0  0  0
   34.2350   28.4730   35.7720 N   0  0  0  0  0  0  0  0  0  0  0  0
   35.2870   28.8200   36.5000 C   0  0  0  0  0  3  0  0  0  0  0  0
   35.3630   29.0810   37.8690 C   0  0  0  0  0  0  0  0  0  0  0  0
   34.2040   28.9680   38.5620 C   0  0  0  0  0  0  0  0  0  0  0  0
   34.0180   29.1490   39.7840 O   0  0  0  0  0  0  0  0  0  0  0  0
   33.0920   28.6120   37.8540 N   0  0  0  0  0  0  0  0  0  0  0  0
   33.1340   28.3850   36.5340 C   0  0  0  0  0  0  0  0  0  0  0  0
   32.0550   28.0610   35.9690 O   0  0  0  0  0  0  0  0  0  0  0  0
   32.1840   28.5170   38.3580 H   0  0  0  0  0  0  0  0  0  0  0  0
  2  1  2  6  0  0  0
  2  3  1  0  0  0  0
  2  5  1  0  0  0  0
  3  4  1  0  0  0  0
  5  8  1  0  0  0  0
  6 12  1  0  0  0  0
  6 11  1  0  0  0  0
  7  6  2  0  0  0  0
  8  7  1  0  0  0  0
  8  9  2  0  0  0  0
  9 10  1  0  0  0  0
 10 11  2  0  0  0  0
 10 14  1  0  0  0  0
 13  7  1  0  0  0  0
 15  2  1  0  0  0  0
 16 17  2  0  0  0  0
 16 15  1  0  0  0  0
 18 19  1  0  0  0  0
 19 20  1  0  0  0  0
 19 25  1  0  0  0  0
 20 21  2  0  0  0  0
 21 22  1  0  0  0  0
 21 16  1  0  0  0  0
 22 23  2  0  0  0  0
 24 27  1  0  0  0  0
 24 22  1  0  0  0  0
 25 24  1  0  0  0  0
 26 25  2  0  0  0  0
M  END
>  <minimizedAffinity>
-5.10594177

$$$$

 OpenBabel03242522523D

 27 28  0  0  0  0  0  0  0  0999 V2000
   37.3090   32.3780   38.0350 O   0  0  0  0  0  0  0  0  0  0  0  0
   38.6320   31.5760   37.9700 P   0  0  2  0  0  0  0  0  0  0  0  0
   39.5210   32.2860   36.7290 O   0  0  0  0  0  0  0  0  0  0  0  0
   40.3920   31.8630   36.6130 H   0  0  0  0  0  0  0  0  0  0  0  0
   38.2320   29.9870   37.5670 O   0  0  0  0  0  0  0  0  0  0  0  0
   35.3520   29.2980   35.4540 C   0  0  0  0  0  0  0  0  0  0  0  0
   36.6630   29.6420   35.8660 C   0  0  0  0  0  0  0  0  0  0  0  0
   36.9460   29.6410   37.2090 C   0  0  0  0  0  0  0  0  0  0  0  0
   35.9660   29.3110   38.1020 N   0  0  0  0  0  0  0  0  0  0  0  0
   34.7320   28.9900   37.6650 C   0  0  0  0  0  0  0  0  0  0  0  0
   34.4150   28.9800   36.3640 N   0  0  0  0  0  0  0  0  0  0  0  0
   35.0300   29.2690   34.4240 H   0  0  0  0  0  0  0  0  0  0  0  0
   37.2740   29.8610   35.0310 H   0  0  0  0  0  0  0  0  0  0  0  0
   33.9900   28.7360   38.4120 H   0  0  0  0  0  0  0  0  0  0  0  0
   39.3850   31.6790   39.4350 O   0  0  0  0  0  0  0  0  0  0  0  0
   39.1150   31.1690   40.6530 C   0  0  0  0  0  0  0  0  0  0  0  0
   39.7250   31.8240   41.6250 O   0  0  0  0  0  0  0  0  0  0  0  0
   38.9540   27.2640   43.1120 H   0  0  0  0  0  0  0  0  0  0  0  0
   38.3990   28.0200   42.7010 N   0  0  0  0  0  0  0  0  0  0  0  0
   38.9630   29.0030   42.0140 C   0  0  0  0  0  3  0  0  0  0  0  0
   38.3650   30.1010   41.3940 C   0  0  0  0  0  0  0  0  0  0  0  0
   37.0160   30.1830   41.5020 C   0  0  0  0  0  0  0  0  0  0  0  0
   36.2600   31.0630   41.0370 O   0  0  0  0  0  0  0  0  0  0  0  0
   36.3900   29.1930   42.2020 N   0  0  0  0  0  0  0  0  0  0  0  0
   37.0680   28.1800   42.7590 C   0  0  0  0  0  0  0  0  0  0  0  0
   36.4000   27.3130   43.3860 O   0  0  0  0  0  0  0  0  0  0  0  0
   35.3520   29.2270   42.3040 H   0  0  0  0  0  0  0  0  0  0  0  0
  2  1  2  1  0  0  0
  2 15  1  0  0  0  0
  3  2  1  0  0  0  0
  4  3  1  0  0  0  0
  5  2  1  0  0  0  0
  6  7  2  0  0  0  0
  6 11  1  0  0  0  0
  7  8  1  0  0  0  0
  8  5  1  0  0  0  0
  8  9  2  0  0  0  0
 10  9  1  0  0  0  0
 10 14  1  0  0  0  0
 11 10  2  0  0  0  0
 12  6  1  0  0  0  0
 13  7  1  0  0  0  0
 15 16  1  0  0  0  0
 16 21  1  0  0  0  0
 16 17  2  0  0  0  0
 19 25  1  0  0  0  0
 19 18  1  0  0  0  0
 20 19  1  0  0  0  0
 21 22  1  0  0  0  0
 21 20  2  0  0  0  0
 22 24  1  0  0  0  0
 23 22  2  0  0  0  0
 24 27  1  0  0  0  0
 24 25  1  0  0  0  0
 25 26  2  0  0  0  0
M  END
>  <minimizedAffinity>
-5.10126638

$$$$

 OpenBabel03242522523D

 27 28  0  0  0  0  0  0  0  0999 V2000
   35.0810   29.6610   40.4550 O   0  0  0  0  0  0  0  0  0  0  0  0
   36.5640   30.0550   40.6660 P   0  0  2  0  0  0  0  0  0  0  0  0
   37.4180   29.2190   39.4800 O   0  0  0  0  0  0  0  0  0  0  0  0
   38.3740   29.4110   39.5110 H   0  0  0  0  0  0  0  0  0  0  0  0
   37.0110   29.5140   42.2000 O   0  0  0  0  0  0  0  0  0  0  0  0
   39.2870   26.9570   43.4300 C   0  0  0  0  0  0  0  0  0  0  0  0
   38.6680   28.2130   43.2170 C   0  0  0  0  0  0  0  0  0  0  0  0
   37.5790   28.2720   42.3830 C   0  0  0  0  0  0  0  0  0  0  0  0
   37.1260   27.1280   41.7900 N   0  0  0  0  0  0  0  0  0  0  0  0
   37.7460   25.9540   42.0200 C   0  0  0  0  0  0  0  0  0  0  0  0
   38.8110   25.8540   42.8250 N   0  0  0  0  0  0  0  0  0  0  0  0
   40.1460   26.8060   44.0660 H   0  0  0  0  0  0  0  0  0  0  0  0
   39.1610   28.9730   43.7650 H   0  0  0  0  0  0  0  0  0  0  0  0
   37.3490   25.0750   41.5250 H   0  0  0  0  0  0  0  0  0  0  0  0
   36.7020   31.6930   40.5160 O   0  0  0  0  0  0  0  0  0  0  0  0
   37.4800   32.4930   39.7600 C   0  0  0  0  0  0  0  0  0  0  0  0
   36.9750   33.7040   39.6130 O   0  0  0  0  0  0  0  0  0  0  0  0
   41.8680   33.8290   39.2250 H   0  0  0  0  0  0  0  0  0  0  0  0
   41.0870   33.3230   38.7970 N   0  0  0  0  0  0  0  0  0  0  0  0
   39.9140   33.2140   39.4050 C   0  0  0  0  0  3  0  0  0  0  0  0
   38.7550   32.5680   38.9710 C   0  0  0  0  0  0  0  0  0  0  0  0
   38.8280   31.9630   37.7600 C   0  0  0  0  0  0  0  0  0  0  0  0
   37.9330   31.3280   37.1620 O   0  0  0  0  0  0  0  0  0  0  0  0
   40.0180   32.0500   37.0960 N   0  0  0  0  0  0  0  0  0  0  0  0
   41.0710   32.7000   37.6100 C   0  0  0  0  0  0  0  0  0  0  0  0
   42.1260   32.7240   36.9210 O   0  0  0  0  0  0  0  0  0  0  0  0
   40.1070   31.5960   36.1610 H   0  0  0  0  0  0  0  0  0  0  0  0
  2  1  2  6  0  0  0
  2  5  1  0  0  0  0
  3  4  1  0  0  0  0
  3  2  1  0  0  0  0
  5  8  1  0  0  0  0
  6 12  1  0  0  0  0
  7  6  1  0  0  0  0
  7 13  1  0  0  0  0
  8  7  2  0  0  0  0
  9 10  2  0  0  0  0
  9  8  1  0  0  0  0
 10 11  1  0  0  0  0
 11  6  2  0  0  0  0
 14 10  1  0  0  0  0
 15  2  1  0  0  0  0
 16 15  1  0  0  0  0
 17 16  2  0  0  0  0
 19 18  1  0  0  0  0
 19 20  1  0  0  0  0
 21 20  2  0  0  0  0
 21 16  1  0  0  0  0
 22 21  1  0  0  0  0
 23 22  2  0  0  0  0
 24 25  1  0  0  0  0
 24 22  1  0  0  0  0
 25 19  1  0  0  0  0
 26 25  2  0  0  0  0
 27 24  1  0  0  0  0
M  END
>  <minimizedAffinity>
-5.0898242

$$$$

 OpenBabel03242522523D

 27 28  0  0  0  0  0  0  0  0999 V2000
   34.8770   29.1640   39.7520 O   0  0  0  0  0  0  0  0  0  0  0  0
   36.0600   29.5880   40.6560 P   0  0  2  0  0  0  0  0  0  0  0  0
   35.5550   31.0030   41.4140 O   0  0  0  0  0  0  0  0  0  0  0  0
   36.2280   31.3520   42.0280 H   0  0  0  0  0  0  0  0  0  0  0  0
   37.3730   29.9030   39.6430 O   0  0  0  0  0  0  0  0  0  0  0  0
   40.7570   31.0380   40.3440 C   0  0  0  0  0  0  0  0  0  0  0  0
   39.6710   30.2220   39.9410 C   0  0  0  0  0  0  0  0  0  0  0  0
   38.4000   30.7320   40.0400 C   0  0  0  0  0  0  0  0  0  0  0  0
   38.2200   31.9990   40.5170 N   0  0  0  0  0  0  0  0  0  0  0  0
   39.2830   32.7400   40.8890 C   0  0  0  0  0  0  0  0  0  0  0  0
   40.5380   32.2800   40.8100 N   0  0  0  0  0  0  0  0  0  0  0  0
   41.7910   30.7310   40.3040 H   0  0  0  0  0  0  0  0  0  0  0  0
   40.0140   29.2810   39.5990 H   0  0  0  0  0  0  0  0  0  0  0  0
   39.0880   33.7380   41.2620 H   0  0  0  0  0  0  0  0  0  0  0  0
   36.3730   28.3680   41.7230 O   0  0  0  0  0  0  0  0  0  0  0  0
   37.3980   28.1090   42.5590 C   0  0  0  0  0  0  0  0  0  0  0  0
   37.3340   28.8110   43.6760 O   0  0  0  0  0  0  0  0  0  0  0  0
   41.9040   27.7490   43.5030 H   0  0  0  0  0  0  0  0  0  0  0  0
   41.0520   27.2310   43.2680 N   0  0  0  0  0  0  0  0  0  0  0  0
   39.8960   27.8490   43.0680 C   0  0  0  0  0  3  0  0  0  0  0  0
   38.6520   27.3050   42.7440 C   0  0  0  0  0  0  0  0  0  0  0  0
   38.6070   25.9570   42.6130 C   0  0  0  0  0  0  0  0  0  0  0  0
   37.6200   25.2440   42.3300 O   0  0  0  0  0  0  0  0  0  0  0  0
   39.7750   25.2770   42.8110 N   0  0  0  0  0  0  0  0  0  0  0  0
   40.9180   25.9050   43.1190 C   0  0  0  0  0  0  0  0  0  0  0  0
   41.9430   25.1900   43.2820 O   0  0  0  0  0  0  0  0  0  0  0  0
   39.7740   24.2380   42.7170 H   0  0  0  0  0  0  0  0  0  0  0  0
  2  1  2  6  0  0  0
  2  3  1  0  0  0  0
  2 15  1  0  0  0  0
  3  4  1  0  0  0  0
  5  8  1  0  0  0  0
  5  2  1  0  0  0  0
  6 11  1  0  0  0  0
  7  8  1  0  0  0  0
  7  6  2  0  0  0  0
  8  9  2  0  0  0  0
  9 10  1  0  0  0  0
 10 14  1  0  0  0  0
 11 10  2  0  0  0  0
 12  6  1  0  0  0  0
 13  7  1  0  0  0  0
 15 16  1  0  0  0  0
 16 21  1  0  0  0  0
 16 17  2  0  0  0  0
 19 18  1  0  0  0  0
 20 19  1  0  0  0  0
 21 20  2  0  0  0  0
 22 21  1  0  0  0  0
 22 24  1  0  0  0  0
 23 22  2  0  0  0  0
 24 25  1  0  0  0  0
 25 19  1  0  0  0  0
 25 26  2  0  0  0  0
 27 24  1  0  0  0  0
M  END
>  <minimizedAffinity>
-5.01984692

$$$$

 OpenBabel03242522523D

 27 28  0  0  0  0  0  0  0  0999 V2000
   37.2400   31.2860   38.6340 O   0  0  0  0  0  0  0  0  0  0  0  0
   37.3100   31.6940   40.1260 P   0  0  2  0  0  0  0  0  0  0  0  0
   36.8440   33.3110   40.1660 O   0  0  0  0  0  0  0  0  0  0  0  0
   36.8370   33.6690   41.0740 H   0  0  0  0  0  0  0  0  0  0  0  0
   38.9190   31.5370   40.6100 O   0  0  0  0  0  0  0  0  0  0  0  0
   40.3470   28.9260   42.7020 C   0  0  0  0  0  0  0  0  0  0  0  0
   39.8010   30.1650   42.2880 C   0  0  0  0  0  0  0  0  0  0  0  0
   39.4410   30.3130   40.9710 C   0  0  0  0  0  0  0  0  0  0  0  0
   39.6160   29.2700   40.1060 N   0  0  0  0  0  0  0  0  0  0  0  0
   40.1400   28.1080   40.5440 C   0  0  0  0  0  0  0  0  0  0  0  0
   40.5050   27.9240   41.8190 N   0  0  0  0  0  0  0  0  0  0  0  0
   40.6600   28.7100   43.7120 H   0  0  0  0  0  0  0  0  0  0  0  0
   39.7420   30.8400   43.1000 H   0  0  0  0  0  0  0  0  0  0  0  0
   40.2600   27.3120   39.8190 H   0  0  0  0  0  0  0  0  0  0  0  0
   36.2990   30.7160   40.9900 O   0  0  0  0  0  0  0  0  0  0  0  0
   36.0030   29.4030   40.9270 C   0  0  0  0  0  0  0  0  0  0  0  0
   34.8000   29.1760   40.4290 O   0  0  0  0  0  0  0  0  0  0  0  0
   37.0530   25.1000   39.6230 H   0  0  0  0  0  0  0  0  0  0  0  0
   37.0410   25.7600   40.4060 N   0  0  0  0  0  0  0  0  0  0  0  0
   36.5960   27.0000   40.2620 C   0  0  0  0  0  3  0  0  0  0  0  0
   36.5100   28.0200   41.2120 C   0  0  0  0  0  0  0  0  0  0  0  0
   36.9380   27.7090   42.4600 C   0  0  0  0  0  0  0  0  0  0  0  0
   36.9600   28.4440   43.4700 O   0  0  0  0  0  0  0  0  0  0  0  0
   37.4050   26.4410   42.6560 N   0  0  0  0  0  0  0  0  0  0  0  0
   37.4420   25.5380   41.6670 C   0  0  0  0  0  0  0  0  0  0  0  0
   37.8910   24.3940   41.9460 O   0  0  0  0  0  0  0  0  0  0  0  0
   37.7410   26.1700   43.6050 H   0  0  0  0  0  0  0  0  0  0  0  0
  2  1  2  6  0  0  0
  2  3  1  0  0  0  0
  2  5  1  0  0  0  0
  2 15  1  0  0  0  0
  3  4  1  0  0  0  0
  5  8  1  0  0  0  0
  6 12  1  0  0  0  0
  7  6  1  0  0  0  0
  7 13  1  0  0  0  0
  8  7  2  0  0  0  0
  9 10  2  0  0  0  0
  9  8  1  0  0  0  0
 10 11  1  0  0  0  0
 11  6  2  0  0  0  0
 14 10  1  0  0  0  0
 16 15  1  0  0  0  0
 16 21  1  0  0  0  0
 17 16  2  0  0  0  0
 18 19  1  0  0  0  0
 19 25  1  0  0  0  0
 20 19  1  0  0  0  0
 20 21  2  0  0  0  0
 21 22  1  0  0  0  0
 22 24  1  0  0  0  0
 22 23  2  0  0  0  0
 24 27  1  0  0  0  0
 25 26  2  0  0  0  0
 25 24  1  0  0  0  0
M  END
>  <minimizedAffinity>
-4.89511156

$$$$

 OpenBabel03242522523D

 27 28  0  0  0  0  0  0  0  0999 V2000
   39.7450   30.4540   37.7920 O   0  0  0  0  0  0  0  0  0  0  0  0
   38.8660   31.7290   37.8120 P   0  0  2  0  0  0  0  0  0  0  0  0
   39.0520   32.4210   36.2890 O   0  0  0  0  0  0  0  0  0  0  0  0
   38.5210   33.2320   36.1850 H   0  0  0  0  0  0  0  0  0  0  0  0
   39.4950   32.7500   38.9990 O   0  0  0  0  0  0  0  0  0  0  0  0
   42.0450   31.9910   41.4790 C   0  0  0  0  0  0  0  0  0  0  0  0
   41.4100   32.4960   40.3190 C   0  0  0  0  0  0  0  0  0  0  0  0
   40.0710   32.2460   40.1450 C   0  0  0  0  0  0  0  0  0  0  0  0
   39.3950   31.5260   41.0890 N   0  0  0  0  0  0  0  0  0  0  0  0
   40.0400   31.0640   42.1790 C   0  0  0  0  0  0  0  0  0  0  0  0
   41.3440   31.2850   42.3850 N   0  0  0  0  0  0  0  0  0  0  0  0
   43.0900   32.1330   41.7080 H   0  0  0  0  0  0  0  0  0  0  0  0
   42.0980   33.0280   39.7150 H   0  0  0  0  0  0  0  0  0  0  0  0
   39.4600   30.4970   42.8970 H   0  0  0  0  0  0  0  0  0  0  0  0
   37.3060   31.2910   38.1270 O   0  0  0  0  0  0  0  0  0  0  0  0
   36.7440   30.1900   38.6650 C   0  0  0  0  0  0  0  0  0  0  0  0
   35.8550   29.6300   37.8640 O   0  0  0  0  0  0  0  0  0  0  0  0
   37.3140   26.0930   40.7170 H   0  0  0  0  0  0  0  0  0  0  0  0
   37.0560   27.0740   40.8590 N   0  0  0  0  0  0  0  0  0  0  0  0
   37.0360   27.9400   39.8560 C   0  0  0  0  0  3  0  0  0  0  0  0
   36.7120   29.2980   39.8710 C   0  0  0  0  0  0  0  0  0  0  0  0
   36.3680   29.8140   41.0770 C   0  0  0  0  0  0  0  0  0  0  0  0
   36.0400   30.9900   41.3430 O   0  0  0  0  0  0  0  0  0  0  0  0
   36.3740   28.9590   42.1410 N   0  0  0  0  0  0  0  0  0  0  0  0
   36.7030   27.6670   42.0100 C   0  0  0  0  0  0  0  0  0  0  0  0
   36.6800   26.9570   43.0520 O   0  0  0  0  0  0  0  0  0  0  0  0
   36.1130   29.3250   43.0820 H   0  0  0  0  0  0  0  0  0  0  0  0
  2  1  2  1  0  0  0
  2 15  1  0  0  0  0
  2  5  1  0  0  0  0
  3  2  1  0  0  0  0
  4  3  1  0  0  0  0
  5  8  1  0  0  0  0
  6 12  1  0  0  0  0
  6 11  1  0  0  0  0
  7  6  2  0  0  0  0
  8  7  1  0  0  0  0
  8  9  2  0  0  0  0
  9 10  1  0  0  0  0
 10 11  2  0  0  0  0
 10 14  1  0  0  0  0
 13  7  1  0  0  0  0
 15 16  1  0  0  0  0
 16 21  1  0  0  0  0
 17 16  2  0  0  0  0
 18 19  1  0  0  0  0
 19 25  1  0  0  0  0
 20 21  2  0  0  0  0
 20 19  1  0  0  0  0
 21 22  1  0  0  0  0
 22 23  2  0  0  0  0
 22 24  1  0  0  0  0
 24 27  1  0  0  0  0
 25 24  1  0  0  0  0
 25 26  2  0  0  0  0
M  END
>  <minimizedAffinity>
-4.88287973

$$$$

 OpenBabel03242522523D

 27 28  0  0  0  0  0  0  0  0999 V2000
   37.8020   29.8460   42.5100 O   0  0  0  0  0  0  0  0  0  0  0  0
   36.9700   28.9530   41.5570 P   0  0  2  0  0  0  0  0  0  0  0  0
   35.5880   29.8480   41.2050 O   0  0  0  0  0  0  0  0  0  0  0  0
   34.9940   29.3790   40.5890 H   0  0  0  0  0  0  0  0  0  0  0  0
   36.5610   27.5570   42.4120 O   0  0  0  0  0  0  0  0  0  0  0  0
   37.8950   24.1850   42.1330 C   0  0  0  0  0  0  0  0  0  0  0  0
   37.0230   25.2950   42.0310 C   0  0  0  0  0  0  0  0  0  0  0  0
   37.4440   26.5040   42.5270 C   0  0  0  0  0  0  0  0  0  0  0  0
   38.6810   26.6020   43.0970 N   0  0  0  0  0  0  0  0  0  0  0  0
   39.4790   25.5180   43.1720 C   0  0  0  0  0  0  0  0  0  0  0  0
   39.1060   24.3210   42.7030 N   0  0  0  0  0  0  0  0  0  0  0  0
   37.6590   23.1940   41.7740 H   0  0  0  0  0  0  0  0  0  0  0  0
   36.1170   25.0200   41.5570 H   0  0  0  0  0  0  0  0  0  0  0  0
   40.4510   25.6470   43.6340 H   0  0  0  0  0  0  0  0  0  0  0  0
   37.8760   28.6230   40.2170 O   0  0  0  0  0  0  0  0  0  0  0  0
   37.5800   28.1360   38.9960 C   0  0  0  0  0  0  0  0  0  0  0  0
   37.6230   26.8160   38.9510 O   0  0  0  0  0  0  0  0  0  0  0  0
   38.4040   28.2290   34.4530 H   0  0  0  0  0  0  0  0  0  0  0  0
   37.7430   28.4890   35.1920 N   0  0  0  0  0  0  0  0  0  0  0  0
   37.9880   28.2240   36.4670 C   0  0  0  0  0  3  0  0  0  0  0  0
   37.2070   28.5030   37.5900 C   0  0  0  0  0  0  0  0  0  0  0  0
   36.0300   29.1350   37.3540 C   0  0  0  0  0  0  0  0  0  0  0  0
   35.1680   29.4880   38.1860 O   0  0  0  0  0  0  0  0  0  0  0  0
   35.7350   29.4280   36.0540 N   0  0  0  0  0  0  0  0  0  0  0  0
   36.5640   29.1120   35.0490 C   0  0  0  0  0  0  0  0  0  0  0  0
   36.2030   29.4240   33.8830 O   0  0  0  0  0  0  0  0  0  0  0  0
   34.8370   29.9140   35.8390 H   0  0  0  0  0  0  0  0  0  0  0  0
  2  5  1  0  0  0  0
  2  1  2  1  0  0  0
  3  2  1  0  0  0  0
  4  3  1  0  0  0  0
  5  8  1  0  0  0  0
  6 11  1  0  0  0  0
  7  6  2  0  0  0  0
  7  8  1  0  0  0  0
  8  9  2  0  0  0  0
  9 10  1  0  0  0  0
 10 14  1  0  0  0  0
 11 10  2  0  0  0  0
 12  6  1  0  0  0  0
 13  7  1  0  0  0  0
 15  2  1  0  0  0  0
 16 15  1  0  0  0  0
 17 16  2  0  0  0  0
 18 19  1  0  0  0  0
 19 20  1  0  0  0  0
 20 21  2  0  0  0  0
 21 16  1  0  0  0  0
 22 21  1  0  0  0  0
 22 23  2  0  0  0  0
 24 22  1  0  0  0  0
 25 19  1  0  0  0  0
 25 24  1  0  0  0  0
 26 25  2  0  0  0  0
 27 24  1  0  0  0  0
M  END
>  <minimizedAffinity>
-4.86532259

$$$$
