
 OpenBabel03252509043D

 49 51  0  0  1  0  0  0  0  0999 V2000
   47.1390   34.1700   43.0740 N   0  0  0  0  0  0  0  0  0  0  0  0
   46.6770   35.2270   42.2590 C   0  0  0  0  0  0  0  0  0  0  0  0
   45.1790   35.4650   42.3470 C   0  0  0  0  0  0  0  0  0  0  0  0
   44.5960   35.2200   43.7180 C   0  0  0  0  0  0  0  0  0  0  0  0
   45.6850   34.8900   44.7230 C   0  0  0  0  0  0  0  0  0  0  0  0
   46.3850   33.6230   44.0800 C   0  0  2  0  0  0  0  0  0  0  0  0
   47.1760   36.1650   42.6060 H   0  0  0  0  0  0  0  0  0  0  0  0
   46.9050   35.1470   41.1910 H   0  0  0  0  0  0  0  0  0  0  0  0
   44.6320   34.8960   41.5580 H   0  0  0  0  0  0  0  0  0  0  0  0
   44.9900   36.5320   42.1030 H   0  0  0  0  0  0  0  0  0  0  0  0
   43.9520   34.3160   43.6450 H   0  0  0  0  0  0  0  0  0  0  0  0
   43.9420   36.0340   44.0700 H   0  0  0  0  0  0  0  0  0  0  0  0
   45.2290   34.6000   45.6760 H   0  0  0  0  0  0  0  0  0  0  0  0
   46.4180   35.6940   44.7920 H   0  0  0  0  0  0  0  0  0  0  0  0
   45.5760   32.9350   43.7590 H   0  0  0  0  0  0  0  0  0  0  0  0
   48.1810   33.3780   42.4760 C   0  0  0  0  0  0  0  0  0  0  0  0
   48.7810   32.9680   43.3130 H   0  0  0  0  0  0  0  0  0  0  0  0
   48.8050   34.0710   41.8730 H   0  0  0  0  0  0  0  0  0  0  0  0
   47.5380   32.3140   41.6610 C   0  0  0  0  0  0  0  0  0  0  0  0
   46.4460   32.5060   41.5030 H   0  0  0  0  0  0  0  0  0  0  0  0
   47.6290   31.3280   42.1280 H   0  0  0  0  0  0  0  0  0  0  0  0
   49.5620   31.2430   38.6840 C   0  0  0  0  0  0  0  0  0  0  0  0
   48.9810   31.2740   39.9660 C   0  0  0  0  0  0  0  0  0  0  0  0
   48.1380   32.3010   40.3040 C   0  0  0  0  0  0  0  0  0  0  0  0
   47.9060   33.2380   39.3790 N   0  0  0  0  0  0  0  0  0  0  0  0
   48.4530   33.2170   38.1580 C   0  0  0  0  0  0  0  0  0  0  0  0
   49.2890   32.2200   37.7920 N   0  0  0  0  0  0  0  0  0  0  0  0
   50.2130   30.4020   38.4970 H   0  0  0  0  0  0  0  0  0  0  0  0
   49.1840   30.5030   40.7050 H   0  0  0  0  0  0  0  0  0  0  0  0
   48.2740   33.9680   37.3990 H   0  0  0  0  0  0  0  0  0  0  0  0
   47.1320   33.1700   45.1500 O   0  0  0  0  0  0  0  0  0  0  0  0
   45.9900   30.8080   44.6820 O   0  0  0  0  0  0  0  0  0  0  0  0
   46.5630   31.7220   45.7740 P   0  0  2  0  0  0  0  0  0  0  0  0
   45.1840   32.1400   46.7150 O   0  0  0  0  0  0  0  0  0  0  0  0
   45.4450   32.3510   47.6320 H   0  0  0  0  0  0  0  0  0  0  0  0
   47.6470   30.9440   46.7690 O   0  0  0  0  0  0  0  0  0  0  0  0
   47.5340   29.5760   46.5730 C   0  0  0  0  0  0  0  0  0  0  0  0
   46.5150   29.2100   46.8690 H   0  0  0  0  0  0  0  0  0  0  0  0
   47.7320   29.2980   45.5270 H   0  0  0  0  0  0  0  0  0  0  0  0
   48.4870   28.9290   47.4550 N   0  0  0  0  0  0  0  0  0  0  0  0
   49.5270   29.5080   48.0800 C   0  0  0  0  0  3  0  0  0  0  0  0
   50.3600   28.7630   48.8980 C   0  0  0  0  0  0  0  0  0  0  0  0
   51.1880   29.2520   49.3870 H   0  0  0  0  0  0  0  0  0  0  0  0
   50.1420   27.4060   49.0940 C   0  0  0  0  0  0  0  0  0  0  0  0
   50.8900   26.7210   49.8330 O   0  0  0  0  0  0  0  0  0  0  0  0
   49.0930   26.8710   48.4520 N   0  0  0  0  0  0  0  0  0  0  0  0
   48.2880   27.6010   47.6580 C   0  0  0  0  0  0  0  0  0  0  0  0
   47.3510   26.9670   47.1260 O   0  0  0  0  0  0  0  0  0  0  0  0
   48.9570   25.8450   48.6210 H   0  0  0  0  0  0  0  0  0  0  0  0
  1  6  1  0  0  0  0
  2  3  1  0  0  0  0
  2  7  1  0  0  0  0
  2  1  1  0  0  0  0
  3  4  1  0  0  0  0
  4 12  1  0  0  0  0
  4  5  1  0  0  0  0
  5 14  1  0  0  0  0
  5 13  1  0  0  0  0
  6 15  1  6  0  0  0
  6  5  1  0  0  0  0
  6 31  1  0  0  0  0
  8  2  1  0  0  0  0
  9  3  1  0  0  0  0
 10  3  1  0  0  0  0
 11  4  1  0  0  0  0
 16  1  1  0  0  0  0
 16 17  1  0  0  0  0
 18 16  1  0  0  0  0
 19 21  1  0  0  0  0
 19 16  1  0  0  0  0
 20 19  1  0  0  0  0
 22 23  1  0  0  0  0
 23 24  2  0  0  0  0
 23 29  1  0  0  0  0
 24 19  1  0  0  0  0
 25 24  1  0  0  0  0
 26 25  2  0  0  0  0
 27 26  1  0  0  0  0
 27 22  2  0  0  0  0
 28 22  1  0  0  0  0
 30 26  1  0  0  0  0
 31 33  1  0  0  0  0
 33 32  2  6  0  0  0
 33 34  1  0  0  0  0
 33 36  1  0  0  0  0
 34 35  1  0  0  0  0
 37 36  1  0  0  0  0
 37 38  1  0  0  0  0
 37 40  1  0  0  0  0
 39 37  1  0  0  0  0
 40 47  1  0  0  0  0
 40 41  1  0  0  0  0
 41 42  2  0  0  0  0
 42 44  1  0  0  0  0
 42 43  1  0  0  0  0
 44 45  2  0  0  0  0
 46 49  1  0  0  0  0
 46 44  1  0  0  0  0
 47 46  1  0  0  0  0
 48 47  2  0  0  0  0
M  END
>  <minimizedAffinity>
-4.01271677

>  <minimizedRMSD>
1.45936143

$$$$
