
 OpenBabel03242518383D

 40 43  0  0  1  0  0  0  0  0999 V2000
   47.3780   33.5640   40.9210 O   0  0  0  0  0  0  0  0  0  0  0  0
   47.4950   33.7300   39.5170 C   0  0  0  0  0  0  0  0  0  0  0  0
   48.3720   34.4990   38.7450 C   0  0  0  0  0  0  0  0  0  0  0  0
   48.0670   34.3120   37.4090 C   0  0  0  0  0  0  0  0  0  0  0  0
   47.0240   33.4420   37.4290 C   0  0  0  0  0  0  0  0  0  0  0  0
   46.6910   33.1040   38.6600 O   0  0  0  0  0  0  0  0  0  0  0  0
   49.1260   35.1030   39.2230 H   0  0  0  0  0  0  0  0  0  0  0  0
   48.5900   34.7880   36.5900 H   0  0  0  0  0  0  0  0  0  0  0  0
   46.3310   32.9290   36.2270 C   0  0  2  0  0  0  0  0  0  0  0  0
   46.1800   31.4910   36.0090 C   0  0  0  0  0  0  0  0  0  0  0  0
   47.2700   32.1640   35.2580 C   0  0  1  0  0  0  0  0  0  0  0  0
   45.6680   33.6760   35.7640 H   0  0  0  0  0  0  0  0  0  0  0  0
   46.4190   30.7470   36.8030 H   0  0  0  0  0  0  0  0  0  0  0  0
   45.2570   31.2000   35.4290 H   0  0  0  0  0  0  0  0  0  0  0  0
   48.3140   32.0750   35.5470 H   0  0  0  0  0  0  0  0  0  0  0  0
   48.0660   32.7470   32.9780 C   0  0  0  0  0  0  0  0  0  0  0  0
   49.2720   32.8200   33.3540 O   0  0  0  0  0  0  0  0  0  0  0  0
   46.9880   32.4660   33.8560 N   0  0  0  0  0  0  0  0  0  0  0  0
   47.9370   32.9200   31.9190 H   0  0  0  0  0  0  0  0  0  0  0  0
   46.0070   32.4710   33.5150 H   0  0  0  0  0  0  0  0  0  0  0  0
   47.4780   34.7200   41.7500 C   0  0  0  0  0  0  0  0  0  0  0  0
   48.3280   35.5740   41.4230 O   0  0  0  0  0  0  0  0  0  0  0  0
   46.5840   34.7590   42.8620 C   0  0  0  0  0  0  0  0  0  0  0  0
   45.5810   35.6900   42.7820 C   0  0  0  0  0  0  0  0  0  0  0  0
   44.6730   35.7900   43.8220 C   0  0  0  0  0  0  0  0  0  0  0  0
   44.8140   34.9560   44.8810 N   0  0  0  0  0  0  0  0  0  0  0  0
   45.8030   34.0550   44.9330 C   0  0  0  0  0  0  0  0  0  0  0  0
   46.6720   33.9810   43.9090 N   0  0  0  0  0  0  0  0  0  0  0  0
   45.4010   36.3880   41.9770 H   0  0  0  0  0  0  0  0  0  0  0  0
   43.8590   36.5070   43.8140 H   0  0  0  0  0  0  0  0  0  0  0  0
   45.9030   33.2050   46.0730 N   0  0  0  0  0  0  0  0  0  0  0  0
   45.2450   33.3460   47.2420 C   0  0  0  0  0  3  0  0  0  0  0  0
   45.4360   32.4450   48.2700 C   0  0  0  0  0  0  0  0  0  0  0  0
   44.8910   32.5990   49.1810 H   0  0  0  0  0  0  0  0  0  0  0  0
   46.3230   31.4130   48.0310 C   0  0  0  0  0  0  0  0  0  0  0  0
   46.5070   30.5740   48.9710 O   0  0  0  0  0  0  0  0  0  0  0  0
   46.9690   31.2730   46.8820 N   0  0  0  0  0  0  0  0  0  0  0  0
   46.7600   32.1800   45.8830 C   0  0  0  0  0  0  0  0  0  0  0  0
   47.4230   31.9560   44.8330 O   0  0  0  0  0  0  0  0  0  0  0  0
   47.6280   30.4550   46.7830 H   0  0  0  0  0  0  0  0  0  0  0  0
  1 21  1  0  0  0  0
  2  1  1  0  0  0  0
  3  7  1  0  0  0  0
  3  2  2  0  0  0  0
  4  5  2  0  0  0  0
  4  3  1  0  0  0  0
  5  6  1  0  0  0  0
  6  2  1  0  0  0  0
  8  4  1  0  0  0  0
  9 12  1  6  0  0  0
  9  5  1  0  0  0  0
 10  9  1  0  0  0  0
 10 13  1  0  0  0  0
 11 15  1  1  0  0  0
 11 10  1  0  0  0  0
 11  9  1  0  0  0  0
 14 10  1  0  0  0  0
 16 17  2  0  0  0  0
 16 18  1  0  0  0  0
 18 11  1  0  0  0  0
 19 16  1  0  0  0  0
 20 18  1  0  0  0  0
 21 23  1  0  0  0  0
 22 21  2  0  0  0  0
 23 28  1  0  0  0  0
 24 23  2  0  0  0  0
 24 25  1  0  0  0  0
 25 26  2  0  0  0  0
 26 27  1  0  0  0  0
 27 31  1  0  0  0  0
 28 27  2  0  0  0  0
 29 24  1  0  0  0  0
 30 25  1  0  0  0  0
 31 32  1  0  0  0  0
 32 33  2  0  0  0  0
 33 34  1  0  0  0  0
 35 33  1  0  0  0  0
 35 36  2  0  0  0  0
 37 35  1  0  0  0  0
 38 31  1  0  0  0  0
 38 37  1  0  0  0  0
 39 38  2  0  0  0  0
 40 37  1  0  0  0  0
M  END
>  <minimizedAffinity>
-6.67134857

>  <minimizedRMSD>
0.343150079

$$$$
