
 OpenBabel03252508273D

 42 46  0  0  1  0  0  0  0  0999 V2000
   38.3370   29.1750   42.6360 C   0  0  1  0  0  0  0  0  0  0  0  0
   37.4190   28.7700   43.7100 C   0  0  0  0  0  0  0  0  0  0  0  0
   37.7740   27.8510   42.4770 C   0  0  2  0  0  0  0  0  0  0  0  0
   39.3240   29.4270   43.1680 H   0  0  0  0  0  0  0  0  0  0  0  0
   36.3760   29.0990   43.7480 H   0  0  0  0  0  0  0  0  0  0  0  0
   37.7410   28.2680   44.6420 H   0  0  0  0  0  0  0  0  0  0  0  0
   36.7610   27.6430   42.0080 H   0  0  0  0  0  0  0  0  0  0  0  0
   38.4920   26.5920   42.6990 C   0  0  0  0  0  0  0  0  0  0  0  0
   39.5540   26.3740   43.5210 C   0  0  0  0  0  0  0  0  0  0  0  0
   40.2870   25.2000   43.6070 C   0  0  0  0  0  0  0  0  0  0  0  0
   39.8870   24.1500   42.7660 C   0  0  0  0  0  0  0  0  0  0  0  0
   38.7990   24.3470   41.9170 C   0  0  0  0  0  0  0  0  0  0  0  0
   38.4050   23.2660   41.1540 C   0  0  0  0  0  0  0  0  0  0  0  0
   37.2790   23.3890   40.3420 C   0  0  0  0  0  0  0  0  0  0  0  0
   36.5620   24.5700   40.2970 C   0  0  0  0  0  0  0  0  0  0  0  0
   37.0090   25.6100   41.0790 C   0  0  0  0  0  0  0  0  0  0  0  0
   38.1260   25.5420   41.8960 C   0  0  0  0  0  0  0  0  0  0  0  0
   39.8280   27.2200   44.1550 H   0  0  0  0  0  0  0  0  0  0  0  0
   41.1090   25.0790   44.2680 H   0  0  0  0  0  0  0  0  0  0  0  0
   40.4350   23.2260   42.8060 H   0  0  0  0  0  0  0  0  0  0  0  0
   38.9830   22.3390   41.2050 H   0  0  0  0  0  0  0  0  0  0  0  0
   37.0640   22.4660   39.7810 H   0  0  0  0  0  0  0  0  0  0  0  0
   35.7470   24.4630   39.6290 H   0  0  0  0  0  0  0  0  0  0  0  0
   36.2730   26.3520   40.9450 H   0  0  0  0  0  0  0  0  0  0  0  0
   36.3080   31.4930   40.6000 C   0  0  0  0  0  0  0  0  0  0  0  0
   37.3130   32.1880   39.8390 C   0  0  0  0  0  0  0  0  0  0  0  0
   38.6810   31.8380   40.0670 C   0  0  0  0  0  0  0  0  0  0  0  0
   38.9750   30.8820   40.9750 N   0  0  0  0  0  0  0  0  0  0  0  0
   37.9650   30.2530   41.6710 C   0  0  0  0  0  0  0  0  0  0  0  0
   36.6810   30.5490   41.4890 N   0  0  0  0  0  0  0  0  0  0  0  0
   35.3060   31.8150   40.3680 H   0  0  0  0  0  0  0  0  0  0  0  0
   37.0800   32.9480   39.1160 H   0  0  0  0  0  0  0  0  0  0  0  0
   39.6840   32.5170   39.3230 N   0  0  0  0  0  0  0  0  0  0  0  0
   40.2610   33.5540   39.9620 C   0  0  0  0  0  3  0  0  0  0  0  0
   41.2500   34.2920   39.3400 C   0  0  0  0  0  0  0  0  0  0  0  0
   41.7320   35.1330   39.8320 H   0  0  0  0  0  0  0  0  0  0  0  0
   41.6530   33.9670   38.0530 C   0  0  0  0  0  0  0  0  0  0  0  0
   42.5540   34.6310   37.4750 O   0  0  0  0  0  0  0  0  0  0  0  0
   41.0410   32.9210   37.4650 N   0  0  0  0  0  0  0  0  0  0  0  0
   40.0750   32.2020   38.0750 C   0  0  0  0  0  0  0  0  0  0  0  0
   39.4950   31.2220   37.5350 O   0  0  0  0  0  0  0  0  0  0  0  0
   41.3320   32.6700   36.5090 H   0  0  0  0  0  0  0  0  0  0  0  0
  1  4  1  1  0  0  0
  1  2  1  0  0  0  0
  2  5  1  0  0  0  0
  2  6  1  0  0  0  0
  3  7  1  6  0  0  0
  3  1  1  0  0  0  0
  3  8  1  0  0  0  0
  3  2  1  0  0  0  0
  8  9  1  0  0  0  0
  9 10  2  0  0  0  0
  9 18  1  0  0  0  0
 10 19  1  0  0  0  0
 11 20  1  0  0  0  0
 11 10  1  0  0  0  0
 12 11  2  0  0  0  0
 13 21  1  0  0  0  0
 13 12  1  0  0  0  0
 14 13  2  0  0  0  0
 15 14  1  0  0  0  0
 15 16  2  0  0  0  0
 16 17  1  0  0  0  0
 17 12  1  0  0  0  0
 17  8  2  0  0  0  0
 22 14  1  0  0  0  0
 23 15  1  0  0  0  0
 24 16  1  0  0  0  0
 25 30  1  0  0  0  0
 26 27  1  0  0  0  0
 26 25  2  0  0  0  0
 27 28  2  0  0  0  0
 28 29  1  0  0  0  0
 29  1  1  0  0  0  0
 30 29  2  0  0  0  0
 31 25  1  0  0  0  0
 32 26  1  0  0  0  0
 33 34  1  0  0  0  0
 33 27  1  0  0  0  0
 35 36  1  0  0  0  0
 35 34  2  0  0  0  0
 37 35  1  0  0  0  0
 38 37  2  0  0  0  0
 39 37  1  0  0  0  0
 39 40  1  0  0  0  0
 40 33  1  0  0  0  0
 41 40  2  0  0  0  0
 42 39  1  0  0  0  0
M  END
>  <minimizedAffinity>
-7.5159173

$$$$

 OpenBabel03252508273D

 42 46  0  0  1  0  0  0  0  0999 V2000
   38.0910   31.2900   40.1990 C   0  0  1  0  0  0  0  0  0  0  0  0
   38.3580   30.2580   39.1870 C   0  0  0  0  0  0  0  0  0  0  0  0
   38.8350   30.1490   40.6890 C   0  0  2  0  0  0  0  0  0  0  0  0
   36.9470   31.4040   40.2130 H   0  0  0  0  0  0  0  0  0  0  0  0
   39.1680   30.3470   38.4580 H   0  0  0  0  0  0  0  0  0  0  0  0
   37.6710   29.4210   38.9620 H   0  0  0  0  0  0  0  0  0  0  0  0
   39.9610   30.0370   40.5950 H   0  0  0  0  0  0  0  0  0  0  0  0
   38.2940   29.0860   41.5410 C   0  0  0  0  0  0  0  0  0  0  0  0
   36.9890   28.7450   41.7180 C   0  0  0  0  0  0  0  0  0  0  0  0
   36.5080   27.8180   42.6310 C   0  0  0  0  0  0  0  0  0  0  0  0
   37.4630   27.1820   43.4380 C   0  0  0  0  0  0  0  0  0  0  0  0
   38.8080   27.5110   43.2730 C   0  0  0  0  0  0  0  0  0  0  0  0
   39.7150   26.8140   44.0460 C   0  0  0  0  0  0  0  0  0  0  0  0
   41.0760   27.0550   43.8680 C   0  0  0  0  0  0  0  0  0  0  0  0
   41.5180   27.9720   42.9340 C   0  0  0  0  0  0  0  0  0  0  0  0
   40.5640   28.6350   42.1990 C   0  0  0  0  0  0  0  0  0  0  0  0
   39.2000   28.4390   42.3420 C   0  0  0  0  0  0  0  0  0  0  0  0
   36.2830   29.2670   41.0680 H   0  0  0  0  0  0  0  0  0  0  0  0
   35.4760   27.5870   42.7290 H   0  0  0  0  0  0  0  0  0  0  0  0
   37.1240   26.4590   44.1580 H   0  0  0  0  0  0  0  0  0  0  0  0
   39.3460   26.0900   44.7780 H   0  0  0  0  0  0  0  0  0  0  0  0
   41.7010   26.4440   44.5390 H   0  0  0  0  0  0  0  0  0  0  0  0
   42.5780   28.0090   42.9480 H   0  0  0  0  0  0  0  0  0  0  0  0
   41.1300   29.2010   41.5140 H   0  0  0  0  0  0  0  0  0  0  0  0
   38.5930   34.9480   40.2410 C   0  0  0  0  0  0  0  0  0  0  0  0
   39.9930   35.0660   39.9290 C   0  0  0  0  0  0  0  0  0  0  0  0
   40.7340   33.8600   39.7240 C   0  0  0  0  0  0  0  0  0  0  0  0
   40.1010   32.6710   39.8300 N   0  0  0  0  0  0  0  0  0  0  0  0
   38.7550   32.6260   40.1310 C   0  0  0  0  0  0  0  0  0  0  0  0
   38.0320   33.7250   40.3290 N   0  0  0  0  0  0  0  0  0  0  0  0
   38.1100   35.9010   40.3790 H   0  0  0  0  0  0  0  0  0  0  0  0
   40.4980   36.0110   39.8440 H   0  0  0  0  0  0  0  0  0  0  0  0
   42.1180   33.9610   39.4160 N   0  0  0  0  0  0  0  0  0  0  0  0
   42.4190   33.8340   38.1090 C   0  0  0  0  0  3  0  0  0  0  0  0
   43.7320   33.9140   37.6860 C   0  0  0  0  0  0  0  0  0  0  0  0
   44.0030   33.8140   36.6380 H   0  0  0  0  0  0  0  0  0  0  0  0
   44.7460   34.1270   38.6070 C   0  0  0  0  0  0  0  0  0  0  0  0
   45.9470   34.2030   38.2350 O   0  0  0  0  0  0  0  0  0  0  0  0
   44.3850   34.2470   39.8990 N   0  0  0  0  0  0  0  0  0  0  0  0
   43.1020   34.1680   40.3100 C   0  0  0  0  0  0  0  0  0  0  0  0
   42.7510   34.2790   41.5150 O   0  0  0  0  0  0  0  0  0  0  0  0
   45.1300   34.4060   40.5930 H   0  0  0  0  0  0  0  0  0  0  0  0
  1  4  1  1  0  0  0
  1  3  1  0  0  0  0
  2  1  1  0  0  0  0
  2  3  1  0  0  0  0
  3  7  1  1  0  0  0
  3  8  1  0  0  0  0
  5  2  1  0  0  0  0
  6  2  1  0  0  0  0
  8  9  2  0  0  0  0
  8 17  1  0  0  0  0
  9 10  1  0  0  0  0
 10 19  1  0  0  0  0
 10 11  2  0  0  0  0
 11 20  1  0  0  0  0
 12 11  1  0  0  0  0
 12 13  1  0  0  0  0
 13 21  1  0  0  0  0
 14 13  2  0  0  0  0
 14 22  1  0  0  0  0
 15 23  1  0  0  0  0
 15 14  1  0  0  0  0
 16 17  1  0  0  0  0
 16 15  2  0  0  0  0
 17 12  2  0  0  0  0
 18  9  1  0  0  0  0
 24 16  1  0  0  0  0
 25 30  1  0  0  0  0
 25 31  1  0  0  0  0
 26 25  2  0  0  0  0
 27 28  2  0  0  0  0
 27 26  1  0  0  0  0
 28 29  1  0  0  0  0
 29  1  1  0  0  0  0
 29 30  2  0  0  0  0
 32 26  1  0  0  0  0
 33 27  1  0  0  0  0
 33 40  1  0  0  0  0
 34 33  1  0  0  0  0
 35 34  2  0  0  0  0
 35 37  1  0  0  0  0
 36 35  1  0  0  0  0
 37 39  1  0  0  0  0
 38 37  2  0  0  0  0
 39 40  1  0  0  0  0
 39 42  1  0  0  0  0
 40 41  2  0  0  0  0
M  END
>  <minimizedAffinity>
-7.01536846

$$$$

 OpenBabel03252508273D

 42 46  0  0  1  0  0  0  0  0999 V2000
   38.6370   29.3410   41.9820 C   0  0  1  0  0  0  0  0  0  0  0  0
   38.0830   29.3530   43.3430 C   0  0  0  0  0  0  0  0  0  0  0  0
   37.9260   28.1350   42.3510 C   0  0  2  0  0  0  0  0  0  0  0  0
   39.7630   29.5250   42.1170 H   0  0  0  0  0  0  0  0  0  0  0  0
   37.1480   29.8610   43.5930 H   0  0  0  0  0  0  0  0  0  0  0  0
   38.6400   29.0210   44.2400 H   0  0  0  0  0  0  0  0  0  0  0  0
   36.7990   28.0110   42.2700 H   0  0  0  0  0  0  0  0  0  0  0  0
   38.5490   26.8500   42.6820 C   0  0  0  0  0  0  0  0  0  0  0  0
   39.5510   26.6170   43.5720 C   0  0  0  0  0  0  0  0  0  0  0  0
   40.2020   25.4070   43.7630 C   0  0  0  0  0  0  0  0  0  0  0  0
   39.7790   24.3360   42.9620 C   0  0  0  0  0  0  0  0  0  0  0  0
   38.7510   24.5490   42.0450 C   0  0  0  0  0  0  0  0  0  0  0  0
   38.3270   23.4500   41.3240 C   0  0  0  0  0  0  0  0  0  0  0  0
   37.2540   23.5930   40.4470 C   0  0  0  0  0  0  0  0  0  0  0  0
   36.6180   24.8110   40.2970 C   0  0  0  0  0  0  0  0  0  0  0  0
   37.0900   25.8670   41.0420 C   0  0  0  0  0  0  0  0  0  0  0  0
   38.1570   25.7780   41.9210 C   0  0  0  0  0  0  0  0  0  0  0  0
   39.8460   27.4810   44.1720 H   0  0  0  0  0  0  0  0  0  0  0  0
   40.9810   25.2770   44.4740 H   0  0  0  0  0  0  0  0  0  0  0  0
   40.2640   23.3850   43.0830 H   0  0  0  0  0  0  0  0  0  0  0  0
   38.8420   22.4940   41.4580 H   0  0  0  0  0  0  0  0  0  0  0  0
   37.0080   22.6530   39.9270 H   0  0  0  0  0  0  0  0  0  0  0  0
   35.8320   24.7150   39.5920 H   0  0  0  0  0  0  0  0  0  0  0  0
   36.4100   26.6420   40.8270 H   0  0  0  0  0  0  0  0  0  0  0  0
   37.6550   32.3740   40.1200 C   0  0  0  0  0  0  0  0  0  0  0  0
   36.9800   31.8230   38.9740 C   0  0  0  0  0  0  0  0  0  0  0  0
   36.8970   30.3980   38.8720 C   0  0  0  0  0  0  0  0  0  0  0  0
   37.4460   29.6340   39.8420 N   0  0  0  0  0  0  0  0  0  0  0  0
   38.0780   30.2260   40.9160 C   0  0  0  0  0  0  0  0  0  0  0  0
   38.1780   31.5460   41.0470 N   0  0  0  0  0  0  0  0  0  0  0  0
   37.6730   33.4520   40.1200 H   0  0  0  0  0  0  0  0  0  0  0  0
   36.5430   32.4290   38.2030 H   0  0  0  0  0  0  0  0  0  0  0  0
   36.2340   29.8400   37.7450 N   0  0  0  0  0  0  0  0  0  0  0  0
   36.9000   29.9580   36.5800 C   0  0  0  0  0  3  0  0  0  0  0  0
   36.3560   29.4540   35.4140 C   0  0  0  0  0  0  0  0  0  0  0  0
   36.8710   29.5350   34.4600 H   0  0  0  0  0  0  0  0  0  0  0  0
   35.1210   28.8230   35.4400 C   0  0  0  0  0  0  0  0  0  0  0  0
   34.6140   28.3580   34.3840 O   0  0  0  0  0  0  0  0  0  0  0  0
   34.5030   28.7340   36.6340 N   0  0  0  0  0  0  0  0  0  0  0  0
   35.0370   29.2280   37.7710 C   0  0  0  0  0  0  0  0  0  0  0  0
   34.4690   29.1510   38.8930 O   0  0  0  0  0  0  0  0  0  0  0  0
   33.5860   28.2670   36.6660 H   0  0  0  0  0  0  0  0  0  0  0  0
  1  4  1  6  0  0  0
  1  3  1  0  0  0  0
  1  2  1  0  0  0  0
  2  5  1  0  0  0  0
  2  6  1  0  0  0  0
  3  7  1  6  0  0  0
  3  8  1  0  0  0  0
  3  2  1  0  0  0  0
  8  9  1  0  0  0  0
  9 10  2  0  0  0  0
  9 18  1  0  0  0  0
 10 19  1  0  0  0  0
 11 20  1  0  0  0  0
 11 10  1  0  0  0  0
 12 11  2  0  0  0  0
 13 21  1  0  0  0  0
 13 12  1  0  0  0  0
 14 13  2  0  0  0  0
 15 14  1  0  0  0  0
 15 16  2  0  0  0  0
 16 17  1  0  0  0  0
 17 12  1  0  0  0  0
 17  8  2  0  0  0  0
 22 14  1  0  0  0  0
 23 15  1  0  0  0  0
 24 16  1  0  0  0  0
 25 30  1  0  0  0  0
 26 25  2  0  0  0  0
 27 26  1  0  0  0  0
 27 28  2  0  0  0  0
 28 29  1  0  0  0  0
 29 30  2  0  0  0  0
 29  1  1  0  0  0  0
 31 25  1  0  0  0  0
 32 26  1  0  0  0  0
 33 40  1  0  0  0  0
 33 27  1  0  0  0  0
 34 33  1  0  0  0  0
 35 37  1  0  0  0  0
 35 34  2  0  0  0  0
 36 35  1  0  0  0  0
 37 39  1  0  0  0  0
 38 37  2  0  0  0  0
 39 42  1  0  0  0  0
 39 40  1  0  0  0  0
 40 41  2  0  0  0  0
M  END
>  <minimizedAffinity>
-6.82269192

$$$$

 OpenBabel03252508273D

 42 46  0  0  1  0  0  0  0  0999 V2000
   37.8230   31.4830   39.0580 C   0  0  1  0  0  0  0  0  0  0  0  0
   38.1310   30.8670   37.7600 C   0  0  0  0  0  0  0  0  0  0  0  0
   38.5330   30.2250   39.1450 C   0  0  2  0  0  0  0  0  0  0  0  0
   36.6810   31.6130   39.0620 H   0  0  0  0  0  0  0  0  0  0  0  0
   38.9760   31.1860   37.1430 H   0  0  0  0  0  0  0  0  0  0  0  0
   37.4490   30.1790   37.2250 H   0  0  0  0  0  0  0  0  0  0  0  0
   39.6620   30.1250   39.0670 H   0  0  0  0  0  0  0  0  0  0  0  0
   37.9430   28.9440   39.5440 C   0  0  0  0  0  0  0  0  0  0  0  0
   37.3910   27.9960   38.7400 C   0  0  0  0  0  0  0  0  0  0  0  0
   36.7270   26.8550   39.1660 C   0  0  0  0  0  0  0  0  0  0  0  0
   36.6210   26.6750   40.5530 C   0  0  0  0  0  0  0  0  0  0  0  0
   37.1810   27.6310   41.3990 C   0  0  0  0  0  0  0  0  0  0  0  0
   37.1060   27.3780   42.7540 C   0  0  0  0  0  0  0  0  0  0  0  0
   37.7130   28.2670   43.6400 C   0  0  0  0  0  0  0  0  0  0  0  0
   38.3830   29.3840   43.1760 C   0  0  0  0  0  0  0  0  0  0  0  0
   38.4190   29.5790   41.8150 C   0  0  0  0  0  0  0  0  0  0  0  0
   37.8250   28.7310   40.8950 C   0  0  0  0  0  0  0  0  0  0  0  0
   37.4980   28.1800   37.6680 H   0  0  0  0  0  0  0  0  0  0  0  0
   36.3140   26.1430   38.4950 H   0  0  0  0  0  0  0  0  0  0  0  0
   36.1100   25.8020   40.9180 H   0  0  0  0  0  0  0  0  0  0  0  0
   36.5740   26.4880   43.1020 H   0  0  0  0  0  0  0  0  0  0  0  0
   37.5860   27.9640   44.6920 H   0  0  0  0  0  0  0  0  0  0  0  0
   38.7750   29.9270   43.9980 H   0  0  0  0  0  0  0  0  0  0  0  0
   39.0400   30.4230   41.7050 H   0  0  0  0  0  0  0  0  0  0  0  0
   38.3430   34.9540   40.2050 C   0  0  0  0  0  0  0  0  0  0  0  0
   39.7780   35.0590   40.2190 C   0  0  0  0  0  0  0  0  0  0  0  0
   40.5330   33.9040   39.8400 C   0  0  0  0  0  0  0  0  0  0  0  0
   39.8800   32.7750   39.4870 N   0  0  0  0  0  0  0  0  0  0  0  0
   38.5010   32.7410   39.4930 C   0  0  0  0  0  0  0  0  0  0  0  0
   37.7630   33.7930   39.8400 N   0  0  0  0  0  0  0  0  0  0  0  0
   37.8510   35.8660   40.5030 H   0  0  0  0  0  0  0  0  0  0  0  0
   40.2990   35.9550   40.4990 H   0  0  0  0  0  0  0  0  0  0  0  0
   41.9520   33.9920   39.8500 N   0  0  0  0  0  0  0  0  0  0  0  0
   42.5230   33.8070   41.0560 C   0  0  0  0  0  3  0  0  0  0  0  0
   43.8970   33.8690   41.1930 C   0  0  0  0  0  0  0  0  0  0  0  0
   44.3840   33.7240   42.1530 H   0  0  0  0  0  0  0  0  0  0  0  0
   44.6930   34.1230   40.0860 C   0  0  0  0  0  0  0  0  0  0  0  0
   45.9470   34.1820   40.1960 O   0  0  0  0  0  0  0  0  0  0  0  0
   44.0660   34.2990   38.9070 N   0  0  0  0  0  0  0  0  0  0  0  0
   42.7240   34.2380   38.7770 C   0  0  0  0  0  0  0  0  0  0  0  0
   42.1260   34.4010   37.6790 O   0  0  0  0  0  0  0  0  0  0  0  0
   44.6470   34.4880   38.0770 H   0  0  0  0  0  0  0  0  0  0  0  0
  1  4  1  1  0  0  0
  1  3  1  0  0  0  0
  1 29  1  0  0  0  0
  2  1  1  0  0  0  0
  2  3  1  0  0  0  0
  3  7  1  1  0  0  0
  3  8  1  0  0  0  0
  5  2  1  0  0  0  0
  6  2  1  0  0  0  0
  8 17  1  0  0  0  0
  9 10  1  0  0  0  0
  9  8  2  0  0  0  0
 10 11  2  0  0  0  0
 11 20  1  0  0  0  0
 11 12  1  0  0  0  0
 12 13  1  0  0  0  0
 13 21  1  0  0  0  0
 13 14  2  0  0  0  0
 14 22  1  0  0  0  0
 15 14  1  0  0  0  0
 15 23  1  0  0  0  0
 16 15  2  0  0  0  0
 17 12  2  0  0  0  0
 17 16  1  0  0  0  0
 18  9  1  0  0  0  0
 19 10  1  0  0  0  0
 24 16  1  0  0  0  0
 25 26  1  0  0  0  0
 25 31  1  0  0  0  0
 26 32  1  0  0  0  0
 27 33  1  0  0  0  0
 27 26  2  0  0  0  0
 28 29  2  0  0  0  0
 28 27  1  0  0  0  0
 29 30  1  0  0  0  0
 30 25  2  0  0  0  0
 33 34  1  0  0  0  0
 34 35  2  0  0  0  0
 35 36  1  0  0  0  0
 37 38  2  0  0  0  0
 37 35  1  0  0  0  0
 39 37  1  0  0  0  0
 40 39  1  0  0  0  0
 40 33  1  0  0  0  0
 41 40  2  0  0  0  0
 42 39  1  0  0  0  0
M  END
>  <minimizedAffinity>
-6.80114603

$$$$

 OpenBabel03252508273D

 42 46  0  0  1  0  0  0  0  0999 V2000
   37.7230   31.8480   41.0470 C   0  0  1  0  0  0  0  0  0  0  0  0
   36.6420   31.3740   40.1720 C   0  0  0  0  0  0  0  0  0  0  0  0
   37.8570   30.4710   40.6210 C   0  0  2  0  0  0  0  0  0  0  0  0
   37.1970   32.2090   42.0030 H   0  0  0  0  0  0  0  0  0  0  0  0
   36.6110   31.5960   39.1020 H   0  0  0  0  0  0  0  0  0  0  0  0
   35.7000   30.9250   40.5420 H   0  0  0  0  0  0  0  0  0  0  0  0
   38.3210   30.1520   39.6350 H   0  0  0  0  0  0  0  0  0  0  0  0
   37.6100   29.2960   41.4620 C   0  0  0  0  0  0  0  0  0  0  0  0
   37.7010   29.2080   42.8160 C   0  0  0  0  0  0  0  0  0  0  0  0
   37.5850   28.0460   43.5650 C   0  0  0  0  0  0  0  0  0  0  0  0
   37.3520   26.8620   42.8490 C   0  0  0  0  0  0  0  0  0  0  0  0
   37.2510   26.9260   41.4600 C   0  0  0  0  0  0  0  0  0  0  0  0
   36.9590   25.7450   40.8060 C   0  0  0  0  0  0  0  0  0  0  0  0
   36.7760   25.7690   39.4240 C   0  0  0  0  0  0  0  0  0  0  0  0
   36.8810   26.9500   38.7140 C   0  0  0  0  0  0  0  0  0  0  0  0
   37.1760   28.0900   39.4250 C   0  0  0  0  0  0  0  0  0  0  0  0
   37.3750   28.1190   40.7960 C   0  0  0  0  0  0  0  0  0  0  0  0
   37.8840   30.1550   43.3290 H   0  0  0  0  0  0  0  0  0  0  0  0
   37.6640   28.0310   44.6240 H   0  0  0  0  0  0  0  0  0  0  0  0
   37.2600   25.9420   43.3980 H   0  0  0  0  0  0  0  0  0  0  0  0
   36.8780   24.8210   41.3850 H   0  0  0  0  0  0  0  0  0  0  0  0
   36.5520   24.7710   39.0140 H   0  0  0  0  0  0  0  0  0  0  0  0
   36.7070   26.7620   37.6860 H   0  0  0  0  0  0  0  0  0  0  0  0
   37.1200   28.8530   38.7010 H   0  0  0  0  0  0  0  0  0  0  0  0
   39.3370   35.0970   40.3610 C   0  0  0  0  0  0  0  0  0  0  0  0
   40.5060   34.7060   39.6180 C   0  0  0  0  0  0  0  0  0  0  0  0
   40.7110   33.3090   39.3860 C   0  0  0  0  0  0  0  0  0  0  0  0
   39.8120   32.4220   39.8660 N   0  0  0  0  0  0  0  0  0  0  0  0
   38.7100   32.8630   40.5700 C   0  0  0  0  0  0  0  0  0  0  0  0
   38.4850   34.1520   40.8070 N   0  0  0  0  0  0  0  0  0  0  0  0
   39.2580   36.1640   40.4900 H   0  0  0  0  0  0  0  0  0  0  0  0
   41.2220   35.4100   39.2350 H   0  0  0  0  0  0  0  0  0  0  0  0
   41.8620   32.9070   38.6550 N   0  0  0  0  0  0  0  0  0  0  0  0
   43.0320   33.0780   39.3000 C   0  0  0  0  0  3  0  0  0  0  0  0
   44.2210   32.7240   38.6900 C   0  0  0  0  0  0  0  0  0  0  0  0
   45.1790   32.8510   39.1880 H   0  0  0  0  0  0  0  0  0  0  0  0
   44.2130   32.1920   37.4100 C   0  0  0  0  0  0  0  0  0  0  0  0
   45.2890   31.8650   36.8430 O   0  0  0  0  0  0  0  0  0  0  0  0
   43.0130   32.0450   36.8150 N   0  0  0  0  0  0  0  0  0  0  0  0
   41.8540   32.3910   37.4130 C   0  0  0  0  0  0  0  0  0  0  0  0
   40.7260   32.2580   36.8670 O   0  0  0  0  0  0  0  0  0  0  0  0
   42.9940   31.6500   35.8630 H   0  0  0  0  0  0  0  0  0  0  0  0
  1  4  1  1  0  0  0
  2  6  1  0  0  0  0
  2  3  1  0  0  0  0
  2  1  1  0  0  0  0
  3  7  1  6  0  0  0
  3  1  1  0  0  0  0
  3  8  1  0  0  0  0
  5  2  1  0  0  0  0
  8  9  1  0  0  0  0
  9 18  1  0  0  0  0
  9 10  2  0  0  0  0
 10 19  1  0  0  0  0
 11 20  1  0  0  0  0
 11 10  1  0  0  0  0
 12 11  2  0  0  0  0
 13 21  1  0  0  0  0
 13 12  1  0  0  0  0
 14 13  2  0  0  0  0
 15 14  1  0  0  0  0
 15 16  2  0  0  0  0
 16 17  1  0  0  0  0
 17 12  1  0  0  0  0
 17  8  2  0  0  0  0
 22 14  1  0  0  0  0
 23 15  1  0  0  0  0
 24 16  1  0  0  0  0
 25 31  1  0  0  0  0
 25 30  1  0  0  0  0
 26 25  2  0  0  0  0
 27 26  1  0  0  0  0
 27 28  2  0  0  0  0
 28 29  1  0  0  0  0
 29 30  2  0  0  0  0
 29  1  1  0  0  0  0
 32 26  1  0  0  0  0
 33 34  1  0  0  0  0
 33 27  1  0  0  0  0
 35 36  1  0  0  0  0
 35 34  2  0  0  0  0
 37 35  1  0  0  0  0
 38 37  2  0  0  0  0
 39 37  1  0  0  0  0
 39 40  1  0  0  0  0
 40 33  1  0  0  0  0
 41 40  2  0  0  0  0
 42 39  1  0  0  0  0
M  END
>  <minimizedAffinity>
-6.77094126

$$$$

 OpenBabel03252508273D

 42 46  0  0  1  0  0  0  0  0999 V2000
   34.1760   28.7060   36.0650 C   0  0  1  0  0  0  0  0  0  0  0  0
   33.1360   27.6700   36.1400 C   0  0  0  0  0  0  0  0  0  0  0  0
   32.9200   29.1560   36.6270 C   0  0  2  0  0  0  0  0  0  0  0  0
   34.4710   28.7520   34.9550 H   0  0  0  0  0  0  0  0  0  0  0  0
   33.1090   26.9210   36.9360 H   0  0  0  0  0  0  0  0  0  0  0  0
   32.4240   27.4490   35.3220 H   0  0  0  0  0  0  0  0  0  0  0  0
   32.6320   29.0310   37.7190 H   0  0  0  0  0  0  0  0  0  0  0  0
   31.9400   30.0040   35.9430 C   0  0  0  0  0  0  0  0  0  0  0  0
   32.0010   30.4860   34.6720 C   0  0  0  0  0  0  0  0  0  0  0  0
   31.1160   31.3910   34.1040 C   0  0  0  0  0  0  0  0  0  0  0  0
   30.0700   31.8410   34.9220 C   0  0  0  0  0  0  0  0  0  0  0  0
   29.9840   31.3590   36.2280 C   0  0  0  0  0  0  0  0  0  0  0  0
   28.9020   31.7830   36.9740 C   0  0  0  0  0  0  0  0  0  0  0  0
   28.7310   31.2740   38.2600 C   0  0  0  0  0  0  0  0  0  0  0  0
   29.6230   30.3590   38.7860 C   0  0  0  0  0  0  0  0  0  0  0  0
   30.6810   29.9800   37.9920 C   0  0  0  0  0  0  0  0  0  0  0  0
   30.9000   30.4610   36.7120 C   0  0  0  0  0  0  0  0  0  0  0  0
   32.8330   30.1070   34.0740 H   0  0  0  0  0  0  0  0  0  0  0  0
   31.2070   31.7370   33.1030 H   0  0  0  0  0  0  0  0  0  0  0  0
   29.3680   32.5450   34.5140 H   0  0  0  0  0  0  0  0  0  0  0  0
   28.2060   32.5060   36.5400 H   0  0  0  0  0  0  0  0  0  0  0  0
   27.8380   31.6860   38.7590 H   0  0  0  0  0  0  0  0  0  0  0  0
   29.3210   30.0930   39.7670 H   0  0  0  0  0  0  0  0  0  0  0  0
   31.1590   29.2330   38.5610 H   0  0  0  0  0  0  0  0  0  0  0  0
   37.0990   27.3820   37.8920 C   0  0  0  0  0  0  0  0  0  0  0  0
   37.5730   28.5470   38.5920 C   0  0  0  0  0  0  0  0  0  0  0  0
   36.8660   29.7750   38.3960 C   0  0  0  0  0  0  0  0  0  0  0  0
   35.7940   29.7960   37.5740 N   0  0  0  0  0  0  0  0  0  0  0  0
   35.3900   28.6430   36.9330 C   0  0  0  0  0  0  0  0  0  0  0  0
   36.0210   27.4820   37.0880 N   0  0  0  0  0  0  0  0  0  0  0  0
   37.6860   26.5010   38.0940 H   0  0  0  0  0  0  0  0  0  0  0  0
   38.4250   28.5330   39.2460 H   0  0  0  0  0  0  0  0  0  0  0  0
   37.3240   30.9340   39.0800 N   0  0  0  0  0  0  0  0  0  0  0  0
   38.3600   31.5670   38.4950 C   0  0  0  0  0  3  0  0  0  0  0  0
   38.8930   32.7060   39.0660 C   0  0  0  0  0  0  0  0  0  0  0  0
   39.7280   33.2360   38.6160 H   0  0  0  0  0  0  0  0  0  0  0  0
   38.3630   33.2030   40.2470 C   0  0  0  0  0  0  0  0  0  0  0  0
   38.8390   34.2410   40.7790 O   0  0  0  0  0  0  0  0  0  0  0  0
   37.3280   32.5290   40.7860 N   0  0  0  0  0  0  0  0  0  0  0  0
   36.8090   31.4170   40.2250 C   0  0  0  0  0  0  0  0  0  0  0  0
   35.8420   30.7770   40.7190 O   0  0  0  0  0  0  0  0  0  0  0  0
   36.9250   32.8890   41.6630 H   0  0  0  0  0  0  0  0  0  0  0  0
  1  4  1  6  0  0  0
  1  2  1  0  0  0  0
  1  3  1  0  0  0  0
  1 29  1  0  0  0  0
  2  3  1  0  0  0  0
  2  5  1  0  0  0  0
  3  7  1  1  0  0  0
  6  2  1  0  0  0  0
  8  3  1  0  0  0  0
  8 17  1  0  0  0  0
  9  8  2  0  0  0  0
 10  9  1  0  0  0  0
 10 11  2  0  0  0  0
 11 12  1  0  0  0  0
 12 17  2  0  0  0  0
 12 13  1  0  0  0  0
 13 14  2  0  0  0  0
 14 22  1  0  0  0  0
 14 15  1  0  0  0  0
 15 23  1  0  0  0  0
 16 24  1  0  0  0  0
 16 15  2  0  0  0  0
 17 16  1  0  0  0  0
 18  9  1  0  0  0  0
 19 10  1  0  0  0  0
 20 11  1  0  0  0  0
 21 13  1  0  0  0  0
 25 31  1  0  0  0  0
 25 26  1  0  0  0  0
 26 32  1  0  0  0  0
 27 26  2  0  0  0  0
 27 33  1  0  0  0  0
 28 27  1  0  0  0  0
 29 30  1  0  0  0  0
 29 28  2  0  0  0  0
 30 25  2  0  0  0  0
 33 40  1  0  0  0  0
 34 35  2  0  0  0  0
 34 33  1  0  0  0  0
 35 37  1  0  0  0  0
 36 35  1  0  0  0  0
 37 38  2  0  0  0  0
 37 39  1  0  0  0  0
 39 42  1  0  0  0  0
 40 41  2  0  0  0  0
 40 39  1  0  0  0  0
M  END
>  <minimizedAffinity>
-6.75987196

$$$$

 OpenBabel03252508273D

 42 46  0  0  1  0  0  0  0  0999 V2000
   40.4260   29.6200   42.0870 C   0  0  1  0  0  0  0  0  0  0  0  0
   41.3580   29.2020   41.0290 C   0  0  0  0  0  0  0  0  0  0  0  0
   40.3700   30.4250   40.8850 C   0  0  2  0  0  0  0  0  0  0  0  0
   41.0890   29.8240   43.0030 H   0  0  0  0  0  0  0  0  0  0  0  0
   41.1480   28.3650   40.3580 H   0  0  0  0  0  0  0  0  0  0  0  0
   42.3990   29.5650   40.9450 H   0  0  0  0  0  0  0  0  0  0  0  0
   39.7560   30.1560   39.9680 H   0  0  0  0  0  0  0  0  0  0  0  0
   40.9140   31.7790   40.7450 C   0  0  0  0  0  0  0  0  0  0  0  0
   42.1980   32.1830   40.9410 C   0  0  0  0  0  0  0  0  0  0  0  0
   42.6480   33.4950   40.9240 C   0  0  0  0  0  0  0  0  0  0  0  0
   41.6830   34.4840   40.6830 C   0  0  0  0  0  0  0  0  0  0  0  0
   40.3600   34.0950   40.4760 C   0  0  0  0  0  0  0  0  0  0  0  0
   39.4580   35.0990   40.1810 C   0  0  0  0  0  0  0  0  0  0  0  0
   38.1380   34.7550   39.8950 C   0  0  0  0  0  0  0  0  0  0  0  0
   37.7310   33.4340   39.9030 C   0  0  0  0  0  0  0  0  0  0  0  0
   38.6770   32.4830   40.2070 C   0  0  0  0  0  0  0  0  0  0  0  0
   39.9990   32.7730   40.5060 C   0  0  0  0  0  0  0  0  0  0  0  0
   42.9120   31.3780   41.1250 H   0  0  0  0  0  0  0  0  0  0  0  0
   43.6650   33.7590   41.0820 H   0  0  0  0  0  0  0  0  0  0  0  0
   41.9970   35.5120   40.6660 H   0  0  0  0  0  0  0  0  0  0  0  0
   39.8000   36.1370   40.1780 H   0  0  0  0  0  0  0  0  0  0  0  0
   37.5130   35.6360   39.6780 H   0  0  0  0  0  0  0  0  0  0  0  0
   36.7010   33.3800   39.6590 H   0  0  0  0  0  0  0  0  0  0  0  0
   38.1640   31.5740   40.0680 H   0  0  0  0  0  0  0  0  0  0  0  0
   37.3150   28.4830   43.7180 C   0  0  0  0  0  0  0  0  0  0  0  0
   37.1510   27.1610   43.1740 C   0  0  0  0  0  0  0  0  0  0  0  0
   38.1280   26.7020   42.2340 C   0  0  0  0  0  0  0  0  0  0  0  0
   39.1530   27.5150   41.8990 N   0  0  0  0  0  0  0  0  0  0  0  0
   39.2540   28.7720   42.4590 C   0  0  0  0  0  0  0  0  0  0  0  0
   38.3660   29.2350   43.3350 N   0  0  0  0  0  0  0  0  0  0  0  0
   36.5390   28.7500   44.4160 H   0  0  0  0  0  0  0  0  0  0  0  0
   36.3370   26.5130   43.4390 H   0  0  0  0  0  0  0  0  0  0  0  0
   37.9790   25.3980   41.6870 N   0  0  0  0  0  0  0  0  0  0  0  0
   37.1160   25.3110   40.6550 C   0  0  0  0  0  3  0  0  0  0  0  0
   36.8870   24.0960   40.0410 C   0  0  0  0  0  0  0  0  0  0  0  0
   36.1970   23.9970   39.2070 H   0  0  0  0  0  0  0  0  0  0  0  0
   37.5450   22.9580   40.4850 C   0  0  0  0  0  0  0  0  0  0  0  0
   37.3450   21.8430   39.9330 O   0  0  0  0  0  0  0  0  0  0  0  0
   38.3950   23.1060   41.5190 N   0  0  0  0  0  0  0  0  0  0  0  0
   38.6170   24.2950   42.1180 C   0  0  0  0  0  0  0  0  0  0  0  0
   39.4090   24.4470   43.0860 O   0  0  0  0  0  0  0  0  0  0  0  0
   38.8900   22.2690   41.8580 H   0  0  0  0  0  0  0  0  0  0  0  0
  1 29  1  0  0  0  0
  1  4  1  1  0  0  0
  2  1  1  0  0  0  0
  3  7  1  6  0  0  0
  3  2  1  0  0  0  0
  3  1  1  0  0  0  0
  5  2  1  0  0  0  0
  6  2  1  0  0  0  0
  8  3  1  0  0  0  0
  8  9  1  0  0  0  0
  9 18  1  0  0  0  0
 10  9  2  0  0  0  0
 10 19  1  0  0  0  0
 11 10  1  0  0  0  0
 12 17  1  0  0  0  0
 12 11  2  0  0  0  0
 13 12  1  0  0  0  0
 14 15  1  0  0  0  0
 14 13  2  0  0  0  0
 15 16  2  0  0  0  0
 16 17  1  0  0  0  0
 17  8  2  0  0  0  0
 20 11  1  0  0  0  0
 21 13  1  0  0  0  0
 22 14  1  0  0  0  0
 23 15  1  0  0  0  0
 24 16  1  0  0  0  0
 25 31  1  0  0  0  0
 26 32  1  0  0  0  0
 26 25  2  0  0  0  0
 27 26  1  0  0  0  0
 28 27  2  0  0  0  0
 28 29  1  0  0  0  0
 29 30  2  0  0  0  0
 30 25  1  0  0  0  0
 33 40  1  0  0  0  0
 33 27  1  0  0  0  0
 34 33  1  0  0  0  0
 35 37  1  0  0  0  0
 35 34  2  0  0  0  0
 36 35  1  0  0  0  0
 37 39  1  0  0  0  0
 38 37  2  0  0  0  0
 39 42  1  0  0  0  0
 39 40  1  0  0  0  0
 40 41  2  0  0  0  0
M  END
>  <minimizedAffinity>
-6.73166323

$$$$

 OpenBabel03252508273D

 42 46  0  0  1  0  0  0  0  0999 V2000
   34.7130   29.0760   37.5870 C   0  0  1  0  0  0  0  0  0  0  0  0
   34.0820   27.7570   37.4380 C   0  0  0  0  0  0  0  0  0  0  0  0
   33.2670   29.0900   37.6680 C   0  0  2  0  0  0  0  0  0  0  0  0
   35.3340   29.2180   36.6310 H   0  0  0  0  0  0  0  0  0  0  0  0
   34.0210   27.0390   38.2610 H   0  0  0  0  0  0  0  0  0  0  0  0
   33.7920   27.3170   36.4660 H   0  0  0  0  0  0  0  0  0  0  0  0
   32.6810   28.8750   38.6170 H   0  0  0  0  0  0  0  0  0  0  0  0
   32.3640   29.5720   36.6190 C   0  0  0  0  0  0  0  0  0  0  0  0
   32.6160   29.6730   35.2860 C   0  0  0  0  0  0  0  0  0  0  0  0
   31.7820   30.2550   34.3430 C   0  0  0  0  0  0  0  0  0  0  0  0
   30.5730   30.7830   34.8190 C   0  0  0  0  0  0  0  0  0  0  0  0
   30.2890   30.6890   36.1810 C   0  0  0  0  0  0  0  0  0  0  0  0
   29.0610   31.1670   36.5920 C   0  0  0  0  0  0  0  0  0  0  0  0
   28.6990   31.0310   37.9310 C   0  0  0  0  0  0  0  0  0  0  0  0
   29.5500   30.4280   38.8380 C   0  0  0  0  0  0  0  0  0  0  0  0
   30.7600   29.9760   38.3650 C   0  0  0  0  0  0  0  0  0  0  0  0
   31.1700   30.0940   37.0470 C   0  0  0  0  0  0  0  0  0  0  0  0
   33.5700   29.2480   34.9630 H   0  0  0  0  0  0  0  0  0  0  0  0
   32.0250   30.3070   33.3100 H   0  0  0  0  0  0  0  0  0  0  0  0
   29.9030   31.2430   34.1150 H   0  0  0  0  0  0  0  0  0  0  0  0
   28.4000   31.6390   35.8590 H   0  0  0  0  0  0  0  0  0  0  0  0
   27.7010   31.4500   38.1410 H   0  0  0  0  0  0  0  0  0  0  0  0
   29.0960   30.4190   39.7960 H   0  0  0  0  0  0  0  0  0  0  0  0
   31.1840   29.4920   39.1990 H   0  0  0  0  0  0  0  0  0  0  0  0
   36.0140   29.0210   41.0420 C   0  0  0  0  0  0  0  0  0  0  0  0
   36.9660   30.1000   41.0260 C   0  0  0  0  0  0  0  0  0  0  0  0
   37.1420   30.8140   39.7990 C   0  0  0  0  0  0  0  0  0  0  0  0
   36.4170   30.4550   38.7170 N   0  0  0  0  0  0  0  0  0  0  0  0
   35.5190   29.4110   38.7990 C   0  0  0  0  0  0  0  0  0  0  0  0
   35.3280   28.7220   39.9210 N   0  0  0  0  0  0  0  0  0  0  0  0
   35.9430   28.5370   42.0020 H   0  0  0  0  0  0  0  0  0  0  0  0
   37.5430   30.3870   41.8850 H   0  0  0  0  0  0  0  0  0  0  0  0
   38.0800   31.8820   39.7680 N   0  0  0  0  0  0  0  0  0  0  0  0
   37.5830   33.0850   40.1180 C   0  0  0  0  0  3  0  0  0  0  0  0
   38.3990   34.2000   40.1260 C   0  0  0  0  0  0  0  0  0  0  0  0
   38.0240   35.1810   40.4040 H   0  0  0  0  0  0  0  0  0  0  0  0
   39.7350   34.0850   39.7720 C   0  0  0  0  0  0  0  0  0  0  0  0
   40.4900   35.0930   39.7750 O   0  0  0  0  0  0  0  0  0  0  0  0
   40.1750   32.8580   39.4310 N   0  0  0  0  0  0  0  0  0  0  0  0
   39.3760   31.7700   39.4250 C   0  0  0  0  0  0  0  0  0  0  0  0
   39.7760   30.6180   39.1080 O   0  0  0  0  0  0  0  0  0  0  0  0
   41.1660   32.7600   39.1670 H   0  0  0  0  0  0  0  0  0  0  0  0
  1  4  1  6  0  0  0
  1  3  1  0  0  0  0
  1 29  1  0  0  0  0
  2  1  1  0  0  0  0
  2  3  1  0  0  0  0
  2  5  1  0  0  0  0
  3  7  1  1  0  0  0
  6  2  1  0  0  0  0
  8 17  1  0  0  0  0
  8  3  1  0  0  0  0
  9  8  2  0  0  0  0
 10 11  2  0  0  0  0
 10  9  1  0  0  0  0
 11 12  1  0  0  0  0
 12 13  2  0  0  0  0
 12 17  1  0  0  0  0
 13 14  1  0  0  0  0
 14 22  1  0  0  0  0
 14 15  2  0  0  0  0
 15 23  1  0  0  0  0
 16 15  1  0  0  0  0
 16 24  1  0  0  0  0
 17 16  2  0  0  0  0
 18  9  1  0  0  0  0
 19 10  1  0  0  0  0
 20 11  1  0  0  0  0
 21 13  1  0  0  0  0
 25 31  1  0  0  0  0
 26 25  1  0  0  0  0
 26 32  1  0  0  0  0
 27 26  2  0  0  0  0
 28 29  2  0  0  0  0
 28 27  1  0  0  0  0
 29 30  1  0  0  0  0
 30 25  2  0  0  0  0
 33 27  1  0  0  0  0
 33 34  1  0  0  0  0
 34 35  2  0  0  0  0
 35 36  1  0  0  0  0
 37 38  2  0  0  0  0
 37 35  1  0  0  0  0
 39 37  1  0  0  0  0
 40 39  1  0  0  0  0
 40 33  1  0  0  0  0
 41 40  2  0  0  0  0
 42 39  1  0  0  0  0
M  END
>  <minimizedAffinity>
-6.7174983

$$$$

 OpenBabel03252508273D

 42 46  0  0  1  0  0  0  0  0999 V2000
   37.6920   30.6980   40.1550 C   0  0  1  0  0  0  0  0  0  0  0  0
   36.5310   30.0680   39.5120 C   0  0  0  0  0  0  0  0  0  0  0  0
   37.6710   29.2530   40.2400 C   0  0  2  0  0  0  0  0  0  0  0  0
   37.2460   31.4230   40.9280 H   0  0  0  0  0  0  0  0  0  0  0  0
   36.4740   29.9050   38.4320 H   0  0  0  0  0  0  0  0  0  0  0  0
   35.5680   29.8800   40.0220 H   0  0  0  0  0  0  0  0  0  0  0  0
   38.0570   28.5630   39.4240 H   0  0  0  0  0  0  0  0  0  0  0  0
   37.3480   28.4780   41.4410 C   0  0  0  0  0  0  0  0  0  0  0  0
   37.2840   28.9220   42.7250 C   0  0  0  0  0  0  0  0  0  0  0  0
   37.1020   28.1320   43.8500 C   0  0  0  0  0  0  0  0  0  0  0  0
   36.9730   26.7530   43.6310 C   0  0  0  0  0  0  0  0  0  0  0  0
   37.0320   26.2720   42.3230 C   0  0  0  0  0  0  0  0  0  0  0  0
   36.8380   24.9160   42.1530 C   0  0  0  0  0  0  0  0  0  0  0  0
   36.8160   24.3960   40.8600 C   0  0  0  0  0  0  0  0  0  0  0  0
   36.9820   25.2180   39.7620 C   0  0  0  0  0  0  0  0  0  0  0  0
   37.1740   26.5600   40.0000 C   0  0  0  0  0  0  0  0  0  0  0  0
   37.2120   27.1240   41.2640 C   0  0  0  0  0  0  0  0  0  0  0  0
   37.3900   30.0030   42.8450 H   0  0  0  0  0  0  0  0  0  0  0  0
   37.0580   28.5300   44.8340 H   0  0  0  0  0  0  0  0  0  0  0  0
   36.8330   26.1100   44.4810 H   0  0  0  0  0  0  0  0  0  0  0  0
   36.7060   24.2820   43.0340 H   0  0  0  0  0  0  0  0  0  0  0  0
   36.6570   23.3050   40.8490 H   0  0  0  0  0  0  0  0  0  0  0  0
   36.9310   24.6390   38.8750 H   0  0  0  0  0  0  0  0  0  0  0  0
   37.1880   26.9810   39.0340 H   0  0  0  0  0  0  0  0  0  0  0  0
   39.6690   31.8500   37.2570 C   0  0  0  0  0  0  0  0  0  0  0  0
   40.7500   32.5600   37.8890 C   0  0  0  0  0  0  0  0  0  0  0  0
   40.7540   32.6320   39.3180 C   0  0  0  0  0  0  0  0  0  0  0  0
   39.7580   32.0380   40.0110 N   0  0  0  0  0  0  0  0  0  0  0  0
   38.7510   31.3710   39.3450 C   0  0  0  0  0  0  0  0  0  0  0  0
   38.7100   31.2830   38.0180 N   0  0  0  0  0  0  0  0  0  0  0  0
   39.7410   31.8430   36.1820 H   0  0  0  0  0  0  0  0  0  0  0  0
   41.5430   33.0320   37.3390 H   0  0  0  0  0  0  0  0  0  0  0  0
   41.8150   33.3310   39.9560 N   0  0  0  0  0  0  0  0  0  0  0  0
   43.0070   32.7050   39.9220 C   0  0  0  0  0  3  0  0  0  0  0  0
   44.1150   33.2860   40.5090 C   0  0  0  0  0  0  0  0  0  0  0  0
   45.0890   32.8040   40.4970 H   0  0  0  0  0  0  0  0  0  0  0  0
   44.0020   34.5180   41.1370 C   0  0  0  0  0  0  0  0  0  0  0  0
   45.0040   35.0590   41.6750 O   0  0  0  0  0  0  0  0  0  0  0  0
   42.7850   35.0960   41.1380 N   0  0  0  0  0  0  0  0  0  0  0  0
   41.7050   34.5260   40.5640 C   0  0  0  0  0  0  0  0  0  0  0  0
   40.5620   35.0560   40.5590 O   0  0  0  0  0  0  0  0  0  0  0  0
   42.6890   36.0110   41.6010 H   0  0  0  0  0  0  0  0  0  0  0  0
  1  3  1  0  0  0  0
  1  4  1  1  0  0  0
  2  6  1  0  0  0  0
  2  1  1  0  0  0  0
  2  3  1  0  0  0  0
  3  7  1  6  0  0  0
  3  8  1  0  0  0  0
  5  2  1  0  0  0  0
  8  9  1  0  0  0  0
  9 18  1  0  0  0  0
  9 10  2  0  0  0  0
 10 19  1  0  0  0  0
 11 10  1  0  0  0  0
 11 20  1  0  0  0  0
 12 11  2  0  0  0  0
 13 12  1  0  0  0  0
 13 21  1  0  0  0  0
 14 13  2  0  0  0  0
 15 16  2  0  0  0  0
 15 14  1  0  0  0  0
 16 17  1  0  0  0  0
 17  8  2  0  0  0  0
 17 12  1  0  0  0  0
 22 14  1  0  0  0  0
 23 15  1  0  0  0  0
 24 16  1  0  0  0  0
 25 26  2  0  0  0  0
 25 30  1  0  0  0  0
 26 27  1  0  0  0  0
 27 33  1  0  0  0  0
 27 28  2  0  0  0  0
 29 28  1  0  0  0  0
 29  1  1  0  0  0  0
 30 29  2  0  0  0  0
 31 25  1  0  0  0  0
 32 26  1  0  0  0  0
 33 40  1  0  0  0  0
 34 33  1  0  0  0  0
 34 35  2  0  0  0  0
 35 37  1  0  0  0  0
 36 35  1  0  0  0  0
 37 39  1  0  0  0  0
 37 38  2  0  0  0  0
 39 42  1  0  0  0  0
 40 39  1  0  0  0  0
 41 40  2  0  0  0  0
M  END
>  <minimizedAffinity>
-6.65110397

$$$$
