
 OpenBabel03242511383D

 43 46  0  0  1  0  0  0  0  0999 V2000
   36.5910   28.7360   41.3220 C   0  0  0  0  0  0  0  0  0  0  0  0
   36.5590   27.8910   42.4610 C   0  0  0  0  0  0  0  0  0  0  0  0
   37.6670   27.8140   43.3200 C   0  0  0  0  0  0  0  0  0  0  0  0
   38.7240   28.5880   42.9810 N   0  0  0  0  0  0  0  0  0  0  0  0
   38.7320   29.3870   41.8900 C   0  0  0  0  0  0  0  0  0  0  0  0
   37.6900   29.4620   41.0770 N   0  0  0  0  0  0  0  0  0  0  0  0
   35.7190   27.2720   42.7360 H   0  0  0  0  0  0  0  0  0  0  0  0
   37.6610   27.1860   44.1780 H   0  0  0  0  0  0  0  0  0  0  0  0
   39.9340   30.2350   41.5730 C   0  0  2  0  0  0  0  0  0  0  0  0
   40.5930   31.0590   42.5780 C   0  0  0  0  0  0  0  0  0  0  0  0
   39.7580   31.7560   41.5570 C   0  0  1  0  0  0  0  0  0  0  0  0
   40.5260   29.8040   40.7410 H   0  0  0  0  0  0  0  0  0  0  0  0
   40.1130   31.0280   43.6000 H   0  0  0  0  0  0  0  0  0  0  0  0
   41.6730   31.1920   42.6630 H   0  0  0  0  0  0  0  0  0  0  0  0
   38.7540   32.1150   41.8230 H   0  0  0  0  0  0  0  0  0  0  0  0
   40.4690   32.4030   40.4740 N   0  0  0  0  0  0  0  0  0  0  0  0
   41.7640   32.7110   40.6470 C   0  0  0  0  0  3  0  0  0  0  0  0
   42.3850   33.3290   39.5660 C   0  0  0  0  0  0  0  0  0  0  0  0
   43.4320   33.6380   39.5600 H   0  0  0  0  0  0  0  0  0  0  0  0
   41.6780   33.5970   38.3980 C   0  0  0  0  0  0  0  0  0  0  0  0
   42.2120   34.1570   37.4000 O   0  0  0  0  0  0  0  0  0  0  0  0
   40.3710   33.2610   38.2880 N   0  0  0  0  0  0  0  0  0  0  0  0
   39.7830   32.6620   39.3410 C   0  0  0  0  0  0  0  0  0  0  0  0
   38.5640   32.3370   39.2660 O   0  0  0  0  0  0  0  0  0  0  0  0
   39.8060   33.4510   37.4100 H   0  0  0  0  0  0  0  0  0  0  0  0
   35.3990   28.7670   40.4820 C   0  0  0  0  0  3  0  0  0  0  0  0
   35.5670   28.9050   39.1730 C   0  0  0  0  0  3  0  0  0  0  0  0
   34.4380   28.9490   38.2250 C   0  0  0  0  0  0  0  0  0  0  0  0
   33.5750   28.4120   38.6830 H   0  0  0  0  0  0  0  0  0  0  0  0
   34.1570   29.9750   37.9280 H   0  0  0  0  0  0  0  0  0  0  0  0
   36.3800   28.1590   35.2890 C   0  0  1  0  0  0  0  0  0  0  0  0
   36.1920   27.8820   36.7860 C   0  0  0  0  0  0  0  0  0  0  0  0
   34.7480   28.1930   36.9370 C   0  0  2  0  0  0  0  0  0  0  0  0
   34.3210   28.8800   35.8300 O   0  0  0  0  0  0  0  0  0  0  0  0
   35.3940   29.2850   35.0910 C   0  0  0  0  0  0  0  0  0  0  0  0
   36.1320   27.2600   34.6920 H   0  0  0  0  0  0  0  0  0  0  0  0
   36.8330   28.5420   37.3850 H   0  0  0  0  0  0  0  0  0  0  0  0
   36.4190   26.7950   36.9630 H   0  0  0  0  0  0  0  0  0  0  0  0
   34.1970   27.2280   36.9920 H   0  0  0  0  0  0  0  0  0  0  0  0
   35.1430   29.4270   34.0330 H   0  0  0  0  0  0  0  0  0  0  0  0
   35.8360   30.1870   35.5630 H   0  0  0  0  0  0  0  0  0  0  0  0
   37.6850   28.5390   35.0340 O   0  0  0  0  0  0  0  0  0  0  0  0
   37.8590   29.3880   35.5120 H   0  0  0  0  0  0  0  0  0  0  0  0
  1  2  1  0  0  0  0
  2  7  1  0  0  0  0
  2  3  2  0  0  0  0
  3  8  1  0  0  0  0
  4  3  1  0  0  0  0
  5  4  2  0  0  0  0
  6  1  2  0  0  0  0
  6  5  1  0  0  0  0
  9 12  1  6  0  0  0
  9  5  1  0  0  0  0
  9 10  1  0  0  0  0
 10 14  1  0  0  0  0
 10 13  1  0  0  0  0
 11  9  1  0  0  0  0
 11 15  1  1  0  0  0
 11 10  1  0  0  0  0
 16 17  1  0  0  0  0
 16 11  1  0  0  0  0
 18 17  2  0  0  0  0
 19 18  1  0  0  0  0
 20 18  1  0  0  0  0
 21 20  2  0  0  0  0
 22 20  1  0  0  0  0
 22 23  1  0  0  0  0
 23 16  1  0  0  0  0
 24 23  2  0  0  0  0
 25 22  1  0  0  0  0
 26  1  1  0  0  0  0
 27 26  2  0  0  0  0
 28 29  1  0  0  0  0
 28 27  1  0  0  0  0
 30 28  1  0  0  0  0
 31 36  1  6  0  0  0
 31 32  1  0  0  0  0
 32 33  1  0  0  0  0
 32 38  1  0  0  0  0
 32 37  1  0  0  0  0
 33 39  1  1  0  0  0
 33 28  1  0  0  0  0
 34 33  1  0  0  0  0
 35 31  1  0  0  0  0
 35 41  1  0  0  0  0
 35 34  1  0  0  0  0
 40 35  1  0  0  0  0
 42 31  1  0  0  0  0
 42 43  1  0  0  0  0
M  END
>  <minimizedAffinity>
-5.89270973

$$$$

 OpenBabel03242511383D

 43 46  0  0  1  0  0  0  0  0999 V2000
   36.5780   25.4780   39.7050 C   0  0  0  0  0  0  0  0  0  0  0  0
   36.6240   24.4350   40.6650 C   0  0  0  0  0  0  0  0  0  0  0  0
   37.2980   24.6190   41.8820 C   0  0  0  0  0  0  0  0  0  0  0  0
   37.8770   25.8300   42.0530 N   0  0  0  0  0  0  0  0  0  0  0  0
   37.8210   26.8110   41.1220 C   0  0  0  0  0  0  0  0  0  0  0  0
   37.1860   26.6420   39.9730 N   0  0  0  0  0  0  0  0  0  0  0  0
   36.1640   23.4680   40.5340 H   0  0  0  0  0  0  0  0  0  0  0  0
   37.3440   23.8480   42.6130 H   0  0  0  0  0  0  0  0  0  0  0  0
   38.4730   28.1430   41.3760 C   0  0  2  0  0  0  0  0  0  0  0  0
   38.8530   28.5820   42.7120 C   0  0  0  0  0  0  0  0  0  0  0  0
   37.6540   29.2200   42.0930 C   0  0  1  0  0  0  0  0  0  0  0  0
   39.0610   28.4800   40.4990 H   0  0  0  0  0  0  0  0  0  0  0  0
   38.5930   27.8560   43.5380 H   0  0  0  0  0  0  0  0  0  0  0  0
   39.7670   29.1280   42.9510 H   0  0  0  0  0  0  0  0  0  0  0  0
   36.6470   28.9130   42.4060 H   0  0  0  0  0  0  0  0  0  0  0  0
   37.8420   30.5440   41.5380 N   0  0  0  0  0  0  0  0  0  0  0  0
   39.0460   31.1270   41.6550 C   0  0  0  0  0  3  0  0  0  0  0  0
   39.1570   32.3980   41.0990 C   0  0  0  0  0  0  0  0  0  0  0  0
   40.0720   32.9930   41.1160 H   0  0  0  0  0  0  0  0  0  0  0  0
   38.0680   32.9960   40.4720 C   0  0  0  0  0  0  0  0  0  0  0  0
   38.1350   34.1470   39.9580 O   0  0  0  0  0  0  0  0  0  0  0  0
   36.8780   32.3540   40.3890 N   0  0  0  0  0  0  0  0  0  0  0  0
   36.7870   31.1250   40.9300 C   0  0  0  0  0  0  0  0  0  0  0  0
   35.6880   30.5020   40.8670 O   0  0  0  0  0  0  0  0  0  0  0  0
   36.0310   32.7840   39.9160 H   0  0  0  0  0  0  0  0  0  0  0  0
   35.8510   25.2130   38.4670 C   0  0  0  0  0  3  0  0  0  0  0  0
   35.2720   26.2390   37.8570 C   0  0  0  0  0  3  0  0  0  0  0  0
   34.5120   26.0940   36.6020 C   0  0  0  0  0  0  0  0  0  0  0  0
   35.2100   25.7380   35.8090 H   0  0  0  0  0  0  0  0  0  0  0  0
   33.6400   25.4220   36.6950 H   0  0  0  0  0  0  0  0  0  0  0  0
   32.3520   28.9820   36.6780 C   0  0  1  0  0  0  0  0  0  0  0  0
   33.6560   28.3720   37.2060 C   0  0  0  0  0  0  0  0  0  0  0  0
   33.9790   27.4330   36.1020 C   0  0  2  0  0  0  0  0  0  0  0  0
   32.8700   27.2740   35.3120 O   0  0  0  0  0  0  0  0  0  0  0  0
   31.7760   27.8010   35.9330 C   0  0  0  0  0  0  0  0  0  0  0  0
   32.5650   29.8450   36.0170 H   0  0  0  0  0  0  0  0  0  0  0  0
   33.4840   27.8590   38.1610 H   0  0  0  0  0  0  0  0  0  0  0  0
   34.4090   29.2010   37.2990 H   0  0  0  0  0  0  0  0  0  0  0  0
   34.7880   27.8910   35.4920 H   0  0  0  0  0  0  0  0  0  0  0  0
   30.9980   28.1060   35.2230 H   0  0  0  0  0  0  0  0  0  0  0  0
   31.4160   27.0830   36.6980 H   0  0  0  0  0  0  0  0  0  0  0  0
   31.5560   29.3910   37.7310 O   0  0  0  0  0  0  0  0  0  0  0  0
   31.3100   28.5930   38.2610 H   0  0  0  0  0  0  0  0  0  0  0  0
  1  6  2  0  0  0  0
  1  2  1  0  0  0  0
  2  3  2  0  0  0  0
  3  4  1  0  0  0  0
  3  8  1  0  0  0  0
  5  9  1  0  0  0  0
  5  4  2  0  0  0  0
  6  5  1  0  0  0  0
  7  2  1  0  0  0  0
  9 12  1  6  0  0  0
  9 11  1  0  0  0  0
  9 10  1  0  0  0  0
 10 14  1  0  0  0  0
 10 13  1  0  0  0  0
 11 15  1  1  0  0  0
 11 10  1  0  0  0  0
 16 17  1  0  0  0  0
 16 11  1  0  0  0  0
 18 19  1  0  0  0  0
 18 17  2  0  0  0  0
 20 18  1  0  0  0  0
 21 20  2  0  0  0  0
 22 20  1  0  0  0  0
 22 23  1  0  0  0  0
 23 16  1  0  0  0  0
 24 23  2  0  0  0  0
 25 22  1  0  0  0  0
 26  1  1  0  0  0  0
 27 26  2  0  0  0  0
 28 30  1  0  0  0  0
 28 27  1  0  0  0  0
 29 28  1  0  0  0  0
 31 36  1  6  0  0  0
 31 32  1  0  0  0  0
 31 42  1  0  0  0  0
 32 38  1  0  0  0  0
 32 37  1  0  0  0  0
 33 39  1  6  0  0  0
 33 28  1  0  0  0  0
 33 32  1  0  0  0  0
 34 35  1  0  0  0  0
 34 33  1  0  0  0  0
 35 31  1  0  0  0  0
 35 41  1  0  0  0  0
 40 35  1  0  0  0  0
 42 43  1  0  0  0  0
M  END
>  <minimizedAffinity>
-5.75417805

$$$$

 OpenBabel03242511383D

 43 46  0  0  1  0  0  0  0  0999 V2000
   36.7120   25.4150   39.9470 C   0  0  0  0  0  0  0  0  0  0  0  0
   36.7880   24.4210   40.9560 C   0  0  0  0  0  0  0  0  0  0  0  0
   37.4710   24.6750   42.1560 C   0  0  0  0  0  0  0  0  0  0  0  0
   38.0290   25.9040   42.2620 N   0  0  0  0  0  0  0  0  0  0  0  0
   37.9440   26.8370   41.2860 C   0  0  0  0  0  0  0  0  0  0  0  0
   37.3010   26.6020   40.1530 N   0  0  0  0  0  0  0  0  0  0  0  0
   36.3450   23.4400   40.8770 H   0  0  0  0  0  0  0  0  0  0  0  0
   37.5380   23.9410   42.9220 H   0  0  0  0  0  0  0  0  0  0  0  0
   38.5740   28.1920   41.4690 C   0  0  2  0  0  0  0  0  0  0  0  0
   38.9990   28.6830   42.7730 C   0  0  0  0  0  0  0  0  0  0  0  0
   37.7610   29.2730   42.1860 C   0  0  1  0  0  0  0  0  0  0  0  0
   39.1160   28.5130   40.5570 H   0  0  0  0  0  0  0  0  0  0  0  0
   38.7930   27.9790   43.6320 H   0  0  0  0  0  0  0  0  0  0  0  0
   39.9090   29.2580   42.9550 H   0  0  0  0  0  0  0  0  0  0  0  0
   36.7750   28.9540   42.5520 H   0  0  0  0  0  0  0  0  0  0  0  0
   37.8930   30.5820   41.5820 N   0  0  0  0  0  0  0  0  0  0  0  0
   39.0690   31.2210   41.6800 C   0  0  0  0  0  3  0  0  0  0  0  0
   39.1260   32.4740   41.0770 C   0  0  0  0  0  0  0  0  0  0  0  0
   40.0140   33.1100   41.0750 H   0  0  0  0  0  0  0  0  0  0  0  0
   38.0150   32.9990   40.4240 C   0  0  0  0  0  0  0  0  0  0  0  0
   38.0340   34.1320   39.8660 O   0  0  0  0  0  0  0  0  0  0  0  0
   36.8560   32.3020   40.3600 N   0  0  0  0  0  0  0  0  0  0  0  0
   36.8160   31.0920   40.9480 C   0  0  0  0  0  0  0  0  0  0  0  0
   35.7460   30.4190   40.9040 O   0  0  0  0  0  0  0  0  0  0  0  0
   35.9930   32.6760   39.8690 H   0  0  0  0  0  0  0  0  0  0  0  0
   35.9790   25.0790   38.7320 C   0  0  0  0  0  3  0  0  0  0  0  0
   35.6890   26.0620   37.8900 C   0  0  0  0  0  3  0  0  0  0  0  0
   34.9540   25.8430   36.6320 C   0  0  0  0  0  0  0  0  0  0  0  0
   35.0680   24.7730   36.3400 H   0  0  0  0  0  0  0  0  0  0  0  0
   33.8880   26.1270   36.6930 H   0  0  0  0  0  0  0  0  0  0  0  0
   36.8440   28.5410   35.1620 C   0  0  1  0  0  0  0  0  0  0  0  0
   36.9220   27.1340   35.7660 C   0  0  0  0  0  0  0  0  0  0  0  0
   35.5510   26.6420   35.4770 C   0  0  2  0  0  0  0  0  0  0  0  0
   34.7580   27.7070   35.1330 O   0  0  0  0  0  0  0  0  0  0  0  0
   35.3960   28.8760   35.4260 C   0  0  0  0  0  0  0  0  0  0  0  0
   37.0900   28.5160   34.0820 H   0  0  0  0  0  0  0  0  0  0  0  0
   37.1340   27.1870   36.8420 H   0  0  0  0  0  0  0  0  0  0  0  0
   37.7110   26.5640   35.2050 H   0  0  0  0  0  0  0  0  0  0  0  0
   35.6140   25.9500   34.6090 H   0  0  0  0  0  0  0  0  0  0  0  0
   35.0490   29.7090   34.8020 H   0  0  0  0  0  0  0  0  0  0  0  0
   35.3040   29.0740   36.5140 H   0  0  0  0  0  0  0  0  0  0  0  0
   37.7180   29.3900   35.8150 O   0  0  0  0  0  0  0  0  0  0  0  0
   37.4310   29.4630   36.7590 H   0  0  0  0  0  0  0  0  0  0  0  0
  1  6  2  0  0  0  0
  1  2  1  0  0  0  0
  2  3  2  0  0  0  0
  3  4  1  0  0  0  0
  3  8  1  0  0  0  0
  5  9  1  0  0  0  0
  5  4  2  0  0  0  0
  6  5  1  0  0  0  0
  7  2  1  0  0  0  0
  9 12  1  6  0  0  0
  9 11  1  0  0  0  0
  9 10  1  0  0  0  0
 10 14  1  0  0  0  0
 10 13  1  0  0  0  0
 11 15  1  1  0  0  0
 11 10  1  0  0  0  0
 16 17  1  0  0  0  0
 16 11  1  0  0  0  0
 18 17  2  0  0  0  0
 19 18  1  0  0  0  0
 20 18  1  0  0  0  0
 21 20  2  0  0  0  0
 22 20  1  0  0  0  0
 22 23  1  0  0  0  0
 23 16  1  0  0  0  0
 24 23  2  0  0  0  0
 25 22  1  0  0  0  0
 26  1  1  0  0  0  0
 27 26  2  0  0  0  0
 28 30  1  0  0  0  0
 28 27  1  0  0  0  0
 29 28  1  0  0  0  0
 31 36  1  6  0  0  0
 31 35  1  0  0  0  0
 31 32  1  0  0  0  0
 31 42  1  0  0  0  0
 32 37  1  0  0  0  0
 33 39  1  6  0  0  0
 33 32  1  0  0  0  0
 33 28  1  0  0  0  0
 34 35  1  0  0  0  0
 34 33  1  0  0  0  0
 35 41  1  0  0  0  0
 38 32  1  0  0  0  0
 40 35  1  0  0  0  0
 42 43  1  0  0  0  0
M  END
>  <minimizedAffinity>
-5.70014763

$$$$

 OpenBabel03242511383D

 43 46  0  0  1  0  0  0  0  0999 V2000
   39.8070   31.1470   41.3420 C   0  0  0  0  0  0  0  0  0  0  0  0
   39.0050   32.2260   40.8890 C   0  0  0  0  0  0  0  0  0  0  0  0
   37.6350   32.0390   40.6440 C   0  0  0  0  0  0  0  0  0  0  0  0
   37.1660   30.7900   40.8690 N   0  0  0  0  0  0  0  0  0  0  0  0
   37.9510   29.7750   41.3000 C   0  0  0  0  0  0  0  0  0  0  0  0
   39.2420   29.9470   41.5330 N   0  0  0  0  0  0  0  0  0  0  0  0
   39.3740   33.2230   40.7090 H   0  0  0  0  0  0  0  0  0  0  0  0
   37.0190   32.8360   40.3040 H   0  0  0  0  0  0  0  0  0  0  0  0
   37.3670   28.4100   41.5460 C   0  0  2  0  0  0  0  0  0  0  0  0
   36.8400   28.0110   42.8440 C   0  0  0  0  0  0  0  0  0  0  0  0
   38.1540   27.4390   42.4300 C   0  0  1  0  0  0  0  0  0  0  0  0
   36.9310   27.9830   40.6210 H   0  0  0  0  0  0  0  0  0  0  0  0
   36.9300   28.7960   43.6510 H   0  0  0  0  0  0  0  0  0  0  0  0
   35.9430   27.4070   42.9920 H   0  0  0  0  0  0  0  0  0  0  0  0
   39.0840   27.8400   42.8550 H   0  0  0  0  0  0  0  0  0  0  0  0
   38.1390   26.0780   41.9380 N   0  0  0  0  0  0  0  0  0  0  0  0
   37.0240   25.3470   42.0950 C   0  0  0  0  0  3  0  0  0  0  0  0
   37.0790   24.0490   41.5980 C   0  0  0  0  0  0  0  0  0  0  0  0
   36.2510   23.3400   41.6530 H   0  0  0  0  0  0  0  0  0  0  0  0
   38.2340   23.5710   40.9840 C   0  0  0  0  0  0  0  0  0  0  0  0
   38.3160   22.3990   40.5230 O   0  0  0  0  0  0  0  0  0  0  0  0
   39.3270   24.3600   40.8570 N   0  0  0  0  0  0  0  0  0  0  0  0
   39.2590   25.6140   41.3420 C   0  0  0  0  0  0  0  0  0  0  0  0
   40.2640   26.3730   41.2380 O   0  0  0  0  0  0  0  0  0  0  0  0
   40.2200   24.0240   40.3940 H   0  0  0  0  0  0  0  0  0  0  0  0
   41.2200   31.4210   41.5810 C   0  0  0  0  0  3  0  0  0  0  0  0
   41.9510   31.8490   40.5600 C   0  0  0  0  0  3  0  0  0  0  0  0
   43.3860   32.1590   40.6830 C   0  0  0  0  0  0  0  0  0  0  0  0
   43.5830   32.5040   41.7240 H   0  0  0  0  0  0  0  0  0  0  0  0
   44.0410   31.3110   40.4140 H   0  0  0  0  0  0  0  0  0  0  0  0
   43.3050   34.1490   37.6750 C   0  0  1  0  0  0  0  0  0  0  0  0
   42.6510   33.9040   39.0400 C   0  0  0  0  0  0  0  0  0  0  0  0
   43.7950   33.3240   39.7860 C   0  0  2  0  0  0  0  0  0  0  0  0
   44.7710   32.9600   38.8940 O   0  0  0  0  0  0  0  0  0  0  0  0
   44.2770   32.9940   37.6230 C   0  0  0  0  0  0  0  0  0  0  0  0
   43.8080   35.1350   37.6540 H   0  0  0  0  0  0  0  0  0  0  0  0
   41.8090   33.2060   38.9450 H   0  0  0  0  0  0  0  0  0  0  0  0
   42.3320   34.9010   39.4490 H   0  0  0  0  0  0  0  0  0  0  0  0
   44.2020   34.1140   40.4540 H   0  0  0  0  0  0  0  0  0  0  0  0
   45.0610   33.1540   36.8740 H   0  0  0  0  0  0  0  0  0  0  0  0
   43.6780   32.0770   37.4450 H   0  0  0  0  0  0  0  0  0  0  0  0
   42.3540   34.0940   36.6720 O   0  0  0  0  0  0  0  0  0  0  0  0
   41.9770   33.1790   36.6540 H   0  0  0  0  0  0  0  0  0  0  0  0
  1  6  1  0  0  0  0
  1 26  1  0  0  0  0
  2  1  2  0  0  0  0
  3  4  2  0  0  0  0
  3  2  1  0  0  0  0
  4  5  1  0  0  0  0
  5  6  2  0  0  0  0
  5  9  1  0  0  0  0
  7  2  1  0  0  0  0
  8  3  1  0  0  0  0
  9 12  1  6  0  0  0
  9 11  1  0  0  0  0
  9 10  1  0  0  0  0
 10 14  1  0  0  0  0
 10 13  1  0  0  0  0
 11 10  1  0  0  0  0
 11 15  1  1  0  0  0
 16 17  1  0  0  0  0
 16 11  1  0  0  0  0
 18 19  1  0  0  0  0
 18 17  2  0  0  0  0
 20 18  1  0  0  0  0
 21 20  2  0  0  0  0
 22 20  1  0  0  0  0
 22 23  1  0  0  0  0
 23 16  1  0  0  0  0
 24 23  2  0  0  0  0
 25 22  1  0  0  0  0
 27 28  1  0  0  0  0
 27 26  2  0  0  0  0
 28 29  1  0  0  0  0
 30 28  1  0  0  0  0
 31 36  1  6  0  0  0
 31 32  1  0  0  0  0
 32 38  1  0  0  0  0
 32 33  1  0  0  0  0
 33 39  1  1  0  0  0
 33 28  1  0  0  0  0
 34 33  1  0  0  0  0
 35 31  1  0  0  0  0
 35 34  1  0  0  0  0
 37 32  1  0  0  0  0
 40 35  1  0  0  0  0
 41 35  1  0  0  0  0
 42 31  1  0  0  0  0
 43 42  1  0  0  0  0
M  END
>  <minimizedAffinity>
-5.62947798

$$$$

 OpenBabel03242511383D

 43 46  0  0  1  0  0  0  0  0999 V2000
   38.6250   29.8680   42.1590 C   0  0  0  0  0  0  0  0  0  0  0  0
   38.2580   29.1070   43.2980 C   0  0  0  0  0  0  0  0  0  0  0  0
   37.1790   28.2100   43.2370 C   0  0  0  0  0  0  0  0  0  0  0  0
   36.5460   28.1380   42.0430 N   0  0  0  0  0  0  0  0  0  0  0  0
   36.9130   28.8750   40.9690 C   0  0  0  0  0  0  0  0  0  0  0  0
   37.9290   29.7210   41.0230 N   0  0  0  0  0  0  0  0  0  0  0  0
   38.7590   29.1590   44.2520 H   0  0  0  0  0  0  0  0  0  0  0  0
   36.8900   27.6310   44.0810 H   0  0  0  0  0  0  0  0  0  0  0  0
   36.1780   28.7400   39.6630 C   0  0  2  0  0  0  0  0  0  0  0  0
   35.7700   27.4480   39.1290 C   0  0  0  0  0  0  0  0  0  0  0  0
   36.9260   28.1280   38.4760 C   0  0  1  0  0  0  0  0  0  0  0  0
   35.5710   29.6420   39.4450 H   0  0  0  0  0  0  0  0  0  0  0  0
   36.0740   26.5610   39.7580 H   0  0  0  0  0  0  0  0  0  0  0  0
   34.8230   27.2550   38.6220 H   0  0  0  0  0  0  0  0  0  0  0  0
   37.9500   27.7930   38.6880 H   0  0  0  0  0  0  0  0  0  0  0  0
   36.6550   28.8000   37.2220 N   0  0  0  0  0  0  0  0  0  0  0  0
   35.6240   28.3770   36.4740 C   0  0  0  0  0  3  0  0  0  0  0  0
   35.4210   29.0680   35.2830 C   0  0  0  0  0  0  0  0  0  0  0  0
   34.6240   28.8370   34.5730 H   0  0  0  0  0  0  0  0  0  0  0  0
   36.2530   30.1230   34.9230 C   0  0  0  0  0  0  0  0  0  0  0  0
   36.0950   30.7700   33.8500 O   0  0  0  0  0  0  0  0  0  0  0  0
   37.2780   30.5010   35.7240 N   0  0  0  0  0  0  0  0  0  0  0  0
   37.4620   29.8250   36.8730 C   0  0  0  0  0  0  0  0  0  0  0  0
   38.4100   30.1560   37.6400 O   0  0  0  0  0  0  0  0  0  0  0  0
   37.9280   31.3020   35.4760 H   0  0  0  0  0  0  0  0  0  0  0  0
   39.7600   30.7720   42.3000 C   0  0  0  0  0  3  0  0  0  0  0  0
   40.3330   31.2260   41.1920 C   0  0  0  0  0  3  0  0  0  0  0  0
   41.4850   32.1440   41.2090 C   0  0  0  0  0  0  0  0  0  0  0  0
   41.3490   32.8620   42.0500 H   0  0  0  0  0  0  0  0  0  0  0  0
   42.4570   31.6250   41.2830 H   0  0  0  0  0  0  0  0  0  0  0  0
   40.8550   32.9010   37.7390 C   0  0  1  0  0  0  0  0  0  0  0  0
   40.2880   32.9610   39.1620 C   0  0  0  0  0  0  0  0  0  0  0  0
   41.5460   33.0040   39.9500 C   0  0  2  0  0  0  0  0  0  0  0  0
   42.5930   32.6440   39.1400 O   0  0  0  0  0  0  0  0  0  0  0  0
   42.1190   32.1120   37.9770 C   0  0  0  0  0  0  0  0  0  0  0  0
   41.0510   33.9210   37.3540 H   0  0  0  0  0  0  0  0  0  0  0  0
   39.6850   32.0680   39.3760 H   0  0  0  0  0  0  0  0  0  0  0  0
   39.6910   33.9090   39.2530 H   0  0  0  0  0  0  0  0  0  0  0  0
   41.7010   34.0530   40.2860 H   0  0  0  0  0  0  0  0  0  0  0  0
   42.8300   32.2180   37.1480 H   0  0  0  0  0  0  0  0  0  0  0  0
   41.8130   31.0610   38.1610 H   0  0  0  0  0  0  0  0  0  0  0  0
   39.9680   32.2530   36.8990 O   0  0  0  0  0  0  0  0  0  0  0  0
   39.8720   31.3190   37.2130 H   0  0  0  0  0  0  0  0  0  0  0  0
  1 26  1  0  0  0  0
  1  2  1  0  0  0  0
  2  7  1  0  0  0  0
  3  2  2  0  0  0  0
  3  8  1  0  0  0  0
  4  3  1  0  0  0  0
  5  6  1  0  0  0  0
  5  4  2  0  0  0  0
  6  1  2  0  0  0  0
  9 12  1  6  0  0  0
  9  5  1  0  0  0  0
 10  9  1  0  0  0  0
 10 13  1  0  0  0  0
 11 15  1  1  0  0  0
 11 10  1  0  0  0  0
 11  9  1  0  0  0  0
 14 10  1  0  0  0  0
 16 11  1  0  0  0  0
 17 16  1  0  0  0  0
 18 17  2  0  0  0  0
 19 18  1  0  0  0  0
 20 18  1  0  0  0  0
 20 22  1  0  0  0  0
 21 20  2  0  0  0  0
 22 23  1  0  0  0  0
 23 16  1  0  0  0  0
 23 24  2  0  0  0  0
 25 22  1  0  0  0  0
 27 28  1  0  0  0  0
 27 26  2  0  0  0  0
 28 30  1  0  0  0  0
 28 29  1  0  0  0  0
 31 36  1  6  0  0  0
 31 35  1  0  0  0  0
 31 32  1  0  0  0  0
 32 38  1  0  0  0  0
 32 37  1  0  0  0  0
 32 33  1  0  0  0  0
 33 39  1  1  0  0  0
 33 28  1  0  0  0  0
 34 33  1  0  0  0  0
 35 41  1  0  0  0  0
 35 34  1  0  0  0  0
 40 35  1  0  0  0  0
 42 43  1  0  0  0  0
 42 31  1  0  0  0  0
M  END
>  <minimizedAffinity>
-5.45553541

$$$$

 OpenBabel03242511383D

 43 46  0  0  1  0  0  0  0  0999 V2000
   34.2450   29.1060   35.7270 C   0  0  0  0  0  0  0  0  0  0  0  0
   35.3750   28.9550   34.8830 C   0  0  0  0  0  0  0  0  0  0  0  0
   36.6200   28.5910   35.4210 C   0  0  0  0  0  0  0  0  0  0  0  0
   36.6460   28.4040   36.7620 N   0  0  0  0  0  0  0  0  0  0  0  0
   35.5540   28.5550   37.5470 C   0  0  0  0  0  0  0  0  0  0  0  0
   34.3790   28.8970   37.0440 N   0  0  0  0  0  0  0  0  0  0  0  0
   35.3610   29.1020   33.8150 H   0  0  0  0  0  0  0  0  0  0  0  0
   37.4780   28.4740   34.8040 H   0  0  0  0  0  0  0  0  0  0  0  0
   35.6430   28.3190   39.0310 C   0  0  2  0  0  0  0  0  0  0  0  0
   34.8800   29.1060   39.9910 C   0  0  0  0  0  0  0  0  0  0  0  0
   36.3440   29.3770   39.8870 C   0  0  1  0  0  0  0  0  0  0  0  0
   35.8910   27.2630   39.2590 H   0  0  0  0  0  0  0  0  0  0  0  0
   34.2440   29.9190   39.5340 H   0  0  0  0  0  0  0  0  0  0  0  0
   34.4070   28.7040   40.8880 H   0  0  0  0  0  0  0  0  0  0  0  0
   36.7000   30.2620   39.3420 H   0  0  0  0  0  0  0  0  0  0  0  0
   37.1800   28.8100   40.9240 N   0  0  0  0  0  0  0  0  0  0  0  0
   36.6020   28.3890   42.0600 C   0  0  0  0  0  3  0  0  0  0  0  0
   37.4650   27.8550   43.0130 C   0  0  0  0  0  0  0  0  0  0  0  0
   37.1400   27.4730   43.9820 H   0  0  0  0  0  0  0  0  0  0  0  0
   38.8330   27.7800   42.7690 C   0  0  0  0  0  0  0  0  0  0  0  0
   39.6410   27.3000   43.6130 O   0  0  0  0  0  0  0  0  0  0  0  0
   39.3540   28.2230   41.6010 N   0  0  0  0  0  0  0  0  0  0  0  0
   38.5070   28.7360   40.6890 C   0  0  0  0  0  0  0  0  0  0  0  0
   38.9660   29.1580   39.5890 O   0  0  0  0  0  0  0  0  0  0  0  0
   40.3920   28.1770   41.3870 H   0  0  0  0  0  0  0  0  0  0  0  0
   32.9850   29.4780   35.0930 C   0  0  0  0  0  3  0  0  0  0  0  0
   31.9960   29.8920   35.8730 C   0  0  0  0  0  3  0  0  0  0  0  0
   30.6800   30.2950   35.3470 C   0  0  0  0  0  0  0  0  0  0  0  0
   30.8100   31.2300   34.7550 H   0  0  0  0  0  0  0  0  0  0  0  0
   30.1910   29.5080   34.7440 H   0  0  0  0  0  0  0  0  0  0  0  0
   29.3790   30.1710   38.7090 C   0  0  1  0  0  0  0  0  0  0  0  0
   30.3800   30.8570   37.7720 C   0  0  0  0  0  0  0  0  0  0  0  0
   29.7050   30.6540   36.4640 C   0  0  2  0  0  0  0  0  0  0  0  0
   28.7260   29.7050   36.6090 O   0  0  0  0  0  0  0  0  0  0  0  0
   28.8660   29.0720   37.8090 C   0  0  0  0  0  0  0  0  0  0  0  0
   28.5850   30.8790   39.0180 H   0  0  0  0  0  0  0  0  0  0  0  0
   31.3590   30.3630   37.8240 H   0  0  0  0  0  0  0  0  0  0  0  0
   30.4340   31.9410   38.0640 H   0  0  0  0  0  0  0  0  0  0  0  0
   29.2280   31.6160   36.1750 H   0  0  0  0  0  0  0  0  0  0  0  0
   27.9200   28.6540   38.1740 H   0  0  0  0  0  0  0  0  0  0  0  0
   29.6770   28.3190   37.7270 H   0  0  0  0  0  0  0  0  0  0  0  0
   30.0280   29.6870   39.8300 O   0  0  0  0  0  0  0  0  0  0  0  0
   30.6740   28.9960   39.5380 H   0  0  0  0  0  0  0  0  0  0  0  0
  1  6  1  0  0  0  0
  2  3  1  0  0  0  0
  2  1  2  0  0  0  0
  3  4  2  0  0  0  0
  4  5  1  0  0  0  0
  5  9  1  0  0  0  0
  6  5  2  0  0  0  0
  7  2  1  0  0  0  0
  8  3  1  0  0  0  0
  9 12  1  1  0  0  0
  9 11  1  0  0  0  0
  9 10  1  0  0  0  0
 10 14  1  0  0  0  0
 11 15  1  6  0  0  0
 11 10  1  0  0  0  0
 11 16  1  0  0  0  0
 13 10  1  0  0  0  0
 16 17  1  0  0  0  0
 17 18  2  0  0  0  0
 18 19  1  0  0  0  0
 20 18  1  0  0  0  0
 20 21  2  0  0  0  0
 22 20  1  0  0  0  0
 23 16  1  0  0  0  0
 23 22  1  0  0  0  0
 24 23  2  0  0  0  0
 25 22  1  0  0  0  0
 26  1  1  0  0  0  0
 26 27  2  0  0  0  0
 28 27  1  0  0  0  0
 28 33  1  0  0  0  0
 29 28  1  0  0  0  0
 30 28  1  0  0  0  0
 31 36  1  1  0  0  0
 31 42  1  0  0  0  0
 32 37  1  0  0  0  0
 32 38  1  0  0  0  0
 32 31  1  0  0  0  0
 33 39  1  6  0  0  0
 33 34  1  0  0  0  0
 33 32  1  0  0  0  0
 34 35  1  0  0  0  0
 35 40  1  0  0  0  0
 35 31  1  0  0  0  0
 41 35  1  0  0  0  0
 43 42  1  0  0  0  0
M  END
>  <minimizedAffinity>
-5.44266987

$$$$

 OpenBabel03242511383D

 43 46  0  0  1  0  0  0  0  0999 V2000
   36.8970   25.4790   40.3530 C   0  0  0  0  0  0  0  0  0  0  0  0
   36.3730   24.6500   39.3290 C   0  0  0  0  0  0  0  0  0  0  0  0
   35.7740   25.2170   38.1930 C   0  0  0  0  0  0  0  0  0  0  0  0
   35.7420   26.5690   38.1620 N   0  0  0  0  0  0  0  0  0  0  0  0
   36.2480   27.3400   39.1520 C   0  0  0  0  0  0  0  0  0  0  0  0
   36.8140   26.8110   40.2240 N   0  0  0  0  0  0  0  0  0  0  0  0
   36.3960   23.5720   39.3480 H   0  0  0  0  0  0  0  0  0  0  0  0
   35.3750   24.6110   37.4150 H   0  0  0  0  0  0  0  0  0  0  0  0
   36.1950   28.8410   39.0530 C   0  0  2  0  0  0  0  0  0  0  0  0
   36.0430   29.5330   37.7800 C   0  0  0  0  0  0  0  0  0  0  0  0
   37.3890   29.5640   38.4240 C   0  0  1  0  0  0  0  0  0  0  0  0
   35.7830   29.2940   39.9770 H   0  0  0  0  0  0  0  0  0  0  0  0
   35.9970   28.8550   36.8780 H   0  0  0  0  0  0  0  0  0  0  0  0
   35.4320   30.4240   37.6250 H   0  0  0  0  0  0  0  0  0  0  0  0
   38.1900   28.9110   38.0500 H   0  0  0  0  0  0  0  0  0  0  0  0
   37.7470   30.7850   39.1140 N   0  0  0  0  0  0  0  0  0  0  0  0
   37.0210   31.8910   38.8850 C   0  0  0  0  0  3  0  0  0  0  0  0
   37.4200   33.0280   39.5820 C   0  0  0  0  0  0  0  0  0  0  0  0
   36.9260   33.9980   39.4980 H   0  0  0  0  0  0  0  0  0  0  0  0
   38.5060   32.9840   40.4510 C   0  0  0  0  0  0  0  0  0  0  0  0
   38.8920   33.9970   41.0970 O   0  0  0  0  0  0  0  0  0  0  0  0
   39.1980   31.8350   40.6370 N   0  0  0  0  0  0  0  0  0  0  0  0
   38.8000   30.7430   39.9570 C   0  0  0  0  0  0  0  0  0  0  0  0
   39.4270   29.6570   40.1120 O   0  0  0  0  0  0  0  0  0  0  0  0
   40.0290   31.7710   41.2930 H   0  0  0  0  0  0  0  0  0  0  0  0
   37.5110   24.8160   41.4990 C   0  0  0  0  0  3  0  0  0  0  0  0
   38.7660   25.1280   41.7970 C   0  0  0  0  0  3  0  0  0  0  0  0
   39.4890   24.5240   42.9300 C   0  0  0  0  0  0  0  0  0  0  0  0
   38.7400   24.1600   43.6710 H   0  0  0  0  0  0  0  0  0  0  0  0
   40.1760   23.7140   42.6280 H   0  0  0  0  0  0  0  0  0  0  0  0
   41.0590   27.7370   43.4060 C   0  0  1  0  0  0  0  0  0  0  0  0
   39.7730   26.9250   43.5960 C   0  0  0  0  0  0  0  0  0  0  0  0
   40.3320   25.5520   43.6800 C   0  0  2  0  0  0  0  0  0  0  0  0
   41.6280   25.5700   43.2320 O   0  0  0  0  0  0  0  0  0  0  0  0
   41.8900   26.7560   42.6140 C   0  0  0  0  0  0  0  0  0  0  0  0
   41.5100   27.9890   44.3860 H   0  0  0  0  0  0  0  0  0  0  0  0
   39.1020   27.0570   42.7370 H   0  0  0  0  0  0  0  0  0  0  0  0
   39.2990   27.2560   44.5600 H   0  0  0  0  0  0  0  0  0  0  0  0
   40.3290   25.2480   44.7500 H   0  0  0  0  0  0  0  0  0  0  0  0
   42.9560   27.0130   42.6360 H   0  0  0  0  0  0  0  0  0  0  0  0
   41.4660   26.7300   41.5890 H   0  0  0  0  0  0  0  0  0  0  0  0
   40.7920   28.9000   42.7080 O   0  0  0  0  0  0  0  0  0  0  0  0
   40.4690   28.6510   41.8060 H   0  0  0  0  0  0  0  0  0  0  0  0
  1 26  1  0  0  0  0
  2  7  1  0  0  0  0
  2  1  2  0  0  0  0
  3  2  1  0  0  0  0
  4  3  2  0  0  0  0
  4  5  1  0  0  0  0
  5  6  2  0  0  0  0
  6  1  1  0  0  0  0
  8  3  1  0  0  0  0
  9  5  1  0  0  0  0
  9 12  1  1  0  0  0
 10 11  1  0  0  0  0
 10  9  1  0  0  0  0
 11 15  1  6  0  0  0
 11  9  1  0  0  0  0
 11 16  1  0  0  0  0
 13 10  1  0  0  0  0
 14 10  1  0  0  0  0
 16 23  1  0  0  0  0
 17 16  1  0  0  0  0
 17 18  2  0  0  0  0
 18 20  1  0  0  0  0
 19 18  1  0  0  0  0
 20 22  1  0  0  0  0
 20 21  2  0  0  0  0
 22 25  1  0  0  0  0
 23 24  2  0  0  0  0
 23 22  1  0  0  0  0
 26 27  2  0  0  0  0
 27 28  1  0  0  0  0
 28 29  1  0  0  0  0
 28 33  1  0  0  0  0
 30 28  1  0  0  0  0
 31 32  1  0  0  0  0
 31 36  1  1  0  0  0
 32 33  1  0  0  0  0
 32 38  1  0  0  0  0
 33 39  1  1  0  0  0
 34 33  1  0  0  0  0
 35 40  1  0  0  0  0
 35 34  1  0  0  0  0
 35 31  1  0  0  0  0
 37 32  1  0  0  0  0
 41 35  1  0  0  0  0
 42 31  1  0  0  0  0
 43 42  1  0  0  0  0
M  END
>  <minimizedAffinity>
-5.41549206

$$$$

 OpenBabel03242511383D

 43 46  0  0  1  0  0  0  0  0999 V2000
   37.2110   28.0850   40.7780 C   0  0  0  0  0  0  0  0  0  0  0  0
   36.7750   27.7880   42.0950 C   0  0  0  0  0  0  0  0  0  0  0  0
   37.4060   28.3770   43.2020 C   0  0  0  0  0  0  0  0  0  0  0  0
   38.4260   29.2180   42.9150 N   0  0  0  0  0  0  0  0  0  0  0  0
   38.8260   29.4860   41.6500 C   0  0  0  0  0  0  0  0  0  0  0  0
   38.2330   28.9340   40.6030 N   0  0  0  0  0  0  0  0  0  0  0  0
   35.9620   27.1190   42.3300 H   0  0  0  0  0  0  0  0  0  0  0  0
   37.0930   28.1650   44.1960 H   0  0  0  0  0  0  0  0  0  0  0  0
   39.9590   30.4430   41.3940 C   0  0  2  0  0  0  0  0  0  0  0  0
   40.3700   31.4420   42.3720 C   0  0  0  0  0  0  0  0  0  0  0  0
   39.6180   31.9190   41.1750 C   0  0  1  0  0  0  0  0  0  0  0  0
   40.7090   30.0070   40.7040 H   0  0  0  0  0  0  0  0  0  0  0  0
   39.7550   31.4560   43.3180 H   0  0  0  0  0  0  0  0  0  0  0  0
   41.4050   31.7190   42.5790 H   0  0  0  0  0  0  0  0  0  0  0  0
   38.5530   32.1740   41.2630 H   0  0  0  0  0  0  0  0  0  0  0  0
   40.4010   32.5360   40.1240 N   0  0  0  0  0  0  0  0  0  0  0  0
   41.5770   33.1000   40.4430 C   0  0  0  0  0  3  0  0  0  0  0  0
   42.2760   33.6730   39.3850 C   0  0  0  0  0  0  0  0  0  0  0  0
   43.2440   34.1660   39.4910 H   0  0  0  0  0  0  0  0  0  0  0  0
   41.7580   33.6460   38.0940 C   0  0  0  0  0  0  0  0  0  0  0  0
   42.3680   34.1570   37.1130 O   0  0  0  0  0  0  0  0  0  0  0  0
   40.5640   33.0620   37.8390 N   0  0  0  0  0  0  0  0  0  0  0  0
   39.8990   32.5110   38.8710 C   0  0  0  0  0  0  0  0  0  0  0  0
   38.7820   31.9580   38.6620 O   0  0  0  0  0  0  0  0  0  0  0  0
   40.1450   33.0250   36.8650 H   0  0  0  0  0  0  0  0  0  0  0  0
   36.5000   27.4400   39.6790 C   0  0  0  0  0  3  0  0  0  0  0  0
   36.7480   26.1580   39.4480 C   0  0  0  0  0  3  0  0  0  0  0  0
   36.0900   25.4020   38.3670 C   0  0  0  0  0  0  0  0  0  0  0  0
   35.0230   25.7190   38.3160 H   0  0  0  0  0  0  0  0  0  0  0  0
   36.5870   25.5180   37.3880 H   0  0  0  0  0  0  0  0  0  0  0  0
   37.2840   22.3340   39.8430 C   0  0  1  0  0  0  0  0  0  0  0  0
   36.4240   23.5850   40.0620 C   0  0  0  0  0  0  0  0  0  0  0  0
   36.0540   23.9050   38.6610 C   0  0  2  0  0  0  0  0  0  0  0  0
   36.8680   23.2010   37.8120 O   0  0  0  0  0  0  0  0  0  0  0  0
   37.9090   22.6590   38.5070 C   0  0  0  0  0  0  0  0  0  0  0  0
   36.6500   21.4260   39.8110 H   0  0  0  0  0  0  0  0  0  0  0  0
   37.0140   24.3800   40.5370 H   0  0  0  0  0  0  0  0  0  0  0  0
   35.5370   23.2850   40.6840 H   0  0  0  0  0  0  0  0  0  0  0  0
   35.0040   23.5740   38.5030 H   0  0  0  0  0  0  0  0  0  0  0  0
   38.3180   21.7660   38.0190 H   0  0  0  0  0  0  0  0  0  0  0  0
   38.6680   23.4470   38.6900 H   0  0  0  0  0  0  0  0  0  0  0  0
   38.2170   22.2120   40.8550 O   0  0  0  0  0  0  0  0  0  0  0  0
   38.8230   22.9930   40.8130 H   0  0  0  0  0  0  0  0  0  0  0  0
  1  2  1  0  0  0  0
  2  7  1  0  0  0  0
  2  3  2  0  0  0  0
  3  8  1  0  0  0  0
  4  3  1  0  0  0  0
  5  4  2  0  0  0  0
  6  1  2  0  0  0  0
  6  5  1  0  0  0  0
  9 12  1  6  0  0  0
  9  5  1  0  0  0  0
  9 10  1  0  0  0  0
 10 14  1  0  0  0  0
 10 13  1  0  0  0  0
 11 15  1  1  0  0  0
 11  9  1  0  0  0  0
 11 10  1  0  0  0  0
 16 17  1  0  0  0  0
 16 11  1  0  0  0  0
 18 19  1  0  0  0  0
 18 17  2  0  0  0  0
 20 18  1  0  0  0  0
 21 20  2  0  0  0  0
 22 20  1  0  0  0  0
 22 23  1  0  0  0  0
 23 16  1  0  0  0  0
 24 23  2  0  0  0  0
 25 22  1  0  0  0  0
 26  1  1  0  0  0  0
 27 26  2  0  0  0  0
 28 33  1  0  0  0  0
 28 27  1  0  0  0  0
 29 28  1  0  0  0  0
 30 28  1  0  0  0  0
 31 36  1  6  0  0  0
 31 32  1  0  0  0  0
 31 42  1  0  0  0  0
 32 37  1  0  0  0  0
 32 38  1  0  0  0  0
 33 39  1  6  0  0  0
 33 32  1  0  0  0  0
 34 35  1  0  0  0  0
 34 33  1  0  0  0  0
 35 41  1  0  0  0  0
 35 31  1  0  0  0  0
 40 35  1  0  0  0  0
 43 42  1  0  0  0  0
M  END
>  <minimizedAffinity>
-5.38482523

$$$$

 OpenBabel03242511383D

 43 46  0  0  1  0  0  0  0  0999 V2000
   33.8410   28.8530   36.7310 C   0  0  0  0  0  0  0  0  0  0  0  0
   34.6580   29.1330   35.6060 C   0  0  0  0  0  0  0  0  0  0  0  0
   36.0320   29.3760   35.7670 C   0  0  0  0  0  0  0  0  0  0  0  0
   36.4890   29.3230   37.0400 N   0  0  0  0  0  0  0  0  0  0  0  0
   35.6900   29.0550   38.0980 C   0  0  0  0  0  0  0  0  0  0  0  0
   34.3960   28.8240   37.9510 N   0  0  0  0  0  0  0  0  0  0  0  0
   34.2990   29.1760   34.5890 H   0  0  0  0  0  0  0  0  0  0  0  0
   36.6590   29.5880   34.9350 H   0  0  0  0  0  0  0  0  0  0  0  0
   36.2610   28.9960   39.4900 C   0  0  2  0  0  0  0  0  0  0  0  0
   35.4260   29.0960   40.6790 C   0  0  0  0  0  0  0  0  0  0  0  0
   36.2610   30.2800   40.3230 C   0  0  1  0  0  0  0  0  0  0  0  0
   37.1910   28.3940   39.5210 H   0  0  0  0  0  0  0  0  0  0  0  0
   34.3260   29.2490   40.4710 H   0  0  0  0  0  0  0  0  0  0  0  0
   35.5690   28.5130   41.5910 H   0  0  0  0  0  0  0  0  0  0  0  0
   35.7980   31.1520   39.8420 H   0  0  0  0  0  0  0  0  0  0  0  0
   37.4770   30.4650   41.0880 N   0  0  0  0  0  0  0  0  0  0  0  0
   37.7070   29.6600   42.1370 C   0  0  0  0  0  3  0  0  0  0  0  0
   38.8940   29.8930   42.8250 C   0  0  0  0  0  0  0  0  0  0  0  0
   39.2150   29.3200   43.6970 H   0  0  0  0  0  0  0  0  0  0  0  0
   39.7610   30.9060   42.4250 C   0  0  0  0  0  0  0  0  0  0  0  0
   40.8450   31.1420   43.0280 O   0  0  0  0  0  0  0  0  0  0  0  0
   39.4690   31.6840   41.3560 N   0  0  0  0  0  0  0  0  0  0  0  0
   38.3180   31.4460   40.6990 C   0  0  0  0  0  0  0  0  0  0  0  0
   38.0200   32.1580   39.6980 O   0  0  0  0  0  0  0  0  0  0  0  0
   40.1110   32.4620   41.0260 H   0  0  0  0  0  0  0  0  0  0  0  0
   32.4260   28.6030   36.4810 C   0  0  0  0  0  3  0  0  0  0  0  0
   31.5520   29.5020   36.9140 C   0  0  0  0  0  3  0  0  0  0  0  0
   30.0980   29.3580   36.7190 C   0  0  0  0  0  0  0  0  0  0  0  0
   29.9050   28.3740   36.2320 H   0  0  0  0  0  0  0  0  0  0  0  0
   29.5200   29.4580   37.6550 H   0  0  0  0  0  0  0  0  0  0  0  0
   30.3110   32.2260   34.5420 C   0  0  1  0  0  0  0  0  0  0  0  0
   30.4800   30.7060   34.6400 C   0  0  0  0  0  0  0  0  0  0  0  0
   29.5460   30.4020   35.7530 C   0  0  2  0  0  0  0  0  0  0  0  0
   29.2250   31.5690   36.3970 O   0  0  0  0  0  0  0  0  0  0  0  0
   30.0580   32.5700   35.9910 C   0  0  0  0  0  0  0  0  0  0  0  0
   29.4560   32.4820   33.8850 H   0  0  0  0  0  0  0  0  0  0  0  0
   31.5210   30.4470   34.8770 H   0  0  0  0  0  0  0  0  0  0  0  0
   30.1440   30.2610   33.6630 H   0  0  0  0  0  0  0  0  0  0  0  0
   28.6200   29.9730   35.3130 H   0  0  0  0  0  0  0  0  0  0  0  0
   29.6060   33.5620   36.1030 H   0  0  0  0  0  0  0  0  0  0  0  0
   31.0280   32.4670   36.5200 H   0  0  0  0  0  0  0  0  0  0  0  0
   31.4640   32.8050   34.0470 O   0  0  0  0  0  0  0  0  0  0  0  0
   32.1960   32.6350   34.6910 H   0  0  0  0  0  0  0  0  0  0  0  0
  1  6  1  0  0  0  0
  2  3  1  0  0  0  0
  2  1  2  0  0  0  0
  3  4  2  0  0  0  0
  4  5  1  0  0  0  0
  5  9  1  0  0  0  0
  6  5  2  0  0  0  0
  7  2  1  0  0  0  0
  8  3  1  0  0  0  0
  9 12  1  1  0  0  0
  9 11  1  0  0  0  0
  9 10  1  0  0  0  0
 10 14  1  0  0  0  0
 11 15  1  6  0  0  0
 11 10  1  0  0  0  0
 11 16  1  0  0  0  0
 13 10  1  0  0  0  0
 16 17  1  0  0  0  0
 17 18  2  0  0  0  0
 18 19  1  0  0  0  0
 20 18  1  0  0  0  0
 20 21  2  0  0  0  0
 22 20  1  0  0  0  0
 23 16  1  0  0  0  0
 23 22  1  0  0  0  0
 24 23  2  0  0  0  0
 25 22  1  0  0  0  0
 26  1  1  0  0  0  0
 26 27  2  0  0  0  0
 28 27  1  0  0  0  0
 28 30  1  0  0  0  0
 29 28  1  0  0  0  0
 31 36  1  6  0  0  0
 31 32  1  0  0  0  0
 31 35  1  0  0  0  0
 32 37  1  0  0  0  0
 32 33  1  0  0  0  0
 33 39  1  6  0  0  0
 33 34  1  0  0  0  0
 33 28  1  0  0  0  0
 35 40  1  0  0  0  0
 35 34  1  0  0  0  0
 35 41  1  0  0  0  0
 38 32  1  0  0  0  0
 42 31  1  0  0  0  0
 42 43  1  0  0  0  0
M  END
>  <minimizedAffinity>
-5.32832384

$$$$
