
 OpenBabel03252507463D

 38 40  0  0  0  0  0  0  0  0999 V2000
   47.1950   34.4310   40.8660 C   0  0  0  0  0  0  0  0  0  0  0  0
   47.3290   35.1970   40.0900 H   0  0  0  0  0  0  0  0  0  0  0  0
   46.5990   33.6120   40.4350 H   0  0  0  0  0  0  0  0  0  0  0  0
   48.5230   33.9770   41.3190 C   0  0  0  0  0  0  0  0  0  0  0  0
   48.9750   32.7740   40.8040 C   0  0  0  0  0  0  0  0  0  0  0  0
   50.2070   32.2500   41.1590 C   0  0  0  0  0  0  0  0  0  0  0  0
   50.9530   32.9920   42.0490 N   0  0  0  0  0  0  0  0  0  0  0  0
   50.4770   34.1570   42.5260 C   0  0  0  0  0  0  0  0  0  0  0  0
   49.2910   34.6380   42.1700 N   0  0  0  0  0  0  0  0  0  0  0  0
   50.5770   31.3230   40.7750 H   0  0  0  0  0  0  0  0  0  0  0  0
   51.0380   34.7680   43.2310 H   0  0  0  0  0  0  0  0  0  0  0  0
   47.9570   31.8320   39.6340 S   0  0  0  0  0  0  0  0  0  0  0  0
   50.9720   28.9710   37.0720 H   0  0  0  0  0  0  0  0  0  0  0  0
   50.5310   29.9170   37.1450 N   0  0  0  0  0  0  0  0  0  0  0  0
   49.7130   30.0960   38.1800 C   0  0  0  0  0  3  0  0  0  0  0  0
   49.1000   31.3110   38.3410 C   0  0  0  0  0  0  0  0  0  0  0  0
   49.3350   32.3340   37.4290 C   0  0  0  0  0  0  0  0  0  0  0  0
   48.8310   33.5060   37.4620 O   0  0  0  0  0  0  0  0  0  0  0  0
   50.1750   32.1210   36.3830 N   0  0  0  0  0  0  0  0  0  0  0  0
   50.7670   30.9110   36.2510 C   0  0  0  0  0  0  0  0  0  0  0  0
   51.5510   30.6530   35.3080 O   0  0  0  0  0  0  0  0  0  0  0  0
   50.3770   32.8700   35.6760 H   0  0  0  0  0  0  0  0  0  0  0  0
   46.3630   35.0180   41.9780 C   0  0  0  0  0  0  0  0  0  0  0  0
   46.6750   34.5810   42.9460 H   0  0  0  0  0  0  0  0  0  0  0  0
   46.6060   36.1110   42.0430 H   0  0  0  0  0  0  0  0  0  0  0  0
   44.9020   34.9540   41.7330 C   0  0  0  0  0  0  0  0  0  0  0  0
   43.9990   35.4530   42.7260 C   0  0  0  0  0  0  0  0  0  0  0  0
   42.3540   35.1580   41.9740 S   0  0  0  0  0  0  0  0  0  0  0  0
   43.1650   34.4040   40.4300 C   0  0  0  0  0  0  0  0  0  0  0  0
   44.2730   34.4880   40.6910 N   0  0  0  0  0  0  0  0  0  0  0  0
   44.2510   35.8920   43.6790 H   0  0  0  0  0  0  0  0  0  0  0  0
   42.4350   33.9230   39.3530 O   0  0  0  0  0  0  0  0  0  0  0  0
   40.4680   34.3420   37.6280 O   0  0  0  0  0  0  0  0  0  0  0  0
   41.5410   35.0580   38.4450 P   0  0  0  0  0  0  0  0  0  0  0  0
   40.7880   36.1070   39.5340 O   0  0  0  0  0  0  0  0  0  0  0  0
   40.2950   36.7990   39.0230 H   0  0  0  0  0  0  0  0  0  0  0  0
   42.5770   35.9350   37.4370 O   0  0  0  0  0  0  0  0  0  0  0  0
   42.6670   35.5100   36.5640 H   0  0  0  0  0  0  0  0  0  0  0  0
  1  4  1  0  0  0  0
  1 23  1  0  0  0  0
  2  1  1  0  0  0  0
  3  1  1  0  0  0  0
  4  9  1  0  0  0  0
  5  6  1  0  0  0  0
  5  4  2  0  0  0  0
  6  7  2  0  0  0  0
  7  8  1  0  0  0  0
  8 11  1  0  0  0  0
  9  8  2  0  0  0  0
 10  6  1  0  0  0  0
 12  5  1  0  0  0  0
 13 14  1  0  0  0  0
 14 15  1  0  0  0  0
 15 16  2  0  0  0  0
 16 12  1  0  0  0  0
 17 18  2  0  0  0  0
 17 16  1  0  0  0  0
 19 17  1  0  0  0  0
 20 19  1  0  0  0  0
 20 14  1  0  0  0  0
 21 20  2  0  0  0  0
 22 19  1  0  0  0  0
 23 25  1  0  0  0  0
 23 24  1  0  0  0  0
 26 23  1  0  0  0  0
 26 27  2  0  0  0  0
 27 31  1  0  0  0  0
 28 27  1  0  0  0  0
 29 30  2  0  0  0  0
 29 28  1  0  0  0  0
 30 26  1  0  0  0  0
 32 29  1  0  0  0  0
 33 34  2  0  0  0  0
 34 32  1  0  0  0  0
 34 35  1  0  0  0  0
 36 35  1  0  0  0  0
 37 34  1  0  0  0  0
 38 37  1  0  0  0  0
M  END
>  <minimizedAffinity>
-5.23343468

>  <minimizedRMSD>
1.41910613

$$$$
