
 OpenBabel03252507463D

 38 40  0  0  0  0  0  0  0  0999 V2000
   47.4150   34.6010   40.9240 C   0  0  0  0  0  0  0  0  0  0  0  0
   47.6540   35.5000   40.3410 H   0  0  0  0  0  0  0  0  0  0  0  0
   46.7910   33.9450   40.2980 H   0  0  0  0  0  0  0  0  0  0  0  0
   48.6760   33.9500   41.3290 C   0  0  0  0  0  0  0  0  0  0  0  0
   48.8810   32.6600   40.8730 C   0  0  0  0  0  0  0  0  0  0  0  0
   50.0290   31.9520   41.1910 C   0  0  0  0  0  0  0  0  0  0  0  0
   50.9490   32.6040   41.9820 N   0  0  0  0  0  0  0  0  0  0  0  0
   50.7110   33.8590   42.4040 C   0  0  0  0  0  0  0  0  0  0  0  0
   49.6010   34.5160   42.0860 N   0  0  0  0  0  0  0  0  0  0  0  0
   50.2090   30.9540   40.8500 H   0  0  0  0  0  0  0  0  0  0  0  0
   51.4150   34.4030   43.0320 H   0  0  0  0  0  0  0  0  0  0  0  0
   47.6390   31.8420   39.8310 S   0  0  0  0  0  0  0  0  0  0  0  0
   50.4920   32.0080   35.8730 H   0  0  0  0  0  0  0  0  0  0  0  0
   49.5520   32.2360   36.2710 N   0  0  0  0  0  0  0  0  0  0  0  0
   49.3690   31.9060   37.5480 C   0  0  0  0  0  3  0  0  0  0  0  0
   48.1630   32.1750   38.1390 C   0  0  0  0  0  0  0  0  0  0  0  0
   47.1510   32.7840   37.4060 C   0  0  0  0  0  0  0  0  0  0  0  0
   45.9870   33.0870   37.8310 O   0  0  0  0  0  0  0  0  0  0  0  0
   47.3670   33.1090   36.1040 N   0  0  0  0  0  0  0  0  0  0  0  0
   48.5700   32.8310   35.5490 C   0  0  0  0  0  0  0  0  0  0  0  0
   48.8300   33.1060   34.3550 O   0  0  0  0  0  0  0  0  0  0  0  0
   46.6280   33.5690   35.5200 H   0  0  0  0  0  0  0  0  0  0  0  0
   46.5590   35.0060   42.0970 C   0  0  0  0  0  0  0  0  0  0  0  0
   46.8680   34.4380   42.9970 H   0  0  0  0  0  0  0  0  0  0  0  0
   46.7800   36.0810   42.3250 H   0  0  0  0  0  0  0  0  0  0  0  0
   45.1020   34.9530   41.8240 C   0  0  0  0  0  0  0  0  0  0  0  0
   44.1880   35.5170   42.7700 C   0  0  0  0  0  0  0  0  0  0  0  0
   42.5540   35.2110   41.9990 S   0  0  0  0  0  0  0  0  0  0  0  0
   43.3840   34.3650   40.5130 C   0  0  0  0  0  0  0  0  0  0  0  0
   44.4880   34.4440   40.7940 N   0  0  0  0  0  0  0  0  0  0  0  0
   44.4280   36.0010   43.7050 H   0  0  0  0  0  0  0  0  0  0  0  0
   42.6690   33.8410   39.4460 O   0  0  0  0  0  0  0  0  0  0  0  0
   40.6730   34.1650   37.7340 O   0  0  0  0  0  0  0  0  0  0  0  0
   41.7340   34.9290   38.5220 P   0  0  0  0  0  0  0  0  0  0  0  0
   40.9640   35.9830   39.5940 O   0  0  0  0  0  0  0  0  0  0  0  0
   40.4470   36.6490   39.0730 H   0  0  0  0  0  0  0  0  0  0  0  0
   42.7350   35.8100   37.4820 O   0  0  0  0  0  0  0  0  0  0  0  0
   42.8280   35.3660   36.6180 H   0  0  0  0  0  0  0  0  0  0  0  0
  1  4  1  0  0  0  0
  1 23  1  0  0  0  0
  2  1  1  0  0  0  0
  3  1  1  0  0  0  0
  4  9  1  0  0  0  0
  5  6  1  0  0  0  0
  5  4  2  0  0  0  0
  6  7  2  0  0  0  0
  7  8  1  0  0  0  0
  8 11  1  0  0  0  0
  9  8  2  0  0  0  0
 10  6  1  0  0  0  0
 12  5  1  0  0  0  0
 13 14  1  0  0  0  0
 14 15  1  0  0  0  0
 15 16  2  0  0  0  0
 16 12  1  0  0  0  0
 17 18  2  0  0  0  0
 17 16  1  0  0  0  0
 19 17  1  0  0  0  0
 20 19  1  0  0  0  0
 20 14  1  0  0  0  0
 21 20  2  0  0  0  0
 22 19  1  0  0  0  0
 23 25  1  0  0  0  0
 23 24  1  0  0  0  0
 26 23  1  0  0  0  0
 26 27  2  0  0  0  0
 27 31  1  0  0  0  0
 28 27  1  0  0  0  0
 29 30  2  0  0  0  0
 29 28  1  0  0  0  0
 30 26  1  0  0  0  0
 32 29  1  0  0  0  0
 33 34  2  0  0  0  0
 34 32  1  0  0  0  0
 34 35  1  0  0  0  0
 36 35  1  0  0  0  0
 37 34  1  0  0  0  0
 38 37  1  0  0  0  0
M  END
>  <minimizedAffinity>
-5.62464523

>  <minimizedRMSD>
0.329764277

$$$$
