
 OpenBabel03242522203D

 46 49  0  0  0  0  0  0  0  0999 V2000
   44.3440   34.2500   40.3340 C   0  0  0  0  0  0  0  0  0  0  0  0
   44.9890   33.3410   40.4170 H   0  0  0  0  0  0  0  0  0  0  0  0
   44.8520   34.8940   39.5780 H   0  0  0  0  0  0  0  0  0  0  0  0
   43.0350   33.8680   39.8700 C   0  0  0  0  0  0  0  0  0  0  0  0
   42.6330   33.4590   38.6150 C   0  0  0  0  0  0  0  0  0  0  0  0
   41.3570   33.1070   38.2300 C   0  0  0  0  0  0  0  0  0  0  0  0
   40.4180   33.1850   39.2270 C   0  0  0  0  0  0  0  0  0  0  0  0
   40.8050   33.5920   40.4850 C   0  0  0  0  0  0  0  0  0  0  0  0
   42.0570   33.9230   40.8110 N   0  0  0  0  0  0  0  0  0  0  0  0
   43.4410   33.4250   37.8800 H   0  0  0  0  0  0  0  0  0  0  0  0
   41.1370   32.8010   37.2250 H   0  0  0  0  0  0  0  0  0  0  0  0
   39.7020   33.6370   41.4810 C   0  0  0  0  0  0  0  0  0  0  0  0
   38.4830   33.8630   40.8220 F   0  0  0  0  0  0  0  0  0  0  0  0
   39.9310   34.5050   42.5110 F   0  0  0  0  0  0  0  0  0  0  0  0
   39.5560   32.3800   42.0580 F   0  0  0  0  0  0  0  0  0  0  0  0
   38.7210   32.7530   38.8160 S   0  0  0  0  0  0  0  0  0  0  0  0
   37.4620   28.5580   40.9740 H   0  0  0  0  0  0  0  0  0  0  0  0
   37.7900   29.0150   40.0850 N   0  0  0  0  0  0  0  0  0  0  0  0
   37.9720   30.3450   40.1430 C   0  0  0  0  0  0  0  0  0  0  0  0
   38.4020   31.0230   39.0220 C   0  0  0  0  0  0  0  0  0  0  0  0
   38.6290   30.2780   37.8640 C   0  0  0  0  0  0  0  0  0  0  0  0
   39.0270   30.7580   36.7490 O   0  0  0  0  0  0  0  0  0  0  0  0
   38.4350   28.9430   37.8430 N   0  0  0  0  0  0  0  0  0  0  0  0
   38.0170   28.3250   38.9590 C   0  0  0  0  0  0  0  0  0  0  0  0
   37.8410   27.0760   38.9190 O   0  0  0  0  0  0  0  0  0  0  0  0
   38.6000   28.3560   36.9820 H   0  0  0  0  0  0  0  0  0  0  0  0
   44.3950   34.9690   41.6460 C   0  0  0  0  0  0  0  0  0  0  0  0
   43.4320   34.8190   42.1850 H   0  0  0  0  0  0  0  0  0  0  0  0
   44.5370   36.0470   41.5090 H   0  0  0  0  0  0  0  0  0  0  0  0
   47.3870   33.4580   43.2350 C   0  0  0  0  0  0  0  0  0  0  0  0
   46.9710   33.4650   44.5240 C   0  0  0  0  0  0  0  0  0  0  0  0
   45.2960   34.2100   44.3660 S   0  0  0  0  0  0  0  0  0  0  0  0
   45.4560   34.3900   42.5270 C   0  0  0  0  0  0  0  0  0  0  0  0
   46.5070   33.9500   42.4200 N   0  0  0  0  0  0  0  0  0  0  0  0
   47.4590   33.1320   45.4200 H   0  0  0  0  0  0  0  0  0  0  0  0
   51.0160   33.1840   42.2580 C   0  0  0  0  0  0  0  0  0  0  0  0
   49.8020   33.7450   42.6830 C   0  0  0  0  0  0  0  0  0  0  0  0
   48.6970   32.9520   42.7970 C   0  0  0  0  0  0  0  0  0  0  0  0
   48.8570   31.6010   42.4720 N   0  0  0  0  0  0  0  0  0  0  0  0
   50.0450   31.1190   42.0690 C   0  0  0  0  0  0  0  0  0  0  0  0
   51.1240   31.9040   41.9610 N   0  0  0  0  0  0  0  0  0  0  0  0
   51.9160   33.7790   42.1550 H   0  0  0  0  0  0  0  0  0  0  0  0
   50.0720   30.0590   41.8390 H   0  0  0  0  0  0  0  0  0  0  0  0
   49.7990   35.1380   42.9780 N   0  0  0  0  0  0  0  0  0  0  0  0
   50.1070   35.3480   43.9410 H   0  0  0  0  0  0  0  0  0  0  0  0
   49.5210   35.9050   42.3160 H   0  0  0  0  0  0  0  0  0  0  0  0
  1  2  1  0  0  0  0
  1 27  1  0  0  0  0
  3  1  1  0  0  0  0
  4  1  1  0  0  0  0
  4  9  1  0  0  0  0
  5  4  2  0  0  0  0
  6  5  1  0  0  0  0
  6  7  2  0  0  0  0
  7  8  1  0  0  0  0
  8  9  2  0  0  0  0
  8 12  1  0  0  0  0
 10  5  1  0  0  0  0
 11  6  1  0  0  0  0
 12 15  1  0  0  0  0
 12 14  1  0  0  0  0
 13 12  1  0  0  0  0
 16 20  1  0  0  0  0
 16  7  1  0  0  0  0
 18 19  1  0  0  0  0
 18 17  1  0  0  0  0
 20 19  2  0  0  0  0
 21 20  1  0  0  0  0
 22 21  2  0  0  0  0
 23 21  1  0  0  0  0
 23 24  1  0  0  0  0
 24 18  1  0  0  0  0
 25 24  2  0  0  0  0
 26 23  1  0  0  0  0
 27 28  1  0  0  0  0
 27 33  1  0  0  0  0
 29 27  1  0  0  0  0
 30 31  2  0  0  0  0
 31 35  1  0  0  0  0
 32 31  1  0  0  0  0
 33 32  1  0  0  0  0
 34 33  2  0  0  0  0
 34 30  1  0  0  0  0
 36 37  1  0  0  0  0
 37 38  2  0  0  0  0
 37 44  1  0  0  0  0
 38 30  1  0  0  0  0
 39 38  1  0  0  0  0
 40 39  2  0  0  0  0
 41 40  1  0  0  0  0
 41 36  2  0  0  0  0
 42 36  1  0  0  0  0
 43 40  1  0  0  0  0
 44 45  1  0  0  0  0
 46 44  1  0  0  0  0
M  END
>  <minimizedAffinity>
-6.26164865

>  <minimizedRMSD>
2.07859206

$$$$
