
 OpenBabel03252502593D

 23 24  0  0  0  0  0  0  0  0999 V2000
   43.7170   34.2460   40.0480 C   0  0  0  0  0  0  0  0  0  0  0  0
   44.1100   34.8890   39.2240 H   0  0  0  0  0  0  0  0  0  0  0  0
   44.0620   33.1990   39.8950 H   0  0  0  0  0  0  0  0  0  0  0  0
   42.2490   34.3240   40.0980 N   0  0  0  0  0  0  0  0  0  0  0  0
   41.6850   35.0480   41.0720 C   0  0  0  0  0  3  0  0  0  0  0  0
   40.2930   35.0630   41.0390 C   0  0  0  0  0  0  0  0  0  0  0  0
   39.7360   35.6310   41.8000 H   0  0  0  0  0  0  0  0  0  0  0  0
   39.5830   34.3670   40.0550 C   0  0  0  0  0  0  0  0  0  0  0  0
   38.3300   34.3660   40.0030 O   0  0  0  0  0  0  0  0  0  0  0  0
   40.2560   33.6680   39.1170 N   0  0  0  0  0  0  0  0  0  0  0  0
   41.5980   33.6380   39.1280 C   0  0  0  0  0  0  0  0  0  0  0  0
   42.2380   32.9850   38.2540 O   0  0  0  0  0  0  0  0  0  0  0  0
   39.7470   33.1380   38.3660 H   0  0  0  0  0  0  0  0  0  0  0  0
   44.2840   34.9120   41.6310 S   0  0  0  0  0  0  0  0  0  0  0  0
   46.5970   34.5420   43.1310 C   0  0  0  0  0  0  0  0  0  0  0  0
   46.0280   34.5610   41.8430 C   0  0  0  0  0  0  0  0  0  0  0  0
   46.8220   34.3070   40.7380 C   0  0  0  0  0  0  0  0  0  0  0  0
   48.1450   34.0460   40.9550 N   0  0  0  0  0  0  0  0  0  0  0  0
   48.6530   34.0350   42.1960 C   0  0  0  0  0  0  0  0  0  0  0  0
   47.9220   34.2740   43.2770 N   0  0  0  0  0  0  0  0  0  0  0  0
   45.9280   34.7470   43.9490 H   0  0  0  0  0  0  0  0  0  0  0  0
   46.4250   34.3100   39.7140 H   0  0  0  0  0  0  0  0  0  0  0  0
   49.6940   33.8340   42.4310 H   0  0  0  0  0  0  0  0  0  0  0  0
  1  4  1  0  0  0  0
  1 14  1  0  0  0  0
  2  1  1  0  0  0  0
  3  1  1  0  0  0  0
  4  5  1  0  0  0  0
  6  5  2  0  0  0  0
  6  7  1  0  0  0  0
  8  6  1  0  0  0  0
  9  8  2  0  0  0  0
 10 11  1  0  0  0  0
 10  8  1  0  0  0  0
 11  4  1  0  0  0  0
 12 11  2  0  0  0  0
 13 10  1  0  0  0  0
 14 16  1  0  0  0  0
 15 20  1  0  0  0  0
 15 21  1  0  0  0  0
 16 15  2  0  0  0  0
 17 18  2  0  0  0  0
 17 16  1  0  0  0  0
 18 19  1  0  0  0  0
 19 23  1  0  0  0  0
 19 20  2  0  0  0  0
 22 17  1  0  0  0  0
M  END
>  <minimizedAffinity>
-3.94498968

>  <minimizedRMSD>
3.34298301

$$$$
