
 OpenBabel03242511363D

 43 46  0  0  1  0  0  0  0  0999 V2000
   49.4120   31.8770   41.7210 C   0  0  0  0  0  0  0  0  0  0  0  0
   50.7820   32.0080   42.0650 C   0  0  0  0  0  0  0  0  0  0  0  0
   51.7770   31.8710   41.0840 C   0  0  0  0  0  0  0  0  0  0  0  0
   51.3330   31.6130   39.8320 N   0  0  0  0  0  0  0  0  0  0  0  0
   50.0200   31.4920   39.5270 C   0  0  0  0  0  0  0  0  0  0  0  0
   49.0780   31.6200   40.4480 N   0  0  0  0  0  0  0  0  0  0  0  0
   51.1420   32.2130   43.0600 H   0  0  0  0  0  0  0  0  0  0  0  0
   52.8090   31.9660   41.3240 H   0  0  0  0  0  0  0  0  0  0  0  0
   49.5870   31.2190   38.1120 C   0  0  2  0  0  0  0  0  0  0  0  0
   50.4880   31.3770   36.9780 C   0  0  0  0  0  0  0  0  0  0  0  0
   49.4280   32.4110   37.1650 C   0  0  1  0  0  0  0  0  0  0  0  0
   48.7840   30.4550   38.0740 H   0  0  0  0  0  0  0  0  0  0  0  0
   51.5210   31.7460   37.2450 H   0  0  0  0  0  0  0  0  0  0  0  0
   50.5270   30.7080   36.1160 H   0  0  0  0  0  0  0  0  0  0  0  0
   49.6870   33.3890   37.5930 H   0  0  0  0  0  0  0  0  0  0  0  0
   48.2670   32.3080   36.3060 N   0  0  0  0  0  0  0  0  0  0  0  0
   48.3550   31.5670   35.1900 C   0  0  0  0  0  0  0  0  0  0  0  0
   47.2020   31.5110   34.4130 C   0  0  0  0  0  0  0  0  0  0  0  0
   47.1220   30.9490   33.4800 H   0  0  0  0  0  0  0  0  0  0  0  0
   46.0520   32.1940   34.7970 C   0  0  0  0  0  0  0  0  0  0  0  0
   44.9900   32.1640   34.1140 O   0  0  0  0  0  0  0  0  0  0  0  0
   46.0290   32.9260   35.9360 N   0  0  0  0  0  0  0  0  0  0  0  0
   47.1510   32.9700   36.6790 C   0  0  0  0  0  0  0  0  0  0  0  0
   47.1600   33.6460   37.7470 O   0  0  0  0  0  0  0  0  0  0  0  0
   45.1680   33.4570   36.2550 H   0  0  0  0  0  0  0  0  0  0  0  0
   48.4370   32.0400   42.7930 C   0  0  0  0  0  0  0  0  0  0  0  0
   48.0910   33.2740   43.1350 C   0  0  0  0  0  0  0  0  0  0  0  0
   47.1160   33.5620   44.2020 C   0  0  0  0  0  0  0  0  0  0  0  0
   46.8360   32.6000   44.6900 H   0  0  0  0  0  0  0  0  0  0  0  0
   47.4840   34.2920   44.9450 H   0  0  0  0  0  0  0  0  0  0  0  0
   44.8020   36.1930   43.3460 C   0  0  1  0  0  0  0  0  0  0  0  0
   46.0140   35.3810   42.8740 C   0  0  0  0  0  0  0  0  0  0  0  0
   45.8130   34.1280   43.6450 C   0  0  2  0  0  0  0  0  0  0  0  0
   44.8940   34.3550   44.6360 O   0  0  0  0  0  0  0  0  0  0  0  0
   44.6700   35.6950   44.7650 C   0  0  0  0  0  0  0  0  0  0  0  0
   43.9130   35.9630   42.7250 H   0  0  0  0  0  0  0  0  0  0  0  0
   46.9490   35.8940   43.1370 H   0  0  0  0  0  0  0  0  0  0  0  0
   45.9110   35.2260   41.7660 H   0  0  0  0  0  0  0  0  0  0  0  0
   45.4040   33.3630   42.9490 H   0  0  0  0  0  0  0  0  0  0  0  0
   43.6810   35.9150   45.1850 H   0  0  0  0  0  0  0  0  0  0  0  0
   45.5030   36.1450   45.3430 H   0  0  0  0  0  0  0  0  0  0  0  0
   45.0770   37.5460   43.2760 O   0  0  0  0  0  0  0  0  0  0  0  0
   45.8190   37.7430   43.9000 H   0  0  0  0  0  0  0  0  0  0  0  0
  1  2  1  0  0  0  0
  1 26  1  0  0  0  0
  2  7  1  0  0  0  0
  3  8  1  0  0  0  0
  3  2  2  0  0  0  0
  4  3  1  0  0  0  0
  5  4  2  0  0  0  0
  5  6  1  0  0  0  0
  6  1  2  0  0  0  0
  9 12  1  6  0  0  0
  9  5  1  0  0  0  0
 10 11  1  0  0  0  0
 10 13  1  0  0  0  0
 10  9  1  0  0  0  0
 11 15  1  1  0  0  0
 11  9  1  0  0  0  0
 14 10  1  0  0  0  0
 16 23  1  0  0  0  0
 16 11  1  0  0  0  0
 17 16  1  0  0  0  0
 18 20  1  0  0  0  0
 18 17  2  0  0  0  0
 19 18  1  0  0  0  0
 20 22  1  0  0  0  0
 21 20  2  0  0  0  0
 22 25  1  0  0  0  0
 22 23  1  0  0  0  0
 23 24  2  0  0  0  0
 26 27  2  0  0  0  0
 27 28  1  0  0  0  0
 28 29  1  0  0  0  0
 28 30  1  0  0  0  0
 31 36  1  6  0  0  0
 31 35  1  0  0  0  0
 32 37  1  0  0  0  0
 32 31  1  0  0  0  0
 32 33  1  0  0  0  0
 33 39  1  6  0  0  0
 33 28  1  0  0  0  0
 33 34  1  0  0  0  0
 34 35  1  0  0  0  0
 35 40  1  0  0  0  0
 35 41  1  0  0  0  0
 38 32  1  0  0  0  0
 42 31  1  0  0  0  0
 42 43  1  0  0  0  0
M  END
>  <minimizedAffinity>
-5.62794256

>  <minimizedRMSD>
0.709978342

$$$$
