
 OpenBabel03252506183D

 24 25  0  0  0  0  0  0  0  0999 V2000
   44.8230   35.7780   43.6630 C   0  0  0  0  0  0  0  0  0  0  0  0
   44.2690   35.6060   42.3810 C   0  0  0  0  0  0  0  0  0  0  0  0
   44.2050   34.3260   41.8480 C   0  0  0  0  0  0  0  0  0  0  0  0
   44.6810   33.3040   42.5950 N   0  0  0  0  0  0  0  0  0  0  0  0
   45.2080   33.4920   43.8250 C   0  0  0  0  0  0  0  0  0  0  0  0
   45.2760   34.7140   44.3490 N   0  0  0  0  0  0  0  0  0  0  0  0
   43.9240   36.4930   41.8840 H   0  0  0  0  0  0  0  0  0  0  0  0
   43.7800   34.1930   40.8610 H   0  0  0  0  0  0  0  0  0  0  0  0
   45.6620   32.3110   44.4730 N   0  0  0  0  0  0  0  0  0  0  0  0
   45.5730   31.0790   43.8970 C   0  0  0  0  0  3  0  0  0  0  0  0
   46.0220   29.9470   44.5500 C   0  0  0  0  0  0  0  0  0  0  0  0
   45.9280   28.9830   44.0440 H   0  0  0  0  0  0  0  0  0  0  0  0
   46.5710   30.0610   45.8110 C   0  0  0  0  0  0  0  0  0  0  0  0
   46.9680   29.0220   46.3800 O   0  0  0  0  0  0  0  0  0  0  0  0
   46.6380   31.3100   46.3470 N   0  0  0  0  0  0  0  0  0  0  0  0
   46.1980   32.4030   45.7000 C   0  0  0  0  0  0  0  0  0  0  0  0
   46.3310   33.4970   46.3340 O   0  0  0  0  0  0  0  0  0  0  0  0
   47.0740   31.2930   47.3160 H   0  0  0  0  0  0  0  0  0  0  0  0
   44.8980   37.1300   44.2430 C   0  0  0  0  0  3  0  0  0  0  0  0
   45.3440   38.0970   43.4510 C   0  0  0  0  0  3  0  0  0  0  0  0
   45.4460   39.4890   43.9780 C   0  0  0  0  0  0  0  0  0  0  0  0
   45.4120   40.1690   43.0810 H   0  0  0  0  0  0  0  0  0  0  0  0
   44.6680   39.7260   44.7160 H   0  0  0  0  0  0  0  0  0  0  0  0
   46.4320   39.6080   44.4680 H   0  0  0  0  0  0  0  0  0  0  0  0
  1 19  1  0  0  0  0
  1  6  1  0  0  0  0
  2  1  2  0  0  0  0
  3  2  1  0  0  0  0
  3  4  2  0  0  0  0
  4  5  1  0  0  0  0
  5  6  2  0  0  0  0
  5  9  1  0  0  0  0
  7  2  1  0  0  0  0
  8  3  1  0  0  0  0
  9 16  1  0  0  0  0
 10  9  1  0  0  0  0
 10 11  2  0  0  0  0
 11 13  1  0  0  0  0
 12 11  1  0  0  0  0
 13 15  1  0  0  0  0
 13 14  2  0  0  0  0
 15 18  1  0  0  0  0
 16 17  2  0  0  0  0
 16 15  1  0  0  0  0
 20 21  1  0  0  0  0
 20 19  2  0  0  0  0
 21 24  1  0  0  0  0
 21 23  1  0  0  0  0
 22 21  1  0  0  0  0
M  END
>  <minimizedAffinity>
-3.85275435

>  <minimizedRMSD>
0.518682241

$$$$
