
 OpenBabel03252504343D

 41 43  0  0  0  0  0  0  0  0999 V2000
   36.6640   25.2740   39.4140 C   0  0  0  0  0  0  0  0  0  0  0  0
   36.4370   25.1280   38.3210 H   0  0  0  0  0  0  0  0  0  0  0  0
   35.6740   25.2790   39.9140 H   0  0  0  0  0  0  0  0  0  0  0  0
   36.1020   27.6420   39.5530 C   0  0  0  0  0  0  0  0  0  0  0  0
   37.1400   26.6920   39.4820 C   0  0  0  0  0  0  0  0  0  0  0  0
   38.4190   27.1300   39.4950 C   0  0  0  0  0  0  0  0  0  0  0  0
   38.5990   28.4470   39.5780 N   0  0  0  0  0  0  0  0  0  0  0  0
   37.6360   29.3610   39.6460 C   0  0  0  0  0  0  0  0  0  0  0  0
   36.2970   28.9680   39.6350 N   0  0  0  0  0  0  0  0  0  0  0  0
   35.0570   27.3590   39.5460 H   0  0  0  0  0  0  0  0  0  0  0  0
   39.1740   26.3850   39.4390 H   0  0  0  0  0  0  0  0  0  0  0  0
   37.8690   30.7660   39.7330 N   0  0  0  0  0  0  0  0  0  0  0  0
   38.9400   31.3020   39.1070 C   0  0  0  0  0  3  0  0  0  0  0  0
   39.1160   32.6640   39.2260 C   0  0  0  0  0  0  0  0  0  0  0  0
   39.9490   33.1940   38.7590 H   0  0  0  0  0  0  0  0  0  0  0  0
   38.2360   33.4670   39.9560 C   0  0  0  0  0  0  0  0  0  0  0  0
   38.3630   34.7120   40.0880 O   0  0  0  0  0  0  0  0  0  0  0  0
   37.1790   32.8680   40.5620 N   0  0  0  0  0  0  0  0  0  0  0  0
   37.0040   31.5390   40.4490 C   0  0  0  0  0  0  0  0  0  0  0  0
   36.0330   30.9470   40.9980 O   0  0  0  0  0  0  0  0  0  0  0  0
   36.4690   33.3910   41.1290 H   0  0  0  0  0  0  0  0  0  0  0  0
   37.5120   24.3830   39.9920 O   0  0  0  0  0  0  0  0  0  0  0  0
   37.8230   24.2560   41.3340 C   0  0  0  0  0  3  0  0  0  0  0  0
   39.1070   24.3640   41.6590 C   0  0  0  0  0  3  0  0  0  0  0  0
   39.6800   24.2630   43.0600 C   0  0  0  0  0  0  0  0  0  0  0  0
   39.7740   23.2230   43.3940 H   0  0  0  0  0  0  0  0  0  0  0  0
   38.9000   24.7730   43.6970 H   0  0  0  0  0  0  0  0  0  0  0  0
   40.8460   25.0020   43.0830 O   0  0  0  0  0  0  0  0  0  0  0  0
   41.5770   27.1640   44.4570 O   0  0  0  0  0  0  0  0  0  0  0  0
   40.5390   26.6030   43.5120 P   0  0  1  0  0  0  0  0  0  0  0  0
   40.5480   27.5920   42.1220 O   0  0  0  0  0  0  0  0  0  0  0  0
   40.5710   27.0180   41.3130 H   0  0  0  0  0  0  0  0  0  0  0  0
   39.0030   26.7410   44.1940 O   0  0  0  0  0  0  0  0  0  0  0  0
   38.2310   27.6960   43.5690 C   0  0  0  0  0  0  0  0  0  0  0  0
   37.0330   28.2550   44.2660 C   0  0  0  0  0  0  0  0  0  0  0  0
   36.8590   27.2410   43.1510 C   0  0  0  0  0  0  0  0  0  0  0  0
   38.7800   28.3400   42.8560 H   0  0  0  0  0  0  0  0  0  0  0  0
   36.7610   29.2790   43.9720 H   0  0  0  0  0  0  0  0  0  0  0  0
   36.8660   27.9640   45.3010 H   0  0  0  0  0  0  0  0  0  0  0  0
   36.4610   26.2670   43.5210 H   0  0  0  0  0  0  0  0  0  0  0  0
   36.4250   27.5760   42.1890 H   0  0  0  0  0  0  0  0  0  0  0  0
  1  5  1  0  0  0  0
  1  3  1  0  0  0  0
  1 22  1  0  0  0  0
  2  1  1  0  0  0  0
  4  9  1  0  0  0  0
  5  6  1  0  0  0  0
  5  4  2  0  0  0  0
  6  7  2  0  0  0  0
  7  8  1  0  0  0  0
  8 12  1  0  0  0  0
  9  8  2  0  0  0  0
 10  4  1  0  0  0  0
 11  6  1  0  0  0  0
 12 19  1  0  0  0  0
 13 14  2  0  0  0  0
 13 12  1  0  0  0  0
 14 16  1  0  0  0  0
 15 14  1  0  0  0  0
 16 17  2  0  0  0  0
 16 18  1  0  0  0  0
 18 21  1  0  0  0  0
 19 18  1  0  0  0  0
 19 20  2  0  0  0  0
 22 23  1  0  0  0  0
 23 24  2  0  0  0  0
 24 25  1  0  0  0  0
 25 28  1  0  0  0  0
 25 26  1  0  0  0  0
 25 27  1  0  0  0  0
 28 30  1  0  0  0  0
 30 33  1  0  0  0  0
 30 29  2  1  0  0  0
 31 30  1  0  0  0  0
 32 31  1  0  0  0  0
 34 33  1  0  0  0  0
 34 35  1  0  0  0  0
 35 39  1  0  0  0  0
 36 40  1  0  0  0  0
 36 34  1  0  0  0  0
 36 35  1  0  0  0  0
 37 34  1  0  0  0  0
 38 35  1  0  0  0  0
 41 36  1  0  0  0  0
M  END
>  <minimizedAffinity>
-5.78308487

$$$$

 OpenBabel03252504343D

 41 43  0  0  0  0  0  0  0  0999 V2000
   38.6440   34.6560   40.1350 C   0  0  0  0  0  0  0  0  0  0  0  0
   37.8770   35.2260   40.7310 H   0  0  0  0  0  0  0  0  0  0  0  0
   38.4120   34.8830   39.0750 H   0  0  0  0  0  0  0  0  0  0  0  0
   39.1050   32.4890   41.1510 C   0  0  0  0  0  0  0  0  0  0  0  0
   38.2360   33.2280   40.3240 C   0  0  0  0  0  0  0  0  0  0  0  0
   37.1500   32.6090   39.8100 C   0  0  0  0  0  0  0  0  0  0  0  0
   36.9840   31.3270   40.1330 N   0  0  0  0  0  0  0  0  0  0  0  0
   37.7890   30.6100   40.9110 C   0  0  0  0  0  0  0  0  0  0  0  0
   38.9270   31.1960   41.4680 N   0  0  0  0  0  0  0  0  0  0  0  0
   39.9920   32.9240   41.5930 H   0  0  0  0  0  0  0  0  0  0  0  0
   36.5190   33.1970   39.1910 H   0  0  0  0  0  0  0  0  0  0  0  0
   37.5780   29.2370   41.2340 N   0  0  0  0  0  0  0  0  0  0  0  0
   37.0060   28.4200   40.3230 C   0  0  0  0  0  3  0  0  0  0  0  0
   36.8250   27.1040   40.6890 C   0  0  0  0  0  0  0  0  0  0  0  0
   36.3730   26.3630   40.0260 H   0  0  0  0  0  0  0  0  0  0  0  0
   37.2110   26.6210   41.9430 C   0  0  0  0  0  0  0  0  0  0  0  0
   37.0630   25.4280   42.3140 O   0  0  0  0  0  0  0  0  0  0  0  0
   37.7800   27.4920   42.8140 N   0  0  0  0  0  0  0  0  0  0  0  0
   37.9580   28.7770   42.4600 C   0  0  0  0  0  0  0  0  0  0  0  0
   38.4840   29.6170   43.2440 O   0  0  0  0  0  0  0  0  0  0  0  0
   38.1000   27.2180   43.7750 H   0  0  0  0  0  0  0  0  0  0  0  0
   39.9510   34.8970   40.4230 O   0  0  0  0  0  0  0  0  0  0  0  0
   40.9470   35.3100   39.5570 C   0  0  0  0  0  3  0  0  0  0  0  0
   41.5670   34.3580   38.8670 C   0  0  0  0  0  3  0  0  0  0  0  0
   42.6830   34.5730   37.8620 C   0  0  0  0  0  0  0  0  0  0  0  0
   43.2400   35.4970   38.0550 H   0  0  0  0  0  0  0  0  0  0  0  0
   42.1330   34.6880   36.8830 H   0  0  0  0  0  0  0  0  0  0  0  0
   43.4390   33.4180   37.8310 O   0  0  0  0  0  0  0  0  0  0  0  0
   45.9450   32.6420   38.2900 O   0  0  0  0  0  0  0  0  0  0  0  0
   44.8600   33.6030   38.7190 P   0  0  1  0  0  0  0  0  0  0  0  0
   45.4800   35.1780   38.5070 O   0  0  0  0  0  0  0  0  0  0  0  0
   44.8070   35.7340   38.0350 H   0  0  0  0  0  0  0  0  0  0  0  0
   44.5470   33.4240   40.3660 O   0  0  0  0  0  0  0  0  0  0  0  0
   44.7870   34.5790   41.0780 C   0  0  0  0  0  0  0  0  0  0  0  0
   45.0010   34.5090   42.5560 C   0  0  0  0  0  0  0  0  0  0  0  0
   43.6790   35.0060   42.0020 C   0  0  0  0  0  0  0  0  0  0  0  0
   45.2910   35.3800   40.5050 H   0  0  0  0  0  0  0  0  0  0  0  0
   45.6290   35.3100   42.9710 H   0  0  0  0  0  0  0  0  0  0  0  0
   45.0670   33.5250   43.0130 H   0  0  0  0  0  0  0  0  0  0  0  0
   42.8370   34.3060   42.2200 H   0  0  0  0  0  0  0  0  0  0  0  0
   43.4220   36.0770   42.1150 H   0  0  0  0  0  0  0  0  0  0  0  0
  1  5  1  0  0  0  0
  1 22  1  0  0  0  0
  1  2  1  0  0  0  0
  3  1  1  0  0  0  0
  4  9  1  0  0  0  0
  4 10  1  0  0  0  0
  5  4  2  0  0  0  0
  6  7  2  0  0  0  0
  6  5  1  0  0  0  0
  7  8  1  0  0  0  0
  8 12  1  0  0  0  0
  8  9  2  0  0  0  0
 11  6  1  0  0  0  0
 12 19  1  0  0  0  0
 13 14  2  0  0  0  0
 13 12  1  0  0  0  0
 14 16  1  0  0  0  0
 15 14  1  0  0  0  0
 16 17  2  0  0  0  0
 16 18  1  0  0  0  0
 18 21  1  0  0  0  0
 19 18  1  0  0  0  0
 19 20  2  0  0  0  0
 23 22  1  0  0  0  0
 24 23  2  0  0  0  0
 25 26  1  0  0  0  0
 25 24  1  0  0  0  0
 27 25  1  0  0  0  0
 28 25  1  0  0  0  0
 28 30  1  0  0  0  0
 30 29  2  6  0  0  0
 30 33  1  0  0  0  0
 31 30  1  0  0  0  0
 32 31  1  0  0  0  0
 33 34  1  0  0  0  0
 34 36  1  0  0  0  0
 34 35  1  0  0  0  0
 35 38  1  0  0  0  0
 35 39  1  0  0  0  0
 36 41  1  0  0  0  0
 36 40  1  0  0  0  0
 36 35  1  0  0  0  0
 37 34  1  0  0  0  0
M  END
>  <minimizedAffinity>
-5.68656778

$$$$

 OpenBabel03252504343D

 41 43  0  0  0  0  0  0  0  0999 V2000
   37.7190   33.7180   39.6970 C   0  0  0  0  0  0  0  0  0  0  0  0
   36.6710   34.1160   39.5930 H   0  0  0  0  0  0  0  0  0  0  0  0
   38.1600   33.8030   38.6840 H   0  0  0  0  0  0  0  0  0  0  0  0
   38.1510   31.7430   41.0580 C   0  0  0  0  0  0  0  0  0  0  0  0
   37.5130   32.2510   39.9100 C   0  0  0  0  0  0  0  0  0  0  0  0
   36.7890   31.4040   39.1440 C   0  0  0  0  0  0  0  0  0  0  0  0
   36.7350   30.1340   39.5450 N   0  0  0  0  0  0  0  0  0  0  0  0
   37.3290   29.6330   40.6230 C   0  0  0  0  0  0  0  0  0  0  0  0
   38.0900   30.4600   41.4500 N   0  0  0  0  0  0  0  0  0  0  0  0
   38.7460   32.3660   41.7130 H   0  0  0  0  0  0  0  0  0  0  0  0
   36.3220   31.8220   38.2860 H   0  0  0  0  0  0  0  0  0  0  0  0
   37.2480   28.2650   41.0200 N   0  0  0  0  0  0  0  0  0  0  0  0
   37.1690   27.3030   40.0740 C   0  0  0  0  0  3  0  0  0  0  0  0
   37.0930   25.9990   40.5150 C   0  0  0  0  0  0  0  0  0  0  0  0
   37.0260   25.1480   39.8320 H   0  0  0  0  0  0  0  0  0  0  0  0
   37.0960   25.6710   41.8730 C   0  0  0  0  0  0  0  0  0  0  0  0
   37.0280   24.4940   42.3140 O   0  0  0  0  0  0  0  0  0  0  0  0
   37.1760   26.6830   42.7730 N   0  0  0  0  0  0  0  0  0  0  0  0
   37.2510   27.9570   42.3470 C   0  0  0  0  0  0  0  0  0  0  0  0
   37.3280   28.9250   43.1560 O   0  0  0  0  0  0  0  0  0  0  0  0
   37.1850   26.5310   43.8110 H   0  0  0  0  0  0  0  0  0  0  0  0
   38.5090   34.3030   40.6360 O   0  0  0  0  0  0  0  0  0  0  0  0
   39.7880   34.8060   40.4740 C   0  0  0  0  0  3  0  0  0  0  0  0
   40.6110   34.1010   39.7040 C   0  0  0  0  0  3  0  0  0  0  0  0
   42.0490   34.4570   39.3820 C   0  0  0  0  0  0  0  0  0  0  0  0
   42.5030   35.0830   40.1600 H   0  0  0  0  0  0  0  0  0  0  0  0
   41.9610   35.0700   38.4390 H   0  0  0  0  0  0  0  0  0  0  0  0
   42.7140   33.2800   39.1040 O   0  0  0  0  0  0  0  0  0  0  0  0
   41.6140   32.1580   36.9540 O   0  0  0  0  0  0  0  0  0  0  0  0
   42.7730   32.9960   37.4440 P   0  0  1  0  0  0  0  0  0  0  0  0
   42.7090   34.4760   36.5960 O   0  0  0  0  0  0  0  0  0  0  0  0
   42.8120   35.2250   37.2390 H   0  0  0  0  0  0  0  0  0  0  0  0
   44.2330   32.2630   37.0270 O   0  0  0  0  0  0  0  0  0  0  0  0
   44.0710   30.9600   36.6100 C   0  0  0  0  0  0  0  0  0  0  0  0
   44.2490   29.8410   37.5850 C   0  0  0  0  0  0  0  0  0  0  0  0
   45.3300   30.1390   36.5630 C   0  0  0  0  0  0  0  0  0  0  0  0
   43.3590   30.8270   35.7730 H   0  0  0  0  0  0  0  0  0  0  0  0
   43.6720   28.9330   37.3590 H   0  0  0  0  0  0  0  0  0  0  0  0
   44.3990   30.0990   38.6310 H   0  0  0  0  0  0  0  0  0  0  0  0
   46.2640   30.5270   37.0340 H   0  0  0  0  0  0  0  0  0  0  0  0
   45.4990   29.4160   35.7410 H   0  0  0  0  0  0  0  0  0  0  0  0
  1  5  1  0  0  0  0
  1 22  1  0  0  0  0
  2  1  1  0  0  0  0
  3  1  1  0  0  0  0
  4  9  1  0  0  0  0
  4 10  1  0  0  0  0
  5  4  2  0  0  0  0
  6  7  2  0  0  0  0
  6  5  1  0  0  0  0
  7  8  1  0  0  0  0
  8 12  1  0  0  0  0
  8  9  2  0  0  0  0
 11  6  1  0  0  0  0
 12 19  1  0  0  0  0
 13 14  2  0  0  0  0
 13 12  1  0  0  0  0
 14 16  1  0  0  0  0
 15 14  1  0  0  0  0
 16 17  2  0  0  0  0
 16 18  1  0  0  0  0
 18 21  1  0  0  0  0
 19 18  1  0  0  0  0
 19 20  2  0  0  0  0
 23 22  1  0  0  0  0
 24 23  2  0  0  0  0
 25 24  1  0  0  0  0
 25 26  1  0  0  0  0
 27 25  1  0  0  0  0
 28 25  1  0  0  0  0
 30 29  2  6  0  0  0
 30 28  1  0  0  0  0
 31 32  1  0  0  0  0
 31 30  1  0  0  0  0
 33 30  1  0  0  0  0
 34 33  1  0  0  0  0
 34 35  1  0  0  0  0
 35 39  1  0  0  0  0
 36 34  1  0  0  0  0
 36 40  1  0  0  0  0
 36 35  1  0  0  0  0
 37 34  1  0  0  0  0
 38 35  1  0  0  0  0
 41 36  1  0  0  0  0
M  END
>  <minimizedAffinity>
-5.62643433

$$$$

 OpenBabel03252504343D

 41 43  0  0  0  0  0  0  0  0999 V2000
   37.5040   31.3820   37.5130 C   0  0  0  0  0  0  0  0  0  0  0  0
   37.7250   31.6460   36.4410 H   0  0  0  0  0  0  0  0  0  0  0  0
   36.6300   32.0050   37.7870 H   0  0  0  0  0  0  0  0  0  0  0  0
   39.8940   31.8540   37.5990 C   0  0  0  0  0  0  0  0  0  0  0  0
   38.6560   31.9790   38.2600 C   0  0  0  0  0  0  0  0  0  0  0  0
   38.6220   32.6150   39.4520 C   0  0  0  0  0  0  0  0  0  0  0  0
   39.7810   33.0810   39.9150 N   0  0  0  0  0  0  0  0  0  0  0  0
   40.9590   32.9750   39.3100 C   0  0  0  0  0  0  0  0  0  0  0  0
   41.0560   32.3280   38.0770 N   0  0  0  0  0  0  0  0  0  0  0  0
   39.9910   31.3570   36.6430 H   0  0  0  0  0  0  0  0  0  0  0  0
   37.6710   32.6890   39.9210 H   0  0  0  0  0  0  0  0  0  0  0  0
   42.1810   33.4890   39.8380 N   0  0  0  0  0  0  0  0  0  0  0  0
   42.3730   33.5000   41.1750 C   0  0  0  0  0  3  0  0  0  0  0  0
   43.5720   34.0070   41.6290 C   0  0  0  0  0  0  0  0  0  0  0  0
   43.8260   34.0620   42.6910 H   0  0  0  0  0  0  0  0  0  0  0  0
   44.5530   34.4920   40.7590 C   0  0  0  0  0  0  0  0  0  0  0  0
   45.6570   34.9620   41.1350 O   0  0  0  0  0  0  0  0  0  0  0  0
   44.2980   34.4530   39.4270 N   0  0  0  0  0  0  0  0  0  0  0  0
   43.1300   33.9580   38.9800 C   0  0  0  0  0  0  0  0  0  0  0  0
   42.8580   33.9060   37.7470 O   0  0  0  0  0  0  0  0  0  0  0  0
   44.9750   34.7940   38.7010 H   0  0  0  0  0  0  0  0  0  0  0  0
   37.2910   30.0690   37.7920 O   0  0  0  0  0  0  0  0  0  0  0  0
   37.3380   29.4470   39.0280 C   0  0  0  0  0  3  0  0  0  0  0  0
   36.2880   29.6250   39.8240 C   0  0  0  0  0  3  0  0  0  0  0  0
   36.1170   29.0410   41.2130 C   0  0  0  0  0  0  0  0  0  0  0  0
   35.8150   27.9880   41.1840 H   0  0  0  0  0  0  0  0  0  0  0  0
   35.2660   29.6430   41.6460 H   0  0  0  0  0  0  0  0  0  0  0  0
   37.2740   29.3090   41.9180 O   0  0  0  0  0  0  0  0  0  0  0  0
   38.9340   27.9510   43.4970 O   0  0  0  0  0  0  0  0  0  0  0  0
   37.4790   28.2110   43.1800 P   0  0  1  0  0  0  0  0  0  0  0  0
   36.7630   28.8190   44.6050 O   0  0  0  0  0  0  0  0  0  0  0  0
   36.2250   29.6230   44.3830 H   0  0  0  0  0  0  0  0  0  0  0  0
   36.6960   26.7600   42.8270 O   0  0  0  0  0  0  0  0  0  0  0  0
   37.5080   25.8710   42.1560 C   0  0  0  0  0  0  0  0  0  0  0  0
   37.1680   25.4660   40.7590 C   0  0  0  0  0  0  0  0  0  0  0  0
   36.9090   24.5130   41.9110 C   0  0  0  0  0  0  0  0  0  0  0  0
   38.5710   25.8980   42.4580 H   0  0  0  0  0  0  0  0  0  0  0  0
   38.0280   25.1760   40.1370 H   0  0  0  0  0  0  0  0  0  0  0  0
   36.3380   25.9720   40.2700 H   0  0  0  0  0  0  0  0  0  0  0  0
   35.8190   24.3470   42.0880 H   0  0  0  0  0  0  0  0  0  0  0  0
   37.5300   23.6010   41.9980 H   0  0  0  0  0  0  0  0  0  0  0  0
  1  3  1  0  0  0  0
  1 22  1  0  0  0  0
  1  5  1  0  0  0  0
  2  1  1  0  0  0  0
  4  9  2  0  0  0  0
  4  5  1  0  0  0  0
  5  6  2  0  0  0  0
  6  7  1  0  0  0  0
  6 11  1  0  0  0  0
  8 12  1  0  0  0  0
  8  7  2  0  0  0  0
  9  8  1  0  0  0  0
 10  4  1  0  0  0  0
 12 13  1  0  0  0  0
 13 14  2  0  0  0  0
 14 15  1  0  0  0  0
 16 17  2  0  0  0  0
 16 14  1  0  0  0  0
 18 16  1  0  0  0  0
 19 18  1  0  0  0  0
 19 12  1  0  0  0  0
 20 19  2  0  0  0  0
 21 18  1  0  0  0  0
 22 23  1  0  0  0  0
 23 24  2  0  0  0  0
 24 25  1  0  0  0  0
 25 27  1  0  0  0  0
 25 28  1  0  0  0  0
 26 25  1  0  0  0  0
 28 30  1  0  0  0  0
 30 29  2  1  0  0  0
 30 31  1  0  0  0  0
 32 31  1  0  0  0  0
 33 30  1  0  0  0  0
 34 37  1  0  0  0  0
 34 33  1  0  0  0  0
 35 36  1  0  0  0  0
 35 34  1  0  0  0  0
 36 41  1  0  0  0  0
 36 40  1  0  0  0  0
 36 34  1  0  0  0  0
 38 35  1  0  0  0  0
 39 35  1  0  0  0  0
M  END
>  <minimizedAffinity>
-5.56933117

$$$$

 OpenBabel03252504343D

 41 43  0  0  0  0  0  0  0  0999 V2000
   37.3170   32.9840   39.3240 C   0  0  0  0  0  0  0  0  0  0  0  0
   36.3080   32.9880   38.8230 H   0  0  0  0  0  0  0  0  0  0  0  0
   38.0500   32.9400   38.4940 H   0  0  0  0  0  0  0  0  0  0  0  0
   38.4780   30.8530   39.5580 C   0  0  0  0  0  0  0  0  0  0  0  0
   37.3770   31.6320   39.9650 C   0  0  0  0  0  0  0  0  0  0  0  0
   36.5190   31.1140   40.8720 C   0  0  0  0  0  0  0  0  0  0  0  0
   36.7890   29.8870   41.3170 N   0  0  0  0  0  0  0  0  0  0  0  0
   37.8200   29.1350   40.9480 C   0  0  0  0  0  0  0  0  0  0  0  0
   38.7380   29.6170   40.0130 N   0  0  0  0  0  0  0  0  0  0  0  0
   39.2010   31.2080   38.8350 H   0  0  0  0  0  0  0  0  0  0  0  0
   35.7010   31.7290   41.1550 H   0  0  0  0  0  0  0  0  0  0  0  0
   38.0750   27.8230   41.4470 N   0  0  0  0  0  0  0  0  0  0  0  0
   37.0370   27.0190   41.7650 C   0  0  0  0  0  3  0  0  0  0  0  0
   37.3420   25.7630   42.2430 C   0  0  0  0  0  0  0  0  0  0  0  0
   36.5760   25.0380   42.5280 H   0  0  0  0  0  0  0  0  0  0  0  0
   38.6610   25.3260   42.3990 C   0  0  0  0  0  0  0  0  0  0  0  0
   38.9790   24.1890   42.8320 O   0  0  0  0  0  0  0  0  0  0  0  0
   39.6590   26.1820   42.0620 N   0  0  0  0  0  0  0  0  0  0  0  0
   39.3650   27.4080   41.5950 C   0  0  0  0  0  0  0  0  0  0  0  0
   40.2680   28.2310   41.2710 O   0  0  0  0  0  0  0  0  0  0  0  0
   40.6770   25.9390   42.1450 H   0  0  0  0  0  0  0  0  0  0  0  0
   37.5850   34.0070   40.1770 O   0  0  0  0  0  0  0  0  0  0  0  0
   38.6890   34.8430   40.1760 C   0  0  0  0  0  3  0  0  0  0  0  0
   39.8790   34.2560   40.1060 C   0  0  0  0  0  3  0  0  0  0  0  0
   41.2200   34.9650   40.0880 C   0  0  0  0  0  0  0  0  0  0  0  0
   41.9890   34.4080   40.6360 H   0  0  0  0  0  0  0  0  0  0  0  0
   41.0130   35.9260   40.6440 H   0  0  0  0  0  0  0  0  0  0  0  0
   41.5180   35.2510   38.7710 O   0  0  0  0  0  0  0  0  0  0  0  0
   41.1810   32.9910   37.4030 O   0  0  0  0  0  0  0  0  0  0  0  0
   42.2110   33.9190   38.0060 P   0  0  1  0  0  0  0  0  0  0  0  0
   43.2190   34.4370   36.7300 O   0  0  0  0  0  0  0  0  0  0  0  0
   43.3330   35.4210   36.7830 H   0  0  0  0  0  0  0  0  0  0  0  0
   43.1920   33.0700   39.0830 O   0  0  0  0  0  0  0  0  0  0  0  0
   42.8540   31.7370   39.1690 C   0  0  0  0  0  0  0  0  0  0  0  0
   42.1500   31.2270   40.3840 C   0  0  0  0  0  0  0  0  0  0  0  0
   43.6270   30.9420   40.1860 C   0  0  0  0  0  0  0  0  0  0  0  0
   42.6610   31.2460   38.1970 H   0  0  0  0  0  0  0  0  0  0  0  0
   41.5090   30.3490   40.2140 H   0  0  0  0  0  0  0  0  0  0  0  0
   41.8280   31.9530   41.1270 H   0  0  0  0  0  0  0  0  0  0  0  0
   44.2650   31.4700   40.9340 H   0  0  0  0  0  0  0  0  0  0  0  0
   43.9450   29.9050   39.9640 H   0  0  0  0  0  0  0  0  0  0  0  0
  1  5  1  0  0  0  0
  1 22  1  0  0  0  0
  2  1  1  0  0  0  0
  3  1  1  0  0  0  0
  4  5  2  0  0  0  0
  4  9  1  0  0  0  0
  5  6  1  0  0  0  0
  6 11  1  0  0  0  0
  6  7  2  0  0  0  0
  8  7  1  0  0  0  0
  8 12  1  0  0  0  0
  9  8  2  0  0  0  0
 10  4  1  0  0  0  0
 12 19  1  0  0  0  0
 12 13  1  0  0  0  0
 13 14  2  0  0  0  0
 14 16  1  0  0  0  0
 14 15  1  0  0  0  0
 16 17  2  0  0  0  0
 18 21  1  0  0  0  0
 18 16  1  0  0  0  0
 19 18  1  0  0  0  0
 20 19  2  0  0  0  0
 23 22  1  0  0  0  0
 24 23  2  0  0  0  0
 25 24  1  0  0  0  0
 25 26  1  0  0  0  0
 25 27  1  0  0  0  0
 28 25  1  0  0  0  0
 30 29  2  6  0  0  0
 30 28  1  0  0  0  0
 30 33  1  0  0  0  0
 31 32  1  0  0  0  0
 31 30  1  0  0  0  0
 33 34  1  0  0  0  0
 34 36  1  0  0  0  0
 34 35  1  0  0  0  0
 35 39  1  0  0  0  0
 36 35  1  0  0  0  0
 36 40  1  0  0  0  0
 37 34  1  0  0  0  0
 38 35  1  0  0  0  0
 41 36  1  0  0  0  0
M  END
>  <minimizedAffinity>
-5.53680563

$$$$

 OpenBabel03252504343D

 41 43  0  0  0  0  0  0  0  0999 V2000
   37.4540   33.0410   39.2930 C   0  0  0  0  0  0  0  0  0  0  0  0
   36.4770   33.0110   38.7340 H   0  0  0  0  0  0  0  0  0  0  0  0
   38.2360   33.0110   38.5080 H   0  0  0  0  0  0  0  0  0  0  0  0
   38.6760   30.9620   39.6470 C   0  0  0  0  0  0  0  0  0  0  0  0
   37.5150   31.6980   39.9530 C   0  0  0  0  0  0  0  0  0  0  0  0
   36.6050   31.1530   40.7920 C   0  0  0  0  0  0  0  0  0  0  0  0
   36.8860   29.9420   41.2710 N   0  0  0  0  0  0  0  0  0  0  0  0
   37.9730   29.2290   40.9980 C   0  0  0  0  0  0  0  0  0  0  0  0
   38.9460   29.7410   40.1380 N   0  0  0  0  0  0  0  0  0  0  0  0
   39.4420   31.3400   38.9830 H   0  0  0  0  0  0  0  0  0  0  0  0
   35.7420   31.7370   40.9980 H   0  0  0  0  0  0  0  0  0  0  0  0
   38.2390   27.9340   41.5320 N   0  0  0  0  0  0  0  0  0  0  0  0
   37.2100   27.0910   41.7710 C   0  0  0  0  0  3  0  0  0  0  0  0
   37.5250   25.8520   42.2880 C   0  0  0  0  0  0  0  0  0  0  0  0
   36.7680   25.0980   42.5170 H   0  0  0  0  0  0  0  0  0  0  0  0
   38.8420   25.4710   42.5580 C   0  0  0  0  0  0  0  0  0  0  0  0
   39.1690   24.3510   43.0290 O   0  0  0  0  0  0  0  0  0  0  0  0
   39.8300   26.3640   42.2950 N   0  0  0  0  0  0  0  0  0  0  0  0
   39.5270   27.5730   41.7910 C   0  0  0  0  0  0  0  0  0  0  0  0
   40.4200   28.4290   41.5340 O   0  0  0  0  0  0  0  0  0  0  0  0
   40.8460   26.1630   42.4660 H   0  0  0  0  0  0  0  0  0  0  0  0
   37.6420   34.0810   40.1480 O   0  0  0  0  0  0  0  0  0  0  0  0
   38.8390   34.5500   40.6610 C   0  0  0  0  0  3  0  0  0  0  0  0
   39.5640   35.3270   39.8630 C   0  0  0  0  0  3  0  0  0  0  0  0
   40.9010   35.9550   40.2100 C   0  0  0  0  0  0  0  0  0  0  0  0
   40.7960   37.0020   40.5220 H   0  0  0  0  0  0  0  0  0  0  0  0
   41.4620   35.9300   39.2320 H   0  0  0  0  0  0  0  0  0  0  0  0
   41.5240   35.1240   41.1200 O   0  0  0  0  0  0  0  0  0  0  0  0
   42.2250   32.7480   40.1420 O   0  0  0  0  0  0  0  0  0  0  0  0
   42.6890   34.1690   40.3650 P   0  0  1  0  0  0  0  0  0  0  0  0
   43.0690   34.8140   38.8310 O   0  0  0  0  0  0  0  0  0  0  0  0
   42.6530   35.7100   38.7420 H   0  0  0  0  0  0  0  0  0  0  0  0
   44.1190   34.1770   41.2590 O   0  0  0  0  0  0  0  0  0  0  0  0
   44.1810   35.2260   42.1500 C   0  0  0  0  0  0  0  0  0  0  0  0
   45.4790   35.9300   42.3780 C   0  0  0  0  0  0  0  0  0  0  0  0
   44.9520   34.9530   43.4120 C   0  0  0  0  0  0  0  0  0  0  0  0
   43.2400   35.7970   42.2570 H   0  0  0  0  0  0  0  0  0  0  0  0
   45.3880   36.9820   42.6860 H   0  0  0  0  0  0  0  0  0  0  0  0
   46.3220   35.6580   41.7470 H   0  0  0  0  0  0  0  0  0  0  0  0
   45.5830   34.0350   43.4890 H   0  0  0  0  0  0  0  0  0  0  0  0
   44.5970   35.3450   44.3840 H   0  0  0  0  0  0  0  0  0  0  0  0
  1  5  1  0  0  0  0
  1 22  1  0  0  0  0
  2  1  1  0  0  0  0
  3  1  1  0  0  0  0
  4  5  2  0  0  0  0
  4  9  1  0  0  0  0
  5  6  1  0  0  0  0
  6 11  1  0  0  0  0
  6  7  2  0  0  0  0
  8  7  1  0  0  0  0
  8 12  1  0  0  0  0
  9  8  2  0  0  0  0
 10  4  1  0  0  0  0
 12 13  1  0  0  0  0
 12 19  1  0  0  0  0
 13 14  2  0  0  0  0
 14 15  1  0  0  0  0
 14 16  1  0  0  0  0
 16 17  2  0  0  0  0
 18 21  1  0  0  0  0
 18 16  1  0  0  0  0
 19 18  1  0  0  0  0
 20 19  2  0  0  0  0
 22 23  1  0  0  0  0
 24 25  1  0  0  0  0
 24 23  2  0  0  0  0
 25 26  1  0  0  0  0
 25 28  1  0  0  0  0
 27 25  1  0  0  0  0
 30 29  2  6  0  0  0
 30 28  1  0  0  0  0
 30 33  1  0  0  0  0
 31 30  1  0  0  0  0
 32 31  1  0  0  0  0
 33 34  1  0  0  0  0
 34 37  1  0  0  0  0
 34 35  1  0  0  0  0
 34 36  1  0  0  0  0
 35 38  1  0  0  0  0
 35 36  1  0  0  0  0
 36 40  1  0  0  0  0
 36 41  1  0  0  0  0
 39 35  1  0  0  0  0
M  END
>  <minimizedAffinity>
-5.53408289

$$$$

 OpenBabel03252504343D

 41 43  0  0  0  0  0  0  0  0999 V2000
   36.6460   29.1020   36.7230 C   0  0  0  0  0  0  0  0  0  0  0  0
   37.0470   28.9950   35.6760 H   0  0  0  0  0  0  0  0  0  0  0  0
   35.7110   29.6870   36.6140 H   0  0  0  0  0  0  0  0  0  0  0  0
   37.0280   31.2190   37.8700 C   0  0  0  0  0  0  0  0  0  0  0  0
   37.6170   30.0420   37.3690 C   0  0  0  0  0  0  0  0  0  0  0  0
   38.9480   29.8680   37.5250 C   0  0  0  0  0  0  0  0  0  0  0  0
   39.6090   30.8410   38.1520 N   0  0  0  0  0  0  0  0  0  0  0  0
   39.0750   31.9590   38.6320 C   0  0  0  0  0  0  0  0  0  0  0  0
   37.7050   32.1930   38.5000 N   0  0  0  0  0  0  0  0  0  0  0  0
   35.9680   31.4200   37.7780 H   0  0  0  0  0  0  0  0  0  0  0  0
   39.3570   28.9690   37.1340 H   0  0  0  0  0  0  0  0  0  0  0  0
   39.8160   32.9790   39.2990 N   0  0  0  0  0  0  0  0  0  0  0  0
   41.0910   33.2270   38.9240 C   0  0  0  0  0  3  0  0  0  0  0  0
   41.7590   34.2230   39.6020 C   0  0  0  0  0  0  0  0  0  0  0  0
   42.7910   34.5010   39.3770 H   0  0  0  0  0  0  0  0  0  0  0  0
   41.1600   34.9530   40.6330 C   0  0  0  0  0  0  0  0  0  0  0  0
   41.7370   35.8690   41.2750 O   0  0  0  0  0  0  0  0  0  0  0  0
   39.8770   34.6560   40.9620 N   0  0  0  0  0  0  0  0  0  0  0  0
   39.2220   33.6840   40.3030 C   0  0  0  0  0  0  0  0  0  0  0  0
   38.0270   33.3800   40.5810 O   0  0  0  0  0  0  0  0  0  0  0  0
   39.3480   35.1510   41.7210 H   0  0  0  0  0  0  0  0  0  0  0  0
   36.4410   27.9570   37.4250 O   0  0  0  0  0  0  0  0  0  0  0  0
   36.1170   27.8300   38.7640 C   0  0  0  0  0  3  0  0  0  0  0  0
   36.9430   27.1050   39.5110 C   0  0  0  0  0  3  0  0  0  0  0  0
   36.7920   26.8320   40.9950 C   0  0  0  0  0  0  0  0  0  0  0  0
   37.6960   26.3840   41.4260 H   0  0  0  0  0  0  0  0  0  0  0  0
   35.9620   26.0690   41.0370 H   0  0  0  0  0  0  0  0  0  0  0  0
   36.3690   28.0040   41.5890 O   0  0  0  0  0  0  0  0  0  0  0  0
   37.9600   30.1400   41.5930 O   0  0  0  0  0  0  0  0  0  0  0  0
   37.6620   28.8300   42.2860 P   0  0  1  0  0  0  0  0  0  0  0  0
   37.3100   29.2000   43.9140 O   0  0  0  0  0  0  0  0  0  0  0  0
   36.4850   28.7210   44.1870 H   0  0  0  0  0  0  0  0  0  0  0  0
   39.0390   27.8570   42.2990 O   0  0  0  0  0  0  0  0  0  0  0  0
   39.3310   27.3700   43.5540 C   0  0  0  0  0  0  0  0  0  0  0  0
   40.7500   27.0910   43.9300 C   0  0  0  0  0  0  0  0  0  0  0  0
   39.8140   25.9450   43.5950 C   0  0  0  0  0  0  0  0  0  0  0  0
   38.6210   27.6760   44.3450 H   0  0  0  0  0  0  0  0  0  0  0  0
   40.9700   27.1750   45.0050 H   0  0  0  0  0  0  0  0  0  0  0  0
   41.5280   27.3850   43.2300 H   0  0  0  0  0  0  0  0  0  0  0  0
   40.0980   25.4280   42.6470 H   0  0  0  0  0  0  0  0  0  0  0  0
   39.4900   25.2650   44.4070 H   0  0  0  0  0  0  0  0  0  0  0  0
  1  5  1  0  0  0  0
  1 22  1  0  0  0  0
  2  1  1  0  0  0  0
  3  1  1  0  0  0  0
  4  9  1  0  0  0  0
  5  6  1  0  0  0  0
  5  4  2  0  0  0  0
  6  7  2  0  0  0  0
  7  8  1  0  0  0  0
  8 12  1  0  0  0  0
  9  8  2  0  0  0  0
 10  4  1  0  0  0  0
 11  6  1  0  0  0  0
 12 19  1  0  0  0  0
 13 12  1  0  0  0  0
 13 14  2  0  0  0  0
 14 16  1  0  0  0  0
 15 14  1  0  0  0  0
 16 18  1  0  0  0  0
 16 17  2  0  0  0  0
 18 21  1  0  0  0  0
 19 20  2  0  0  0  0
 19 18  1  0  0  0  0
 22 23  1  0  0  0  0
 23 24  2  0  0  0  0
 24 25  1  0  0  0  0
 25 27  1  0  0  0  0
 25 26  1  0  0  0  0
 25 28  1  0  0  0  0
 28 30  1  0  0  0  0
 30 29  2  6  0  0  0
 30 33  1  0  0  0  0
 30 31  1  0  0  0  0
 31 32  1  0  0  0  0
 33 34  1  0  0  0  0
 34 36  1  0  0  0  0
 34 35  1  0  0  0  0
 34 37  1  0  0  0  0
 35 38  1  0  0  0  0
 36 35  1  0  0  0  0
 36 41  1  0  0  0  0
 39 35  1  0  0  0  0
 40 36  1  0  0  0  0
M  END
>  <minimizedAffinity>
-5.48456192

$$$$

 OpenBabel03252504343D

 41 43  0  0  0  0  0  0  0  0999 V2000
   36.9610   27.1980   37.7590 C   0  0  0  0  0  0  0  0  0  0  0  0
   37.3520   27.0340   36.7160 H   0  0  0  0  0  0  0  0  0  0  0  0
   35.8920   27.4610   37.6260 H   0  0  0  0  0  0  0  0  0  0  0  0
   36.7260   29.5200   38.4620 C   0  0  0  0  0  0  0  0  0  0  0  0
   37.6240   28.4730   38.1800 C   0  0  0  0  0  0  0  0  0  0  0  0
   38.9490   28.7010   38.3240 C   0  0  0  0  0  0  0  0  0  0  0  0
   39.3050   29.9190   38.7290 N   0  0  0  0  0  0  0  0  0  0  0  0
   38.4760   30.9210   39.0020 C   0  0  0  0  0  0  0  0  0  0  0  0
   37.0970   30.7440   38.8700 N   0  0  0  0  0  0  0  0  0  0  0  0
   35.6540   29.4040   38.3670 H   0  0  0  0  0  0  0  0  0  0  0  0
   39.5960   27.8880   38.1010 H   0  0  0  0  0  0  0  0  0  0  0  0
   38.8950   32.2140   39.4340 N   0  0  0  0  0  0  0  0  0  0  0  0
   40.0620   32.7210   38.9780 C   0  0  0  0  0  3  0  0  0  0  0  0
   40.4180   33.9740   39.4300 C   0  0  0  0  0  0  0  0  0  0  0  0
   41.3410   34.4720   39.1220 H   0  0  0  0  0  0  0  0  0  0  0  0
   39.6200   34.6990   40.3180 C   0  0  0  0  0  0  0  0  0  0  0  0
   39.9110   35.8440   40.7530 O   0  0  0  0  0  0  0  0  0  0  0  0
   38.4600   34.1340   40.7400 N   0  0  0  0  0  0  0  0  0  0  0  0
   38.1090   32.9130   40.3010 C   0  0  0  0  0  0  0  0  0  0  0  0
   37.0370   32.3550   40.6710 O   0  0  0  0  0  0  0  0  0  0  0  0
   37.7990   34.6060   41.4050 H   0  0  0  0  0  0  0  0  0  0  0  0
   37.1200   26.1780   38.6440 O   0  0  0  0  0  0  0  0  0  0  0  0
   36.9380   26.2110   40.0150 C   0  0  0  0  0  3  0  0  0  0  0  0
   38.0240   26.0390   40.7630 C   0  0  0  0  0  3  0  0  0  0  0  0
   38.0670   26.0390   42.2790 C   0  0  0  0  0  0  0  0  0  0  0  0
   39.0380   26.3740   42.6640 H   0  0  0  0  0  0  0  0  0  0  0  0
   37.9370   24.9490   42.5430 H   0  0  0  0  0  0  0  0  0  0  0  0
   36.9730   26.7530   42.7230 O   0  0  0  0  0  0  0  0  0  0  0  0
   36.8180   29.3220   42.0360 O   0  0  0  0  0  0  0  0  0  0  0  0
   37.3880   28.3540   43.0480 P   0  0  1  0  0  0  0  0  0  0  0  0
   36.7800   28.8180   44.5740 O   0  0  0  0  0  0  0  0  0  0  0  0
   36.4400   28.0150   45.0470 H   0  0  0  0  0  0  0  0  0  0  0  0
   39.0640   28.5200   43.1250 O   0  0  0  0  0  0  0  0  0  0  0  0
   39.5520   29.4060   42.1900 C   0  0  0  0  0  0  0  0  0  0  0  0
   40.9930   29.8000   42.2220 C   0  0  0  0  0  0  0  0  0  0  0  0
   39.9320   30.7600   42.7240 C   0  0  0  0  0  0  0  0  0  0  0  0
   39.0280   29.3860   41.2160 H   0  0  0  0  0  0  0  0  0  0  0  0
   41.4170   30.0880   41.2480 H   0  0  0  0  0  0  0  0  0  0  0  0
   41.6450   29.2870   42.9260 H   0  0  0  0  0  0  0  0  0  0  0  0
   39.9940   30.9240   43.8260 H   0  0  0  0  0  0  0  0  0  0  0  0
   39.7200   31.6760   42.1380 H   0  0  0  0  0  0  0  0  0  0  0  0
  1  5  1  0  0  0  0
  1 22  1  0  0  0  0
  2  1  1  0  0  0  0
  3  1  1  0  0  0  0
  4  9  1  0  0  0  0
  5  6  1  0  0  0  0
  5  4  2  0  0  0  0
  6  7  2  0  0  0  0
  7  8  1  0  0  0  0
  8 12  1  0  0  0  0
  9  8  2  0  0  0  0
 10  4  1  0  0  0  0
 11  6  1  0  0  0  0
 12 19  1  0  0  0  0
 13 14  2  0  0  0  0
 13 12  1  0  0  0  0
 14 16  1  0  0  0  0
 15 14  1  0  0  0  0
 16 18  1  0  0  0  0
 16 17  2  0  0  0  0
 18 21  1  0  0  0  0
 19 20  2  0  0  0  0
 19 18  1  0  0  0  0
 22 23  1  0  0  0  0
 23 24  2  0  0  0  0
 24 25  1  0  0  0  0
 25 27  1  0  0  0  0
 25 26  1  0  0  0  0
 25 28  1  0  0  0  0
 28 30  1  0  0  0  0
 30 29  2  6  0  0  0
 30 33  1  0  0  0  0
 30 31  1  0  0  0  0
 31 32  1  0  0  0  0
 34 35  1  0  0  0  0
 34 36  1  0  0  0  0
 34 33  1  0  0  0  0
 35 36  1  0  0  0  0
 35 39  1  0  0  0  0
 36 40  1  0  0  0  0
 37 34  1  0  0  0  0
 38 35  1  0  0  0  0
 41 36  1  0  0  0  0
M  END
>  <minimizedAffinity>
-5.41579247

$$$$

 OpenBabel03252504343D

 41 43  0  0  0  0  0  0  0  0999 V2000
   36.3620   31.0060   40.8340 C   0  0  0  0  0  0  0  0  0  0  0  0
   35.6540   31.0480   41.7090 H   0  0  0  0  0  0  0  0  0  0  0  0
   35.7810   31.4000   39.9760 H   0  0  0  0  0  0  0  0  0  0  0  0
   37.3760   28.8760   41.4470 C   0  0  0  0  0  0  0  0  0  0  0  0
   36.4960   29.5380   40.5690 C   0  0  0  0  0  0  0  0  0  0  0  0
   35.8670   28.8140   39.6170 C   0  0  0  0  0  0  0  0  0  0  0  0
   36.1330   27.5090   39.5840 N   0  0  0  0  0  0  0  0  0  0  0  0
   36.9590   26.8640   40.4010 C   0  0  0  0  0  0  0  0  0  0  0  0
   37.6370   27.5590   41.4030 N   0  0  0  0  0  0  0  0  0  0  0  0
   37.9120   29.3960   42.2310 H   0  0  0  0  0  0  0  0  0  0  0  0
   35.2110   29.3480   38.9730 H   0  0  0  0  0  0  0  0  0  0  0  0
   37.2190   25.4630   40.3350 N   0  0  0  0  0  0  0  0  0  0  0  0
   37.2140   24.8420   39.1350 C   0  0  0  0  0  3  0  0  0  0  0  0
   37.4720   23.4880   39.1300 C   0  0  0  0  0  0  0  0  0  0  0  0
   37.4910   22.8930   38.2140 H   0  0  0  0  0  0  0  0  0  0  0  0
   37.7280   22.7750   40.3050 C   0  0  0  0  0  0  0  0  0  0  0  0
   37.9660   21.5400   40.3420 O   0  0  0  0  0  0  0  0  0  0  0  0
   37.7180   23.4560   41.4790 N   0  0  0  0  0  0  0  0  0  0  0  0
   37.4670   24.7780   41.4870 C   0  0  0  0  0  0  0  0  0  0  0  0
   37.4500   25.4450   42.5600 O   0  0  0  0  0  0  0  0  0  0  0  0
   37.9000   23.0040   42.4080 H   0  0  0  0  0  0  0  0  0  0  0  0
   37.5510   31.6490   40.9720 O   0  0  0  0  0  0  0  0  0  0  0  0
   38.1580   32.5090   40.0740 C   0  0  0  0  0  3  0  0  0  0  0  0
   39.4290   32.8180   40.3130 C   0  0  0  0  0  3  0  0  0  0  0  0
   40.2940   33.7330   39.4680 C   0  0  0  0  0  0  0  0  0  0  0  0
   40.3680   34.7410   39.8940 H   0  0  0  0  0  0  0  0  0  0  0  0
   39.7290   33.7990   38.4930 H   0  0  0  0  0  0  0  0  0  0  0  0
   41.4970   33.0880   39.2590 O   0  0  0  0  0  0  0  0  0  0  0  0
   40.3660   32.2450   37.0000 O   0  0  0  0  0  0  0  0  0  0  0  0
   41.6730   32.6490   37.6410 P   0  0  1  0  0  0  0  0  0  0  0  0
   42.2810   33.9650   36.7420 O   0  0  0  0  0  0  0  0  0  0  0  0
   42.5660   34.6830   37.3650 H   0  0  0  0  0  0  0  0  0  0  0  0
   42.7990   31.4020   37.4930 O   0  0  0  0  0  0  0  0  0  0  0  0
   42.3830   30.4140   36.6280 C   0  0  0  0  0  0  0  0  0  0  0  0
   43.0720   29.0880   36.6300 C   0  0  0  0  0  0  0  0  0  0  0  0
   43.3440   30.0840   35.5180 C   0  0  0  0  0  0  0  0  0  0  0  0
   41.3100   30.4550   36.3600 H   0  0  0  0  0  0  0  0  0  0  0  0
   42.4470   28.2400   36.3130 H   0  0  0  0  0  0  0  0  0  0  0  0
   43.8210   28.9050   37.3970 H   0  0  0  0  0  0  0  0  0  0  0  0
   44.3860   30.4820   35.5510 H   0  0  0  0  0  0  0  0  0  0  0  0
   42.9710   29.8620   34.5000 H   0  0  0  0  0  0  0  0  0  0  0  0
  1 22  1  0  0  0  0
  1  2  1  0  0  0  0
  3  1  1  0  0  0  0
  4 10  1  0  0  0  0
  5  1  1  0  0  0  0
  5  4  2  0  0  0  0
  6  5  1  0  0  0  0
  7  6  2  0  0  0  0
  7  8  1  0  0  0  0
  8  9  2  0  0  0  0
  9  4  1  0  0  0  0
 11  6  1  0  0  0  0
 12  8  1  0  0  0  0
 12 19  1  0  0  0  0
 13 12  1  0  0  0  0
 14 13  2  0  0  0  0
 14 16  1  0  0  0  0
 15 14  1  0  0  0  0
 16 17  2  0  0  0  0
 16 18  1  0  0  0  0
 18 19  1  0  0  0  0
 18 21  1  0  0  0  0
 19 20  2  0  0  0  0
 23 24  2  0  0  0  0
 23 22  1  0  0  0  0
 25 26  1  0  0  0  0
 25 24  1  0  0  0  0
 27 25  1  0  0  0  0
 28 25  1  0  0  0  0
 30 29  2  6  0  0  0
 30 28  1  0  0  0  0
 31 32  1  0  0  0  0
 31 30  1  0  0  0  0
 33 30  1  0  0  0  0
 34 35  1  0  0  0  0
 34 33  1  0  0  0  0
 35 39  1  0  0  0  0
 36 40  1  0  0  0  0
 36 34  1  0  0  0  0
 36 35  1  0  0  0  0
 37 34  1  0  0  0  0
 38 35  1  0  0  0  0
 41 36  1  0  0  0  0
M  END
>  <minimizedAffinity>
-5.33410215

$$$$
