
 OpenBabel03252507073D

 25 26  0  0  0  0  0  0  0  0999 V2000
   44.7820   35.4810   44.8490 C   0  0  0  0  0  0  0  0  0  0  0  0
   45.3600   35.7590   43.5800 C   0  0  0  0  0  0  0  0  0  0  0  0
   46.2070   34.8000   43.0380 C   0  0  0  0  0  0  0  0  0  0  0  0
   46.4430   33.6480   43.7420 N   0  0  0  0  0  0  0  0  0  0  0  0
   45.8700   33.4240   44.9490 C   0  0  0  0  0  0  0  0  0  0  0  0
   45.0440   34.3360   45.4980 N   0  0  0  0  0  0  0  0  0  0  0  0
   44.1210   36.2010   45.2980 H   0  0  0  0  0  0  0  0  0  0  0  0
   45.1110   36.7050   43.1010 H   0  0  0  0  0  0  0  0  0  0  0  0
   46.2740   32.1620   45.4670 N   0  0  0  0  0  0  0  0  0  0  0  0
   46.0850   31.0870   44.6770 C   0  0  0  0  0  3  0  0  0  0  0  0
   46.4780   29.8390   45.1760 C   0  0  0  0  0  0  0  0  0  0  0  0
   46.3340   28.9710   44.5570 H   0  0  0  0  0  0  0  0  0  0  0  0
   47.0290   29.7910   46.4380 C   0  0  0  0  0  0  0  0  0  0  0  0
   47.3860   28.6680   46.8940 O   0  0  0  0  0  0  0  0  0  0  0  0
   47.2000   30.8910   47.1940 N   0  0  0  0  0  0  0  0  0  0  0  0
   46.8140   32.0890   46.6970 C   0  0  0  0  0  0  0  0  0  0  0  0
   46.9910   33.0910   47.4360 O   0  0  0  0  0  0  0  0  0  0  0  0
   47.6270   30.7890   48.1510 H   0  0  0  0  0  0  0  0  0  0  0  0
   46.7740   35.0650   41.8000 O   0  0  0  0  0  0  0  0  0  0  0  0
   48.5650   33.3070   40.9430 O   0  0  0  0  0  0  0  0  0  0  0  0
   48.4340   34.7110   41.5420 P   0  0  0  0  0  0  0  0  0  0  0  0
   49.0760   35.8770   40.5390 O   0  0  0  0  0  0  0  0  0  0  0  0
   48.8850   35.5990   39.6060 H   0  0  0  0  0  0  0  0  0  0  0  0
   49.1840   34.6790   43.0630 O   0  0  0  0  0  0  0  0  0  0  0  0
   49.3300   35.6270   43.3190 H   0  0  0  0  0  0  0  0  0  0  0  0
  1  7  1  0  0  0  0
  1  6  1  0  0  0  0
  2  1  2  0  0  0  0
  3  2  1  0  0  0  0
  3  4  2  0  0  0  0
  4  5  1  0  0  0  0
  5  9  1  0  0  0  0
  5  6  2  0  0  0  0
  8  2  1  0  0  0  0
  9 16  1  0  0  0  0
 10 11  2  0  0  0  0
 10  9  1  0  0  0  0
 11 13  1  0  0  0  0
 12 11  1  0  0  0  0
 13 14  2  0  0  0  0
 13 15  1  0  0  0  0
 15 18  1  0  0  0  0
 16 15  1  0  0  0  0
 16 17  2  0  0  0  0
 19  3  1  0  0  0  0
 20 21  2  0  0  0  0
 21 19  1  0  0  0  0
 21 24  1  0  0  0  0
 22 21  1  0  0  0  0
 23 22  1  0  0  0  0
 24 25  1  0  0  0  0
M  END
>  <minimizedAffinity>
-5.33604527

>  <minimizedRMSD>
0.847347021

$$$$
