
 OpenBabel03242516253D

 44 48  0  0  0  0  0  0  0  0999 V2000
   49.7660   30.1680   49.4080 C   0  0  0  0  0  0  0  0  0  0  0  0
   49.9990   31.3270   50.0710 N   0  0  0  0  0  0  0  0  0  0  0  0
   50.6600   31.3910   51.2340 C   0  0  0  0  0  0  0  0  0  0  0  0
   51.1090   30.2240   51.7550 N   0  0  0  0  0  0  0  0  0  0  0  0
   50.9240   29.0410   51.1720 C   0  0  0  0  0  0  0  0  0  0  0  0
   51.3800   27.8380   51.7060 C   0  0  0  0  0  0  0  0  0  0  0  0
   51.1540   26.6440   51.0580 C   0  0  0  0  0  0  0  0  0  0  0  0
   50.4610   26.5880   49.8430 C   0  0  0  0  0  0  0  0  0  0  0  0
   50.0300   27.7950   49.3510 C   0  0  0  0  0  0  0  0  0  0  0  0
   50.2390   28.9990   49.9720 C   0  0  0  0  0  0  0  0  0  0  0  0
   50.8100   32.3310   51.7050 H   0  0  0  0  0  0  0  0  0  0  0  0
   51.9090   27.9310   52.6450 H   0  0  0  0  0  0  0  0  0  0  0  0
   51.5670   25.7980   51.5930 H   0  0  0  0  0  0  0  0  0  0  0  0
   50.3450   25.5980   49.4280 H   0  0  0  0  0  0  0  0  0  0  0  0
   49.3500   27.5760   48.1210 N   0  0  0  0  0  0  0  0  0  0  0  0
   47.9980   27.3690   48.0440 C   0  0  0  0  0  0  0  0  0  0  0  0
   47.3700   27.1320   46.8290 C   0  0  0  0  0  0  0  0  0  0  0  0
   46.3240   26.9680   46.7330 H   0  0  0  0  0  0  0  0  0  0  0  0
   48.1800   27.1150   45.6910 C   0  0  0  0  0  0  0  0  0  0  0  0
   47.7300   26.9110   44.5350 O   0  0  0  0  0  0  0  0  0  0  0  0
   49.5170   27.3220   45.7880 N   0  0  0  0  0  0  0  0  0  0  0  0
   50.1130   27.5520   46.9830 C   0  0  0  0  0  0  0  0  0  0  0  0
   51.3550   27.7410   47.0510 O   0  0  0  0  0  0  0  0  0  0  0  0
   50.1070   27.3070   44.9450 H   0  0  0  0  0  0  0  0  0  0  0  0
   48.8980   30.0660   47.8680 S   0  0  0  0  0  0  0  0  0  0  0  0
   46.0360   32.7220   46.8980 C   0  0  0  0  0  0  0  0  0  0  0  0
   47.1550   31.9290   46.9070 C   0  0  0  0  0  0  0  0  0  0  0  0
   47.4190   31.0520   47.9380 C   0  0  0  0  0  0  0  0  0  0  0  0
   46.5380   30.9530   49.0070 C   0  0  0  0  0  0  0  0  0  0  0  0
   45.4270   31.7270   49.0170 C   0  0  0  0  0  0  0  0  0  0  0  0
   45.1940   32.5920   47.9730 C   0  0  0  0  0  0  0  0  0  0  0  0
   47.8420   32.0060   46.0730 H   0  0  0  0  0  0  0  0  0  0  0  0
   46.7630   30.2660   49.7940 H   0  0  0  0  0  0  0  0  0  0  0  0
   44.7210   31.6800   49.8260 H   0  0  0  0  0  0  0  0  0  0  0  0
   44.2980   33.2010   48.0030 H   0  0  0  0  0  0  0  0  0  0  0  0
   44.5610   35.5070   45.0530 C   0  0  0  0  0  0  0  0  0  0  0  0
   45.2140   35.4520   43.7980 C   0  0  0  0  0  0  0  0  0  0  0  0
   46.1660   34.4500   43.5860 C   0  0  0  0  0  0  0  0  0  0  0  0
   46.4370   33.5640   44.5830 N   0  0  0  0  0  0  0  0  0  0  0  0
   45.7840   33.6510   45.7820 C   0  0  0  0  0  0  0  0  0  0  0  0
   44.8540   34.6200   46.0050 N   0  0  0  0  0  0  0  0  0  0  0  0
   43.8250   36.2680   45.2390 H   0  0  0  0  0  0  0  0  0  0  0  0
   44.9870   36.1660   43.0130 H   0  0  0  0  0  0  0  0  0  0  0  0
   46.6970   34.3580   42.6470 H   0  0  0  0  0  0  0  0  0  0  0  0
  1 10  2  0  0  0  0
  1  2  1  0  0  0  0
  2  3  2  0  0  0  0
  3 11  1  0  0  0  0
  3  4  1  0  0  0  0
  5  6  1  0  0  0  0
  5  4  2  0  0  0  0
  6 12  1  0  0  0  0
  7 13  1  0  0  0  0
  7  6  2  0  0  0  0
  8  7  1  0  0  0  0
  9  8  2  0  0  0  0
  9 10  1  0  0  0  0
 10  5  1  0  0  0  0
 14  8  1  0  0  0  0
 15  9  1  0  0  0  0
 16 15  1  0  0  0  0
 17 16  2  0  0  0  0
 18 17  1  0  0  0  0
 19 21  1  0  0  0  0
 19 17  1  0  0  0  0
 20 19  2  0  0  0  0
 21 22  1  0  0  0  0
 22 23  2  0  0  0  0
 22 15  1  0  0  0  0
 24 21  1  0  0  0  0
 25 28  1  0  0  0  0
 25  1  1  0  0  0  0
 26 27  2  0  0  0  0
 26 31  1  0  0  0  0
 27 28  1  0  0  0  0
 28 29  2  0  0  0  0
 29 30  1  0  0  0  0
 29 33  1  0  0  0  0
 30 34  1  0  0  0  0
 31 35  1  0  0  0  0
 31 30  2  0  0  0  0
 32 27  1  0  0  0  0
 36 42  1  0  0  0  0
 36 41  1  0  0  0  0
 37 36  2  0  0  0  0
 38 37  1  0  0  0  0
 38 39  2  0  0  0  0
 39 40  1  0  0  0  0
 40 41  2  0  0  0  0
 40 26  1  0  0  0  0
 43 37  1  0  0  0  0
 44 38  1  0  0  0  0
M  END
>  <minimizedAffinity>
-6.49572372

>  <minimizedRMSD>
0.73465544

$$$$
