
 OpenBabel03242519183D

 43 46  0  0  1  0  0  0  0  0999 V2000
   36.3850   29.2070   40.7810 C   0  0  0  0  0  0  0  0  0  0  0  0
   35.9780   28.9320   39.4950 C   0  0  0  0  0  0  0  0  0  0  0  0
   36.0850   29.8530   38.4480 C   0  0  0  0  0  0  0  0  0  0  0  0
   36.6240   31.0560   38.7820 N   0  0  0  0  0  0  0  0  0  0  0  0
   37.0190   31.3170   40.0390 C   0  0  0  0  0  0  0  0  0  0  0  0
   36.8980   30.4080   41.0130 N   0  0  0  0  0  0  0  0  0  0  0  0
   35.5550   27.9350   39.3170 H   0  0  0  0  0  0  0  0  0  0  0  0
   35.7530   29.5990   37.4490 H   0  0  0  0  0  0  0  0  0  0  0  0
   37.6390   32.6300   40.4090 C   0  0  2  0  0  0  0  0  0  0  0  0
   37.4170   33.8050   39.5110 C   0  0  0  0  0  0  0  0  0  0  0  0
   38.7770   33.0870   39.5610 C   0  0  1  0  0  0  0  0  0  0  0  0
   37.7000   32.7740   41.5060 H   0  0  0  0  0  0  0  0  0  0  0  0
   37.3490   34.8110   39.9810 H   0  0  0  0  0  0  0  0  0  0  0  0
   36.7830   33.6420   38.6150 H   0  0  0  0  0  0  0  0  0  0  0  0
   39.0730   32.4470   38.7160 H   0  0  0  0  0  0  0  0  0  0  0  0
   39.8360   33.8930   40.1200 N   0  0  0  0  0  0  0  0  0  0  0  0
   39.9370   35.2320   40.1520 C   0  0  0  0  0  3  0  0  0  0  0  0
   41.0280   35.8470   40.7300 C   0  0  0  0  0  0  0  0  0  0  0  0
   41.0640   36.9430   40.7320 H   0  0  0  0  0  0  0  0  0  0  0  0
   42.0680   35.1230   41.3040 C   0  0  0  0  0  0  0  0  0  0  0  0
   43.0650   35.6810   41.8320 O   0  0  0  0  0  0  0  0  0  0  0  0
   41.9250   33.7790   41.2490 N   0  0  0  0  0  0  0  0  0  0  0  0
   40.8580   33.1860   40.6830 C   0  0  0  0  0  0  0  0  0  0  0  0
   40.8610   31.9080   40.7060 O   0  0  0  0  0  0  0  0  0  0  0  0
   42.7030   33.2160   41.6790 H   0  0  0  0  0  0  0  0  0  0  0  0
   36.2770   28.2360   41.8470 C   0  0  0  0  0  0  0  0  0  0  0  0
   36.7730   28.5970   42.7730 H   0  0  0  0  0  0  0  0  0  0  0  0
   35.1950   28.1040   42.1140 H   0  0  0  0  0  0  0  0  0  0  0  0
   36.8500   26.9340   41.4390 C   0  0  0  0  0  0  0  0  0  0  0  0
   37.1380   26.9410   40.3540 H   0  0  0  0  0  0  0  0  0  0  0  0
   36.0950   26.1250   41.5140 H   0  0  0  0  0  0  0  0  0  0  0  0
   37.4290   24.0250   41.5840 Cl  0  0  0  0  0  0  0  0  0  0  0  0
   38.4070   25.2110   42.3850 C   0  0  0  0  0  0  0  0  0  0  0  0
   38.0370   26.5290   42.2420 C   0  0  0  0  0  0  0  0  0  0  0  0
   38.8150   27.4830   42.8820 C   0  0  0  0  0  0  0  0  0  0  0  0
   39.9190   27.1260   43.6320 C   0  0  0  0  0  0  0  0  0  0  0  0
   40.2800   25.7810   43.7630 C   0  0  0  0  0  0  0  0  0  0  0  0
   39.4990   24.8340   43.1230 C   0  0  0  0  0  0  0  0  0  0  0  0
   38.5900   28.5380   42.8190 H   0  0  0  0  0  0  0  0  0  0  0  0
   40.5090   27.9010   44.1190 H   0  0  0  0  0  0  0  0  0  0  0  0
   41.1330   25.4730   44.3390 H   0  0  0  0  0  0  0  0  0  0  0  0
   39.7710   23.4600   43.1890 O   0  0  0  0  0  0  0  0  0  0  0  0
   40.7590   23.2430   43.3840 H   0  0  0  0  0  0  0  0  0  0  0  0
  1  6  1  0  0  0  0
  1 26  1  0  0  0  0
  2  1  2  0  0  0  0
  3  4  2  0  0  0  0
  3  2  1  0  0  0  0
  4  5  1  0  0  0  0
  5  9  1  0  0  0  0
  5  6  2  0  0  0  0
  7  2  1  0  0  0  0
  8  3  1  0  0  0  0
  9 12  1  1  0  0  0
 10 11  1  0  0  0  0
 10 13  1  0  0  0  0
 10  9  1  0  0  0  0
 11 15  1  6  0  0  0
 11 16  1  0  0  0  0
 11  9  1  0  0  0  0
 14 10  1  0  0  0  0
 16 17  1  0  0  0  0
 16 23  1  0  0  0  0
 17 18  2  0  0  0  0
 18 19  1  0  0  0  0
 18 20  1  0  0  0  0
 20 21  2  0  0  0  0
 22 20  1  0  0  0  0
 22 25  1  0  0  0  0
 23 24  2  0  0  0  0
 23 22  1  0  0  0  0
 26 28  1  0  0  0  0
 26 27  1  0  0  0  0
 29 31  1  0  0  0  0
 29 26  1  0  0  0  0
 29 34  1  0  0  0  0
 30 29  1  0  0  0  0
 32 33  1  0  0  0  0
 33 38  1  0  0  0  0
 34 33  2  0  0  0  0
 34 35  1  0  0  0  0
 35 36  2  0  0  0  0
 36 37  1  0  0  0  0
 36 40  1  0  0  0  0
 37 41  1  0  0  0  0
 38 42  1  0  0  0  0
 38 37  2  0  0  0  0
 39 35  1  0  0  0  0
 42 43  1  0  0  0  0
M  END
>  <minimizedAffinity>
-7.2836175

$$$$

 OpenBabel03242519183D

 43 46  0  0  1  0  0  0  0  0999 V2000
   37.2800   28.7980   42.4000 C   0  0  0  0  0  0  0  0  0  0  0  0
   36.1550   28.3300   41.7590 C   0  0  0  0  0  0  0  0  0  0  0  0
   35.5220   29.0260   40.7250 C   0  0  0  0  0  0  0  0  0  0  0  0
   36.0940   30.2120   40.3840 N   0  0  0  0  0  0  0  0  0  0  0  0
   37.1910   30.6620   41.0140 C   0  0  0  0  0  0  0  0  0  0  0  0
   37.7670   29.9650   42.0000 N   0  0  0  0  0  0  0  0  0  0  0  0
   35.7630   27.3630   42.1000 H   0  0  0  0  0  0  0  0  0  0  0  0
   34.6380   28.6250   40.2460 H   0  0  0  0  0  0  0  0  0  0  0  0
   37.8430   31.9540   40.6260 C   0  0  2  0  0  0  0  0  0  0  0  0
   37.1790   32.8100   39.5960 C   0  0  0  0  0  0  0  0  0  0  0  0
   38.4480   32.0080   39.2640 C   0  0  1  0  0  0  0  0  0  0  0  0
   38.3880   32.4230   41.4700 H   0  0  0  0  0  0  0  0  0  0  0  0
   37.2790   33.9140   39.6970 H   0  0  0  0  0  0  0  0  0  0  0  0
   36.2170   32.4450   39.1810 H   0  0  0  0  0  0  0  0  0  0  0  0
   38.3610   31.1120   38.6320 H   0  0  0  0  0  0  0  0  0  0  0  0
   39.6020   32.8340   39.0020 N   0  0  0  0  0  0  0  0  0  0  0  0
   40.1050   33.8260   39.7550 C   0  0  0  0  0  3  0  0  0  0  0  0
   41.2270   34.5220   39.3520 C   0  0  0  0  0  0  0  0  0  0  0  0
   41.6000   35.3240   40.0010 H   0  0  0  0  0  0  0  0  0  0  0  0
   41.8880   34.2370   38.1620 C   0  0  0  0  0  0  0  0  0  0  0  0
   42.9110   34.8700   37.7920 O   0  0  0  0  0  0  0  0  0  0  0  0
   41.3470   33.2310   37.4370 N   0  0  0  0  0  0  0  0  0  0  0  0
   40.2530   32.5570   37.8360 C   0  0  0  0  0  0  0  0  0  0  0  0
   39.8570   31.6320   37.0470 O   0  0  0  0  0  0  0  0  0  0  0  0
   41.8340   33.0020   36.5330 H   0  0  0  0  0  0  0  0  0  0  0  0
   37.9270   28.0570   43.4600 C   0  0  0  0  0  0  0  0  0  0  0  0
   38.6210   28.7030   44.0390 H   0  0  0  0  0  0  0  0  0  0  0  0
   37.1510   27.7110   44.1930 H   0  0  0  0  0  0  0  0  0  0  0  0
   38.6540   26.8860   42.9210 C   0  0  0  0  0  0  0  0  0  0  0  0
   38.4570   26.7570   41.8240 H   0  0  0  0  0  0  0  0  0  0  0  0
   38.2870   25.9440   43.3750 H   0  0  0  0  0  0  0  0  0  0  0  0
   40.1030   24.2950   43.0260 Cl  0  0  0  0  0  0  0  0  0  0  0  0
   40.9080   25.8210   43.1990 C   0  0  0  0  0  0  0  0  0  0  0  0
   40.1280   26.9530   43.1320 C   0  0  0  0  0  0  0  0  0  0  0  0
   40.7660   28.1770   43.2710 C   0  0  0  0  0  0  0  0  0  0  0  0
   42.1310   28.2590   43.4680 C   0  0  0  0  0  0  0  0  0  0  0  0
   42.9070   27.0960   43.5320 C   0  0  0  0  0  0  0  0  0  0  0  0
   42.2640   25.8780   43.3930 C   0  0  0  0  0  0  0  0  0  0  0  0
   40.2240   29.1110   43.2300 H   0  0  0  0  0  0  0  0  0  0  0  0
   42.6000   29.2360   43.5720 H   0  0  0  0  0  0  0  0  0  0  0  0
   43.9700   27.1270   43.6850 H   0  0  0  0  0  0  0  0  0  0  0  0
   42.9450   24.6540   43.4420 O   0  0  0  0  0  0  0  0  0  0  0  0
   43.9410   24.7240   43.1870 H   0  0  0  0  0  0  0  0  0  0  0  0
  1 26  1  0  0  0  0
  2  7  1  0  0  0  0
  2  1  2  0  0  0  0
  3  2  1  0  0  0  0
  4  3  2  0  0  0  0
  4  5  1  0  0  0  0
  5  6  2  0  0  0  0
  6  1  1  0  0  0  0
  8  3  1  0  0  0  0
  9  5  1  0  0  0  0
  9 12  1  1  0  0  0
 10 13  1  0  0  0  0
 10  9  1  0  0  0  0
 11 15  1  6  0  0  0
 11 10  1  0  0  0  0
 11  9  1  0  0  0  0
 14 10  1  0  0  0  0
 16 11  1  0  0  0  0
 16 17  1  0  0  0  0
 18 17  2  0  0  0  0
 18 19  1  0  0  0  0
 20 18  1  0  0  0  0
 21 20  2  0  0  0  0
 22 23  1  0  0  0  0
 22 20  1  0  0  0  0
 23 16  1  0  0  0  0
 24 23  2  0  0  0  0
 25 22  1  0  0  0  0
 26 27  1  0  0  0  0
 26 28  1  0  0  0  0
 29 34  1  0  0  0  0
 29 31  1  0  0  0  0
 29 26  1  0  0  0  0
 30 29  1  0  0  0  0
 32 33  1  0  0  0  0
 33 38  1  0  0  0  0
 34 33  2  0  0  0  0
 34 35  1  0  0  0  0
 35 36  2  0  0  0  0
 36 37  1  0  0  0  0
 36 40  1  0  0  0  0
 37 41  1  0  0  0  0
 38 42  1  0  0  0  0
 38 37  2  0  0  0  0
 39 35  1  0  0  0  0
 43 42  1  0  0  0  0
M  END
>  <minimizedAffinity>
-7.02513933

$$$$

 OpenBabel03242519183D

 43 46  0  0  1  0  0  0  0  0999 V2000
   36.8570   28.7840   42.1180 C   0  0  0  0  0  0  0  0  0  0  0  0
   35.8400   28.3160   41.3170 C   0  0  0  0  0  0  0  0  0  0  0  0
   35.2930   29.0590   40.2670 C   0  0  0  0  0  0  0  0  0  0  0  0
   35.8360   30.2930   40.0810 N   0  0  0  0  0  0  0  0  0  0  0  0
   36.8280   30.7420   40.8660 C   0  0  0  0  0  0  0  0  0  0  0  0
   37.3230   29.9990   41.8620 N   0  0  0  0  0  0  0  0  0  0  0  0
   35.4640   27.3090   41.5410 H   0  0  0  0  0  0  0  0  0  0  0  0
   34.4930   28.6560   39.6600 H   0  0  0  0  0  0  0  0  0  0  0  0
   37.4500   32.0880   40.6500 C   0  0  2  0  0  0  0  0  0  0  0  0
   37.5040   32.6370   39.2610 C   0  0  0  0  0  0  0  0  0  0  0  0
   38.7690   32.1050   39.9540 C   0  0  1  0  0  0  0  0  0  0  0  0
   37.2940   32.7690   41.5110 H   0  0  0  0  0  0  0  0  0  0  0  0
   37.4110   33.7390   39.1350 H   0  0  0  0  0  0  0  0  0  0  0  0
   37.0590   32.0160   38.4560 H   0  0  0  0  0  0  0  0  0  0  0  0
   39.1870   31.1390   39.6300 H   0  0  0  0  0  0  0  0  0  0  0  0
   39.7440   33.1280   40.2450 N   0  0  0  0  0  0  0  0  0  0  0  0
   39.7320   34.4190   39.8760 C   0  0  0  0  0  3  0  0  0  0  0  0
   40.7550   35.2700   40.2420 C   0  0  0  0  0  0  0  0  0  0  0  0
   40.7000   36.3160   39.9160 H   0  0  0  0  0  0  0  0  0  0  0  0
   41.8370   34.8420   41.0030 C   0  0  0  0  0  0  0  0  0  0  0  0
   42.7720   35.6160   41.3390 O   0  0  0  0  0  0  0  0  0  0  0  0
   41.8080   33.5350   41.3520 N   0  0  0  0  0  0  0  0  0  0  0  0
   40.8070   32.7110   40.9910 C   0  0  0  0  0  0  0  0  0  0  0  0
   40.9150   31.5030   41.3940 O   0  0  0  0  0  0  0  0  0  0  0  0
   42.6200   33.1950   41.9280 H   0  0  0  0  0  0  0  0  0  0  0  0
   37.4170   27.9940   43.1920 C   0  0  0  0  0  0  0  0  0  0  0  0
   38.0760   28.6070   43.8430 H   0  0  0  0  0  0  0  0  0  0  0  0
   36.5860   27.6340   43.8540 H   0  0  0  0  0  0  0  0  0  0  0  0
   38.1660   26.8330   42.6610 C   0  0  0  0  0  0  0  0  0  0  0  0
   37.9730   26.6930   41.5650 H   0  0  0  0  0  0  0  0  0  0  0  0
   37.8150   25.8870   43.1210 H   0  0  0  0  0  0  0  0  0  0  0  0
   39.6440   24.2670   42.8970 Cl  0  0  0  0  0  0  0  0  0  0  0  0
   40.4310   25.8080   43.0000 C   0  0  0  0  0  0  0  0  0  0  0  0
   39.6370   26.9260   42.8750 C   0  0  0  0  0  0  0  0  0  0  0  0
   40.2610   28.1630   42.9570 C   0  0  0  0  0  0  0  0  0  0  0  0
   41.6250   28.2700   43.1560 C   0  0  0  0  0  0  0  0  0  0  0  0
   42.4130   27.1210   43.2780 C   0  0  0  0  0  0  0  0  0  0  0  0
   41.7850   25.8910   43.1950 C   0  0  0  0  0  0  0  0  0  0  0  0
   39.7090   29.0880   42.8700 H   0  0  0  0  0  0  0  0  0  0  0  0
   42.0810   29.2560   43.2140 H   0  0  0  0  0  0  0  0  0  0  0  0
   43.4750   27.1720   43.4330 H   0  0  0  0  0  0  0  0  0  0  0  0
   42.4800   24.6780   43.3060 O   0  0  0  0  0  0  0  0  0  0  0  0
   43.4760   24.7480   43.0520 H   0  0  0  0  0  0  0  0  0  0  0  0
  1 26  1  0  0  0  0
  2  7  1  0  0  0  0
  2  1  2  0  0  0  0
  3  2  1  0  0  0  0
  4  3  2  0  0  0  0
  4  5  1  0  0  0  0
  5  6  2  0  0  0  0
  6  1  1  0  0  0  0
  8  3  1  0  0  0  0
  9  5  1  0  0  0  0
  9 12  1  1  0  0  0
 10 11  1  0  0  0  0
 10  9  1  0  0  0  0
 11 15  1  6  0  0  0
 11 16  1  0  0  0  0
 11  9  1  0  0  0  0
 13 10  1  0  0  0  0
 14 10  1  0  0  0  0
 16 23  1  0  0  0  0
 17 18  2  0  0  0  0
 17 16  1  0  0  0  0
 18 20  1  0  0  0  0
 19 18  1  0  0  0  0
 20 21  2  0  0  0  0
 20 22  1  0  0  0  0
 22 25  1  0  0  0  0
 23 22  1  0  0  0  0
 23 24  2  0  0  0  0
 26 27  1  0  0  0  0
 26 28  1  0  0  0  0
 29 34  1  0  0  0  0
 29 31  1  0  0  0  0
 29 26  1  0  0  0  0
 30 29  1  0  0  0  0
 32 33  1  0  0  0  0
 33 38  1  0  0  0  0
 34 35  1  0  0  0  0
 34 33  2  0  0  0  0
 35 36  2  0  0  0  0
 36 40  1  0  0  0  0
 36 37  1  0  0  0  0
 37 41  1  0  0  0  0
 38 37  2  0  0  0  0
 38 42  1  0  0  0  0
 39 35  1  0  0  0  0
 43 42  1  0  0  0  0
M  END
>  <minimizedAffinity>
-6.79968548

$$$$

 OpenBabel03242519183D

 43 46  0  0  1  0  0  0  0  0999 V2000
   37.2280   28.9910   39.0930 C   0  0  0  0  0  0  0  0  0  0  0  0
   36.9520   29.4050   37.8100 C   0  0  0  0  0  0  0  0  0  0  0  0
   37.3180   30.6610   37.3180 C   0  0  0  0  0  0  0  0  0  0  0  0
   37.9750   31.4630   38.2000 N   0  0  0  0  0  0  0  0  0  0  0  0
   38.2410   31.0520   39.4500 C   0  0  0  0  0  0  0  0  0  0  0  0
   37.8720   29.8410   39.8820 N   0  0  0  0  0  0  0  0  0  0  0  0
   36.4180   28.6910   37.1690 H   0  0  0  0  0  0  0  0  0  0  0  0
   37.0820   30.9500   36.3030 H   0  0  0  0  0  0  0  0  0  0  0  0
   38.9880   31.9190   40.4180 C   0  0  2  0  0  0  0  0  0  0  0  0
   38.4810   33.3020   40.6790 C   0  0  0  0  0  0  0  0  0  0  0  0
   39.7440   33.0640   39.8330 C   0  0  1  0  0  0  0  0  0  0  0  0
   39.4540   31.3350   41.2350 H   0  0  0  0  0  0  0  0  0  0  0  0
   38.6180   33.7180   41.7020 H   0  0  0  0  0  0  0  0  0  0  0  0
   37.5570   33.6090   40.1470 H   0  0  0  0  0  0  0  0  0  0  0  0
   39.6890   33.2090   38.7430 H   0  0  0  0  0  0  0  0  0  0  0  0
   40.9550   33.5420   40.4550 N   0  0  0  0  0  0  0  0  0  0  0  0
   41.8360   32.8550   41.2010 C   0  0  0  0  0  3  0  0  0  0  0  0
   42.9530   33.4720   41.7260 C   0  0  0  0  0  0  0  0  0  0  0  0
   43.6430   32.8690   42.3290 H   0  0  0  0  0  0  0  0  0  0  0  0
   43.2240   34.8200   41.5130 C   0  0  0  0  0  0  0  0  0  0  0  0
   44.2420   35.3850   41.9910 O   0  0  0  0  0  0  0  0  0  0  0  0
   42.3100   35.4720   40.7580 N   0  0  0  0  0  0  0  0  0  0  0  0
   41.2230   34.8640   40.2490 C   0  0  0  0  0  0  0  0  0  0  0  0
   40.4490   35.6080   39.5550 O   0  0  0  0  0  0  0  0  0  0  0  0
   42.4990   36.4930   40.5870 H   0  0  0  0  0  0  0  0  0  0  0  0
   36.8510   27.6820   39.5790 C   0  0  0  0  0  0  0  0  0  0  0  0
   35.8960   27.3420   39.1260 H   0  0  0  0  0  0  0  0  0  0  0  0
   37.6230   26.9350   39.2550 H   0  0  0  0  0  0  0  0  0  0  0  0
   36.7430   27.6750   41.0550 C   0  0  0  0  0  0  0  0  0  0  0  0
   35.6830   27.5080   41.3830 H   0  0  0  0  0  0  0  0  0  0  0  0
   37.0050   28.6660   41.4790 H   0  0  0  0  0  0  0  0  0  0  0  0
   38.4400   28.6120   43.3050 Cl  0  0  0  0  0  0  0  0  0  0  0  0
   38.4380   26.9660   42.7620 C   0  0  0  0  0  0  0  0  0  0  0  0
   37.6080   26.6540   41.7100 C   0  0  0  0  0  0  0  0  0  0  0  0
   37.6020   25.3380   41.2700 C   0  0  0  0  0  0  0  0  0  0  0  0
   38.3980   24.3770   41.8640 C   0  0  0  0  0  0  0  0  0  0  0  0
   39.2340   24.7140   42.9330 C   0  0  0  0  0  0  0  0  0  0  0  0
   39.2350   26.0290   43.3670 C   0  0  0  0  0  0  0  0  0  0  0  0
   36.9790   25.0130   40.4490 H   0  0  0  0  0  0  0  0  0  0  0  0
   38.3680   23.3530   41.4950 H   0  0  0  0  0  0  0  0  0  0  0  0
   39.8640   23.9900   43.4160 H   0  0  0  0  0  0  0  0  0  0  0  0
   40.0350   26.4740   44.4290 O   0  0  0  0  0  0  0  0  0  0  0  0
   40.2930   25.7290   45.0930 H   0  0  0  0  0  0  0  0  0  0  0  0
  1 26  1  0  0  0  0
  1  6  1  0  0  0  0
  2  1  2  0  0  0  0
  3  2  1  0  0  0  0
  3  4  2  0  0  0  0
  4  5  1  0  0  0  0
  5  6  2  0  0  0  0
  5  9  1  0  0  0  0
  7  2  1  0  0  0  0
  8  3  1  0  0  0  0
  9 10  1  0  0  0  0
  9 12  1  1  0  0  0
 10 13  1  0  0  0  0
 11 15  1  6  0  0  0
 11  9  1  0  0  0  0
 11 16  1  0  0  0  0
 11 10  1  0  0  0  0
 14 10  1  0  0  0  0
 16 17  1  0  0  0  0
 17 18  2  0  0  0  0
 18 19  1  0  0  0  0
 20 18  1  0  0  0  0
 20 21  2  0  0  0  0
 22 20  1  0  0  0  0
 23 16  1  0  0  0  0
 23 22  1  0  0  0  0
 24 23  2  0  0  0  0
 25 22  1  0  0  0  0
 26 29  1  0  0  0  0
 27 26  1  0  0  0  0
 28 26  1  0  0  0  0
 29 30  1  0  0  0  0
 29 31  1  0  0  0  0
 29 34  1  0  0  0  0
 33 32  1  0  0  0  0
 33 38  1  0  0  0  0
 34 33  2  0  0  0  0
 35 34  1  0  0  0  0
 35 36  2  0  0  0  0
 36 37  1  0  0  0  0
 37 38  2  0  0  0  0
 37 41  1  0  0  0  0
 38 42  1  0  0  0  0
 39 35  1  0  0  0  0
 40 36  1  0  0  0  0
 42 43  1  0  0  0  0
M  END
>  <minimizedAffinity>
-6.46622705

$$$$

 OpenBabel03242519183D

 43 46  0  0  1  0  0  0  0  0999 V2000
   38.0240   30.2890   41.9380 C   0  0  0  0  0  0  0  0  0  0  0  0
   36.9440   30.3450   41.0870 C   0  0  0  0  0  0  0  0  0  0  0  0
   36.7820   31.3450   40.1240 C   0  0  0  0  0  0  0  0  0  0  0  0
   37.7730   32.2770   40.0790 N   0  0  0  0  0  0  0  0  0  0  0  0
   38.8240   32.2160   40.9130 C   0  0  0  0  0  0  0  0  0  0  0  0
   38.9410   31.2420   41.8210 N   0  0  0  0  0  0  0  0  0  0  0  0
   36.1940   29.5510   41.1960 H   0  0  0  0  0  0  0  0  0  0  0  0
   35.9170   31.3550   39.4740 H   0  0  0  0  0  0  0  0  0  0  0  0
   39.9330   33.2220   40.8500 C   0  0  2  0  0  0  0  0  0  0  0  0
   39.7470   34.4400   40.0020 C   0  0  0  0  0  0  0  0  0  0  0  0
   40.6830   33.3010   39.5640 C   0  0  1  0  0  0  0  0  0  0  0  0
   40.4970   33.2890   41.8020 H   0  0  0  0  0  0  0  0  0  0  0  0
   40.2170   35.3880   40.3480 H   0  0  0  0  0  0  0  0  0  0  0  0
   38.7780   34.5420   39.4710 H   0  0  0  0  0  0  0  0  0  0  0  0
   40.3660   32.6360   38.7470 H   0  0  0  0  0  0  0  0  0  0  0  0
   42.0780   33.6730   39.5460 N   0  0  0  0  0  0  0  0  0  0  0  0
   42.9260   33.7780   40.5820 C   0  0  0  0  0  3  0  0  0  0  0  0
   44.2400   34.1500   40.3870 C   0  0  0  0  0  0  0  0  0  0  0  0
   44.8940   34.2220   41.2650 H   0  0  0  0  0  0  0  0  0  0  0  0
   44.7510   34.4310   39.1250 C   0  0  0  0  0  0  0  0  0  0  0  0
   45.9490   34.7710   38.9430 O   0  0  0  0  0  0  0  0  0  0  0  0
   43.8620   34.3130   38.1110 N   0  0  0  0  0  0  0  0  0  0  0  0
   42.5820   33.9500   38.3090 C   0  0  0  0  0  0  0  0  0  0  0  0
   41.8590   33.8800   37.2560 O   0  0  0  0  0  0  0  0  0  0  0  0
   44.2310   34.5220   37.1480 H   0  0  0  0  0  0  0  0  0  0  0  0
   38.1800   29.2380   42.9190 C   0  0  0  0  0  0  0  0  0  0  0  0
   38.4200   29.6530   43.9210 H   0  0  0  0  0  0  0  0  0  0  0  0
   37.2020   28.7010   43.0390 H   0  0  0  0  0  0  0  0  0  0  0  0
   39.2250   28.2770   42.5050 C   0  0  0  0  0  0  0  0  0  0  0  0
   40.0750   28.2610   43.2380 H   0  0  0  0  0  0  0  0  0  0  0  0
   39.6970   28.5870   41.5500 H   0  0  0  0  0  0  0  0  0  0  0  0
   40.8400   26.1130   43.7430 Cl  0  0  0  0  0  0  0  0  0  0  0  0
   39.3800   25.7990   42.8610 C   0  0  0  0  0  0  0  0  0  0  0  0
   38.7200   26.8860   42.3350 C   0  0  0  0  0  0  0  0  0  0  0  0
   37.5520   26.6410   41.6270 C   0  0  0  0  0  0  0  0  0  0  0  0
   37.0680   25.3580   41.4570 C   0  0  0  0  0  0  0  0  0  0  0  0
   37.7530   24.2670   42.0020 C   0  0  0  0  0  0  0  0  0  0  0  0
   38.9180   24.5170   42.7070 C   0  0  0  0  0  0  0  0  0  0  0  0
   36.9760   27.4400   41.1820 H   0  0  0  0  0  0  0  0  0  0  0  0
   36.1480   25.2020   40.8980 H   0  0  0  0  0  0  0  0  0  0  0  0
   37.4020   23.2580   41.8870 H   0  0  0  0  0  0  0  0  0  0  0  0
   39.6810   23.4980   43.2930 O   0  0  0  0  0  0  0  0  0  0  0  0
   39.1400   22.6480   43.5100 H   0  0  0  0  0  0  0  0  0  0  0  0
  1 26  1  0  0  0  0
  2  7  1  0  0  0  0
  2  1  2  0  0  0  0
  3  2  1  0  0  0  0
  4  3  2  0  0  0  0
  4  5  1  0  0  0  0
  5  6  2  0  0  0  0
  6  1  1  0  0  0  0
  8  3  1  0  0  0  0
  9  5  1  0  0  0  0
  9 12  1  1  0  0  0
 10 13  1  0  0  0  0
 10  9  1  0  0  0  0
 11 15  1  6  0  0  0
 11 10  1  0  0  0  0
 11  9  1  0  0  0  0
 14 10  1  0  0  0  0
 16 11  1  0  0  0  0
 16 17  1  0  0  0  0
 18 17  2  0  0  0  0
 18 19  1  0  0  0  0
 20 18  1  0  0  0  0
 21 20  2  0  0  0  0
 22 23  1  0  0  0  0
 22 20  1  0  0  0  0
 23 16  1  0  0  0  0
 24 23  2  0  0  0  0
 25 22  1  0  0  0  0
 26 28  1  0  0  0  0
 26 27  1  0  0  0  0
 29 26  1  0  0  0  0
 29 30  1  0  0  0  0
 31 29  1  0  0  0  0
 33 32  1  0  0  0  0
 34 29  1  0  0  0  0
 34 33  2  0  0  0  0
 35 34  1  0  0  0  0
 36 35  2  0  0  0  0
 36 37  1  0  0  0  0
 37 38  2  0  0  0  0
 38 33  1  0  0  0  0
 38 42  1  0  0  0  0
 39 35  1  0  0  0  0
 40 36  1  0  0  0  0
 41 37  1  0  0  0  0
 42 43  1  0  0  0  0
M  END
>  <minimizedAffinity>
-6.43522358

$$$$

 OpenBabel03242519183D

 43 46  0  0  1  0  0  0  0  0999 V2000
   36.9220   27.0330   41.1590 C   0  0  0  0  0  0  0  0  0  0  0  0
   36.8860   26.1060   40.1430 C   0  0  0  0  0  0  0  0  0  0  0  0
   36.8740   26.4570   38.7900 C   0  0  0  0  0  0  0  0  0  0  0  0
   36.9010   27.7940   38.5340 N   0  0  0  0  0  0  0  0  0  0  0  0
   36.9370   28.6930   39.5310 C   0  0  0  0  0  0  0  0  0  0  0  0
   36.9460   28.3140   40.8140 N   0  0  0  0  0  0  0  0  0  0  0  0
   36.8660   25.0500   40.4440 H   0  0  0  0  0  0  0  0  0  0  0  0
   36.8440   25.6980   38.0200 H   0  0  0  0  0  0  0  0  0  0  0  0
   36.9950   30.1650   39.2570 C   0  0  2  0  0  0  0  0  0  0  0  0
   37.2710   30.6220   37.8610 C   0  0  0  0  0  0  0  0  0  0  0  0
   38.3420   30.7300   38.9590 C   0  0  1  0  0  0  0  0  0  0  0  0
   36.3070   30.7420   39.9060 H   0  0  0  0  0  0  0  0  0  0  0  0
   36.7870   31.5650   37.5200 H   0  0  0  0  0  0  0  0  0  0  0  0
   37.4020   29.8360   37.0890 H   0  0  0  0  0  0  0  0  0  0  0  0
   39.1950   30.0330   38.9400 H   0  0  0  0  0  0  0  0  0  0  0  0
   38.6680   32.0880   39.3180 N   0  0  0  0  0  0  0  0  0  0  0  0
   37.9590   32.9440   40.0730 C   0  0  0  0  0  3  0  0  0  0  0  0
   38.4200   34.2210   40.3200 C   0  0  0  0  0  0  0  0  0  0  0  0
   37.8050   34.8830   40.9420 H   0  0  0  0  0  0  0  0  0  0  0  0
   39.6280   34.6840   39.8090 C   0  0  0  0  0  0  0  0  0  0  0  0
   40.0510   35.8480   40.0330 O   0  0  0  0  0  0  0  0  0  0  0  0
   40.3080   33.7900   39.0560 N   0  0  0  0  0  0  0  0  0  0  0  0
   39.8520   32.5460   38.8180 C   0  0  0  0  0  0  0  0  0  0  0  0
   40.6040   31.8130   38.0890 O   0  0  0  0  0  0  0  0  0  0  0  0
   41.2250   34.1240   38.6610 H   0  0  0  0  0  0  0  0  0  0  0  0
   36.9460   26.6490   42.5530 C   0  0  0  0  0  0  0  0  0  0  0  0
   35.9200   26.4850   42.9450 H   0  0  0  0  0  0  0  0  0  0  0  0
   37.4710   25.6620   42.6520 H   0  0  0  0  0  0  0  0  0  0  0  0
   37.6440   27.6650   43.3720 C   0  0  0  0  0  0  0  0  0  0  0  0
   37.2880   27.6440   44.4360 H   0  0  0  0  0  0  0  0  0  0  0  0
   37.4030   28.6910   43.0260 H   0  0  0  0  0  0  0  0  0  0  0  0
   39.2150   30.0310   42.5010 Cl  0  0  0  0  0  0  0  0  0  0  0  0
   39.9620   28.5430   42.9820 C   0  0  0  0  0  0  0  0  0  0  0  0
   39.1270   27.5180   43.3650 C   0  0  0  0  0  0  0  0  0  0  0  0
   39.7190   26.3230   43.7500 C   0  0  0  0  0  0  0  0  0  0  0  0
   41.0910   26.1670   43.7500 C   0  0  0  0  0  0  0  0  0  0  0  0
   41.9230   27.2210   43.3580 C   0  0  0  0  0  0  0  0  0  0  0  0
   41.3260   28.4100   42.9750 C   0  0  0  0  0  0  0  0  0  0  0  0
   39.1320   25.4710   44.0640 H   0  0  0  0  0  0  0  0  0  0  0  0
   41.5220   25.2160   44.0600 H   0  0  0  0  0  0  0  0  0  0  0  0
   42.9930   27.1300   43.3480 H   0  0  0  0  0  0  0  0  0  0  0  0
   42.0650   29.5290   42.5640 O   0  0  0  0  0  0  0  0  0  0  0  0
   43.0250   29.5500   42.9370 H   0  0  0  0  0  0  0  0  0  0  0  0
  1 26  1  0  0  0  0
  2  7  1  0  0  0  0
  2  1  2  0  0  0  0
  3  2  1  0  0  0  0
  4  3  2  0  0  0  0
  4  5  1  0  0  0  0
  5  6  2  0  0  0  0
  6  1  1  0  0  0  0
  8  3  1  0  0  0  0
  9  5  1  0  0  0  0
  9 12  1  1  0  0  0
 10 11  1  0  0  0  0
 10  9  1  0  0  0  0
 11 15  1  6  0  0  0
 11  9  1  0  0  0  0
 11 16  1  0  0  0  0
 13 10  1  0  0  0  0
 14 10  1  0  0  0  0
 16 17  1  0  0  0  0
 17 18  2  0  0  0  0
 18 19  1  0  0  0  0
 20 21  2  0  0  0  0
 20 18  1  0  0  0  0
 22 20  1  0  0  0  0
 23 22  1  0  0  0  0
 23 16  1  0  0  0  0
 24 23  2  0  0  0  0
 25 22  1  0  0  0  0
 26 28  1  0  0  0  0
 26 27  1  0  0  0  0
 26 29  1  0  0  0  0
 29 30  1  0  0  0  0
 31 29  1  0  0  0  0
 32 33  1  0  0  0  0
 33 34  1  0  0  0  0
 34 29  1  0  0  0  0
 34 35  2  0  0  0  0
 35 36  1  0  0  0  0
 35 39  1  0  0  0  0
 36 40  1  0  0  0  0
 37 36  2  0  0  0  0
 38 33  2  0  0  0  0
 38 37  1  0  0  0  0
 41 37  1  0  0  0  0
 42 43  1  0  0  0  0
 42 38  1  0  0  0  0
M  END
>  <minimizedAffinity>
-6.31618738

$$$$

 OpenBabel03242519183D

 43 46  0  0  1  0  0  0  0  0999 V2000
   36.7100   28.5490   41.8000 C   0  0  0  0  0  0  0  0  0  0  0  0
   36.8260   27.6870   42.8670 C   0  0  0  0  0  0  0  0  0  0  0  0
   37.9990   27.5520   43.6150 C   0  0  0  0  0  0  0  0  0  0  0  0
   39.0370   28.3370   43.2180 N   0  0  0  0  0  0  0  0  0  0  0  0
   38.9170   29.1760   42.1760 C   0  0  0  0  0  0  0  0  0  0  0  0
   37.7750   29.2750   41.4860 N   0  0  0  0  0  0  0  0  0  0  0  0
   35.9370   27.0920   43.1150 H   0  0  0  0  0  0  0  0  0  0  0  0
   38.0510   26.8620   44.4470 H   0  0  0  0  0  0  0  0  0  0  0  0
   40.0460   30.0640   41.7500 C   0  0  2  0  0  0  0  0  0  0  0  0
   40.4460   31.1930   42.6460 C   0  0  0  0  0  0  0  0  0  0  0  0
   39.6800   31.4490   41.3370 C   0  0  1  0  0  0  0  0  0  0  0  0
   40.8150   29.5190   41.1660 H   0  0  0  0  0  0  0  0  0  0  0  0
   41.5220   31.4740   42.6760 H   0  0  0  0  0  0  0  0  0  0  0  0
   39.8870   31.3030   43.5980 H   0  0  0  0  0  0  0  0  0  0  0  0
   38.6170   31.7330   41.3890 H   0  0  0  0  0  0  0  0  0  0  0  0
   40.4530   32.1510   40.3420 N   0  0  0  0  0  0  0  0  0  0  0  0
   41.5510   31.7310   39.6910 C   0  0  0  0  0  3  0  0  0  0  0  0
   42.1750   32.5370   38.7610 C   0  0  0  0  0  0  0  0  0  0  0  0
   43.0690   32.1500   38.2560 H   0  0  0  0  0  0  0  0  0  0  0  0
   41.7070   33.8090   38.4510 C   0  0  0  0  0  0  0  0  0  0  0  0
   42.2740   34.5470   37.6030 O   0  0  0  0  0  0  0  0  0  0  0  0
   40.6000   34.1900   39.1290 N   0  0  0  0  0  0  0  0  0  0  0  0
   39.9970   33.3990   40.0360 C   0  0  0  0  0  0  0  0  0  0  0  0
   38.9610   33.8940   40.5970 O   0  0  0  0  0  0  0  0  0  0  0  0
   40.2320   35.1510   38.9070 H   0  0  0  0  0  0  0  0  0  0  0  0
   35.4830   28.6830   41.0470 C   0  0  0  0  0  0  0  0  0  0  0  0
   35.2620   27.7610   40.4680 H   0  0  0  0  0  0  0  0  0  0  0  0
   34.6260   28.8060   41.7610 H   0  0  0  0  0  0  0  0  0  0  0  0
   35.5430   29.8500   40.1390 C   0  0  0  0  0  0  0  0  0  0  0  0
   36.5040   30.4150   40.2680 H   0  0  0  0  0  0  0  0  0  0  0  0
   34.7570   30.5920   40.3900 H   0  0  0  0  0  0  0  0  0  0  0  0
   37.7030   30.7500   38.3100 Cl  0  0  0  0  0  0  0  0  0  0  0  0
   36.3260   29.8540   37.7560 C   0  0  0  0  0  0  0  0  0  0  0  0
   35.3920   29.4930   38.7010 C   0  0  0  0  0  0  0  0  0  0  0  0
   34.2880   28.7770   38.2640 C   0  0  0  0  0  0  0  0  0  0  0  0
   34.1300   28.4370   36.9340 C   0  0  0  0  0  0  0  0  0  0  0  0
   35.0910   28.8120   35.9900 C   0  0  0  0  0  0  0  0  0  0  0  0
   36.1910   29.5270   36.4320 C   0  0  0  0  0  0  0  0  0  0  0  0
   33.5090   28.4570   38.9430 H   0  0  0  0  0  0  0  0  0  0  0  0
   33.2510   27.8730   36.6250 H   0  0  0  0  0  0  0  0  0  0  0  0
   34.9970   28.5630   34.9490 H   0  0  0  0  0  0  0  0  0  0  0  0
   37.2120   29.9530   35.5710 O   0  0  0  0  0  0  0  0  0  0  0  0
   37.2990   29.3820   34.7180 H   0  0  0  0  0  0  0  0  0  0  0  0
  1  2  1  0  0  0  0
  2  7  1  0  0  0  0
  2  3  2  0  0  0  0
  3  8  1  0  0  0  0
  4  3  1  0  0  0  0
  5  4  2  0  0  0  0
  6  1  2  0  0  0  0
  6  5  1  0  0  0  0
  9 12  1  6  0  0  0
  9  5  1  0  0  0  0
  9 10  1  0  0  0  0
 10 13  1  0  0  0  0
 10 14  1  0  0  0  0
 11 15  1  1  0  0  0
 11  9  1  0  0  0  0
 11 10  1  0  0  0  0
 16 11  1  0  0  0  0
 17 16  1  0  0  0  0
 18 17  2  0  0  0  0
 19 18  1  0  0  0  0
 20 18  1  0  0  0  0
 20 22  1  0  0  0  0
 21 20  2  0  0  0  0
 22 23  1  0  0  0  0
 23 16  1  0  0  0  0
 23 24  2  0  0  0  0
 25 22  1  0  0  0  0
 26 28  1  0  0  0  0
 26  1  1  0  0  0  0
 27 26  1  0  0  0  0
 29 30  1  0  0  0  0
 29 31  1  0  0  0  0
 29 26  1  0  0  0  0
 33 32  1  0  0  0  0
 33 34  1  0  0  0  0
 34 29  1  0  0  0  0
 35 34  2  0  0  0  0
 35 39  1  0  0  0  0
 36 35  1  0  0  0  0
 37 38  1  0  0  0  0
 37 36  2  0  0  0  0
 38 33  2  0  0  0  0
 40 36  1  0  0  0  0
 41 37  1  0  0  0  0
 42 38  1  0  0  0  0
 43 42  1  0  0  0  0
M  END
>  <minimizedAffinity>
-6.29004574

$$$$

 OpenBabel03242519183D

 43 46  0  0  1  0  0  0  0  0999 V2000
   36.0720   26.2220   38.3900 C   0  0  0  0  0  0  0  0  0  0  0  0
   35.5180   25.1870   37.6710 C   0  0  0  0  0  0  0  0  0  0  0  0
   35.7610   23.8410   37.9610 C   0  0  0  0  0  0  0  0  0  0  0  0
   36.5920   23.6120   39.0140 N   0  0  0  0  0  0  0  0  0  0  0  0
   37.1280   24.6270   39.7110 C   0  0  0  0  0  0  0  0  0  0  0  0
   36.8700   25.9020   39.4000 N   0  0  0  0  0  0  0  0  0  0  0  0
   34.8590   25.4660   36.8380 H   0  0  0  0  0  0  0  0  0  0  0  0
   35.3070   23.0550   37.3710 H   0  0  0  0  0  0  0  0  0  0  0  0
   38.0220   24.3830   40.8890 C   0  0  2  0  0  0  0  0  0  0  0  0
   37.4100   24.3290   42.2520 C   0  0  0  0  0  0  0  0  0  0  0  0
   38.2440   25.5400   41.8030 C   0  0  1  0  0  0  0  0  0  0  0  0
   38.8810   23.7280   40.6390 H   0  0  0  0  0  0  0  0  0  0  0  0
   37.8650   23.6390   42.9970 H   0  0  0  0  0  0  0  0  0  0  0  0
   36.3100   24.4580   42.3160 H   0  0  0  0  0  0  0  0  0  0  0  0
   37.7280   26.4830   41.5660 H   0  0  0  0  0  0  0  0  0  0  0  0
   39.4880   25.6850   42.5200 N   0  0  0  0  0  0  0  0  0  0  0  0
   40.6500   25.0440   42.3120 C   0  0  0  0  0  3  0  0  0  0  0  0
   41.7530   25.3030   43.0990 C   0  0  0  0  0  0  0  0  0  0  0  0
   42.6790   24.7550   42.8890 H   0  0  0  0  0  0  0  0  0  0  0  0
   41.7220   26.2300   44.1350 C   0  0  0  0  0  0  0  0  0  0  0  0
   42.7270   26.4690   44.8550 O   0  0  0  0  0  0  0  0  0  0  0  0
   40.5320   26.8510   44.3090 N   0  0  0  0  0  0  0  0  0  0  0  0
   39.4610   26.5930   43.5380 C   0  0  0  0  0  0  0  0  0  0  0  0
   38.4050   27.2570   43.8200 O   0  0  0  0  0  0  0  0  0  0  0  0
   40.4910   27.5560   45.0890 H   0  0  0  0  0  0  0  0  0  0  0  0
   35.7970   27.6080   38.0820 C   0  0  0  0  0  0  0  0  0  0  0  0
   36.3640   27.9420   37.1870 H   0  0  0  0  0  0  0  0  0  0  0  0
   34.7140   27.7160   37.8140 H   0  0  0  0  0  0  0  0  0  0  0  0
   36.1120   28.4790   39.2360 C   0  0  0  0  0  0  0  0  0  0  0  0
   36.8660   27.9980   39.9140 H   0  0  0  0  0  0  0  0  0  0  0  0
   35.2210   28.6240   39.8810 H   0  0  0  0  0  0  0  0  0  0  0  0
   36.0380   30.5890   41.3250 Cl  0  0  0  0  0  0  0  0  0  0  0  0
   36.6330   30.8840   39.7240 C   0  0  0  0  0  0  0  0  0  0  0  0
   36.6170   29.8250   38.8450 C   0  0  0  0  0  0  0  0  0  0  0  0
   37.0910   30.0550   37.5610 C   0  0  0  0  0  0  0  0  0  0  0  0
   37.5630   31.2960   37.1790 C   0  0  0  0  0  0  0  0  0  0  0  0
   37.5730   32.3590   38.0890 C   0  0  0  0  0  0  0  0  0  0  0  0
   37.0980   32.1230   39.3670 C   0  0  0  0  0  0  0  0  0  0  0  0
   37.1110   29.2760   36.8120 H   0  0  0  0  0  0  0  0  0  0  0  0
   37.9300   31.4410   36.1650 H   0  0  0  0  0  0  0  0  0  0  0  0
   37.9330   33.3350   37.8220 H   0  0  0  0  0  0  0  0  0  0  0  0
   37.0630   33.1170   40.3560 O   0  0  0  0  0  0  0  0  0  0  0  0
   37.7510   33.8700   40.2100 H   0  0  0  0  0  0  0  0  0  0  0  0
  1  6  1  0  0  0  0
  2  3  1  0  0  0  0
  2  1  2  0  0  0  0
  3  4  2  0  0  0  0
  4  5  1  0  0  0  0
  5  9  1  0  0  0  0
  6  5  2  0  0  0  0
  7  2  1  0  0  0  0
  8  3  1  0  0  0  0
  9 12  1  6  0  0  0
  9 11  1  0  0  0  0
  9 10  1  0  0  0  0
 10 14  1  0  0  0  0
 10 13  1  0  0  0  0
 11 15  1  6  0  0  0
 11 10  1  0  0  0  0
 11 16  1  0  0  0  0
 16 23  1  0  0  0  0
 17 16  1  0  0  0  0
 17 18  2  0  0  0  0
 18 20  1  0  0  0  0
 19 18  1  0  0  0  0
 20 22  1  0  0  0  0
 20 21  2  0  0  0  0
 22 25  1  0  0  0  0
 23 24  2  0  0  0  0
 23 22  1  0  0  0  0
 26  1  1  0  0  0  0
 26 29  1  0  0  0  0
 27 26  1  0  0  0  0
 28 26  1  0  0  0  0
 29 31  1  0  0  0  0
 29 30  1  0  0  0  0
 33 32  1  0  0  0  0
 34 29  1  0  0  0  0
 34 33  2  0  0  0  0
 35 34  1  0  0  0  0
 36 35  2  0  0  0  0
 36 37  1  0  0  0  0
 37 38  2  0  0  0  0
 38 33  1  0  0  0  0
 38 42  1  0  0  0  0
 39 35  1  0  0  0  0
 40 36  1  0  0  0  0
 41 37  1  0  0  0  0
 43 42  1  0  0  0  0
M  END
>  <minimizedAffinity>
-6.19902754

$$$$

 OpenBabel03242519183D

 43 46  0  0  1  0  0  0  0  0999 V2000
   42.1940   30.4830   38.1800 C   0  0  0  0  0  0  0  0  0  0  0  0
   43.0090   29.7090   37.3860 C   0  0  0  0  0  0  0  0  0  0  0  0
   42.9080   28.3160   37.3170 C   0  0  0  0  0  0  0  0  0  0  0  0
   41.9380   27.7630   38.0950 N   0  0  0  0  0  0  0  0  0  0  0  0
   41.1470   28.5250   38.8680 C   0  0  0  0  0  0  0  0  0  0  0  0
   41.2770   29.8550   38.9050 N   0  0  0  0  0  0  0  0  0  0  0  0
   43.7630   30.2420   36.7910 H   0  0  0  0  0  0  0  0  0  0  0  0
   43.5680   27.7430   36.6800 H   0  0  0  0  0  0  0  0  0  0  0  0
   40.0590   27.9250   39.7060 C   0  0  2  0  0  0  0  0  0  0  0  0
   38.6450   28.0380   39.2320 C   0  0  0  0  0  0  0  0  0  0  0  0
   39.1590   28.8850   40.4070 C   0  0  1  0  0  0  0  0  0  0  0  0
   40.3930   27.0170   40.2450 H   0  0  0  0  0  0  0  0  0  0  0  0
   37.9530   27.1990   39.4660 H   0  0  0  0  0  0  0  0  0  0  0  0
   38.4780   28.5510   38.2620 H   0  0  0  0  0  0  0  0  0  0  0  0
   39.3380   29.9600   40.2510 H   0  0  0  0  0  0  0  0  0  0  0  0
   38.5580   28.5420   41.6740 N   0  0  0  0  0  0  0  0  0  0  0  0
   38.8230   27.4880   42.4640 C   0  0  0  0  0  3  0  0  0  0  0  0
   38.1490   27.3070   43.6540 C   0  0  0  0  0  0  0  0  0  0  0  0
   38.4010   26.4310   44.2640 H   0  0  0  0  0  0  0  0  0  0  0  0
   37.1730   28.1950   44.0940 C   0  0  0  0  0  0  0  0  0  0  0  0
   36.5560   28.0320   45.1800 O   0  0  0  0  0  0  0  0  0  0  0  0
   36.9380   29.2400   43.2680 N   0  0  0  0  0  0  0  0  0  0  0  0
   37.6000   29.4100   42.1080 C   0  0  0  0  0  0  0  0  0  0  0  0
   37.2710   30.4440   41.4330 O   0  0  0  0  0  0  0  0  0  0  0  0
   36.2020   29.9210   43.5860 H   0  0  0  0  0  0  0  0  0  0  0  0
   42.3070   31.9240   38.2280 C   0  0  0  0  0  0  0  0  0  0  0  0
   42.5330   32.2770   39.2560 H   0  0  0  0  0  0  0  0  0  0  0  0
   43.1780   32.2440   37.5970 H   0  0  0  0  0  0  0  0  0  0  0  0
   41.0710   32.5690   37.7300 C   0  0  0  0  0  0  0  0  0  0  0  0
   40.3880   31.8200   37.2490 H   0  0  0  0  0  0  0  0  0  0  0  0
   41.2970   33.2900   36.9170 H   0  0  0  0  0  0  0  0  0  0  0  0
   38.3130   31.6140   38.2800 Cl  0  0  0  0  0  0  0  0  0  0  0  0
   39.0250   32.9460   39.1310 C   0  0  0  0  0  0  0  0  0  0  0  0
   40.3110   33.2940   38.7860 C   0  0  0  0  0  0  0  0  0  0  0  0
   40.8870   34.3600   39.4630 C   0  0  0  0  0  0  0  0  0  0  0  0
   40.1980   35.0460   40.4450 C   0  0  0  0  0  0  0  0  0  0  0  0
   38.8920   34.6750   40.7820 C   0  0  0  0  0  0  0  0  0  0  0  0
   38.3240   33.6110   40.1030 C   0  0  0  0  0  0  0  0  0  0  0  0
   41.8920   34.6960   39.2500 H   0  0  0  0  0  0  0  0  0  0  0  0
   40.6800   35.8760   40.9570 H   0  0  0  0  0  0  0  0  0  0  0  0
   38.3310   35.1880   41.5400 H   0  0  0  0  0  0  0  0  0  0  0  0
   37.0220   33.1580   40.3610 O   0  0  0  0  0  0  0  0  0  0  0  0
   36.6870   33.3800   41.3090 H   0  0  0  0  0  0  0  0  0  0  0  0
  1 26  1  0  0  0  0
  1  6  1  0  0  0  0
  2  1  2  0  0  0  0
  3  2  1  0  0  0  0
  3  4  2  0  0  0  0
  4  5  1  0  0  0  0
  5  6  2  0  0  0  0
  5  9  1  0  0  0  0
  7  2  1  0  0  0  0
  8  3  1  0  0  0  0
  9 12  1  1  0  0  0
  9 11  1  0  0  0  0
 10 13  1  0  0  0  0
 10  9  1  0  0  0  0
 10 11  1  0  0  0  0
 11 15  1  6  0  0  0
 11 16  1  0  0  0  0
 14 10  1  0  0  0  0
 16 23  1  0  0  0  0
 16 17  1  0  0  0  0
 17 18  2  0  0  0  0
 18 20  1  0  0  0  0
 18 19  1  0  0  0  0
 20 21  2  0  0  0  0
 22 25  1  0  0  0  0
 22 20  1  0  0  0  0
 23 22  1  0  0  0  0
 24 23  2  0  0  0  0
 26 27  1  0  0  0  0
 28 26  1  0  0  0  0
 29 26  1  0  0  0  0
 29 34  1  0  0  0  0
 30 29  1  0  0  0  0
 31 29  1  0  0  0  0
 32 33  1  0  0  0  0
 33 38  1  0  0  0  0
 34 33  2  0  0  0  0
 34 35  1  0  0  0  0
 35 36  2  0  0  0  0
 36 37  1  0  0  0  0
 36 40  1  0  0  0  0
 37 41  1  0  0  0  0
 38 42  1  0  0  0  0
 38 37  2  0  0  0  0
 39 35  1  0  0  0  0
 42 43  1  0  0  0  0
M  END
>  <minimizedAffinity>
-6.14522552

$$$$
