
 OpenBabel03252506183D

 24 25  0  0  0  0  0  0  0  0999 V2000
   44.8680   35.7460   43.6360 C   0  0  0  0  0  0  0  0  0  0  0  0
   44.4960   35.6230   42.2850 C   0  0  0  0  0  0  0  0  0  0  0  0
   44.5120   34.3640   41.7010 C   0  0  0  0  0  0  0  0  0  0  0  0
   44.8870   33.3140   42.4670 N   0  0  0  0  0  0  0  0  0  0  0  0
   45.2400   33.4560   43.7640 C   0  0  0  0  0  0  0  0  0  0  0  0
   45.2290   34.6570   44.3370 N   0  0  0  0  0  0  0  0  0  0  0  0
   44.2170   36.5270   41.7780 H   0  0  0  0  0  0  0  0  0  0  0  0
   44.2260   34.2680   40.6610 H   0  0  0  0  0  0  0  0  0  0  0  0
   45.6070   32.2520   44.4240 N   0  0  0  0  0  0  0  0  0  0  0  0
   45.3280   31.0210   43.9090 C   0  0  0  0  0  3  0  0  0  0  0  0
   45.6970   29.8650   44.5730 C   0  0  0  0  0  0  0  0  0  0  0  0
   45.4500   28.9040   44.1170 H   0  0  0  0  0  0  0  0  0  0  0  0
   46.3600   29.9550   45.7800 C   0  0  0  0  0  0  0  0  0  0  0  0
   46.6820   28.8950   46.3570 O   0  0  0  0  0  0  0  0  0  0  0  0
   46.6170   31.2040   46.2540 N   0  0  0  0  0  0  0  0  0  0  0  0
   46.2530   32.3200   45.5970 C   0  0  0  0  0  0  0  0  0  0  0  0
   46.5640   33.4110   46.1720 O   0  0  0  0  0  0  0  0  0  0  0  0
   47.1290   31.1680   47.1840 H   0  0  0  0  0  0  0  0  0  0  0  0
   44.8560   37.0760   44.2710 C   0  0  0  0  0  3  0  0  0  0  0  0
   45.3670   38.0790   43.5680 C   0  0  0  0  0  3  0  0  0  0  0  0
   45.3860   39.4510   44.1550 C   0  0  0  0  0  0  0  0  0  0  0  0
   45.4360   40.1640   43.2850 H   0  0  0  0  0  0  0  0  0  0  0  0
   44.5280   39.6480   44.8130 H   0  0  0  0  0  0  0  0  0  0  0  0
   46.3110   39.5650   44.7520 H   0  0  0  0  0  0  0  0  0  0  0  0
  1 19  1  0  0  0  0
  1  6  1  0  0  0  0
  2  1  2  0  0  0  0
  3  2  1  0  0  0  0
  3  4  2  0  0  0  0
  4  5  1  0  0  0  0
  5  6  2  0  0  0  0
  5  9  1  0  0  0  0
  7  2  1  0  0  0  0
  8  3  1  0  0  0  0
  9 16  1  0  0  0  0
 10  9  1  0  0  0  0
 10 11  2  0  0  0  0
 11 13  1  0  0  0  0
 12 11  1  0  0  0  0
 13 15  1  0  0  0  0
 13 14  2  0  0  0  0
 15 18  1  0  0  0  0
 16 17  2  0  0  0  0
 16 15  1  0  0  0  0
 20 21  1  0  0  0  0
 20 19  2  0  0  0  0
 21 24  1  0  0  0  0
 21 23  1  0  0  0  0
 22 21  1  0  0  0  0
M  END
>  <minimizedAffinity>
-3.8136003

>  <minimizedRMSD>
0.577790439

$$$$
