
 OpenBabel03252503023D

 34 35  0  0  0  0  0  0  0  0999 V2000
   43.5770   33.2430   41.9070 C   0  0  0  0  0  0  0  0  0  0  0  0
   44.1720   34.4820   42.1250 C   0  0  0  0  0  0  0  0  0  0  0  0
   43.6440   35.6500   41.5820 C   0  0  0  0  0  0  0  0  0  0  0  0
   42.5160   35.5220   40.8260 N   0  0  0  0  0  0  0  0  0  0  0  0
   41.9650   34.3250   40.6320 C   0  0  0  0  0  0  0  0  0  0  0  0
   42.4500   33.1880   41.1390 N   0  0  0  0  0  0  0  0  0  0  0  0
   44.0500   32.3950   42.3620 H   0  0  0  0  0  0  0  0  0  0  0  0
   44.0950   36.6150   41.7440 H   0  0  0  0  0  0  0  0  0  0  0  0
   40.7800   34.0900   39.8530 N   0  0  0  0  0  0  0  0  0  0  0  0
   40.9080   34.4450   38.5610 C   0  0  0  0  0  3  0  0  0  0  0  0
   39.7900   34.2430   37.7470 C   0  0  0  0  0  0  0  0  0  0  0  0
   39.7850   34.4970   36.6770 H   0  0  0  0  0  0  0  0  0  0  0  0
   38.6430   33.6980   38.3270 C   0  0  0  0  0  0  0  0  0  0  0  0
   37.6450   33.5200   37.5900 O   0  0  0  0  0  0  0  0  0  0  0  0
   38.5640   33.3580   39.6360 N   0  0  0  0  0  0  0  0  0  0  0  0
   39.6640   33.5660   40.3920 C   0  0  0  0  0  0  0  0  0  0  0  0
   39.6880   33.2830   41.6120 O   0  0  0  0  0  0  0  0  0  0  0  0
   37.6940   32.9530   40.0380 H   0  0  0  0  0  0  0  0  0  0  0  0
   45.6700   34.5770   43.1410 S   0  0  0  0  0  0  0  0  0  0  0  0
   45.2220   34.4340   44.8730 C   0  0  0  0  0  0  0  0  0  0  0  0
   44.1760   34.7640   44.9910 H   0  0  0  0  0  0  0  0  0  0  0  0
   45.9380   35.0200   45.5150 H   0  0  0  0  0  0  0  0  0  0  0  0
   45.4150   33.0310   45.2480 N   0  0  0  0  0  0  0  0  0  0  0  0
   44.5410   32.5280   44.9840 H   0  0  0  0  0  0  0  0  0  0  0  0
   45.7410   32.8420   46.9230 S   0  0  0  0  0  0  0  0  0  0  0  0
   47.1020   33.3290   47.2970 O   0  0  0  0  0  0  0  0  0  0  0  0
   47.9400   32.9360   46.9410 H   0  0  0  0  0  0  0  0  0  0  0  0
   44.6750   33.6560   47.6380 O   0  0  0  0  0  0  0  0  0  0  0  0
   44.8370   34.5810   47.9400 H   0  0  0  0  0  0  0  0  0  0  0  0
   45.5110   31.2500   47.3710 O   0  0  0  0  0  0  0  0  0  0  0  0
   45.0050   31.1410   48.6520 C   0  0  0  0  0  0  0  0  0  0  0  0
   45.8710   31.0870   49.3400 H   0  0  0  0  0  0  0  0  0  0  0  0
   44.3030   31.9720   48.8880 H   0  0  0  0  0  0  0  0  0  0  0  0
   44.4460   30.1840   48.7380 H   0  0  0  0  0  0  0  0  0  0  0  0
  1  2  1  0  0  0  0
  1  7  1  0  0  0  0
  2 19  1  0  0  0  0
  3  8  1  0  0  0  0
  3  2  2  0  0  0  0
  4  3  1  0  0  0  0
  5  4  2  0  0  0  0
  5  6  1  0  0  0  0
  6  1  2  0  0  0  0
  9 16  1  0  0  0  0
  9  5  1  0  0  0  0
 10  9  1  0  0  0  0
 11 13  1  0  0  0  0
 11 10  2  0  0  0  0
 12 11  1  0  0  0  0
 13 15  1  0  0  0  0
 14 13  2  0  0  0  0
 15 18  1  0  0  0  0
 15 16  1  0  0  0  0
 16 17  2  0  0  0  0
 19 20  1  0  0  0  0
 20 21  1  0  0  0  0
 20 23  1  0  0  0  0
 20 22  1  0  0  0  0
 23 25  1  0  0  0  0
 24 23  1  0  0  0  0
 25 26  1  0  0  0  0
 25 30  1  0  0  0  0
 25 28  1  0  0  0  0
 27 26  1  0  0  0  0
 28 29  1  0  0  0  0
 30 31  1  0  0  0  0
 31 34  1  0  0  0  0
 31 33  1  0  0  0  0
 31 32  1  0  0  0  0
M  END
>  <minimizedAffinity>
-6.29487038

>  <minimizedRMSD>
3.97188759

$$$$
