
 OpenBabel03252509043D

 49 51  0  0  1  0  0  0  0  0999 V2000
   46.7550   34.4380   43.2880 N   0  0  0  0  0  0  0  0  0  0  0  0
   46.5050   34.9040   41.9790 C   0  0  0  0  0  0  0  0  0  0  0  0
   45.0600   34.7500   41.5340 C   0  0  0  0  0  0  0  0  0  0  0  0
   44.0520   34.9430   42.6400 C   0  0  0  0  0  0  0  0  0  0  0  0
   44.7320   35.3550   43.9340 C   0  0  0  0  0  0  0  0  0  0  0  0
   45.7530   34.1710   44.1860 C   0  0  2  0  0  0  0  0  0  0  0  0
   46.7370   35.9970   41.9600 H   0  0  0  0  0  0  0  0  0  0  0  0
   47.1120   34.4580   41.1840 H   0  0  0  0  0  0  0  0  0  0  0  0
   44.9040   33.7860   40.9950 H   0  0  0  0  0  0  0  0  0  0  0  0
   44.8550   35.5320   40.7710 H   0  0  0  0  0  0  0  0  0  0  0  0
   43.5830   33.9530   42.8340 H   0  0  0  0  0  0  0  0  0  0  0  0
   43.2280   35.6240   42.3710 H   0  0  0  0  0  0  0  0  0  0  0  0
   43.9960   35.3710   44.7450 H   0  0  0  0  0  0  0  0  0  0  0  0
   45.2950   36.2790   43.8080 H   0  0  0  0  0  0  0  0  0  0  0  0
   45.1980   33.2250   44.0250 H   0  0  0  0  0  0  0  0  0  0  0  0
   48.0240   33.7780   43.4460 C   0  0  0  0  0  0  0  0  0  0  0  0
   48.2570   33.8030   44.5290 H   0  0  0  0  0  0  0  0  0  0  0  0
   48.7710   34.3820   42.8890 H   0  0  0  0  0  0  0  0  0  0  0  0
   47.8890   32.3930   42.9240 C   0  0  0  0  0  0  0  0  0  0  0  0
   46.9170   32.2360   42.3920 H   0  0  0  0  0  0  0  0  0  0  0  0
   47.9460   31.6460   43.7230 H   0  0  0  0  0  0  0  0  0  0  0  0
   51.2690   32.0710   41.3180 C   0  0  0  0  0  0  0  0  0  0  0  0
   50.2550   32.3020   42.2660 C   0  0  0  0  0  0  0  0  0  0  0  0
   48.9410   32.1430   41.9080 C   0  0  0  0  0  0  0  0  0  0  0  0
   48.6870   31.7670   40.6510 N   0  0  0  0  0  0  0  0  0  0  0  0
   49.6440   31.5450   39.7420 C   0  0  0  0  0  0  0  0  0  0  0  0
   50.9490   31.6930   40.0610 N   0  0  0  0  0  0  0  0  0  0  0  0
   52.2760   32.2180   41.6800 H   0  0  0  0  0  0  0  0  0  0  0  0
   50.4830   32.6080   43.2850 H   0  0  0  0  0  0  0  0  0  0  0  0
   49.4530   31.2410   38.7210 H   0  0  0  0  0  0  0  0  0  0  0  0
   46.1070   34.4130   45.5000 O   0  0  0  0  0  0  0  0  0  0  0  0
   45.5420   31.8130   45.6690 O   0  0  0  0  0  0  0  0  0  0  0  0
   46.0060   33.0440   46.4610 P   0  0  2  0  0  0  0  0  0  0  0  0
   44.7030   33.3410   47.5450 O   0  0  0  0  0  0  0  0  0  0  0  0
   45.0210   33.7960   48.3490 H   0  0  0  0  0  0  0  0  0  0  0  0
   47.3720   32.7540   47.3680 O   0  0  0  0  0  0  0  0  0  0  0  0
   47.0130   32.0470   48.5060 C   0  0  0  0  0  0  0  0  0  0  0  0
   46.9440   32.7270   49.3960 H   0  0  0  0  0  0  0  0  0  0  0  0
   46.0570   31.5200   48.3730 H   0  0  0  0  0  0  0  0  0  0  0  0
   48.0770   31.0980   48.7820 N   0  0  0  0  0  0  0  0  0  0  0  0
   49.2210   31.3420   49.4450 C   0  0  0  0  0  3  0  0  0  0  0  0
   50.1520   30.3340   49.6350 C   0  0  0  0  0  0  0  0  0  0  0  0
   51.0620   30.5570   50.1700 H   0  0  0  0  0  0  0  0  0  0  0  0
   49.9270   29.0530   49.1480 C   0  0  0  0  0  0  0  0  0  0  0  0
   50.7640   28.1330   49.3150 O   0  0  0  0  0  0  0  0  0  0  0  0
   48.7730   28.8550   48.4940 N   0  0  0  0  0  0  0  0  0  0  0  0
   47.8730   29.8390   48.3120 C   0  0  0  0  0  0  0  0  0  0  0  0
   46.8450   29.5090   47.6840 O   0  0  0  0  0  0  0  0  0  0  0  0
   48.6370   27.8790   48.1410 H   0  0  0  0  0  0  0  0  0  0  0  0
  1 16  1  0  0  0  0
  1  6  1  0  0  0  0
  2  1  1  0  0  0  0
  3  2  1  0  0  0  0
  3  4  1  0  0  0  0
  4 11  1  0  0  0  0
  4  5  1  0  0  0  0
  5  6  1  0  0  0  0
  5 13  1  0  0  0  0
  6 15  1  6  0  0  0
  6 31  1  0  0  0  0
  7  2  1  0  0  0  0
  8  2  1  0  0  0  0
  9  3  1  0  0  0  0
 10  3  1  0  0  0  0
 12  4  1  0  0  0  0
 14  5  1  0  0  0  0
 16 17  1  0  0  0  0
 18 16  1  0  0  0  0
 19 16  1  0  0  0  0
 19 21  1  0  0  0  0
 20 19  1  0  0  0  0
 22 28  1  0  0  0  0
 22 23  1  0  0  0  0
 23 29  1  0  0  0  0
 24 23  2  0  0  0  0
 24 19  1  0  0  0  0
 25 24  1  0  0  0  0
 26 27  1  0  0  0  0
 26 25  2  0  0  0  0
 27 22  2  0  0  0  0
 30 26  1  0  0  0  0
 31 33  1  0  0  0  0
 33 32  2  6  0  0  0
 33 36  1  0  0  0  0
 33 34  1  0  0  0  0
 34 35  1  0  0  0  0
 36 37  1  0  0  0  0
 37 40  1  0  0  0  0
 37 38  1  0  0  0  0
 39 37  1  0  0  0  0
 40 41  1  0  0  0  0
 41 42  2  0  0  0  0
 42 43  1  0  0  0  0
 44 45  2  0  0  0  0
 44 42  1  0  0  0  0
 46 44  1  0  0  0  0
 47 46  1  0  0  0  0
 47 40  1  0  0  0  0
 48 47  2  0  0  0  0
 49 46  1  0  0  0  0
M  END
>  <minimizedAffinity>
-5.29032803

>  <minimizedRMSD>
3.10753179

$$$$
