
 OpenBabel03252509043D

 49 51  0  0  1  0  0  0  0  0999 V2000
   47.9250   34.2630   42.0410 N   0  0  0  0  0  0  0  0  0  0  0  0
   47.9460   34.5730   40.6640 C   0  0  0  0  0  0  0  0  0  0  0  0
   46.7270   34.0810   39.9020 C   0  0  0  0  0  0  0  0  0  0  0  0
   45.4440   34.1280   40.6970 C   0  0  0  0  0  0  0  0  0  0  0  0
   45.6670   34.7650   42.0570 C   0  0  0  0  0  0  0  0  0  0  0  0
   46.7920   33.8490   42.6930 C   0  0  2  0  0  0  0  0  0  0  0  0
   47.9620   35.6860   40.5680 H   0  0  0  0  0  0  0  0  0  0  0  0
   48.8150   34.2130   40.1010 H   0  0  0  0  0  0  0  0  0  0  0  0
   46.9040   33.0710   39.4630 H   0  0  0  0  0  0  0  0  0  0  0  0
   46.5850   34.7460   39.0220 H   0  0  0  0  0  0  0  0  0  0  0  0
   45.1380   33.0760   40.8900 H   0  0  0  0  0  0  0  0  0  0  0  0
   44.6060   34.5960   40.1530 H   0  0  0  0  0  0  0  0  0  0  0  0
   44.7540   34.6790   42.6550 H   0  0  0  0  0  0  0  0  0  0  0  0
   46.0580   35.7780   41.9600 H   0  0  0  0  0  0  0  0  0  0  0  0
   46.4890   32.7970   42.5190 H   0  0  0  0  0  0  0  0  0  0  0  0
   49.2090   33.9040   42.5830 C   0  0  0  0  0  0  0  0  0  0  0  0
   49.2480   34.3320   43.6050 H   0  0  0  0  0  0  0  0  0  0  0  0
   49.9740   34.3930   41.9450 H   0  0  0  0  0  0  0  0  0  0  0  0
   49.3090   32.4210   42.5820 C   0  0  0  0  0  0  0  0  0  0  0  0
   48.3100   31.9310   42.4620 H   0  0  0  0  0  0  0  0  0  0  0  0
   49.7490   32.0380   43.5090 H   0  0  0  0  0  0  0  0  0  0  0  0
   52.2540   31.5830   40.4060 C   0  0  0  0  0  0  0  0  0  0  0  0
   51.4770   31.9960   41.5050 C   0  0  0  0  0  0  0  0  0  0  0  0
   50.1090   31.9820   41.4120 C   0  0  0  0  0  0  0  0  0  0  0  0
   49.5750   31.5670   40.2590 N   0  0  0  0  0  0  0  0  0  0  0  0
   50.3050   31.1730   39.2090 C   0  0  0  0  0  0  0  0  0  0  0  0
   51.6550   31.1750   39.2670 N   0  0  0  0  0  0  0  0  0  0  0  0
   53.3230   31.6250   40.5610 H   0  0  0  0  0  0  0  0  0  0  0  0
   51.9310   32.3310   42.4340 H   0  0  0  0  0  0  0  0  0  0  0  0
   49.8860   30.8350   38.2700 H   0  0  0  0  0  0  0  0  0  0  0  0
   46.7340   34.2520   44.0140 O   0  0  0  0  0  0  0  0  0  0  0  0
   45.1290   32.1480   44.3360 O   0  0  0  0  0  0  0  0  0  0  0  0
   46.1540   33.0540   45.0330 P   0  0  2  0  0  0  0  0  0  0  0  0
   45.2220   33.8770   46.2230 O   0  0  0  0  0  0  0  0  0  0  0  0
   45.7850   34.1450   46.9750 H   0  0  0  0  0  0  0  0  0  0  0  0
   47.3480   32.1990   45.8160 O   0  0  0  0  0  0  0  0  0  0  0  0
   46.7750   31.1080   46.4530 C   0  0  0  0  0  0  0  0  0  0  0  0
   45.7970   31.3890   46.9280 H   0  0  0  0  0  0  0  0  0  0  0  0
   46.6160   30.2690   45.7580 H   0  0  0  0  0  0  0  0  0  0  0  0
   47.6670   30.7110   47.5270 N   0  0  0  0  0  0  0  0  0  0  0  0
   48.7320   29.8970   47.4290 C   0  0  0  0  0  3  0  0  0  0  0  0
   49.4980   29.6050   48.5450 C   0  0  0  0  0  0  0  0  0  0  0  0
   50.3470   28.9470   48.4390 H   0  0  0  0  0  0  0  0  0  0  0  0
   49.1870   30.1440   49.7870 C   0  0  0  0  0  0  0  0  0  0  0  0
   49.8750   29.8850   50.8040 O   0  0  0  0  0  0  0  0  0  0  0  0
   48.1170   30.9500   49.8370 N   0  0  0  0  0  0  0  0  0  0  0  0
   47.3760   31.2300   48.7490 C   0  0  0  0  0  0  0  0  0  0  0  0
   46.4090   31.9970   48.9480 O   0  0  0  0  0  0  0  0  0  0  0  0
   47.9110   31.3390   50.7880 H   0  0  0  0  0  0  0  0  0  0  0  0
  1 16  1  0  0  0  0
  1  6  1  0  0  0  0
  2  1  1  0  0  0  0
  3  2  1  0  0  0  0
  3  4  1  0  0  0  0
  4 11  1  0  0  0  0
  4  5  1  0  0  0  0
  5 13  1  0  0  0  0
  5  6  1  0  0  0  0
  6 15  1  6  0  0  0
  6 31  1  0  0  0  0
  7  2  1  0  0  0  0
  8  2  1  0  0  0  0
  9  3  1  0  0  0  0
 10  3  1  0  0  0  0
 12  4  1  0  0  0  0
 14  5  1  0  0  0  0
 16 17  1  0  0  0  0
 18 16  1  0  0  0  0
 19 16  1  0  0  0  0
 19 21  1  0  0  0  0
 20 19  1  0  0  0  0
 22 28  1  0  0  0  0
 22 23  1  0  0  0  0
 23 29  1  0  0  0  0
 24 23  2  0  0  0  0
 24 19  1  0  0  0  0
 25 24  1  0  0  0  0
 26 27  1  0  0  0  0
 26 25  2  0  0  0  0
 27 22  2  0  0  0  0
 30 26  1  0  0  0  0
 31 33  1  0  0  0  0
 33 32  2  6  0  0  0
 33 36  1  0  0  0  0
 33 34  1  0  0  0  0
 34 35  1  0  0  0  0
 36 37  1  0  0  0  0
 37 38  1  0  0  0  0
 37 40  1  0  0  0  0
 39 37  1  0  0  0  0
 40 47  1  0  0  0  0
 41 40  1  0  0  0  0
 41 42  2  0  0  0  0
 42 44  1  0  0  0  0
 43 42  1  0  0  0  0
 44 46  1  0  0  0  0
 44 45  2  0  0  0  0
 46 49  1  0  0  0  0
 47 48  2  0  0  0  0
 47 46  1  0  0  0  0
M  END
>  <minimizedAffinity>
-5.29487514

>  <minimizedRMSD>
3.24268508

$$$$
