
 OpenBabel03252506193D

 24 25  0  0  0  0  0  0  0  0999 V2000
   37.4420   26.8090   41.6940 C   0  0  0  0  0  0  0  0  0  0  0  0
   37.9880   26.6560   42.9810 C   0  0  0  0  0  0  0  0  0  0  0  0
   38.4530   27.7810   43.6460 C   0  0  0  0  0  0  0  0  0  0  0  0
   38.3560   28.9750   43.0180 N   0  0  0  0  0  0  0  0  0  0  0  0
   37.8270   29.0990   41.7810 C   0  0  0  0  0  0  0  0  0  0  0  0
   37.3770   28.0280   41.1310 N   0  0  0  0  0  0  0  0  0  0  0  0
   38.0120   25.6580   43.3780 H   0  0  0  0  0  0  0  0  0  0  0  0
   38.8740   27.6640   44.6380 H   0  0  0  0  0  0  0  0  0  0  0  0
   37.8010   30.4240   41.2660 N   0  0  0  0  0  0  0  0  0  0  0  0
   38.8680   31.2670   41.3580 C   0  0  0  0  0  3  0  0  0  0  0  0
   38.8150   32.5500   40.8490 C   0  0  0  0  0  0  0  0  0  0  0  0
   39.6980   33.1860   40.9490 H   0  0  0  0  0  0  0  0  0  0  0  0
   37.6610   32.9920   40.2360 C   0  0  0  0  0  0  0  0  0  0  0  0
   37.6400   34.1580   39.7850 O   0  0  0  0  0  0  0  0  0  0  0  0
   36.6210   32.1180   40.1670 N   0  0  0  0  0  0  0  0  0  0  0  0
   36.6880   30.8710   40.6670 C   0  0  0  0  0  0  0  0  0  0  0  0
   35.6330   30.1750   40.5240 O   0  0  0  0  0  0  0  0  0  0  0  0
   35.7830   32.5500   39.6790 H   0  0  0  0  0  0  0  0  0  0  0  0
   36.9430   25.6240   40.9740 C   0  0  0  0  0  3  0  0  0  0  0  0
   37.6170   24.4940   41.1430 C   0  0  0  0  0  3  0  0  0  0  0  0
   37.1650   23.2570   40.4410 C   0  0  0  0  0  0  0  0  0  0  0  0
   37.5690   22.3910   41.0370 H   0  0  0  0  0  0  0  0  0  0  0  0
   36.0740   23.2100   40.3150 H   0  0  0  0  0  0  0  0  0  0  0  0
   37.6280   23.2350   39.4360 H   0  0  0  0  0  0  0  0  0  0  0  0
  1  2  1  0  0  0  0
  2  7  1  0  0  0  0
  2  3  2  0  0  0  0
  3  8  1  0  0  0  0
  4  3  1  0  0  0  0
  5  4  2  0  0  0  0
  6  1  2  0  0  0  0
  6  5  1  0  0  0  0
  9 10  1  0  0  0  0
  9  5  1  0  0  0  0
 11 12  1  0  0  0  0
 11 10  2  0  0  0  0
 13 11  1  0  0  0  0
 14 13  2  0  0  0  0
 15 13  1  0  0  0  0
 15 16  1  0  0  0  0
 16  9  1  0  0  0  0
 17 16  2  0  0  0  0
 18 15  1  0  0  0  0
 19 20  2  0  0  0  0
 19  1  1  0  0  0  0
 21 22  1  0  0  0  0
 21 20  1  0  0  0  0
 23 21  1  0  0  0  0
 24 21  1  0  0  0  0
M  END
>  <minimizedAffinity>
-5.33837557

$$$$

 OpenBabel03252506193D

 24 25  0  0  0  0  0  0  0  0999 V2000
   35.8350   29.3130   39.3100 C   0  0  0  0  0  0  0  0  0  0  0  0
   35.6490   29.5900   40.6770 C   0  0  0  0  0  0  0  0  0  0  0  0
   36.5900   30.3700   41.3340 C   0  0  0  0  0  0  0  0  0  0  0  0
   37.6450   30.8260   40.6210 N   0  0  0  0  0  0  0  0  0  0  0  0
   37.8040   30.5480   39.3080 C   0  0  0  0  0  0  0  0  0  0  0  0
   36.9090   29.8020   38.6650 N   0  0  0  0  0  0  0  0  0  0  0  0
   34.7730   29.1740   41.1370 H   0  0  0  0  0  0  0  0  0  0  0  0
   36.4480   30.5830   42.3860 H   0  0  0  0  0  0  0  0  0  0  0  0
   38.9670   31.1040   38.7100 N   0  0  0  0  0  0  0  0  0  0  0  0
   40.1930   31.0550   39.3060 C   0  0  0  0  0  3  0  0  0  0  0  0
   41.3070   31.6060   38.7020 C   0  0  0  0  0  0  0  0  0  0  0  0
   42.2650   31.5390   39.2220 H   0  0  0  0  0  0  0  0  0  0  0  0
   41.1820   32.2180   37.4720 C   0  0  0  0  0  0  0  0  0  0  0  0
   42.2060   32.7080   36.9480 O   0  0  0  0  0  0  0  0  0  0  0  0
   39.9410   32.2440   36.9150 N   0  0  0  0  0  0  0  0  0  0  0  0
   38.8650   31.7040   37.5150 C   0  0  0  0  0  0  0  0  0  0  0  0
   37.7760   31.8100   36.8670 O   0  0  0  0  0  0  0  0  0  0  0  0
   39.9490   32.7350   35.9740 H   0  0  0  0  0  0  0  0  0  0  0  0
   34.8450   28.4870   38.5980 C   0  0  0  0  0  3  0  0  0  0  0  0
   34.2920   29.0180   37.5150 C   0  0  0  0  0  3  0  0  0  0  0  0
   33.2800   28.2330   36.7480 C   0  0  0  0  0  0  0  0  0  0  0  0
   33.2840   28.6520   35.7030 H   0  0  0  0  0  0  0  0  0  0  0  0
   33.4700   27.1510   36.7700 H   0  0  0  0  0  0  0  0  0  0  0  0
   32.2830   28.4160   37.1930 H   0  0  0  0  0  0  0  0  0  0  0  0
  1  2  1  0  0  0  0
  2  7  1  0  0  0  0
  2  3  2  0  0  0  0
  3  8  1  0  0  0  0
  4  3  1  0  0  0  0
  5  4  2  0  0  0  0
  6  5  1  0  0  0  0
  6  1  2  0  0  0  0
  9 10  1  0  0  0  0
  9  5  1  0  0  0  0
 11 12  1  0  0  0  0
 11 10  2  0  0  0  0
 13 11  1  0  0  0  0
 14 13  2  0  0  0  0
 15 13  1  0  0  0  0
 15 16  1  0  0  0  0
 16  9  1  0  0  0  0
 17 16  2  0  0  0  0
 18 15  1  0  0  0  0
 19  1  1  0  0  0  0
 20 19  2  0  0  0  0
 21 23  1  0  0  0  0
 21 24  1  0  0  0  0
 21 20  1  0  0  0  0
 22 21  1  0  0  0  0
M  END
>  <minimizedAffinity>
-4.91074753

$$$$

 OpenBabel03252506193D

 24 25  0  0  0  0  0  0  0  0999 V2000
   36.8060   28.5670   41.1950 C   0  0  0  0  0  0  0  0  0  0  0  0
   36.5350   27.9320   42.4200 C   0  0  0  0  0  0  0  0  0  0  0  0
   37.3810   28.1670   43.4950 C   0  0  0  0  0  0  0  0  0  0  0  0
   38.4280   29.0010   43.3070 N   0  0  0  0  0  0  0  0  0  0  0  0
   38.6690   29.6020   42.1210 C   0  0  0  0  0  0  0  0  0  0  0  0
   37.8670   29.3860   41.0810 N   0  0  0  0  0  0  0  0  0  0  0  0
   35.6750   27.2910   42.4490 H   0  0  0  0  0  0  0  0  0  0  0  0
   37.1730   27.6770   44.4380 H   0  0  0  0  0  0  0  0  0  0  0  0
   39.8120   30.4480   42.0950 N   0  0  0  0  0  0  0  0  0  0  0  0
   41.0080   30.0820   42.6350 C   0  0  0  0  0  3  0  0  0  0  0  0
   42.1020   30.9250   42.5960 C   0  0  0  0  0  0  0  0  0  0  0  0
   43.0380   30.5830   43.0440 H   0  0  0  0  0  0  0  0  0  0  0  0
   41.9860   32.1630   41.9990 C   0  0  0  0  0  0  0  0  0  0  0  0
   42.9920   32.9050   41.9770 O   0  0  0  0  0  0  0  0  0  0  0  0
   40.7750   32.4870   41.4730 N   0  0  0  0  0  0  0  0  0  0  0  0
   39.7180   31.6560   41.5190 C   0  0  0  0  0  0  0  0  0  0  0  0
   38.6550   32.1040   40.9830 O   0  0  0  0  0  0  0  0  0  0  0  0
   40.7870   33.4560   41.0380 H   0  0  0  0  0  0  0  0  0  0  0  0
   35.9180   28.3280   40.0430 C   0  0  0  0  0  3  0  0  0  0  0  0
   34.8960   29.1610   39.8940 C   0  0  0  0  0  3  0  0  0  0  0  0
   33.9580   28.9730   38.7480 C   0  0  0  0  0  0  0  0  0  0  0  0
   33.4780   29.9750   38.5670 H   0  0  0  0  0  0  0  0  0  0  0  0
   34.4510   28.5720   37.8520 H   0  0  0  0  0  0  0  0  0  0  0  0
   33.1690   28.2590   39.0540 H   0  0  0  0  0  0  0  0  0  0  0  0
  1  2  1  0  0  0  0
  2  7  1  0  0  0  0
  2  3  2  0  0  0  0
  3  8  1  0  0  0  0
  4  3  1  0  0  0  0
  5  4  2  0  0  0  0
  6  1  2  0  0  0  0
  6  5  1  0  0  0  0
  9  5  1  0  0  0  0
  9 10  1  0  0  0  0
 11 10  2  0  0  0  0
 11 12  1  0  0  0  0
 13 11  1  0  0  0  0
 14 13  2  0  0  0  0
 15 16  1  0  0  0  0
 15 13  1  0  0  0  0
 16  9  1  0  0  0  0
 17 16  2  0  0  0  0
 18 15  1  0  0  0  0
 19  1  1  0  0  0  0
 20 19  2  0  0  0  0
 21 24  1  0  0  0  0
 21 20  1  0  0  0  0
 22 21  1  0  0  0  0
 23 21  1  0  0  0  0
M  END
>  <minimizedAffinity>
-4.81516314

$$$$

 OpenBabel03252506193D

 24 25  0  0  0  0  0  0  0  0999 V2000
   37.3440   25.8410   41.4540 C   0  0  0  0  0  0  0  0  0  0  0  0
   38.2260   25.6240   42.5270 C   0  0  0  0  0  0  0  0  0  0  0  0
   38.8940   26.7120   43.0720 C   0  0  0  0  0  0  0  0  0  0  0  0
   38.6590   27.9320   42.5400 N   0  0  0  0  0  0  0  0  0  0  0  0
   37.8050   28.1180   41.5080 C   0  0  0  0  0  0  0  0  0  0  0  0
   37.1580   27.0840   40.9750 N   0  0  0  0  0  0  0  0  0  0  0  0
   38.3320   24.6110   42.8660 H   0  0  0  0  0  0  0  0  0  0  0  0
   39.5740   26.5460   43.8980 H   0  0  0  0  0  0  0  0  0  0  0  0
   37.6740   29.4640   41.0690 N   0  0  0  0  0  0  0  0  0  0  0  0
   38.7470   30.2830   40.8840 C   0  0  0  0  0  3  0  0  0  0  0  0
   38.5900   31.5870   40.4570 C   0  0  0  0  0  0  0  0  0  0  0  0
   39.4840   32.2010   40.3240 H   0  0  0  0  0  0  0  0  0  0  0  0
   37.3230   32.0750   40.2110 C   0  0  0  0  0  0  0  0  0  0  0  0
   37.2100   33.2590   39.8260 O   0  0  0  0  0  0  0  0  0  0  0  0
   36.2810   31.2240   40.4100 N   0  0  0  0  0  0  0  0  0  0  0  0
   36.4500   29.9550   40.8260 C   0  0  0  0  0  0  0  0  0  0  0  0
   35.3770   29.2860   40.9640 O   0  0  0  0  0  0  0  0  0  0  0  0
   35.3530   31.6910   40.1950 H   0  0  0  0  0  0  0  0  0  0  0  0
   36.6270   24.6970   40.8640 C   0  0  0  0  0  3  0  0  0  0  0  0
   36.4630   24.7090   39.5470 C   0  0  0  0  0  3  0  0  0  0  0  0
   35.7450   23.5800   38.8870 C   0  0  0  0  0  0  0  0  0  0  0  0
   36.0930   23.5680   37.8160 H   0  0  0  0  0  0  0  0  0  0  0  0
   35.9020   22.6170   39.3930 H   0  0  0  0  0  0  0  0  0  0  0  0
   34.6590   23.7990   38.8970 H   0  0  0  0  0  0  0  0  0  0  0  0
  1  2  1  0  0  0  0
  2  7  1  0  0  0  0
  2  3  2  0  0  0  0
  3  8  1  0  0  0  0
  4  3  1  0  0  0  0
  5  4  2  0  0  0  0
  6  1  2  0  0  0  0
  6  5  1  0  0  0  0
  9  5  1  0  0  0  0
 10  9  1  0  0  0  0
 11 10  2  0  0  0  0
 12 11  1  0  0  0  0
 13 15  1  0  0  0  0
 13 11  1  0  0  0  0
 14 13  2  0  0  0  0
 15 16  1  0  0  0  0
 16 17  2  0  0  0  0
 16  9  1  0  0  0  0
 18 15  1  0  0  0  0
 19  1  1  0  0  0  0
 20 19  2  0  0  0  0
 21 24  1  0  0  0  0
 21 23  1  0  0  0  0
 21 20  1  0  0  0  0
 22 21  1  0  0  0  0
M  END
>  <minimizedAffinity>
-4.74939632

$$$$

 OpenBabel03252506193D

 24 25  0  0  0  0  0  0  0  0999 V2000
   37.3060   26.7830   42.1600 C   0  0  0  0  0  0  0  0  0  0  0  0
   37.3970   27.4320   43.4050 C   0  0  0  0  0  0  0  0  0  0  0  0
   37.5330   28.8130   43.4280 C   0  0  0  0  0  0  0  0  0  0  0  0
   37.5710   29.4670   42.2450 N   0  0  0  0  0  0  0  0  0  0  0  0
   37.4800   28.8220   41.0600 C   0  0  0  0  0  0  0  0  0  0  0  0
   37.3500   27.4990   41.0220 N   0  0  0  0  0  0  0  0  0  0  0  0
   37.3550   26.8080   44.2770 H   0  0  0  0  0  0  0  0  0  0  0  0
   37.6040   29.3130   44.3860 H   0  0  0  0  0  0  0  0  0  0  0  0
   37.5370   29.6600   39.9130 N   0  0  0  0  0  0  0  0  0  0  0  0
   38.4510   30.6630   39.7820 C   0  0  0  0  0  3  0  0  0  0  0  0
   38.4820   31.4620   38.6550 C   0  0  0  0  0  0  0  0  0  0  0  0
   39.2340   32.2530   38.6000 H   0  0  0  0  0  0  0  0  0  0  0  0
   37.5740   31.2450   37.6400 C   0  0  0  0  0  0  0  0  0  0  0  0
   37.6250   31.9820   36.6320 O   0  0  0  0  0  0  0  0  0  0  0  0
   36.6810   30.2340   37.8130 N   0  0  0  0  0  0  0  0  0  0  0  0
   36.6610   29.4630   38.9160 C   0  0  0  0  0  0  0  0  0  0  0  0
   35.7660   28.5600   38.9280 O   0  0  0  0  0  0  0  0  0  0  0  0
   36.0270   30.1470   36.9810 H   0  0  0  0  0  0  0  0  0  0  0  0
   37.1610   25.3170   42.1170 C   0  0  0  0  0  3  0  0  0  0  0  0
   37.7070   24.6920   41.0820 C   0  0  0  0  0  3  0  0  0  0  0  0
   37.5950   23.2080   40.9780 C   0  0  0  0  0  0  0  0  0  0  0  0
   38.4480   22.8730   40.3250 H   0  0  0  0  0  0  0  0  0  0  0  0
   37.5920   22.7090   41.9570 H   0  0  0  0  0  0  0  0  0  0  0  0
   36.6450   22.9620   40.4650 H   0  0  0  0  0  0  0  0  0  0  0  0
  1  2  1  0  0  0  0
  2  3  2  0  0  0  0
  2  7  1  0  0  0  0
  3  8  1  0  0  0  0
  4  3  1  0  0  0  0
  5  4  2  0  0  0  0
  6  5  1  0  0  0  0
  6  1  2  0  0  0  0
  9  5  1  0  0  0  0
 10  9  1  0  0  0  0
 11 10  2  0  0  0  0
 12 11  1  0  0  0  0
 13 15  1  0  0  0  0
 13 11  1  0  0  0  0
 14 13  2  0  0  0  0
 15 16  1  0  0  0  0
 16 17  2  0  0  0  0
 16  9  1  0  0  0  0
 18 15  1  0  0  0  0
 19  1  1  0  0  0  0
 20 19  2  0  0  0  0
 21 20  1  0  0  0  0
 21 23  1  0  0  0  0
 22 21  1  0  0  0  0
 24 21  1  0  0  0  0
M  END
>  <minimizedAffinity>
-4.71705055

$$$$

 OpenBabel03252506193D

 24 25  0  0  0  0  0  0  0  0999 V2000
   37.6310   28.4570   40.7940 C   0  0  0  0  0  0  0  0  0  0  0  0
   36.5360   29.1320   41.3640 C   0  0  0  0  0  0  0  0  0  0  0  0
   36.4320   30.5040   41.1840 C   0  0  0  0  0  0  0  0  0  0  0  0
   37.3940   31.1250   40.4650 N   0  0  0  0  0  0  0  0  0  0  0  0
   38.4370   30.4560   39.9250 C   0  0  0  0  0  0  0  0  0  0  0  0
   38.5500   29.1400   40.0890 N   0  0  0  0  0  0  0  0  0  0  0  0
   35.8350   28.5330   41.9140 H   0  0  0  0  0  0  0  0  0  0  0  0
   35.5890   31.0250   41.6230 H   0  0  0  0  0  0  0  0  0  0  0  0
   39.3580   31.2600   39.2000 N   0  0  0  0  0  0  0  0  0  0  0  0
   39.8170   32.4550   39.6690 C   0  0  0  0  0  3  0  0  0  0  0  0
   40.7120   33.2160   38.9420 C   0  0  0  0  0  0  0  0  0  0  0  0
   41.0480   34.1660   39.3640 H   0  0  0  0  0  0  0  0  0  0  0  0
   41.1530   32.7620   37.7160 C   0  0  0  0  0  0  0  0  0  0  0  0
   41.9620   33.4710   37.0790 O   0  0  0  0  0  0  0  0  0  0  0  0
   40.6690   31.5660   37.2870 N   0  0  0  0  0  0  0  0  0  0  0  0
   39.7970   30.8350   38.0060 C   0  0  0  0  0  0  0  0  0  0  0  0
   39.4390   29.7400   37.4680 O   0  0  0  0  0  0  0  0  0  0  0  0
   41.0650   31.3050   36.3370 H   0  0  0  0  0  0  0  0  0  0  0  0
   37.7570   27.0010   40.9750 C   0  0  0  0  0  3  0  0  0  0  0  0
   36.9990   26.4470   41.9140 C   0  0  0  0  0  3  0  0  0  0  0  0
   37.0800   24.9760   42.1490 C   0  0  0  0  0  0  0  0  0  0  0  0
   36.1050   24.6790   42.6280 H   0  0  0  0  0  0  0  0  0  0  0  0
   37.2910   24.4060   41.2330 H   0  0  0  0  0  0  0  0  0  0  0  0
   37.8970   24.7790   42.8700 H   0  0  0  0  0  0  0  0  0  0  0  0
  1 19  1  0  0  0  0
  1  2  1  0  0  0  0
  2  7  1  0  0  0  0
  3  2  2  0  0  0  0
  3  8  1  0  0  0  0
  4  3  1  0  0  0  0
  5  6  1  0  0  0  0
  5  4  2  0  0  0  0
  6  1  2  0  0  0  0
  9 10  1  0  0  0  0
  9  5  1  0  0  0  0
 11 12  1  0  0  0  0
 11 10  2  0  0  0  0
 13 11  1  0  0  0  0
 14 13  2  0  0  0  0
 15 13  1  0  0  0  0
 15 16  1  0  0  0  0
 16  9  1  0  0  0  0
 17 16  2  0  0  0  0
 18 15  1  0  0  0  0
 19 20  2  0  0  0  0
 20 21  1  0  0  0  0
 21 22  1  0  0  0  0
 21 24  1  0  0  0  0
 23 21  1  0  0  0  0
M  END
>  <minimizedAffinity>
-4.69131184

$$$$

 OpenBabel03252506193D

 24 25  0  0  0  0  0  0  0  0999 V2000
   37.5590   30.5250   40.5250 C   0  0  0  0  0  0  0  0  0  0  0  0
   36.1630   30.5280   40.3510 C   0  0  0  0  0  0  0  0  0  0  0  0
   35.4500   29.3790   40.6630 C   0  0  0  0  0  0  0  0  0  0  0  0
   36.1390   28.3090   41.1210 N   0  0  0  0  0  0  0  0  0  0  0  0
   37.4810   28.3290   41.2810 C   0  0  0  0  0  0  0  0  0  0  0  0
   38.1780   29.4240   40.9870 N   0  0  0  0  0  0  0  0  0  0  0  0
   35.7270   31.4360   39.9800 H   0  0  0  0  0  0  0  0  0  0  0  0
   34.3750   29.3800   40.5280 H   0  0  0  0  0  0  0  0  0  0  0  0
   38.0470   27.1210   41.7730 N   0  0  0  0  0  0  0  0  0  0  0  0
   37.6950   25.8960   41.2880 C   0  0  0  0  0  3  0  0  0  0  0  0
   38.2620   24.7390   41.7850 C   0  0  0  0  0  0  0  0  0  0  0  0
   37.9450   23.7820   41.3620 H   0  0  0  0  0  0  0  0  0  0  0  0
   39.2030   24.8180   42.7910 C   0  0  0  0  0  0  0  0  0  0  0  0
   39.6990   23.7550   43.2220 O   0  0  0  0  0  0  0  0  0  0  0  0
   39.5220   26.0600   43.2450 N   0  0  0  0  0  0  0  0  0  0  0  0
   38.9620   27.1790   42.7510 C   0  0  0  0  0  0  0  0  0  0  0  0
   39.3670   28.2630   43.2790 O   0  0  0  0  0  0  0  0  0  0  0  0
   40.2510   26.0150   44.0150 H   0  0  0  0  0  0  0  0  0  0  0  0
   38.3310   31.7360   40.1980 C   0  0  0  0  0  3  0  0  0  0  0  0
   37.6920   32.8960   40.2910 C   0  0  0  0  0  3  0  0  0  0  0  0
   38.4180   34.1600   39.9730 C   0  0  0  0  0  0  0  0  0  0  0  0
   37.8700   34.9820   40.5140 H   0  0  0  0  0  0  0  0  0  0  0  0
   39.4840   34.1200   40.2340 H   0  0  0  0  0  0  0  0  0  0  0  0
   38.3380   34.3470   38.8840 H   0  0  0  0  0  0  0  0  0  0  0  0
  1  6  1  0  0  0  0
  2  1  2  0  0  0  0
  2  3  1  0  0  0  0
  3  4  2  0  0  0  0
  4  5  1  0  0  0  0
  5  9  1  0  0  0  0
  6  5  2  0  0  0  0
  7  2  1  0  0  0  0
  8  3  1  0  0  0  0
  9 16  1  0  0  0  0
 10  9  1  0  0  0  0
 10 11  2  0  0  0  0
 11 13  1  0  0  0  0
 12 11  1  0  0  0  0
 13 14  2  0  0  0  0
 13 15  1  0  0  0  0
 15 18  1  0  0  0  0
 16 15  1  0  0  0  0
 16 17  2  0  0  0  0
 19 20  2  0  0  0  0
 19  1  1  0  0  0  0
 21 23  1  0  0  0  0
 21 20  1  0  0  0  0
 21 22  1  0  0  0  0
 24 21  1  0  0  0  0
M  END
>  <minimizedAffinity>
-4.67584467

$$$$

 OpenBabel03252506193D

 24 25  0  0  0  0  0  0  0  0999 V2000
   35.4900   29.4460   35.4400 C   0  0  0  0  0  0  0  0  0  0  0  0
   34.1420   29.0520   35.3560 C   0  0  0  0  0  0  0  0  0  0  0  0
   33.4590   28.7610   36.5280 C   0  0  0  0  0  0  0  0  0  0  0  0
   34.1290   28.8720   37.6980 N   0  0  0  0  0  0  0  0  0  0  0  0
   35.4240   29.2530   37.7540 C   0  0  0  0  0  0  0  0  0  0  0  0
   36.0920   29.5350   36.6390 N   0  0  0  0  0  0  0  0  0  0  0  0
   33.7160   29.0000   34.3720 H   0  0  0  0  0  0  0  0  0  0  0  0
   32.4210   28.4580   36.4650 H   0  0  0  0  0  0  0  0  0  0  0  0
   35.9770   29.3170   39.0630 N   0  0  0  0  0  0  0  0  0  0  0  0
   35.7810   28.3380   39.9910 C   0  0  0  0  0  3  0  0  0  0  0  0
   36.3300   28.4280   41.2550 C   0  0  0  0  0  0  0  0  0  0  0  0
   36.1430   27.6160   41.9620 H   0  0  0  0  0  0  0  0  0  0  0  0
   37.0920   29.5280   41.5910 C   0  0  0  0  0  0  0  0  0  0  0  0
   37.5760   29.5840   42.7410 O   0  0  0  0  0  0  0  0  0  0  0  0
   37.2600   30.4810   40.6340 N   0  0  0  0  0  0  0  0  0  0  0  0
   36.7200   30.3800   39.4060 C   0  0  0  0  0  0  0  0  0  0  0  0
   36.9690   31.3520   38.6260 O   0  0  0  0  0  0  0  0  0  0  0  0
   37.8590   31.2830   40.9870 H   0  0  0  0  0  0  0  0  0  0  0  0
   36.2300   29.7580   34.2050 C   0  0  0  0  0  3  0  0  0  0  0  0
   35.9890   30.9370   33.6450 C   0  0  0  0  0  3  0  0  0  0  0  0
   36.7050   31.3150   32.3920 C   0  0  0  0  0  0  0  0  0  0  0  0
   36.6940   32.4400   32.3500 H   0  0  0  0  0  0  0  0  0  0  0  0
   37.7210   30.9000   32.3370 H   0  0  0  0  0  0  0  0  0  0  0  0
   36.1290   30.9290   31.5280 H   0  0  0  0  0  0  0  0  0  0  0  0
  1  6  1  0  0  0  0
  2  1  2  0  0  0  0
  2  3  1  0  0  0  0
  3  4  2  0  0  0  0
  4  5  1  0  0  0  0
  5  9  1  0  0  0  0
  6  5  2  0  0  0  0
  7  2  1  0  0  0  0
  8  3  1  0  0  0  0
  9 16  1  0  0  0  0
  9 10  1  0  0  0  0
 10 11  2  0  0  0  0
 11 13  1  0  0  0  0
 11 12  1  0  0  0  0
 13 14  2  0  0  0  0
 15 18  1  0  0  0  0
 15 13  1  0  0  0  0
 16 15  1  0  0  0  0
 17 16  2  0  0  0  0
 19  1  1  0  0  0  0
 20 19  2  0  0  0  0
 21 20  1  0  0  0  0
 22 21  1  0  0  0  0
 23 21  1  0  0  0  0
 24 21  1  0  0  0  0
M  END
>  <minimizedAffinity>
-4.6625042

$$$$

 OpenBabel03252506193D

 24 25  0  0  0  0  0  0  0  0999 V2000
   38.2360   31.9030   39.4820 C   0  0  0  0  0  0  0  0  0  0  0  0
   37.6680   33.0230   40.1170 C   0  0  0  0  0  0  0  0  0  0  0  0
   38.4450   34.1610   40.2810 C   0  0  0  0  0  0  0  0  0  0  0  0
   39.7150   34.1340   39.8190 N   0  0  0  0  0  0  0  0  0  0  0  0
   40.2400   33.0470   39.2110 C   0  0  0  0  0  0  0  0  0  0  0  0
   39.5070   31.9490   39.0460 N   0  0  0  0  0  0  0  0  0  0  0  0
   36.6500   32.9260   40.4420 H   0  0  0  0  0  0  0  0  0  0  0  0
   38.0090   35.0230   40.7710 H   0  0  0  0  0  0  0  0  0  0  0  0
   41.5890   33.1870   38.7850 N   0  0  0  0  0  0  0  0  0  0  0  0
   42.5540   33.7380   39.5750 C   0  0  0  0  0  3  0  0  0  0  0  0
   43.8570   33.8620   39.1340 C   0  0  0  0  0  0  0  0  0  0  0  0
   44.5920   34.3120   39.8070 H   0  0  0  0  0  0  0  0  0  0  0  0
   44.1950   33.4210   37.8720 C   0  0  0  0  0  0  0  0  0  0  0  0
   45.3810   33.5450   37.4990 O   0  0  0  0  0  0  0  0  0  0  0  0
   43.2010   32.8780   37.1190 N   0  0  0  0  0  0  0  0  0  0  0  0
   41.9350   32.7640   37.5600 C   0  0  0  0  0  0  0  0  0  0  0  0
   41.1230   32.2340   36.7380 O   0  0  0  0  0  0  0  0  0  0  0  0
   43.5590   32.5700   36.1680 H   0  0  0  0  0  0  0  0  0  0  0  0
   37.4250   30.6860   39.3000 C   0  0  0  0  0  3  0  0  0  0  0  0
   36.7500   30.5830   38.1620 C   0  0  0  0  0  3  0  0  0  0  0  0
   35.9090   29.3750   37.9150 C   0  0  0  0  0  0  0  0  0  0  0  0
   35.8030   29.2880   36.7980 H   0  0  0  0  0  0  0  0  0  0  0  0
   36.3210   28.4650   38.3720 H   0  0  0  0  0  0  0  0  0  0  0  0
   34.9050   29.5520   38.3470 H   0  0  0  0  0  0  0  0  0  0  0  0
  1  2  1  0  0  0  0
  2  3  2  0  0  0  0
  2  7  1  0  0  0  0
  3  8  1  0  0  0  0
  4  3  1  0  0  0  0
  5  4  2  0  0  0  0
  6  5  1  0  0  0  0
  6  1  2  0  0  0  0
  9  5  1  0  0  0  0
  9 10  1  0  0  0  0
 11 10  2  0  0  0  0
 11 12  1  0  0  0  0
 13 11  1  0  0  0  0
 14 13  2  0  0  0  0
 15 16  1  0  0  0  0
 15 13  1  0  0  0  0
 16  9  1  0  0  0  0
 17 16  2  0  0  0  0
 18 15  1  0  0  0  0
 19  1  1  0  0  0  0
 20 19  2  0  0  0  0
 21 20  1  0  0  0  0
 21 24  1  0  0  0  0
 21 23  1  0  0  0  0
 22 21  1  0  0  0  0
M  END
>  <minimizedAffinity>
-4.61921024

$$$$
