
 OpenBabel03242518343D

 36 39  0  0  1  0  0  0  0  0999 V2000
   47.4000   33.8230   39.7250 C   0  0  0  0  0  0  0  0  0  0  0  0
   48.3750   34.5880   39.0970 C   0  0  0  0  0  0  0  0  0  0  0  0
   48.3020   34.3740   37.7280 C   0  0  0  0  0  0  0  0  0  0  0  0
   47.2750   33.4780   37.5940 C   0  0  0  0  0  0  0  0  0  0  0  0
   46.7570   33.1620   38.7630 O   0  0  0  0  0  0  0  0  0  0  0  0
   49.0300   35.2140   39.6810 H   0  0  0  0  0  0  0  0  0  0  0  0
   48.9500   34.8510   37.0140 H   0  0  0  0  0  0  0  0  0  0  0  0
   46.8060   32.9400   36.3060 C   0  0  2  0  0  0  0  0  0  0  0  0
   46.2700   31.5680   36.2350 C   0  0  0  0  0  0  0  0  0  0  0  0
   47.6730   31.7840   35.7650 C   0  0  1  0  0  0  0  0  0  0  0  0
   46.5330   33.7150   35.5610 H   0  0  0  0  0  0  0  0  0  0  0  0
   45.5140   31.3690   35.4330 H   0  0  0  0  0  0  0  0  0  0  0  0
   46.1620   31.0190   37.2070 H   0  0  0  0  0  0  0  0  0  0  0  0
   48.4850   31.4100   36.4090 H   0  0  0  0  0  0  0  0  0  0  0  0
   47.9560   31.8960   34.3560 N   0  0  0  0  0  0  0  0  0  0  0  0
   48.7690   32.9180   34.0280 C   0  0  0  0  0  0  0  0  0  0  0  0
   49.1320   33.1530   32.7020 C   0  0  0  0  0  0  0  0  0  0  0  0
   49.7780   33.9510   32.3590 H   0  0  0  0  0  0  0  0  0  0  0  0
   48.5860   32.2510   31.7990 C   0  0  0  0  0  0  0  0  0  0  0  0
   48.8660   32.3950   30.5820 O   0  0  0  0  0  0  0  0  0  0  0  0
   47.7710   31.2220   32.1150 N   0  0  0  0  0  0  0  0  0  0  0  0
   47.4680   31.0680   33.4360 C   0  0  0  0  0  0  0  0  0  0  0  0
   46.7160   30.1260   33.7730 O   0  0  0  0  0  0  0  0  0  0  0  0
   47.4090   30.5950   31.3640 H   0  0  0  0  0  0  0  0  0  0  0  0
   47.0560   33.6790   41.0820 O   0  0  0  0  0  0  0  0  0  0  0  0
   47.2720   34.7480   41.9750 C   0  0  0  0  0  0  0  0  0  0  0  0
   48.2110   35.5270   41.6680 O   0  0  0  0  0  0  0  0  0  0  0  0
   46.4140   34.8190   43.1040 C   0  0  0  0  0  0  0  0  0  0  0  0
   45.5300   35.8630   43.1000 C   0  0  0  0  0  0  0  0  0  0  0  0
   44.6610   35.9890   44.1760 C   0  0  0  0  0  0  0  0  0  0  0  0
   44.7320   35.0740   45.1760 N   0  0  0  0  0  0  0  0  0  0  0  0
   45.6060   34.0700   45.1460 C   0  0  0  0  0  0  0  0  0  0  0  0
   46.4410   33.9570   44.1010 N   0  0  0  0  0  0  0  0  0  0  0  0
   45.4590   36.5940   42.3200 H   0  0  0  0  0  0  0  0  0  0  0  0
   43.9390   36.7970   44.2270 H   0  0  0  0  0  0  0  0  0  0  0  0
   45.5710   33.4030   45.9980 H   0  0  0  0  0  0  0  0  0  0  0  0
  1 25  1  0  0  0  0
  2  6  1  0  0  0  0
  2  1  2  0  0  0  0
  3  2  1  0  0  0  0
  4  3  2  0  0  0  0
  4  5  1  0  0  0  0
  5  1  1  0  0  0  0
  7  3  1  0  0  0  0
  8 11  1  6  0  0  0
  8  4  1  0  0  0  0
  9  8  1  0  0  0  0
  9 13  1  0  0  0  0
 10  9  1  0  0  0  0
 10  8  1  0  0  0  0
 10 14  1  1  0  0  0
 12  9  1  0  0  0  0
 15 10  1  0  0  0  0
 16 15  1  0  0  0  0
 17 16  2  0  0  0  0
 18 17  1  0  0  0  0
 19 21  1  0  0  0  0
 19 17  1  0  0  0  0
 20 19  2  0  0  0  0
 21 22  1  0  0  0  0
 22 23  2  0  0  0  0
 22 15  1  0  0  0  0
 24 21  1  0  0  0  0
 25 26  1  0  0  0  0
 26 28  1  0  0  0  0
 27 26  2  0  0  0  0
 28 33  1  0  0  0  0
 29 28  2  0  0  0  0
 29 30  1  0  0  0  0
 30 35  1  0  0  0  0
 30 31  2  0  0  0  0
 32 31  1  0  0  0  0
 32 36  1  0  0  0  0
 33 32  2  0  0  0  0
 34 29  1  0  0  0  0
M  END
>  <minimizedAffinity>
-6.19579411

>  <minimizedRMSD>
1.82031548

$$$$
