
 OpenBabel03252506183D

 24 25  0  0  0  0  0  0  0  0999 V2000
   44.8570   35.7520   44.0060 C   0  0  0  0  0  0  0  0  0  0  0  0
   44.3380   35.3150   42.7740 C   0  0  0  0  0  0  0  0  0  0  0  0
   44.4070   33.9640   42.4630 C   0  0  0  0  0  0  0  0  0  0  0  0
   44.9740   33.1330   43.3670 N   0  0  0  0  0  0  0  0  0  0  0  0
   45.4650   33.5760   44.5460 C   0  0  0  0  0  0  0  0  0  0  0  0
   45.4060   34.8680   44.8570 N   0  0  0  0  0  0  0  0  0  0  0  0
   43.9120   36.0670   42.1370 H   0  0  0  0  0  0  0  0  0  0  0  0
   44.0080   33.6270   41.5150 H   0  0  0  0  0  0  0  0  0  0  0  0
   46.0270   32.5710   45.3800 N   0  0  0  0  0  0  0  0  0  0  0  0
   46.5650   32.8470   46.6010 C   0  0  0  0  0  3  0  0  0  0  0  0
   47.1030   31.8500   47.3910 C   0  0  0  0  0  0  0  0  0  0  0  0
   47.5210   32.1260   48.3620 H   0  0  0  0  0  0  0  0  0  0  0  0
   47.0990   30.5460   46.9390 C   0  0  0  0  0  0  0  0  0  0  0  0
   47.5930   29.6640   47.6740 O   0  0  0  0  0  0  0  0  0  0  0  0
   46.5520   30.3170   45.7150 N   0  0  0  0  0  0  0  0  0  0  0  0
   46.0320   31.2970   44.9560 C   0  0  0  0  0  0  0  0  0  0  0  0
   45.5590   30.9220   43.8370 O   0  0  0  0  0  0  0  0  0  0  0  0
   46.5970   29.2870   45.4570 H   0  0  0  0  0  0  0  0  0  0  0  0
   44.7910   37.1830   44.3520 C   0  0  0  0  0  3  0  0  0  0  0  0
   45.4350   38.0220   43.5500 C   0  0  0  0  0  3  0  0  0  0  0  0
   45.4080   39.4850   43.8440 C   0  0  0  0  0  0  0  0  0  0  0  0
   45.6130   40.0070   42.8680 H   0  0  0  0  0  0  0  0  0  0  0  0
   44.4680   39.8120   44.3090 H   0  0  0  0  0  0  0  0  0  0  0  0
   46.2360   39.7170   44.5430 H   0  0  0  0  0  0  0  0  0  0  0  0
  1 19  1  0  0  0  0
  1  6  1  0  0  0  0
  2  1  2  0  0  0  0
  3  2  1  0  0  0  0
  3  4  2  0  0  0  0
  4  5  1  0  0  0  0
  5  6  2  0  0  0  0
  5  9  1  0  0  0  0
  7  2  1  0  0  0  0
  8  3  1  0  0  0  0
  9 10  1  0  0  0  0
 10 11  2  0  0  0  0
 11 12  1  0  0  0  0
 13 11  1  0  0  0  0
 13 14  2  0  0  0  0
 15 13  1  0  0  0  0
 16  9  1  0  0  0  0
 16 15  1  0  0  0  0
 17 16  2  0  0  0  0
 18 15  1  0  0  0  0
 20 21  1  0  0  0  0
 20 19  2  0  0  0  0
 21 23  1  0  0  0  0
 21 24  1  0  0  0  0
 22 21  1  0  0  0  0
M  END
>  <minimizedAffinity>
-4.00100851

>  <minimizedRMSD>
1.42707264

$$$$
