
 OpenBabel03252502593D

 23 24  0  0  0  0  0  0  0  0999 V2000
   43.9620   34.3000   40.4800 C   0  0  0  0  0  0  0  0  0  0  0  0
   44.8350   34.4540   39.8010 H   0  0  0  0  0  0  0  0  0  0  0  0
   44.0380   33.2980   40.9570 H   0  0  0  0  0  0  0  0  0  0  0  0
   42.7040   34.4450   39.7330 N   0  0  0  0  0  0  0  0  0  0  0  0
   41.7400   35.2130   40.2570 C   0  0  0  0  0  3  0  0  0  0  0  0
   40.5880   35.2900   39.4790 C   0  0  0  0  0  0  0  0  0  0  0  0
   39.7370   35.8980   39.8240 H   0  0  0  0  0  0  0  0  0  0  0  0
   40.4850   34.6080   38.2620 C   0  0  0  0  0  0  0  0  0  0  0  0
   39.4590   34.6610   37.5440 O   0  0  0  0  0  0  0  0  0  0  0  0
   41.5210   33.8590   37.8290 N   0  0  0  0  0  0  0  0  0  0  0  0
   42.6450   33.7690   38.5610 C   0  0  0  0  0  0  0  0  0  0  0  0
   43.6220   33.0710   38.1640 O   0  0  0  0  0  0  0  0  0  0  0  0
   41.4720   33.3370   36.9190 H   0  0  0  0  0  0  0  0  0  0  0  0
   43.9400   35.6260   41.7120 S   0  0  0  0  0  0  0  0  0  0  0  0
   44.3220   35.7460   44.4650 C   0  0  0  0  0  0  0  0  0  0  0  0
   44.5040   34.9920   43.2900 C   0  0  0  0  0  0  0  0  0  0  0  0
   45.1220   33.7550   43.3580 C   0  0  0  0  0  0  0  0  0  0  0  0
   45.5340   33.3190   44.5850 N   0  0  0  0  0  0  0  0  0  0  0  0
   45.3420   34.0640   45.6830 C   0  0  0  0  0  0  0  0  0  0  0  0
   44.7540   35.2530   45.6550 N   0  0  0  0  0  0  0  0  0  0  0  0
   43.8340   36.6990   44.3470 H   0  0  0  0  0  0  0  0  0  0  0  0
   45.2880   33.1290   42.4710 H   0  0  0  0  0  0  0  0  0  0  0  0
   45.6470   33.7710   46.6840 H   0  0  0  0  0  0  0  0  0  0  0  0
  1  3  1  0  0  0  0
  1 14  1  0  0  0  0
  2  1  1  0  0  0  0
  4  5  1  0  0  0  0
  4  1  1  0  0  0  0
  6  7  1  0  0  0  0
  6  5  2  0  0  0  0
  8  6  1  0  0  0  0
  9  8  2  0  0  0  0
 10  8  1  0  0  0  0
 10 11  1  0  0  0  0
 11  4  1  0  0  0  0
 12 11  2  0  0  0  0
 13 10  1  0  0  0  0
 14 16  1  0  0  0  0
 15 20  1  0  0  0  0
 16 17  1  0  0  0  0
 16 15  2  0  0  0  0
 17 18  2  0  0  0  0
 18 19  1  0  0  0  0
 19 23  1  0  0  0  0
 20 19  2  0  0  0  0
 21 15  1  0  0  0  0
 22 17  1  0  0  0  0
M  END
>  <minimizedAffinity>
-4.63920736

>  <minimizedRMSD>
1.57749867

$$$$
