
 OpenBabel03252508253D

 42 46  0  0  1  0  0  0  0  0999 V2000
   46.3830   32.3100   46.1720 C   0  0  1  0  0  0  0  0  0  0  0  0
   46.7150   32.5620   47.5810 C   0  0  0  0  0  0  0  0  0  0  0  0
   45.3900   31.8420   47.1150 C   0  0  2  0  0  0  0  0  0  0  0  0
   47.2650   31.6960   45.7640 H   0  0  0  0  0  0  0  0  0  0  0  0
   46.5630   33.5350   48.0570 H   0  0  0  0  0  0  0  0  0  0  0  0
   47.3030   31.8680   48.2110 H   0  0  0  0  0  0  0  0  0  0  0  0
   44.5720   32.4970   47.5540 H   0  0  0  0  0  0  0  0  0  0  0  0
   45.1620   30.4420   47.4830 C   0  0  0  0  0  0  0  0  0  0  0  0
   45.0590   29.9170   48.7330 C   0  0  0  0  0  0  0  0  0  0  0  0
   44.9720   28.5670   49.0430 C   0  0  0  0  0  0  0  0  0  0  0  0
   44.9940   27.6750   47.9610 C   0  0  0  0  0  0  0  0  0  0  0  0
   45.0960   28.1890   46.6690 C   0  0  0  0  0  0  0  0  0  0  0  0
   45.0510   27.2750   45.6340 C   0  0  0  0  0  0  0  0  0  0  0  0
   45.0760   27.7440   44.3210 C   0  0  0  0  0  0  0  0  0  0  0  0
   45.1440   29.0970   44.0520 C   0  0  0  0  0  0  0  0  0  0  0  0
   45.1890   29.9540   45.1270 C   0  0  0  0  0  0  0  0  0  0  0  0
   45.1740   29.5400   46.4490 C   0  0  0  0  0  0  0  0  0  0  0  0
   45.0470   30.6500   49.5430 H   0  0  0  0  0  0  0  0  0  0  0  0
   44.8930   28.2070   50.0390 H   0  0  0  0  0  0  0  0  0  0  0  0
   44.9320   26.6220   48.1650 H   0  0  0  0  0  0  0  0  0  0  0  0
   44.9960   26.2080   45.8670 H   0  0  0  0  0  0  0  0  0  0  0  0
   45.0380   26.9250   43.5840 H   0  0  0  0  0  0  0  0  0  0  0  0
   45.1500   29.2490   43.0030 H   0  0  0  0  0  0  0  0  0  0  0  0
   45.1510   30.9080   44.6820 H   0  0  0  0  0  0  0  0  0  0  0  0
   44.8710   35.4040   44.8400 C   0  0  0  0  0  0  0  0  0  0  0  0
   45.3950   35.4470   43.5000 C   0  0  0  0  0  0  0  0  0  0  0  0
   46.2790   34.3960   43.0980 C   0  0  0  0  0  0  0  0  0  0  0  0
   46.5840   33.4180   43.9770 N   0  0  0  0  0  0  0  0  0  0  0  0
   46.0470   33.4350   45.2480 C   0  0  0  0  0  0  0  0  0  0  0  0
   45.2220   34.3930   45.6600 N   0  0  0  0  0  0  0  0  0  0  0  0
   44.2150   36.2300   45.0620 H   0  0  0  0  0  0  0  0  0  0  0  0
   45.1530   36.2240   42.8000 H   0  0  0  0  0  0  0  0  0  0  0  0
   46.8050   34.4260   41.7770 N   0  0  0  0  0  0  0  0  0  0  0  0
   47.9960   35.0420   41.6530 C   0  0  0  0  0  3  0  0  0  0  0  0
   48.6080   35.1340   40.4190 C   0  0  0  0  0  0  0  0  0  0  0  0
   49.5680   35.6260   40.2910 H   0  0  0  0  0  0  0  0  0  0  0  0
   47.9970   34.5900   39.2990 C   0  0  0  0  0  0  0  0  0  0  0  0
   48.5430   34.6650   38.1670 O   0  0  0  0  0  0  0  0  0  0  0  0
   46.8070   33.9850   39.4840 N   0  0  0  0  0  0  0  0  0  0  0  0
   46.2120   33.8970   40.6910 C   0  0  0  0  0  0  0  0  0  0  0  0
   45.1000   33.3340   40.8760 O   0  0  0  0  0  0  0  0  0  0  0  0
   46.3430   33.5760   38.6590 H   0  0  0  0  0  0  0  0  0  0  0  0
  1  4  1  6  0  0  0
  1  3  1  0  0  0  0
  1  2  1  0  0  0  0
  2  5  1  0  0  0  0
  2  6  1  0  0  0  0
  3  8  1  0  0  0  0
  3  7  1  1  0  0  0
  3  2  1  0  0  0  0
  8  9  1  0  0  0  0
  9 10  2  0  0  0  0
  9 18  1  0  0  0  0
 10 19  1  0  0  0  0
 11 20  1  0  0  0  0
 11 10  1  0  0  0  0
 12 11  2  0  0  0  0
 13 21  1  0  0  0  0
 13 12  1  0  0  0  0
 14 13  2  0  0  0  0
 15 14  1  0  0  0  0
 15 16  2  0  0  0  0
 16 17  1  0  0  0  0
 17 12  1  0  0  0  0
 17  8  2  0  0  0  0
 22 14  1  0  0  0  0
 23 15  1  0  0  0  0
 24 16  1  0  0  0  0
 25 31  1  0  0  0  0
 25 30  1  0  0  0  0
 26 25  2  0  0  0  0
 27 26  1  0  0  0  0
 27 28  2  0  0  0  0
 28 29  1  0  0  0  0
 29 30  2  0  0  0  0
 29  1  1  0  0  0  0
 32 26  1  0  0  0  0
 33 27  1  0  0  0  0
 34 33  1  0  0  0  0
 35 34  2  0  0  0  0
 36 35  1  0  0  0  0
 37 39  1  0  0  0  0
 37 35  1  0  0  0  0
 38 37  2  0  0  0  0
 39 40  1  0  0  0  0
 40 41  2  0  0  0  0
 40 33  1  0  0  0  0
 42 39  1  0  0  0  0
M  END
>  <minimizedAffinity>
-6.04143429

>  <minimizedRMSD>
0.717950404

$$$$
