
 OpenBabel03252508463D

 46 48  0  0  0  0  0  0  0  0999 V2000
   42.1680   31.8750   42.5000 N   0  0  0  0  0  0  0  0  0  0  0  0
   42.4320   30.9050   42.7870 H   0  0  0  0  0  0  0  0  0  0  0  0
   43.0400   32.5020   41.5630 C   0  0  0  0  0  0  0  0  0  0  0  0
   43.7410   31.7470   41.1030 H   0  0  0  0  0  0  0  0  0  0  0  0
   42.4280   32.9010   40.7360 H   0  0  0  0  0  0  0  0  0  0  0  0
   43.6690   34.9170   41.8010 C   0  0  0  0  0  0  0  0  0  0  0  0
   43.8940   33.5830   42.1310 C   0  0  0  0  0  0  0  0  0  0  0  0
   44.9260   33.2860   42.9960 C   0  0  0  0  0  0  0  0  0  0  0  0
   45.6990   34.2960   43.5050 C   0  0  0  0  0  0  0  0  0  0  0  0
   45.5000   35.6120   43.1990 C   0  0  0  0  0  0  0  0  0  0  0  0
   44.4560   35.8600   42.3290 C   0  0  0  0  0  0  0  0  0  0  0  0
   45.1360   32.2630   43.2780 H   0  0  0  0  0  0  0  0  0  0  0  0
   46.5140   34.0450   44.1910 H   0  0  0  0  0  0  0  0  0  0  0  0
   46.0800   36.4420   43.5730 H   0  0  0  0  0  0  0  0  0  0  0  0
   44.2190   36.8830   42.0250 H   0  0  0  0  0  0  0  0  0  0  0  0
   40.3430   35.8640   40.2870 C   0  0  0  0  0  0  0  0  0  0  0  0
   41.3300   35.6560   41.2580 C   0  0  0  0  0  0  0  0  0  0  0  0
   42.5650   35.1730   40.8830 C   0  0  0  0  0  0  0  0  0  0  0  0
   42.7440   34.9240   39.5540 N   0  0  0  0  0  0  0  0  0  0  0  0
   41.7880   35.1270   38.6220 C   0  0  0  0  0  0  0  0  0  0  0  0
   40.5890   35.5990   39.0050 N   0  0  0  0  0  0  0  0  0  0  0  0
   39.3740   36.2440   40.5860 H   0  0  0  0  0  0  0  0  0  0  0  0
   41.1720   35.8560   42.2890 H   0  0  0  0  0  0  0  0  0  0  0  0
   42.1240   34.8680   37.6130 H   0  0  0  0  0  0  0  0  0  0  0  0
   40.5290   31.8910   41.9880 S   0  0  0  0  0  0  0  0  0  0  0  0
   39.7880   33.0630   42.5880 O   0  0  0  0  0  0  0  0  0  0  0  0
   38.9380   33.0240   43.0900 H   0  0  0  0  0  0  0  0  0  0  0  0
   39.8500   30.6130   42.3370 O   0  0  0  0  0  0  0  0  0  0  0  0
   40.2880   29.7120   42.2190 H   0  0  0  0  0  0  0  0  0  0  0  0
   40.5220   32.0630   40.3160 O   0  0  0  0  0  0  0  0  0  0  0  0
   39.5700   31.1880   39.8020 C   0  0  0  0  0  0  0  0  0  0  0  0
   38.9740   31.7710   39.0490 H   0  0  0  0  0  0  0  0  0  0  0  0
   38.8940   30.7530   40.5310 H   0  0  0  0  0  0  0  0  0  0  0  0
   40.2930   30.0980   38.9860 C   0  0  0  0  0  0  0  0  0  0  0  0
   41.2690   30.5040   38.6550 H   0  0  0  0  0  0  0  0  0  0  0  0
   40.4940   29.2320   39.6260 H   0  0  0  0  0  0  0  0  0  0  0  0
   39.4450   29.7140   37.8780 N   0  0  0  0  0  0  0  0  0  0  0  0
   39.2520   30.5760   36.8530 C   0  0  0  0  0  3  0  0  0  0  0  0
   38.4270   30.1550   35.8170 C   0  0  0  0  0  0  0  0  0  0  0  0
   38.2350   30.8160   34.9580 H   0  0  0  0  0  0  0  0  0  0  0  0
   37.8550   28.9020   35.8790 C   0  0  0  0  0  0  0  0  0  0  0  0
   37.0920   28.4730   34.9530 O   0  0  0  0  0  0  0  0  0  0  0  0
   38.0830   28.0790   36.9300 N   0  0  0  0  0  0  0  0  0  0  0  0
   38.8790   28.4920   37.9280 C   0  0  0  0  0  0  0  0  0  0  0  0
   39.0960   27.7170   38.9200 O   0  0  0  0  0  0  0  0  0  0  0  0
   37.6680   27.1240   37.0130 H   0  0  0  0  0  0  0  0  0  0  0  0
  1  2  1  0  0  0  0
  3  7  1  0  0  0  0
  3  1  1  0  0  0  0
  4  3  1  0  0  0  0
  5  3  1  0  0  0  0
  6  7  2  0  0  0  0
  6 11  1  0  0  0  0
  7  8  1  0  0  0  0
  8 12  1  0  0  0  0
  8  9  2  0  0  0  0
  9 13  1  0  0  0  0
 10  9  1  0  0  0  0
 10 14  1  0  0  0  0
 11 10  2  0  0  0  0
 15 11  1  0  0  0  0
 16 22  1  0  0  0  0
 16 17  1  0  0  0  0
 17 23  1  0  0  0  0
 18 17  2  0  0  0  0
 18  6  1  0  0  0  0
 19 18  1  0  0  0  0
 20 21  1  0  0  0  0
 20 19  2  0  0  0  0
 21 16  2  0  0  0  0
 24 20  1  0  0  0  0
 25 28  1  0  0  0  0
 25  1  1  0  0  0  0
 25 26  1  0  0  0  0
 26 27  1  0  0  0  0
 29 28  1  0  0  0  0
 30 25  1  0  0  0  0
 31 30  1  0  0  0  0
 31 33  1  0  0  0  0
 32 31  1  0  0  0  0
 34 36  1  0  0  0  0
 34 31  1  0  0  0  0
 35 34  1  0  0  0  0
 37 44  1  0  0  0  0
 37 34  1  0  0  0  0
 38 37  1  0  0  0  0
 39 41  1  0  0  0  0
 39 38  2  0  0  0  0
 40 39  1  0  0  0  0
 41 43  1  0  0  0  0
 42 41  2  0  0  0  0
 43 46  1  0  0  0  0
 43 44  1  0  0  0  0
 44 45  2  0  0  0  0
M  END
>  <minimizedAffinity>
-5.2060709

>  <minimizedRMSD>
2.23075008

$$$$
