
 OpenBabel03252504103D

 26 27  0  0  0  0  0  0  0  0999 V2000
   46.9050   34.0830   42.9310 C   0  0  0  0  0  0  0  0  0  0  0  0
   45.8640   34.6410   43.6860 C   0  0  0  0  0  0  0  0  0  0  0  0
   45.3890   33.9160   44.7910 C   0  0  0  0  0  0  0  0  0  0  0  0
   45.9570   32.7190   45.0710 N   0  0  0  0  0  0  0  0  0  0  0  0
   46.9680   32.2110   44.3120 C   0  0  0  0  0  0  0  0  0  0  0  0
   47.4320   32.8910   43.2560 N   0  0  0  0  0  0  0  0  0  0  0  0
   44.5950   34.3310   45.3760 H   0  0  0  0  0  0  0  0  0  0  0  0
   47.5270   30.9470   44.6550 N   0  0  0  0  0  0  0  0  0  0  0  0
   48.6860   30.5450   44.1030 C   0  0  0  0  0  3  0  0  0  0  0  0
   49.2780   29.3210   44.4000 C   0  0  0  0  0  0  0  0  0  0  0  0
   50.2130   29.0140   43.9450 H   0  0  0  0  0  0  0  0  0  0  0  0
   48.5780   28.5550   45.3080 C   0  0  0  0  0  0  0  0  0  0  0  0
   49.0820   27.4260   45.6120 O   0  0  0  0  0  0  0  0  0  0  0  0
   47.4180   28.9390   45.8710 N   0  0  0  0  0  0  0  0  0  0  0  0
   46.9040   30.1550   45.5260 C   0  0  0  0  0  0  0  0  0  0  0  0
   45.8200   30.5330   46.0410 O   0  0  0  0  0  0  0  0  0  0  0  0
   46.9450   28.3090   46.5490 H   0  0  0  0  0  0  0  0  0  0  0  0
   45.3120   35.9640   43.2900 C   0  0  0  0  0  0  0  0  0  0  0  0
   46.3320   36.8160   42.9210 F   0  0  0  0  0  0  0  0  0  0  0  0
   44.5050   35.7800   42.1740 F   0  0  0  0  0  0  0  0  0  0  0  0
   44.5860   36.5850   44.2650 F   0  0  0  0  0  0  0  0  0  0  0  0
   47.3510   34.7910   41.8750 O   0  0  0  0  0  0  0  0  0  0  0  0
   48.6820   34.9470   41.4620 C   0  0  0  0  0  0  0  0  0  0  0  0
   49.4220   35.3200   42.5800 F   0  0  0  0  0  0  0  0  0  0  0  0
   49.1270   33.7880   40.8730 F   0  0  0  0  0  0  0  0  0  0  0  0
   48.7800   36.0370   40.6060 F   0  0  0  0  0  0  0  0  0  0  0  0
  1  6  2  0  0  0  0
  1  2  1  0  0  0  0
  2  3  2  0  0  0  0
  3  4  1  0  0  0  0
  3  7  1  0  0  0  0
  5  8  1  0  0  0  0
  5  4  2  0  0  0  0
  6  5  1  0  0  0  0
  8 15  1  0  0  0  0
  9 10  2  0  0  0  0
  9  8  1  0  0  0  0
 10 12  1  0  0  0  0
 11 10  1  0  0  0  0
 12 13  2  0  0  0  0
 12 14  1  0  0  0  0
 14 17  1  0  0  0  0
 15 14  1  0  0  0  0
 15 16  2  0  0  0  0
 18  2  1  0  0  0  0
 18 21  1  0  0  0  0
 19 18  1  0  0  0  0
 20 18  1  0  0  0  0
 22  1  1  0  0  0  0
 23 22  1  0  0  0  0
 23 24  1  0  0  0  0
 25 23  1  0  0  0  0
 26 23  1  0  0  0  0
M  END
>  <minimizedAffinity>
-5.08674049

>  <minimizedRMSD>
1.00666022

$$$$
