
 OpenBabel03252502123D

 38 41  0  0  0  0  0  0  0  0999 V2000
   43.3700   30.7340   37.9950 Cl  0  0  0  0  0  0  0  0  0  0  0  0
   44.8440   31.1800   38.8370 C   0  0  0  0  0  0  0  0  0  0  0  0
   44.8150   31.9990   39.9140 C   0  0  0  0  0  0  0  0  0  0  0  0
   46.0300   32.2870   40.5010 C   0  0  0  0  0  0  0  0  0  0  0  0
   47.2110   31.7860   40.0420 C   0  0  0  0  0  0  0  0  0  0  0  0
   47.2260   30.9560   38.9490 C   0  0  0  0  0  0  0  0  0  0  0  0
   46.0270   30.6600   38.3530 C   0  0  0  0  0  0  0  0  0  0  0  0
   48.1340   32.0470   40.5470 H   0  0  0  0  0  0  0  0  0  0  0  0
   48.1410   30.5390   38.5560 H   0  0  0  0  0  0  0  0  0  0  0  0
   46.0220   30.0070   37.4910 H   0  0  0  0  0  0  0  0  0  0  0  0
   46.0350   33.1770   41.6770 C   0  0  0  0  0  0  0  0  0  0  0  0
   46.0140   34.5620   41.4160 C   0  0  0  0  0  0  0  0  0  0  0  0
   46.0210   35.2930   42.5800 C   0  0  0  0  0  0  0  0  0  0  0  0
   46.0450   34.8250   43.8550 C   0  0  0  0  0  0  0  0  0  0  0  0
   46.0640   33.4450   44.0070 C   0  0  0  0  0  0  0  0  0  0  0  0
   46.0580   32.6730   42.8930 N   0  0  0  0  0  0  0  0  0  0  0  0
   45.9950   35.0090   40.4340 H   0  0  0  0  0  0  0  0  0  0  0  0
   46.0060   36.3920   42.4800 H   0  0  0  0  0  0  0  0  0  0  0  0
   46.0500   35.4380   44.7230 H   0  0  0  0  0  0  0  0  0  0  0  0
   46.0900   32.9200   45.3320 N   0  0  0  0  0  0  0  0  0  0  0  0
   45.3480   33.3170   46.3810 C   0  0  0  0  0  3  0  0  0  0  0  0
   45.5070   32.6880   47.6020 C   0  0  0  0  0  0  0  0  0  0  0  0
   44.8790   33.0530   48.4120 H   0  0  0  0  0  0  0  0  0  0  0  0
   46.4210   31.6580   47.7440 C   0  0  0  0  0  0  0  0  0  0  0  0
   46.5300   31.1110   48.8850 O   0  0  0  0  0  0  0  0  0  0  0  0
   47.1620   31.2710   46.6710 N   0  0  0  0  0  0  0  0  0  0  0  0
   46.9870   31.9050   45.4810 C   0  0  0  0  0  0  0  0  0  0  0  0
   47.7250   31.4640   44.5600 O   0  0  0  0  0  0  0  0  0  0  0  0
   47.8450   30.4920   46.7980 H   0  0  0  0  0  0  0  0  0  0  0  0
   41.7470   34.1710   40.4020 C   0  0  0  0  0  0  0  0  0  0  0  0
   42.9820   33.6920   39.9420 C   0  0  0  0  0  0  0  0  0  0  0  0
   43.5410   32.5130   40.3740 C   0  0  0  0  0  0  0  0  0  0  0  0
   42.7980   31.8190   41.3010 N   0  0  0  0  0  0  0  0  0  0  0  0
   41.6150   32.2700   41.7470 C   0  0  0  0  0  0  0  0  0  0  0  0
   41.0830   33.4310   41.3120 N   0  0  0  0  0  0  0  0  0  0  0  0
   41.3700   35.1080   40.0180 H   0  0  0  0  0  0  0  0  0  0  0  0
   43.5290   34.2750   39.2130 H   0  0  0  0  0  0  0  0  0  0  0  0
   41.1170   31.6350   42.4820 H   0  0  0  0  0  0  0  0  0  0  0  0
  1  2  1  0  0  0  0
  2  3  1  0  0  0  0
  3 32  1  0  0  0  0
  3  4  2  0  0  0  0
  4 11  1  0  0  0  0
  5  4  1  0  0  0  0
  5  8  1  0  0  0  0
  6  5  2  0  0  0  0
  7  2  2  0  0  0  0
  7  6  1  0  0  0  0
  9  6  1  0  0  0  0
 10  7  1  0  0  0  0
 11 16  1  0  0  0  0
 12 11  2  0  0  0  0
 12 13  1  0  0  0  0
 13 14  2  0  0  0  0
 14 15  1  0  0  0  0
 14 19  1  0  0  0  0
 15 20  1  0  0  0  0
 16 15  2  0  0  0  0
 17 12  1  0  0  0  0
 18 13  1  0  0  0  0
 20 27  1  0  0  0  0
 20 21  1  0  0  0  0
 21 22  2  0  0  0  0
 22 24  1  0  0  0  0
 22 23  1  0  0  0  0
 24 25  2  0  0  0  0
 26 29  1  0  0  0  0
 26 24  1  0  0  0  0
 27 26  1  0  0  0  0
 28 27  2  0  0  0  0
 30 35  1  0  0  0  0
 31 32  1  0  0  0  0
 31 30  2  0  0  0  0
 32 33  2  0  0  0  0
 33 34  1  0  0  0  0
 34 38  1  0  0  0  0
 35 34  2  0  0  0  0
 36 30  1  0  0  0  0
 37 31  1  0  0  0  0
M  END
>  <minimizedAffinity>
-4.85461569

>  <minimizedRMSD>
5.95883036

$$$$
