
 OpenBabel03252508453D

 46 48  0  0  0  0  0  0  0  0999 V2000
   42.3370   31.7440   42.5220 N   0  0  0  0  0  0  0  0  0  0  0  0
   42.7460   30.8010   42.7080 H   0  0  0  0  0  0  0  0  0  0  0  0
   43.0350   32.5440   41.5700 C   0  0  0  0  0  0  0  0  0  0  0  0
   43.6990   31.9030   40.9200 H   0  0  0  0  0  0  0  0  0  0  0  0
   42.2920   33.0040   40.8950 H   0  0  0  0  0  0  0  0  0  0  0  0
   43.6790   34.9450   41.8910 C   0  0  0  0  0  0  0  0  0  0  0  0
   43.9080   33.5980   42.1590 C   0  0  0  0  0  0  0  0  0  0  0  0
   44.9620   33.2620   42.9830 C   0  0  0  0  0  0  0  0  0  0  0  0
   45.7510   34.2480   43.5130 C   0  0  0  0  0  0  0  0  0  0  0  0
   45.5490   35.5760   43.2670 C   0  0  0  0  0  0  0  0  0  0  0  0
   44.4830   35.8630   42.4380 C   0  0  0  0  0  0  0  0  0  0  0  0
   45.1760   32.2270   43.2160 H   0  0  0  0  0  0  0  0  0  0  0  0
   46.5840   33.9660   44.1650 H   0  0  0  0  0  0  0  0  0  0  0  0
   46.1420   36.3880   43.6600 H   0  0  0  0  0  0  0  0  0  0  0  0
   44.2410   36.8980   42.1830 H   0  0  0  0  0  0  0  0  0  0  0  0
   40.3080   35.9360   40.5120 C   0  0  0  0  0  0  0  0  0  0  0  0
   41.3190   35.6820   41.4460 C   0  0  0  0  0  0  0  0  0  0  0  0
   42.5520   35.2420   41.0160 C   0  0  0  0  0  0  0  0  0  0  0  0
   42.7050   35.0800   39.6690 N   0  0  0  0  0  0  0  0  0  0  0  0
   41.7250   35.3280   38.7730 C   0  0  0  0  0  0  0  0  0  0  0  0
   40.5290   35.7560   39.2100 N   0  0  0  0  0  0  0  0  0  0  0  0
   39.3400   36.2820   40.8540 H   0  0  0  0  0  0  0  0  0  0  0  0
   41.1810   35.8140   42.4910 H   0  0  0  0  0  0  0  0  0  0  0  0
   42.0430   35.1380   37.7430 H   0  0  0  0  0  0  0  0  0  0  0  0
   40.6700   31.5770   42.1460 S   0  0  0  0  0  0  0  0  0  0  0  0
   39.8990   32.8110   42.5510 O   0  0  0  0  0  0  0  0  0  0  0  0
   39.0890   32.8370   43.1160 H   0  0  0  0  0  0  0  0  0  0  0  0
   40.0960   30.3690   42.7990 O   0  0  0  0  0  0  0  0  0  0  0  0
   40.5800   29.4840   42.8320 H   0  0  0  0  0  0  0  0  0  0  0  0
   40.5410   31.3990   40.4790 O   0  0  0  0  0  0  0  0  0  0  0  0
   39.6620   32.3740   40.0140 C   0  0  0  0  0  0  0  0  0  0  0  0
   40.0020   32.6410   38.9770 H   0  0  0  0  0  0  0  0  0  0  0  0
   39.6070   33.2760   40.6140 H   0  0  0  0  0  0  0  0  0  0  0  0
   38.2720   31.7350   39.8300 C   0  0  0  0  0  0  0  0  0  0  0  0
   38.0060   31.2070   40.7670 H   0  0  0  0  0  0  0  0  0  0  0  0
   37.5250   32.5210   39.6690 H   0  0  0  0  0  0  0  0  0  0  0  0
   38.3200   30.8500   38.6860 N   0  0  0  0  0  0  0  0  0  0  0  0
   38.6980   31.3340   37.4800 C   0  0  0  0  0  3  0  0  0  0  0  0
   38.7260   30.4410   36.4170 C   0  0  0  0  0  0  0  0  0  0  0  0
   39.0250   30.7810   35.4150 H   0  0  0  0  0  0  0  0  0  0  0  0
   38.3720   29.1250   36.6350 C   0  0  0  0  0  0  0  0  0  0  0  0
   38.3820   28.2690   35.6920 O   0  0  0  0  0  0  0  0  0  0  0  0
   38.0010   28.6930   37.8650 N   0  0  0  0  0  0  0  0  0  0  0  0
   37.9770   29.5630   38.8870 C   0  0  0  0  0  0  0  0  0  0  0  0
   37.6280   29.1580   40.0470 O   0  0  0  0  0  0  0  0  0  0  0  0
   37.7280   27.7060   38.0680 H   0  0  0  0  0  0  0  0  0  0  0  0
  1  2  1  0  0  0  0
  3  7  1  0  0  0  0
  3  1  1  0  0  0  0
  4  3  1  0  0  0  0
  5  3  1  0  0  0  0
  6  7  2  0  0  0  0
  6 11  1  0  0  0  0
  7  8  1  0  0  0  0
  8 12  1  0  0  0  0
  8  9  2  0  0  0  0
  9 13  1  0  0  0  0
 10  9  1  0  0  0  0
 10 14  1  0  0  0  0
 11 10  2  0  0  0  0
 15 11  1  0  0  0  0
 16 22  1  0  0  0  0
 16 17  1  0  0  0  0
 17 23  1  0  0  0  0
 18 17  2  0  0  0  0
 18  6  1  0  0  0  0
 19 18  1  0  0  0  0
 20 21  1  0  0  0  0
 20 19  2  0  0  0  0
 21 16  2  0  0  0  0
 24 20  1  0  0  0  0
 25  1  1  0  0  0  0
 25 26  1  0  0  0  0
 25 28  1  0  0  0  0
 26 27  1  0  0  0  0
 28 29  1  0  0  0  0
 30 25  1  0  0  0  0
 31 30  1  0  0  0  0
 31 33  1  0  0  0  0
 32 31  1  0  0  0  0
 34 31  1  0  0  0  0
 34 35  1  0  0  0  0
 36 34  1  0  0  0  0
 37 44  1  0  0  0  0
 37 34  1  0  0  0  0
 38 37  1  0  0  0  0
 39 41  1  0  0  0  0
 39 38  2  0  0  0  0
 40 39  1  0  0  0  0
 41 43  1  0  0  0  0
 42 41  2  0  0  0  0
 43 46  1  0  0  0  0
 43 44  1  0  0  0  0
 44 45  2  0  0  0  0
M  END
>  <minimizedAffinity>
-5.53405046

>  <minimizedRMSD>
2.37874126

$$$$
