
 OpenBabel03252506253D

 46 50  0  0  0  0  0  0  0  0999 V2000
   45.4560   27.8960   48.0730 C   0  0  0  0  0  0  0  0  0  0  0  0
   45.0140   29.2020   47.9430 C   0  0  0  0  0  0  0  0  0  0  0  0
   44.2360   29.4750   46.8200 C   0  0  0  0  0  0  0  0  0  0  0  0
   43.9180   28.5140   45.8870 C   0  0  0  0  0  0  0  0  0  0  0  0
   43.2130   28.4830   44.7460 N   0  0  0  0  0  0  0  0  0  0  0  0
   43.2160   27.2550   44.2080 C   0  0  0  0  0  0  0  0  0  0  0  0
   43.9540   26.4120   45.0150 C   0  0  0  0  0  0  0  0  0  0  0  0
   44.3700   27.2220   46.0380 C   0  0  0  0  0  0  0  0  0  0  0  0
   45.1430   26.9380   47.1490 C   0  0  0  0  0  0  0  0  0  0  0  0
   46.0600   27.7430   48.9710 H   0  0  0  0  0  0  0  0  0  0  0  0
   43.8220   30.4470   46.5870 H   0  0  0  0  0  0  0  0  0  0  0  0
   42.7140   29.3130   44.3150 H   0  0  0  0  0  0  0  0  0  0  0  0
   42.7150   26.9820   43.2870 H   0  0  0  0  0  0  0  0  0  0  0  0
   44.1700   25.3600   44.8980 H   0  0  0  0  0  0  0  0  0  0  0  0
   45.6370   25.6170   47.3560 N   0  0  0  0  0  0  0  0  0  0  0  0
   45.0130   24.6090   47.9940 C   0  0  0  0  0  3  0  0  0  0  0  0
   45.6630   23.3830   48.0920 C   0  0  0  0  0  0  0  0  0  0  0  0
   45.1350   22.5910   48.6110 H   0  0  0  0  0  0  0  0  0  0  0  0
   46.9180   23.2040   47.5480 C   0  0  0  0  0  0  0  0  0  0  0  0
   47.5080   22.0970   47.6350 O   0  0  0  0  0  0  0  0  0  0  0  0
   47.5080   24.2550   46.9110 N   0  0  0  0  0  0  0  0  0  0  0  0
   46.8620   25.4340   46.8260 C   0  0  0  0  0  0  0  0  0  0  0  0
   47.5230   26.3320   46.2070 O   0  0  0  0  0  0  0  0  0  0  0  0
   48.4700   24.0820   46.5070 H   0  0  0  0  0  0  0  0  0  0  0  0
   45.2320   30.3550   48.8010 C   0  0  0  0  0  0  0  0  0  0  0  0
   44.3840   31.0780   48.7430 H   0  0  0  0  0  0  0  0  0  0  0  0
   45.1820   29.9870   49.8660 H   0  0  0  0  0  0  0  0  0  0  0  0
   46.5260   31.0660   48.6630 C   0  0  0  0  0  0  0  0  0  0  0  0
   46.5490   31.8700   49.4530 H   0  0  0  0  0  0  0  0  0  0  0  0
   47.3500   30.3860   48.8570 H   0  0  0  0  0  0  0  0  0  0  0  0
   46.3110   33.0420   45.6960 C   0  0  0  0  0  0  0  0  0  0  0  0
   47.2240   32.0520   45.3160 C   0  0  0  0  0  0  0  0  0  0  0  0
   47.4130   31.2060   46.3600 C   0  0  0  0  0  0  0  0  0  0  0  0
   46.6440   31.6590   47.3480 N   0  0  0  0  0  0  0  0  0  0  0  0
   45.9720   32.7640   46.9660 N   0  0  0  0  0  0  0  0  0  0  0  0
   47.7270   31.9370   44.3540 H   0  0  0  0  0  0  0  0  0  0  0  0
   48.0600   30.3270   46.4050 H   0  0  0  0  0  0  0  0  0  0  0  0
   44.4720   35.9570   44.4900 C   0  0  0  0  0  0  0  0  0  0  0  0
   45.0160   36.1680   43.2180 C   0  0  0  0  0  0  0  0  0  0  0  0
   46.0120   35.3010   42.7870 C   0  0  0  0  0  0  0  0  0  0  0  0
   46.3790   34.3200   43.6320 N   0  0  0  0  0  0  0  0  0  0  0  0
   45.8550   34.1280   44.8440 C   0  0  0  0  0  0  0  0  0  0  0  0
   44.8990   34.9550   45.2650 N   0  0  0  0  0  0  0  0  0  0  0  0
   43.6960   36.6520   44.7960 H   0  0  0  0  0  0  0  0  0  0  0  0
   44.7420   36.9370   42.5290 H   0  0  0  0  0  0  0  0  0  0  0  0
   46.5100   35.3580   41.8270 H   0  0  0  0  0  0  0  0  0  0  0  0
  1 10  1  0  0  0  0
  2  1  1  0  0  0  0
  2 25  1  0  0  0  0
  3  2  2  0  0  0  0
  4  8  2  0  0  0  0
  4  3  1  0  0  0  0
  5  4  1  0  0  0  0
  6  5  1  0  0  0  0
  6  7  2  0  0  0  0
  7  8  1  0  0  0  0
  8  9  1  0  0  0  0
  9 15  1  0  0  0  0
  9  1  2  0  0  0  0
 11  3  1  0  0  0  0
 12  5  1  0  0  0  0
 13  6  1  0  0  0  0
 14  7  1  0  0  0  0
 15 16  1  0  0  0  0
 16 17  2  0  0  0  0
 17 18  1  0  0  0  0
 19 20  2  0  0  0  0
 19 17  1  0  0  0  0
 21 19  1  0  0  0  0
 22 21  1  0  0  0  0
 22 15  1  0  0  0  0
 23 22  2  0  0  0  0
 24 21  1  0  0  0  0
 25 27  1  0  0  0  0
 26 25  1  0  0  0  0
 28 25  1  0  0  0  0
 28 30  1  0  0  0  0
 28 29  1  0  0  0  0
 31 35  2  0  0  0  0
 32 31  1  0  0  0  0
 32 33  2  0  0  0  0
 33 37  1  0  0  0  0
 33 34  1  0  0  0  0
 34 28  1  0  0  0  0
 35 34  1  0  0  0  0
 36 32  1  0  0  0  0
 38 44  1  0  0  0  0
 38 43  1  0  0  0  0
 39 38  2  0  0  0  0
 40 39  1  0  0  0  0
 40 41  2  0  0  0  0
 41 42  1  0  0  0  0
 42 43  2  0  0  0  0
 42 31  1  0  0  0  0
 45 39  1  0  0  0  0
 46 40  1  0  0  0  0
M  END
>  <minimizedAffinity>
-5.45513153

>  <minimizedRMSD>
1.47107387

$$$$
