
 OpenBabel03252508453D

 46 48  0  0  0  0  0  0  0  0999 V2000
   42.5540   31.6420   42.5360 N   0  0  0  0  0  0  0  0  0  0  0  0
   43.0400   30.7210   42.6230 H   0  0  0  0  0  0  0  0  0  0  0  0
   43.1020   32.5420   41.5760 C   0  0  0  0  0  0  0  0  0  0  0  0
   43.7530   31.9900   40.8370 H   0  0  0  0  0  0  0  0  0  0  0  0
   42.2700   32.9740   40.9930 H   0  0  0  0  0  0  0  0  0  0  0  0
   43.6990   34.9640   41.8250 C   0  0  0  0  0  0  0  0  0  0  0  0
   43.9420   33.6320   42.1490 C   0  0  0  0  0  0  0  0  0  0  0  0
   44.9780   33.3440   43.0120 C   0  0  0  0  0  0  0  0  0  0  0  0
   45.7370   34.3620   43.5270 C   0  0  0  0  0  0  0  0  0  0  0  0
   45.5190   35.6770   43.2270 C   0  0  0  0  0  0  0  0  0  0  0  0
   44.4720   35.9150   42.3590 C   0  0  0  0  0  0  0  0  0  0  0  0
   45.2020   32.3230   43.2900 H   0  0  0  0  0  0  0  0  0  0  0  0
   46.5550   34.1190   44.2110 H   0  0  0  0  0  0  0  0  0  0  0  0
   46.0880   36.5130   43.6050 H   0  0  0  0  0  0  0  0  0  0  0  0
   44.2210   36.9360   42.0600 H   0  0  0  0  0  0  0  0  0  0  0  0
   40.3450   35.8250   40.3220 C   0  0  0  0  0  0  0  0  0  0  0  0
   41.3330   35.6200   41.2920 C   0  0  0  0  0  0  0  0  0  0  0  0
   42.5910   35.2090   40.9090 C   0  0  0  0  0  0  0  0  0  0  0  0
   42.7910   35.0260   39.5720 N   0  0  0  0  0  0  0  0  0  0  0  0
   41.8340   35.2260   38.6410 C   0  0  0  0  0  0  0  0  0  0  0  0
   40.6120   35.6260   39.0320 N   0  0  0  0  0  0  0  0  0  0  0  0
   39.3570   36.1490   40.6270 H   0  0  0  0  0  0  0  0  0  0  0  0
   41.1580   35.7690   42.3300 H   0  0  0  0  0  0  0  0  0  0  0  0
   42.1890   35.0250   37.6250 H   0  0  0  0  0  0  0  0  0  0  0  0
   40.8730   31.3790   42.3060 S   0  0  0  0  0  0  0  0  0  0  0  0
   40.0950   32.6610   42.4940 O   0  0  0  0  0  0  0  0  0  0  0  0
   39.3190   32.7940   43.0900 H   0  0  0  0  0  0  0  0  0  0  0  0
   40.3680   30.3260   43.2290 O   0  0  0  0  0  0  0  0  0  0  0  0
   40.8750   29.4740   43.4150 H   0  0  0  0  0  0  0  0  0  0  0  0
   40.6520   30.8570   40.7230 O   0  0  0  0  0  0  0  0  0  0  0  0
   40.0830   29.5880   40.7690 C   0  0  0  0  0  0  0  0  0  0  0  0
   39.0120   29.7060   40.4520 H   0  0  0  0  0  0  0  0  0  0  0  0
   40.1140   29.0970   41.7370 H   0  0  0  0  0  0  0  0  0  0  0  0
   40.7320   28.7170   39.6760 C   0  0  0  0  0  0  0  0  0  0  0  0
   41.8240   28.9010   39.6890 H   0  0  0  0  0  0  0  0  0  0  0  0
   40.5720   27.6570   39.9070 H   0  0  0  0  0  0  0  0  0  0  0  0
   40.1260   29.0470   38.4040 N   0  0  0  0  0  0  0  0  0  0  0  0
   38.7890   28.9180   38.2450 C   0  0  0  0  0  3  0  0  0  0  0  0
   38.2630   29.2500   37.0030 C   0  0  0  0  0  0  0  0  0  0  0  0
   37.1820   29.1630   36.8180 H   0  0  0  0  0  0  0  0  0  0  0  0
   39.1120   29.6870   36.0080 C   0  0  0  0  0  0  0  0  0  0  0  0
   38.6750   30.0030   34.8520 O   0  0  0  0  0  0  0  0  0  0  0  0
   40.4450   29.7990   36.2220 N   0  0  0  0  0  0  0  0  0  0  0  0
   40.9470   29.4760   37.4240 C   0  0  0  0  0  0  0  0  0  0  0  0
   42.2030   29.5790   37.6290 O   0  0  0  0  0  0  0  0  0  0  0  0
   41.1170   30.1250   35.4940 H   0  0  0  0  0  0  0  0  0  0  0  0
  1  2  1  0  0  0  0
  3  7  1  0  0  0  0
  3  1  1  0  0  0  0
  4  3  1  0  0  0  0
  5  3  1  0  0  0  0
  6  7  2  0  0  0  0
  6 11  1  0  0  0  0
  7  8  1  0  0  0  0
  8 12  1  0  0  0  0
  8  9  2  0  0  0  0
  9 13  1  0  0  0  0
 10  9  1  0  0  0  0
 10 14  1  0  0  0  0
 11 10  2  0  0  0  0
 15 11  1  0  0  0  0
 16 22  1  0  0  0  0
 16 17  1  0  0  0  0
 17 23  1  0  0  0  0
 18 17  2  0  0  0  0
 18  6  1  0  0  0  0
 19 18  1  0  0  0  0
 20 21  1  0  0  0  0
 20 19  2  0  0  0  0
 21 16  2  0  0  0  0
 24 20  1  0  0  0  0
 25 26  1  0  0  0  0
 25  1  1  0  0  0  0
 25 28  1  0  0  0  0
 26 27  1  0  0  0  0
 28 29  1  0  0  0  0
 30 31  1  0  0  0  0
 30 25  1  0  0  0  0
 31 33  1  0  0  0  0
 32 31  1  0  0  0  0
 34 35  1  0  0  0  0
 34 36  1  0  0  0  0
 34 31  1  0  0  0  0
 37 34  1  0  0  0  0
 38 37  1  0  0  0  0
 39 38  2  0  0  0  0
 40 39  1  0  0  0  0
 41 43  1  0  0  0  0
 41 39  1  0  0  0  0
 42 41  2  0  0  0  0
 43 44  1  0  0  0  0
 44 45  2  0  0  0  0
 44 37  1  0  0  0  0
 46 43  1  0  0  0  0
M  END
>  <minimizedAffinity>
-5.02820015

>  <minimizedRMSD>
1.68766606

$$$$
