
 OpenBabel03242521443D

 39 41  0  0  1  0  0  0  0  0999 V2000
   45.5650   35.5280   43.7970 C   0  0  0  0  0  0  0  0  0  0  0  0
   46.5880   34.7340   43.2840 C   0  0  0  0  0  0  0  0  0  0  0  0
   47.0080   33.6030   43.9730 C   0  0  0  0  0  0  0  0  0  0  0  0
   46.3860   33.3330   45.1210 N   0  0  0  0  0  0  0  0  0  0  0  0
   45.3920   34.1020   45.6200 C   0  0  0  0  0  0  0  0  0  0  0  0
   44.9720   35.2000   44.9690 N   0  0  0  0  0  0  0  0  0  0  0  0
   47.0070   35.0500   42.3610 H   0  0  0  0  0  0  0  0  0  0  0  0
   44.8930   33.8750   46.5530 H   0  0  0  0  0  0  0  0  0  0  0  0
   49.0470   33.6060   42.5600 C   0  0  2  0  0  0  0  0  0  0  0  0
   48.0790   32.8250   43.3760 C   0  0  2  0  0  0  0  0  0  0  0  0
   47.6400   31.8570   42.4250 O   0  0  0  0  0  0  0  0  0  0  0  0
   48.8450   31.3610   41.9580 C   0  0  0  0  0  0  0  0  0  0  0  0
   49.8880   32.4310   42.0280 C   0  0  1  0  0  0  0  0  0  0  0  0
   48.5760   34.0270   41.6300 H   0  0  0  0  0  0  0  0  0  0  0  0
   48.6320   32.2900   44.1820 H   0  0  0  0  0  0  0  0  0  0  0  0
   49.1310   30.4460   42.5360 H   0  0  0  0  0  0  0  0  0  0  0  0
   48.7020   31.0900   40.8890 H   0  0  0  0  0  0  0  0  0  0  0  0
   50.7160   32.1940   42.7060 H   0  0  0  0  0  0  0  0  0  0  0  0
   49.7660   34.5320   43.2520 O   0  0  0  0  0  0  0  0  0  0  0  0
   50.5620   34.7680   42.6930 H   0  0  0  0  0  0  0  0  0  0  0  0
   50.4350   32.7890   40.8000 O   0  0  0  0  0  0  0  0  0  0  0  0
   49.8110   32.7920   40.0550 H   0  0  0  0  0  0  0  0  0  0  0  0
   45.1320   36.7490   43.0520 C   0  0  0  0  0  0  0  0  0  0  0  0
   45.9790   37.0810   42.4030 H   0  0  0  0  0  0  0  0  0  0  0  0
   44.2040   36.5600   42.4640 H   0  0  0  0  0  0  0  0  0  0  0  0
   45.2130   39.1750   43.9200 C   0  0  0  0  0  0  0  0  0  0  0  0
   45.7220   39.5190   42.7920 O   0  0  0  0  0  0  0  0  0  0  0  0
   44.9070   37.8010   44.0020 N   0  0  0  0  0  0  0  0  0  0  0  0
   44.4440   37.4600   44.8660 H   0  0  0  0  0  0  0  0  0  0  0  0
   44.6760   43.5100   45.0040 H   0  0  0  0  0  0  0  0  0  0  0  0
   44.7420   42.5410   45.3590 N   0  0  0  0  0  0  0  0  0  0  0  0
   44.9230   41.5190   44.5130 C   0  0  0  0  0  3  0  0  0  0  0  0
   45.0180   40.1900   44.9380 C   0  0  0  0  0  0  0  0  0  0  0  0
   44.9040   40.0640   46.3020 C   0  0  0  0  0  0  0  0  0  0  0  0
   44.9820   38.8950   46.7480 O   0  0  0  0  0  0  0  0  0  0  0  0
   44.7230   41.0710   47.1700 N   0  0  0  0  0  0  0  0  0  0  0  0
   44.6420   42.3180   46.6800 C   0  0  0  0  0  0  0  0  0  0  0  0
   44.4750   43.2350   47.5010 O   0  0  0  0  0  0  0  0  0  0  0  0
   44.6530   40.8410   48.1850 H   0  0  0  0  0  0  0  0  0  0  0  0
  1  6  1  0  0  0  0
  2  1  2  0  0  0  0
  2  3  1  0  0  0  0
  3  4  2  0  0  0  0
  4  5  1  0  0  0  0
  5  8  1  0  0  0  0
  6  5  2  0  0  0  0
  7  2  1  0  0  0  0
  9 14  1  6  0  0  0
  9 19  1  0  0  0  0
  9 10  1  0  0  0  0
 10  3  1  0  0  0  0
 10 15  1  1  0  0  0
 11 10  1  0  0  0  0
 12 13  1  0  0  0  0
 12 11  1  0  0  0  0
 12 16  1  0  0  0  0
 13  9  1  0  0  0  0
 13 18  1  1  0  0  0
 17 12  1  0  0  0  0
 20 19  1  0  0  0  0
 21 13  1  0  0  0  0
 22 21  1  0  0  0  0
 23  1  1  0  0  0  0
 23 28  1  0  0  0  0
 24 23  1  0  0  0  0
 25 23  1  0  0  0  0
 26 28  1  0  0  0  0
 26 33  1  0  0  0  0
 27 26  2  0  0  0  0
 28 29  1  0  0  0  0
 30 31  1  0  0  0  0
 31 37  1  0  0  0  0
 32 33  2  0  0  0  0
 32 31  1  0  0  0  0
 33 34  1  0  0  0  0
 34 35  2  0  0  0  0
 34 36  1  0  0  0  0
 36 39  1  0  0  0  0
 37 36  1  0  0  0  0
 37 38  2  0  0  0  0
M  END
>  <minimizedAffinity>
-3.28260946

>  <minimizedRMSD>
0.743476868

$$$$
