
 OpenBabel03242521443D

 39 41  0  0  1  0  0  0  0  0999 V2000
   45.5750   35.5260   43.7090 C   0  0  0  0  0  0  0  0  0  0  0  0
   46.6140   34.7330   43.2280 C   0  0  0  0  0  0  0  0  0  0  0  0
   47.0310   33.6170   43.9450 C   0  0  0  0  0  0  0  0  0  0  0  0
   46.3910   33.3640   45.0860 N   0  0  0  0  0  0  0  0  0  0  0  0
   45.3820   34.1330   45.5540 C   0  0  0  0  0  0  0  0  0  0  0  0
   44.9640   35.2160   44.8760 N   0  0  0  0  0  0  0  0  0  0  0  0
   47.0460   35.0350   42.3070 H   0  0  0  0  0  0  0  0  0  0  0  0
   44.8680   33.9180   46.4820 H   0  0  0  0  0  0  0  0  0  0  0  0
   49.0910   33.6110   42.5620 C   0  0  2  0  0  0  0  0  0  0  0  0
   48.1180   32.8380   43.3800 C   0  0  2  0  0  0  0  0  0  0  0  0
   47.7030   31.8450   42.4450 O   0  0  0  0  0  0  0  0  0  0  0  0
   48.9200   31.3520   42.0060 C   0  0  0  0  0  0  0  0  0  0  0  0
   49.9510   32.4330   42.0690 C   0  0  1  0  0  0  0  0  0  0  0  0
   48.6300   34.0070   41.6170 H   0  0  0  0  0  0  0  0  0  0  0  0
   48.6640   32.3250   44.2070 H   0  0  0  0  0  0  0  0  0  0  0  0
   49.2060   30.4520   42.6080 H   0  0  0  0  0  0  0  0  0  0  0  0
   48.7960   31.0570   40.9420 H   0  0  0  0  0  0  0  0  0  0  0  0
   50.7700   32.2190   42.7650 H   0  0  0  0  0  0  0  0  0  0  0  0
   49.7900   34.5590   43.2460 O   0  0  0  0  0  0  0  0  0  0  0  0
   50.5920   34.7900   42.6940 H   0  0  0  0  0  0  0  0  0  0  0  0
   50.5130   32.7710   40.8420 O   0  0  0  0  0  0  0  0  0  0  0  0
   49.9000   32.7510   40.0880 H   0  0  0  0  0  0  0  0  0  0  0  0
   45.1460   36.7300   42.9330 C   0  0  0  0  0  0  0  0  0  0  0  0
   46.0080   37.0710   42.3090 H   0  0  0  0  0  0  0  0  0  0  0  0
   44.2420   36.5180   42.3170 H   0  0  0  0  0  0  0  0  0  0  0  0
   45.3760   39.1050   43.9120 C   0  0  0  0  0  0  0  0  0  0  0  0
   46.1620   39.3870   42.9360 O   0  0  0  0  0  0  0  0  0  0  0  0
   44.8700   37.7900   43.8620 N   0  0  0  0  0  0  0  0  0  0  0  0
   44.1860   37.5080   44.5900 H   0  0  0  0  0  0  0  0  0  0  0  0
   44.8540   40.2260   48.2380 H   0  0  0  0  0  0  0  0  0  0  0  0
   44.8570   40.5640   47.2610 N   0  0  0  0  0  0  0  0  0  0  0  0
   45.0920   39.7190   46.2500 C   0  0  0  0  0  3  0  0  0  0  0  0
   45.1090   40.1210   44.9120 C   0  0  0  0  0  0  0  0  0  0  0  0
   44.8580   41.4650   44.7640 C   0  0  0  0  0  0  0  0  0  0  0  0
   44.8590   41.8900   43.5850 O   0  0  0  0  0  0  0  0  0  0  0  0
   44.6190   42.3320   45.7580 N   0  0  0  0  0  0  0  0  0  0  0  0
   44.6230   41.8630   47.0150 C   0  0  0  0  0  0  0  0  0  0  0  0
   44.4000   42.6850   47.9230 O   0  0  0  0  0  0  0  0  0  0  0  0
   44.4440   43.3300   45.5110 H   0  0  0  0  0  0  0  0  0  0  0  0
  1  6  1  0  0  0  0
  2  1  2  0  0  0  0
  2  3  1  0  0  0  0
  3  4  2  0  0  0  0
  4  5  1  0  0  0  0
  5  8  1  0  0  0  0
  6  5  2  0  0  0  0
  7  2  1  0  0  0  0
  9 14  1  6  0  0  0
  9 19  1  0  0  0  0
  9 10  1  0  0  0  0
 10  3  1  0  0  0  0
 10 15  1  1  0  0  0
 11 10  1  0  0  0  0
 12 13  1  0  0  0  0
 12 11  1  0  0  0  0
 12 16  1  0  0  0  0
 13  9  1  0  0  0  0
 13 18  1  1  0  0  0
 17 12  1  0  0  0  0
 20 19  1  0  0  0  0
 21 13  1  0  0  0  0
 22 21  1  0  0  0  0
 23  1  1  0  0  0  0
 23 28  1  0  0  0  0
 24 23  1  0  0  0  0
 25 23  1  0  0  0  0
 26 33  1  0  0  0  0
 27 26  2  0  0  0  0
 28 26  1  0  0  0  0
 28 29  1  0  0  0  0
 31 30  1  0  0  0  0
 32 31  1  0  0  0  0
 33 32  2  0  0  0  0
 34 33  1  0  0  0  0
 34 36  1  0  0  0  0
 35 34  2  0  0  0  0
 36 37  1  0  0  0  0
 37 31  1  0  0  0  0
 37 38  2  0  0  0  0
 39 36  1  0  0  0  0
M  END
>  <minimizedAffinity>
-3.21957207

>  <minimizedRMSD>
0.994161606

$$$$
