
 OpenBabel03252503243D

 48 53  0  0  1  0  0  0  0  0999 V2000
   47.0400   33.5700   37.8620 C   0  0  0  0  0  0  0  0  0  0  0  0
   47.5160   32.3260   37.3270 C   0  0  0  0  0  0  0  0  0  0  0  0
   48.1040   31.4360   38.1880 C   0  0  0  0  0  0  0  0  0  0  0  0
   48.1980   31.7940   39.5010 N   0  0  0  0  0  0  0  0  0  0  0  0
   47.7430   32.9740   39.9930 C   0  0  0  0  0  0  0  0  0  0  0  0
   47.1640   33.8610   39.1690 N   0  0  0  0  0  0  0  0  0  0  0  0
   46.5810   34.2450   37.1410 H   0  0  0  0  0  0  0  0  0  0  0  0
   48.4680   30.5050   37.8250 H   0  0  0  0  0  0  0  0  0  0  0  0
   47.3600   32.0650   35.8650 C   0  0  1  0  0  0  0  0  0  0  0  0
   48.3190   32.6150   34.9110 C   0  0  0  0  0  0  0  0  0  0  0  0
   48.4090   31.1670   35.2240 C   0  0  2  0  0  0  0  0  0  0  0  0
   46.3160   31.8550   35.5740 H   0  0  0  0  0  0  0  0  0  0  0  0
   49.1040   33.3000   35.3760 H   0  0  0  0  0  0  0  0  0  0  0  0
   47.9110   33.0620   34.0150 H   0  0  0  0  0  0  0  0  0  0  0  0
   49.2250   30.8260   35.9020 H   0  0  0  0  0  0  0  0  0  0  0  0
   47.8650   30.2190   34.2170 C   0  0  0  0  0  0  0  0  0  0  0  0
   48.6310   29.5090   33.3180 C   0  0  0  0  0  0  0  0  0  0  0  0
   48.0470   28.6490   32.4070 C   0  0  0  0  0  0  0  0  0  0  0  0
   46.6860   28.4850   32.3820 C   0  0  0  0  0  0  0  0  0  0  0  0
   46.0870   27.6410   31.5000 N   0  0  0  0  0  0  0  0  0  0  0  0
   44.7340   27.4960   31.5000 C   0  0  0  0  0  0  0  0  0  0  0  0
   43.8680   28.1850   32.3850 C   0  0  0  0  0  0  0  0  0  0  0  0
   44.4650   29.0390   33.2800 C   0  0  0  0  0  0  0  0  0  0  0  0
   45.8640   29.1780   33.2670 C   0  0  0  0  0  0  0  0  0  0  0  0
   46.4840   30.0270   34.1610 C   0  0  0  0  0  0  0  0  0  0  0  0
   49.6920   29.6380   33.3390 H   0  0  0  0  0  0  0  0  0  0  0  0
   48.6710   28.0920   31.6980 H   0  0  0  0  0  0  0  0  0  0  0  0
   44.2590   26.8250   30.7980 H   0  0  0  0  0  0  0  0  0  0  0  0
   42.8090   28.0090   32.3140 H   0  0  0  0  0  0  0  0  0  0  0  0
   43.8510   29.5900   33.9780 H   0  0  0  0  0  0  0  0  0  0  0  0
   45.7830   30.5340   34.8090 H   0  0  0  0  0  0  0  0  0  0  0  0
   47.9070   33.2360   41.4450 C   0  0  2  0  0  0  0  0  0  0  0  0
   48.6430   32.3260   42.3080 C   0  0  0  0  0  0  0  0  0  0  0  0
   47.1360   32.2270   42.3510 C   0  0  1  0  0  0  0  0  0  0  0  0
   47.7190   34.2980   41.7110 H   0  0  0  0  0  0  0  0  0  0  0  0
   49.1530   31.4320   41.9040 H   0  0  0  0  0  0  0  0  0  0  0  0
   49.1940   32.7930   43.1570 H   0  0  0  0  0  0  0  0  0  0  0  0
   46.6460   31.3900   41.8540 H   0  0  0  0  0  0  0  0  0  0  0  0
   46.5580   32.7480   43.5740 N   0  0  0  0  0  0  0  0  0  0  0  0
   47.1600   32.5560   44.7790 C   0  0  0  0  0  3  0  0  0  0  0  0
   46.6460   33.0320   45.9690 C   0  0  0  0  0  0  0  0  0  0  0  0
   47.1490   32.8610   46.9060 H   0  0  0  0  0  0  0  0  0  0  0  0
   45.4620   33.7390   45.9200 C   0  0  0  0  0  0  0  0  0  0  0  0
   44.9730   34.1830   46.9780 O   0  0  0  0  0  0  0  0  0  0  0  0
   44.8680   33.9290   44.7310 N   0  0  0  0  0  0  0  0  0  0  0  0
   45.4070   33.4450   43.6030 C   0  0  0  0  0  0  0  0  0  0  0  0
   44.7860   33.6690   42.5310 O   0  0  0  0  0  0  0  0  0  0  0  0
   43.9650   34.4660   44.6870 H   0  0  0  0  0  0  0  0  0  0  0  0
  1  6  1  0  0  0  0
  2  1  2  0  0  0  0
  2  3  1  0  0  0  0
  3  4  2  0  0  0  0
  4  5  1  0  0  0  0
  5 32  1  0  0  0  0
  6  5  2  0  0  0  0
  7  1  1  0  0  0  0
  8  3  1  0  0  0  0
  9 12  1  6  0  0  0
  9  2  1  0  0  0  0
 10 11  1  0  0  0  0
 10 13  1  0  0  0  0
 10  9  1  0  0  0  0
 11  9  1  0  0  0  0
 11 15  1  1  0  0  0
 14 10  1  0  0  0  0
 16 11  1  0  0  0  0
 17 26  1  0  0  0  0
 17 16  2  0  0  0  0
 18 17  1  0  0  0  0
 19 18  2  0  0  0  0
 19 24  1  0  0  0  0
 20 21  2  0  0  0  0
 20 19  1  0  0  0  0
 21 22  1  0  0  0  0
 22 23  2  0  0  0  0
 23 30  1  0  0  0  0
 24 23  1  0  0  0  0
 24 25  2  0  0  0  0
 25 16  1  0  0  0  0
 25 31  1  0  0  0  0
 27 18  1  0  0  0  0
 28 21  1  0  0  0  0
 29 22  1  0  0  0  0
 32 35  1  1  0  0  0
 32 33  1  0  0  0  0
 32 34  1  0  0  0  0
 33 34  1  0  0  0  0
 33 37  1  0  0  0  0
 34 38  1  6  0  0  0
 34 39  1  0  0  0  0
 36 33  1  0  0  0  0
 39 46  1  0  0  0  0
 39 40  1  0  0  0  0
 40 41  2  0  0  0  0
 41 42  1  0  0  0  0
 43 41  1  0  0  0  0
 43 44  2  0  0  0  0
 45 43  1  0  0  0  0
 46 45  1  0  0  0  0
 47 46  2  0  0  0  0
 48 45  1  0  0  0  0
M  END
>  <minimizedAffinity>
-5.09783316

>  <minimizedRMSD>
7.74458647

$$$$
