
 OpenBabel03252505063D

 44 47  0  0  1  0  0  0  0  0999 V2000
   44.5450   35.5340   44.6070 C   0  0  0  0  0  0  0  0  0  0  0  0
   45.2440   35.5940   43.3780 C   0  0  0  0  0  0  0  0  0  0  0  0
   46.3680   34.7270   43.2080 C   0  0  0  0  0  0  0  0  0  0  0  0
   46.7040   33.9000   44.2200 N   0  0  0  0  0  0  0  0  0  0  0  0
   46.0130   33.8730   45.3740 C   0  0  0  0  0  0  0  0  0  0  0  0
   44.9350   34.6850   45.5750 N   0  0  0  0  0  0  0  0  0  0  0  0
   43.6920   36.1820   44.7540 H   0  0  0  0  0  0  0  0  0  0  0  0
   44.9610   36.2620   42.5800 H   0  0  0  0  0  0  0  0  0  0  0  0
   47.0920   34.7750   41.9550 C   0  0  0  0  0  0  0  0  0  0  0  0
   48.2800   35.4330   41.9170 C   0  0  0  0  0  0  0  0  0  0  0  0
   48.9410   35.4490   40.6750 C   0  0  0  0  0  0  0  0  0  0  0  0
   48.3230   34.7990   39.6250 C   0  0  0  0  0  0  0  0  0  0  0  0
   47.1310   34.1400   39.6700 C   0  0  0  0  0  0  0  0  0  0  0  0
   46.5300   34.1550   40.9000 N   0  0  0  0  0  0  0  0  0  0  0  0
   48.7080   35.9230   42.7830 H   0  0  0  0  0  0  0  0  0  0  0  0
   49.8910   35.9530   40.5660 H   0  0  0  0  0  0  0  0  0  0  0  0
   48.8610   34.8330   38.6900 H   0  0  0  0  0  0  0  0  0  0  0  0
   46.5560   33.4910   38.5400 N   0  0  0  0  0  0  0  0  0  0  0  0
   45.3680   32.8180   38.5930 C   0  0  0  0  0  0  0  0  0  0  0  0
   44.8720   32.2110   37.4460 C   0  0  0  0  0  0  0  0  0  0  0  0
   43.9310   31.6860   37.5190 H   0  0  0  0  0  0  0  0  0  0  0  0
   45.6060   32.3040   36.2600 C   0  0  0  0  0  0  0  0  0  0  0  0
   45.1400   31.7440   35.2210 O   0  0  0  0  0  0  0  0  0  0  0  0
   46.7640   32.9740   36.2570 N   0  0  0  0  0  0  0  0  0  0  0  0
   47.2430   33.5640   37.3730 C   0  0  0  0  0  0  0  0  0  0  0  0
   48.3440   34.1650   37.2470 O   0  0  0  0  0  0  0  0  0  0  0  0
   47.2460   32.9980   35.3460 H   0  0  0  0  0  0  0  0  0  0  0  0
   46.4370   32.9410   46.4510 C   0  0  2  0  0  0  0  0  0  0  0  0
   46.9540   31.7180   45.7470 C   0  0  0  0  0  0  0  0  0  0  0  0
   46.0780   30.5330   45.7740 C   0  0  0  0  0  0  0  0  0  0  0  0
   45.7730   30.2650   47.2420 C   0  0  0  0  0  0  0  0  0  0  0  0
   45.0080   31.3490   47.8510 C   0  0  0  0  0  0  0  0  0  0  0  0
   45.3840   32.7150   47.4150 C   0  0  0  0  0  0  0  0  0  0  0  0
   47.2920   33.4500   46.9500 H   0  0  0  0  0  0  0  0  0  0  0  0
   47.9240   31.4210   46.2240 H   0  0  0  0  0  0  0  0  0  0  0  0
   47.2260   31.9140   44.6860 H   0  0  0  0  0  0  0  0  0  0  0  0
   46.6210   29.6780   45.3670 H   0  0  0  0  0  0  0  0  0  0  0  0
   45.1600   30.7460   45.1930 H   0  0  0  0  0  0  0  0  0  0  0  0
   46.7450   30.1470   47.7540 H   0  0  0  0  0  0  0  0  0  0  0  0
   45.1250   29.3880   47.2460 H   0  0  0  0  0  0  0  0  0  0  0  0
   44.2180   31.3730   48.5590 H   0  0  0  0  0  0  0  0  0  0  0  0
   44.7050   33.8540   47.9420 N   0  0  0  0  0  0  0  0  0  0  0  0
   43.7690   33.7460   47.4590 H   0  0  0  0  0  0  0  0  0  0  0  0
   45.0840   34.5400   48.6000 H   0  0  0  0  0  0  0  0  0  0  0  0
  1  7  1  0  0  0  0
  1  6  1  0  0  0  0
  2  1  2  0  0  0  0
  3  2  1  0  0  0  0
  3  4  2  0  0  0  0
  4  5  1  0  0  0  0
  5  6  2  0  0  0  0
  5 28  1  0  0  0  0
  8  2  1  0  0  0  0
  9  3  1  0  0  0  0
 10  9  1  0  0  0  0
 10 15  1  0  0  0  0
 11 10  2  0  0  0  0
 12 13  2  0  0  0  0
 12 11  1  0  0  0  0
 13 14  1  0  0  0  0
 14  9  2  0  0  0  0
 16 11  1  0  0  0  0
 17 12  1  0  0  0  0
 18 19  1  0  0  0  0
 18 13  1  0  0  0  0
 20 21  1  0  0  0  0
 20 19  2  0  0  0  0
 22 20  1  0  0  0  0
 23 22  2  0  0  0  0
 24 22  1  0  0  0  0
 24 25  1  0  0  0  0
 25 18  1  0  0  0  0
 26 25  2  0  0  0  0
 27 24  1  0  0  0  0
 28 34  1  1  0  0  0
 28 33  1  0  0  0  0
 29 30  1  0  0  0  0
 29 35  1  0  0  0  0
 29 28  1  0  0  0  0
 30 31  1  0  0  0  0
 31 40  1  0  0  0  0
 31 39  1  0  0  0  0
 31 32  1  0  0  0  0
 32 41  1  0  0  0  0
 33 32  2  0  0  0  0
 33 42  1  0  0  0  0
 36 29  1  0  0  0  0
 37 30  1  0  0  0  0
 38 30  1  0  0  0  0
 42 44  1  0  0  0  0
 43 42  1  0  0  0  0
M  END
>  <minimizedAffinity>
-8.28310204

>  <minimizedRMSD>
0.375960678

$$$$
