
 OpenBabel03252508453D

 46 48  0  0  0  0  0  0  0  0999 V2000
   42.3370   31.7450   42.5210 N   0  0  0  0  0  0  0  0  0  0  0  0
   42.7450   30.8010   42.7070 H   0  0  0  0  0  0  0  0  0  0  0  0
   43.0360   32.5450   41.5700 C   0  0  0  0  0  0  0  0  0  0  0  0
   43.7000   31.9030   40.9200 H   0  0  0  0  0  0  0  0  0  0  0  0
   42.2940   33.0050   40.8950 H   0  0  0  0  0  0  0  0  0  0  0  0
   43.6820   34.9460   41.8920 C   0  0  0  0  0  0  0  0  0  0  0  0
   43.9090   33.5980   42.1600 C   0  0  0  0  0  0  0  0  0  0  0  0
   44.9610   33.2610   42.9850 C   0  0  0  0  0  0  0  0  0  0  0  0
   45.7510   34.2470   43.5160 C   0  0  0  0  0  0  0  0  0  0  0  0
   45.5500   35.5760   43.2700 C   0  0  0  0  0  0  0  0  0  0  0  0
   44.4860   35.8620   42.4390 C   0  0  0  0  0  0  0  0  0  0  0  0
   45.1740   32.2270   43.2190 H   0  0  0  0  0  0  0  0  0  0  0  0
   46.5820   33.9640   44.1700 H   0  0  0  0  0  0  0  0  0  0  0  0
   46.1430   36.3870   43.6640 H   0  0  0  0  0  0  0  0  0  0  0  0
   44.2450   36.8980   42.1840 H   0  0  0  0  0  0  0  0  0  0  0  0
   40.3140   35.9410   40.5070 C   0  0  0  0  0  0  0  0  0  0  0  0
   41.3240   35.6860   41.4420 C   0  0  0  0  0  0  0  0  0  0  0  0
   42.5560   35.2430   41.0140 C   0  0  0  0  0  0  0  0  0  0  0  0
   42.7100   35.0780   39.6680 N   0  0  0  0  0  0  0  0  0  0  0  0
   41.7320   35.3260   38.7710 C   0  0  0  0  0  0  0  0  0  0  0  0
   40.5360   35.7580   39.2050 N   0  0  0  0  0  0  0  0  0  0  0  0
   39.3470   36.2900   40.8480 H   0  0  0  0  0  0  0  0  0  0  0  0
   41.1850   35.8210   42.4870 H   0  0  0  0  0  0  0  0  0  0  0  0
   42.0500   35.1330   37.7410 H   0  0  0  0  0  0  0  0  0  0  0  0
   40.6700   31.5800   42.1450 S   0  0  0  0  0  0  0  0  0  0  0  0
   39.9000   32.8150   42.5510 O   0  0  0  0  0  0  0  0  0  0  0  0
   39.0900   32.8410   43.1160 H   0  0  0  0  0  0  0  0  0  0  0  0
   40.0950   30.3720   42.7960 O   0  0  0  0  0  0  0  0  0  0  0  0
   40.5780   29.4860   42.8290 H   0  0  0  0  0  0  0  0  0  0  0  0
   40.5410   31.4040   40.4770 O   0  0  0  0  0  0  0  0  0  0  0  0
   39.6620   32.3780   40.0140 C   0  0  0  0  0  0  0  0  0  0  0  0
   40.0000   32.6460   38.9770 H   0  0  0  0  0  0  0  0  0  0  0  0
   39.6070   33.2810   40.6140 H   0  0  0  0  0  0  0  0  0  0  0  0
   38.2710   31.7390   39.8310 C   0  0  0  0  0  0  0  0  0  0  0  0
   38.0070   31.2110   40.7680 H   0  0  0  0  0  0  0  0  0  0  0  0
   37.5240   32.5240   39.6700 H   0  0  0  0  0  0  0  0  0  0  0  0
   38.3190   30.8530   38.6870 N   0  0  0  0  0  0  0  0  0  0  0  0
   38.6960   31.3380   37.4820 C   0  0  0  0  0  3  0  0  0  0  0  0
   38.7240   30.4440   36.4190 C   0  0  0  0  0  0  0  0  0  0  0  0
   39.0220   30.7830   35.4150 H   0  0  0  0  0  0  0  0  0  0  0  0
   38.3740   29.1280   36.6370 C   0  0  0  0  0  0  0  0  0  0  0  0
   38.3850   28.2710   35.6940 O   0  0  0  0  0  0  0  0  0  0  0  0
   38.0050   28.6950   37.8680 N   0  0  0  0  0  0  0  0  0  0  0  0
   37.9800   29.5650   38.8890 C   0  0  0  0  0  0  0  0  0  0  0  0
   37.6320   29.1600   40.0490 O   0  0  0  0  0  0  0  0  0  0  0  0
   37.7340   27.7080   38.0720 H   0  0  0  0  0  0  0  0  0  0  0  0
  1  2  1  0  0  0  0
  3  7  1  0  0  0  0
  3  1  1  0  0  0  0
  4  3  1  0  0  0  0
  5  3  1  0  0  0  0
  6  7  2  0  0  0  0
  6 11  1  0  0  0  0
  7  8  1  0  0  0  0
  8 12  1  0  0  0  0
  8  9  2  0  0  0  0
  9 13  1  0  0  0  0
 10  9  1  0  0  0  0
 10 14  1  0  0  0  0
 11 10  2  0  0  0  0
 15 11  1  0  0  0  0
 16 22  1  0  0  0  0
 16 17  1  0  0  0  0
 17 23  1  0  0  0  0
 18 17  2  0  0  0  0
 18  6  1  0  0  0  0
 19 18  1  0  0  0  0
 20 21  1  0  0  0  0
 20 19  2  0  0  0  0
 21 16  2  0  0  0  0
 24 20  1  0  0  0  0
 25  1  1  0  0  0  0
 25 26  1  0  0  0  0
 25 28  1  0  0  0  0
 26 27  1  0  0  0  0
 28 29  1  0  0  0  0
 30 25  1  0  0  0  0
 31 30  1  0  0  0  0
 31 33  1  0  0  0  0
 32 31  1  0  0  0  0
 34 31  1  0  0  0  0
 34 35  1  0  0  0  0
 36 34  1  0  0  0  0
 37 44  1  0  0  0  0
 37 34  1  0  0  0  0
 38 37  1  0  0  0  0
 39 41  1  0  0  0  0
 39 38  2  0  0  0  0
 40 39  1  0  0  0  0
 41 43  1  0  0  0  0
 42 41  2  0  0  0  0
 43 46  1  0  0  0  0
 43 44  1  0  0  0  0
 44 45  2  0  0  0  0
M  END
>  <minimizedAffinity>
-5.53358603

>  <minimizedRMSD>
2.38027358

$$$$
