
 OpenBabel03242514343D

 27 28  0  0  0  0  0  0  0  0999 V2000
   35.5690   28.6380   40.7760 O   0  0  0  0  0  0  0  0  0  0  0  0
   36.5280   29.7060   41.1980 P   0  0  1  0  0  0  0  0  0  0  0  0
   35.6630   31.1390   41.3320 O   0  0  0  0  0  0  0  0  0  0  0  0
   36.3020   31.8860   41.1910 H   0  0  0  0  0  0  0  0  0  0  0  0
   37.2480   29.2880   42.6960 O   0  0  0  0  0  0  0  0  0  0  0  0
   37.7320   26.9480   42.6790 C   0  0  0  0  0  0  0  0  0  0  0  0
   38.1810   28.2540   42.7780 C   0  0  0  0  0  0  0  0  0  0  0  0
   39.5540   28.4820   42.9570 C   0  0  0  0  0  0  0  0  0  0  0  0
   40.3750   27.3910   43.0230 N   0  0  0  0  0  0  0  0  0  0  0  0
   39.9050   26.1460   42.9230 C   0  0  0  0  0  0  0  0  0  0  0  0
   38.6000   25.9370   42.7540 N   0  0  0  0  0  0  0  0  0  0  0  0
   36.6760   26.7320   42.5400 H   0  0  0  0  0  0  0  0  0  0  0  0
   39.8940   29.4970   43.0320 H   0  0  0  0  0  0  0  0  0  0  0  0
   40.5820   25.3030   42.9800 H   0  0  0  0  0  0  0  0  0  0  0  0
   37.7040   29.8850   40.0290 O   0  0  0  0  0  0  0  0  0  0  0  0
   37.9870   30.9950   39.3160 C   0  0  0  0  0  0  0  0  0  0  0  0
   36.9070   31.5880   38.9150 O   0  0  0  0  0  0  0  0  0  0  0  0
   40.6320   32.3050   35.8650 H   0  0  0  0  0  0  0  0  0  0  0  0
   40.4790   32.4010   36.8870 N   0  0  0  0  0  0  0  0  0  0  0  0
   39.4650   31.7450   37.4690 C   0  0  0  0  0  3  0  0  0  0  0  0
   39.1520   31.7890   38.8310 C   0  0  0  0  0  0  0  0  0  0  0  0
   39.9130   32.5440   39.6520 C   0  0  0  0  0  0  0  0  0  0  0  0
   39.7040   32.6380   40.8700 O   0  0  0  0  0  0  0  0  0  0  0  0
   40.9340   33.1960   39.0270 N   0  0  0  0  0  0  0  0  0  0  0  0
   41.2290   33.1480   37.7160 C   0  0  0  0  0  0  0  0  0  0  0  0
   42.1920   33.7900   37.2530 O   0  0  0  0  0  0  0  0  0  0  0  0
   41.5390   33.7930   39.6680 H   0  0  0  0  0  0  0  0  0  0  0  0
  2  1  2  6  0  0  0
  2  3  1  0  0  0  0
  2  5  1  0  0  0  0
  4  3  1  0  0  0  0
  5  7  1  0  0  0  0
  6 11  2  0  0  0  0
  6  7  1  0  0  0  0
  7  8  2  0  0  0  0
  8  9  1  0  0  0  0
  8 13  1  0  0  0  0
 10 14  1  0  0  0  0
 10  9  2  0  0  0  0
 11 10  1  0  0  0  0
 12  6  1  0  0  0  0
 15  2  1  0  0  0  0
 16 15  1  0  0  0  0
 17 16  2  0  0  0  0
 18 19  1  0  0  0  0
 19 20  1  0  0  0  0
 19 25  1  0  0  0  0
 20 21  2  0  0  0  0
 21 16  1  0  0  0  0
 21 22  1  0  0  0  0
 22 23  2  0  0  0  0
 24 22  1  0  0  0  0
 24 27  1  0  0  0  0
 25 24  1  0  0  0  0
 26 25  2  0  0  0  0
M  END
>  <minimizedAffinity>
-5.51357269

$$$$

 OpenBabel03242514343D

 27 28  0  0  0  0  0  0  0  0999 V2000
   37.1570   29.2860   40.0970 O   0  0  0  0  0  0  0  0  0  0  0  0
   37.0750   30.1510   41.3150 P   0  0  1  0  0  0  0  0  0  0  0  0
   35.6000   30.9530   41.2660 O   0  0  0  0  0  0  0  0  0  0  0  0
   35.7020   31.7930   41.7860 H   0  0  0  0  0  0  0  0  0  0  0  0
   37.1960   29.1880   42.7260 O   0  0  0  0  0  0  0  0  0  0  0  0
   39.3710   28.2390   43.0150 C   0  0  0  0  0  0  0  0  0  0  0  0
   38.0210   28.0630   42.7570 C   0  0  0  0  0  0  0  0  0  0  0  0
   37.5420   26.7630   42.5360 C   0  0  0  0  0  0  0  0  0  0  0  0
   38.4450   25.7370   42.5900 N   0  0  0  0  0  0  0  0  0  0  0  0
   39.7380   25.9460   42.8420 C   0  0  0  0  0  0  0  0  0  0  0  0
   40.1860   27.1830   43.0510 N   0  0  0  0  0  0  0  0  0  0  0  0
   39.7790   29.2310   43.1910 H   0  0  0  0  0  0  0  0  0  0  0  0
   36.4960   26.6340   42.3360 H   0  0  0  0  0  0  0  0  0  0  0  0
   40.4270   25.1120   42.8780 H   0  0  0  0  0  0  0  0  0  0  0  0
   38.3090   31.2720   41.2800 O   0  0  0  0  0  0  0  0  0  0  0  0
   38.5320   32.2140   40.3390 C   0  0  0  0  0  0  0  0  0  0  0  0
   37.5060   32.9930   40.1970 O   0  0  0  0  0  0  0  0  0  0  0  0
   42.1670   34.8110   39.5310 H   0  0  0  0  0  0  0  0  0  0  0  0
   41.5240   34.1160   39.1070 N   0  0  0  0  0  0  0  0  0  0  0  0
   40.5220   33.6110   39.8400 C   0  0  0  0  0  3  0  0  0  0  0  0
   39.5880   32.6710   39.3920 C   0  0  0  0  0  0  0  0  0  0  0  0
   39.6770   32.2170   38.1230 C   0  0  0  0  0  0  0  0  0  0  0  0
   38.8910   31.3850   37.6480 O   0  0  0  0  0  0  0  0  0  0  0  0
   40.7060   32.7510   37.4080 N   0  0  0  0  0  0  0  0  0  0  0  0
   41.6000   33.6550   37.8470 C   0  0  0  0  0  0  0  0  0  0  0  0
   42.5050   34.0760   37.0990 O   0  0  0  0  0  0  0  0  0  0  0  0
   40.7830   32.3990   36.4060 H   0  0  0  0  0  0  0  0  0  0  0  0
  2  1  2  6  0  0  0
  2  5  1  0  0  0  0
  3  2  1  0  0  0  0
  3  4  1  0  0  0  0
  5  7  1  0  0  0  0
  6 11  1  0  0  0  0
  6 12  1  0  0  0  0
  7  6  2  0  0  0  0
  8  9  2  0  0  0  0
  8  7  1  0  0  0  0
  9 10  1  0  0  0  0
 10 14  1  0  0  0  0
 10 11  2  0  0  0  0
 13  8  1  0  0  0  0
 15  2  1  0  0  0  0
 16 15  1  0  0  0  0
 17 16  2  0  0  0  0
 19 18  1  0  0  0  0
 19 20  1  0  0  0  0
 21 20  2  0  0  0  0
 21 16  1  0  0  0  0
 22 21  1  0  0  0  0
 23 22  2  0  0  0  0
 24 25  1  0  0  0  0
 24 22  1  0  0  0  0
 25 19  1  0  0  0  0
 26 25  2  0  0  0  0
 27 24  1  0  0  0  0
M  END
>  <minimizedAffinity>
-5.44240761

$$$$

 OpenBabel03242514343D

 27 28  0  0  0  0  0  0  0  0999 V2000
   34.5650   29.0470   40.0600 O   0  0  0  0  0  0  0  0  0  0  0  0
   35.8690   29.3990   40.7050 P   0  0  1  0  0  0  0  0  0  0  0  0
   35.7200   30.9500   41.3320 O   0  0  0  0  0  0  0  0  0  0  0  0
   36.6310   31.3420   41.3710 H   0  0  0  0  0  0  0  0  0  0  0  0
   36.2300   28.2740   41.9460 O   0  0  0  0  0  0  0  0  0  0  0  0
   38.4030   28.6640   42.8610 C   0  0  0  0  0  0  0  0  0  0  0  0
   37.5390   27.8400   42.1600 C   0  0  0  0  0  0  0  0  0  0  0  0
   38.0160   26.6050   41.6940 C   0  0  0  0  0  0  0  0  0  0  0  0
   39.3180   26.2860   41.9630 N   0  0  0  0  0  0  0  0  0  0  0  0
   40.1200   27.1060   42.6430 C   0  0  0  0  0  0  0  0  0  0  0  0
   39.6610   28.2780   43.0830 N   0  0  0  0  0  0  0  0  0  0  0  0
   38.0700   29.6280   43.2380 H   0  0  0  0  0  0  0  0  0  0  0  0
   37.3400   25.9720   41.1510 H   0  0  0  0  0  0  0  0  0  0  0  0
   41.1470   26.8240   42.8390 H   0  0  0  0  0  0  0  0  0  0  0  0
   37.0750   29.3870   39.5540 O   0  0  0  0  0  0  0  0  0  0  0  0
   37.6380   30.4540   38.9490 C   0  0  0  0  0  0  0  0  0  0  0  0
   36.7600   31.3740   38.6980 O   0  0  0  0  0  0  0  0  0  0  0  0
   40.0130   33.0960   36.1210 H   0  0  0  0  0  0  0  0  0  0  0  0
   40.0970   32.4050   36.8900 N   0  0  0  0  0  0  0  0  0  0  0  0
   38.9880   31.8780   37.4290 C   0  0  0  0  0  3  0  0  0  0  0  0
   38.9620   30.9410   38.4660 C   0  0  0  0  0  0  0  0  0  0  0  0
   40.1310   30.5130   38.9900 C   0  0  0  0  0  0  0  0  0  0  0  0
   40.1970   29.6870   39.9100 O   0  0  0  0  0  0  0  0  0  0  0  0
   41.2370   31.0700   38.4190 N   0  0  0  0  0  0  0  0  0  0  0  0
   41.2530   31.9710   37.4210 C   0  0  0  0  0  0  0  0  0  0  0  0
   42.3310   32.4130   36.9750 O   0  0  0  0  0  0  0  0  0  0  0  0
   42.1630   30.7380   38.8250 H   0  0  0  0  0  0  0  0  0  0  0  0
  2  1  2  6  0  0  0
  2  3  1  0  0  0  0
  2  5  1  0  0  0  0
  3  4  1  0  0  0  0
  5  7  1  0  0  0  0
  6 11  1  0  0  0  0
  6 12  1  0  0  0  0
  7  6  2  0  0  0  0
  8  9  2  0  0  0  0
  8  7  1  0  0  0  0
  9 10  1  0  0  0  0
 10 14  1  0  0  0  0
 10 11  2  0  0  0  0
 13  8  1  0  0  0  0
 15  2  1  0  0  0  0
 16 15  1  0  0  0  0
 17 16  2  0  0  0  0
 18 19  1  0  0  0  0
 19 25  1  0  0  0  0
 19 20  1  0  0  0  0
 20 21  2  0  0  0  0
 21 16  1  0  0  0  0
 21 22  1  0  0  0  0
 22 23  2  0  0  0  0
 24 27  1  0  0  0  0
 24 22  1  0  0  0  0
 25 24  1  0  0  0  0
 26 25  2  0  0  0  0
M  END
>  <minimizedAffinity>
-5.2286582

$$$$

 OpenBabel03242514343D

 27 28  0  0  0  0  0  0  0  0999 V2000
   36.9530   30.1470   39.4640 O   0  0  0  0  0  0  0  0  0  0  0  0
   37.0980   30.8480   40.7770 P   0  0  1  0  0  0  0  0  0  0  0  0
   35.5600   31.0220   41.4300 O   0  0  0  0  0  0  0  0  0  0  0  0
   35.5830   31.8080   42.0360 H   0  0  0  0  0  0  0  0  0  0  0  0
   38.1010   29.9330   41.8220 O   0  0  0  0  0  0  0  0  0  0  0  0
   36.9630   28.0130   42.6790 C   0  0  0  0  0  0  0  0  0  0  0  0
   37.9770   28.5450   41.8990 C   0  0  0  0  0  0  0  0  0  0  0  0
   38.8360   27.6660   41.2220 C   0  0  0  0  0  0  0  0  0  0  0  0
   38.6190   26.3240   41.3730 N   0  0  0  0  0  0  0  0  0  0  0  0
   37.6300   25.8500   42.1320 C   0  0  0  0  0  0  0  0  0  0  0  0
   36.8180   26.6900   42.7730 N   0  0  0  0  0  0  0  0  0  0  0  0
   36.2780   28.6620   43.2190 H   0  0  0  0  0  0  0  0  0  0  0  0
   39.6190   28.0850   40.6200 H   0  0  0  0  0  0  0  0  0  0  0  0
   37.4850   24.7820   42.2310 H   0  0  0  0  0  0  0  0  0  0  0  0
   37.7600   32.3580   40.5260 O   0  0  0  0  0  0  0  0  0  0  0  0
   38.9720   32.6430   40.0050 C   0  0  0  0  0  0  0  0  0  0  0  0
   39.4190   33.7790   40.4400 O   0  0  0  0  0  0  0  0  0  0  0  0
   40.6760   32.3340   35.8080 H   0  0  0  0  0  0  0  0  0  0  0  0
   40.7920   32.0060   36.7850 N   0  0  0  0  0  0  0  0  0  0  0  0
   39.9470   32.4360   37.7320 C   0  0  0  0  0  3  0  0  0  0  0  0
   39.9930   32.0730   39.0810 C   0  0  0  0  0  0  0  0  0  0  0  0
   40.9570   31.2210   39.4950 C   0  0  0  0  0  0  0  0  0  0  0  0
   41.0690   30.8480   40.6720 O   0  0  0  0  0  0  0  0  0  0  0  0
   41.7980   30.8040   38.5070 N   0  0  0  0  0  0  0  0  0  0  0  0
   41.7460   31.1590   37.2110 C   0  0  0  0  0  0  0  0  0  0  0  0
   42.5730   30.7130   36.3910 O   0  0  0  0  0  0  0  0  0  0  0  0
   42.5600   30.1320   38.8250 H   0  0  0  0  0  0  0  0  0  0  0  0
  2  1  2  6  0  0  0
  2  3  1  0  0  0  0
  2  5  1  0  0  0  0
  3  4  1  0  0  0  0
  5  7  1  0  0  0  0
  6 11  1  0  0  0  0
  6 12  1  0  0  0  0
  7  6  2  0  0  0  0
  8  9  2  0  0  0  0
  8  7  1  0  0  0  0
  9 10  1  0  0  0  0
 10 14  1  0  0  0  0
 10 11  2  0  0  0  0
 13  8  1  0  0  0  0
 15  2  1  0  0  0  0
 16 17  2  0  0  0  0
 16 15  1  0  0  0  0
 18 19  1  0  0  0  0
 19 25  1  0  0  0  0
 19 20  1  0  0  0  0
 20 21  2  0  0  0  0
 21 22  1  0  0  0  0
 21 16  1  0  0  0  0
 22 23  2  0  0  0  0
 24 27  1  0  0  0  0
 24 22  1  0  0  0  0
 25 24  1  0  0  0  0
 26 25  2  0  0  0  0
M  END
>  <minimizedAffinity>
-4.99396467

$$$$

 OpenBabel03242514343D

 27 28  0  0  0  0  0  0  0  0999 V2000
   37.8080   26.9960   37.9690 O   0  0  0  0  0  0  0  0  0  0  0  0
   36.7110   26.7290   38.9510 P   0  0  1  0  0  0  0  0  0  0  0  0
   35.7810   25.4720   38.3400 O   0  0  0  0  0  0  0  0  0  0  0  0
   34.8700   25.5640   38.7230 H   0  0  0  0  0  0  0  0  0  0  0  0
   37.3780   26.3080   40.4720 O   0  0  0  0  0  0  0  0  0  0  0  0
   38.6730   28.1880   41.1810 C   0  0  0  0  0  0  0  0  0  0  0  0
   37.6520   27.2850   41.4290 C   0  0  0  0  0  0  0  0  0  0  0  0
   36.9380   27.3920   42.6320 C   0  0  0  0  0  0  0  0  0  0  0  0
   37.2960   28.3900   43.4960 N   0  0  0  0  0  0  0  0  0  0  0  0
   38.2850   29.2420   43.2210 C   0  0  0  0  0  0  0  0  0  0  0  0
   38.9590   29.1340   42.0760 N   0  0  0  0  0  0  0  0  0  0  0  0
   39.2480   28.1370   40.2590 H   0  0  0  0  0  0  0  0  0  0  0  0
   36.1490   26.6890   42.8180 H   0  0  0  0  0  0  0  0  0  0  0  0
   38.5430   30.0210   43.9260 H   0  0  0  0  0  0  0  0  0  0  0  0
   35.7610   28.0910   39.1010 O   0  0  0  0  0  0  0  0  0  0  0  0
   36.0240   29.3280   38.6300 C   0  0  0  0  0  0  0  0  0  0  0  0
   35.6910   29.4400   37.3820 O   0  0  0  0  0  0  0  0  0  0  0  0
   38.3590   33.0970   37.6490 H   0  0  0  0  0  0  0  0  0  0  0  0
   37.8470   32.6010   38.4030 N   0  0  0  0  0  0  0  0  0  0  0  0
   37.2910   31.4080   38.1510 C   0  0  0  0  0  3  0  0  0  0  0  0
   36.5770   30.6390   39.0750 C   0  0  0  0  0  0  0  0  0  0  0  0
   36.4180   31.1090   40.3310 C   0  0  0  0  0  0  0  0  0  0  0  0
   35.7990   30.4910   41.2100 O   0  0  0  0  0  0  0  0  0  0  0  0
   36.9950   32.3240   40.5520 N   0  0  0  0  0  0  0  0  0  0  0  0
   37.6800   33.0570   39.6570 C   0  0  0  0  0  0  0  0  0  0  0  0
   38.1670   34.1610   39.9720 O   0  0  0  0  0  0  0  0  0  0  0  0
   36.8740   32.7010   41.5390 H   0  0  0  0  0  0  0  0  0  0  0  0
  2  1  2  6  0  0  0
  2 15  1  0  0  0  0
  2  5  1  0  0  0  0
  3  4  1  0  0  0  0
  3  2  1  0  0  0  0
  5  7  1  0  0  0  0
  6  7  2  0  0  0  0
  6 11  1  0  0  0  0
  7  8  1  0  0  0  0
  8 13  1  0  0  0  0
  8  9  2  0  0  0  0
 10  9  1  0  0  0  0
 10 14  1  0  0  0  0
 11 10  2  0  0  0  0
 12  6  1  0  0  0  0
 16 21  1  0  0  0  0
 16 15  1  0  0  0  0
 17 16  2  0  0  0  0
 18 19  1  0  0  0  0
 19 25  1  0  0  0  0
 20 19  1  0  0  0  0
 20 21  2  0  0  0  0
 21 22  1  0  0  0  0
 22 24  1  0  0  0  0
 22 23  2  0  0  0  0
 24 27  1  0  0  0  0
 25 26  2  0  0  0  0
 25 24  1  0  0  0  0
M  END
>  <minimizedAffinity>
-4.94279671

$$$$

 OpenBabel03242514343D

 27 28  0  0  0  0  0  0  0  0999 V2000
   35.5910   29.5820   38.0630 O   0  0  0  0  0  0  0  0  0  0  0  0
   36.0250   29.8160   39.4750 P   0  0  1  0  0  0  0  0  0  0  0  0
   34.7390   29.4020   40.4740 O   0  0  0  0  0  0  0  0  0  0  0  0
   34.8370   29.9230   41.3140 H   0  0  0  0  0  0  0  0  0  0  0  0
   37.4030   28.8620   39.8310 O   0  0  0  0  0  0  0  0  0  0  0  0
   38.3090   29.2080   42.0160 C   0  0  0  0  0  0  0  0  0  0  0  0
   37.6330   28.3910   41.1250 C   0  0  0  0  0  0  0  0  0  0  0  0
   37.2100   27.1270   41.5600 C   0  0  0  0  0  0  0  0  0  0  0  0
   37.4920   26.7720   42.8500 N   0  0  0  0  0  0  0  0  0  0  0  0
   38.1460   27.5880   43.6800 C   0  0  0  0  0  0  0  0  0  0  0  0
   38.5450   28.7870   43.2600 N   0  0  0  0  0  0  0  0  0  0  0  0
   38.6530   30.1950   41.7150 H   0  0  0  0  0  0  0  0  0  0  0  0
   36.6860   26.4990   40.8640 H   0  0  0  0  0  0  0  0  0  0  0  0
   38.3540   27.2760   44.6950 H   0  0  0  0  0  0  0  0  0  0  0  0
   36.3800   31.4330   39.6820 O   0  0  0  0  0  0  0  0  0  0  0  0
   37.5990   32.0110   39.6630 C   0  0  0  0  0  0  0  0  0  0  0  0
   37.8080   32.7110   40.7330 O   0  0  0  0  0  0  0  0  0  0  0  0
   42.0950   32.5590   39.3440 H   0  0  0  0  0  0  0  0  0  0  0  0
   41.2270   32.4160   38.7930 N   0  0  0  0  0  0  0  0  0  0  0  0
   40.0520   32.3050   39.4280 C   0  0  0  0  0  3  0  0  0  0  0  0
   38.8150   32.1110   38.8060 C   0  0  0  0  0  0  0  0  0  0  0  0
   38.7670   32.0250   37.4590 C   0  0  0  0  0  0  0  0  0  0  0  0
   37.7130   31.8530   36.8300 O   0  0  0  0  0  0  0  0  0  0  0  0
   39.9790   32.1410   36.8470 N   0  0  0  0  0  0  0  0  0  0  0  0
   41.1650   32.3280   37.4530 C   0  0  0  0  0  0  0  0  0  0  0  0
   42.2160   32.4210   36.7880 O   0  0  0  0  0  0  0  0  0  0  0  0
   39.9510   32.0740   35.7850 H   0  0  0  0  0  0  0  0  0  0  0  0
  2  1  2  6  0  0  0
  2 15  1  0  0  0  0
  2  5  1  0  0  0  0
  2  3  1  0  0  0  0
  3  4  1  0  0  0  0
  5  7  1  0  0  0  0
  6 11  1  0  0  0  0
  7  8  1  0  0  0  0
  7  6  2  0  0  0  0
  8  9  2  0  0  0  0
  9 10  1  0  0  0  0
 10 14  1  0  0  0  0
 11 10  2  0  0  0  0
 12  6  1  0  0  0  0
 13  8  1  0  0  0  0
 16 15  1  0  0  0  0
 16 17  2  0  0  0  0
 19 18  1  0  0  0  0
 19 20  1  0  0  0  0
 21 20  2  0  0  0  0
 21 16  1  0  0  0  0
 22 21  1  0  0  0  0
 23 22  2  0  0  0  0
 24 25  1  0  0  0  0
 24 22  1  0  0  0  0
 25 19  1  0  0  0  0
 26 25  2  0  0  0  0
 27 24  1  0  0  0  0
M  END
>  <minimizedAffinity>
-4.94039822

$$$$

 OpenBabel03242514343D

 27 28  0  0  0  0  0  0  0  0999 V2000
   39.4880   31.3150   37.5310 O   0  0  0  0  0  0  0  0  0  0  0  0
   38.0710   31.5120   37.0940 P   0  0  1  0  0  0  0  0  0  0  0  0
   38.0950   32.4940   35.7310 O   0  0  0  0  0  0  0  0  0  0  0  0
   37.2200   32.9610   35.6880 H   0  0  0  0  0  0  0  0  0  0  0  0
   37.3520   29.9980   36.7390 O   0  0  0  0  0  0  0  0  0  0  0  0
   38.1080   28.4200   38.3670 C   0  0  0  0  0  0  0  0  0  0  0  0
   37.0600   29.0880   37.7560 C   0  0  0  0  0  0  0  0  0  0  0  0
   35.7510   28.8220   38.1840 C   0  0  0  0  0  0  0  0  0  0  0  0
   35.5860   27.9090   39.1900 N   0  0  0  0  0  0  0  0  0  0  0  0
   36.6210   27.2860   39.7550 C   0  0  0  0  0  0  0  0  0  0  0  0
   37.8620   27.5430   39.3430 N   0  0  0  0  0  0  0  0  0  0  0  0
   39.1360   28.6000   38.0620 H   0  0  0  0  0  0  0  0  0  0  0  0
   34.9440   29.3430   37.7060 H   0  0  0  0  0  0  0  0  0  0  0  0
   36.4560   26.5690   40.5490 H   0  0  0  0  0  0  0  0  0  0  0  0
   37.2210   32.2790   38.3060 O   0  0  0  0  0  0  0  0  0  0  0  0
   37.4600   32.2220   39.6330 C   0  0  0  0  0  0  0  0  0  0  0  0
   37.5400   33.4070   40.1510 O   0  0  0  0  0  0  0  0  0  0  0  0
   35.6590   29.4010   42.7030 H   0  0  0  0  0  0  0  0  0  0  0  0
   36.5530   29.7640   42.3220 N   0  0  0  0  0  0  0  0  0  0  0  0
   36.5310   30.6640   41.3280 C   0  0  0  0  0  3  0  0  0  0  0  0
   37.6600   31.2300   40.7280 C   0  0  0  0  0  0  0  0  0  0  0  0
   38.8850   30.8610   41.1620 C   0  0  0  0  0  0  0  0  0  0  0  0
   39.9350   31.3130   40.6850 O   0  0  0  0  0  0  0  0  0  0  0  0
   38.8690   29.9450   42.1710 N   0  0  0  0  0  0  0  0  0  0  0  0
   37.7780   29.4060   42.7430 C   0  0  0  0  0  0  0  0  0  0  0  0
   37.8840   28.5720   43.6650 O   0  0  0  0  0  0  0  0  0  0  0  0
   39.8300   29.6490   42.5190 H   0  0  0  0  0  0  0  0  0  0  0  0
  2  1  2  1  0  0  0
  2 15  1  0  0  0  0
  3  2  1  0  0  0  0
  4  3  1  0  0  0  0
  5  2  1  0  0  0  0
  5  7  1  0  0  0  0
  6 11  1  0  0  0  0
  7  8  1  0  0  0  0
  7  6  2  0  0  0  0
  8  9  2  0  0  0  0
  9 10  1  0  0  0  0
 10 14  1  0  0  0  0
 11 10  2  0  0  0  0
 12  6  1  0  0  0  0
 13  8  1  0  0  0  0
 15 16  1  0  0  0  0
 16 17  2  0  0  0  0
 16 21  1  0  0  0  0
 19 18  1  0  0  0  0
 19 25  1  0  0  0  0
 20 19  1  0  0  0  0
 21 22  1  0  0  0  0
 21 20  2  0  0  0  0
 22 24  1  0  0  0  0
 23 22  2  0  0  0  0
 24 27  1  0  0  0  0
 24 25  1  0  0  0  0
 25 26  2  0  0  0  0
M  END
>  <minimizedAffinity>
-4.83679008

$$$$

 OpenBabel03242514343D

 27 28  0  0  0  0  0  0  0  0999 V2000
   39.5070   29.9380   37.7940 O   0  0  0  0  0  0  0  0  0  0  0  0
   38.8170   31.2570   37.9430 P   0  0  1  0  0  0  0  0  0  0  0  0
   39.3760   32.2610   36.7180 O   0  0  0  0  0  0  0  0  0  0  0  0
   39.2760   33.1970   37.0340 H   0  0  0  0  0  0  0  0  0  0  0  0
   37.1200   31.0460   37.8290 O   0  0  0  0  0  0  0  0  0  0  0  0
   36.5880   29.6870   35.9360 C   0  0  0  0  0  0  0  0  0  0  0  0
   36.5780   29.8700   37.3090 C   0  0  0  0  0  0  0  0  0  0  0  0
   36.0240   28.8670   38.1180 C   0  0  0  0  0  0  0  0  0  0  0  0
   35.5210   27.7570   37.4960 N   0  0  0  0  0  0  0  0  0  0  0  0
   35.5490   27.6170   36.1700 C   0  0  0  0  0  0  0  0  0  0  0  0
   36.0770   28.5740   35.4080 N   0  0  0  0  0  0  0  0  0  0  0  0
   37.0090   30.4430   35.2770 H   0  0  0  0  0  0  0  0  0  0  0  0
   36.0200   29.0150   39.1800 H   0  0  0  0  0  0  0  0  0  0  0  0
   35.1420   26.7260   35.7090 H   0  0  0  0  0  0  0  0  0  0  0  0
   39.2130   31.9220   39.4200 O   0  0  0  0  0  0  0  0  0  0  0  0
   38.9910   31.3930   40.6410 C   0  0  0  0  0  0  0  0  0  0  0  0
   39.6140   32.0560   41.5640 O   0  0  0  0  0  0  0  0  0  0  0  0
   39.0800   27.3640   42.7340 H   0  0  0  0  0  0  0  0  0  0  0  0
   38.4540   28.1220   42.4020 N   0  0  0  0  0  0  0  0  0  0  0  0
   38.9790   29.1930   41.7910 C   0  0  0  0  0  3  0  0  0  0  0  0
   38.2490   30.2800   41.2980 C   0  0  0  0  0  0  0  0  0  0  0  0
   36.9050   30.2790   41.4340 C   0  0  0  0  0  0  0  0  0  0  0  0
   36.1850   31.2010   41.0260 O   0  0  0  0  0  0  0  0  0  0  0  0
   36.4060   29.1750   42.0600 N   0  0  0  0  0  0  0  0  0  0  0  0
   37.1160   28.1350   42.5300 C   0  0  0  0  0  0  0  0  0  0  0  0
   36.5500   27.1740   43.0890 O   0  0  0  0  0  0  0  0  0  0  0  0
   35.3480   29.1670   42.1700 H   0  0  0  0  0  0  0  0  0  0  0  0
  2  1  2  6  0  0  0
  2 15  1  0  0  0  0
  3  4  1  0  0  0  0
  3  2  1  0  0  0  0
  5  2  1  0  0  0  0
  6  7  1  0  0  0  0
  7  5  1  0  0  0  0
  7  8  2  0  0  0  0
  8 13  1  0  0  0  0
  9  8  1  0  0  0  0
 10  9  2  0  0  0  0
 11  6  2  0  0  0  0
 11 10  1  0  0  0  0
 12  6  1  0  0  0  0
 14 10  1  0  0  0  0
 15 16  1  0  0  0  0
 16 21  1  0  0  0  0
 16 17  2  0  0  0  0
 19 25  1  0  0  0  0
 19 18  1  0  0  0  0
 20 19  1  0  0  0  0
 21 22  1  0  0  0  0
 21 20  2  0  0  0  0
 22 24  1  0  0  0  0
 23 22  2  0  0  0  0
 24 27  1  0  0  0  0
 24 25  1  0  0  0  0
 25 26  2  0  0  0  0
M  END
>  <minimizedAffinity>
-4.7911377

$$$$

 OpenBabel03242514343D

 27 28  0  0  0  0  0  0  0  0999 V2000
   39.5300   24.5510   40.2600 O   0  0  0  0  0  0  0  0  0  0  0  0
   38.7310   24.0190   41.4080 P   0  0  1  0  0  0  0  0  0  0  0  0
   38.3800   22.4100   41.0780 O   0  0  0  0  0  0  0  0  0  0  0  0
   37.5490   22.1820   41.5710 H   0  0  0  0  0  0  0  0  0  0  0  0
   39.6300   24.1590   42.8600 O   0  0  0  0  0  0  0  0  0  0  0  0
   41.8120   25.1300   42.9480 C   0  0  0  0  0  0  0  0  0  0  0  0
   40.4420   25.2700   43.0960 C   0  0  0  0  0  0  0  0  0  0  0  0
   39.9300   26.5190   43.4750 C   0  0  0  0  0  0  0  0  0  0  0  0
   40.8220   27.5350   43.6790 N   0  0  0  0  0  0  0  0  0  0  0  0
   42.1360   27.3620   43.5260 C   0  0  0  0  0  0  0  0  0  0  0  0
   42.6160   26.1720   43.1650 N   0  0  0  0  0  0  0  0  0  0  0  0
   42.2460   24.1770   42.6550 H   0  0  0  0  0  0  0  0  0  0  0  0
   38.8670   26.6200   43.5880 H   0  0  0  0  0  0  0  0  0  0  0  0
   42.8160   28.1870   43.6950 H   0  0  0  0  0  0  0  0  0  0  0  0
   37.3060   24.8770   41.5330 O   0  0  0  0  0  0  0  0  0  0  0  0
   36.9380   25.9590   40.8160 C   0  0  0  0  0  0  0  0  0  0  0  0
   36.5300   25.6270   39.6320 O   0  0  0  0  0  0  0  0  0  0  0  0
   37.1090   30.0400   38.8320 H   0  0  0  0  0  0  0  0  0  0  0  0
   36.9590   29.5540   39.7370 N   0  0  0  0  0  0  0  0  0  0  0  0
   37.0190   28.2160   39.7860 C   0  0  0  0  0  3  0  0  0  0  0  0
   36.8360   27.4420   40.9360 C   0  0  0  0  0  0  0  0  0  0  0  0
   36.5780   28.0630   42.1070 C   0  0  0  0  0  0  0  0  0  0  0  0
   36.4040   27.4530   43.1710 O   0  0  0  0  0  0  0  0  0  0  0  0
   36.5250   29.4220   42.0200 N   0  0  0  0  0  0  0  0  0  0  0  0
   36.7020   30.1590   40.9090 C   0  0  0  0  0  0  0  0  0  0  0  0
   36.6300   31.4040   40.9480 O   0  0  0  0  0  0  0  0  0  0  0  0
   36.3220   29.9200   42.9390 H   0  0  0  0  0  0  0  0  0  0  0  0
  2  1  2  6  0  0  0
  2 15  1  0  0  0  0
  2  5  1  0  0  0  0
  3  2  1  0  0  0  0
  3  4  1  0  0  0  0
  5  7  1  0  0  0  0
  6  7  2  0  0  0  0
  6 11  1  0  0  0  0
  7  8  1  0  0  0  0
  8 13  1  0  0  0  0
  8  9  2  0  0  0  0
 10  9  1  0  0  0  0
 10 14  1  0  0  0  0
 11 10  2  0  0  0  0
 12  6  1  0  0  0  0
 16 21  1  0  0  0  0
 16 15  1  0  0  0  0
 17 16  2  0  0  0  0
 18 19  1  0  0  0  0
 19 20  1  0  0  0  0
 19 25  1  0  0  0  0
 20 21  2  0  0  0  0
 21 22  1  0  0  0  0
 22 23  2  0  0  0  0
 24 22  1  0  0  0  0
 24 27  1  0  0  0  0
 25 26  2  0  0  0  0
 25 24  1  0  0  0  0
M  END
>  <minimizedAffinity>
-4.75388288

$$$$
