
 OpenBabel03252504103D

 26 27  0  0  0  0  0  0  0  0999 V2000
   42.0330   32.5640   40.3740 C   0  0  0  0  0  0  0  0  0  0  0  0
   41.8380   31.9490   41.6180 C   0  0  0  0  0  0  0  0  0  0  0  0
   42.9640   31.4480   42.2910 C   0  0  0  0  0  0  0  0  0  0  0  0
   44.1780   31.5820   41.7050 N   0  0  0  0  0  0  0  0  0  0  0  0
   44.3260   32.1860   40.4940 C   0  0  0  0  0  0  0  0  0  0  0  0
   43.2620   32.6700   39.8410 N   0  0  0  0  0  0  0  0  0  0  0  0
   42.8290   30.9770   43.2410 H   0  0  0  0  0  0  0  0  0  0  0  0
   45.6280   32.2990   39.9280 N   0  0  0  0  0  0  0  0  0  0  0  0
   45.9210   33.3130   39.0940 C   0  0  0  0  0  3  0  0  0  0  0  0
   47.1740   33.4740   38.5120 C   0  0  0  0  0  0  0  0  0  0  0  0
   47.3920   34.2990   37.8420 H   0  0  0  0  0  0  0  0  0  0  0  0
   48.0930   32.5040   38.8600 C   0  0  0  0  0  0  0  0  0  0  0  0
   49.2550   32.6090   38.3510 O   0  0  0  0  0  0  0  0  0  0  0  0
   47.8200   31.4830   39.6900 N   0  0  0  0  0  0  0  0  0  0  0  0
   46.5640   31.3980   40.2200 C   0  0  0  0  0  0  0  0  0  0  0  0
   46.2880   30.4490   40.9990 O   0  0  0  0  0  0  0  0  0  0  0  0
   48.5620   30.7880   39.9090 H   0  0  0  0  0  0  0  0  0  0  0  0
   40.4600   31.8550   42.1690 C   0  0  0  0  0  0  0  0  0  0  0  0
   39.9310   33.1150   42.3510 F   0  0  0  0  0  0  0  0  0  0  0  0
   39.6640   31.2040   41.2360 F   0  0  0  0  0  0  0  0  0  0  0  0
   40.3760   31.1950   43.3620 F   0  0  0  0  0  0  0  0  0  0  0  0
   40.9430   33.0410   39.7420 O   0  0  0  0  0  0  0  0  0  0  0  0
   40.8770   33.5480   38.4360 C   0  0  0  0  0  0  0  0  0  0  0  0
   41.8310   34.5560   38.3330 F   0  0  0  0  0  0  0  0  0  0  0  0
   41.0560   32.5300   37.5300 F   0  0  0  0  0  0  0  0  0  0  0  0
   39.6650   34.2020   38.2500 F   0  0  0  0  0  0  0  0  0  0  0  0
  1  2  1  0  0  0  0
  2 18  1  0  0  0  0
  2  3  2  0  0  0  0
  3  7  1  0  0  0  0
  4  3  1  0  0  0  0
  5  4  2  0  0  0  0
  6  1  2  0  0  0  0
  6  5  1  0  0  0  0
  8 15  1  0  0  0  0
  8  5  1  0  0  0  0
  9  8  1  0  0  0  0
 10 12  1  0  0  0  0
 10  9  2  0  0  0  0
 11 10  1  0  0  0  0
 12 14  1  0  0  0  0
 13 12  2  0  0  0  0
 14 17  1  0  0  0  0
 14 15  1  0  0  0  0
 15 16  2  0  0  0  0
 18 19  1  0  0  0  0
 18 21  1  0  0  0  0
 20 18  1  0  0  0  0
 22  1  1  0  0  0  0
 23 22  1  0  0  0  0
 24 23  1  0  0  0  0
 25 23  1  0  0  0  0
 26 23  1  0  0  0  0
M  END
>  <minimizedAffinity>
-3.88493729

>  <minimizedRMSD>
6.96295834

$$$$
