
 OpenBabel03242515253D

 32 34  0  0  0  0  0  0  0  0999 V2000
   44.6660   35.6690   43.4450 C   0  0  0  0  0  0  0  0  0  0  0  0
   44.3270   34.8830   42.3320 C   0  0  0  0  0  0  0  0  0  0  0  0
   44.5170   33.5250   42.4400 C   0  0  0  0  0  0  0  0  0  0  0  0
   45.0090   33.0190   43.5760 N   0  0  0  0  0  0  0  0  0  0  0  0
   45.3320   33.8030   44.6450 C   0  0  0  0  0  0  0  0  0  0  0  0
   45.1650   35.1510   44.5980 N   0  0  0  0  0  0  0  0  0  0  0  0
   44.5430   36.7440   43.4340 H   0  0  0  0  0  0  0  0  0  0  0  0
   44.2510   32.9350   41.5740 H   0  0  0  0  0  0  0  0  0  0  0  0
   45.8450   33.1240   45.7870 N   0  0  0  0  0  0  0  0  0  0  0  0
   46.7930   32.1700   45.8440 C   0  0  0  0  0  0  0  0  0  0  0  0
   47.1520   31.6340   47.0630 C   0  0  0  0  0  0  0  0  0  0  0  0
   47.9160   30.8790   47.0180 H   0  0  0  0  0  0  0  0  0  0  0  0
   46.5250   32.0910   48.2040 C   0  0  0  0  0  0  0  0  0  0  0  0
   46.8830   31.5710   49.3110 O   0  0  0  0  0  0  0  0  0  0  0  0
   45.5780   33.0440   48.1340 N   0  0  0  0  0  0  0  0  0  0  0  0
   45.2400   33.5600   46.9210 C   0  0  0  0  0  0  0  0  0  0  0  0
   44.3440   34.4390   47.0130 O   0  0  0  0  0  0  0  0  0  0  0  0
   45.1510   33.3370   49.0410 H   0  0  0  0  0  0  0  0  0  0  0  0
   43.8020   35.6090   41.1720 C   0  0  0  0  0  0  0  0  0  0  0  0
   43.8550   36.6850   41.3070 H   0  0  0  0  0  0  0  0  0  0  0  0
   44.5020   35.3770   40.3160 H   0  0  0  0  0  0  0  0  0  0  0  0
   42.4720   35.1190   40.8670 N   0  0  0  0  0  0  0  0  0  0  0  0
   41.4570   35.4280   41.6890 C   0  0  0  0  0  0  0  0  0  0  0  0
   40.1970   34.9390   41.3630 C   0  0  0  0  0  0  0  0  0  0  0  0
   40.0000   34.1720   40.2430 C   0  0  0  0  0  0  0  0  0  0  0  0
   38.8480   33.7480   39.9790 O   0  0  0  0  0  0  0  0  0  0  0  0
   41.0520   33.8930   39.4540 N   0  0  0  0  0  0  0  0  0  0  0  0
   42.2890   34.3600   39.7550 C   0  0  0  0  0  0  0  0  0  0  0  0
   43.2330   34.0600   38.9710 O   0  0  0  0  0  0  0  0  0  0  0  0
   41.5810   36.0340   42.5850 H   0  0  0  0  0  0  0  0  0  0  0  0
   39.3890   35.1960   42.0340 H   0  0  0  0  0  0  0  0  0  0  0  0
   40.8380   33.3060   38.6180 H   0  0  0  0  0  0  0  0  0  0  0  0
  1  6  1  0  0  0  0
  2  3  1  0  0  0  0
  2  1  2  0  0  0  0
  3  4  2  0  0  0  0
  4  5  1  0  0  0  0
  5  9  1  0  0  0  0
  6  5  2  0  0  0  0
  7  1  1  0  0  0  0
  8  3  1  0  0  0  0
  9 10  1  0  0  0  0
  9 16  1  0  0  0  0
 10 11  2  0  0  0  0
 11 13  1  0  0  0  0
 12 11  1  0  0  0  0
 13 14  2  0  0  0  0
 15 13  1  0  0  0  0
 15 18  1  0  0  0  0
 16 17  2  0  0  0  0
 16 15  1  0  0  0  0
 19 20  1  0  0  0  0
 19  2  1  0  0  0  0
 21 19  1  0  0  0  0
 22 19  1  0  0  0  0
 22 23  1  0  0  0  0
 23 30  1  0  0  0  0
 24 23  2  0  0  0  0
 24 31  1  0  0  0  0
 25 24  1  0  0  0  0
 26 25  2  0  0  0  0
 27 28  1  0  0  0  0
 27 25  1  0  0  0  0
 28 22  1  0  0  0  0
 29 28  2  0  0  0  0
 32 27  1  0  0  0  0
M  END
>  <minimizedAffinity>
-6.39853525

>  <minimizedRMSD>
1.19154751

$$$$
