
 OpenBabel03252507073D

 25 26  0  0  0  0  0  0  0  0999 V2000
   45.4420   34.0020   45.2750 C   0  0  0  0  0  0  0  0  0  0  0  0
   45.9060   34.6780   44.1130 C   0  0  0  0  0  0  0  0  0  0  0  0
   46.6780   33.9530   43.2130 C   0  0  0  0  0  0  0  0  0  0  0  0
   46.9530   32.6380   43.4850 N   0  0  0  0  0  0  0  0  0  0  0  0
   46.4910   32.0330   44.6050 C   0  0  0  0  0  0  0  0  0  0  0  0
   45.7400   32.7120   45.4940 N   0  0  0  0  0  0  0  0  0  0  0  0
   44.8430   34.5330   45.9920 H   0  0  0  0  0  0  0  0  0  0  0  0
   45.6330   35.7260   43.9880 H   0  0  0  0  0  0  0  0  0  0  0  0
   46.9130   30.6750   44.6500 N   0  0  0  0  0  0  0  0  0  0  0  0
   48.2350   30.4490   44.7830 C   0  0  0  0  0  3  0  0  0  0  0  0
   48.6640   29.1180   44.8300 C   0  0  0  0  0  0  0  0  0  0  0  0
   49.7160   28.9220   44.9360 H   0  0  0  0  0  0  0  0  0  0  0  0
   47.7100   28.1260   44.7370 C   0  0  0  0  0  0  0  0  0  0  0  0
   48.0910   26.9230   44.7780 O   0  0  0  0  0  0  0  0  0  0  0  0
   46.3980   28.3970   44.6040 N   0  0  0  0  0  0  0  0  0  0  0  0
   46.0010   29.6890   44.5610 C   0  0  0  0  0  0  0  0  0  0  0  0
   44.7670   29.8980   44.4370 O   0  0  0  0  0  0  0  0  0  0  0  0
   45.7190   27.5960   44.5380 H   0  0  0  0  0  0  0  0  0  0  0  0
   47.1320   34.6070   42.0780 O   0  0  0  0  0  0  0  0  0  0  0  0
   49.2060   33.3250   41.0330 O   0  0  0  0  0  0  0  0  0  0  0  0
   48.8150   34.6290   41.7370 P   0  0  0  0  0  0  0  0  0  0  0  0
   49.1490   35.9650   40.7990 O   0  0  0  0  0  0  0  0  0  0  0  0
   48.9730   35.7130   39.8560 H   0  0  0  0  0  0  0  0  0  0  0  0
   49.6290   34.6590   43.2240 O   0  0  0  0  0  0  0  0  0  0  0  0
   49.5870   35.5990   43.5420 H   0  0  0  0  0  0  0  0  0  0  0  0
  1  6  1  0  0  0  0
  1  7  1  0  0  0  0
  2  1  2  0  0  0  0
  3  4  2  0  0  0  0
  3  2  1  0  0  0  0
  4  5  1  0  0  0  0
  5  9  1  0  0  0  0
  5  6  2  0  0  0  0
  8  2  1  0  0  0  0
  9 10  1  0  0  0  0
 10 11  2  0  0  0  0
 11 12  1  0  0  0  0
 13 14  2  0  0  0  0
 13 11  1  0  0  0  0
 15 13  1  0  0  0  0
 16 15  1  0  0  0  0
 16  9  1  0  0  0  0
 17 16  2  0  0  0  0
 18 15  1  0  0  0  0
 19  3  1  0  0  0  0
 20 21  2  0  0  0  0
 21 19  1  0  0  0  0
 21 24  1  0  0  0  0
 22 21  1  0  0  0  0
 23 22  1  0  0  0  0
 24 25  1  0  0  0  0
M  END
>  <minimizedAffinity>
-4.00216389

>  <minimizedRMSD>
2.46193075

$$$$
