
 OpenBabel03252507463D

 38 40  0  0  0  0  0  0  0  0999 V2000
   47.4160   34.6000   40.9200 C   0  0  0  0  0  0  0  0  0  0  0  0
   47.6550   35.4950   40.3310 H   0  0  0  0  0  0  0  0  0  0  0  0
   46.7890   33.9420   40.2990 H   0  0  0  0  0  0  0  0  0  0  0  0
   48.6750   33.9490   41.3270 C   0  0  0  0  0  0  0  0  0  0  0  0
   48.8800   32.6580   40.8730 C   0  0  0  0  0  0  0  0  0  0  0  0
   50.0270   31.9500   41.1930 C   0  0  0  0  0  0  0  0  0  0  0  0
   50.9470   32.6030   41.9850 N   0  0  0  0  0  0  0  0  0  0  0  0
   50.7090   33.8590   42.4050 C   0  0  0  0  0  0  0  0  0  0  0  0
   49.6010   34.5160   42.0840 N   0  0  0  0  0  0  0  0  0  0  0  0
   50.2080   30.9510   40.8540 H   0  0  0  0  0  0  0  0  0  0  0  0
   51.4130   34.4030   43.0320 H   0  0  0  0  0  0  0  0  0  0  0  0
   47.6400   31.8390   39.8320 S   0  0  0  0  0  0  0  0  0  0  0  0
   50.4910   32.0040   35.8730 H   0  0  0  0  0  0  0  0  0  0  0  0
   49.5520   32.2330   36.2720 N   0  0  0  0  0  0  0  0  0  0  0  0
   49.3690   31.9020   37.5480 C   0  0  0  0  0  3  0  0  0  0  0  0
   48.1630   32.1720   38.1400 C   0  0  0  0  0  0  0  0  0  0  0  0
   47.1510   32.7820   37.4060 C   0  0  0  0  0  0  0  0  0  0  0  0
   45.9870   33.0870   37.8320 O   0  0  0  0  0  0  0  0  0  0  0  0
   47.3670   33.1090   36.1050 N   0  0  0  0  0  0  0  0  0  0  0  0
   48.5700   32.8300   35.5490 C   0  0  0  0  0  0  0  0  0  0  0  0
   48.8310   33.1050   34.3560 O   0  0  0  0  0  0  0  0  0  0  0  0
   46.6270   33.5700   35.5210 H   0  0  0  0  0  0  0  0  0  0  0  0
   46.5620   35.0130   42.0920 C   0  0  0  0  0  0  0  0  0  0  0  0
   46.8730   34.4530   42.9950 H   0  0  0  0  0  0  0  0  0  0  0  0
   46.7810   36.0900   42.3100 H   0  0  0  0  0  0  0  0  0  0  0  0
   45.1040   34.9560   41.8220 C   0  0  0  0  0  0  0  0  0  0  0  0
   44.1910   35.5160   42.7710 C   0  0  0  0  0  0  0  0  0  0  0  0
   42.5550   35.2060   42.0030 S   0  0  0  0  0  0  0  0  0  0  0  0
   43.3850   34.3650   40.5140 C   0  0  0  0  0  0  0  0  0  0  0  0
   44.4890   34.4460   40.7930 N   0  0  0  0  0  0  0  0  0  0  0  0
   44.4310   35.9990   43.7060 H   0  0  0  0  0  0  0  0  0  0  0  0
   42.6680   33.8400   39.4490 O   0  0  0  0  0  0  0  0  0  0  0  0
   40.6740   34.1640   37.7340 O   0  0  0  0  0  0  0  0  0  0  0  0
   41.7360   34.9280   38.5230 P   0  0  0  0  0  0  0  0  0  0  0  0
   40.9650   35.9840   39.5930 O   0  0  0  0  0  0  0  0  0  0  0  0
   40.4500   36.6490   39.0710 H   0  0  0  0  0  0  0  0  0  0  0  0
   42.7380   35.8070   37.4830 O   0  0  0  0  0  0  0  0  0  0  0  0
   42.8310   35.3630   36.6200 H   0  0  0  0  0  0  0  0  0  0  0  0
  1  4  1  0  0  0  0
  1 23  1  0  0  0  0
  2  1  1  0  0  0  0
  3  1  1  0  0  0  0
  4  9  1  0  0  0  0
  5  6  1  0  0  0  0
  5  4  2  0  0  0  0
  6  7  2  0  0  0  0
  7  8  1  0  0  0  0
  8 11  1  0  0  0  0
  9  8  2  0  0  0  0
 10  6  1  0  0  0  0
 12  5  1  0  0  0  0
 13 14  1  0  0  0  0
 14 15  1  0  0  0  0
 15 16  2  0  0  0  0
 16 12  1  0  0  0  0
 17 18  2  0  0  0  0
 17 16  1  0  0  0  0
 19 17  1  0  0  0  0
 20 19  1  0  0  0  0
 20 14  1  0  0  0  0
 21 20  2  0  0  0  0
 22 19  1  0  0  0  0
 23 25  1  0  0  0  0
 23 24  1  0  0  0  0
 26 23  1  0  0  0  0
 26 27  2  0  0  0  0
 27 31  1  0  0  0  0
 28 27  1  0  0  0  0
 29 30  2  0  0  0  0
 29 28  1  0  0  0  0
 30 26  1  0  0  0  0
 32 29  1  0  0  0  0
 33 34  2  0  0  0  0
 34 32  1  0  0  0  0
 34 35  1  0  0  0  0
 36 35  1  0  0  0  0
 37 34  1  0  0  0  0
 38 37  1  0  0  0  0
M  END
>  <minimizedAffinity>
-5.61630487

>  <minimizedRMSD>
0.360419154

$$$$
