
 OpenBabel03242519593D

 29 31  0  0  0  0  0  0  0  0999 V2000
   38.0410   28.2320   39.0890 Br  0  0  0  0  0  0  0  0  0  0  0  0
   37.7350   27.9150   40.9570 C   0  0  0  0  0  0  0  0  0  0  0  0
   37.6190   26.6440   41.4850 C   0  0  0  0  0  0  0  0  0  0  0  0
   37.3990   26.5240   42.8470 C   0  0  0  0  0  0  0  0  0  0  0  0
   37.2930   27.6210   43.6780 C   0  0  0  0  0  0  0  0  0  0  0  0
   37.4090   28.9020   43.1540 C   0  0  0  0  0  0  0  0  0  0  0  0
   37.6300   29.0110   41.7890 C   0  0  0  0  0  0  0  0  0  0  0  0
   37.3090   25.5280   43.2560 H   0  0  0  0  0  0  0  0  0  0  0  0
   37.1210   27.4920   44.7400 H   0  0  0  0  0  0  0  0  0  0  0  0
   37.3240   29.7320   43.8160 H   0  0  0  0  0  0  0  0  0  0  0  0
   37.7370   30.3530   41.3260 N   0  0  0  0  0  0  0  0  0  0  0  0
   38.9220   31.0230   41.3680 C   0  0  0  0  0  3  0  0  0  0  0  0
   39.0280   32.3370   40.9160 C   0  0  0  0  0  0  0  0  0  0  0  0
   39.9430   32.9060   40.9280 H   0  0  0  0  0  0  0  0  0  0  0  0
   37.8900   32.9590   40.4180 C   0  0  0  0  0  0  0  0  0  0  0  0
   37.9610   34.1350   40.0080 O   0  0  0  0  0  0  0  0  0  0  0  0
   36.7600   32.2320   40.4110 N   0  0  0  0  0  0  0  0  0  0  0  0
   36.6320   30.9650   40.8410 C   0  0  0  0  0  0  0  0  0  0  0  0
   35.5000   30.4120   40.7690 O   0  0  0  0  0  0  0  0  0  0  0  0
   35.8880   32.7080   40.0290 H   0  0  0  0  0  0  0  0  0  0  0  0
   36.7710   23.8550   39.0680 C   0  0  0  0  0  0  0  0  0  0  0  0
   36.6270   24.9350   39.9580 C   0  0  0  0  0  0  0  0  0  0  0  0
   37.7380   25.5260   40.5620 C   0  0  0  0  0  0  0  0  0  0  0  0
   38.9350   24.9840   40.2270 N   0  0  0  0  0  0  0  0  0  0  0  0
   39.0690   23.9490   39.3740 C   0  0  0  0  0  0  0  0  0  0  0  0
   37.9870   23.3930   38.8010 N   0  0  0  0  0  0  0  0  0  0  0  0
   35.9130   23.3940   38.5980 H   0  0  0  0  0  0  0  0  0  0  0  0
   35.6420   25.3120   40.1740 H   0  0  0  0  0  0  0  0  0  0  0  0
   40.0820   23.6160   39.1950 H   0  0  0  0  0  0  0  0  0  0  0  0
  1  2  1  0  0  0  0
  2  3  2  0  0  0  0
  2  7  1  0  0  0  0
  3  4  1  0  0  0  0
  4  8  1  0  0  0  0
  4  5  2  0  0  0  0
  5  9  1  0  0  0  0
  6  5  1  0  0  0  0
  6 10  1  0  0  0  0
  7  6  2  0  0  0  0
 11 12  1  0  0  0  0
 11  7  1  0  0  0  0
 13 14  1  0  0  0  0
 13 12  2  0  0  0  0
 15 13  1  0  0  0  0
 16 15  2  0  0  0  0
 17 15  1  0  0  0  0
 17 18  1  0  0  0  0
 18 11  1  0  0  0  0
 19 18  2  0  0  0  0
 20 17  1  0  0  0  0
 21 22  1  0  0  0  0
 22 28  1  0  0  0  0
 22 23  2  0  0  0  0
 23  3  1  0  0  0  0
 24 23  1  0  0  0  0
 25 24  2  0  0  0  0
 26 21  2  0  0  0  0
 26 25  1  0  0  0  0
 27 21  1  0  0  0  0
 29 25  1  0  0  0  0
M  END
>  <minimizedAffinity>
-5.82929182

$$$$

 OpenBabel03242519593D

 29 31  0  0  0  0  0  0  0  0999 V2000
   39.5140   28.3020   39.1070 Br  0  0  0  0  0  0  0  0  0  0  0  0
   38.0760   29.3350   39.8490 C   0  0  0  0  0  0  0  0  0  0  0  0
   37.0200   28.7560   40.5250 C   0  0  0  0  0  0  0  0  0  0  0  0
   36.0330   29.5910   41.0220 C   0  0  0  0  0  0  0  0  0  0  0  0
   36.0740   30.9620   40.8630 C   0  0  0  0  0  0  0  0  0  0  0  0
   37.1340   31.5490   40.1840 C   0  0  0  0  0  0  0  0  0  0  0  0
   38.1170   30.7050   39.6910 C   0  0  0  0  0  0  0  0  0  0  0  0
   35.2080   29.1340   41.5510 H   0  0  0  0  0  0  0  0  0  0  0  0
   35.2850   31.5860   41.2650 H   0  0  0  0  0  0  0  0  0  0  0  0
   37.1430   32.6080   40.0760 H   0  0  0  0  0  0  0  0  0  0  0  0
   39.1680   31.3790   39.0080 N   0  0  0  0  0  0  0  0  0  0  0  0
   40.3130   31.7400   39.6520 C   0  0  0  0  0  3  0  0  0  0  0  0
   41.3420   32.4010   38.9840 C   0  0  0  0  0  0  0  0  0  0  0  0
   42.2640   32.7050   39.4500 H   0  0  0  0  0  0  0  0  0  0  0  0
   41.1780   32.6890   37.6350 C   0  0  0  0  0  0  0  0  0  0  0  0
   42.0860   33.2810   37.0170 O   0  0  0  0  0  0  0  0  0  0  0  0
   40.0210   32.3010   37.0720 N   0  0  0  0  0  0  0  0  0  0  0  0
   39.0140   31.6630   37.6940 C   0  0  0  0  0  0  0  0  0  0  0  0
   37.9850   31.3620   37.0280 O   0  0  0  0  0  0  0  0  0  0  0  0
   39.8950   32.5210   36.0390 H   0  0  0  0  0  0  0  0  0  0  0  0
   37.4930   25.2680   41.9180 C   0  0  0  0  0  0  0  0  0  0  0  0
   37.4970   26.6710   41.8120 C   0  0  0  0  0  0  0  0  0  0  0  0
   37.0290   27.3090   40.6620 C   0  0  0  0  0  0  0  0  0  0  0  0
   36.5830   26.4830   39.6840 N   0  0  0  0  0  0  0  0  0  0  0  0
   36.5810   25.1390   39.7890 C   0  0  0  0  0  0  0  0  0  0  0  0
   37.0360   24.5420   40.9050 N   0  0  0  0  0  0  0  0  0  0  0  0
   37.8560   24.7690   42.8070 H   0  0  0  0  0  0  0  0  0  0  0  0
   37.8670   27.2600   42.6330 H   0  0  0  0  0  0  0  0  0  0  0  0
   36.1970   24.6010   38.9330 H   0  0  0  0  0  0  0  0  0  0  0  0
  1  2  1  0  0  0  0
  2  3  1  0  0  0  0
  3 23  1  0  0  0  0
  3  4  2  0  0  0  0
  4  8  1  0  0  0  0
  5  4  1  0  0  0  0
  5  9  1  0  0  0  0
  6  5  2  0  0  0  0
  7  2  2  0  0  0  0
  7  6  1  0  0  0  0
 10  6  1  0  0  0  0
 11 12  1  0  0  0  0
 11  7  1  0  0  0  0
 13 14  1  0  0  0  0
 13 12  2  0  0  0  0
 15 13  1  0  0  0  0
 16 15  2  0  0  0  0
 17 15  1  0  0  0  0
 17 18  1  0  0  0  0
 18 11  1  0  0  0  0
 19 18  2  0  0  0  0
 20 17  1  0  0  0  0
 21 27  1  0  0  0  0
 22 21  1  0  0  0  0
 22 28  1  0  0  0  0
 23 22  2  0  0  0  0
 24 25  2  0  0  0  0
 24 23  1  0  0  0  0
 25 26  1  0  0  0  0
 26 21  2  0  0  0  0
 29 25  1  0  0  0  0
M  END
>  <minimizedAffinity>
-5.52437592

$$$$

 OpenBabel03242519593D

 29 31  0  0  0  0  0  0  0  0999 V2000
   38.5020   28.3540   39.2310 Br  0  0  0  0  0  0  0  0  0  0  0  0
   37.8670   28.0050   41.0080 C   0  0  0  0  0  0  0  0  0  0  0  0
   37.5170   26.7390   41.4360 C   0  0  0  0  0  0  0  0  0  0  0  0
   37.0700   26.5950   42.7390 C   0  0  0  0  0  0  0  0  0  0  0  0
   36.9650   27.6630   43.6070 C   0  0  0  0  0  0  0  0  0  0  0  0
   37.3150   28.9380   43.1830 C   0  0  0  0  0  0  0  0  0  0  0  0
   37.7620   29.0720   41.8770 C   0  0  0  0  0  0  0  0  0  0  0  0
   36.7980   25.6020   43.0700 H   0  0  0  0  0  0  0  0  0  0  0  0
   36.6120   27.5140   44.6200 H   0  0  0  0  0  0  0  0  0  0  0  0
   37.2250   29.7450   43.8720 H   0  0  0  0  0  0  0  0  0  0  0  0
   38.1000   30.4070   41.5160 N   0  0  0  0  0  0  0  0  0  0  0  0
   37.2420   31.1830   40.7980 C   0  0  0  0  0  3  0  0  0  0  0  0
   37.5720   32.4910   40.4440 C   0  0  0  0  0  0  0  0  0  0  0  0
   36.9280   33.1420   39.8780 H   0  0  0  0  0  0  0  0  0  0  0  0
   38.8050   32.9920   40.8410 C   0  0  0  0  0  0  0  0  0  0  0  0
   39.1220   34.1590   40.5340 O   0  0  0  0  0  0  0  0  0  0  0  0
   39.5950   32.1640   41.5470 N   0  0  0  0  0  0  0  0  0  0  0  0
   39.3000   30.9010   41.9000 C   0  0  0  0  0  0  0  0  0  0  0  0
   40.1470   30.2450   42.5670 O   0  0  0  0  0  0  0  0  0  0  0  0
   40.5390   32.5480   41.8510 H   0  0  0  0  0  0  0  0  0  0  0  0
   36.7430   24.1890   38.7460 C   0  0  0  0  0  0  0  0  0  0  0  0
   36.5890   25.2430   39.6660 C   0  0  0  0  0  0  0  0  0  0  0  0
   37.6480   25.6530   40.4790 C   0  0  0  0  0  0  0  0  0  0  0  0
   38.8050   24.9660   40.3100 N   0  0  0  0  0  0  0  0  0  0  0  0
   38.9480   23.9560   39.4290 C   0  0  0  0  0  0  0  0  0  0  0  0
   37.9170   23.5760   38.6540 N   0  0  0  0  0  0  0  0  0  0  0  0
   35.9260   23.8680   38.1150 H   0  0  0  0  0  0  0  0  0  0  0  0
   35.6370   25.7410   39.7410 H   0  0  0  0  0  0  0  0  0  0  0  0
   39.9260   23.4960   39.3980 H   0  0  0  0  0  0  0  0  0  0  0  0
  1  2  1  0  0  0  0
  2  3  2  0  0  0  0
  2  7  1  0  0  0  0
  3  4  1  0  0  0  0
  4  8  1  0  0  0  0
  4  5  2  0  0  0  0
  5  9  1  0  0  0  0
  6  5  1  0  0  0  0
  6 10  1  0  0  0  0
  7  6  2  0  0  0  0
 11  7  1  0  0  0  0
 11 18  1  0  0  0  0
 12 11  1  0  0  0  0
 13 12  2  0  0  0  0
 13 15  1  0  0  0  0
 14 13  1  0  0  0  0
 15 17  1  0  0  0  0
 16 15  2  0  0  0  0
 17 20  1  0  0  0  0
 17 18  1  0  0  0  0
 18 19  2  0  0  0  0
 21 22  1  0  0  0  0
 22 28  1  0  0  0  0
 22 23  2  0  0  0  0
 23  3  1  0  0  0  0
 24 23  1  0  0  0  0
 25 24  2  0  0  0  0
 26 21  2  0  0  0  0
 26 25  1  0  0  0  0
 27 21  1  0  0  0  0
 29 25  1  0  0  0  0
M  END
>  <minimizedAffinity>
-5.47272921

$$$$

 OpenBabel03242519593D

 29 31  0  0  0  0  0  0  0  0999 V2000
   38.6290   28.2470   40.9190 Br  0  0  0  0  0  0  0  0  0  0  0  0
   37.2560   27.9580   39.6100 C   0  0  0  0  0  0  0  0  0  0  0  0
   36.8160   26.6960   39.2630 C   0  0  0  0  0  0  0  0  0  0  0  0
   35.8190   26.5960   38.3060 C   0  0  0  0  0  0  0  0  0  0  0  0
   35.2630   27.7040   37.6990 C   0  0  0  0  0  0  0  0  0  0  0  0
   35.7020   28.9760   38.0430 C   0  0  0  0  0  0  0  0  0  0  0  0
   36.6990   29.0650   39.0030 C   0  0  0  0  0  0  0  0  0  0  0  0
   35.4770   25.6060   38.0370 H   0  0  0  0  0  0  0  0  0  0  0  0
   34.4850   27.5910   36.9540 H   0  0  0  0  0  0  0  0  0  0  0  0
   35.2570   29.8150   37.5610 H   0  0  0  0  0  0  0  0  0  0  0  0
   37.0960   30.3990   39.3020 N   0  0  0  0  0  0  0  0  0  0  0  0
   38.0530   31.0330   38.5680 C   0  0  0  0  0  3  0  0  0  0  0  0
   38.4420   32.3390   38.8600 C   0  0  0  0  0  0  0  0  0  0  0  0
   39.1930   32.8810   38.3090 H   0  0  0  0  0  0  0  0  0  0  0  0
   37.8310   32.9900   39.9240 C   0  0  0  0  0  0  0  0  0  0  0  0
   38.1640   34.1590   40.2040 O   0  0  0  0  0  0  0  0  0  0  0  0
   36.8970   32.2970   40.5980 N   0  0  0  0  0  0  0  0  0  0  0  0
   36.5040   31.0380   40.3370 C   0  0  0  0  0  0  0  0  0  0  0  0
   35.6110   30.5190   41.0620 O   0  0  0  0  0  0  0  0  0  0  0  0
   36.4280   32.7950   41.4130 H   0  0  0  0  0  0  0  0  0  0  0  0
   37.6220   24.0100   41.8070 C   0  0  0  0  0  0  0  0  0  0  0  0
   37.0040   25.1070   41.1800 C   0  0  0  0  0  0  0  0  0  0  0  0
   37.4370   25.5650   39.9340 C   0  0  0  0  0  0  0  0  0  0  0  0
   38.4760   24.8810   39.3960 N   0  0  0  0  0  0  0  0  0  0  0  0
   39.0670   23.8310   40.0010 C   0  0  0  0  0  0  0  0  0  0  0  0
   38.6350   23.4040   41.2000 N   0  0  0  0  0  0  0  0  0  0  0  0
   37.2910   23.6520   42.7730 H   0  0  0  0  0  0  0  0  0  0  0  0
   36.1820   25.6000   41.6720 H   0  0  0  0  0  0  0  0  0  0  0  0
   39.8850   23.3760   39.4590 H   0  0  0  0  0  0  0  0  0  0  0  0
  2  1  1  0  0  0  0
  3  2  1  0  0  0  0
  3 23  1  0  0  0  0
  4  3  2  0  0  0  0
  5  6  2  0  0  0  0
  5  4  1  0  0  0  0
  6  7  1  0  0  0  0
  7 11  1  0  0  0  0
  7  2  2  0  0  0  0
  8  4  1  0  0  0  0
  9  5  1  0  0  0  0
 10  6  1  0  0  0  0
 11 18  1  0  0  0  0
 12 13  2  0  0  0  0
 12 11  1  0  0  0  0
 13 15  1  0  0  0  0
 14 13  1  0  0  0  0
 15 16  2  0  0  0  0
 15 17  1  0  0  0  0
 17 20  1  0  0  0  0
 18 17  1  0  0  0  0
 18 19  2  0  0  0  0
 21 27  1  0  0  0  0
 22 28  1  0  0  0  0
 22 21  2  0  0  0  0
 23 22  1  0  0  0  0
 24 23  2  0  0  0  0
 24 25  1  0  0  0  0
 25 26  2  0  0  0  0
 26 21  1  0  0  0  0
 29 25  1  0  0  0  0
M  END
>  <minimizedAffinity>
-5.21422195

$$$$

 OpenBabel03242519593D

 29 31  0  0  0  0  0  0  0  0999 V2000
   40.8690   29.6270   40.6300 Br  0  0  0  0  0  0  0  0  0  0  0  0
   39.0270   30.1600   40.7150 C   0  0  0  0  0  0  0  0  0  0  0  0
   38.5800   31.3670   40.2140 C   0  0  0  0  0  0  0  0  0  0  0  0
   37.2300   31.6560   40.3250 C   0  0  0  0  0  0  0  0  0  0  0  0
   36.3340   30.7860   40.9130 C   0  0  0  0  0  0  0  0  0  0  0  0
   36.7770   29.5710   41.4190 C   0  0  0  0  0  0  0  0  0  0  0  0
   38.1300   29.2910   41.3020 C   0  0  0  0  0  0  0  0  0  0  0  0
   36.8840   32.6010   39.9310 H   0  0  0  0  0  0  0  0  0  0  0  0
   35.2840   31.0430   40.9830 H   0  0  0  0  0  0  0  0  0  0  0  0
   36.0660   28.9170   41.8670 H   0  0  0  0  0  0  0  0  0  0  0  0
   38.5080   28.0290   41.8430 N   0  0  0  0  0  0  0  0  0  0  0  0
   38.8740   27.9020   43.1480 C   0  0  0  0  0  3  0  0  0  0  0  0
   39.2440   26.6670   43.6800 C   0  0  0  0  0  0  0  0  0  0  0  0
   39.5410   26.5170   44.7040 H   0  0  0  0  0  0  0  0  0  0  0  0
   39.2340   25.5580   42.8440 C   0  0  0  0  0  0  0  0  0  0  0  0
   39.5620   24.4430   43.2980 O   0  0  0  0  0  0  0  0  0  0  0  0
   38.8600   25.7660   41.5700 N   0  0  0  0  0  0  0  0  0  0  0  0
   38.5000   26.9450   41.0340 C   0  0  0  0  0  0  0  0  0  0  0  0
   38.1730   26.9820   39.8160 O   0  0  0  0  0  0  0  0  0  0  0  0
   38.8520   24.9160   40.9290 H   0  0  0  0  0  0  0  0  0  0  0  0
   41.0090   32.9020   37.7480 C   0  0  0  0  0  0  0  0  0  0  0  0
   40.0530   32.0370   38.3120 C   0  0  0  0  0  0  0  0  0  0  0  0
   39.5690   32.2430   39.6060 C   0  0  0  0  0  0  0  0  0  0  0  0
   40.0850   33.3170   40.2520 N   0  0  0  0  0  0  0  0  0  0  0  0
   41.0010   34.1420   39.7080 C   0  0  0  0  0  0  0  0  0  0  0  0
   41.4560   33.9280   38.4610 N   0  0  0  0  0  0  0  0  0  0  0  0
   41.3870   32.7460   36.7460 H   0  0  0  0  0  0  0  0  0  0  0  0
   39.6900   31.2040   37.7350 H   0  0  0  0  0  0  0  0  0  0  0  0
   41.3280   34.9610   40.3350 H   0  0  0  0  0  0  0  0  0  0  0  0
  1  2  1  0  0  0  0
  2  7  1  0  0  0  0
  3  4  1  0  0  0  0
  3  2  2  0  0  0  0
  4  5  2  0  0  0  0
  5  9  1  0  0  0  0
  5  6  1  0  0  0  0
  6 10  1  0  0  0  0
  7  6  2  0  0  0  0
  7 11  1  0  0  0  0
  8  4  1  0  0  0  0
 11 12  1  0  0  0  0
 12 13  2  0  0  0  0
 13 14  1  0  0  0  0
 15 16  2  0  0  0  0
 15 13  1  0  0  0  0
 17 15  1  0  0  0  0
 18 17  1  0  0  0  0
 18 11  1  0  0  0  0
 19 18  2  0  0  0  0
 20 17  1  0  0  0  0
 21 22  2  0  0  0  0
 21 26  1  0  0  0  0
 22 23  1  0  0  0  0
 23  3  1  0  0  0  0
 23 24  2  0  0  0  0
 25 24  1  0  0  0  0
 25 29  1  0  0  0  0
 26 25  2  0  0  0  0
 27 21  1  0  0  0  0
 28 22  1  0  0  0  0
M  END
>  <minimizedAffinity>
-5.19493008

$$$$

 OpenBabel03242519593D

 29 31  0  0  0  0  0  0  0  0999 V2000
   39.8450   28.0230   40.7870 Br  0  0  0  0  0  0  0  0  0  0  0  0
   38.1650   28.9520   40.8000 C   0  0  0  0  0  0  0  0  0  0  0  0
   36.9530   28.2920   40.8610 C   0  0  0  0  0  0  0  0  0  0  0  0
   35.7980   29.0560   40.8650 C   0  0  0  0  0  0  0  0  0  0  0  0
   35.8230   30.4350   40.8110 C   0  0  0  0  0  0  0  0  0  0  0  0
   37.0380   31.1050   40.7490 C   0  0  0  0  0  0  0  0  0  0  0  0
   38.1890   30.3300   40.7460 C   0  0  0  0  0  0  0  0  0  0  0  0
   34.8510   28.5360   40.9140 H   0  0  0  0  0  0  0  0  0  0  0  0
   34.9000   31.0020   40.8160 H   0  0  0  0  0  0  0  0  0  0  0  0
   37.0310   32.1680   40.7080 H   0  0  0  0  0  0  0  0  0  0  0  0
   39.3940   31.0870   40.6800 N   0  0  0  0  0  0  0  0  0  0  0  0
   39.9070   31.4950   39.4870 C   0  0  0  0  0  3  0  0  0  0  0  0
   41.0870   32.2350   39.4210 C   0  0  0  0  0  0  0  0  0  0  0  0
   41.5310   32.5800   38.5030 H   0  0  0  0  0  0  0  0  0  0  0  0
   41.7360   32.5520   40.6080 C   0  0  0  0  0  0  0  0  0  0  0  0
   42.7930   33.2130   40.5730 O   0  0  0  0  0  0  0  0  0  0  0  0
   41.1660   32.1130   41.7430 N   0  0  0  0  0  0  0  0  0  0  0  0
   40.0310   31.3980   41.8330 C   0  0  0  0  0  0  0  0  0  0  0  0
   39.6180   31.0570   42.9760 O   0  0  0  0  0  0  0  0  0  0  0  0
   41.6620   32.3550   42.6520 H   0  0  0  0  0  0  0  0  0  0  0  0
   37.0710   24.7340   42.1490 C   0  0  0  0  0  0  0  0  0  0  0  0
   37.0400   26.1400   42.1240 C   0  0  0  0  0  0  0  0  0  0  0  0
   36.9880   26.8400   40.9170 C   0  0  0  0  0  0  0  0  0  0  0  0
   36.9700   26.0680   39.8020 N   0  0  0  0  0  0  0  0  0  0  0  0
   37.0010   24.7210   39.8300 C   0  0  0  0  0  0  0  0  0  0  0  0
   37.0510   24.0650   41.0030 N   0  0  0  0  0  0  0  0  0  0  0  0
   37.1120   24.1870   43.0820 H   0  0  0  0  0  0  0  0  0  0  0  0
   37.0560   26.6840   43.0530 H   0  0  0  0  0  0  0  0  0  0  0  0
   36.9820   24.2300   38.8670 H   0  0  0  0  0  0  0  0  0  0  0  0
  1  2  1  0  0  0  0
  2  3  1  0  0  0  0
  3  4  2  0  0  0  0
  3 23  1  0  0  0  0
  4  8  1  0  0  0  0
  5  9  1  0  0  0  0
  5  4  1  0  0  0  0
  6  5  2  0  0  0  0
  7  6  1  0  0  0  0
  7  2  2  0  0  0  0
 10  6  1  0  0  0  0
 11  7  1  0  0  0  0
 11 18  1  0  0  0  0
 12 11  1  0  0  0  0
 13 12  2  0  0  0  0
 13 15  1  0  0  0  0
 14 13  1  0  0  0  0
 15 17  1  0  0  0  0
 16 15  2  0  0  0  0
 17 18  1  0  0  0  0
 17 20  1  0  0  0  0
 18 19  2  0  0  0  0
 21 27  1  0  0  0  0
 22 21  1  0  0  0  0
 22 28  1  0  0  0  0
 23 22  2  0  0  0  0
 24 25  2  0  0  0  0
 24 23  1  0  0  0  0
 25 26  1  0  0  0  0
 26 21  2  0  0  0  0
 29 25  1  0  0  0  0
M  END
>  <minimizedAffinity>
-5.12610579

$$$$

 OpenBabel03242519593D

 29 31  0  0  0  0  0  0  0  0999 V2000
   40.0410   27.2110   40.0870 Br  0  0  0  0  0  0  0  0  0  0  0  0
   38.9120   27.7070   41.5580 C   0  0  0  0  0  0  0  0  0  0  0  0
   38.9820   28.9470   42.1610 C   0  0  0  0  0  0  0  0  0  0  0  0
   38.1220   29.2060   43.2160 C   0  0  0  0  0  0  0  0  0  0  0  0
   37.2130   28.2750   43.6740 C   0  0  0  0  0  0  0  0  0  0  0  0
   37.1370   27.0250   43.0720 C   0  0  0  0  0  0  0  0  0  0  0  0
   38.0020   26.7770   42.0160 C   0  0  0  0  0  0  0  0  0  0  0  0
   38.1810   30.1780   43.6850 H   0  0  0  0  0  0  0  0  0  0  0  0
   36.5550   28.5100   44.5010 H   0  0  0  0  0  0  0  0  0  0  0  0
   36.4270   26.3240   43.4430 H   0  0  0  0  0  0  0  0  0  0  0  0
   37.8650   25.4760   41.4520 N   0  0  0  0  0  0  0  0  0  0  0  0
   37.0310   25.2470   40.4000 C   0  0  0  0  0  3  0  0  0  0  0  0
   36.8960   23.9750   39.8470 C   0  0  0  0  0  0  0  0  0  0  0  0
   36.2510   23.7450   39.0160 H   0  0  0  0  0  0  0  0  0  0  0  0
   37.6360   22.9340   40.3940 C   0  0  0  0  0  0  0  0  0  0  0  0
   37.5300   21.7860   39.9160 O   0  0  0  0  0  0  0  0  0  0  0  0
   38.4360   23.2410   41.4300 N   0  0  0  0  0  0  0  0  0  0  0  0
   38.5830   24.4590   41.9810 C   0  0  0  0  0  0  0  0  0  0  0  0
   39.3760   24.5910   42.9530 O   0  0  0  0  0  0  0  0  0  0  0  0
   39.0020   22.4440   41.8490 H   0  0  0  0  0  0  0  0  0  0  0  0
   42.1740   30.9150   41.6350 C   0  0  0  0  0  0  0  0  0  0  0  0
   41.2480   29.9960   42.1620 C   0  0  0  0  0  0  0  0  0  0  0  0
   39.9590   29.8890   41.6370 C   0  0  0  0  0  0  0  0  0  0  0  0
   39.6850   30.7230   40.6040 N   0  0  0  0  0  0  0  0  0  0  0  0
   40.5740   31.6030   40.1020 C   0  0  0  0  0  0  0  0  0  0  0  0
   41.8110   31.6910   40.6210 N   0  0  0  0  0  0  0  0  0  0  0  0
   43.1740   31.0020   42.0390 H   0  0  0  0  0  0  0  0  0  0  0  0
   41.5420   29.3660   42.9840 H   0  0  0  0  0  0  0  0  0  0  0  0
   40.2230   32.2070   39.2780 H   0  0  0  0  0  0  0  0  0  0  0  0
  1  2  1  0  0  0  0
  2  7  2  0  0  0  0
  2  3  1  0  0  0  0
  3  4  2  0  0  0  0
  4  5  1  0  0  0  0
  4  8  1  0  0  0  0
  5  9  1  0  0  0  0
  6 10  1  0  0  0  0
  6  5  2  0  0  0  0
  7  6  1  0  0  0  0
 11 18  1  0  0  0  0
 11  7  1  0  0  0  0
 12 11  1  0  0  0  0
 13 15  1  0  0  0  0
 13 12  2  0  0  0  0
 14 13  1  0  0  0  0
 15 17  1  0  0  0  0
 16 15  2  0  0  0  0
 17 20  1  0  0  0  0
 17 18  1  0  0  0  0
 18 19  2  0  0  0  0
 21 27  1  0  0  0  0
 21 22  1  0  0  0  0
 22 28  1  0  0  0  0
 23  3  1  0  0  0  0
 23 22  2  0  0  0  0
 24 23  1  0  0  0  0
 25 24  2  0  0  0  0
 25 26  1  0  0  0  0
 26 21  2  0  0  0  0
 29 25  1  0  0  0  0
M  END
>  <minimizedAffinity>
-5.12006855

$$$$

 OpenBabel03242519593D

 29 31  0  0  0  0  0  0  0  0999 V2000
   40.7120   30.0390   40.8710 Br  0  0  0  0  0  0  0  0  0  0  0  0
   39.1350   31.0720   40.5070 C   0  0  0  0  0  0  0  0  0  0  0  0
   37.8730   30.6540   40.8810 C   0  0  0  0  0  0  0  0  0  0  0  0
   36.8000   31.4740   40.5710 C   0  0  0  0  0  0  0  0  0  0  0  0
   36.9540   32.6760   39.9110 C   0  0  0  0  0  0  0  0  0  0  0  0
   38.2210   33.1010   39.5320 C   0  0  0  0  0  0  0  0  0  0  0  0
   39.2890   32.2730   39.8480 C   0  0  0  0  0  0  0  0  0  0  0  0
   35.8140   31.1430   40.8660 H   0  0  0  0  0  0  0  0  0  0  0  0
   36.0940   33.2930   39.6840 H   0  0  0  0  0  0  0  0  0  0  0  0
   38.3140   34.0320   39.0240 H   0  0  0  0  0  0  0  0  0  0  0  0
   40.5530   32.7760   39.4270 N   0  0  0  0  0  0  0  0  0  0  0  0
   41.3310   33.5190   40.2620 C   0  0  0  0  0  3  0  0  0  0  0  0
   42.5680   34.0120   39.8520 C   0  0  0  0  0  0  0  0  0  0  0  0
   43.2170   34.6030   40.4760 H   0  0  0  0  0  0  0  0  0  0  0  0
   42.9980   33.7290   38.5620 C   0  0  0  0  0  0  0  0  0  0  0  0
   44.1020   34.1610   38.1730 O   0  0  0  0  0  0  0  0  0  0  0  0
   42.1740   32.9900   37.8000 N   0  0  0  0  0  0  0  0  0  0  0  0
   40.9770   32.5040   38.1720 C   0  0  0  0  0  0  0  0  0  0  0  0
   40.3150   31.8230   37.3400 O   0  0  0  0  0  0  0  0  0  0  0  0
   42.5020   32.7730   36.8110 H   0  0  0  0  0  0  0  0  0  0  0  0
   37.6800   28.0390   43.6120 C   0  0  0  0  0  0  0  0  0  0  0  0
   37.7820   29.2850   42.9670 C   0  0  0  0  0  0  0  0  0  0  0  0
   37.7710   29.3800   41.5740 C   0  0  0  0  0  0  0  0  0  0  0  0
   37.6560   28.2000   40.9150 N   0  0  0  0  0  0  0  0  0  0  0  0
   37.5600   27.0080   41.5370 C   0  0  0  0  0  0  0  0  0  0  0  0
   37.5720   26.9370   42.8800 N   0  0  0  0  0  0  0  0  0  0  0  0
   37.6890   27.9600   44.6910 H   0  0  0  0  0  0  0  0  0  0  0  0
   37.8700   30.1790   43.5600 H   0  0  0  0  0  0  0  0  0  0  0  0
   37.4730   26.1460   40.8900 H   0  0  0  0  0  0  0  0  0  0  0  0
  2  1  1  0  0  0  0
  2  3  1  0  0  0  0
  3 23  1  0  0  0  0
  4  8  1  0  0  0  0
  4  3  2  0  0  0  0
  5  4  1  0  0  0  0
  6  7  1  0  0  0  0
  6  5  2  0  0  0  0
  7  2  2  0  0  0  0
  9  5  1  0  0  0  0
 10  6  1  0  0  0  0
 11  7  1  0  0  0  0
 11 12  1  0  0  0  0
 13 12  2  0  0  0  0
 13 14  1  0  0  0  0
 15 13  1  0  0  0  0
 16 15  2  0  0  0  0
 17 18  1  0  0  0  0
 17 15  1  0  0  0  0
 18 11  1  0  0  0  0
 19 18  2  0  0  0  0
 20 17  1  0  0  0  0
 21 27  1  0  0  0  0
 22 28  1  0  0  0  0
 22 21  1  0  0  0  0
 23 22  2  0  0  0  0
 24 25  2  0  0  0  0
 24 23  1  0  0  0  0
 25 26  1  0  0  0  0
 26 21  2  0  0  0  0
 29 25  1  0  0  0  0
M  END
>  <minimizedAffinity>
-5.1188693

$$$$

 OpenBabel03242519593D

 29 31  0  0  0  0  0  0  0  0999 V2000
   40.4930   29.4590   40.5270 Br  0  0  0  0  0  0  0  0  0  0  0  0
   39.0670   30.7160   40.2670 C   0  0  0  0  0  0  0  0  0  0  0  0
   37.8080   30.5310   40.8030 C   0  0  0  0  0  0  0  0  0  0  0  0
   36.8470   31.4980   40.5560 C   0  0  0  0  0  0  0  0  0  0  0  0
   37.1090   32.6230   39.8010 C   0  0  0  0  0  0  0  0  0  0  0  0
   38.3730   32.8160   39.2590 C   0  0  0  0  0  0  0  0  0  0  0  0
   39.3270   31.8420   39.5130 C   0  0  0  0  0  0  0  0  0  0  0  0
   35.8630   31.3490   40.9790 H   0  0  0  0  0  0  0  0  0  0  0  0
   36.3350   33.3610   39.6280 H   0  0  0  0  0  0  0  0  0  0  0  0
   38.5500   33.6930   38.6810 H   0  0  0  0  0  0  0  0  0  0  0  0
   40.5960   32.1090   38.9240 N   0  0  0  0  0  0  0  0  0  0  0  0
   40.8770   31.7250   37.6480 C   0  0  0  0  0  3  0  0  0  0  0  0
   42.1190   31.9850   37.0700 C   0  0  0  0  0  0  0  0  0  0  0  0
   42.3870   31.7010   36.0660 H   0  0  0  0  0  0  0  0  0  0  0  0
   43.0740   32.6500   37.8280 C   0  0  0  0  0  0  0  0  0  0  0  0
   44.1930   32.8930   37.3320 O   0  0  0  0  0  0  0  0  0  0  0  0
   42.7200   32.9960   39.0780 N   0  0  0  0  0  0  0  0  0  0  0  0
   41.5310   32.7560   39.6570 C   0  0  0  0  0  0  0  0  0  0  0  0
   41.3460   33.1440   40.8440 O   0  0  0  0  0  0  0  0  0  0  0  0
   43.4520   33.5050   39.6580 H   0  0  0  0  0  0  0  0  0  0  0  0
   36.9600   26.9770   41.8000 C   0  0  0  0  0  0  0  0  0  0  0  0
   37.1620   28.1280   41.0160 C   0  0  0  0  0  0  0  0  0  0  0  0
   37.5890   29.3270   41.5900 C   0  0  0  0  0  0  0  0  0  0  0  0
   37.7870   29.2880   42.9300 N   0  0  0  0  0  0  0  0  0  0  0  0
   37.5910   28.1840   43.6790 C   0  0  0  0  0  0  0  0  0  0  0  0
   37.1800   27.0380   43.1080 N   0  0  0  0  0  0  0  0  0  0  0  0
   36.6280   26.0460   41.3600 H   0  0  0  0  0  0  0  0  0  0  0  0
   36.9850   28.0800   39.9550 H   0  0  0  0  0  0  0  0  0  0  0  0
   37.7860   28.2920   44.7360 H   0  0  0  0  0  0  0  0  0  0  0  0
  2  1  1  0  0  0  0
  2  3  1  0  0  0  0
  3 23  1  0  0  0  0
  4  3  2  0  0  0  0
  4  8  1  0  0  0  0
  5  4  1  0  0  0  0
  6  7  1  0  0  0  0
  6  5  2  0  0  0  0
  7  2  2  0  0  0  0
  9  5  1  0  0  0  0
 10  6  1  0  0  0  0
 11  7  1  0  0  0  0
 11 18  1  0  0  0  0
 12 11  1  0  0  0  0
 13 12  2  0  0  0  0
 13 15  1  0  0  0  0
 14 13  1  0  0  0  0
 15 17  1  0  0  0  0
 16 15  2  0  0  0  0
 17 18  1  0  0  0  0
 17 20  1  0  0  0  0
 18 19  2  0  0  0  0
 21 26  1  0  0  0  0
 22 23  1  0  0  0  0
 22 21  2  0  0  0  0
 23 24  2  0  0  0  0
 24 25  1  0  0  0  0
 25 29  1  0  0  0  0
 26 25  2  0  0  0  0
 27 21  1  0  0  0  0
 28 22  1  0  0  0  0
M  END
>  <minimizedAffinity>
-5.08437204

$$$$
