
 OpenBabel03242517203D

 40 42  0  0  0  0  0  0  0  0999 V2000
   36.1270   27.5120   38.9010 C   0  0  0  0  0  0  0  0  0  0  0  0
   35.0250   28.4100   38.8220 C   0  0  0  0  0  0  0  0  0  0  0  0
   34.7310   29.2030   39.9210 C   0  0  0  0  0  0  0  0  0  0  0  0
   35.5270   29.0650   41.0130 N   0  0  0  0  0  0  0  0  0  0  0  0
   36.5590   28.2220   41.0820 C   0  0  0  0  0  0  0  0  0  0  0  0
   36.8510   27.4470   40.0150 N   0  0  0  0  0  0  0  0  0  0  0  0
   36.2940   26.9280   38.0050 H   0  0  0  0  0  0  0  0  0  0  0  0
   33.9100   29.8880   39.8960 H   0  0  0  0  0  0  0  0  0  0  0  0
   37.4450   28.0410   42.2400 C   0  0  0  0  0  0  0  0  0  0  0  0
   37.0250   28.5370   43.1340 H   0  0  0  0  0  0  0  0  0  0  0  0
   38.4540   28.4430   41.9710 H   0  0  0  0  0  0  0  0  0  0  0  0
   37.5720   26.5860   42.5890 C   0  0  0  0  0  0  0  0  0  0  0  0
   37.1310   26.0200   41.7170 H   0  0  0  0  0  0  0  0  0  0  0  0
   36.9080   26.3630   43.4540 H   0  0  0  0  0  0  0  0  0  0  0  0
   38.9330   26.1540   42.8270 N   0  0  0  0  0  0  0  0  0  0  0  0
   39.7870   27.0750   43.3080 C   0  0  0  0  0  3  0  0  0  0  0  0
   41.1100   26.8450   43.5930 C   0  0  0  0  0  0  0  0  0  0  0  0
   41.7520   27.6050   43.9730 H   0  0  0  0  0  0  0  0  0  0  0  0
   41.5720   25.5440   43.3550 C   0  0  0  0  0  0  0  0  0  0  0  0
   42.7800   25.2530   43.5920 O   0  0  0  0  0  0  0  0  0  0  0  0
   40.6950   24.6560   42.8760 N   0  0  0  0  0  0  0  0  0  0  0  0
   39.4020   24.9120   42.6070 C   0  0  0  0  0  0  0  0  0  0  0  0
   38.5990   24.0550   42.1580 O   0  0  0  0  0  0  0  0  0  0  0  0
   41.0640   23.6920   42.7070 H   0  0  0  0  0  0  0  0  0  0  0  0
   34.2270   28.4800   37.5870 C   0  0  0  0  0  3  0  0  0  0  0  0
   33.0830   29.1000   37.4710 C   0  0  0  0  0  3  0  0  0  0  0  0
   32.3120   29.1410   36.1950 C   0  0  0  0  0  0  0  0  0  0  0  0
   31.7570   28.2240   35.9840 H   0  0  0  0  0  0  0  0  0  0  0  0
   33.0880   29.2270   35.3900 H   0  0  0  0  0  0  0  0  0  0  0  0
   32.1720   30.7130   33.8860 F   0  0  0  0  0  0  0  0  0  0  0  0
   31.4260   31.0830   34.9400 C   0  0  0  0  0  0  0  0  0  0  0  0
   31.4650   30.3290   36.1090 C   0  0  0  0  0  0  0  0  0  0  0  0
   30.6560   30.8110   37.1200 C   0  0  0  0  0  0  0  0  0  0  0  0
   29.8500   31.9210   37.0730 C   0  0  0  0  0  0  0  0  0  0  0  0
   29.8720   32.6190   35.8560 C   0  0  0  0  0  0  0  0  0  0  0  0
   30.6430   32.2220   34.7910 C   0  0  0  0  0  0  0  0  0  0  0  0
   30.6680   30.2390   38.0480 H   0  0  0  0  0  0  0  0  0  0  0  0
   29.2600   32.2050   37.9240 H   0  0  0  0  0  0  0  0  0  0  0  0
   29.2440   33.5030   35.7870 H   0  0  0  0  0  0  0  0  0  0  0  0
   30.6420   32.7810   33.8590 H   0  0  0  0  0  0  0  0  0  0  0  0
  1  6  1  0  0  0  0
  2  1  2  0  0  0  0
  2  3  1  0  0  0  0
  3  4  2  0  0  0  0
  4  5  1  0  0  0  0
  5  9  1  0  0  0  0
  6  5  2  0  0  0  0
  7  1  1  0  0  0  0
  8  3  1  0  0  0  0
  9 12  1  0  0  0  0
  9 10  1  0  0  0  0
 11  9  1  0  0  0  0
 12 15  1  0  0  0  0
 12 14  1  0  0  0  0
 13 12  1  0  0  0  0
 15 16  1  0  0  0  0
 16 17  2  0  0  0  0
 17 18  1  0  0  0  0
 19 20  2  0  0  0  0
 19 17  1  0  0  0  0
 21 19  1  0  0  0  0
 22 15  1  0  0  0  0
 22 21  1  0  0  0  0
 23 22  2  0  0  0  0
 24 21  1  0  0  0  0
 25  2  1  0  0  0  0
 26 25  2  0  0  0  0
 27 26  1  0  0  0  0
 28 27  1  0  0  0  0
 29 27  1  0  0  0  0
 30 31  1  0  0  0  0
 31 32  1  0  0  0  0
 32 27  1  0  0  0  0
 32 33  2  0  0  0  0
 33 37  1  0  0  0  0
 34 33  1  0  0  0  0
 34 38  1  0  0  0  0
 35 34  2  0  0  0  0
 36 31  2  0  0  0  0
 36 35  1  0  0  0  0
 39 35  1  0  0  0  0
 40 36  1  0  0  0  0
M  END
>  <minimizedAffinity>
-6.11347866

$$$$

 OpenBabel03242517203D

 40 42  0  0  0  0  0  0  0  0999 V2000
   35.0660   29.0990   40.0020 C   0  0  0  0  0  0  0  0  0  0  0  0
   35.4640   29.3530   38.6590 C   0  0  0  0  0  0  0  0  0  0  0  0
   36.7470   29.8240   38.4230 C   0  0  0  0  0  0  0  0  0  0  0  0
   37.5450   30.0150   39.5050 N   0  0  0  0  0  0  0  0  0  0  0  0
   37.1660   29.7750   40.7620 C   0  0  0  0  0  0  0  0  0  0  0  0
   35.9190   29.3160   41.0000 N   0  0  0  0  0  0  0  0  0  0  0  0
   34.0530   28.7330   40.1070 H   0  0  0  0  0  0  0  0  0  0  0  0
   37.0790   30.0260   37.4260 H   0  0  0  0  0  0  0  0  0  0  0  0
   37.9950   29.9670   41.9600 C   0  0  0  0  0  0  0  0  0  0  0  0
   37.7870   30.9470   42.4260 H   0  0  0  0  0  0  0  0  0  0  0  0
   39.0680   29.8620   41.6600 H   0  0  0  0  0  0  0  0  0  0  0  0
   37.6720   28.9320   43.0000 C   0  0  0  0  0  0  0  0  0  0  0  0
   36.6010   28.6300   42.8110 H   0  0  0  0  0  0  0  0  0  0  0  0
   37.6720   29.4160   44.0020 H   0  0  0  0  0  0  0  0  0  0  0  0
   38.5340   27.7700   42.9620 N   0  0  0  0  0  0  0  0  0  0  0  0
   39.8380   27.9720   43.2230 C   0  0  0  0  0  3  0  0  0  0  0  0
   40.7980   26.9900   43.2320 C   0  0  0  0  0  0  0  0  0  0  0  0
   41.8200   27.1940   43.4460 H   0  0  0  0  0  0  0  0  0  0  0  0
   40.3520   25.6940   42.9440 C   0  0  0  0  0  0  0  0  0  0  0  0
   41.1760   24.7330   42.9330 O   0  0  0  0  0  0  0  0  0  0  0  0
   39.0490   25.5310   42.6880 N   0  0  0  0  0  0  0  0  0  0  0  0
   38.1320   26.5160   42.6880 C   0  0  0  0  0  0  0  0  0  0  0  0
   36.9120   26.3330   42.4440 O   0  0  0  0  0  0  0  0  0  0  0  0
   38.7420   24.5550   42.4760 H   0  0  0  0  0  0  0  0  0  0  0  0
   34.5180   29.1110   37.5580 C   0  0  0  0  0  3  0  0  0  0  0  0
   33.2350   28.9140   37.7050 C   0  0  0  0  0  3  0  0  0  0  0  0
   32.3190   28.6720   36.5540 C   0  0  0  0  0  0  0  0  0  0  0  0
   31.5440   27.9290   36.7540 H   0  0  0  0  0  0  0  0  0  0  0  0
   32.9690   28.2350   35.7520 H   0  0  0  0  0  0  0  0  0  0  0  0
   30.6500   30.3250   38.0750 F   0  0  0  0  0  0  0  0  0  0  0  0
   30.9370   30.7100   36.8200 C   0  0  0  0  0  0  0  0  0  0  0  0
   31.7630   29.9180   36.0290 C   0  0  0  0  0  0  0  0  0  0  0  0
   31.9820   30.4210   34.7610 C   0  0  0  0  0  0  0  0  0  0  0  0
   31.4780   31.5840   34.2360 C   0  0  0  0  0  0  0  0  0  0  0  0
   30.6560   32.3190   35.1040 C   0  0  0  0  0  0  0  0  0  0  0  0
   30.3770   31.9050   36.3840 C   0  0  0  0  0  0  0  0  0  0  0  0
   32.6270   29.8190   34.1180 H   0  0  0  0  0  0  0  0  0  0  0  0
   31.7150   31.8790   33.2310 H   0  0  0  0  0  0  0  0  0  0  0  0
   30.2410   33.2450   34.7180 H   0  0  0  0  0  0  0  0  0  0  0  0
   29.7370   32.4930   37.0350 H   0  0  0  0  0  0  0  0  0  0  0  0
  1  7  1  0  0  0  0
  1  6  1  0  0  0  0
  2  1  2  0  0  0  0
  3  2  1  0  0  0  0
  3  4  2  0  0  0  0
  4  5  1  0  0  0  0
  5  6  2  0  0  0  0
  5  9  1  0  0  0  0
  8  3  1  0  0  0  0
  9 10  1  0  0  0  0
  9 12  1  0  0  0  0
 11  9  1  0  0  0  0
 12 14  1  0  0  0  0
 13 12  1  0  0  0  0
 15 12  1  0  0  0  0
 15 16  1  0  0  0  0
 16 17  2  0  0  0  0
 17 18  1  0  0  0  0
 19 17  1  0  0  0  0
 20 19  2  0  0  0  0
 21 22  1  0  0  0  0
 21 19  1  0  0  0  0
 22 15  1  0  0  0  0
 23 22  2  0  0  0  0
 24 21  1  0  0  0  0
 25 26  2  0  0  0  0
 25  2  1  0  0  0  0
 27 28  1  0  0  0  0
 27 26  1  0  0  0  0
 29 27  1  0  0  0  0
 31 30  1  0  0  0  0
 32 27  1  0  0  0  0
 32 31  2  0  0  0  0
 33 32  1  0  0  0  0
 34 33  2  0  0  0  0
 34 35  1  0  0  0  0
 35 36  2  0  0  0  0
 36 31  1  0  0  0  0
 36 40  1  0  0  0  0
 37 33  1  0  0  0  0
 38 34  1  0  0  0  0
 39 35  1  0  0  0  0
M  END
>  <minimizedAffinity>
-6.06695271

$$$$

 OpenBabel03242517203D

 40 42  0  0  0  0  0  0  0  0999 V2000
   36.2220   29.6320   38.3810 C   0  0  0  0  0  0  0  0  0  0  0  0
   35.1190   29.1990   39.1700 C   0  0  0  0  0  0  0  0  0  0  0  0
   35.3060   29.0140   40.5310 C   0  0  0  0  0  0  0  0  0  0  0  0
   36.5470   29.2610   41.0250 N   0  0  0  0  0  0  0  0  0  0  0  0
   37.5770   29.6670   40.2810 C   0  0  0  0  0  0  0  0  0  0  0  0
   37.4030   29.8500   38.9540 N   0  0  0  0  0  0  0  0  0  0  0  0
   36.0000   29.7540   37.3290 H   0  0  0  0  0  0  0  0  0  0  0  0
   34.4990   28.6890   41.1540 H   0  0  0  0  0  0  0  0  0  0  0  0
   38.9330   29.9470   40.7710 C   0  0  0  0  0  0  0  0  0  0  0  0
   39.6800   29.7750   39.9750 H   0  0  0  0  0  0  0  0  0  0  0  0
   39.1180   29.3010   41.6670 H   0  0  0  0  0  0  0  0  0  0  0  0
   39.0680   31.3890   41.1690 C   0  0  0  0  0  0  0  0  0  0  0  0
   39.5840   31.3850   42.1730 H   0  0  0  0  0  0  0  0  0  0  0  0
   38.0550   31.8080   41.3560 H   0  0  0  0  0  0  0  0  0  0  0  0
   39.8180   32.1920   40.2260 N   0  0  0  0  0  0  0  0  0  0  0  0
   40.7310   31.5510   39.4740 C   0  0  0  0  0  3  0  0  0  0  0  0
   41.5300   32.1500   38.5310 C   0  0  0  0  0  0  0  0  0  0  0  0
   42.2400   31.6030   37.9550 H   0  0  0  0  0  0  0  0  0  0  0  0
   41.3560   33.5290   38.3660 C   0  0  0  0  0  0  0  0  0  0  0  0
   42.0560   34.1540   37.5160 O   0  0  0  0  0  0  0  0  0  0  0  0
   40.4410   34.1330   39.1310 N   0  0  0  0  0  0  0  0  0  0  0  0
   39.6710   33.5170   40.0480 C   0  0  0  0  0  0  0  0  0  0  0  0
   38.8170   34.1110   40.7540 O   0  0  0  0  0  0  0  0  0  0  0  0
   40.3300   35.1630   38.9890 H   0  0  0  0  0  0  0  0  0  0  0  0
   33.8140   28.9590   38.5330 C   0  0  0  0  0  3  0  0  0  0  0  0
   33.5700   29.0910   37.2560 C   0  0  0  0  0  3  0  0  0  0  0  0
   32.2280   28.8370   36.6600 C   0  0  0  0  0  0  0  0  0  0  0  0
   31.6330   28.1010   37.2050 H   0  0  0  0  0  0  0  0  0  0  0  0
   32.4380   28.3840   35.6560 H   0  0  0  0  0  0  0  0  0  0  0  0
   30.6300   30.0190   38.6290 F   0  0  0  0  0  0  0  0  0  0  0  0
   30.7080   30.6320   37.4360 C   0  0  0  0  0  0  0  0  0  0  0  0
   31.4920   30.0780   36.4280 C   0  0  0  0  0  0  0  0  0  0  0  0
   31.4900   30.8000   35.2500 C   0  0  0  0  0  0  0  0  0  0  0  0
   30.8110   31.9670   34.9980 C   0  0  0  0  0  0  0  0  0  0  0  0
   30.0480   32.4520   36.0710 C   0  0  0  0  0  0  0  0  0  0  0  0
   29.9840   31.8080   37.2820 C   0  0  0  0  0  0  0  0  0  0  0  0
   32.0960   30.3890   34.4420 H   0  0  0  0  0  0  0  0  0  0  0  0
   30.8830   32.4450   34.0390 H   0  0  0  0  0  0  0  0  0  0  0  0
   29.4990   33.3740   35.9040 H   0  0  0  0  0  0  0  0  0  0  0  0
   29.3840   32.2050   38.0970 H   0  0  0  0  0  0  0  0  0  0  0  0
  1  6  2  0  0  0  0
  1  2  1  0  0  0  0
  2  3  2  0  0  0  0
  3  4  1  0  0  0  0
  3  8  1  0  0  0  0
  5  9  1  0  0  0  0
  5  4  2  0  0  0  0
  6  5  1  0  0  0  0
  7  1  1  0  0  0  0
  9 12  1  0  0  0  0
  9 11  1  0  0  0  0
 10  9  1  0  0  0  0
 12 14  1  0  0  0  0
 12 13  1  0  0  0  0
 15 12  1  0  0  0  0
 16 15  1  0  0  0  0
 17 16  2  0  0  0  0
 18 17  1  0  0  0  0
 19 17  1  0  0  0  0
 19 21  1  0  0  0  0
 20 19  2  0  0  0  0
 21 22  1  0  0  0  0
 22 15  1  0  0  0  0
 22 23  2  0  0  0  0
 24 21  1  0  0  0  0
 25  2  1  0  0  0  0
 26 25  2  0  0  0  0
 27 28  1  0  0  0  0
 27 26  1  0  0  0  0
 29 27  1  0  0  0  0
 31 30  1  0  0  0  0
 32 27  1  0  0  0  0
 32 31  2  0  0  0  0
 33 32  1  0  0  0  0
 34 33  2  0  0  0  0
 34 35  1  0  0  0  0
 35 36  2  0  0  0  0
 36 31  1  0  0  0  0
 36 40  1  0  0  0  0
 37 33  1  0  0  0  0
 38 34  1  0  0  0  0
 39 35  1  0  0  0  0
M  END
>  <minimizedAffinity>
-6.03088331

$$$$

 OpenBabel03242517203D

 40 42  0  0  0  0  0  0  0  0999 V2000
   36.9060   28.5840   38.6820 C   0  0  0  0  0  0  0  0  0  0  0  0
   35.5210   28.8600   38.8650 C   0  0  0  0  0  0  0  0  0  0  0  0
   35.0550   29.1090   40.1460 C   0  0  0  0  0  0  0  0  0  0  0  0
   35.9650   29.0730   41.1540 N   0  0  0  0  0  0  0  0  0  0  0  0
   37.2610   28.8150   40.9770 C   0  0  0  0  0  0  0  0  0  0  0  0
   37.7230   28.5700   39.7320 N   0  0  0  0  0  0  0  0  0  0  0  0
   37.1950   28.4000   37.6560 H   0  0  0  0  0  0  0  0  0  0  0  0
   34.0200   29.3190   40.3190 H   0  0  0  0  0  0  0  0  0  0  0  0
   38.2790   28.7650   42.0360 C   0  0  0  0  0  0  0  0  0  0  0  0
   38.2560   29.6880   42.6440 H   0  0  0  0  0  0  0  0  0  0  0  0
   39.2760   28.6050   41.5520 H   0  0  0  0  0  0  0  0  0  0  0  0
   38.0060   27.6330   42.9840 C   0  0  0  0  0  0  0  0  0  0  0  0
   36.9520   27.7900   43.3550 H   0  0  0  0  0  0  0  0  0  0  0  0
   38.6570   27.7460   43.8790 H   0  0  0  0  0  0  0  0  0  0  0  0
   38.1340   26.3210   42.3860 N   0  0  0  0  0  0  0  0  0  0  0  0
   36.9950   25.6370   42.1710 C   0  0  0  0  0  3  0  0  0  0  0  0
   36.9250   24.3840   41.6140 C   0  0  0  0  0  0  0  0  0  0  0  0
   36.0000   23.8790   41.4610 H   0  0  0  0  0  0  0  0  0  0  0  0
   38.1480   23.8030   41.2550 C   0  0  0  0  0  0  0  0  0  0  0  0
   38.1680   22.6490   40.7360 O   0  0  0  0  0  0  0  0  0  0  0  0
   39.2590   24.5110   41.4850 N   0  0  0  0  0  0  0  0  0  0  0  0
   39.2950   25.7400   42.0320 C   0  0  0  0  0  0  0  0  0  0  0  0
   40.3560   26.3830   42.2360 O   0  0  0  0  0  0  0  0  0  0  0  0
   40.1580   24.0550   41.2080 H   0  0  0  0  0  0  0  0  0  0  0  0
   34.6200   28.8750   37.7010 C   0  0  0  0  0  3  0  0  0  0  0  0
   33.3150   28.8600   37.7660 C   0  0  0  0  0  3  0  0  0  0  0  0
   32.4460   28.8760   36.5550 C   0  0  0  0  0  0  0  0  0  0  0  0
   31.8820   27.9530   36.4020 H   0  0  0  0  0  0  0  0  0  0  0  0
   33.1560   28.9530   35.6890 H   0  0  0  0  0  0  0  0  0  0  0  0
   32.2680   30.5230   34.3000 F   0  0  0  0  0  0  0  0  0  0  0  0
   31.5290   30.8500   35.3740 C   0  0  0  0  0  0  0  0  0  0  0  0
   31.5880   30.0580   36.5160 C   0  0  0  0  0  0  0  0  0  0  0  0
   30.7840   30.4980   37.5510 C   0  0  0  0  0  0  0  0  0  0  0  0
   29.9680   31.6010   37.5490 C   0  0  0  0  0  0  0  0  0  0  0  0
   29.9710   32.3400   36.3560 C   0  0  0  0  0  0  0  0  0  0  0  0
   30.7350   31.9860   35.2710 C   0  0  0  0  0  0  0  0  0  0  0  0
   30.8110   29.8960   38.4590 H   0  0  0  0  0  0  0  0  0  0  0  0
   29.3830   31.8510   38.4150 H   0  0  0  0  0  0  0  0  0  0  0  0
   29.3340   33.2190   36.3230 H   0  0  0  0  0  0  0  0  0  0  0  0
   30.7190   32.5750   34.3580 H   0  0  0  0  0  0  0  0  0  0  0  0
  1  2  2  0  0  0  0
  1  6  1  0  0  0  0
  2  3  1  0  0  0  0
  3  8  1  0  0  0  0
  3  4  2  0  0  0  0
  5  4  1  0  0  0  0
  5  9  1  0  0  0  0
  6  5  2  0  0  0  0
  7  1  1  0  0  0  0
  9 10  1  0  0  0  0
  9 12  1  0  0  0  0
 11  9  1  0  0  0  0
 12 13  1  0  0  0  0
 12 14  1  0  0  0  0
 15 12  1  0  0  0  0
 16 15  1  0  0  0  0
 17 16  2  0  0  0  0
 18 17  1  0  0  0  0
 19 21  1  0  0  0  0
 19 17  1  0  0  0  0
 20 19  2  0  0  0  0
 21 22  1  0  0  0  0
 22 23  2  0  0  0  0
 22 15  1  0  0  0  0
 24 21  1  0  0  0  0
 25 26  2  0  0  0  0
 25  2  1  0  0  0  0
 27 26  1  0  0  0  0
 28 27  1  0  0  0  0
 29 27  1  0  0  0  0
 30 31  1  0  0  0  0
 31 32  1  0  0  0  0
 32 27  1  0  0  0  0
 32 33  2  0  0  0  0
 33 37  1  0  0  0  0
 34 33  1  0  0  0  0
 34 38  1  0  0  0  0
 35 34  2  0  0  0  0
 36 31  2  0  0  0  0
 36 35  1  0  0  0  0
 39 35  1  0  0  0  0
 40 36  1  0  0  0  0
M  END
>  <minimizedAffinity>
-5.93528461

$$$$

 OpenBabel03242517203D

 40 42  0  0  0  0  0  0  0  0999 V2000
   35.9410   27.3310   38.8280 C   0  0  0  0  0  0  0  0  0  0  0  0
   35.1860   28.5320   38.9430 C   0  0  0  0  0  0  0  0  0  0  0  0
   35.1580   29.1870   40.1650 C   0  0  0  0  0  0  0  0  0  0  0  0
   35.8630   28.6280   41.1830 N   0  0  0  0  0  0  0  0  0  0  0  0
   36.5690   27.5020   41.0690 C   0  0  0  0  0  0  0  0  0  0  0  0
   36.6010   26.8590   39.8820 N   0  0  0  0  0  0  0  0  0  0  0  0
   35.9150   26.8780   37.8460 H   0  0  0  0  0  0  0  0  0  0  0  0
   34.6010   30.0920   40.2870 H   0  0  0  0  0  0  0  0  0  0  0  0
   37.3450   26.8630   42.1410 C   0  0  0  0  0  0  0  0  0  0  0  0
   38.2820   26.4320   41.7420 H   0  0  0  0  0  0  0  0  0  0  0  0
   36.6970   26.0870   42.6230 H   0  0  0  0  0  0  0  0  0  0  0  0
   37.7560   27.8720   43.1740 C   0  0  0  0  0  0  0  0  0  0  0  0
   37.5610   27.3850   44.1740 H   0  0  0  0  0  0  0  0  0  0  0  0
   37.0610   28.7400   43.1270 H   0  0  0  0  0  0  0  0  0  0  0  0
   39.1400   28.2830   43.0800 N   0  0  0  0  0  0  0  0  0  0  0  0
   40.0660   27.3960   43.4860 C   0  0  0  0  0  3  0  0  0  0  0  0
   41.4220   27.6130   43.4670 C   0  0  0  0  0  0  0  0  0  0  0  0
   42.1210   26.8810   43.7970 H   0  0  0  0  0  0  0  0  0  0  0  0
   41.8370   28.8600   42.9830 C   0  0  0  0  0  0  0  0  0  0  0  0
   43.0710   29.1360   42.9350 O   0  0  0  0  0  0  0  0  0  0  0  0
   40.8890   29.7160   42.5900 N   0  0  0  0  0  0  0  0  0  0  0  0
   39.5660   29.4740   42.6200 C   0  0  0  0  0  0  0  0  0  0  0  0
   38.6960   30.3000   42.2420 O   0  0  0  0  0  0  0  0  0  0  0  0
   41.2250   30.6400   42.2330 H   0  0  0  0  0  0  0  0  0  0  0  0
   34.4570   29.0530   37.7750 C   0  0  0  0  0  3  0  0  0  0  0  0
   33.3580   28.5400   37.2910 C   0  0  0  0  0  3  0  0  0  0  0  0
   32.6580   29.1050   36.1020 C   0  0  0  0  0  0  0  0  0  0  0  0
   32.2690   28.3500   35.4160 H   0  0  0  0  0  0  0  0  0  0  0  0
   33.4510   29.6600   35.5350 H   0  0  0  0  0  0  0  0  0  0  0  0
   31.9390   31.2430   34.4470 F   0  0  0  0  0  0  0  0  0  0  0  0
   31.3110   31.1290   35.6290 C   0  0  0  0  0  0  0  0  0  0  0  0
   31.6380   30.0810   36.4830 C   0  0  0  0  0  0  0  0  0  0  0  0
   30.9250   30.0720   37.6670 C   0  0  0  0  0  0  0  0  0  0  0  0
   29.9630   30.9700   38.0570 C   0  0  0  0  0  0  0  0  0  0  0  0
   29.6970   31.9930   37.1340 C   0  0  0  0  0  0  0  0  0  0  0  0
   30.3520   32.0890   35.9300 C   0  0  0  0  0  0  0  0  0  0  0  0
   31.1620   29.2610   38.3560 H   0  0  0  0  0  0  0  0  0  0  0  0
   29.4700   30.8660   39.0050 H   0  0  0  0  0  0  0  0  0  0  0  0
   28.9400   32.7190   37.4130 H   0  0  0  0  0  0  0  0  0  0  0  0
   30.1270   32.8920   35.2330 H   0  0  0  0  0  0  0  0  0  0  0  0
  1  2  2  0  0  0  0
  1  6  1  0  0  0  0
  2  3  1  0  0  0  0
  3  8  1  0  0  0  0
  3  4  2  0  0  0  0
  5  4  1  0  0  0  0
  5  9  1  0  0  0  0
  6  5  2  0  0  0  0
  7  1  1  0  0  0  0
  9 11  1  0  0  0  0
  9 12  1  0  0  0  0
 10  9  1  0  0  0  0
 12 13  1  0  0  0  0
 14 12  1  0  0  0  0
 15 12  1  0  0  0  0
 15 16  1  0  0  0  0
 17 16  2  0  0  0  0
 17 18  1  0  0  0  0
 19 17  1  0  0  0  0
 20 19  2  0  0  0  0
 21 22  1  0  0  0  0
 21 19  1  0  0  0  0
 22 15  1  0  0  0  0
 23 22  2  0  0  0  0
 24 21  1  0  0  0  0
 25  2  1  0  0  0  0
 26 25  2  0  0  0  0
 27 32  1  0  0  0  0
 27 26  1  0  0  0  0
 28 27  1  0  0  0  0
 29 27  1  0  0  0  0
 30 31  1  0  0  0  0
 31 36  2  0  0  0  0
 31 32  1  0  0  0  0
 32 33  2  0  0  0  0
 33 34  1  0  0  0  0
 33 37  1  0  0  0  0
 34 38  1  0  0  0  0
 35 39  1  0  0  0  0
 35 34  2  0  0  0  0
 36 35  1  0  0  0  0
 40 36  1  0  0  0  0
M  END
>  <minimizedAffinity>
-5.86273956

$$$$

 OpenBabel03242517203D

 40 42  0  0  0  0  0  0  0  0999 V2000
   35.3440   28.9930   40.6750 C   0  0  0  0  0  0  0  0  0  0  0  0
   35.2170   29.2380   39.2780 C   0  0  0  0  0  0  0  0  0  0  0  0
   36.3070   29.7520   38.5900 C   0  0  0  0  0  0  0  0  0  0  0  0
   37.4350   29.9910   39.3080 N   0  0  0  0  0  0  0  0  0  0  0  0
   37.5480   29.7590   40.6170 C   0  0  0  0  0  0  0  0  0  0  0  0
   36.4910   29.2580   41.2930 N   0  0  0  0  0  0  0  0  0  0  0  0
   34.4540   28.5920   41.1410 H   0  0  0  0  0  0  0  0  0  0  0  0
   36.2460   29.9480   37.5400 H   0  0  0  0  0  0  0  0  0  0  0  0
   38.7460   30.0020   41.4320 C   0  0  0  0  0  0  0  0  0  0  0  0
   38.8740   31.0820   41.6260 H   0  0  0  0  0  0  0  0  0  0  0  0
   39.6250   29.5630   40.8950 H   0  0  0  0  0  0  0  0  0  0  0  0
   38.6150   29.3470   42.7770 C   0  0  0  0  0  0  0  0  0  0  0  0
   37.5370   29.0210   42.8570 H   0  0  0  0  0  0  0  0  0  0  0  0
   38.7520   30.1180   43.5680 H   0  0  0  0  0  0  0  0  0  0  0  0
   39.4950   28.2140   42.9690 N   0  0  0  0  0  0  0  0  0  0  0  0
   40.8170   28.4640   42.9690 C   0  0  0  0  0  3  0  0  0  0  0  0
   41.7950   27.5150   43.1370 C   0  0  0  0  0  0  0  0  0  0  0  0
   42.8310   27.7570   43.1320 H   0  0  0  0  0  0  0  0  0  0  0  0
   41.3480   26.2000   43.3200 C   0  0  0  0  0  0  0  0  0  0  0  0
   42.1890   25.2670   43.4810 O   0  0  0  0  0  0  0  0  0  0  0  0
   40.0280   25.9890   43.3130 N   0  0  0  0  0  0  0  0  0  0  0  0
   39.0930   26.9420   43.1460 C   0  0  0  0  0  0  0  0  0  0  0  0
   37.8560   26.7140   43.1450 O   0  0  0  0  0  0  0  0  0  0  0  0
   39.7210   24.9990   43.4510 H   0  0  0  0  0  0  0  0  0  0  0  0
   33.9470   28.9420   38.5960 C   0  0  0  0  0  3  0  0  0  0  0  0
   33.7270   29.1100   37.3200 C   0  0  0  0  0  3  0  0  0  0  0  0
   32.4190   28.7950   36.6770 C   0  0  0  0  0  0  0  0  0  0  0  0
   31.9010   27.9430   37.1220 H   0  0  0  0  0  0  0  0  0  0  0  0
   32.6770   28.4900   35.6290 H   0  0  0  0  0  0  0  0  0  0  0  0
   32.2930   30.3780   34.3740 F   0  0  0  0  0  0  0  0  0  0  0  0
   31.5280   30.7340   35.4200 C   0  0  0  0  0  0  0  0  0  0  0  0
   31.5610   29.9750   36.5850 C   0  0  0  0  0  0  0  0  0  0  0  0
   30.7320   30.4420   37.5870 C   0  0  0  0  0  0  0  0  0  0  0  0
   29.9150   31.5440   37.5350 C   0  0  0  0  0  0  0  0  0  0  0  0
   29.9460   32.2490   36.3220 C   0  0  0  0  0  0  0  0  0  0  0  0
   30.7360   31.8650   35.2660 C   0  0  0  0  0  0  0  0  0  0  0  0
   30.7370   29.8660   38.5130 H   0  0  0  0  0  0  0  0  0  0  0  0
   29.3100   31.8170   38.3800 H   0  0  0  0  0  0  0  0  0  0  0  0
   29.3090   33.1250   36.2490 H   0  0  0  0  0  0  0  0  0  0  0  0
   30.7410   32.4290   34.3370 H   0  0  0  0  0  0  0  0  0  0  0  0
  1  7  1  0  0  0  0
  1  6  1  0  0  0  0
  2  1  2  0  0  0  0
  3  2  1  0  0  0  0
  3  4  2  0  0  0  0
  4  5  1  0  0  0  0
  5  6  2  0  0  0  0
  5  9  1  0  0  0  0
  8  3  1  0  0  0  0
  9 10  1  0  0  0  0
  9 12  1  0  0  0  0
 11  9  1  0  0  0  0
 12 13  1  0  0  0  0
 12 15  1  0  0  0  0
 12 14  1  0  0  0  0
 15 22  1  0  0  0  0
 16 15  1  0  0  0  0
 16 17  2  0  0  0  0
 17 19  1  0  0  0  0
 18 17  1  0  0  0  0
 19 20  2  0  0  0  0
 21 19  1  0  0  0  0
 21 24  1  0  0  0  0
 22 21  1  0  0  0  0
 23 22  2  0  0  0  0
 25  2  1  0  0  0  0
 26 25  2  0  0  0  0
 27 28  1  0  0  0  0
 27 26  1  0  0  0  0
 29 27  1  0  0  0  0
 30 31  1  0  0  0  0
 31 32  1  0  0  0  0
 32 27  1  0  0  0  0
 32 33  2  0  0  0  0
 33 37  1  0  0  0  0
 34 33  1  0  0  0  0
 34 38  1  0  0  0  0
 35 34  2  0  0  0  0
 36 31  2  0  0  0  0
 36 35  1  0  0  0  0
 39 35  1  0  0  0  0
 40 36  1  0  0  0  0
M  END
>  <minimizedAffinity>
-5.85948753

$$$$

 OpenBabel03242517203D

 40 42  0  0  0  0  0  0  0  0999 V2000
   38.4710   29.4060   42.1510 C   0  0  0  0  0  0  0  0  0  0  0  0
   37.1590   29.0400   41.7370 C   0  0  0  0  0  0  0  0  0  0  0  0
   36.3900   29.9730   41.0580 C   0  0  0  0  0  0  0  0  0  0  0  0
   36.9500   31.1900   40.8340 N   0  0  0  0  0  0  0  0  0  0  0  0
   38.1800   31.5280   41.2240 C   0  0  0  0  0  0  0  0  0  0  0  0
   38.9350   30.6240   41.8850 N   0  0  0  0  0  0  0  0  0  0  0  0
   39.0100   28.6260   42.6730 H   0  0  0  0  0  0  0  0  0  0  0  0
   35.4000   29.7320   40.7330 H   0  0  0  0  0  0  0  0  0  0  0  0
   38.8240   32.8300   41.0030 C   0  0  0  0  0  0  0  0  0  0  0  0
   39.9060   32.7720   41.2210 H   0  0  0  0  0  0  0  0  0  0  0  0
   38.3060   33.5870   41.6450 H   0  0  0  0  0  0  0  0  0  0  0  0
   38.7090   33.2430   39.5640 C   0  0  0  0  0  0  0  0  0  0  0  0
   38.7110   34.3710   39.5660 H   0  0  0  0  0  0  0  0  0  0  0  0
   37.7050   32.9490   39.1840 H   0  0  0  0  0  0  0  0  0  0  0  0
   39.7730   32.7420   38.7200 N   0  0  0  0  0  0  0  0  0  0  0  0
   41.0210   33.1510   39.0100 C   0  0  0  0  0  3  0  0  0  0  0  0
   42.1490   32.7790   38.3210 C   0  0  0  0  0  0  0  0  0  0  0  0
   43.1200   33.1260   38.5860 H   0  0  0  0  0  0  0  0  0  0  0  0
   41.9490   31.9090   37.2420 C   0  0  0  0  0  0  0  0  0  0  0  0
   42.9390   31.5200   36.5550 O   0  0  0  0  0  0  0  0  0  0  0  0
   40.6950   31.5250   36.9820 N   0  0  0  0  0  0  0  0  0  0  0  0
   39.6080   31.9070   37.6780 C   0  0  0  0  0  0  0  0  0  0  0  0
   38.4390   31.5280   37.4110 O   0  0  0  0  0  0  0  0  0  0  0  0
   40.5720   30.8760   36.1720 H   0  0  0  0  0  0  0  0  0  0  0  0
   36.6500   27.6910   42.0310 C   0  0  0  0  0  3  0  0  0  0  0  0
   37.3960   26.6440   42.2620 C   0  0  0  0  0  3  0  0  0  0  0  0
   36.8290   25.2960   42.5550 C   0  0  0  0  0  0  0  0  0  0  0  0
   35.7880   25.3160   42.8860 H   0  0  0  0  0  0  0  0  0  0  0  0
   37.4240   24.9140   43.4250 H   0  0  0  0  0  0  0  0  0  0  0  0
   39.1970   23.8400   42.2470 F   0  0  0  0  0  0  0  0  0  0  0  0
   38.2300   23.6610   41.3320 C   0  0  0  0  0  0  0  0  0  0  0  0
   37.0360   24.3660   41.4470 C   0  0  0  0  0  0  0  0  0  0  0  0
   36.1230   24.0970   40.4450 C   0  0  0  0  0  0  0  0  0  0  0  0
   36.2840   23.2310   39.3920 C   0  0  0  0  0  0  0  0  0  0  0  0
   37.5180   22.5640   39.3560 C   0  0  0  0  0  0  0  0  0  0  0  0
   38.4920   22.7620   40.3050 C   0  0  0  0  0  0  0  0  0  0  0  0
   35.1770   24.6360   40.5100 H   0  0  0  0  0  0  0  0  0  0  0  0
   35.5020   23.0990   38.6680 H   0  0  0  0  0  0  0  0  0  0  0  0
   37.6760   21.8710   38.5350 H   0  0  0  0  0  0  0  0  0  0  0  0
   39.4390   22.2320   40.2530 H   0  0  0  0  0  0  0  0  0  0  0  0
  1  7  1  0  0  0  0
  2 25  1  0  0  0  0
  2  1  2  0  0  0  0
  3  2  1  0  0  0  0
  4  3  2  0  0  0  0
  4  5  1  0  0  0  0
  5  6  2  0  0  0  0
  6  1  1  0  0  0  0
  8  3  1  0  0  0  0
  9 10  1  0  0  0  0
  9  5  1  0  0  0  0
  9 11  1  0  0  0  0
 12 13  1  0  0  0  0
 12  9  1  0  0  0  0
 14 12  1  0  0  0  0
 15 16  1  0  0  0  0
 15 12  1  0  0  0  0
 17 18  1  0  0  0  0
 17 16  2  0  0  0  0
 19 17  1  0  0  0  0
 20 19  2  0  0  0  0
 21 19  1  0  0  0  0
 21 22  1  0  0  0  0
 22 15  1  0  0  0  0
 23 22  2  0  0  0  0
 24 21  1  0  0  0  0
 25 26  2  0  0  0  0
 26 27  1  0  0  0  0
 27 28  1  0  0  0  0
 27 29  1  0  0  0  0
 31 32  1  0  0  0  0
 31 30  1  0  0  0  0
 32 27  1  0  0  0  0
 33 37  1  0  0  0  0
 33 32  2  0  0  0  0
 34 33  1  0  0  0  0
 35 34  2  0  0  0  0
 35 36  1  0  0  0  0
 36 31  2  0  0  0  0
 38 34  1  0  0  0  0
 39 35  1  0  0  0  0
 40 36  1  0  0  0  0
M  END
>  <minimizedAffinity>
-5.77823639

$$$$

 OpenBabel03242517203D

 40 42  0  0  0  0  0  0  0  0999 V2000
   36.2990   29.8200   37.5810 C   0  0  0  0  0  0  0  0  0  0  0  0
   35.4610   29.1610   38.5250 C   0  0  0  0  0  0  0  0  0  0  0  0
   36.0160   28.7230   39.7180 C   0  0  0  0  0  0  0  0  0  0  0  0
   37.3410   28.9560   39.9050 N   0  0  0  0  0  0  0  0  0  0  0  0
   38.1220   29.5750   39.0180 C   0  0  0  0  0  0  0  0  0  0  0  0
   37.5880   30.0040   37.8540 N   0  0  0  0  0  0  0  0  0  0  0  0
   35.7950   30.1330   36.6760 H   0  0  0  0  0  0  0  0  0  0  0  0
   35.4150   28.2240   40.4480 H   0  0  0  0  0  0  0  0  0  0  0  0
   39.5570   29.8470   39.1790 C   0  0  0  0  0  0  0  0  0  0  0  0
   40.1610   29.0420   38.7240 H   0  0  0  0  0  0  0  0  0  0  0  0
   39.7670   29.9650   40.2730 H   0  0  0  0  0  0  0  0  0  0  0  0
   39.9400   31.1120   38.4660 C   0  0  0  0  0  0  0  0  0  0  0  0
   40.1200   31.8790   39.2750 H   0  0  0  0  0  0  0  0  0  0  0  0
   39.0620   31.4840   37.8930 H   0  0  0  0  0  0  0  0  0  0  0  0
   41.1150   30.9840   37.6300 N   0  0  0  0  0  0  0  0  0  0  0  0
   41.4320   29.7450   37.2140 C   0  0  0  0  0  3  0  0  0  0  0  0
   42.5070   29.4360   36.4170 C   0  0  0  0  0  0  0  0  0  0  0  0
   42.7210   28.4390   36.1100 H   0  0  0  0  0  0  0  0  0  0  0  0
   43.3120   30.5140   36.0280 C   0  0  0  0  0  0  0  0  0  0  0  0
   44.3230   30.3110   35.2940 O   0  0  0  0  0  0  0  0  0  0  0  0
   42.9670   31.7310   36.4620 N   0  0  0  0  0  0  0  0  0  0  0  0
   41.9050   32.0020   37.2420 C   0  0  0  0  0  0  0  0  0  0  0  0
   41.6050   33.1580   37.6350 O   0  0  0  0  0  0  0  0  0  0  0  0
   43.5840   32.5180   36.1580 H   0  0  0  0  0  0  0  0  0  0  0  0
   34.0350   28.9600   38.2200 C   0  0  0  0  0  3  0  0  0  0  0  0
   33.5160   28.9830   37.0220 C   0  0  0  0  0  3  0  0  0  0  0  0
   32.0630   28.7740   36.7670 C   0  0  0  0  0  0  0  0  0  0  0  0
   31.5790   28.1040   37.4800 H   0  0  0  0  0  0  0  0  0  0  0  0
   32.0140   28.2570   35.7720 H   0  0  0  0  0  0  0  0  0  0  0  0
   30.6060   29.9040   38.8710 F   0  0  0  0  0  0  0  0  0  0  0  0
   30.6340   30.5670   37.7030 C   0  0  0  0  0  0  0  0  0  0  0  0
   31.3470   30.0410   36.6300 C   0  0  0  0  0  0  0  0  0  0  0  0
   31.2990   30.8150   35.4870 C   0  0  0  0  0  0  0  0  0  0  0  0
   30.6380   32.0070   35.3240 C   0  0  0  0  0  0  0  0  0  0  0  0
   29.9470   32.4620   36.4570 C   0  0  0  0  0  0  0  0  0  0  0  0
   29.9330   31.7660   37.6410 C   0  0  0  0  0  0  0  0  0  0  0  0
   31.8490   30.4260   34.6290 H   0  0  0  0  0  0  0  0  0  0  0  0
   30.6690   32.5260   34.3840 H   0  0  0  0  0  0  0  0  0  0  0  0
   29.4140   33.4030   36.3610 H   0  0  0  0  0  0  0  0  0  0  0  0
   29.3890   32.1400   38.5040 H   0  0  0  0  0  0  0  0  0  0  0  0
  1  6  2  0  0  0  0
  1  2  1  0  0  0  0
  2  3  2  0  0  0  0
  3  4  1  0  0  0  0
  3  8  1  0  0  0  0
  5  9  1  0  0  0  0
  5  4  2  0  0  0  0
  6  5  1  0  0  0  0
  7  1  1  0  0  0  0
  9 11  1  0  0  0  0
 10  9  1  0  0  0  0
 12  9  1  0  0  0  0
 12 13  1  0  0  0  0
 14 12  1  0  0  0  0
 15 12  1  0  0  0  0
 16 15  1  0  0  0  0
 17 16  2  0  0  0  0
 18 17  1  0  0  0  0
 19 17  1  0  0  0  0
 19 21  1  0  0  0  0
 20 19  2  0  0  0  0
 21 22  1  0  0  0  0
 22 15  1  0  0  0  0
 22 23  2  0  0  0  0
 24 21  1  0  0  0  0
 25  2  1  0  0  0  0
 26 25  2  0  0  0  0
 27 26  1  0  0  0  0
 27 28  1  0  0  0  0
 29 27  1  0  0  0  0
 31 30  1  0  0  0  0
 32 27  1  0  0  0  0
 32 31  2  0  0  0  0
 33 32  1  0  0  0  0
 34 33  2  0  0  0  0
 34 35  1  0  0  0  0
 35 36  2  0  0  0  0
 36 31  1  0  0  0  0
 36 40  1  0  0  0  0
 37 33  1  0  0  0  0
 38 34  1  0  0  0  0
 39 35  1  0  0  0  0
M  END
>  <minimizedAffinity>
-5.68285131

$$$$

 OpenBabel03242517203D

 40 42  0  0  0  0  0  0  0  0999 V2000
   36.2730   29.6900   38.1290 C   0  0  0  0  0  0  0  0  0  0  0  0
   35.2550   29.1960   38.9930 C   0  0  0  0  0  0  0  0  0  0  0  0
   35.5710   28.9410   40.3190 C   0  0  0  0  0  0  0  0  0  0  0  0
   36.8510   29.1840   40.7070 N   0  0  0  0  0  0  0  0  0  0  0  0
   37.8000   29.6470   39.8930 C   0  0  0  0  0  0  0  0  0  0  0  0
   37.5000   29.8970   38.6010 N   0  0  0  0  0  0  0  0  0  0  0  0
   35.9500   29.8650   37.1110 H   0  0  0  0  0  0  0  0  0  0  0  0
   34.8310   28.5690   40.9950 H   0  0  0  0  0  0  0  0  0  0  0  0
   39.1940   29.9230   40.2690 C   0  0  0  0  0  0  0  0  0  0  0  0
   39.8380   29.0520   40.0490 H   0  0  0  0  0  0  0  0  0  0  0  0
   39.2130   30.1970   41.3540 H   0  0  0  0  0  0  0  0  0  0  0  0
   39.7450   31.0650   39.4640 C   0  0  0  0  0  0  0  0  0  0  0  0
   38.8520   31.6760   39.1450 H   0  0  0  0  0  0  0  0  0  0  0  0
   40.1820   30.6650   38.5220 H   0  0  0  0  0  0  0  0  0  0  0  0
   40.6860   31.8940   40.1860 N   0  0  0  0  0  0  0  0  0  0  0  0
   41.8150   31.3010   40.6140 C   0  0  0  0  0  3  0  0  0  0  0  0
   42.8170   31.9310   41.3120 C   0  0  0  0  0  0  0  0  0  0  0  0
   43.6960   31.4220   41.6310 H   0  0  0  0  0  0  0  0  0  0  0  0
   42.6150   33.2900   41.5810 C   0  0  0  0  0  0  0  0  0  0  0  0
   43.4930   33.9410   42.2200 O   0  0  0  0  0  0  0  0  0  0  0  0
   41.4810   33.8460   41.1410 N   0  0  0  0  0  0  0  0  0  0  0  0
   40.5180   33.2010   40.4580 C   0  0  0  0  0  0  0  0  0  0  0  0
   39.4600   33.7510   40.0560 O   0  0  0  0  0  0  0  0  0  0  0  0
   41.3550   34.8620   41.3550 H   0  0  0  0  0  0  0  0  0  0  0  0
   33.8980   28.9690   38.4690 C   0  0  0  0  0  3  0  0  0  0  0  0
   33.5610   29.0450   37.2090 C   0  0  0  0  0  3  0  0  0  0  0  0
   32.1700   28.8070   36.7290 C   0  0  0  0  0  0  0  0  0  0  0  0
   31.6140   28.0820   37.3270 H   0  0  0  0  0  0  0  0  0  0  0  0
   32.2890   28.3460   35.7130 H   0  0  0  0  0  0  0  0  0  0  0  0
   30.6190   29.9300   38.7680 F   0  0  0  0  0  0  0  0  0  0  0  0
   30.6740   30.5800   37.5940 C   0  0  0  0  0  0  0  0  0  0  0  0
   31.4340   30.0570   36.5520 C   0  0  0  0  0  0  0  0  0  0  0  0
   31.4090   30.8160   35.3980 C   0  0  0  0  0  0  0  0  0  0  0  0
   30.7300   31.9920   35.1970 C   0  0  0  0  0  0  0  0  0  0  0  0
   29.9910   32.4450   36.3010 C   0  0  0  0  0  0  0  0  0  0  0  0
   29.9500   31.7630   37.4930 C   0  0  0  0  0  0  0  0  0  0  0  0
   31.9970   30.4290   34.5650 H   0  0  0  0  0  0  0  0  0  0  0  0
   30.7820   32.5000   34.2530 H   0  0  0  0  0  0  0  0  0  0  0  0
   29.4420   33.3730   36.1740 H   0  0  0  0  0  0  0  0  0  0  0  0
   29.3690   32.1360   38.3320 H   0  0  0  0  0  0  0  0  0  0  0  0
  1  6  2  0  0  0  0
  1  2  1  0  0  0  0
  2  3  2  0  0  0  0
  3  4  1  0  0  0  0
  3  8  1  0  0  0  0
  5  9  1  0  0  0  0
  5  4  2  0  0  0  0
  6  5  1  0  0  0  0
  7  1  1  0  0  0  0
  9 11  1  0  0  0  0
 10  9  1  0  0  0  0
 12 15  1  0  0  0  0
 12  9  1  0  0  0  0
 13 12  1  0  0  0  0
 14 12  1  0  0  0  0
 15 22  1  0  0  0  0
 15 16  1  0  0  0  0
 16 17  2  0  0  0  0
 17 19  1  0  0  0  0
 17 18  1  0  0  0  0
 19 20  2  0  0  0  0
 21 24  1  0  0  0  0
 21 19  1  0  0  0  0
 22 21  1  0  0  0  0
 23 22  2  0  0  0  0
 25  2  1  0  0  0  0
 26 25  2  0  0  0  0
 27 26  1  0  0  0  0
 27 28  1  0  0  0  0
 29 27  1  0  0  0  0
 31 30  1  0  0  0  0
 32 27  1  0  0  0  0
 32 31  2  0  0  0  0
 33 32  1  0  0  0  0
 34 33  2  0  0  0  0
 34 35  1  0  0  0  0
 35 36  2  0  0  0  0
 36 31  1  0  0  0  0
 36 40  1  0  0  0  0
 37 33  1  0  0  0  0
 38 34  1  0  0  0  0
 39 35  1  0  0  0  0
M  END
>  <minimizedAffinity>
-5.68011427

$$$$
