
 OpenBabel03242518393D

 40 43  0  0  1  0  0  0  0  0999 V2000
   49.1030   32.6550   40.8450 O   0  0  0  0  0  0  0  0  0  0  0  0
   48.6290   33.0820   39.5780 C   0  0  0  0  0  0  0  0  0  0  0  0
   48.2950   34.3510   39.0940 C   0  0  0  0  0  0  0  0  0  0  0  0
   47.8790   34.2290   37.7800 C   0  0  0  0  0  0  0  0  0  0  0  0
   47.9800   32.8980   37.5270 C   0  0  0  0  0  0  0  0  0  0  0  0
   48.4170   32.2300   38.5770 O   0  0  0  0  0  0  0  0  0  0  0  0
   48.3860   35.2150   39.7320 H   0  0  0  0  0  0  0  0  0  0  0  0
   47.5610   35.0560   37.1600 H   0  0  0  0  0  0  0  0  0  0  0  0
   47.6410   32.2580   36.2370 C   0  0  2  0  0  0  0  0  0  0  0  0
   48.5470   31.2860   35.6240 C   0  0  0  0  0  0  0  0  0  0  0  0
   48.5900   32.6680   35.0810 C   0  0  1  0  0  0  0  0  0  0  0  0
   46.5650   32.2950   36.0110 H   0  0  0  0  0  0  0  0  0  0  0  0
   49.4220   30.8700   36.1740 H   0  0  0  0  0  0  0  0  0  0  0  0
   48.0350   30.5010   34.9970 H   0  0  0  0  0  0  0  0  0  0  0  0
   49.3920   33.3610   35.3210 H   0  0  0  0  0  0  0  0  0  0  0  0
   48.6170   33.1340   32.6410 C   0  0  0  0  0  0  0  0  0  0  0  0
   49.8760   33.2520   32.6170 O   0  0  0  0  0  0  0  0  0  0  0  0
   47.8760   32.8830   33.8240 N   0  0  0  0  0  0  0  0  0  0  0  0
   48.1590   33.2440   31.6670 H   0  0  0  0  0  0  0  0  0  0  0  0
   46.8380   32.8490   33.8060 H   0  0  0  0  0  0  0  0  0  0  0  0
   49.1020   33.5930   41.9190 C   0  0  0  0  0  0  0  0  0  0  0  0
   50.1270   34.2930   42.0550 O   0  0  0  0  0  0  0  0  0  0  0  0
   47.9170   33.6150   42.7150 C   0  0  0  0  0  0  0  0  0  0  0  0
   47.1370   34.7350   42.5810 C   0  0  0  0  0  0  0  0  0  0  0  0
   45.9700   34.8320   43.3200 C   0  0  0  0  0  0  0  0  0  0  0  0
   45.6470   33.8090   44.1480 N   0  0  0  0  0  0  0  0  0  0  0  0
   46.4270   32.7270   44.2600 C   0  0  0  0  0  0  0  0  0  0  0  0
   47.5560   32.6590   43.5310 N   0  0  0  0  0  0  0  0  0  0  0  0
   47.3230   35.5880   41.9460 H   0  0  0  0  0  0  0  0  0  0  0  0
   45.3130   35.6930   43.2550 H   0  0  0  0  0  0  0  0  0  0  0  0
   46.0370   31.6830   45.1490 N   0  0  0  0  0  0  0  0  0  0  0  0
   45.5610   30.4690   44.8050 C   0  0  0  0  0  3  0  0  0  0  0  0
   45.2180   29.5460   45.7720 C   0  0  0  0  0  0  0  0  0  0  0  0
   44.8430   28.5950   45.4490 H   0  0  0  0  0  0  0  0  0  0  0  0
   45.3900   29.9370   47.0860 C   0  0  0  0  0  0  0  0  0  0  0  0
   45.0790   29.0940   47.9900 O   0  0  0  0  0  0  0  0  0  0  0  0
   45.8590   31.1300   47.4270 N   0  0  0  0  0  0  0  0  0  0  0  0
   46.1900   32.0220   46.4470 C   0  0  0  0  0  0  0  0  0  0  0  0
   46.6250   33.1260   46.8760 O   0  0  0  0  0  0  0  0  0  0  0  0
   45.9600   31.3460   48.4530 H   0  0  0  0  0  0  0  0  0  0  0  0
  1 21  1  0  0  0  0
  2  1  1  0  0  0  0
  3  2  2  0  0  0  0
  3  7  1  0  0  0  0
  4  3  1  0  0  0  0
  5  4  2  0  0  0  0
  5  6  1  0  0  0  0
  6  2  1  0  0  0  0
  8  4  1  0  0  0  0
  9 12  1  6  0  0  0
  9  5  1  0  0  0  0
 10 13  1  0  0  0  0
 10  9  1  0  0  0  0
 11 15  1  1  0  0  0
 11 10  1  0  0  0  0
 11  9  1  0  0  0  0
 14 10  1  0  0  0  0
 16 18  1  0  0  0  0
 17 16  2  0  0  0  0
 18 11  1  0  0  0  0
 19 16  1  0  0  0  0
 20 18  1  0  0  0  0
 21 22  2  0  0  0  0
 21 23  1  0  0  0  0
 23 28  1  0  0  0  0
 24 23  2  0  0  0  0
 24 25  1  0  0  0  0
 25 26  2  0  0  0  0
 26 27  1  0  0  0  0
 27 31  1  0  0  0  0
 28 27  2  0  0  0  0
 29 24  1  0  0  0  0
 30 25  1  0  0  0  0
 31 38  1  0  0  0  0
 32 31  1  0  0  0  0
 32 33  2  0  0  0  0
 33 35  1  0  0  0  0
 34 33  1  0  0  0  0
 35 37  1  0  0  0  0
 35 36  2  0  0  0  0
 37 40  1  0  0  0  0
 38 39  2  0  0  0  0
 38 37  1  0  0  0  0
M  END
>  <minimizedAffinity>
-5.88823748

>  <minimizedRMSD>
1.84052742

$$$$
