
 OpenBabel03252508463D

 46 48  0  0  0  0  0  0  0  0999 V2000
   42.3340   31.7480   42.5210 N   0  0  0  0  0  0  0  0  0  0  0  0
   42.7400   30.8040   42.7100 H   0  0  0  0  0  0  0  0  0  0  0  0
   43.0370   32.5440   41.5700 C   0  0  0  0  0  0  0  0  0  0  0  0
   43.7020   31.9010   40.9240 H   0  0  0  0  0  0  0  0  0  0  0  0
   42.2980   33.0060   40.8930 H   0  0  0  0  0  0  0  0  0  0  0  0
   43.6840   34.9450   41.8930 C   0  0  0  0  0  0  0  0  0  0  0  0
   43.9110   33.5970   42.1610 C   0  0  0  0  0  0  0  0  0  0  0  0
   44.9620   33.2590   42.9870 C   0  0  0  0  0  0  0  0  0  0  0  0
   45.7530   34.2440   43.5190 C   0  0  0  0  0  0  0  0  0  0  0  0
   45.5530   35.5730   43.2730 C   0  0  0  0  0  0  0  0  0  0  0  0
   44.4890   35.8610   42.4410 C   0  0  0  0  0  0  0  0  0  0  0  0
   45.1740   32.2250   43.2210 H   0  0  0  0  0  0  0  0  0  0  0  0
   46.5840   33.9610   44.1720 H   0  0  0  0  0  0  0  0  0  0  0  0
   46.1460   36.3830   43.6670 H   0  0  0  0  0  0  0  0  0  0  0  0
   44.2500   36.8970   42.1860 H   0  0  0  0  0  0  0  0  0  0  0  0
   40.3190   35.9440   40.5070 C   0  0  0  0  0  0  0  0  0  0  0  0
   41.3280   35.6880   41.4430 C   0  0  0  0  0  0  0  0  0  0  0  0
   42.5600   35.2430   41.0150 C   0  0  0  0  0  0  0  0  0  0  0  0
   42.7140   35.0780   39.6700 N   0  0  0  0  0  0  0  0  0  0  0  0
   41.7360   35.3270   38.7720 C   0  0  0  0  0  0  0  0  0  0  0  0
   40.5410   35.7600   39.2060 N   0  0  0  0  0  0  0  0  0  0  0  0
   39.3510   36.2940   40.8480 H   0  0  0  0  0  0  0  0  0  0  0  0
   41.1890   35.8230   42.4880 H   0  0  0  0  0  0  0  0  0  0  0  0
   42.0550   35.1340   37.7420 H   0  0  0  0  0  0  0  0  0  0  0  0
   40.6680   31.5840   42.1400 S   0  0  0  0  0  0  0  0  0  0  0  0
   39.8970   32.8180   42.5490 O   0  0  0  0  0  0  0  0  0  0  0  0
   39.0850   32.8420   43.1120 H   0  0  0  0  0  0  0  0  0  0  0  0
   40.0900   30.3740   42.7850 O   0  0  0  0  0  0  0  0  0  0  0  0
   40.5740   29.4880   42.8150 H   0  0  0  0  0  0  0  0  0  0  0  0
   40.5440   31.4160   40.4710 O   0  0  0  0  0  0  0  0  0  0  0  0
   39.6580   32.3850   40.0110 C   0  0  0  0  0  0  0  0  0  0  0  0
   39.9920   32.6560   38.9730 H   0  0  0  0  0  0  0  0  0  0  0  0
   39.6010   33.2880   40.6110 H   0  0  0  0  0  0  0  0  0  0  0  0
   38.2700   31.7400   39.8310 C   0  0  0  0  0  0  0  0  0  0  0  0
   38.0100   31.2110   40.7690 H   0  0  0  0  0  0  0  0  0  0  0  0
   37.5190   32.5220   39.6720 H   0  0  0  0  0  0  0  0  0  0  0  0
   38.3190   30.8540   38.6880 N   0  0  0  0  0  0  0  0  0  0  0  0
   38.6940   31.3400   37.4810 C   0  0  0  0  0  3  0  0  0  0  0  0
   38.7230   30.4450   36.4190 C   0  0  0  0  0  0  0  0  0  0  0  0
   39.0190   30.7850   35.4160 H   0  0  0  0  0  0  0  0  0  0  0  0
   38.3760   29.1280   36.6370 C   0  0  0  0  0  0  0  0  0  0  0  0
   38.3880   28.2720   35.6950 O   0  0  0  0  0  0  0  0  0  0  0  0
   38.0090   28.6950   37.8690 N   0  0  0  0  0  0  0  0  0  0  0  0
   37.9820   29.5650   38.8900 C   0  0  0  0  0  0  0  0  0  0  0  0
   37.6370   29.1600   40.0510 O   0  0  0  0  0  0  0  0  0  0  0  0
   37.7400   27.7080   38.0730 H   0  0  0  0  0  0  0  0  0  0  0  0
  1  2  1  0  0  0  0
  3  7  1  0  0  0  0
  3  1  1  0  0  0  0
  4  3  1  0  0  0  0
  5  3  1  0  0  0  0
  6  7  2  0  0  0  0
  6 11  1  0  0  0  0
  7  8  1  0  0  0  0
  8 12  1  0  0  0  0
  8  9  2  0  0  0  0
  9 13  1  0  0  0  0
 10  9  1  0  0  0  0
 10 14  1  0  0  0  0
 11 10  2  0  0  0  0
 15 11  1  0  0  0  0
 16 22  1  0  0  0  0
 16 17  1  0  0  0  0
 17 23  1  0  0  0  0
 18 17  2  0  0  0  0
 18  6  1  0  0  0  0
 19 18  1  0  0  0  0
 20 21  1  0  0  0  0
 20 19  2  0  0  0  0
 21 16  2  0  0  0  0
 24 20  1  0  0  0  0
 25  1  1  0  0  0  0
 25 26  1  0  0  0  0
 25 28  1  0  0  0  0
 26 27  1  0  0  0  0
 28 29  1  0  0  0  0
 30 25  1  0  0  0  0
 31 30  1  0  0  0  0
 31 33  1  0  0  0  0
 32 31  1  0  0  0  0
 34 31  1  0  0  0  0
 34 35  1  0  0  0  0
 36 34  1  0  0  0  0
 37 44  1  0  0  0  0
 37 34  1  0  0  0  0
 38 37  1  0  0  0  0
 39 41  1  0  0  0  0
 39 38  2  0  0  0  0
 40 39  1  0  0  0  0
 41 43  1  0  0  0  0
 42 41  2  0  0  0  0
 43 46  1  0  0  0  0
 43 44  1  0  0  0  0
 44 45  2  0  0  0  0
M  END
>  <minimizedAffinity>
-5.53326845

>  <minimizedRMSD>
2.32180882

$$$$
