
 OpenBabel03252501453D

 24 25  0  0  0  0  0  0  0  0999 V2000
   45.5340   33.4190   42.1700 C   0  0  0  0  0  0  0  0  0  0  0  0
   46.7890   33.8780   41.7180 C   0  0  0  0  0  0  0  0  0  0  0  0
   47.8070   33.9820   42.6530 C   0  0  0  0  0  0  0  0  0  0  0  0
   47.5560   33.6400   43.9530 N   0  0  0  0  0  0  0  0  0  0  0  0
   46.3510   33.2060   44.3470 C   0  0  0  0  0  0  0  0  0  0  0  0
   45.3730   33.1050   43.4540 N   0  0  0  0  0  0  0  0  0  0  0  0
   44.7210   33.3280   41.4630 H   0  0  0  0  0  0  0  0  0  0  0  0
   48.7960   34.3240   42.3940 H   0  0  0  0  0  0  0  0  0  0  0  0
   46.1540   32.8650   45.7160 N   0  0  0  0  0  0  0  0  0  0  0  0
   46.7220   31.7550   46.2330 C   0  0  0  0  0  0  0  0  0  0  0  0
   46.4750   31.5020   47.5770 C   0  0  0  0  0  0  0  0  0  0  0  0
   46.9210   30.6090   48.0280 H   0  0  0  0  0  0  0  0  0  0  0  0
   45.6890   32.3580   48.3080 C   0  0  0  0  0  0  0  0  0  0  0  0
   45.4740   32.1150   49.5230 O   0  0  0  0  0  0  0  0  0  0  0  0
   45.1320   33.4600   47.7680 N   0  0  0  0  0  0  0  0  0  0  0  0
   45.3890   33.6780   46.4700 C   0  0  0  0  0  0  0  0  0  0  0  0
   44.8680   34.7090   45.9660 O   0  0  0  0  0  0  0  0  0  0  0  0
   44.5320   34.1090   48.3320 H   0  0  0  0  0  0  0  0  0  0  0  0
   47.0250   34.2360   40.3270 C   0  0  0  0  0  0  0  0  0  0  0  0
   48.1480   34.0000   39.6570 C   0  0  0  0  0  0  0  0  0  0  0  0
   48.2510   34.4270   38.2160 C   0  0  0  0  0  0  0  0  0  0  0  0
   47.6070   35.3050   38.0660 H   0  0  0  0  0  0  0  0  0  0  0  0
   47.8940   33.6070   37.5710 H   0  0  0  0  0  0  0  0  0  0  0  0
   49.3070   34.6500   37.9710 H   0  0  0  0  0  0  0  0  0  0  0  0
  1  6  1  0  0  0  0
  2  1  2  0  0  0  0
  2  3  1  0  0  0  0
  3  4  2  0  0  0  0
  4  5  1  0  0  0  0
  5  9  1  0  0  0  0
  6  5  2  0  0  0  0
  7  1  1  0  0  0  0
  8  3  1  0  0  0  0
  9 10  1  0  0  0  0
  9 16  1  0  0  0  0
 10 11  2  0  0  0  0
 11 12  1  0  0  0  0
 11 13  1  0  0  0  0
 13 14  2  0  0  0  0
 15 13  1  0  0  0  0
 15 18  1  0  0  0  0
 16 15  1  0  0  0  0
 17 16  2  0  0  0  0
 19  2  1  0  0  0  0
 20 19  2  0  0  0  0
 21 20  1  0  0  0  0
 22 21  1  0  0  0  0
 23 21  1  0  0  0  0
 24 21  1  0  0  0  0
M  END
>  <minimizedAffinity>
-5.41537762

>  <minimizedRMSD>
3.04152656

$$$$
