
 OpenBabel03252504103D

 26 27  0  0  0  0  0  0  0  0999 V2000
   44.8980   32.2250   43.4580 C   0  0  0  0  0  0  0  0  0  0  0  0
   45.5480   33.1370   44.3010 C   0  0  0  0  0  0  0  0  0  0  0  0
   45.4050   34.5070   44.0260 C   0  0  0  0  0  0  0  0  0  0  0  0
   44.6500   34.8760   42.9640 N   0  0  0  0  0  0  0  0  0  0  0  0
   44.0350   33.9580   42.1680 C   0  0  0  0  0  0  0  0  0  0  0  0
   44.1620   32.6490   42.4180 N   0  0  0  0  0  0  0  0  0  0  0  0
   45.8940   35.2140   44.6620 H   0  0  0  0  0  0  0  0  0  0  0  0
   43.2530   34.4070   41.0650 N   0  0  0  0  0  0  0  0  0  0  0  0
   42.0240   34.9120   41.2660 C   0  0  0  0  0  3  0  0  0  0  0  0
   41.2150   35.3660   40.2270 C   0  0  0  0  0  0  0  0  0  0  0  0
   40.2260   35.7710   40.4080 H   0  0  0  0  0  0  0  0  0  0  0  0
   41.7820   35.2510   38.9730 C   0  0  0  0  0  0  0  0  0  0  0  0
   41.0790   35.6530   37.9900 O   0  0  0  0  0  0  0  0  0  0  0  0
   43.0090   34.7490   38.7520 N   0  0  0  0  0  0  0  0  0  0  0  0
   43.7370   34.3260   39.8270 C   0  0  0  0  0  0  0  0  0  0  0  0
   44.8880   33.8520   39.6420 O   0  0  0  0  0  0  0  0  0  0  0  0
   43.3730   34.6920   37.7800 H   0  0  0  0  0  0  0  0  0  0  0  0
   46.3530   32.6220   45.4400 C   0  0  0  0  0  0  0  0  0  0  0  0
   45.6490   31.6530   46.1230 F   0  0  0  0  0  0  0  0  0  0  0  0
   47.4930   32.0180   44.9270 F   0  0  0  0  0  0  0  0  0  0  0  0
   46.7240   33.5770   46.3440 F   0  0  0  0  0  0  0  0  0  0  0  0
   45.0450   30.9150   43.7350 O   0  0  0  0  0  0  0  0  0  0  0  0
   44.3540   29.8440   43.1490 C   0  0  0  0  0  0  0  0  0  0  0  0
   42.9960   30.0590   43.3630 F   0  0  0  0  0  0  0  0  0  0  0  0
   44.6900   29.7430   41.8200 F   0  0  0  0  0  0  0  0  0  0  0  0
   44.6310   28.6730   43.8450 F   0  0  0  0  0  0  0  0  0  0  0  0
  1 22  1  0  0  0  0
  1  2  1  0  0  0  0
  2 18  1  0  0  0  0
  3  2  2  0  0  0  0
  3  7  1  0  0  0  0
  4  3  1  0  0  0  0
  5  6  1  0  0  0  0
  5  4  2  0  0  0  0
  6  1  2  0  0  0  0
  8  9  1  0  0  0  0
  8  5  1  0  0  0  0
 10 11  1  0  0  0  0
 10  9  2  0  0  0  0
 12 10  1  0  0  0  0
 13 12  2  0  0  0  0
 14 12  1  0  0  0  0
 14 15  1  0  0  0  0
 15  8  1  0  0  0  0
 16 15  2  0  0  0  0
 17 14  1  0  0  0  0
 18 19  1  0  0  0  0
 18 21  1  0  0  0  0
 20 18  1  0  0  0  0
 23 24  1  0  0  0  0
 23 22  1  0  0  0  0
 23 26  1  0  0  0  0
 25 23  1  0  0  0  0
M  END
>  <minimizedAffinity>
-4.546525

>  <minimizedRMSD>
7.40941858

$$$$
