
 OpenBabel03252505363D

 34 36  0  0  0  0  0  0  0  0999 V2000
   44.9290   35.1000   45.2630 C   0  0  0  0  0  0  0  0  0  0  0  0
   45.4340   33.8190   44.9370 C   0  0  0  0  0  0  0  0  0  0  0  0
   45.3750   33.4060   43.6260 C   0  0  0  0  0  0  0  0  0  0  0  0
   44.8370   34.2460   42.7240 N   0  0  0  0  0  0  0  0  0  0  0  0
   44.3560   35.4720   43.0600 C   0  0  0  0  0  0  0  0  0  0  0  0
   44.4030   35.8950   44.3260 N   0  0  0  0  0  0  0  0  0  0  0  0
   43.7820   36.3260   42.0750 N   0  0  0  0  0  0  0  0  0  0  0  0
   44.9300   35.5110   46.2620 H   0  0  0  0  0  0  0  0  0  0  0  0
   42.8260   35.8720   41.9820 H   0  0  0  0  0  0  0  0  0  0  0  0
   44.4810   37.0630   41.8060 H   0  0  0  0  0  0  0  0  0  0  0  0
   45.8580   32.1400   43.1770 C   0  0  0  0  0  0  0  0  0  0  0  0
   45.0250   31.0320   43.3380 C   0  0  0  0  0  0  0  0  0  0  0  0
   45.3870   29.7500   42.9280 C   0  0  0  0  0  0  0  0  0  0  0  0
   46.6110   29.5600   42.3420 C   0  0  0  0  0  0  0  0  0  0  0  0
   47.4430   30.6380   42.1760 C   0  0  0  0  0  0  0  0  0  0  0  0
   47.0740   31.9130   42.5870 C   0  0  0  0  0  0  0  0  0  0  0  0
   44.0450   31.1580   43.8020 H   0  0  0  0  0  0  0  0  0  0  0  0
   44.7100   28.9140   43.0700 H   0  0  0  0  0  0  0  0  0  0  0  0
   46.9630   28.5920   41.9970 H   0  0  0  0  0  0  0  0  0  0  0  0
   48.4150   30.5350   41.7200 H   0  0  0  0  0  0  0  0  0  0  0  0
   47.9690   33.0730   42.3950 C   0  0  0  0  0  0  0  0  0  0  0  0
   49.1750   32.6000   41.8820 F   0  0  0  0  0  0  0  0  0  0  0  0
   48.1790   33.7040   43.6040 F   0  0  0  0  0  0  0  0  0  0  0  0
   47.4790   34.0330   41.5390 F   0  0  0  0  0  0  0  0  0  0  0  0
   45.9320   33.1250   46.0690 N   0  0  0  0  0  0  0  0  0  0  0  0
   46.9550   32.2610   46.1650 C   0  0  0  0  0  3  0  0  0  0  0  0
   47.3540   31.6350   47.3020 C   0  0  0  0  0  0  0  0  0  0  0  0
   48.1940   30.9540   47.2700 H   0  0  0  0  0  0  0  0  0  0  0  0
   46.6830   31.8740   48.4820 C   0  0  0  0  0  0  0  0  0  0  0  0
   47.0030   31.3270   49.5670 O   0  0  0  0  0  0  0  0  0  0  0  0
   45.6540   32.7320   48.4270 N   0  0  0  0  0  0  0  0  0  0  0  0
   45.3110   33.3180   47.2730 C   0  0  0  0  0  0  0  0  0  0  0  0
   44.3140   34.1110   47.3680 O   0  0  0  0  0  0  0  0  0  0  0  0
   45.1520   32.9090   49.3160 H   0  0  0  0  0  0  0  0  0  0  0  0
  1  8  1  0  0  0  0
  2  1  1  0  0  0  0
  2 25  1  0  0  0  0
  3  2  2  0  0  0  0
  4  5  2  0  0  0  0
  4  3  1  0  0  0  0
  5  6  1  0  0  0  0
  6  1  2  0  0  0  0
  7  5  1  0  0  0  0
  9  7  1  0  0  0  0
 10  7  1  0  0  0  0
 11 12  1  0  0  0  0
 11  3  1  0  0  0  0
 12 17  1  0  0  0  0
 13 18  1  0  0  0  0
 13 12  2  0  0  0  0
 14 13  1  0  0  0  0
 15 14  2  0  0  0  0
 15 16  1  0  0  0  0
 16 11  2  0  0  0  0
 19 14  1  0  0  0  0
 20 15  1  0  0  0  0
 21 16  1  0  0  0  0
 21 23  1  0  0  0  0
 22 21  1  0  0  0  0
 24 21  1  0  0  0  0
 25 26  1  0  0  0  0
 25 32  1  0  0  0  0
 26 27  2  0  0  0  0
 27 29  1  0  0  0  0
 28 27  1  0  0  0  0
 29 30  2  0  0  0  0
 31 29  1  0  0  0  0
 31 34  1  0  0  0  0
 32 33  2  0  0  0  0
 32 31  1  0  0  0  0
M  END
>  <minimizedAffinity>
-5.6132803

>  <minimizedRMSD>
6.0013423

$$$$
