
 OpenBabel03252506183D

 24 25  0  0  0  0  0  0  0  0999 V2000
   44.8880   35.3860   44.0450 C   0  0  0  0  0  0  0  0  0  0  0  0
   44.4740   34.8560   42.8090 C   0  0  0  0  0  0  0  0  0  0  0  0
   44.6370   33.4980   42.5790 C   0  0  0  0  0  0  0  0  0  0  0  0
   45.1880   32.7490   43.5600 N   0  0  0  0  0  0  0  0  0  0  0  0
   45.5780   33.2790   44.7400 C   0  0  0  0  0  0  0  0  0  0  0  0
   45.4280   34.5800   44.9760 N   0  0  0  0  0  0  0  0  0  0  0  0
   44.0500   35.5490   42.1070 H   0  0  0  0  0  0  0  0  0  0  0  0
   44.3190   33.0890   41.6270 H   0  0  0  0  0  0  0  0  0  0  0  0
   46.1390   32.3530   45.6620 N   0  0  0  0  0  0  0  0  0  0  0  0
   46.8450   32.7460   46.7590 C   0  0  0  0  0  3  0  0  0  0  0  0
   47.3780   31.8230   47.6380 C   0  0  0  0  0  0  0  0  0  0  0  0
   47.9370   32.1900   48.5020 H   0  0  0  0  0  0  0  0  0  0  0  0
   47.1940   30.4750   47.4050 C   0  0  0  0  0  0  0  0  0  0  0  0
   47.6880   29.6620   48.2160 O   0  0  0  0  0  0  0  0  0  0  0  0
   46.4830   30.1280   46.2980 N   0  0  0  0  0  0  0  0  0  0  0  0
   45.9690   31.0380   45.4520 C   0  0  0  0  0  0  0  0  0  0  0  0
   45.3300   30.5550   44.4630 O   0  0  0  0  0  0  0  0  0  0  0  0
   46.3970   29.0750   46.2080 H   0  0  0  0  0  0  0  0  0  0  0  0
   44.7220   36.8270   44.3070 C   0  0  0  0  0  3  0  0  0  0  0  0
   45.4160   37.6570   43.5390 C   0  0  0  0  0  3  0  0  0  0  0  0
   45.2930   39.1290   43.7520 C   0  0  0  0  0  0  0  0  0  0  0  0
   45.5840   39.6140   42.7790 H   0  0  0  0  0  0  0  0  0  0  0  0
   44.2930   39.4310   44.0920 H   0  0  0  0  0  0  0  0  0  0  0  0
   46.0250   39.4340   44.5260 H   0  0  0  0  0  0  0  0  0  0  0  0
  1 19  1  0  0  0  0
  1  6  1  0  0  0  0
  2  1  2  0  0  0  0
  3  2  1  0  0  0  0
  3  4  2  0  0  0  0
  4  5  1  0  0  0  0
  5  6  2  0  0  0  0
  5  9  1  0  0  0  0
  7  2  1  0  0  0  0
  8  3  1  0  0  0  0
  9 10  1  0  0  0  0
 10 11  2  0  0  0  0
 11 12  1  0  0  0  0
 13 11  1  0  0  0  0
 13 14  2  0  0  0  0
 15 13  1  0  0  0  0
 16  9  1  0  0  0  0
 16 15  1  0  0  0  0
 17 16  2  0  0  0  0
 18 15  1  0  0  0  0
 20 21  1  0  0  0  0
 20 19  2  0  0  0  0
 21 23  1  0  0  0  0
 21 24  1  0  0  0  0
 22 21  1  0  0  0  0
M  END
>  <minimizedAffinity>
-4.04116297

>  <minimizedRMSD>
1.69654691

$$$$
