
 OpenBabel03242518393D

 40 43  0  0  1  0  0  0  0  0999 V2000
   47.0760   33.5430   40.8280 O   0  0  0  0  0  0  0  0  0  0  0  0
   47.2840   33.6720   39.4310 C   0  0  0  0  0  0  0  0  0  0  0  0
   48.2430   34.3780   38.6980 C   0  0  0  0  0  0  0  0  0  0  0  0
   48.0070   34.1770   37.3500 C   0  0  0  0  0  0  0  0  0  0  0  0
   46.9200   33.3620   37.3250 C   0  0  0  0  0  0  0  0  0  0  0  0
   46.4990   33.0680   38.5400 O   0  0  0  0  0  0  0  0  0  0  0  0
   48.9990   34.9530   39.2090 H   0  0  0  0  0  0  0  0  0  0  0  0
   48.6010   34.6080   36.5550 H   0  0  0  0  0  0  0  0  0  0  0  0
   46.2730   32.8590   36.0940 C   0  0  2  0  0  0  0  0  0  0  0  0
   46.1330   31.4220   35.8570 C   0  0  0  0  0  0  0  0  0  0  0  0
   47.2480   32.1050   35.1520 C   0  0  1  0  0  0  0  0  0  0  0  0
   45.6260   33.6080   35.6140 H   0  0  0  0  0  0  0  0  0  0  0  0
   46.3450   30.6710   36.6520 H   0  0  0  0  0  0  0  0  0  0  0  0
   45.2330   31.1350   35.2420 H   0  0  0  0  0  0  0  0  0  0  0  0
   48.2810   32.0160   35.4780 H   0  0  0  0  0  0  0  0  0  0  0  0
   48.1220   32.7440   32.9160 C   0  0  0  0  0  0  0  0  0  0  0  0
   49.3080   32.8460   33.3430 O   0  0  0  0  0  0  0  0  0  0  0  0
   47.0170   32.4190   33.7440 N   0  0  0  0  0  0  0  0  0  0  0  0
   48.0320   32.9290   31.8550 H   0  0  0  0  0  0  0  0  0  0  0  0
   46.0510   32.4010   33.3620 H   0  0  0  0  0  0  0  0  0  0  0  0
   47.3660   34.6630   41.6620 C   0  0  0  0  0  0  0  0  0  0  0  0
   48.2720   35.4310   41.2770 O   0  0  0  0  0  0  0  0  0  0  0  0
   46.5750   34.7700   42.8450 C   0  0  0  0  0  0  0  0  0  0  0  0
   45.6270   35.7610   42.8350 C   0  0  0  0  0  0  0  0  0  0  0  0
   44.8190   35.9280   43.9460 C   0  0  0  0  0  0  0  0  0  0  0  0
   45.0010   35.1000   45.0040 N   0  0  0  0  0  0  0  0  0  0  0  0
   45.9340   34.1410   44.9870 C   0  0  0  0  0  0  0  0  0  0  0  0
   46.7060   34.0010   43.8940 N   0  0  0  0  0  0  0  0  0  0  0  0
   45.4200   36.4580   42.0370 H   0  0  0  0  0  0  0  0  0  0  0  0
   44.0520   36.6950   43.9960 H   0  0  0  0  0  0  0  0  0  0  0  0
   46.0800   33.3000   46.1290 N   0  0  0  0  0  0  0  0  0  0  0  0
   46.9940   32.3230   46.2980 C   0  0  0  0  0  3  0  0  0  0  0  0
   47.0240   31.5790   47.4600 C   0  0  0  0  0  0  0  0  0  0  0  0
   47.7690   30.8130   47.5470 H   0  0  0  0  0  0  0  0  0  0  0  0
   46.0800   31.8930   48.4190 C   0  0  0  0  0  0  0  0  0  0  0  0
   46.0950   31.2140   49.4970 O   0  0  0  0  0  0  0  0  0  0  0  0
   45.1790   32.8540   48.2550 N   0  0  0  0  0  0  0  0  0  0  0  0
   45.1750   33.5720   47.0930 C   0  0  0  0  0  0  0  0  0  0  0  0
   44.2810   34.4610   47.0380 O   0  0  0  0  0  0  0  0  0  0  0  0
   44.4950   33.0280   49.0370 H   0  0  0  0  0  0  0  0  0  0  0  0
  1 21  1  0  0  0  0
  2  1  1  0  0  0  0
  3  7  1  0  0  0  0
  3  2  2  0  0  0  0
  4  3  1  0  0  0  0
  5  4  2  0  0  0  0
  5  6  1  0  0  0  0
  6  2  1  0  0  0  0
  8  4  1  0  0  0  0
  9 12  1  6  0  0  0
  9  5  1  0  0  0  0
 10  9  1  0  0  0  0
 10 13  1  0  0  0  0
 11 15  1  1  0  0  0
 11 10  1  0  0  0  0
 11  9  1  0  0  0  0
 14 10  1  0  0  0  0
 16 17  2  0  0  0  0
 16 18  1  0  0  0  0
 18 11  1  0  0  0  0
 19 16  1  0  0  0  0
 20 18  1  0  0  0  0
 21 23  1  0  0  0  0
 22 21  2  0  0  0  0
 23 28  1  0  0  0  0
 24 23  2  0  0  0  0
 24 25  1  0  0  0  0
 25 30  1  0  0  0  0
 25 26  2  0  0  0  0
 27 26  1  0  0  0  0
 27 31  1  0  0  0  0
 28 27  2  0  0  0  0
 29 24  1  0  0  0  0
 31 32  1  0  0  0  0
 31 38  1  0  0  0  0
 32 33  2  0  0  0  0
 33 34  1  0  0  0  0
 33 35  1  0  0  0  0
 35 36  2  0  0  0  0
 37 35  1  0  0  0  0
 37 40  1  0  0  0  0
 38 37  1  0  0  0  0
 39 38  2  0  0  0  0
M  END
>  <minimizedAffinity>
-7.07135248

>  <minimizedRMSD>
0.464497358

$$$$
