
 OpenBabel03242519463D

 39 41  0  0  1  0  0  0  0  0999 V2000
   46.6220   32.6300   46.6240 C   0  0  2  0  0  0  0  0  0  0  0  0
   47.1380   32.6700   45.2410 C   0  0  1  0  0  0  0  0  0  0  0  0
   46.8240   31.3360   44.7100 O   0  0  0  0  0  0  0  0  0  0  0  0
   47.4770   30.6280   45.7560 C   0  0  0  0  0  0  0  0  0  0  0  0
   46.6530   31.1480   46.9660 C   0  0  2  0  0  0  0  0  0  0  0  0
   47.2040   33.2350   47.3200 H   0  0  0  0  0  0  0  0  0  0  0  0
   48.2660   32.7160   45.2600 H   0  0  0  0  0  0  0  0  0  0  0  0
   47.5070   29.5720   45.6580 H   0  0  0  0  0  0  0  0  0  0  0  0
   48.5130   31.0670   45.8860 H   0  0  0  0  0  0  0  0  0  0  0  0
   47.2100   30.8900   47.8790 H   0  0  0  0  0  0  0  0  0  0  0  0
   44.8020   35.2220   44.1150 C   0  0  0  0  0  0  0  0  0  0  0  0
   45.3620   35.6770   42.9110 C   0  0  0  0  0  0  0  0  0  0  0  0
   46.5610   35.1010   42.4600 C   0  0  0  0  0  0  0  0  0  0  0  0
   47.1290   34.1170   43.2180 N   0  0  0  0  0  0  0  0  0  0  0  0
   46.5670   33.7000   44.3740 C   0  0  0  0  0  0  0  0  0  0  0  0
   45.4080   34.2420   44.8290 N   0  0  0  0  0  0  0  0  0  0  0  0
   44.8800   36.4510   42.3490 H   0  0  0  0  0  0  0  0  0  0  0  0
   47.0290   35.4180   41.5390 H   0  0  0  0  0  0  0  0  0  0  0  0
   43.6170   35.7720   44.5960 O   0  0  0  0  0  0  0  0  0  0  0  0
   43.7000   36.7280   44.9500 H   0  0  0  0  0  0  0  0  0  0  0  0
   45.2440   33.0460   46.6310 O   0  0  0  0  0  0  0  0  0  0  0  0
   44.7010   32.3010   46.2700 H   0  0  0  0  0  0  0  0  0  0  0  0
   45.4000   30.5680   46.8620 O   0  0  0  0  0  0  0  0  0  0  0  0
   45.1080   29.6660   47.8610 C   0  0  0  0  0  0  0  0  0  0  0  0
   45.1290   30.0900   48.8610 H   0  0  0  0  0  0  0  0  0  0  0  0
   43.9230   29.5630   47.7100 H   0  0  0  0  0  0  0  0  0  0  0  0
   45.5630   28.2790   47.6300 C   0  0  0  0  0  0  0  0  0  0  0  0
   46.1700   28.1460   46.7050 H   0  0  0  0  0  0  0  0  0  0  0  0
   46.2440   28.0030   48.4650 H   0  0  0  0  0  0  0  0  0  0  0  0
   44.4860   27.3190   47.5120 N   0  0  0  0  0  0  0  0  0  0  0  0
   43.8020   27.5050   46.3370 C   0  0  0  0  0  0  0  0  0  0  0  0
   42.7260   26.7500   45.9080 C   0  0  0  0  0  0  0  0  0  0  0  0
   42.1960   26.9080   44.9820 H   0  0  0  0  0  0  0  0  0  0  0  0
   42.2790   25.7200   46.7040 C   0  0  0  0  0  0  0  0  0  0  0  0
   41.3290   24.9450   46.4740 O   0  0  0  0  0  0  0  0  0  0  0  0
   42.9510   25.5490   47.8430 N   0  0  0  0  0  0  0  0  0  0  0  0
   43.9820   26.3060   48.2060 C   0  0  0  0  0  0  0  0  0  0  0  0
   44.5890   26.1180   49.2830 O   0  0  0  0  0  0  0  0  0  0  0  0
   42.6980   24.7980   48.5190 H   0  0  0  0  0  0  0  0  0  0  0  0
  1 21  1  0  0  0  0
  1  5  1  0  0  0  0
  1  6  1  1  0  0  0
  2  7  1  1  0  0  0
  2  1  1  0  0  0  0
  3  2  1  0  0  0  0
  3  4  1  0  0  0  0
  4  9  1  0  0  0  0
  4  5  1  0  0  0  0
  5 10  1  1  0  0  0
  8  4  1  0  0  0  0
 11 19  1  0  0  0  0
 11 16  1  0  0  0  0
 12 11  2  0  0  0  0
 13 12  1  0  0  0  0
 13 14  2  0  0  0  0
 14 15  1  0  0  0  0
 15 16  2  0  0  0  0
 15  2  1  0  0  0  0
 17 12  1  0  0  0  0
 18 13  1  0  0  0  0
 19 20  1  0  0  0  0
 22 21  1  0  0  0  0
 23  5  1  0  0  0  0
 23 24  1  0  0  0  0
 24 25  1  0  0  0  0
 26 24  1  0  0  0  0
 27 24  1  0  0  0  0
 27 29  1  0  0  0  0
 28 27  1  0  0  0  0
 30 27  1  0  0  0  0
 30 37  1  0  0  0  0
 31 30  1  0  0  0  0
 32 31  2  0  0  0  0
 32 34  1  0  0  0  0
 33 32  1  0  0  0  0
 34 36  1  0  0  0  0
 35 34  2  0  0  0  0
 36 37  1  0  0  0  0
 36 39  1  0  0  0  0
 37 38  2  0  0  0  0
M  END
>  <minimizedAffinity>
-5.75852203

>  <minimizedRMSD>
1.40428424

$$$$
