
 OpenBabel03252506183D

 24 25  0  0  0  0  0  0  0  0999 V2000
   45.1160   35.6510   43.7740 C   0  0  0  0  0  0  0  0  0  0  0  0
   45.0500   35.2500   42.4270 C   0  0  0  0  0  0  0  0  0  0  0  0
   45.3450   33.9320   42.1080 C   0  0  0  0  0  0  0  0  0  0  0  0
   45.6830   33.0960   43.1160 N   0  0  0  0  0  0  0  0  0  0  0  0
   45.7390   33.5020   44.4040 C   0  0  0  0  0  0  0  0  0  0  0  0
   45.4590   34.7630   44.7250 N   0  0  0  0  0  0  0  0  0  0  0  0
   44.7710   36.0030   41.7150 H   0  0  0  0  0  0  0  0  0  0  0  0
   45.2950   33.6230   41.0710 H   0  0  0  0  0  0  0  0  0  0  0  0
   46.1100   32.4970   45.3370 N   0  0  0  0  0  0  0  0  0  0  0  0
   46.7770   32.7780   46.4910 C   0  0  0  0  0  3  0  0  0  0  0  0
   47.1250   31.7800   47.3810 C   0  0  0  0  0  0  0  0  0  0  0  0
   47.6590   32.0600   48.2930 H   0  0  0  0  0  0  0  0  0  0  0  0
   46.7940   30.4700   47.1000 C   0  0  0  0  0  0  0  0  0  0  0  0
   47.1210   29.5870   47.9220 O   0  0  0  0  0  0  0  0  0  0  0  0
   46.1290   30.2360   45.9370 N   0  0  0  0  0  0  0  0  0  0  0  0
   45.7950   31.2170   45.0800 C   0  0  0  0  0  0  0  0  0  0  0  0
   45.1760   30.8370   44.0370 O   0  0  0  0  0  0  0  0  0  0  0  0
   45.9190   29.2020   45.8110 H   0  0  0  0  0  0  0  0  0  0  0  0
   44.8060   37.0470   44.1300 C   0  0  0  0  0  3  0  0  0  0  0  0
   45.5540   37.9870   43.5680 C   0  0  0  0  0  3  0  0  0  0  0  0
   45.2920   39.4210   43.8870 C   0  0  0  0  0  0  0  0  0  0  0  0
   45.7030   40.0160   43.0240 H   0  0  0  0  0  0  0  0  0  0  0  0
   44.2310   39.6310   44.0780 H   0  0  0  0  0  0  0  0  0  0  0  0
   45.8640   39.6890   44.7980 H   0  0  0  0  0  0  0  0  0  0  0  0
  1 19  1  0  0  0  0
  1  6  1  0  0  0  0
  2  1  2  0  0  0  0
  3  2  1  0  0  0  0
  3  4  2  0  0  0  0
  4  5  1  0  0  0  0
  5  6  2  0  0  0  0
  5  9  1  0  0  0  0
  7  2  1  0  0  0  0
  8  3  1  0  0  0  0
  9 10  1  0  0  0  0
 10 11  2  0  0  0  0
 11 12  1  0  0  0  0
 13 11  1  0  0  0  0
 13 14  2  0  0  0  0
 15 13  1  0  0  0  0
 16  9  1  0  0  0  0
 16 15  1  0  0  0  0
 17 16  2  0  0  0  0
 18 15  1  0  0  0  0
 20 21  1  0  0  0  0
 20 19  2  0  0  0  0
 21 23  1  0  0  0  0
 21 24  1  0  0  0  0
 22 21  1  0  0  0  0
M  END
>  <minimizedAffinity>
-3.72790861

>  <minimizedRMSD>
1.50973308

$$$$
