
 OpenBabel03252509193D

 44 47  0  0  1  0  0  0  0  0999 V2000
   48.5350   29.0200   48.2430 C   0  0  1  0  0  0  0  0  0  0  0  0
   48.4840   28.0220   47.1300 C   0  0  0  0  0  0  0  0  0  0  0  0
   49.7910   27.2970   46.8970 C   0  0  0  0  0  0  0  0  0  0  0  0
   50.4480   26.8360   48.1610 C   0  0  0  0  0  0  0  0  0  0  0  0
   50.4200   27.8800   49.2310 C   0  0  0  0  0  0  0  0  0  0  0  0
   50.0050   29.2560   48.6370 C   0  0  2  0  0  0  0  0  0  0  0  0
   48.0510   28.6360   49.1630 H   0  0  0  0  0  0  0  0  0  0  0  0
   47.7350   27.2460   47.4080 H   0  0  0  0  0  0  0  0  0  0  0  0
   48.1650   28.4270   46.1600 H   0  0  0  0  0  0  0  0  0  0  0  0
   49.5730   26.4410   46.2730 H   0  0  0  0  0  0  0  0  0  0  0  0
   50.4600   27.9850   46.3430 H   0  0  0  0  0  0  0  0  0  0  0  0
   51.4780   26.5110   47.9100 H   0  0  0  0  0  0  0  0  0  0  0  0
   49.8990   25.9510   48.5570 H   0  0  0  0  0  0  0  0  0  0  0  0
   49.6270   27.6680   49.9970 H   0  0  0  0  0  0  0  0  0  0  0  0
   51.4150   27.9620   49.6970 H   0  0  0  0  0  0  0  0  0  0  0  0
   50.5840   29.4330   47.7020 H   0  0  0  0  0  0  0  0  0  0  0  0
   46.7730   32.3300   46.5820 C   0  0  0  0  0  0  0  0  0  0  0  0
   46.8080   32.3670   47.9710 C   0  0  0  0  0  0  0  0  0  0  0  0
   47.3550   31.3410   48.6170 C   0  0  0  0  0  0  0  0  0  0  0  0
   47.8870   30.2480   47.9000 C   0  0  0  0  0  0  0  0  0  0  0  0
   47.5780   30.7170   46.1660 S   0  0  0  0  0  0  0  0  0  0  0  0
   46.3980   33.2120   48.5070 H   0  0  0  0  0  0  0  0  0  0  0  0
   47.4590   31.2100   49.6810 H   0  0  0  0  0  0  0  0  0  0  0  0
   44.8040   35.1270   45.1010 C   0  0  0  0  0  0  0  0  0  0  0  0
   45.4010   35.2190   43.8450 C   0  0  0  0  0  0  0  0  0  0  0  0
   46.4490   34.3290   43.5590 C   0  0  0  0  0  0  0  0  0  0  0  0
   46.8190   33.4320   44.5170 N   0  0  0  0  0  0  0  0  0  0  0  0
   46.2180   33.3780   45.7130 C   0  0  0  0  0  0  0  0  0  0  0  0
   45.2040   34.2330   46.0020 N   0  0  0  0  0  0  0  0  0  0  0  0
   43.9920   35.7920   45.3640 H   0  0  0  0  0  0  0  0  0  0  0  0
   45.0960   35.9260   43.1100 H   0  0  0  0  0  0  0  0  0  0  0  0
   46.9660   34.3340   42.6070 H   0  0  0  0  0  0  0  0  0  0  0  0
   50.1460   30.2890   49.6240 C   0  0  0  0  0  0  0  0  0  0  0  0
   49.4360   30.3130   50.6150 O   0  0  0  0  0  0  0  0  0  0  0  0
   51.2200   34.7870   49.6740 H   0  0  0  0  0  0  0  0  0  0  0  0
   51.2090   33.8550   50.1260 N   0  0  0  0  0  0  0  0  0  0  0  0
   50.7140   32.6900   49.6950 C   0  0  0  0  0  0  0  0  0  0  0  0
   50.6630   31.4320   50.2380 C   0  0  0  0  0  0  0  0  0  0  0  0
   51.2720   31.4060   51.5080 C   0  0  0  0  0  0  0  0  0  0  0  0
   51.4290   30.4300   52.3320 O   0  0  0  0  0  0  0  0  0  0  0  0
   51.8170   32.5620   52.0460 N   0  0  0  0  0  0  0  0  0  0  0  0
   51.7480   33.6810   51.3320 C   0  0  0  0  0  0  0  0  0  0  0  0
   52.2750   34.6840   51.9140 O   0  0  0  0  0  0  0  0  0  0  0  0
   52.2600   32.5170   52.9840 H   0  0  0  0  0  0  0  0  0  0  0  0
  1  6  1  0  0  0  0
  1  7  1  1  0  0  0
  2  8  1  0  0  0  0
  2  1  1  0  0  0  0
  3  2  1  0  0  0  0
  3  4  1  0  0  0  0
  4 13  1  0  0  0  0
  4  5  1  0  0  0  0
  5 15  1  0  0  0  0
  5 14  1  0  0  0  0
  6 16  1  6  0  0  0
  6  5  1  0  0  0  0
  6 33  1  0  0  0  0
  9  2  1  0  0  0  0
 10  3  1  0  0  0  0
 11  3  1  0  0  0  0
 12  4  1  0  0  0  0
 17 18  2  0  0  0  0
 18 22  1  0  0  0  0
 18 19  1  0  0  0  0
 19 23  1  0  0  0  0
 20  1  1  0  0  0  0
 20 19  2  0  0  0  0
 21 17  1  0  0  0  0
 21 20  1  0  0  0  0
 24 30  1  0  0  0  0
 24 29  1  0  0  0  0
 25 24  2  0  0  0  0
 26 25  1  0  0  0  0
 26 27  2  0  0  0  0
 27 28  1  0  0  0  0
 28 29  2  0  0  0  0
 28 17  1  0  0  0  0
 31 25  1  0  0  0  0
 32 26  1  0  0  0  0
 33 38  1  0  0  0  0
 33 34  2  0  0  0  0
 35 36  1  0  0  0  0
 36 42  1  0  0  0  0
 37 36  1  0  0  0  0
 37 38  2  0  0  0  0
 38 39  1  0  0  0  0
 39 41  1  0  0  0  0
 39 40  2  0  0  0  0
 41 44  1  0  0  0  0
 42 43  2  0  0  0  0
 42 41  1  0  0  0  0
M  END
>  <minimizedAffinity>
-5.88454819

>  <minimizedRMSD>
2.16401172

$$$$
