
 OpenBabel03242517473D

 44 47  0  0  0  0  0  0  0  0999 V2000
   38.5820   31.7640   41.2240 C   0  0  0  0  0  0  0  0  0  0  0  0
   39.9400   31.6040   40.9050 C   0  0  0  0  0  0  0  0  0  0  0  0
   40.3600   30.3690   40.4580 C   0  0  0  0  0  0  0  0  0  0  0  0
   39.4570   29.3720   40.3460 N   0  0  0  0  0  0  0  0  0  0  0  0
   38.1620   29.5620   40.6610 C   0  0  0  0  0  0  0  0  0  0  0  0
   37.6850   30.7360   41.1010 N   0  0  0  0  0  0  0  0  0  0  0  0
   38.2510   32.7260   41.5720 H   0  0  0  0  0  0  0  0  0  0  0  0
   41.4130   30.2570   40.2150 H   0  0  0  0  0  0  0  0  0  0  0  0
   37.2180   28.4160   40.5130 C   0  0  0  0  0  0  0  0  0  0  0  0
   37.6910   27.5490   40.0290 H   0  0  0  0  0  0  0  0  0  0  0  0
   36.9950   28.0920   41.5540 H   0  0  0  0  0  0  0  0  0  0  0  0
   35.9000   28.8300   39.9320 C   0  0  0  0  0  0  0  0  0  0  0  0
   36.0500   29.8430   39.4970 H   0  0  0  0  0  0  0  0  0  0  0  0
   35.1930   28.9350   40.7710 H   0  0  0  0  0  0  0  0  0  0  0  0
   35.3530   27.9430   38.9490 N   0  0  0  0  0  0  0  0  0  0  0  0
   36.0320   27.1340   38.1040 C   0  0  0  0  0  0  0  0  0  0  0  0
   35.3570   26.3460   37.2230 C   0  0  0  0  0  0  0  0  0  0  0  0
   35.9040   25.6900   36.5370 H   0  0  0  0  0  0  0  0  0  0  0  0
   33.9810   26.3080   37.1220 C   0  0  0  0  0  0  0  0  0  0  0  0
   33.3120   25.5990   36.3270 O   0  0  0  0  0  0  0  0  0  0  0  0
   33.3180   27.1250   37.9770 N   0  0  0  0  0  0  0  0  0  0  0  0
   33.9910   27.9050   38.8500 C   0  0  0  0  0  0  0  0  0  0  0  0
   33.2850   28.6270   39.5990 O   0  0  0  0  0  0  0  0  0  0  0  0
   32.2790   27.1370   37.9450 H   0  0  0  0  0  0  0  0  0  0  0  0
   41.0700   32.9630   41.0770 S   0  0  0  0  0  0  0  0  0  0  0  0
   40.9870   34.0180   39.6700 C   0  0  0  0  0  0  0  0  0  0  0  0
   39.9000   34.0540   38.8030 C   0  0  0  0  0  0  0  0  0  0  0  0
   39.9090   34.9150   37.7130 C   0  0  0  0  0  0  0  0  0  0  0  0
   40.9680   35.7380   37.4640 C   0  0  0  0  0  0  0  0  0  0  0  0
   42.0450   35.6980   38.3300 C   0  0  0  0  0  0  0  0  0  0  0  0
   42.0770   34.8480   39.4380 C   0  0  0  0  0  0  0  0  0  0  0  0
   39.0590   33.4030   38.9980 H   0  0  0  0  0  0  0  0  0  0  0  0
   39.0740   34.9590   37.0260 H   0  0  0  0  0  0  0  0  0  0  0  0
   41.0710   36.4360   36.6520 H   0  0  0  0  0  0  0  0  0  0  0  0
   42.9190   36.3320   38.1830 H   0  0  0  0  0  0  0  0  0  0  0  0
   43.2140   34.8220   40.3310 C   0  0  0  0  0  0  0  0  0  0  0  0
   44.2980   34.0310   40.1690 C   0  0  0  0  0  0  0  0  0  0  0  0
   45.3840   34.0280   41.0500 C   0  0  0  0  0  0  0  0  0  0  0  0
   45.3540   34.8520   42.1140 N   0  0  0  0  0  0  0  0  0  0  0  0
   44.2690   35.6450   42.2780 C   0  0  0  0  0  0  0  0  0  0  0  0
   43.2380   35.6270   41.4140 N   0  0  0  0  0  0  0  0  0  0  0  0
   44.3590   33.3550   39.3260 H   0  0  0  0  0  0  0  0  0  0  0  0
   46.2550   33.4030   40.9340 H   0  0  0  0  0  0  0  0  0  0  0  0
   44.2210   36.3130   43.1210 H   0  0  0  0  0  0  0  0  0  0  0  0
  1  7  1  0  0  0  0
  2 25  1  0  0  0  0
  2  1  2  0  0  0  0
  3  2  1  0  0  0  0
  4  3  2  0  0  0  0
  4  5  1  0  0  0  0
  5  6  2  0  0  0  0
  6  1  1  0  0  0  0
  8  3  1  0  0  0  0
  9  5  1  0  0  0  0
  9 11  1  0  0  0  0
 10  9  1  0  0  0  0
 12  9  1  0  0  0  0
 12 14  1  0  0  0  0
 13 12  1  0  0  0  0
 15 12  1  0  0  0  0
 16 15  1  0  0  0  0
 17 16  2  0  0  0  0
 18 17  1  0  0  0  0
 19 17  1  0  0  0  0
 19 21  1  0  0  0  0
 20 19  2  0  0  0  0
 21 22  1  0  0  0  0
 22 15  1  0  0  0  0
 22 23  2  0  0  0  0
 24 21  1  0  0  0  0
 26 25  1  0  0  0  0
 27 32  1  0  0  0  0
 27 26  2  0  0  0  0
 28 27  1  0  0  0  0
 29 28  2  0  0  0  0
 29 30  1  0  0  0  0
 30 31  2  0  0  0  0
 31 26  1  0  0  0  0
 31 36  1  0  0  0  0
 33 28  1  0  0  0  0
 34 29  1  0  0  0  0
 35 30  1  0  0  0  0
 36 41  1  0  0  0  0
 37 36  2  0  0  0  0
 37 38  1  0  0  0  0
 38 39  2  0  0  0  0
 39 40  1  0  0  0  0
 40 44  1  0  0  0  0
 41 40  2  0  0  0  0
 42 37  1  0  0  0  0
 43 38  1  0  0  0  0
M  END
>  <minimizedAffinity>
-5.40782499

>  <minimizedRMSD>
1.93962193

$$$$
