
 OpenBabel03242517193D

 40 42  0  0  0  0  0  0  0  0999 V2000
   44.5580   35.6080   42.9200 C   0  0  0  0  0  0  0  0  0  0  0  0
   43.7080   34.8190   42.0940 C   0  0  0  0  0  0  0  0  0  0  0  0
   43.8930   33.4450   42.0680 C   0  0  0  0  0  0  0  0  0  0  0  0
   44.8890   32.9400   42.8410 N   0  0  0  0  0  0  0  0  0  0  0  0
   45.6830   33.6840   43.6130 C   0  0  0  0  0  0  0  0  0  0  0  0
   45.5080   35.0230   43.6440 N   0  0  0  0  0  0  0  0  0  0  0  0
   44.3530   36.6700   42.8880 H   0  0  0  0  0  0  0  0  0  0  0  0
   43.2720   32.8220   41.4580 H   0  0  0  0  0  0  0  0  0  0  0  0
   46.7700   33.1810   44.4640 C   0  0  0  0  0  0  0  0  0  0  0  0
   47.6770   33.8010   44.3470 H   0  0  0  0  0  0  0  0  0  0  0  0
   46.9540   32.1100   44.1950 H   0  0  0  0  0  0  0  0  0  0  0  0
   46.3910   33.2650   45.9150 C   0  0  0  0  0  0  0  0  0  0  0  0
   45.5520   34.0190   45.9710 H   0  0  0  0  0  0  0  0  0  0  0  0
   47.2340   33.7160   46.4830 H   0  0  0  0  0  0  0  0  0  0  0  0
   45.9680   32.0050   46.4870 N   0  0  0  0  0  0  0  0  0  0  0  0
   46.1040   30.9110   45.7160 C   0  0  0  0  0  0  0  0  0  0  0  0
   45.7570   29.6370   46.0920 C   0  0  0  0  0  0  0  0  0  0  0  0
   45.8830   28.7980   45.4490 H   0  0  0  0  0  0  0  0  0  0  0  0
   45.2260   29.5010   47.3810 C   0  0  0  0  0  0  0  0  0  0  0  0
   44.8810   28.3590   47.8020 O   0  0  0  0  0  0  0  0  0  0  0  0
   45.1050   30.6100   48.1190 N   0  0  0  0  0  0  0  0  0  0  0  0
   45.4550   31.8470   47.7210 C   0  0  0  0  0  0  0  0  0  0  0  0
   45.3300   32.8720   48.4380 O   0  0  0  0  0  0  0  0  0  0  0  0
   44.7060   30.4820   49.0770 H   0  0  0  0  0  0  0  0  0  0  0  0
   42.6570   35.4690   41.2950 C   0  0  0  0  0  0  0  0  0  0  0  0
   41.4020   35.5610   41.6430 C   0  0  0  0  0  0  0  0  0  0  0  0
   40.3750   36.2310   40.7950 C   0  0  0  0  0  0  0  0  0  0  0  0
   40.7110   37.1700   40.3500 H   0  0  0  0  0  0  0  0  0  0  0  0
   39.5460   36.5010   41.5010 H   0  0  0  0  0  0  0  0  0  0  0  0
   41.2510   36.1960   38.1380 F   0  0  0  0  0  0  0  0  0  0  0  0
   40.2790   35.3360   38.4880 C   0  0  0  0  0  0  0  0  0  0  0  0
   39.8140   35.3200   39.7990 C   0  0  0  0  0  0  0  0  0  0  0  0
   38.8160   34.3940   40.0330 C   0  0  0  0  0  0  0  0  0  0  0  0
   38.2660   33.5250   39.1230 C   0  0  0  0  0  0  0  0  0  0  0  0
   38.7960   33.6100   37.8260 C   0  0  0  0  0  0  0  0  0  0  0  0
   39.7900   34.4980   37.4930 C   0  0  0  0  0  0  0  0  0  0  0  0
   38.4320   34.3590   41.0530 H   0  0  0  0  0  0  0  0  0  0  0  0
   37.4900   32.8430   39.4170 H   0  0  0  0  0  0  0  0  0  0  0  0
   38.3830   32.9360   37.0830 H   0  0  0  0  0  0  0  0  0  0  0  0
   40.1830   34.5440   36.4810 H   0  0  0  0  0  0  0  0  0  0  0  0
  1  6  1  0  0  0  0
  2  1  2  0  0  0  0
  3  2  1  0  0  0  0
  3  4  2  0  0  0  0
  4  5  1  0  0  0  0
  5  6  2  0  0  0  0
  5  9  1  0  0  0  0
  7  1  1  0  0  0  0
  8  3  1  0  0  0  0
  9 12  1  0  0  0  0
 10  9  1  0  0  0  0
 11  9  1  0  0  0  0
 12 13  1  0  0  0  0
 12 14  1  0  0  0  0
 12 15  1  0  0  0  0
 15 22  1  0  0  0  0
 16 17  2  0  0  0  0
 16 15  1  0  0  0  0
 17 19  1  0  0  0  0
 18 17  1  0  0  0  0
 19 20  2  0  0  0  0
 19 21  1  0  0  0  0
 21 24  1  0  0  0  0
 22 21  1  0  0  0  0
 22 23  2  0  0  0  0
 25 26  2  0  0  0  0
 25  2  1  0  0  0  0
 27 29  1  0  0  0  0
 27 26  1  0  0  0  0
 28 27  1  0  0  0  0
 30 31  1  0  0  0  0
 31 32  1  0  0  0  0
 32 33  2  0  0  0  0
 32 27  1  0  0  0  0
 33 37  1  0  0  0  0
 34 38  1  0  0  0  0
 34 33  1  0  0  0  0
 35 34  2  0  0  0  0
 36 35  1  0  0  0  0
 36 31  2  0  0  0  0
 39 35  1  0  0  0  0
 40 36  1  0  0  0  0
M  END
>  <minimizedAffinity>
-6.82759476

>  <minimizedRMSD>
1.07016945

$$$$
