
 OpenBabel03252507073D

 25 26  0  0  0  0  0  0  0  0999 V2000
   44.9070   35.1400   44.5930 C   0  0  0  0  0  0  0  0  0  0  0  0
   45.5730   35.5250   43.3960 C   0  0  0  0  0  0  0  0  0  0  0  0
   46.2840   34.5450   42.7140 C   0  0  0  0  0  0  0  0  0  0  0  0
   46.3100   33.2710   43.2190 N   0  0  0  0  0  0  0  0  0  0  0  0
   45.6620   32.9480   44.3640 C   0  0  0  0  0  0  0  0  0  0  0  0
   44.9640   33.8780   45.0450 N   0  0  0  0  0  0  0  0  0  0  0  0
   44.3480   35.8720   45.1450 H   0  0  0  0  0  0  0  0  0  0  0  0
   45.4910   36.5630   43.0780 H   0  0  0  0  0  0  0  0  0  0  0  0
   45.8450   31.5710   44.6700 N   0  0  0  0  0  0  0  0  0  0  0  0
   44.8490   30.7300   44.3290 C   0  0  0  0  0  3  0  0  0  0  0  0
   45.0170   29.3720   44.6260 C   0  0  0  0  0  0  0  0  0  0  0  0
   44.2310   28.6880   44.3590 H   0  0  0  0  0  0  0  0  0  0  0  0
   46.1860   28.9840   45.2450 C   0  0  0  0  0  0  0  0  0  0  0  0
   46.3440   27.7600   45.5150 O   0  0  0  0  0  0  0  0  0  0  0  0
   47.1560   29.8600   45.5690 N   0  0  0  0  0  0  0  0  0  0  0  0
   46.9770   31.1680   45.2760 C   0  0  0  0  0  0  0  0  0  0  0  0
   47.9080   31.9510   45.5950 O   0  0  0  0  0  0  0  0  0  0  0  0
   48.0260   29.5020   46.0410 H   0  0  0  0  0  0  0  0  0  0  0  0
   46.9350   34.9140   41.5470 O   0  0  0  0  0  0  0  0  0  0  0  0
   48.9890   33.4350   40.7550 O   0  0  0  0  0  0  0  0  0  0  0  0
   48.6410   34.7570   41.4480 P   0  0  0  0  0  0  0  0  0  0  0  0
   49.2500   36.0700   40.6220 O   0  0  0  0  0  0  0  0  0  0  0  0
   49.1870   35.8620   39.6540 H   0  0  0  0  0  0  0  0  0  0  0  0
   49.2290   34.6590   43.0360 O   0  0  0  0  0  0  0  0  0  0  0  0
   49.2420   35.5900   43.3830 H   0  0  0  0  0  0  0  0  0  0  0  0
  1  6  1  0  0  0  0
  1  7  1  0  0  0  0
  2  1  2  0  0  0  0
  3  4  2  0  0  0  0
  3  2  1  0  0  0  0
  4  5  1  0  0  0  0
  5  9  1  0  0  0  0
  5  6  2  0  0  0  0
  8  2  1  0  0  0  0
  9 16  1  0  0  0  0
 10 11  2  0  0  0  0
 10  9  1  0  0  0  0
 11 13  1  0  0  0  0
 12 11  1  0  0  0  0
 13 14  2  0  0  0  0
 13 15  1  0  0  0  0
 15 18  1  0  0  0  0
 16 15  1  0  0  0  0
 16 17  2  0  0  0  0
 19  3  1  0  0  0  0
 20 21  2  0  0  0  0
 21 19  1  0  0  0  0
 21 24  1  0  0  0  0
 22 21  1  0  0  0  0
 23 22  1  0  0  0  0
 24 25  1  0  0  0  0
M  END
>  <minimizedAffinity>
-3.63642383

>  <minimizedRMSD>
1.6970799

$$$$
