
 OpenBabel03252504323D

 41 43  0  0  0  0  0  0  0  0999 V2000
   41.1400   35.2240   41.2470 C   0  0  0  0  0  0  0  0  0  0  0  0
   41.2400   35.3540   42.3610 H   0  0  0  0  0  0  0  0  0  0  0  0
   40.4800   36.0520   40.9200 H   0  0  0  0  0  0  0  0  0  0  0  0
   40.9430   32.8160   41.5690 C   0  0  0  0  0  0  0  0  0  0  0  0
   40.3050   33.9880   41.1180 C   0  0  0  0  0  0  0  0  0  0  0  0
   39.0430   33.8950   40.6430 C   0  0  0  0  0  0  0  0  0  0  0  0
   38.4930   32.6810   40.6410 N   0  0  0  0  0  0  0  0  0  0  0  0
   39.0750   31.5630   41.0610 C   0  0  0  0  0  0  0  0  0  0  0  0
   40.3780   31.5980   41.5610 N   0  0  0  0  0  0  0  0  0  0  0  0
   41.9520   32.8210   41.9600 H   0  0  0  0  0  0  0  0  0  0  0  0
   38.5940   34.7990   40.3110 H   0  0  0  0  0  0  0  0  0  0  0  0
   38.4530   30.2790   41.0420 N   0  0  0  0  0  0  0  0  0  0  0  0
   37.5830   29.9770   40.0530 C   0  0  0  0  0  0  0  0  0  0  0  0
   37.0120   28.7230   40.0850 C   0  0  0  0  0  0  0  0  0  0  0  0
   36.2970   28.3800   39.3340 H   0  0  0  0  0  0  0  0  0  0  0  0
   37.3080   27.7950   41.0880 C   0  0  0  0  0  0  0  0  0  0  0  0
   36.8070   26.6430   41.1520 O   0  0  0  0  0  0  0  0  0  0  0  0
   38.1900   28.1600   42.0540 N   0  0  0  0  0  0  0  0  0  0  0  0
   38.7490   29.3830   42.0260 C   0  0  0  0  0  0  0  0  0  0  0  0
   39.5740   29.7570   42.9070 O   0  0  0  0  0  0  0  0  0  0  0  0
   38.4710   27.5300   42.8440 H   0  0  0  0  0  0  0  0  0  0  0  0
   42.2910   35.1860   40.5260 O   0  0  0  0  0  0  0  0  0  0  0  0
   43.5880   35.3100   40.9920 C   0  0  0  0  0  0  0  0  0  0  0  0
   43.7420   35.3740   42.3110 C   0  0  0  0  0  0  0  0  0  0  0  0
   45.0620   35.5070   43.0460 C   0  0  0  0  0  0  0  0  0  0  0  0
   45.3430   36.5550   43.2040 H   0  0  0  0  0  0  0  0  0  0  0  0
   45.8040   35.0430   42.3340 H   0  0  0  0  0  0  0  0  0  0  0  0
   44.9780   34.7360   44.1880 O   0  0  0  0  0  0  0  0  0  0  0  0
   45.7320   32.5760   42.8250 O   0  0  0  0  0  0  0  0  0  0  0  0
   45.9770   33.3830   44.0790 P   0  0  1  0  0  0  0  0  0  0  0  0
   47.6140   33.8670   44.0460 O   0  0  0  0  0  0  0  0  0  0  0  0
   47.6720   34.8340   44.2590 H   0  0  0  0  0  0  0  0  0  0  0  0
   45.7900   32.4060   45.4410 O   0  0  0  0  0  0  0  0  0  0  0  0
   46.1420   33.0510   46.6070 C   0  0  0  0  0  0  0  0  0  0  0  0
   47.0520   32.3760   47.5820 C   0  0  0  0  0  0  0  0  0  0  0  0
   45.5640   32.4640   47.8660 C   0  0  0  0  0  0  0  0  0  0  0  0
   46.1620   34.1550   46.5370 H   0  0  0  0  0  0  0  0  0  0  0  0
   47.6550   33.0570   48.2010 H   0  0  0  0  0  0  0  0  0  0  0  0
   47.4980   31.4290   47.2890 H   0  0  0  0  0  0  0  0  0  0  0  0
   45.0660   31.4660   47.8350 H   0  0  0  0  0  0  0  0  0  0  0  0
   45.2150   33.1230   48.6840 H   0  0  0  0  0  0  0  0  0  0  0  0
  1  2  1  0  0  0  0
  3  1  1  0  0  0  0
  4 10  1  0  0  0  0
  5  1  1  0  0  0  0
  5  4  2  0  0  0  0
  6  5  1  0  0  0  0
  7  6  2  0  0  0  0
  7  8  1  0  0  0  0
  8  9  2  0  0  0  0
  9  4  1  0  0  0  0
 11  6  1  0  0  0  0
 12  8  1  0  0  0  0
 12 19  1  0  0  0  0
 13 14  2  0  0  0  0
 13 12  1  0  0  0  0
 14 16  1  0  0  0  0
 15 14  1  0  0  0  0
 16 17  2  0  0  0  0
 16 18  1  0  0  0  0
 18 21  1  0  0  0  0
 19 18  1  0  0  0  0
 19 20  2  0  0  0  0
 22 23  1  0  0  0  0
 22  1  1  0  0  0  0
 23 24  2  0  0  0  0
 24 25  1  0  0  0  0
 25 26  1  0  0  0  0
 25 28  1  0  0  0  0
 27 25  1  0  0  0  0
 30 29  2  6  0  0  0
 30 28  1  0  0  0  0
 30 33  1  0  0  0  0
 31 30  1  0  0  0  0
 31 32  1  0  0  0  0
 33 34  1  0  0  0  0
 34 35  1  0  0  0  0
 34 36  1  0  0  0  0
 35 36  1  0  0  0  0
 35 38  1  0  0  0  0
 36 41  1  0  0  0  0
 37 34  1  0  0  0  0
 39 35  1  0  0  0  0
 40 36  1  0  0  0  0
M  END
>  <minimizedAffinity>
-5.64103889

>  <minimizedRMSD>
1.60566294

$$$$
