
 OpenBabel03242511333D

 36 38  0  0  1  0  0  0  0  0999 V2000
   48.4390   32.1470   42.1440 C   0  0  0  0  0  0  0  0  0  0  0  0
   48.3500   33.3320   42.7360 C   0  0  0  0  0  0  0  0  0  0  0  0
   49.3680   31.9930   41.0390 C   0  0  0  0  0  0  0  0  0  0  0  0
   50.6680   31.5770   41.3440 C   0  0  0  0  0  0  0  0  0  0  0  0
   51.6010   31.4160   40.2970 C   0  0  0  0  0  0  0  0  0  0  0  0
   51.1830   31.6780   39.0230 N   0  0  0  0  0  0  0  0  0  0  0  0
   49.9250   32.0750   38.7740 C   0  0  0  0  0  0  0  0  0  0  0  0
   49.0650   32.2200   39.7670 N   0  0  0  0  0  0  0  0  0  0  0  0
   51.0420   31.3580   42.3490 H   0  0  0  0  0  0  0  0  0  0  0  0
   52.6210   31.0940   40.4910 H   0  0  0  0  0  0  0  0  0  0  0  0
   49.4100   32.3680   37.4820 N   0  0  0  0  0  0  0  0  0  0  0  0
   49.7740   31.4200   36.5820 C   0  0  0  0  0  0  0  0  0  0  0  0
   49.3960   31.4810   35.2580 C   0  0  0  0  0  0  0  0  0  0  0  0
   49.6600   30.7570   34.5110 H   0  0  0  0  0  0  0  0  0  0  0  0
   48.6150   32.5620   34.8640 C   0  0  0  0  0  0  0  0  0  0  0  0
   48.2460   32.6640   33.6760 O   0  0  0  0  0  0  0  0  0  0  0  0
   48.2740   33.4820   35.7920 N   0  0  0  0  0  0  0  0  0  0  0  0
   48.6590   33.3940   37.0750 C   0  0  0  0  0  0  0  0  0  0  0  0
   48.3820   34.2070   37.9850 O   0  0  0  0  0  0  0  0  0  0  0  0
   47.6830   34.3190   35.5390 H   0  0  0  0  0  0  0  0  0  0  0  0
   47.4400   33.5880   43.8640 C   0  0  0  0  0  0  0  0  0  0  0  0
   47.8380   34.3580   44.5690 H   0  0  0  0  0  0  0  0  0  0  0  0
   47.2670   32.6240   44.3920 H   0  0  0  0  0  0  0  0  0  0  0  0
   44.8310   36.0200   43.2770 C   0  0  1  0  0  0  0  0  0  0  0  0
   46.0870   35.3550   42.6910 C   0  0  0  0  0  0  0  0  0  0  0  0
   46.0590   34.0400   43.3860 C   0  0  2  0  0  0  0  0  0  0  0  0
   45.1410   34.0710   44.3890 O   0  0  0  0  0  0  0  0  0  0  0  0
   44.7930   35.3840   44.6500 C   0  0  0  0  0  0  0  0  0  0  0  0
   43.9360   35.7660   42.6880 H   0  0  0  0  0  0  0  0  0  0  0  0
   45.9290   35.2050   41.5880 H   0  0  0  0  0  0  0  0  0  0  0  0
   46.9850   35.9430   42.9230 H   0  0  0  0  0  0  0  0  0  0  0  0
   45.7430   33.2300   42.6700 H   0  0  0  0  0  0  0  0  0  0  0  0
   45.5730   35.8420   45.2730 H   0  0  0  0  0  0  0  0  0  0  0  0
   43.7970   35.5080   45.0790 H   0  0  0  0  0  0  0  0  0  0  0  0
   44.9970   37.3980   43.3410 O   0  0  0  0  0  0  0  0  0  0  0  0
   45.5390   37.6260   44.1340 H   0  0  0  0  0  0  0  0  0  0  0  0
  1  2  2  0  0  0  0
  2 21  1  0  0  0  0
  3  4  1  0  0  0  0
  3  1  1  0  0  0  0
  4  9  1  0  0  0  0
  5 10  1  0  0  0  0
  5  4  2  0  0  0  0
  6  5  1  0  0  0  0
  7  6  2  0  0  0  0
  7  8  1  0  0  0  0
  8  3  2  0  0  0  0
 11  7  1  0  0  0  0
 12 11  1  0  0  0  0
 13 12  2  0  0  0  0
 14 13  1  0  0  0  0
 15 13  1  0  0  0  0
 15 17  1  0  0  0  0
 16 15  2  0  0  0  0
 17 18  1  0  0  0  0
 18 11  1  0  0  0  0
 18 19  2  0  0  0  0
 20 17  1  0  0  0  0
 21 23  1  0  0  0  0
 21 22  1  0  0  0  0
 24 29  1  6  0  0  0
 24 35  1  0  0  0  0
 24 28  1  0  0  0  0
 25 31  1  0  0  0  0
 25 24  1  0  0  0  0
 25 26  1  0  0  0  0
 26 32  1  6  0  0  0
 26 21  1  0  0  0  0
 26 27  1  0  0  0  0
 27 28  1  0  0  0  0
 28 34  1  0  0  0  0
 28 33  1  0  0  0  0
 30 25  1  0  0  0  0
 35 36  1  0  0  0  0
M  END
>  <minimizedAffinity>
-5.75286102

>  <minimizedRMSD>
0.986224651

$$$$
