
 OpenBabel03252503023D

 34 35  0  0  0  0  0  0  0  0999 V2000
   45.2170   34.2200   40.9660 C   0  0  0  0  0  0  0  0  0  0  0  0
   44.0990   33.5170   40.5290 C   0  0  0  0  0  0  0  0  0  0  0  0
   43.4400   32.6100   41.3540 C   0  0  0  0  0  0  0  0  0  0  0  0
   43.9430   32.4430   42.6110 N   0  0  0  0  0  0  0  0  0  0  0  0
   45.0150   33.1290   43.0060 C   0  0  0  0  0  0  0  0  0  0  0  0
   45.6670   34.0040   42.2370 N   0  0  0  0  0  0  0  0  0  0  0  0
   45.6640   34.8990   40.2650 H   0  0  0  0  0  0  0  0  0  0  0  0
   42.5730   32.0590   41.0270 H   0  0  0  0  0  0  0  0  0  0  0  0
   45.6160   33.0210   44.3070 N   0  0  0  0  0  0  0  0  0  0  0  0
   46.3500   31.9050   44.4690 C   0  0  0  0  0  3  0  0  0  0  0  0
   46.9620   31.7380   45.7140 C   0  0  0  0  0  0  0  0  0  0  0  0
   47.5850   30.8630   45.9550 H   0  0  0  0  0  0  0  0  0  0  0  0
   46.7680   32.7270   46.6800 C   0  0  0  0  0  0  0  0  0  0  0  0
   47.3220   32.5690   47.7950 O   0  0  0  0  0  0  0  0  0  0  0  0
   46.0190   33.8340   46.4690 N   0  0  0  0  0  0  0  0  0  0  0  0
   45.4420   33.9620   45.2530 C   0  0  0  0  0  0  0  0  0  0  0  0
   44.7300   34.9510   44.9620 O   0  0  0  0  0  0  0  0  0  0  0  0
   45.8930   34.5540   47.2090 H   0  0  0  0  0  0  0  0  0  0  0  0
   43.4860   33.7890   38.8450 S   0  0  0  0  0  0  0  0  0  0  0  0
   42.3350   35.1670   38.8480 C   0  0  0  0  0  0  0  0  0  0  0  0
   42.8810   36.0790   38.5520 H   0  0  0  0  0  0  0  0  0  0  0  0
   41.8410   35.2640   39.8560 H   0  0  0  0  0  0  0  0  0  0  0  0
   41.2600   34.8250   37.9140 N   0  0  0  0  0  0  0  0  0  0  0  0
   41.0470   35.6910   37.3740 H   0  0  0  0  0  0  0  0  0  0  0  0
   39.8560   34.2500   38.7180 S   0  0  0  0  0  0  0  0  0  0  0  0
   40.0480   32.8860   39.2950 O   0  0  0  0  0  0  0  0  0  0  0  0
   40.2400   32.0820   38.7460 H   0  0  0  0  0  0  0  0  0  0  0  0
   39.5810   35.2560   39.8220 O   0  0  0  0  0  0  0  0  0  0  0  0
   39.8940   35.1180   40.7480 H   0  0  0  0  0  0  0  0  0  0  0  0
   38.5470   34.3030   37.6820 O   0  0  0  0  0  0  0  0  0  0  0  0
   38.0850   33.0400   37.3670 C   0  0  0  0  0  0  0  0  0  0  0  0
   38.6350   32.7060   36.4670 H   0  0  0  0  0  0  0  0  0  0  0  0
   38.1820   32.3410   38.2300 H   0  0  0  0  0  0  0  0  0  0  0  0
   37.0080   33.1060   37.0990 H   0  0  0  0  0  0  0  0  0  0  0  0
  1  6  1  0  0  0  0
  2  1  2  0  0  0  0
  2  3  1  0  0  0  0
  3  4  2  0  0  0  0
  4  5  1  0  0  0  0
  5  9  1  0  0  0  0
  6  5  2  0  0  0  0
  7  1  1  0  0  0  0
  8  3  1  0  0  0  0
  9 10  1  0  0  0  0
  9 16  1  0  0  0  0
 10 11  2  0  0  0  0
 11 12  1  0  0  0  0
 11 13  1  0  0  0  0
 13 14  2  0  0  0  0
 15 13  1  0  0  0  0
 15 18  1  0  0  0  0
 16 15  1  0  0  0  0
 17 16  2  0  0  0  0
 19 20  1  0  0  0  0
 19  2  1  0  0  0  0
 20 22  1  0  0  0  0
 21 20  1  0  0  0  0
 23 25  1  0  0  0  0
 23 20  1  0  0  0  0
 24 23  1  0  0  0  0
 25 26  1  0  0  0  0
 25 28  1  0  0  0  0
 27 26  1  0  0  0  0
 28 29  1  0  0  0  0
 30 25  1  0  0  0  0
 31 30  1  0  0  0  0
 31 33  1  0  0  0  0
 32 31  1  0  0  0  0
 34 31  1  0  0  0  0
M  END
>  <minimizedAffinity>
-5.12268257

>  <minimizedRMSD>
9.23655701

$$$$
