
 OpenBabel03252502453D

 32 34  0  0  1  0  0  0  0  0999 V2000
   38.1040   29.2730   43.0940 C   0  0  1  0  0  0  0  0  0  0  0  0
   39.5230   29.4860   42.6690 C   0  0  0  0  0  0  0  0  0  0  0  0
   38.4510   29.3210   41.6690 C   0  0  2  0  0  0  0  0  0  0  0  0
   37.5570   30.0980   43.6300 H   0  0  0  0  0  0  0  0  0  0  0  0
   40.3230   28.7490   42.8660 H   0  0  0  0  0  0  0  0  0  0  0  0
   39.9030   30.5010   42.9170 H   0  0  0  0  0  0  0  0  0  0  0  0
   38.3010   28.6170   40.8850 H   0  0  0  0  0  0  0  0  0  0  0  0
   38.0140   30.6090   41.0870 N   0  0  0  0  0  0  0  0  0  0  0  0
   39.0360   31.4860   40.9660 C   0  0  0  0  0  3  0  0  0  0  0  0
   38.7790   32.7350   40.4360 C   0  0  0  0  0  0  0  0  0  0  0  0
   39.5980   33.4450   40.3360 H   0  0  0  0  0  0  0  0  0  0  0  0
   37.4900   33.0170   40.0610 C   0  0  0  0  0  0  0  0  0  0  0  0
   37.2920   34.1610   39.5840 O   0  0  0  0  0  0  0  0  0  0  0  0
   36.5350   32.0740   40.2210 N   0  0  0  0  0  0  0  0  0  0  0  0
   36.7630   30.8580   40.7320 C   0  0  0  0  0  0  0  0  0  0  0  0
   35.8900   29.9930   40.8800 O   0  0  0  0  0  0  0  0  0  0  0  0
   35.5730   32.3460   39.9170 H   0  0  0  0  0  0  0  0  0  0  0  0
   37.7680   27.9380   43.6800 C   0  0  0  0  0  0  0  0  0  0  0  0
   37.3250   27.9770   44.6740 H   0  0  0  0  0  0  0  0  0  0  0  0
   38.7700   27.3990   43.6900 H   0  0  0  0  0  0  0  0  0  0  0  0
   36.9170   27.2440   42.6340 C   0  0  0  0  0  0  0  0  0  0  0  0
   35.8680   27.1500   42.8710 H   0  0  0  0  0  0  0  0  0  0  0  0
   37.1380   27.7910   41.6630 H   0  0  0  0  0  0  0  0  0  0  0  0
   37.5560   23.7450   41.4250 C   0  0  0  0  0  0  0  0  0  0  0  0
   36.8560   24.9460   41.7420 C   0  0  0  0  0  0  0  0  0  0  0  0
   37.6030   25.9860   42.2280 C   0  0  0  0  0  0  0  0  0  0  0  0
   38.9500   25.8390   42.3820 N   0  0  0  0  0  0  0  0  0  0  0  0
   39.5760   24.7150   42.0800 C   0  0  0  0  0  0  0  0  0  0  0  0
   38.8840   23.6750   41.6040 N   0  0  0  0  0  0  0  0  0  0  0  0
   37.0380   22.8750   41.0370 H   0  0  0  0  0  0  0  0  0  0  0  0
   35.8020   24.8700   41.5390 H   0  0  0  0  0  0  0  0  0  0  0  0
   40.6470   24.6290   42.2130 H   0  0  0  0  0  0  0  0  0  0  0  0
  1  4  1  1  0  0  0
  1 18  1  0  0  0  0
  2  5  1  0  0  0  0
  2  6  1  0  0  0  0
  2  1  1  0  0  0  0
  3  7  1  6  0  0  0
  3  2  1  0  0  0  0
  3  1  1  0  0  0  0
  8  3  1  0  0  0  0
  9  8  1  0  0  0  0
 10  9  2  0  0  0  0
 11 10  1  0  0  0  0
 12 14  1  0  0  0  0
 12 10  1  0  0  0  0
 13 12  2  0  0  0  0
 14 15  1  0  0  0  0
 15 16  2  0  0  0  0
 15  8  1  0  0  0  0
 17 14  1  0  0  0  0
 18 20  1  0  0  0  0
 18 19  1  0  0  0  0
 21 22  1  0  0  0  0
 21 18  1  0  0  0  0
 23 21  1  0  0  0  0
 24 29  2  0  0  0  0
 24 25  1  0  0  0  0
 25 26  2  0  0  0  0
 26 27  1  0  0  0  0
 26 21  1  0  0  0  0
 28 32  1  0  0  0  0
 28 27  2  0  0  0  0
 29 28  1  0  0  0  0
 30 24  1  0  0  0  0
 31 25  1  0  0  0  0
M  END
>  <minimizedAffinity>
-5.42489529

$$$$

 OpenBabel03252502453D

 32 34  0  0  1  0  0  0  0  0999 V2000
   36.8020   28.8460   40.4460 C   0  0  1  0  0  0  0  0  0  0  0  0
   35.6040   29.7270   40.2870 C   0  0  0  0  0  0  0  0  0  0  0  0
   36.5820   29.9690   41.3640 C   0  0  2  0  0  0  0  0  0  0  0  0
   37.5950   28.8400   39.6470 H   0  0  0  0  0  0  0  0  0  0  0  0
   34.5700   29.3640   40.4400 H   0  0  0  0  0  0  0  0  0  0  0  0
   35.6330   30.3380   39.3580 H   0  0  0  0  0  0  0  0  0  0  0  0
   36.4910   30.0030   42.4230 H   0  0  0  0  0  0  0  0  0  0  0  0
   37.5160   31.0710   41.0450 N   0  0  0  0  0  0  0  0  0  0  0  0
   36.9980   31.9330   40.1430 C   0  0  0  0  0  3  0  0  0  0  0  0
   37.7570   33.0160   39.7470 C   0  0  0  0  0  0  0  0  0  0  0  0
   37.3450   33.7140   39.0200 H   0  0  0  0  0  0  0  0  0  0  0  0
   39.0070   33.1550   40.2970 C   0  0  0  0  0  0  0  0  0  0  0  0
   39.6700   34.1500   39.9150 O   0  0  0  0  0  0  0  0  0  0  0  0
   39.4380   32.2400   41.1930 N   0  0  0  0  0  0  0  0  0  0  0  0
   38.7180   31.1840   41.5900 C   0  0  0  0  0  0  0  0  0  0  0  0
   39.1110   30.3450   42.4110 O   0  0  0  0  0  0  0  0  0  0  0  0
   40.3970   32.3990   41.5780 H   0  0  0  0  0  0  0  0  0  0  0  0
   36.5610   27.4660   40.9710 C   0  0  0  0  0  0  0  0  0  0  0  0
   37.0820   26.6770   40.4300 H   0  0  0  0  0  0  0  0  0  0  0  0
   35.4320   27.3500   40.8910 H   0  0  0  0  0  0  0  0  0  0  0  0
   36.8820   27.5370   42.4510 C   0  0  0  0  0  0  0  0  0  0  0  0
   37.0270   28.5300   42.8510 H   0  0  0  0  0  0  0  0  0  0  0  0
   36.0640   26.9350   42.9600 H   0  0  0  0  0  0  0  0  0  0  0  0
   40.0820   26.0000   43.6770 C   0  0  0  0  0  0  0  0  0  0  0  0
   39.0500   26.9620   43.4750 C   0  0  0  0  0  0  0  0  0  0  0  0
   37.9620   26.5570   42.7460 C   0  0  0  0  0  0  0  0  0  0  0  0
   37.9090   25.2840   42.2600 N   0  0  0  0  0  0  0  0  0  0  0  0
   38.8790   24.4100   42.4620 C   0  0  0  0  0  0  0  0  0  0  0  0
   39.9580   24.7650   43.1660 N   0  0  0  0  0  0  0  0  0  0  0  0
   40.9760   26.2400   44.2420 H   0  0  0  0  0  0  0  0  0  0  0  0
   39.2700   27.9030   43.9480 H   0  0  0  0  0  0  0  0  0  0  0  0
   38.8080   23.4060   42.0630 H   0  0  0  0  0  0  0  0  0  0  0  0
  1  4  1  6  0  0  0
  1 18  1  0  0  0  0
  1  3  1  0  0  0  0
  2  5  1  0  0  0  0
  2  1  1  0  0  0  0
  2  3  1  0  0  0  0
  3  7  1  1  0  0  0
  6  2  1  0  0  0  0
  8  3  1  0  0  0  0
  8 15  1  0  0  0  0
  9  8  1  0  0  0  0
 10  9  2  0  0  0  0
 10 12  1  0  0  0  0
 11 10  1  0  0  0  0
 12 14  1  0  0  0  0
 13 12  2  0  0  0  0
 14 17  1  0  0  0  0
 14 15  1  0  0  0  0
 15 16  2  0  0  0  0
 18 21  1  0  0  0  0
 19 18  1  0  0  0  0
 20 18  1  0  0  0  0
 21 26  1  0  0  0  0
 21 22  1  0  0  0  0
 21 23  1  0  0  0  0
 24 30  1  0  0  0  0
 25 24  1  0  0  0  0
 25 31  1  0  0  0  0
 26 25  2  0  0  0  0
 27 28  2  0  0  0  0
 27 26  1  0  0  0  0
 28 29  1  0  0  0  0
 29 24  2  0  0  0  0
 32 28  1  0  0  0  0
M  END
>  <minimizedAffinity>
-5.11187267

$$$$

 OpenBabel03252502453D

 32 34  0  0  1  0  0  0  0  0999 V2000
   38.2910   28.1190   42.0170 C   0  0  1  0  0  0  0  0  0  0  0  0
   39.6550   27.7310   42.4940 C   0  0  0  0  0  0  0  0  0  0  0  0
   38.4540   27.0310   42.9900 C   0  0  2  0  0  0  0  0  0  0  0  0
   38.0140   27.9540   40.9390 H   0  0  0  0  0  0  0  0  0  0  0  0
   40.2910   28.4030   43.1000 H   0  0  0  0  0  0  0  0  0  0  0  0
   40.2800   27.2700   41.6980 H   0  0  0  0  0  0  0  0  0  0  0  0
   38.0530   26.8960   43.9660 H   0  0  0  0  0  0  0  0  0  0  0  0
   38.2420   25.7260   42.3260 N   0  0  0  0  0  0  0  0  0  0  0  0
   37.2680   25.7820   41.3910 C   0  0  0  0  0  3  0  0  0  0  0  0
   36.9580   24.6360   40.6870 C   0  0  0  0  0  0  0  0  0  0  0  0
   36.1740   24.6750   39.9320 H   0  0  0  0  0  0  0  0  0  0  0  0
   37.6630   23.4960   40.9800 C   0  0  0  0  0  0  0  0  0  0  0  0
   37.3560   22.4730   40.3220 O   0  0  0  0  0  0  0  0  0  0  0  0
   38.6210   23.5390   41.9330 N   0  0  0  0  0  0  0  0  0  0  0  0
   38.9370   24.6390   42.6270 C   0  0  0  0  0  0  0  0  0  0  0  0
   39.8130   24.6810   43.5000 O   0  0  0  0  0  0  0  0  0  0  0  0
   39.1240   22.6410   42.1110 H   0  0  0  0  0  0  0  0  0  0  0  0
   37.7460   29.4190   42.5170 C   0  0  0  0  0  0  0  0  0  0  0  0
   38.4920   30.0940   42.9340 H   0  0  0  0  0  0  0  0  0  0  0  0
   36.9880   29.0980   43.3030 H   0  0  0  0  0  0  0  0  0  0  0  0
   36.9490   29.9910   41.3610 C   0  0  0  0  0  0  0  0  0  0  0  0
   36.7070   29.2970   40.5700 H   0  0  0  0  0  0  0  0  0  0  0  0
   36.0520   30.4960   41.8410 H   0  0  0  0  0  0  0  0  0  0  0  0
   37.5880   33.2880   39.6770 C   0  0  0  0  0  0  0  0  0  0  0  0
   36.9030   32.1140   40.1070 C   0  0  0  0  0  0  0  0  0  0  0  0
   37.5920   31.2620   40.9290 C   0  0  0  0  0  0  0  0  0  0  0  0
   38.8710   31.5630   41.2980 N   0  0  0  0  0  0  0  0  0  0  0  0
   39.4840   32.6590   40.8870 C   0  0  0  0  0  0  0  0  0  0  0  0
   38.8470   33.5160   40.0820 N   0  0  0  0  0  0  0  0  0  0  0  0
   37.1140   34.0120   39.0250 H   0  0  0  0  0  0  0  0  0  0  0  0
   35.8990   32.0620   39.7220 H   0  0  0  0  0  0  0  0  0  0  0  0
   40.5000   32.8700   41.1960 H   0  0  0  0  0  0  0  0  0  0  0  0
  1  4  1  6  0  0  0
  1  2  1  0  0  0  0
  1 18  1  0  0  0  0
  1  3  1  0  0  0  0
  2  3  1  0  0  0  0
  2  5  1  0  0  0  0
  3  7  1  1  0  0  0
  6  2  1  0  0  0  0
  8 15  1  0  0  0  0
  8  3  1  0  0  0  0
  9  8  1  0  0  0  0
 10 12  1  0  0  0  0
 10  9  2  0  0  0  0
 11 10  1  0  0  0  0
 12 14  1  0  0  0  0
 13 12  2  0  0  0  0
 14 17  1  0  0  0  0
 14 15  1  0  0  0  0
 15 16  2  0  0  0  0
 18 19  1  0  0  0  0
 18 20  1  0  0  0  0
 21 23  1  0  0  0  0
 21 18  1  0  0  0  0
 22 21  1  0  0  0  0
 24 29  2  0  0  0  0
 24 25  1  0  0  0  0
 25 26  2  0  0  0  0
 26 27  1  0  0  0  0
 26 21  1  0  0  0  0
 28 32  1  0  0  0  0
 28 27  2  0  0  0  0
 29 28  1  0  0  0  0
 30 24  1  0  0  0  0
 31 25  1  0  0  0  0
M  END
>  <minimizedAffinity>
-4.95306444

$$$$

 OpenBabel03252502453D

 32 34  0  0  1  0  0  0  0  0999 V2000
   37.1550   28.1890   38.7710 C   0  0  1  0  0  0  0  0  0  0  0  0
   36.3620   28.6590   37.5930 C   0  0  0  0  0  0  0  0  0  0  0  0
   35.9970   29.0690   38.9620 C   0  0  2  0  0  0  0  0  0  0  0  0
   38.2220   28.5280   38.8910 H   0  0  0  0  0  0  0  0  0  0  0  0
   35.7700   27.9740   36.9580 H   0  0  0  0  0  0  0  0  0  0  0  0
   36.9300   29.3540   36.9350 H   0  0  0  0  0  0  0  0  0  0  0  0
   35.1090   28.9470   39.5360 H   0  0  0  0  0  0  0  0  0  0  0  0
   36.4530   30.4390   39.2860 N   0  0  0  0  0  0  0  0  0  0  0  0
   36.9670   31.0720   38.2080 C   0  0  0  0  0  3  0  0  0  0  0  0
   37.4350   32.3630   38.3570 C   0  0  0  0  0  0  0  0  0  0  0  0
   37.8500   32.8780   37.4930 H   0  0  0  0  0  0  0  0  0  0  0  0
   37.3500   32.9330   39.6030 C   0  0  0  0  0  0  0  0  0  0  0  0
   37.7840   34.1060   39.7030 O   0  0  0  0  0  0  0  0  0  0  0  0
   36.8190   32.2190   40.6200 N   0  0  0  0  0  0  0  0  0  0  0  0
   36.3600   30.9670   40.4960 C   0  0  0  0  0  0  0  0  0  0  0  0
   35.8730   30.3120   41.4270 O   0  0  0  0  0  0  0  0  0  0  0  0
   36.7800   32.7060   41.5440 H   0  0  0  0  0  0  0  0  0  0  0  0
   37.0030   26.7520   39.1560 C   0  0  0  0  0  0  0  0  0  0  0  0
   36.8630   26.0690   38.3190 H   0  0  0  0  0  0  0  0  0  0  0  0
   36.0960   26.7600   39.8430 H   0  0  0  0  0  0  0  0  0  0  0  0
   38.2030   26.4420   40.0320 C   0  0  0  0  0  0  0  0  0  0  0  0
   38.4930   25.4030   40.0770 H   0  0  0  0  0  0  0  0  0  0  0  0
   39.0170   27.1490   39.6760 H   0  0  0  0  0  0  0  0  0  0  0  0
   36.7840   27.4810   43.3510 C   0  0  0  0  0  0  0  0  0  0  0  0
   36.9510   26.7610   42.1320 C   0  0  0  0  0  0  0  0  0  0  0  0
   38.0140   27.1180   41.3440 C   0  0  0  0  0  0  0  0  0  0  0  0
   38.8490   28.1180   41.7470 N   0  0  0  0  0  0  0  0  0  0  0  0
   38.6740   28.7700   42.8830 C   0  0  0  0  0  0  0  0  0  0  0  0
   37.6480   28.4540   43.6800 N   0  0  0  0  0  0  0  0  0  0  0  0
   35.9690   27.2610   44.0310 H   0  0  0  0  0  0  0  0  0  0  0  0
   36.2000   26.0020   41.9990 H   0  0  0  0  0  0  0  0  0  0  0  0
   39.3540   29.5600   43.1750 H   0  0  0  0  0  0  0  0  0  0  0  0
  1  4  1  1  0  0  0
  1  3  1  0  0  0  0
  1 18  1  0  0  0  0
  2  1  1  0  0  0  0
  2  3  1  0  0  0  0
  3  8  1  0  0  0  0
  3  7  1  1  0  0  0
  5  2  1  0  0  0  0
  6  2  1  0  0  0  0
  8 15  1  0  0  0  0
  9 10  2  0  0  0  0
  9  8  1  0  0  0  0
 10 12  1  0  0  0  0
 11 10  1  0  0  0  0
 12 13  2  0  0  0  0
 12 14  1  0  0  0  0
 14 17  1  0  0  0  0
 15 14  1  0  0  0  0
 15 16  2  0  0  0  0
 18 20  1  0  0  0  0
 18 21  1  0  0  0  0
 19 18  1  0  0  0  0
 21 22  1  0  0  0  0
 21 26  1  0  0  0  0
 23 21  1  0  0  0  0
 24 29  1  0  0  0  0
 24 30  1  0  0  0  0
 25 24  2  0  0  0  0
 26 27  2  0  0  0  0
 26 25  1  0  0  0  0
 27 28  1  0  0  0  0
 28 32  1  0  0  0  0
 28 29  2  0  0  0  0
 31 25  1  0  0  0  0
M  END
>  <minimizedAffinity>
-4.89249849

$$$$

 OpenBabel03252502453D

 32 34  0  0  1  0  0  0  0  0999 V2000
   37.1220   29.8600   39.0130 C   0  0  1  0  0  0  0  0  0  0  0  0
   37.0730   30.6880   37.7680 C   0  0  0  0  0  0  0  0  0  0  0  0
   36.8790   31.3050   39.0940 C   0  0  2  0  0  0  0  0  0  0  0  0
   38.0910   29.3740   39.3160 H   0  0  0  0  0  0  0  0  0  0  0  0
   36.2840   30.5700   37.0020 H   0  0  0  0  0  0  0  0  0  0  0  0
   38.0580   30.7640   37.2560 H   0  0  0  0  0  0  0  0  0  0  0  0
   36.0750   31.8580   39.5170 H   0  0  0  0  0  0  0  0  0  0  0  0
   38.0920   31.9940   39.5830 N   0  0  0  0  0  0  0  0  0  0  0  0
   39.1120   31.1350   39.8030 C   0  0  0  0  0  3  0  0  0  0  0  0
   40.3140   31.6350   40.2630 C   0  0  0  0  0  0  0  0  0  0  0  0
   41.1390   30.9480   40.4420 H   0  0  0  0  0  0  0  0  0  0  0  0
   40.4040   32.9890   40.4730 C   0  0  0  0  0  0  0  0  0  0  0  0
   41.5090   33.4100   40.8910 O   0  0  0  0  0  0  0  0  0  0  0  0
   39.3280   33.7680   40.2240 N   0  0  0  0  0  0  0  0  0  0  0  0
   38.1550   33.3020   39.7770 C   0  0  0  0  0  0  0  0  0  0  0  0
   37.1680   34.0140   39.5490 O   0  0  0  0  0  0  0  0  0  0  0  0
   39.4570   34.7890   40.4010 H   0  0  0  0  0  0  0  0  0  0  0  0
   35.9640   28.9470   39.2630 C   0  0  0  0  0  0  0  0  0  0  0  0
   36.1530   27.8990   39.0300 H   0  0  0  0  0  0  0  0  0  0  0  0
   35.1440   29.3790   38.6030 H   0  0  0  0  0  0  0  0  0  0  0  0
   35.5460   29.2120   40.6960 C   0  0  0  0  0  0  0  0  0  0  0  0
   35.2380   30.2240   40.9140 H   0  0  0  0  0  0  0  0  0  0  0  0
   34.7690   28.4170   40.9290 H   0  0  0  0  0  0  0  0  0  0  0  0
   37.7680   26.7950   42.5220 C   0  0  0  0  0  0  0  0  0  0  0  0
   36.8070   27.2930   41.5940 C   0  0  0  0  0  0  0  0  0  0  0  0
   36.5830   28.6440   41.6010 C   0  0  0  0  0  0  0  0  0  0  0  0
   37.2710   29.4400   42.4690 N   0  0  0  0  0  0  0  0  0  0  0  0
   38.1580   28.9550   43.3200 C   0  0  0  0  0  0  0  0  0  0  0  0
   38.4050   27.6420   43.3460 N   0  0  0  0  0  0  0  0  0  0  0  0
   38.0030   25.7390   42.5810 H   0  0  0  0  0  0  0  0  0  0  0  0
   36.3820   26.5120   40.9870 H   0  0  0  0  0  0  0  0  0  0  0  0
   38.6880   29.6130   43.9970 H   0  0  0  0  0  0  0  0  0  0  0  0
  1  3  1  0  0  0  0
  1 18  1  0  0  0  0
  1  4  1  1  0  0  0
  2  1  1  0  0  0  0
  2  3  1  0  0  0  0
  3  7  1  1  0  0  0
  3  8  1  0  0  0  0
  5  2  1  0  0  0  0
  6  2  1  0  0  0  0
  8 15  1  0  0  0  0
  8  9  1  0  0  0  0
  9 10  2  0  0  0  0
 10 11  1  0  0  0  0
 10 12  1  0  0  0  0
 12 13  2  0  0  0  0
 14 17  1  0  0  0  0
 14 12  1  0  0  0  0
 15 14  1  0  0  0  0
 16 15  2  0  0  0  0
 18 21  1  0  0  0  0
 19 18  1  0  0  0  0
 20 18  1  0  0  0  0
 21 22  1  0  0  0  0
 21 23  1  0  0  0  0
 21 26  1  0  0  0  0
 24 30  1  0  0  0  0
 24 29  1  0  0  0  0
 25 26  1  0  0  0  0
 25 24  2  0  0  0  0
 26 27  2  0  0  0  0
 27 28  1  0  0  0  0
 28 29  2  0  0  0  0
 28 32  1  0  0  0  0
 31 25  1  0  0  0  0
M  END
>  <minimizedAffinity>
-4.88142014

$$$$

 OpenBabel03252502453D

 32 34  0  0  1  0  0  0  0  0999 V2000
   38.1130   28.1420   42.8880 C   0  0  1  0  0  0  0  0  0  0  0  0
   36.9130   27.7270   43.6790 C   0  0  0  0  0  0  0  0  0  0  0  0
   36.8350   27.8840   42.2140 C   0  0  2  0  0  0  0  0  0  0  0  0
   39.0000   27.4520   42.8250 H   0  0  0  0  0  0  0  0  0  0  0  0
   36.4220   28.3910   44.4140 H   0  0  0  0  0  0  0  0  0  0  0  0
   37.0160   26.7140   44.1260 H   0  0  0  0  0  0  0  0  0  0  0  0
   36.2340   28.5010   41.5890 H   0  0  0  0  0  0  0  0  0  0  0  0
   36.8930   26.5900   41.5000 N   0  0  0  0  0  0  0  0  0  0  0  0
   37.1570   25.5600   42.3330 C   0  0  0  0  0  3  0  0  0  0  0  0
   37.2410   24.2860   41.8080 C   0  0  0  0  0  0  0  0  0  0  0  0
   37.4530   23.4520   42.4750 H   0  0  0  0  0  0  0  0  0  0  0  0
   37.0520   24.1390   40.4570 C   0  0  0  0  0  0  0  0  0  0  0  0
   37.1360   22.9680   40.0130 O   0  0  0  0  0  0  0  0  0  0  0  0
   36.7930   25.2300   39.7040 N   0  0  0  0  0  0  0  0  0  0  0  0
   36.7070   26.4740   40.1940 C   0  0  0  0  0  0  0  0  0  0  0  0
   36.4700   27.4750   39.5060 O   0  0  0  0  0  0  0  0  0  0  0  0
   36.6580   25.0560   38.6830 H   0  0  0  0  0  0  0  0  0  0  0  0
   38.5500   29.5660   43.0220 C   0  0  0  0  0  0  0  0  0  0  0  0
   39.1020   29.7880   43.9340 H   0  0  0  0  0  0  0  0  0  0  0  0
   37.5720   30.1450   42.9750 H   0  0  0  0  0  0  0  0  0  0  0  0
   39.2960   29.8790   41.7380 C   0  0  0  0  0  0  0  0  0  0  0  0
   40.3730   29.8650   41.8080 H   0  0  0  0  0  0  0  0  0  0  0  0
   38.8600   29.1730   40.9640 H   0  0  0  0  0  0  0  0  0  0  0  0
   37.0810   32.1920   39.7740 C   0  0  0  0  0  0  0  0  0  0  0  0
   37.5720   30.9950   40.3740 C   0  0  0  0  0  0  0  0  0  0  0  0
   38.7040   31.1060   41.1370 C   0  0  0  0  0  0  0  0  0  0  0  0
   39.2990   32.3230   41.2930 N   0  0  0  0  0  0  0  0  0  0  0  0
   38.8240   33.4190   40.7280 C   0  0  0  0  0  0  0  0  0  0  0  0
   37.7220   33.3540   39.9730 N   0  0  0  0  0  0  0  0  0  0  0  0
   36.1910   32.1890   39.1540 H   0  0  0  0  0  0  0  0  0  0  0  0
   36.9580   30.1410   40.1450 H   0  0  0  0  0  0  0  0  0  0  0  0
   39.3190   34.3700   40.8700 H   0  0  0  0  0  0  0  0  0  0  0  0
  1  4  1  6  0  0  0
  1 18  1  0  0  0  0
  1  2  1  0  0  0  0
  2  6  1  0  0  0  0
  2  5  1  0  0  0  0
  3  7  1  6  0  0  0
  3  1  1  0  0  0  0
  3  2  1  0  0  0  0
  8  3  1  0  0  0  0
  8  9  1  0  0  0  0
 10  9  2  0  0  0  0
 10 11  1  0  0  0  0
 12 10  1  0  0  0  0
 13 12  2  0  0  0  0
 14 15  1  0  0  0  0
 14 12  1  0  0  0  0
 15  8  1  0  0  0  0
 16 15  2  0  0  0  0
 17 14  1  0  0  0  0
 18 19  1  0  0  0  0
 20 18  1  0  0  0  0
 21 22  1  0  0  0  0
 21 18  1  0  0  0  0
 23 21  1  0  0  0  0
 24 29  2  0  0  0  0
 24 25  1  0  0  0  0
 25 26  2  0  0  0  0
 26 27  1  0  0  0  0
 26 21  1  0  0  0  0
 28 32  1  0  0  0  0
 28 27  2  0  0  0  0
 29 28  1  0  0  0  0
 30 24  1  0  0  0  0
 31 25  1  0  0  0  0
M  END
>  <minimizedAffinity>
-4.87739468

$$$$

 OpenBabel03252502453D

 32 34  0  0  1  0  0  0  0  0999 V2000
   37.0210   28.0020   42.2960 C   0  0  1  0  0  0  0  0  0  0  0  0
   36.5180   27.4110   43.5740 C   0  0  0  0  0  0  0  0  0  0  0  0
   37.0730   26.5520   42.5120 C   0  0  2  0  0  0  0  0  0  0  0  0
   37.9290   28.6680   42.3130 H   0  0  0  0  0  0  0  0  0  0  0  0
   35.4530   27.4440   43.8700 H   0  0  0  0  0  0  0  0  0  0  0  0
   37.1410   27.6830   44.4550 H   0  0  0  0  0  0  0  0  0  0  0  0
   36.6640   25.7430   41.9540 H   0  0  0  0  0  0  0  0  0  0  0  0
   38.4650   26.1330   42.7890 N   0  0  0  0  0  0  0  0  0  0  0  0
   39.2020   27.1340   43.3200 C   0  0  0  0  0  3  0  0  0  0  0  0
   40.5240   26.8910   43.6320 C   0  0  0  0  0  0  0  0  0  0  0  0
   41.1230   27.6930   44.0600 H   0  0  0  0  0  0  0  0  0  0  0  0
   41.0190   25.6350   43.3830 C   0  0  0  0  0  0  0  0  0  0  0  0
   42.2240   25.4480   43.6790 O   0  0  0  0  0  0  0  0  0  0  0  0
   40.2030   24.6990   42.8510 N   0  0  0  0  0  0  0  0  0  0  0  0
   38.9180   24.9140   42.5410 C   0  0  0  0  0  0  0  0  0  0  0  0
   38.1700   24.0570   42.0530 O   0  0  0  0  0  0  0  0  0  0  0  0
   40.6350   23.7620   42.6850 H   0  0  0  0  0  0  0  0  0  0  0  0
   35.9930   28.5230   41.3420 C   0  0  0  0  0  0  0  0  0  0  0  0
   35.5060   29.4450   41.6590 H   0  0  0  0  0  0  0  0  0  0  0  0
   35.2510   27.6650   41.2640 H   0  0  0  0  0  0  0  0  0  0  0  0
   36.6960   28.6070   40.0010 C   0  0  0  0  0  0  0  0  0  0  0  0
   37.3110   27.7590   39.7410 H   0  0  0  0  0  0  0  0  0  0  0  0
   35.8760   28.8480   39.2530 H   0  0  0  0  0  0  0  0  0  0  0  0
   39.2610   31.2990   39.4680 C   0  0  0  0  0  0  0  0  0  0  0  0
   38.6620   30.0060   39.4930 C   0  0  0  0  0  0  0  0  0  0  0  0
   37.3550   29.9380   39.8970 C   0  0  0  0  0  0  0  0  0  0  0  0
   36.6940   31.0790   40.2470 N   0  0  0  0  0  0  0  0  0  0  0  0
   37.2720   32.2670   40.2140 C   0  0  0  0  0  0  0  0  0  0  0  0
   38.5460   32.3770   39.8280 N   0  0  0  0  0  0  0  0  0  0  0  0
   40.2920   31.4390   39.1610 H   0  0  0  0  0  0  0  0  0  0  0  0
   39.3400   29.2350   39.1690 H   0  0  0  0  0  0  0  0  0  0  0  0
   36.7210   33.1540   40.4980 H   0  0  0  0  0  0  0  0  0  0  0  0
  1  4  1  1  0  0  0
  1  3  1  0  0  0  0
  1  2  1  0  0  0  0
  2  5  1  0  0  0  0
  2  6  1  0  0  0  0
  3  7  1  6  0  0  0
  3  8  1  0  0  0  0
  3  2  1  0  0  0  0
  8  9  1  0  0  0  0
  9 10  2  0  0  0  0
 10 11  1  0  0  0  0
 12 10  1  0  0  0  0
 12 13  2  0  0  0  0
 14 12  1  0  0  0  0
 15  8  1  0  0  0  0
 15 14  1  0  0  0  0
 16 15  2  0  0  0  0
 17 14  1  0  0  0  0
 18 19  1  0  0  0  0
 18  1  1  0  0  0  0
 20 18  1  0  0  0  0
 21 18  1  0  0  0  0
 22 21  1  0  0  0  0
 23 21  1  0  0  0  0
 24 25  2  0  0  0  0
 24 29  1  0  0  0  0
 25 26  1  0  0  0  0
 26 21  1  0  0  0  0
 26 27  2  0  0  0  0
 28 27  1  0  0  0  0
 28 32  1  0  0  0  0
 29 28  2  0  0  0  0
 30 24  1  0  0  0  0
 31 25  1  0  0  0  0
M  END
>  <minimizedAffinity>
-4.87144136

$$$$

 OpenBabel03252502453D

 32 34  0  0  1  0  0  0  0  0999 V2000
   36.9020   29.1900   40.9200 C   0  0  1  0  0  0  0  0  0  0  0  0
   35.7980   30.0480   40.3900 C   0  0  0  0  0  0  0  0  0  0  0  0
   37.0060   30.6520   40.9830 C   0  0  2  0  0  0  0  0  0  0  0  0
   37.4990   28.5530   40.2090 H   0  0  0  0  0  0  0  0  0  0  0  0
   34.7900   30.0730   40.8420 H   0  0  0  0  0  0  0  0  0  0  0  0
   35.6910   29.9860   39.2840 H   0  0  0  0  0  0  0  0  0  0  0  0
   37.1490   31.3110   41.8060 H   0  0  0  0  0  0  0  0  0  0  0  0
   37.9600   31.1350   39.9620 N   0  0  0  0  0  0  0  0  0  0  0  0
   38.6940   30.1290   39.4350 C   0  0  0  0  0  3  0  0  0  0  0  0
   39.6300   30.4280   38.4650 C   0  0  0  0  0  0  0  0  0  0  0  0
   40.2240   29.6220   38.0370 H   0  0  0  0  0  0  0  0  0  0  0  0
   39.7640   31.7410   38.0900 C   0  0  0  0  0  0  0  0  0  0  0  0
   40.6230   31.9770   37.2070 O   0  0  0  0  0  0  0  0  0  0  0  0
   38.9840   32.6770   38.6750 N   0  0  0  0  0  0  0  0  0  0  0  0
   38.0700   32.4080   39.6160 C   0  0  0  0  0  0  0  0  0  0  0  0
   37.3550   33.2640   40.1530 O   0  0  0  0  0  0  0  0  0  0  0  0
   39.1300   33.6590   38.3470 H   0  0  0  0  0  0  0  0  0  0  0  0
   36.6350   28.4590   42.1980 C   0  0  0  0  0  0  0  0  0  0  0  0
   36.2030   27.4670   42.0720 H   0  0  0  0  0  0  0  0  0  0  0  0
   35.9260   29.1550   42.7530 H   0  0  0  0  0  0  0  0  0  0  0  0
   37.9470   28.4870   42.9580 C   0  0  0  0  0  0  0  0  0  0  0  0
   38.6300   29.2770   42.6840 H   0  0  0  0  0  0  0  0  0  0  0  0
   37.6520   28.4720   44.0550 H   0  0  0  0  0  0  0  0  0  0  0  0
   38.3920   24.7950   42.4290 C   0  0  0  0  0  0  0  0  0  0  0  0
   37.8290   26.1020   42.3440 C   0  0  0  0  0  0  0  0  0  0  0  0
   38.5180   27.1120   42.9630 C   0  0  0  0  0  0  0  0  0  0  0  0
   39.6830   26.8370   43.6150 N   0  0  0  0  0  0  0  0  0  0  0  0
   40.1850   25.6160   43.6790 C   0  0  0  0  0  0  0  0  0  0  0  0
   39.5440   24.6020   43.0900 N   0  0  0  0  0  0  0  0  0  0  0  0
   37.9090   23.9410   41.9680 H   0  0  0  0  0  0  0  0  0  0  0  0
   36.9150   26.1180   41.7760 H   0  0  0  0  0  0  0  0  0  0  0  0
   41.1130   25.4290   44.2040 H   0  0  0  0  0  0  0  0  0  0  0  0
  1  4  1  6  0  0  0
  1  3  1  0  0  0  0
  1 18  1  0  0  0  0
  2  5  1  0  0  0  0
  2  1  1  0  0  0  0
  2  3  1  0  0  0  0
  3  7  1  1  0  0  0
  6  2  1  0  0  0  0
  8  3  1  0  0  0  0
  9  8  1  0  0  0  0
 10  9  2  0  0  0  0
 11 10  1  0  0  0  0
 12 10  1  0  0  0  0
 12 14  1  0  0  0  0
 13 12  2  0  0  0  0
 14 15  1  0  0  0  0
 15  8  1  0  0  0  0
 15 16  2  0  0  0  0
 17 14  1  0  0  0  0
 18 20  1  0  0  0  0
 18 21  1  0  0  0  0
 19 18  1  0  0  0  0
 21 26  1  0  0  0  0
 21 23  1  0  0  0  0
 22 21  1  0  0  0  0
 24 29  1  0  0  0  0
 25 24  2  0  0  0  0
 25 26  1  0  0  0  0
 26 27  2  0  0  0  0
 27 28  1  0  0  0  0
 28 32  1  0  0  0  0
 29 28  2  0  0  0  0
 30 24  1  0  0  0  0
 31 25  1  0  0  0  0
M  END
>  <minimizedAffinity>
-4.7621088

$$$$

 OpenBabel03252502453D

 32 34  0  0  1  0  0  0  0  0999 V2000
   38.7340   30.1460   41.4580 C   0  0  1  0  0  0  0  0  0  0  0  0
   39.6250   30.4700   42.6150 C   0  0  0  0  0  0  0  0  0  0  0  0
   38.4080   29.6590   42.8030 C   0  0  2  0  0  0  0  0  0  0  0  0
   39.1180   29.4840   40.6320 H   0  0  0  0  0  0  0  0  0  0  0  0
   39.7640   31.5000   42.9920 H   0  0  0  0  0  0  0  0  0  0  0  0
   40.6200   29.9770   42.5500 H   0  0  0  0  0  0  0  0  0  0  0  0
   37.5420   29.7930   43.4070 H   0  0  0  0  0  0  0  0  0  0  0  0
   38.6990   28.2120   42.9000 N   0  0  0  0  0  0  0  0  0  0  0  0
   39.9980   27.9720   43.1840 C   0  0  0  0  0  3  0  0  0  0  0  0
   40.4200   26.6630   43.3060 C   0  0  0  0  0  0  0  0  0  0  0  0
   41.4650   26.4630   43.5350 H   0  0  0  0  0  0  0  0  0  0  0  0
   39.4860   25.6720   43.1290 C   0  0  0  0  0  0  0  0  0  0  0  0
   39.9030   24.4950   43.2470 O   0  0  0  0  0  0  0  0  0  0  0  0
   38.2090   26.0120   42.8480 N   0  0  0  0  0  0  0  0  0  0  0  0
   37.7800   27.2750   42.7260 C   0  0  0  0  0  0  0  0  0  0  0  0
   36.6100   27.5880   42.4680 O   0  0  0  0  0  0  0  0  0  0  0  0
   37.5440   25.2150   42.7250 H   0  0  0  0  0  0  0  0  0  0  0  0
   37.9080   31.2650   40.9070 C   0  0  0  0  0  0  0  0  0  0  0  0
   38.1770   31.5730   39.8970 H   0  0  0  0  0  0  0  0  0  0  0  0
   38.0740   32.1050   41.6570 H   0  0  0  0  0  0  0  0  0  0  0  0
   36.4680   30.8200   41.0720 C   0  0  0  0  0  0  0  0  0  0  0  0
   36.2500   30.2600   41.9690 H   0  0  0  0  0  0  0  0  0  0  0  0
   35.8500   31.7630   40.9370 H   0  0  0  0  0  0  0  0  0  0  0  0
   34.6220   28.6990   38.5800 C   0  0  0  0  0  0  0  0  0  0  0  0
   34.9700   29.3140   39.8180 C   0  0  0  0  0  0  0  0  0  0  0  0
   36.0200   30.1940   39.7970 C   0  0  0  0  0  0  0  0  0  0  0  0
   36.6710   30.4440   38.6250 N   0  0  0  0  0  0  0  0  0  0  0  0
   36.3280   29.8620   37.4890 C   0  0  0  0  0  0  0  0  0  0  0  0
   35.3110   28.9950   37.4660 N   0  0  0  0  0  0  0  0  0  0  0  0
   33.8040   27.9910   38.5110 H   0  0  0  0  0  0  0  0  0  0  0  0
   34.3320   28.9990   40.6250 H   0  0  0  0  0  0  0  0  0  0  0  0
   36.8640   30.0800   36.5750 H   0  0  0  0  0  0  0  0  0  0  0  0
  1  4  1  6  0  0  0
  1  2  1  0  0  0  0
  1  3  1  0  0  0  0
  2  3  1  0  0  0  0
  2  5  1  0  0  0  0
  3  8  1  0  0  0  0
  3  7  1  1  0  0  0
  6  2  1  0  0  0  0
  8  9  1  0  0  0  0
  9 10  2  0  0  0  0
 10 11  1  0  0  0  0
 12 13  2  0  0  0  0
 12 10  1  0  0  0  0
 14 12  1  0  0  0  0
 15 14  1  0  0  0  0
 15  8  1  0  0  0  0
 16 15  2  0  0  0  0
 17 14  1  0  0  0  0
 18 21  1  0  0  0  0
 18  1  1  0  0  0  0
 18 20  1  0  0  0  0
 19 18  1  0  0  0  0
 21 22  1  0  0  0  0
 23 21  1  0  0  0  0
 24 25  1  0  0  0  0
 25 31  1  0  0  0  0
 26 25  2  0  0  0  0
 26 21  1  0  0  0  0
 27 26  1  0  0  0  0
 28 27  2  0  0  0  0
 29 28  1  0  0  0  0
 29 24  2  0  0  0  0
 30 24  1  0  0  0  0
 32 28  1  0  0  0  0
M  END
>  <minimizedAffinity>
-4.73531389

$$$$
