
 OpenBabel03252507073D

 25 26  0  0  0  0  0  0  0  0999 V2000
   44.6070   35.8550   44.6190 C   0  0  0  0  0  0  0  0  0  0  0  0
   45.2170   35.9380   43.3370 C   0  0  0  0  0  0  0  0  0  0  0  0
   46.1090   34.9330   42.9840 C   0  0  0  0  0  0  0  0  0  0  0  0
   46.3570   33.9230   43.8770 N   0  0  0  0  0  0  0  0  0  0  0  0
   45.7540   33.8830   45.0890 C   0  0  0  0  0  0  0  0  0  0  0  0
   44.8840   34.8440   45.4570 N   0  0  0  0  0  0  0  0  0  0  0  0
   43.9120   36.6160   44.9240 H   0  0  0  0  0  0  0  0  0  0  0  0
   44.9540   36.7820   42.7000 H   0  0  0  0  0  0  0  0  0  0  0  0
   46.1790   32.7390   45.8220 N   0  0  0  0  0  0  0  0  0  0  0  0
   46.6750   32.9540   47.0560 C   0  0  0  0  0  3  0  0  0  0  0  0
   47.0970   31.8360   47.7870 C   0  0  0  0  0  0  0  0  0  0  0  0
   47.4950   31.9900   48.7740 H   0  0  0  0  0  0  0  0  0  0  0  0
   46.9770   30.5940   47.2000 C   0  0  0  0  0  0  0  0  0  0  0  0
   47.3550   29.5830   47.8540 O   0  0  0  0  0  0  0  0  0  0  0  0
   46.4740   30.4270   45.9620 N   0  0  0  0  0  0  0  0  0  0  0  0
   46.0720   31.5170   45.2700 C   0  0  0  0  0  0  0  0  0  0  0  0
   45.6090   31.3160   44.1170 O   0  0  0  0  0  0  0  0  0  0  0  0
   46.4090   29.4530   45.5680 H   0  0  0  0  0  0  0  0  0  0  0  0
   46.7070   35.0090   41.7360 O   0  0  0  0  0  0  0  0  0  0  0  0
   48.5730   33.2900   40.9630 O   0  0  0  0  0  0  0  0  0  0  0  0
   48.3840   34.6780   41.5840 P   0  0  0  0  0  0  0  0  0  0  0  0
   49.0790   35.8730   40.6540 O   0  0  0  0  0  0  0  0  0  0  0  0
   48.9550   35.6160   39.7040 H   0  0  0  0  0  0  0  0  0  0  0  0
   49.0280   34.6170   43.1510 O   0  0  0  0  0  0  0  0  0  0  0  0
   49.1460   35.5610   43.4380 H   0  0  0  0  0  0  0  0  0  0  0  0
  1  7  1  0  0  0  0
  1  6  1  0  0  0  0
  2  1  2  0  0  0  0
  3  2  1  0  0  0  0
  3  4  2  0  0  0  0
  4  5  1  0  0  0  0
  5  6  2  0  0  0  0
  5  9  1  0  0  0  0
  8  2  1  0  0  0  0
  9 10  1  0  0  0  0
 10 11  2  0  0  0  0
 11 12  1  0  0  0  0
 13 11  1  0  0  0  0
 13 14  2  0  0  0  0
 15 13  1  0  0  0  0
 16  9  1  0  0  0  0
 16 15  1  0  0  0  0
 17 16  2  0  0  0  0
 18 15  1  0  0  0  0
 19  3  1  0  0  0  0
 20 21  2  0  0  0  0
 21 19  1  0  0  0  0
 21 24  1  0  0  0  0
 22 21  1  0  0  0  0
 23 22  1  0  0  0  0
 24 25  1  0  0  0  0
M  END
>  <minimizedAffinity>
-5.97432709

>  <minimizedRMSD>
0.19999744

$$$$
