
 OpenBabel03252504053D

 20 21  0  0  0  0  0  0  0  0999 V2000
   37.0990   26.9950   42.9020 C   0  0  0  0  0  0  0  0  0  0  0  0
   37.2290   28.3860   42.6550 C   0  0  0  0  0  0  0  0  0  0  0  0
   37.5140   28.7610   41.3360 C   0  0  0  0  0  0  0  0  0  0  0  0
   37.6500   27.8240   40.3790 N   0  0  0  0  0  0  0  0  0  0  0  0
   37.5170   26.4930   40.6610 C   0  0  0  0  0  0  0  0  0  0  0  0
   37.2420   26.1060   41.9220 N   0  0  0  0  0  0  0  0  0  0  0  0
   36.8790   26.7350   43.9300 H   0  0  0  0  0  0  0  0  0  0  0  0
   37.6360   25.7770   39.8520 H   0  0  0  0  0  0  0  0  0  0  0  0
   37.6440   30.1580   41.0860 N   0  0  0  0  0  0  0  0  0  0  0  0
   38.9280   30.6000   41.2300 C   0  0  0  0  0  3  0  0  0  0  0  0
   39.2310   31.9200   41.0260 C   0  0  0  0  0  0  0  0  0  0  0  0
   40.2420   32.3270   41.1280 H   0  0  0  0  0  0  0  0  0  0  0  0
   38.2530   32.8240   40.6710 C   0  0  0  0  0  0  0  0  0  0  0  0
   38.4770   34.0640   40.4690 O   0  0  0  0  0  0  0  0  0  0  0  0
   36.9910   32.3280   40.5410 N   0  0  0  0  0  0  0  0  0  0  0  0
   36.6930   31.0290   40.7430 C   0  0  0  0  0  0  0  0  0  0  0  0
   35.5580   30.5380   40.6350 O   0  0  0  0  0  0  0  0  0  0  0  0
   36.2300   32.9690   40.2790 H   0  0  0  0  0  0  0  0  0  0  0  0
   37.0900   29.3420   43.6340 O   0  0  0  0  0  0  0  0  0  0  0  0
   37.2230   29.1170   44.6000 H   0  0  0  0  0  0  0  0  0  0  0  0
  1  7  1  0  0  0  0
  2  1  1  0  0  0  0
  2 19  1  0  0  0  0
  3  2  2  0  0  0  0
  4  5  2  0  0  0  0
  4  3  1  0  0  0  0
  5  6  1  0  0  0  0
  6  1  2  0  0  0  0
  8  5  1  0  0  0  0
  9 10  1  0  0  0  0
  9  3  1  0  0  0  0
 11 12  1  0  0  0  0
 11 10  2  0  0  0  0
 13 11  1  0  0  0  0
 14 13  2  0  0  0  0
 15 13  1  0  0  0  0
 15 16  1  0  0  0  0
 16  9  1  0  0  0  0
 17 16  2  0  0  0  0
 18 15  1  0  0  0  0
 19 20  1  0  0  0  0
M  END
>  <minimizedAffinity>
-5.00721645

$$$$

 OpenBabel03252504053D

 20 21  0  0  0  0  0  0  0  0999 V2000
   37.2940   32.6130   40.1210 C   0  0  0  0  0  0  0  0  0  0  0  0
   37.0230   31.3550   40.7200 C   0  0  0  0  0  0  0  0  0  0  0  0
   38.0530   30.4080   40.6750 C   0  0  0  0  0  0  0  0  0  0  0  0
   39.2260   30.7100   40.0860 N   0  0  0  0  0  0  0  0  0  0  0  0
   39.4440   31.9350   39.5200 C   0  0  0  0  0  0  0  0  0  0  0  0
   38.4700   32.8630   39.5510 N   0  0  0  0  0  0  0  0  0  0  0  0
   36.4790   33.3240   40.1720 H   0  0  0  0  0  0  0  0  0  0  0  0
   40.4090   32.1280   39.0570 H   0  0  0  0  0  0  0  0  0  0  0  0
   37.7840   29.1450   41.2770 N   0  0  0  0  0  0  0  0  0  0  0  0
   37.2670   28.2410   40.3930 C   0  0  0  0  0  3  0  0  0  0  0  0
   36.9500   26.9750   40.8060 C   0  0  0  0  0  0  0  0  0  0  0  0
   36.5330   26.2120   40.1400 H   0  0  0  0  0  0  0  0  0  0  0  0
   37.1450   26.5870   42.1140 C   0  0  0  0  0  0  0  0  0  0  0  0
   36.8680   25.4220   42.5550 O   0  0  0  0  0  0  0  0  0  0  0  0
   37.6630   27.5280   42.9520 N   0  0  0  0  0  0  0  0  0  0  0  0
   37.9750   28.7750   42.5440 C   0  0  0  0  0  0  0  0  0  0  0  0
   38.4480   29.6610   43.2750 O   0  0  0  0  0  0  0  0  0  0  0  0
   37.8240   27.2820   43.9370 H   0  0  0  0  0  0  0  0  0  0  0  0
   35.8240   31.0490   41.3210 O   0  0  0  0  0  0  0  0  0  0  0  0
   34.9860   31.5420   41.0860 H   0  0  0  0  0  0  0  0  0  0  0  0
  1  7  1  0  0  0  0
  1  2  1  0  0  0  0
  2 19  1  0  0  0  0
  3  2  2  0  0  0  0
  3  9  1  0  0  0  0
  4  3  1  0  0  0  0
  5  6  1  0  0  0  0
  5  4  2  0  0  0  0
  6  1  2  0  0  0  0
  8  5  1  0  0  0  0
  9 16  1  0  0  0  0
 10 11  2  0  0  0  0
 10  9  1  0  0  0  0
 11 13  1  0  0  0  0
 12 11  1  0  0  0  0
 13 14  2  0  0  0  0
 13 15  1  0  0  0  0
 15 18  1  0  0  0  0
 16 15  1  0  0  0  0
 16 17  2  0  0  0  0
 20 19  1  0  0  0  0
M  END
>  <minimizedAffinity>
-4.74816513

$$$$

 OpenBabel03252504053D

 20 21  0  0  0  0  0  0  0  0999 V2000
   37.4430   26.7340   41.4700 C   0  0  0  0  0  0  0  0  0  0  0  0
   37.5160   28.0510   40.9440 C   0  0  0  0  0  0  0  0  0  0  0  0
   37.5270   29.0950   41.8750 C   0  0  0  0  0  0  0  0  0  0  0  0
   37.4710   28.8280   43.1940 N   0  0  0  0  0  0  0  0  0  0  0  0
   37.4000   27.5440   43.6590 C   0  0  0  0  0  0  0  0  0  0  0  0
   37.3890   26.5220   42.7830 N   0  0  0  0  0  0  0  0  0  0  0  0
   37.4360   25.9480   40.7260 H   0  0  0  0  0  0  0  0  0  0  0  0
   37.3570   27.3840   44.7330 H   0  0  0  0  0  0  0  0  0  0  0  0
   37.6010   30.4170   41.3490 N   0  0  0  0  0  0  0  0  0  0  0  0
   38.8490   30.9600   41.4630 C   0  0  0  0  0  3  0  0  0  0  0  0
   39.0950   32.2270   41.0060 C   0  0  0  0  0  0  0  0  0  0  0  0
   40.0760   32.7090   41.0730 H   0  0  0  0  0  0  0  0  0  0  0  0
   38.0960   32.9760   40.4240 C   0  0  0  0  0  0  0  0  0  0  0  0
   38.2680   34.1610   39.9820 O   0  0  0  0  0  0  0  0  0  0  0  0
   36.8720   32.3860   40.3360 N   0  0  0  0  0  0  0  0  0  0  0  0
   36.6300   31.1380   40.7860 C   0  0  0  0  0  0  0  0  0  0  0  0
   35.5300   30.5650   40.7250 O   0  0  0  0  0  0  0  0  0  0  0  0
   36.0970   32.9110   39.9090 H   0  0  0  0  0  0  0  0  0  0  0  0
   37.5740   28.3210   39.5960 O   0  0  0  0  0  0  0  0  0  0  0  0
   37.2380   27.6640   38.9210 H   0  0  0  0  0  0  0  0  0  0  0  0
  1  6  1  0  0  0  0
  2  1  2  0  0  0  0
  2  3  1  0  0  0  0
  3  4  2  0  0  0  0
  4  5  1  0  0  0  0
  5  8  1  0  0  0  0
  6  5  2  0  0  0  0
  7  1  1  0  0  0  0
  9 10  1  0  0  0  0
  9  3  1  0  0  0  0
 11 12  1  0  0  0  0
 11 10  2  0  0  0  0
 13 11  1  0  0  0  0
 14 13  2  0  0  0  0
 15 13  1  0  0  0  0
 15 16  1  0  0  0  0
 16  9  1  0  0  0  0
 17 16  2  0  0  0  0
 18 15  1  0  0  0  0
 19  2  1  0  0  0  0
 20 19  1  0  0  0  0
M  END
>  <minimizedAffinity>
-4.73232555

$$$$

 OpenBabel03252504053D

 20 21  0  0  0  0  0  0  0  0999 V2000
   37.0340   27.0350   42.7890 C   0  0  0  0  0  0  0  0  0  0  0  0
   37.3680   28.4110   42.6840 C   0  0  0  0  0  0  0  0  0  0  0  0
   37.9890   28.8130   41.4950 C   0  0  0  0  0  0  0  0  0  0  0  0
   38.2400   27.9140   40.5240 N   0  0  0  0  0  0  0  0  0  0  0  0
   37.9010   26.5970   40.6670 C   0  0  0  0  0  0  0  0  0  0  0  0
   37.3020   26.1860   41.8010 N   0  0  0  0  0  0  0  0  0  0  0  0
   36.5550   26.7550   43.7180 H   0  0  0  0  0  0  0  0  0  0  0  0
   38.1250   25.9130   39.8520 H   0  0  0  0  0  0  0  0  0  0  0  0
   38.3250   30.1940   41.3880 N   0  0  0  0  0  0  0  0  0  0  0  0
   37.4310   30.8950   40.6320 C   0  0  0  0  0  3  0  0  0  0  0  0
   37.6040   32.2380   40.4260 C   0  0  0  0  0  0  0  0  0  0  0  0
   36.9180   32.8480   39.8290 H   0  0  0  0  0  0  0  0  0  0  0  0
   38.6780   32.9050   40.9750 C   0  0  0  0  0  0  0  0  0  0  0  0
   38.8900   34.1540   40.8160 O   0  0  0  0  0  0  0  0  0  0  0  0
   39.5380   32.1560   41.7190 N   0  0  0  0  0  0  0  0  0  0  0  0
   39.3670   30.8340   41.9210 C   0  0  0  0  0  0  0  0  0  0  0  0
   40.1260   30.1170   42.5920 O   0  0  0  0  0  0  0  0  0  0  0  0
   40.3540   32.6140   42.1470 H   0  0  0  0  0  0  0  0  0  0  0  0
   37.1110   29.3270   43.6770 O   0  0  0  0  0  0  0  0  0  0  0  0
   36.9930   29.0400   44.6290 H   0  0  0  0  0  0  0  0  0  0  0  0
  1  7  1  0  0  0  0
  2  1  1  0  0  0  0
  2 19  1  0  0  0  0
  3  2  2  0  0  0  0
  4  5  2  0  0  0  0
  4  3  1  0  0  0  0
  5  6  1  0  0  0  0
  6  1  2  0  0  0  0
  8  5  1  0  0  0  0
  9  3  1  0  0  0  0
  9 16  1  0  0  0  0
 10  9  1  0  0  0  0
 11 10  2  0  0  0  0
 11 13  1  0  0  0  0
 12 11  1  0  0  0  0
 13 15  1  0  0  0  0
 14 13  2  0  0  0  0
 15 16  1  0  0  0  0
 15 18  1  0  0  0  0
 16 17  2  0  0  0  0
 19 20  1  0  0  0  0
M  END
>  <minimizedAffinity>
-4.65851974

$$$$

 OpenBabel03252504053D

 20 21  0  0  0  0  0  0  0  0999 V2000
   41.8280   33.3980   37.5090 C   0  0  0  0  0  0  0  0  0  0  0  0
   40.6050   32.8310   37.9540 C   0  0  0  0  0  0  0  0  0  0  0  0
   40.3520   32.8940   39.3290 C   0  0  0  0  0  0  0  0  0  0  0  0
   41.2450   33.4700   40.1570 N   0  0  0  0  0  0  0  0  0  0  0  0
   42.4120   34.0040   39.6860 C   0  0  0  0  0  0  0  0  0  0  0  0
   42.6780   33.9570   38.3660 N   0  0  0  0  0  0  0  0  0  0  0  0
   41.9950   33.3350   36.4410 H   0  0  0  0  0  0  0  0  0  0  0  0
   43.0990   34.4570   40.3960 H   0  0  0  0  0  0  0  0  0  0  0  0
   39.1250   32.3260   39.7780 N   0  0  0  0  0  0  0  0  0  0  0  0
   39.2300   30.9910   40.0450 C   0  0  0  0  0  3  0  0  0  0  0  0
   38.1420   30.2870   40.4870 C   0  0  0  0  0  0  0  0  0  0  0  0
   38.1710   29.2170   40.7160 H   0  0  0  0  0  0  0  0  0  0  0  0
   36.9250   30.9070   40.6710 C   0  0  0  0  0  0  0  0  0  0  0  0
   35.8780   30.3020   41.0800 O   0  0  0  0  0  0  0  0  0  0  0  0
   36.8770   32.2390   40.3890 N   0  0  0  0  0  0  0  0  0  0  0  0
   37.9490   32.9310   39.9540 C   0  0  0  0  0  0  0  0  0  0  0  0
   37.9470   34.1440   39.6870 O   0  0  0  0  0  0  0  0  0  0  0  0
   35.9880   32.7410   40.5120 H   0  0  0  0  0  0  0  0  0  0  0  0
   39.6940   32.2440   37.1060 O   0  0  0  0  0  0  0  0  0  0  0  0
   39.9730   31.8860   36.2140 H   0  0  0  0  0  0  0  0  0  0  0  0
  1  2  2  0  0  0  0
  1  6  1  0  0  0  0
  2  3  1  0  0  0  0
  3  9  1  0  0  0  0
  3  4  2  0  0  0  0
  5  4  1  0  0  0  0
  5  8  1  0  0  0  0
  6  5  2  0  0  0  0
  7  1  1  0  0  0  0
  9 16  1  0  0  0  0
  9 10  1  0  0  0  0
 10 11  2  0  0  0  0
 11 13  1  0  0  0  0
 11 12  1  0  0  0  0
 13 14  2  0  0  0  0
 15 18  1  0  0  0  0
 15 13  1  0  0  0  0
 16 15  1  0  0  0  0
 17 16  2  0  0  0  0
 19  2  1  0  0  0  0
 20 19  1  0  0  0  0
M  END
>  <minimizedAffinity>
-4.56580639

$$$$

 OpenBabel03252504053D

 20 21  0  0  0  0  0  0  0  0999 V2000
   40.3020   32.2720   39.0010 C   0  0  0  0  0  0  0  0  0  0  0  0
   39.6200   31.2330   39.6860 C   0  0  0  0  0  0  0  0  0  0  0  0
   38.8530   31.6150   40.7930 C   0  0  0  0  0  0  0  0  0  0  0  0
   38.7880   32.9090   41.1590 N   0  0  0  0  0  0  0  0  0  0  0  0
   39.4620   33.8790   40.4700 C   0  0  0  0  0  0  0  0  0  0  0  0
   40.2070   33.5370   39.4010 N   0  0  0  0  0  0  0  0  0  0  0  0
   40.8860   31.9460   38.1500 H   0  0  0  0  0  0  0  0  0  0  0  0
   39.3760   34.9090   40.8080 H   0  0  0  0  0  0  0  0  0  0  0  0
   38.1670   30.5730   41.4820 N   0  0  0  0  0  0  0  0  0  0  0  0
   38.9520   29.9510   42.4100 C   0  0  0  0  0  3  0  0  0  0  0  0
   38.4490   28.9240   43.1640 C   0  0  0  0  0  0  0  0  0  0  0  0
   39.0340   28.3910   43.9200 H   0  0  0  0  0  0  0  0  0  0  0  0
   37.1470   28.5010   43.0040 C   0  0  0  0  0  0  0  0  0  0  0  0
   36.6260   27.5500   43.6770 O   0  0  0  0  0  0  0  0  0  0  0  0
   36.4100   29.1570   42.0650 N   0  0  0  0  0  0  0  0  0  0  0  0
   36.9060   30.1670   41.3230 C   0  0  0  0  0  0  0  0  0  0  0  0
   36.2680   30.7900   40.4590 O   0  0  0  0  0  0  0  0  0  0  0  0
   35.4330   28.8720   41.9130 H   0  0  0  0  0  0  0  0  0  0  0  0
   39.6870   29.9110   39.3100 O   0  0  0  0  0  0  0  0  0  0  0  0
   40.4540   29.5650   38.7690 H   0  0  0  0  0  0  0  0  0  0  0  0
  1  6  2  0  0  0  0
  1  2  1  0  0  0  0
  2  3  2  0  0  0  0
  3  4  1  0  0  0  0
  3  9  1  0  0  0  0
  5  8  1  0  0  0  0
  5  4  2  0  0  0  0
  6  5  1  0  0  0  0
  7  1  1  0  0  0  0
  9 10  1  0  0  0  0
 10 11  2  0  0  0  0
 11 12  1  0  0  0  0
 13 11  1  0  0  0  0
 13 14  2  0  0  0  0
 15 13  1  0  0  0  0
 16  9  1  0  0  0  0
 16 15  1  0  0  0  0
 17 16  2  0  0  0  0
 18 15  1  0  0  0  0
 19  2  1  0  0  0  0
 20 19  1  0  0  0  0
M  END
>  <minimizedAffinity>
-4.49992228

$$$$

 OpenBabel03252504053D

 20 21  0  0  0  0  0  0  0  0999 V2000
   39.2130   33.5440   40.3940 C   0  0  0  0  0  0  0  0  0  0  0  0
   38.0340   32.8060   40.1100 C   0  0  0  0  0  0  0  0  0  0  0  0
   38.1910   31.4290   39.9160 C   0  0  0  0  0  0  0  0  0  0  0  0
   39.4120   30.8680   40.0030 N   0  0  0  0  0  0  0  0  0  0  0  0
   40.5230   31.6160   40.2780 C   0  0  0  0  0  0  0  0  0  0  0  0
   40.3980   32.9430   40.4690 N   0  0  0  0  0  0  0  0  0  0  0  0
   39.0600   34.6050   40.5400 H   0  0  0  0  0  0  0  0  0  0  0  0
   41.4850   31.1130   40.3370 H   0  0  0  0  0  0  0  0  0  0  0  0
   37.0090   30.6870   39.6310 N   0  0  0  0  0  0  0  0  0  0  0  0
   36.9150   30.3320   38.3160 C   0  0  0  0  0  3  0  0  0  0  0  0
   35.8380   29.6140   37.8700 C   0  0  0  0  0  0  0  0  0  0  0  0
   35.7130   29.3040   36.8270 H   0  0  0  0  0  0  0  0  0  0  0  0
   34.8330   29.2350   38.7340 C   0  0  0  0  0  0  0  0  0  0  0  0
   33.8070   28.5660   38.3740 O   0  0  0  0  0  0  0  0  0  0  0  0
   34.9780   29.6160   40.0340 N   0  0  0  0  0  0  0  0  0  0  0  0
   36.0390   30.3230   40.4720 C   0  0  0  0  0  0  0  0  0  0  0  0
   36.2080   30.6890   41.6460 O   0  0  0  0  0  0  0  0  0  0  0  0
   34.2500   29.3540   40.7120 H   0  0  0  0  0  0  0  0  0  0  0  0
   36.7880   33.3820   40.0230 O   0  0  0  0  0  0  0  0  0  0  0  0
   36.6800   34.3570   39.8210 H   0  0  0  0  0  0  0  0  0  0  0  0
  1  6  1  0  0  0  0
  1  7  1  0  0  0  0
  2  1  2  0  0  0  0
  3  4  2  0  0  0  0
  3  2  1  0  0  0  0
  4  5  1  0  0  0  0
  5  8  1  0  0  0  0
  5  6  2  0  0  0  0
  9  3  1  0  0  0  0
  9 16  1  0  0  0  0
 10  9  1  0  0  0  0
 11 10  2  0  0  0  0
 11 13  1  0  0  0  0
 12 11  1  0  0  0  0
 13 15  1  0  0  0  0
 14 13  2  0  0  0  0
 15 16  1  0  0  0  0
 15 18  1  0  0  0  0
 16 17  2  0  0  0  0
 19  2  1  0  0  0  0
 20 19  1  0  0  0  0
M  END
>  <minimizedAffinity>
-4.45356417

$$$$

 OpenBabel03252504053D

 20 21  0  0  0  0  0  0  0  0999 V2000
   38.9690   24.4210   42.0760 C   0  0  0  0  0  0  0  0  0  0  0  0
   38.3240   25.6350   41.7230 C   0  0  0  0  0  0  0  0  0  0  0  0
   38.7280   26.7810   42.4170 C   0  0  0  0  0  0  0  0  0  0  0  0
   39.6820   26.6990   43.3640 N   0  0  0  0  0  0  0  0  0  0  0  0
   40.2770   25.5080   43.6740 C   0  0  0  0  0  0  0  0  0  0  0  0
   39.9070   24.3910   43.0200 N   0  0  0  0  0  0  0  0  0  0  0  0
   38.6360   23.5530   41.5220 H   0  0  0  0  0  0  0  0  0  0  0  0
   41.0420   25.4960   44.4470 H   0  0  0  0  0  0  0  0  0  0  0  0
   38.0820   28.0010   42.0640 N   0  0  0  0  0  0  0  0  0  0  0  0
   38.8550   28.7920   41.2630 C   0  0  0  0  0  3  0  0  0  0  0  0
   38.3850   30.0040   40.8290 C   0  0  0  0  0  0  0  0  0  0  0  0
   38.9630   30.6770   40.1870 H   0  0  0  0  0  0  0  0  0  0  0  0
   37.1310   30.4460   41.1890 C   0  0  0  0  0  0  0  0  0  0  0  0
   36.6420   31.5650   40.8160 O   0  0  0  0  0  0  0  0  0  0  0  0
   36.4040   29.6170   41.9890 N   0  0  0  0  0  0  0  0  0  0  0  0
   36.8670   28.4250   42.4160 C   0  0  0  0  0  0  0  0  0  0  0  0
   36.2370   27.6410   43.1440 O   0  0  0  0  0  0  0  0  0  0  0  0
   35.4620   29.9090   42.2820 H   0  0  0  0  0  0  0  0  0  0  0  0
   37.3500   25.7170   40.7550 O   0  0  0  0  0  0  0  0  0  0  0  0
   36.8130   24.9150   40.4910 H   0  0  0  0  0  0  0  0  0  0  0  0
  1  6  1  0  0  0  0
  2  1  2  0  0  0  0
  2  3  1  0  0  0  0
  3  4  2  0  0  0  0
  4  5  1  0  0  0  0
  5  8  1  0  0  0  0
  6  5  2  0  0  0  0
  7  1  1  0  0  0  0
  9 16  1  0  0  0  0
  9  3  1  0  0  0  0
 10  9  1  0  0  0  0
 11 13  1  0  0  0  0
 11 10  2  0  0  0  0
 12 11  1  0  0  0  0
 13 15  1  0  0  0  0
 14 13  2  0  0  0  0
 15 18  1  0  0  0  0
 15 16  1  0  0  0  0
 16 17  2  0  0  0  0
 19  2  1  0  0  0  0
 20 19  1  0  0  0  0
M  END
>  <minimizedAffinity>
-4.35725784

$$$$

 OpenBabel03252504053D

 20 21  0  0  0  0  0  0  0  0999 V2000
   35.0350   29.2200   40.0520 C   0  0  0  0  0  0  0  0  0  0  0  0
   35.9650   30.2630   40.3010 C   0  0  0  0  0  0  0  0  0  0  0  0
   37.1020   30.2920   39.4860 C   0  0  0  0  0  0  0  0  0  0  0  0
   37.2720   29.3630   38.5260 N   0  0  0  0  0  0  0  0  0  0  0  0
   36.3510   28.3740   38.3200 C   0  0  0  0  0  0  0  0  0  0  0  0
   35.2480   28.3250   39.0910 N   0  0  0  0  0  0  0  0  0  0  0  0
   34.1660   29.2230   40.6980 H   0  0  0  0  0  0  0  0  0  0  0  0
   36.5360   27.6490   37.5320 H   0  0  0  0  0  0  0  0  0  0  0  0
   38.0370   31.3390   39.7340 N   0  0  0  0  0  0  0  0  0  0  0  0
   39.1090   30.9230   40.4700 C   0  0  0  0  0  3  0  0  0  0  0  0
   40.1040   31.8050   40.8000 C   0  0  0  0  0  0  0  0  0  0  0  0
   40.9840   31.5240   41.3880 H   0  0  0  0  0  0  0  0  0  0  0  0
   40.0460   33.1210   40.3960 C   0  0  0  0  0  0  0  0  0  0  0  0
   40.9420   33.9850   40.6740 O   0  0  0  0  0  0  0  0  0  0  0  0
   38.9550   33.4810   39.6640 N   0  0  0  0  0  0  0  0  0  0  0  0
   37.9750   32.6120   39.3410 C   0  0  0  0  0  0  0  0  0  0  0  0
   36.9660   32.8990   38.6760 O   0  0  0  0  0  0  0  0  0  0  0  0
   38.8700   34.4540   39.3430 H   0  0  0  0  0  0  0  0  0  0  0  0
   35.7890   31.2110   41.2820 O   0  0  0  0  0  0  0  0  0  0  0  0
   35.1990   31.0370   42.0710 H   0  0  0  0  0  0  0  0  0  0  0  0
  1  2  1  0  0  0  0
  1  7  1  0  0  0  0
  2 19  1  0  0  0  0
  3  9  1  0  0  0  0
  3  2  2  0  0  0  0
  4  3  1  0  0  0  0
  5  4  2  0  0  0  0
  5  6  1  0  0  0  0
  6  1  2  0  0  0  0
  8  5  1  0  0  0  0
  9 10  1  0  0  0  0
 10 11  2  0  0  0  0
 11 12  1  0  0  0  0
 13 14  2  0  0  0  0
 13 11  1  0  0  0  0
 15 13  1  0  0  0  0
 16 15  1  0  0  0  0
 16  9  1  0  0  0  0
 17 16  2  0  0  0  0
 18 15  1  0  0  0  0
 19 20  1  0  0  0  0
M  END
>  <minimizedAffinity>
-4.3301692

$$$$
