
 OpenBabel03252506283D

 48 52  0  0  0  0  0  0  0  0999 V2000
   45.8580   32.5120   46.2150 C   0  0  0  0  0  0  0  0  0  0  0  0
   45.1590   33.3860   47.0560 C   0  0  0  0  0  0  0  0  0  0  0  0
   44.8540   34.5110   46.3730 C   0  0  0  0  0  0  0  0  0  0  0  0
   45.3480   34.3370   45.1460 N   0  0  0  0  0  0  0  0  0  0  0  0
   45.9510   33.1500   45.0330 N   0  0  0  0  0  0  0  0  0  0  0  0
   44.9100   33.1710   48.1040 H   0  0  0  0  0  0  0  0  0  0  0  0
   44.3150   35.3480   46.7930 H   0  0  0  0  0  0  0  0  0  0  0  0
   48.1270   29.8480   47.2540 C   0  0  0  0  0  0  0  0  0  0  0  0
   47.2990   28.7360   47.3430 C   0  0  0  0  0  0  0  0  0  0  0  0
   45.9520   28.9170   47.0410 C   0  0  0  0  0  0  0  0  0  0  0  0
   45.5400   30.1620   46.6810 N   0  0  0  0  0  0  0  0  0  0  0  0
   46.3500   31.2030   46.6050 C   0  0  0  0  0  0  0  0  0  0  0  0
   47.6590   31.0400   46.8950 N   0  0  0  0  0  0  0  0  0  0  0  0
   49.1740   29.6610   47.4990 H   0  0  0  0  0  0  0  0  0  0  0  0
   47.5710   27.7330   47.6210 H   0  0  0  0  0  0  0  0  0  0  0  0
   44.9570   27.8780   47.0820 N   0  0  0  0  0  0  0  0  0  0  0  0
   44.7300   27.1060   48.1580 C   0  0  0  0  0  3  0  0  0  0  0  0
   43.7540   26.1190   48.1340 C   0  0  0  0  0  0  0  0  0  0  0  0
   43.5760   25.5010   49.0020 H   0  0  0  0  0  0  0  0  0  0  0  0
   43.0220   25.9510   46.9780 C   0  0  0  0  0  0  0  0  0  0  0  0
   42.1210   25.0770   46.8830 O   0  0  0  0  0  0  0  0  0  0  0  0
   43.3000   26.7630   45.9300 N   0  0  0  0  0  0  0  0  0  0  0  0
   44.2590   27.7330   45.9500 C   0  0  0  0  0  0  0  0  0  0  0  0
   44.3720   28.3860   44.8820 O   0  0  0  0  0  0  0  0  0  0  0  0
   42.7140   26.5980   45.0640 H   0  0  0  0  0  0  0  0  0  0  0  0
   45.2620   35.2950   44.0470 C   0  0  0  0  0  0  0  0  0  0  0  0
   46.0170   36.1060   44.1710 H   0  0  0  0  0  0  0  0  0  0  0  0
   44.2850   35.7760   44.0340 H   0  0  0  0  0  0  0  0  0  0  0  0
   45.5160   34.6320   42.7500 C   0  0  0  0  0  0  0  0  0  0  0  0
   45.8710   33.5880   42.9600 H   0  0  0  0  0  0  0  0  0  0  0  0
   46.4030   35.1240   42.2840 H   0  0  0  0  0  0  0  0  0  0  0  0
   44.3780   34.0410   40.5400 C   0  0  0  0  0  0  0  0  0  0  0  0
   44.4490   34.6490   41.7690 C   0  0  0  0  0  0  0  0  0  0  0  0
   43.3360   35.4020   42.1550 C   0  0  0  0  0  0  0  0  0  0  0  0
   42.2240   35.5280   41.3410 C   0  0  0  0  0  0  0  0  0  0  0  0
   41.0470   36.1640   41.4400 N   0  0  0  0  0  0  0  0  0  0  0  0
   40.2920   35.9740   40.3610 C   0  0  0  0  0  0  0  0  0  0  0  0
   40.9960   35.1630   39.4750 C   0  0  0  0  0  0  0  0  0  0  0  0
   42.1770   34.9140   40.1210 C   0  0  0  0  0  0  0  0  0  0  0  0
   43.2730   34.1690   39.7350 C   0  0  0  0  0  0  0  0  0  0  0  0
   45.2570   33.4680   40.2770 H   0  0  0  0  0  0  0  0  0  0  0  0
   43.2490   35.9360   43.0960 H   0  0  0  0  0  0  0  0  0  0  0  0
   40.7350   36.7470   42.2610 H   0  0  0  0  0  0  0  0  0  0  0  0
   39.2960   36.3450   40.1230 H   0  0  0  0  0  0  0  0  0  0  0  0
   40.6600   34.8220   38.5040 H   0  0  0  0  0  0  0  0  0  0  0  0
   43.2510   33.4990   38.4330 C   0  0  0  0  0  0  0  0  0  0  0  0
   44.3260   33.3340   37.7810 O   0  0  0  0  0  0  0  0  0  0  0  0
   42.3250   33.1380   38.0070 H   0  0  0  0  0  0  0  0  0  0  0  0
  1 12  1  0  0  0  0
  1  2  1  0  0  0  0
  2  6  1  0  0  0  0
  3  7  1  0  0  0  0
  3  2  2  0  0  0  0
  4  3  1  0  0  0  0
  5  4  1  0  0  0  0
  5  1  2  0  0  0  0
  8  9  1  0  0  0  0
  8 14  1  0  0  0  0
  9 15  1  0  0  0  0
 10 16  1  0  0  0  0
 10  9  2  0  0  0  0
 11 10  1  0  0  0  0
 12 11  2  0  0  0  0
 12 13  1  0  0  0  0
 13  8  2  0  0  0  0
 16 17  1  0  0  0  0
 18 17  2  0  0  0  0
 18 19  1  0  0  0  0
 20 18  1  0  0  0  0
 21 20  2  0  0  0  0
 22 23  1  0  0  0  0
 22 20  1  0  0  0  0
 23 16  1  0  0  0  0
 24 23  2  0  0  0  0
 25 22  1  0  0  0  0
 26 27  1  0  0  0  0
 26  4  1  0  0  0  0
 28 26  1  0  0  0  0
 29 30  1  0  0  0  0
 29 26  1  0  0  0  0
 31 29  1  0  0  0  0
 32 33  1  0  0  0  0
 33 34  2  0  0  0  0
 33 29  1  0  0  0  0
 34 42  1  0  0  0  0
 35 36  1  0  0  0  0
 35 34  1  0  0  0  0
 36 43  1  0  0  0  0
 37 36  1  0  0  0  0
 38 39  1  0  0  0  0
 38 37  2  0  0  0  0
 39 35  2  0  0  0  0
 40 39  1  0  0  0  0
 40 32  2  0  0  0  0
 41 32  1  0  0  0  0
 44 37  1  0  0  0  0
 45 38  1  0  0  0  0
 46 40  1  0  0  0  0
 47 46  2  0  0  0  0
 48 46  1  0  0  0  0
M  END
>  <minimizedAffinity>
-6.23167181

>  <minimizedRMSD>
9.09474373

$$$$
