
 OpenBabel03252504103D

 26 27  0  0  0  0  0  0  0  0999 V2000
   47.1880   34.0510   43.2430 C   0  0  0  0  0  0  0  0  0  0  0  0
   45.7950   34.1410   43.1180 C   0  0  0  0  0  0  0  0  0  0  0  0
   45.0120   33.1430   43.7230 C   0  0  0  0  0  0  0  0  0  0  0  0
   45.6410   32.1480   44.3930 N   0  0  0  0  0  0  0  0  0  0  0  0
   46.9980   32.0970   44.4920 C   0  0  0  0  0  0  0  0  0  0  0  0
   47.7580   33.0410   43.9210 N   0  0  0  0  0  0  0  0  0  0  0  0
   43.9480   33.1990   43.6360 H   0  0  0  0  0  0  0  0  0  0  0  0
   47.6040   31.0270   45.2100 N   0  0  0  0  0  0  0  0  0  0  0  0
   48.4340   30.1730   44.5840 C   0  0  0  0  0  3  0  0  0  0  0  0
   49.0530   29.1090   45.2340 C   0  0  0  0  0  0  0  0  0  0  0  0
   49.7190   28.4300   44.7140 H   0  0  0  0  0  0  0  0  0  0  0  0
   48.7440   29.0050   46.5760 C   0  0  0  0  0  0  0  0  0  0  0  0
   49.2890   28.0460   47.2140 O   0  0  0  0  0  0  0  0  0  0  0  0
   47.9190   29.8480   47.2200 N   0  0  0  0  0  0  0  0  0  0  0  0
   47.3520   30.8650   46.5080 C   0  0  0  0  0  0  0  0  0  0  0  0
   46.5750   31.6660   47.0920 O   0  0  0  0  0  0  0  0  0  0  0  0
   47.7310   29.7090   48.2320 H   0  0  0  0  0  0  0  0  0  0  0  0
   45.2080   35.2760   42.3590 C   0  0  0  0  0  0  0  0  0  0  0  0
   45.7530   36.4690   42.7860 F   0  0  0  0  0  0  0  0  0  0  0  0
   45.5470   35.1240   41.0200 F   0  0  0  0  0  0  0  0  0  0  0  0
   43.8500   35.3820   42.4640 F   0  0  0  0  0  0  0  0  0  0  0  0
   47.9240   35.0160   42.6580 O   0  0  0  0  0  0  0  0  0  0  0  0
   48.8640   34.8560   41.6300 C   0  0  0  0  0  0  0  0  0  0  0  0
   50.1180   34.7590   42.2250 F   0  0  0  0  0  0  0  0  0  0  0  0
   48.5350   33.7640   40.8620 F   0  0  0  0  0  0  0  0  0  0  0  0
   48.9320   36.0200   40.8740 F   0  0  0  0  0  0  0  0  0  0  0  0
  1  6  1  0  0  0  0
  2  1  2  0  0  0  0
  2  3  1  0  0  0  0
  3  4  2  0  0  0  0
  4  5  1  0  0  0  0
  5  8  1  0  0  0  0
  6  5  2  0  0  0  0
  7  3  1  0  0  0  0
  8 15  1  0  0  0  0
  9  8  1  0  0  0  0
  9 10  2  0  0  0  0
 10 12  1  0  0  0  0
 11 10  1  0  0  0  0
 12 13  2  0  0  0  0
 12 14  1  0  0  0  0
 14 17  1  0  0  0  0
 15 16  2  0  0  0  0
 15 14  1  0  0  0  0
 18 21  1  0  0  0  0
 18 19  1  0  0  0  0
 18  2  1  0  0  0  0
 20 18  1  0  0  0  0
 22  1  1  0  0  0  0
 23 24  1  0  0  0  0
 23 22  1  0  0  0  0
 25 23  1  0  0  0  0
 26 23  1  0  0  0  0
M  END
>  <minimizedAffinity>
-5.20099115

>  <minimizedRMSD>
0.890664101

$$$$
