
 OpenBabel03252509033D

 49 51  0  0  1  0  0  0  0  0999 V2000
   48.3430   34.0370   42.2370 N   0  0  0  0  0  0  0  0  0  0  0  0
   48.4030   34.6300   40.9570 C   0  0  0  0  0  0  0  0  0  0  0  0
   47.1820   34.3620   40.0940 C   0  0  0  0  0  0  0  0  0  0  0  0
   45.8860   34.2940   40.8660 C   0  0  0  0  0  0  0  0  0  0  0  0
   46.1060   34.6190   42.3330 C   0  0  0  0  0  0  0  0  0  0  0  0
   47.1810   33.5420   42.7730 C   0  0  2  0  0  0  0  0  0  0  0  0
   48.4650   35.7360   41.1000 H   0  0  0  0  0  0  0  0  0  0  0  0
   49.2690   34.3620   40.3420 H   0  0  0  0  0  0  0  0  0  0  0  0
   47.3290   33.4610   39.4530 H   0  0  0  0  0  0  0  0  0  0  0  0
   47.0840   35.2040   39.3740 H   0  0  0  0  0  0  0  0  0  0  0  0
   45.5360   33.2390   40.8280 H   0  0  0  0  0  0  0  0  0  0  0  0
   45.0780   34.9010   40.4250 H   0  0  0  0  0  0  0  0  0  0  0  0
   45.1790   34.4460   42.8890 H   0  0  0  0  0  0  0  0  0  0  0  0
   46.5370   35.6120   42.4580 H   0  0  0  0  0  0  0  0  0  0  0  0
   46.8420   32.5640   42.3760 H   0  0  0  0  0  0  0  0  0  0  0  0
   49.6010   33.5170   42.7050 C   0  0  0  0  0  0  0  0  0  0  0  0
   49.6490   33.7460   43.7890 H   0  0  0  0  0  0  0  0  0  0  0  0
   50.3970   34.0760   42.1700 H   0  0  0  0  0  0  0  0  0  0  0  0
   49.6260   32.0570   42.4300 C   0  0  0  0  0  0  0  0  0  0  0  0
   48.6040   31.6500   42.2210 H   0  0  0  0  0  0  0  0  0  0  0  0
   50.0370   31.4870   43.2690 H   0  0  0  0  0  0  0  0  0  0  0  0
   52.5430   31.4700   40.1370 C   0  0  0  0  0  0  0  0  0  0  0  0
   51.7770   31.7120   41.2930 C   0  0  0  0  0  0  0  0  0  0  0  0
   50.4130   31.8020   41.1970 C   0  0  0  0  0  0  0  0  0  0  0  0
   49.8690   31.6490   39.9860 N   0  0  0  0  0  0  0  0  0  0  0  0
   50.5870   31.4190   38.8810 C   0  0  0  0  0  0  0  0  0  0  0  0
   51.9340   31.3260   38.9390 N   0  0  0  0  0  0  0  0  0  0  0  0
   53.6090   31.4150   40.2980 H   0  0  0  0  0  0  0  0  0  0  0  0
   52.2390   31.8340   42.2700 H   0  0  0  0  0  0  0  0  0  0  0  0
   50.1610   31.2950   37.8930 H   0  0  0  0  0  0  0  0  0  0  0  0
   47.1120   33.6580   44.1480 O   0  0  0  0  0  0  0  0  0  0  0  0
   45.3260   31.6860   43.9960 O   0  0  0  0  0  0  0  0  0  0  0  0
   46.4090   32.3230   44.8780 P   0  0  2  0  0  0  0  0  0  0  0  0
   45.5250   32.9450   46.2170 O   0  0  0  0  0  0  0  0  0  0  0  0
   46.0920   32.9920   47.0110 H   0  0  0  0  0  0  0  0  0  0  0  0
   47.5080   31.2150   45.4580 O   0  0  0  0  0  0  0  0  0  0  0  0
   46.8810   30.4130   46.4000 C   0  0  0  0  0  0  0  0  0  0  0  0
   45.9510   30.9050   46.7920 H   0  0  0  0  0  0  0  0  0  0  0  0
   46.6260   29.4250   45.9880 H   0  0  0  0  0  0  0  0  0  0  0  0
   47.7890   30.2710   47.5240 N   0  0  0  0  0  0  0  0  0  0  0  0
   48.9580   29.6090   47.5360 C   0  0  0  0  0  3  0  0  0  0  0  0
   49.7250   29.5560   48.6880 C   0  0  0  0  0  0  0  0  0  0  0  0
   50.6590   29.0170   48.6710 H   0  0  0  0  0  0  0  0  0  0  0  0
   49.3070   30.1840   49.8540 C   0  0  0  0  0  0  0  0  0  0  0  0
   49.9940   30.1430   50.9030 O   0  0  0  0  0  0  0  0  0  0  0  0
   48.1350   30.8340   49.7960 N   0  0  0  0  0  0  0  0  0  0  0  0
   47.3940   30.8800   48.6730 C   0  0  0  0  0  0  0  0  0  0  0  0
   46.3260   31.5210   48.7690 O   0  0  0  0  0  0  0  0  0  0  0  0
   47.8500   31.2950   50.6930 H   0  0  0  0  0  0  0  0  0  0  0  0
  1 16  1  0  0  0  0
  1  6  1  0  0  0  0
  2  7  1  0  0  0  0
  2  1  1  0  0  0  0
  3  4  1  0  0  0  0
  3  2  1  0  0  0  0
  4  5  1  0  0  0  0
  5 14  1  0  0  0  0
  5  6  1  0  0  0  0
  5 13  1  0  0  0  0
  6 15  1  6  0  0  0
  6 31  1  0  0  0  0
  8  2  1  0  0  0  0
  9  3  1  0  0  0  0
 10  3  1  0  0  0  0
 11  4  1  0  0  0  0
 12  4  1  0  0  0  0
 16 17  1  0  0  0  0
 18 16  1  0  0  0  0
 19 16  1  0  0  0  0
 19 21  1  0  0  0  0
 20 19  1  0  0  0  0
 22 28  1  0  0  0  0
 22 23  1  0  0  0  0
 23 29  1  0  0  0  0
 24 23  2  0  0  0  0
 24 19  1  0  0  0  0
 25 24  1  0  0  0  0
 26 27  1  0  0  0  0
 26 25  2  0  0  0  0
 27 22  2  0  0  0  0
 30 26  1  0  0  0  0
 31 33  1  0  0  0  0
 33 32  2  6  0  0  0
 33 36  1  0  0  0  0
 33 34  1  0  0  0  0
 34 35  1  0  0  0  0
 36 37  1  0  0  0  0
 37 38  1  0  0  0  0
 37 40  1  0  0  0  0
 39 37  1  0  0  0  0
 40 41  1  0  0  0  0
 40 47  1  0  0  0  0
 41 42  2  0  0  0  0
 42 44  1  0  0  0  0
 43 42  1  0  0  0  0
 44 45  2  0  0  0  0
 46 44  1  0  0  0  0
 46 49  1  0  0  0  0
 47 48  2  0  0  0  0
 47 46  1  0  0  0  0
M  END
>  <minimizedAffinity>
-5.26144791

>  <minimizedRMSD>
3.11793876

$$$$
