
 OpenBabel03242521053D

 35 38  0  0  1  0  0  0  0  0999 V2000
   46.8200   34.8520   42.1510 C   0  0  0  0  0  0  0  0  0  0  0  0
   48.0370   35.4780   41.9740 C   0  0  0  0  0  0  0  0  0  0  0  0
   48.8070   35.4070   40.8380 C   0  0  0  0  0  0  0  0  0  0  0  0
   48.3500   34.6550   39.7770 C   0  0  0  0  0  0  0  0  0  0  0  0
   47.1320   34.0370   39.9710 C   0  0  0  0  0  0  0  0  0  0  0  0
   46.4220   34.1360   41.0920 N   0  0  0  0  0  0  0  0  0  0  0  0
   48.4400   36.0840   42.7860 H   0  0  0  0  0  0  0  0  0  0  0  0
   49.7550   35.9300   40.7770 H   0  0  0  0  0  0  0  0  0  0  0  0
   48.9760   34.6210   38.9050 H   0  0  0  0  0  0  0  0  0  0  0  0
   44.4490   35.9030   44.8870 C   0  0  0  0  0  0  0  0  0  0  0  0
   45.1250   35.9470   43.6480 C   0  0  0  0  0  0  0  0  0  0  0  0
   46.0410   34.9570   43.3700 C   0  0  0  0  0  0  0  0  0  0  0  0
   46.2350   34.0040   44.3030 N   0  0  0  0  0  0  0  0  0  0  0  0
   45.5850   33.9670   45.4880 C   0  0  0  0  0  0  0  0  0  0  0  0
   44.6980   34.9260   45.7580 N   0  0  0  0  0  0  0  0  0  0  0  0
   43.7280   36.6790   45.1070 H   0  0  0  0  0  0  0  0  0  0  0  0
   44.9650   36.7000   42.9190 H   0  0  0  0  0  0  0  0  0  0  0  0
   45.8400   33.1340   46.1580 H   0  0  0  0  0  0  0  0  0  0  0  0
   46.6200   33.2200   38.8350 C   0  0  2  0  0  0  0  0  0  0  0  0
   46.3630   31.7840   39.1280 C   0  0  0  0  0  0  0  0  0  0  0  0
   47.4790   32.2090   38.2190 C   0  0  1  0  0  0  0  0  0  0  0  0
   45.8140   33.7010   38.2070 H   0  0  0  0  0  0  0  0  0  0  0  0
   45.4780   31.2680   38.7230 H   0  0  0  0  0  0  0  0  0  0  0  0
   46.6550   31.4120   40.1430 H   0  0  0  0  0  0  0  0  0  0  0  0
   48.5100   32.1020   38.6240 H   0  0  0  0  0  0  0  0  0  0  0  0
   47.3390   31.7960   36.8500 N   0  0  0  0  0  0  0  0  0  0  0  0
   46.6050   30.7400   36.4570 C   0  0  0  0  0  0  0  0  0  0  0  0
   46.4790   30.3500   35.1210 C   0  0  0  0  0  0  0  0  0  0  0  0
   45.8800   29.4970   34.8460 H   0  0  0  0  0  0  0  0  0  0  0  0
   47.1310   31.0720   34.1410 C   0  0  0  0  0  0  0  0  0  0  0  0
   47.0440   30.7550   32.9290 O   0  0  0  0  0  0  0  0  0  0  0  0
   47.8640   32.1250   34.5450 N   0  0  0  0  0  0  0  0  0  0  0  0
   47.9440   32.4480   35.8490 C   0  0  0  0  0  0  0  0  0  0  0  0
   48.6680   33.4630   36.0820 O   0  0  0  0  0  0  0  0  0  0  0  0
   48.3510   32.6600   33.7910 H   0  0  0  0  0  0  0  0  0  0  0  0
  1 12  1  0  0  0  0
  2  1  1  0  0  0  0
  2  7  1  0  0  0  0
  3  2  2  0  0  0  0
  4  5  2  0  0  0  0
  4  3  1  0  0  0  0
  5  6  1  0  0  0  0
  6  1  2  0  0  0  0
  8  3  1  0  0  0  0
  9  4  1  0  0  0  0
 10 16  1  0  0  0  0
 10 15  1  0  0  0  0
 11 10  2  0  0  0  0
 12 11  1  0  0  0  0
 12 13  2  0  0  0  0
 13 14  1  0  0  0  0
 14 15  2  0  0  0  0
 14 18  1  0  0  0  0
 17 11  1  0  0  0  0
 19 22  1  6  0  0  0
 19 20  1  0  0  0  0
 19  5  1  0  0  0  0
 20 24  1  0  0  0  0
 21 25  1  1  0  0  0
 21 19  1  0  0  0  0
 21 20  1  0  0  0  0
 23 20  1  0  0  0  0
 26 21  1  0  0  0  0
 27 26  1  0  0  0  0
 28 27  2  0  0  0  0
 29 28  1  0  0  0  0
 30 32  1  0  0  0  0
 30 28  1  0  0  0  0
 31 30  2  0  0  0  0
 32 33  1  0  0  0  0
 33 34  2  0  0  0  0
 33 26  1  0  0  0  0
 35 32  1  0  0  0  0
M  END
>  <minimizedAffinity>
-5.97859383

>  <minimizedRMSD>
2.07596159

$$$$
