
 OpenBabel03252502153D

 25 26  0  0  0  0  0  0  0  0999 V2000
   46.7950   35.0790   42.6260 C   0  0  0  0  0  0  0  0  0  0  0  0
   47.0220   34.0310   43.5220 C   0  0  0  0  0  0  0  0  0  0  0  0
   46.1020   33.8060   44.5540 C   0  0  0  0  0  0  0  0  0  0  0  0
   45.0220   34.6320   44.6300 N   0  0  0  0  0  0  0  0  0  0  0  0
   44.8380   35.6290   43.7490 C   0  0  0  0  0  0  0  0  0  0  0  0
   45.7070   35.8660   42.7490 N   0  0  0  0  0  0  0  0  0  0  0  0
   47.5060   35.2580   41.8240 H   0  0  0  0  0  0  0  0  0  0  0  0
   43.9730   36.2770   43.8250 H   0  0  0  0  0  0  0  0  0  0  0  0
   46.3610   32.7280   45.4510 N   0  0  0  0  0  0  0  0  0  0  0  0
   46.9740   32.8260   46.6460 C   0  0  0  0  0  0  0  0  0  0  0  0
   47.1580   31.7000   47.4110 C   0  0  0  0  0  0  0  0  0  0  0  0
   47.6480   31.7960   48.3580 H   0  0  0  0  0  0  0  0  0  0  0  0
   46.7220   30.4680   46.9710 C   0  0  0  0  0  0  0  0  0  0  0  0
   46.8740   29.4110   47.6460 O   0  0  0  0  0  0  0  0  0  0  0  0
   46.1120   30.4170   45.7660 N   0  0  0  0  0  0  0  0  0  0  0  0
   45.9230   31.5270   44.9950 C   0  0  0  0  0  0  0  0  0  0  0  0
   45.3410   31.3660   43.8870 O   0  0  0  0  0  0  0  0  0  0  0  0
   45.7850   29.4970   45.4300 H   0  0  0  0  0  0  0  0  0  0  0  0
   48.1680   33.2680   43.3220 O   0  0  0  0  0  0  0  0  0  0  0  0
   50.6230   32.8830   42.4630 O   0  0  0  0  0  0  0  0  0  0  0  0
   49.5170   33.8750   42.4790 P   0  0  0  0  0  0  0  0  0  0  0  0
   49.0960   34.2370   40.8690 O   0  0  0  0  0  0  0  0  0  0  0  0
   48.7620   33.3740   40.4880 H   0  0  0  0  0  0  0  0  0  0  0  0
   50.0730   35.2990   43.2160 O   0  0  0  0  0  0  0  0  0  0  0  0
   50.9350   35.5690   42.8610 H   0  0  0  0  0  0  0  0  0  0  0  0
  1  6  2  0  0  0  0
  1  2  1  0  0  0  0
  2  3  2  0  0  0  0
  3  4  1  0  0  0  0
  3  9  1  0  0  0  0
  5  8  1  0  0  0  0
  5  4  2  0  0  0  0
  6  5  1  0  0  0  0
  7  1  1  0  0  0  0
  9 10  1  0  0  0  0
 10 11  2  0  0  0  0
 11 12  1  0  0  0  0
 13 11  1  0  0  0  0
 13 14  2  0  0  0  0
 15 13  1  0  0  0  0
 16  9  1  0  0  0  0
 16 15  1  0  0  0  0
 17 16  2  0  0  0  0
 18 15  1  0  0  0  0
 19  2  1  0  0  0  0
 20 21  2  0  0  0  0
 21 24  1  0  0  0  0
 21 19  1  0  0  0  0
 22 21  1  0  0  0  0
 23 22  1  0  0  0  0
 25 24  1  0  0  0  0
M  END
>  <minimizedAffinity>
-5.43169069

>  <minimizedRMSD>
0.860454977

$$$$
