
 OpenBabel03242518433D

 20 21  0  0  0  0  0  0  0  0999 V2000
   37.8640   33.4070   39.9130 C   0  0  0  0  0  0  0  0  0  0  0  0
   39.1830   33.9310   39.9020 C   0  0  0  0  0  0  0  0  0  0  0  0
   40.1680   33.1440   40.5600 C   0  0  0  0  0  0  0  0  0  0  0  0
   39.8090   31.9810   41.1400 N   0  0  0  0  0  0  0  0  0  0  0  0
   38.5330   31.5420   41.1110 C   0  0  0  0  0  0  0  0  0  0  0  0
   37.5790   32.2500   40.5040 N   0  0  0  0  0  0  0  0  0  0  0  0
   39.4520   34.8620   39.4350 H   0  0  0  0  0  0  0  0  0  0  0  0
   41.2000   33.4800   40.5930 H   0  0  0  0  0  0  0  0  0  0  0  0
   38.0850   30.3200   41.7050 N   0  0  0  0  0  0  0  0  0  0  0  0
   36.9750   29.8360   41.0760 C   0  0  0  0  0  3  0  0  0  0  0  0
   36.4340   28.6450   41.5570 C   0  0  0  0  0  0  0  0  0  0  0  0
   35.5460   28.2250   41.0820 H   0  0  0  0  0  0  0  0  0  0  0  0
   37.0590   28.0460   42.6290 C   0  0  0  0  0  0  0  0  0  0  0  0
   36.5240   26.9630   43.0260 O   0  0  0  0  0  0  0  0  0  0  0  0
   38.1560   28.5440   43.2330 N   0  0  0  0  0  0  0  0  0  0  0  0
   38.6580   29.6960   42.7490 C   0  0  0  0  0  0  0  0  0  0  0  0
   39.6710   30.2520   43.2290 O   0  0  0  0  0  0  0  0  0  0  0  0
   38.6010   28.0700   44.0370 H   0  0  0  0  0  0  0  0  0  0  0  0
   36.9080   34.1610   39.2800 O   0  0  0  0  0  0  0  0  0  0  0  0
   36.0390   33.6800   38.9960 H   0  0  0  0  0  0  0  0  0  0  0  0
  1  6  1  0  0  0  0
  2  1  2  0  0  0  0
  2  3  1  0  0  0  0
  3  8  1  0  0  0  0
  3  4  2  0  0  0  0
  5  4  1  0  0  0  0
  5  9  1  0  0  0  0
  6  5  2  0  0  0  0
  7  2  1  0  0  0  0
  9 16  1  0  0  0  0
 10 11  2  0  0  0  0
 10  9  1  0  0  0  0
 11 13  1  0  0  0  0
 12 11  1  0  0  0  0
 13 14  2  0  0  0  0
 13 15  1  0  0  0  0
 15 18  1  0  0  0  0
 16 17  2  0  0  0  0
 16 15  1  0  0  0  0
 19  1  1  0  0  0  0
 20 19  1  0  0  0  0
M  END
>  <minimizedAffinity>
-4.98896408

$$$$

 OpenBabel03242518433D

 20 21  0  0  0  0  0  0  0  0999 V2000
   40.2210   32.7720   40.6090 C   0  0  0  0  0  0  0  0  0  0  0  0
   39.5220   33.8520   40.0090 C   0  0  0  0  0  0  0  0  0  0  0  0
   38.1080   33.7150   39.9450 C   0  0  0  0  0  0  0  0  0  0  0  0
   37.5260   32.6050   40.4400 N   0  0  0  0  0  0  0  0  0  0  0  0
   38.2540   31.6150   40.9990 C   0  0  0  0  0  0  0  0  0  0  0  0
   39.5830   31.7040   41.0790 N   0  0  0  0  0  0  0  0  0  0  0  0
   40.0030   34.7300   39.6180 H   0  0  0  0  0  0  0  0  0  0  0  0
   37.5050   34.5000   39.4990 H   0  0  0  0  0  0  0  0  0  0  0  0
   37.7000   30.4130   41.5430 N   0  0  0  0  0  0  0  0  0  0  0  0
   38.5040   29.8870   42.5130 C   0  0  0  0  0  3  0  0  0  0  0  0
   38.0790   28.7110   43.1280 C   0  0  0  0  0  0  0  0  0  0  0  0
   38.6930   28.2580   43.9080 H   0  0  0  0  0  0  0  0  0  0  0  0
   36.8830   28.1680   42.7120 C   0  0  0  0  0  0  0  0  0  0  0  0
   36.5460   27.0950   43.3060 O   0  0  0  0  0  0  0  0  0  0  0  0
   36.1080   28.7060   41.7510 N   0  0  0  0  0  0  0  0  0  0  0  0
   36.5410   29.8430   41.1730 C   0  0  0  0  0  0  0  0  0  0  0  0
   35.9050   30.4330   40.2700 O   0  0  0  0  0  0  0  0  0  0  0  0
   35.2140   28.2720   41.4610 H   0  0  0  0  0  0  0  0  0  0  0  0
   41.5860   32.8960   40.6750 O   0  0  0  0  0  0  0  0  0  0  0  0
   42.0810   32.3090   41.3660 H   0  0  0  0  0  0  0  0  0  0  0  0
  1 19  1  0  0  0  0
  1  6  1  0  0  0  0
  2  1  2  0  0  0  0
  3  2  1  0  0  0  0
  3  4  2  0  0  0  0
  4  5  1  0  0  0  0
  5  6  2  0  0  0  0
  5  9  1  0  0  0  0
  7  2  1  0  0  0  0
  8  3  1  0  0  0  0
  9 10  1  0  0  0  0
 10 11  2  0  0  0  0
 11 12  1  0  0  0  0
 13 11  1  0  0  0  0
 13 14  2  0  0  0  0
 15 13  1  0  0  0  0
 16  9  1  0  0  0  0
 16 15  1  0  0  0  0
 17 16  2  0  0  0  0
 18 15  1  0  0  0  0
 19 20  1  0  0  0  0
M  END
>  <minimizedAffinity>
-4.96883726

$$$$

 OpenBabel03242518433D

 20 21  0  0  0  0  0  0  0  0999 V2000
   36.8800   29.6520   41.4360 C   0  0  0  0  0  0  0  0  0  0  0  0
   35.7640   28.9860   40.8650 C   0  0  0  0  0  0  0  0  0  0  0  0
   35.6730   29.0340   39.4460 C   0  0  0  0  0  0  0  0  0  0  0  0
   36.6190   29.6880   38.7430 N   0  0  0  0  0  0  0  0  0  0  0  0
   37.6560   30.3010   39.3530 C   0  0  0  0  0  0  0  0  0  0  0  0
   37.7780   30.2790   40.6810 N   0  0  0  0  0  0  0  0  0  0  0  0
   35.0190   28.4690   41.4410 H   0  0  0  0  0  0  0  0  0  0  0  0
   34.8470   28.5470   38.9370 H   0  0  0  0  0  0  0  0  0  0  0  0
   38.6910   31.0110   38.6680 N   0  0  0  0  0  0  0  0  0  0  0  0
   39.8510   31.0220   39.3880 C   0  0  0  0  0  3  0  0  0  0  0  0
   40.9440   31.6830   38.8310 C   0  0  0  0  0  0  0  0  0  0  0  0
   41.8900   31.7140   39.3760 H   0  0  0  0  0  0  0  0  0  0  0  0
   40.7740   32.2750   37.5990 C   0  0  0  0  0  0  0  0  0  0  0  0
   41.8030   32.8630   37.1400 O   0  0  0  0  0  0  0  0  0  0  0  0
   39.6180   32.2500   36.9070 N   0  0  0  0  0  0  0  0  0  0  0  0
   38.5770   31.6050   37.4680 C   0  0  0  0  0  0  0  0  0  0  0  0
   37.4550   31.5170   36.9190 O   0  0  0  0  0  0  0  0  0  0  0  0
   39.5230   32.7060   35.9830 H   0  0  0  0  0  0  0  0  0  0  0  0
   36.9750   29.6100   42.8040 O   0  0  0  0  0  0  0  0  0  0  0  0
   37.9030   29.7950   43.2190 H   0  0  0  0  0  0  0  0  0  0  0  0
  1 19  1  0  0  0  0
  2  1  1  0  0  0  0
  2  7  1  0  0  0  0
  3  2  2  0  0  0  0
  4  5  2  0  0  0  0
  4  3  1  0  0  0  0
  5  6  1  0  0  0  0
  6  1  2  0  0  0  0
  8  3  1  0  0  0  0
  9  5  1  0  0  0  0
  9 10  1  0  0  0  0
 11 12  1  0  0  0  0
 11 10  2  0  0  0  0
 13 11  1  0  0  0  0
 14 13  2  0  0  0  0
 15 16  1  0  0  0  0
 15 13  1  0  0  0  0
 16  9  1  0  0  0  0
 17 16  2  0  0  0  0
 18 15  1  0  0  0  0
 19 20  1  0  0  0  0
M  END
>  <minimizedAffinity>
-4.96391106

$$$$

 OpenBabel03242518433D

 20 21  0  0  0  0  0  0  0  0999 V2000
   39.2690   27.6570   42.8830 C   0  0  0  0  0  0  0  0  0  0  0  0
   38.4140   26.5560   42.6140 C   0  0  0  0  0  0  0  0  0  0  0  0
   37.2900   26.8320   41.7870 C   0  0  0  0  0  0  0  0  0  0  0  0
   37.1020   28.0820   41.3180 N   0  0  0  0  0  0  0  0  0  0  0  0
   37.9580   29.0840   41.6140 C   0  0  0  0  0  0  0  0  0  0  0  0
   39.0240   28.8670   42.3860 N   0  0  0  0  0  0  0  0  0  0  0  0
   38.5780   25.5660   42.9970 H   0  0  0  0  0  0  0  0  0  0  0  0
   36.5910   26.0400   41.5380 H   0  0  0  0  0  0  0  0  0  0  0  0
   37.8180   30.4290   41.1500 N   0  0  0  0  0  0  0  0  0  0  0  0
   39.0250   31.0630   41.0830 C   0  0  0  0  0  3  0  0  0  0  0  0
   39.0310   32.3860   40.6440 C   0  0  0  0  0  0  0  0  0  0  0  0
   39.9760   32.9280   40.5770 H   0  0  0  0  0  0  0  0  0  0  0  0
   37.8210   32.9530   40.3110 C   0  0  0  0  0  0  0  0  0  0  0  0
   37.8850   34.1610   39.9180 O   0  0  0  0  0  0  0  0  0  0  0  0
   36.6410   32.3060   40.3860 N   0  0  0  0  0  0  0  0  0  0  0  0
   36.6640   31.0300   40.8130 C   0  0  0  0  0  0  0  0  0  0  0  0
   35.6320   30.3300   40.9230 O   0  0  0  0  0  0  0  0  0  0  0  0
   35.7490   32.7630   40.1280 H   0  0  0  0  0  0  0  0  0  0  0  0
   40.3560   27.3990   43.6800 O   0  0  0  0  0  0  0  0  0  0  0  0
   41.1430   28.0650   43.6340 H   0  0  0  0  0  0  0  0  0  0  0  0
  1 19  1  0  0  0  0
  2  1  1  0  0  0  0
  2  7  1  0  0  0  0
  3  2  2  0  0  0  0
  4  5  2  0  0  0  0
  4  3  1  0  0  0  0
  5  6  1  0  0  0  0
  6  1  2  0  0  0  0
  8  3  1  0  0  0  0
  9  5  1  0  0  0  0
 10  9  1  0  0  0  0
 11 10  2  0  0  0  0
 12 11  1  0  0  0  0
 13 15  1  0  0  0  0
 13 11  1  0  0  0  0
 14 13  2  0  0  0  0
 15 16  1  0  0  0  0
 16 17  2  0  0  0  0
 16  9  1  0  0  0  0
 18 15  1  0  0  0  0
 20 19  1  0  0  0  0
M  END
>  <minimizedAffinity>
-4.91654968

$$$$

 OpenBabel03242518433D

 20 21  0  0  0  0  0  0  0  0999 V2000
   38.5650   24.4590   42.2000 C   0  0  0  0  0  0  0  0  0  0  0  0
   39.6360   24.2850   43.1150 C   0  0  0  0  0  0  0  0  0  0  0  0
   40.1700   25.4760   43.6800 C   0  0  0  0  0  0  0  0  0  0  0  0
   39.6480   26.6680   43.3270 N   0  0  0  0  0  0  0  0  0  0  0  0
   38.6260   26.7610   42.4490 C   0  0  0  0  0  0  0  0  0  0  0  0
   38.0970   25.6670   41.8970 N   0  0  0  0  0  0  0  0  0  0  0  0
   40.0410   23.3260   43.3840 H   0  0  0  0  0  0  0  0  0  0  0  0
   40.9910   25.4230   44.3870 H   0  0  0  0  0  0  0  0  0  0  0  0
   38.0270   27.9910   42.0340 N   0  0  0  0  0  0  0  0  0  0  0  0
   36.7310   27.8100   41.6450 C   0  0  0  0  0  3  0  0  0  0  0  0
   36.0280   28.9340   41.2150 C   0  0  0  0  0  0  0  0  0  0  0  0
   34.9890   28.8310   40.8960 H   0  0  0  0  0  0  0  0  0  0  0  0
   36.6910   30.1410   41.2150 C   0  0  0  0  0  0  0  0  0  0  0  0
   36.0020   31.1310   40.8130 O   0  0  0  0  0  0  0  0  0  0  0  0
   37.9730   30.2940   41.6030 N   0  0  0  0  0  0  0  0  0  0  0  0
   38.6290   29.1920   42.0130 C   0  0  0  0  0  0  0  0  0  0  0  0
   39.8210   29.2130   42.3960 O   0  0  0  0  0  0  0  0  0  0  0  0
   38.4420   31.2160   41.5890 H   0  0  0  0  0  0  0  0  0  0  0  0
   38.0450   23.3140   41.6520 O   0  0  0  0  0  0  0  0  0  0  0  0
   37.0950   23.3730   41.2500 H   0  0  0  0  0  0  0  0  0  0  0  0
  1  2  1  0  0  0  0
  2  7  1  0  0  0  0
  2  3  2  0  0  0  0
  3  8  1  0  0  0  0
  4  3  1  0  0  0  0
  5  4  2  0  0  0  0
  6  1  2  0  0  0  0
  6  5  1  0  0  0  0
  9  5  1  0  0  0  0
 10  9  1  0  0  0  0
 11 10  2  0  0  0  0
 12 11  1  0  0  0  0
 13 11  1  0  0  0  0
 13 15  1  0  0  0  0
 14 13  2  0  0  0  0
 15 16  1  0  0  0  0
 16  9  1  0  0  0  0
 16 17  2  0  0  0  0
 18 15  1  0  0  0  0
 19  1  1  0  0  0  0
 20 19  1  0  0  0  0
M  END
>  <minimizedAffinity>
-4.84057236

$$$$

 OpenBabel03242518433D

 20 21  0  0  0  0  0  0  0  0999 V2000
   41.7460   32.0390   37.2120 C   0  0  0  0  0  0  0  0  0  0  0  0
   42.4490   33.2510   37.4410 C   0  0  0  0  0  0  0  0  0  0  0  0
   41.8870   34.1170   38.4200 C   0  0  0  0  0  0  0  0  0  0  0  0
   40.7550   33.7540   39.0550 N   0  0  0  0  0  0  0  0  0  0  0  0
   40.1380   32.5830   38.7870 C   0  0  0  0  0  0  0  0  0  0  0  0
   40.6330   31.7420   37.8760 N   0  0  0  0  0  0  0  0  0  0  0  0
   43.3500   33.5250   36.9240 H   0  0  0  0  0  0  0  0  0  0  0  0
   42.3680   35.0630   38.6500 H   0  0  0  0  0  0  0  0  0  0  0  0
   38.9380   32.1380   39.4230 N   0  0  0  0  0  0  0  0  0  0  0  0
   38.8490   30.7760   39.4270 C   0  0  0  0  0  3  0  0  0  0  0  0
   37.7230   30.2080   40.0200 C   0  0  0  0  0  0  0  0  0  0  0  0
   37.6150   29.1230   40.0430 H   0  0  0  0  0  0  0  0  0  0  0  0
   36.7850   31.0620   40.5570 C   0  0  0  0  0  0  0  0  0  0  0  0
   35.7780   30.4910   41.0840 O   0  0  0  0  0  0  0  0  0  0  0  0
   36.8940   32.4050   40.5400 N   0  0  0  0  0  0  0  0  0  0  0  0
   37.9920   32.9270   39.9610 C   0  0  0  0  0  0  0  0  0  0  0  0
   38.2020   34.1590   39.8870 O   0  0  0  0  0  0  0  0  0  0  0  0
   36.1710   33.0190   40.9530 H   0  0  0  0  0  0  0  0  0  0  0  0
   42.2820   31.1980   36.2690 O   0  0  0  0  0  0  0  0  0  0  0  0
   41.9960   30.2060   36.3040 H   0  0  0  0  0  0  0  0  0  0  0  0
  1  2  2  0  0  0  0
  1  6  1  0  0  0  0
  2  3  1  0  0  0  0
  3  8  1  0  0  0  0
  3  4  2  0  0  0  0
  5  4  1  0  0  0  0
  5  9  1  0  0  0  0
  6  5  2  0  0  0  0
  7  2  1  0  0  0  0
  9 10  1  0  0  0  0
  9 16  1  0  0  0  0
 10 11  2  0  0  0  0
 11 12  1  0  0  0  0
 11 13  1  0  0  0  0
 13 14  2  0  0  0  0
 15 13  1  0  0  0  0
 15 18  1  0  0  0  0
 16 15  1  0  0  0  0
 17 16  2  0  0  0  0
 19 20  1  0  0  0  0
 19  1  1  0  0  0  0
M  END
>  <minimizedAffinity>
-4.74052954

$$$$

 OpenBabel03242518433D

 20 21  0  0  0  0  0  0  0  0999 V2000
   37.3560   27.1040   41.4510 C   0  0  0  0  0  0  0  0  0  0  0  0
   37.7780   26.5580   42.6910 C   0  0  0  0  0  0  0  0  0  0  0  0
   38.4380   27.4580   43.5720 C   0  0  0  0  0  0  0  0  0  0  0  0
   38.6220   28.7390   43.1960 N   0  0  0  0  0  0  0  0  0  0  0  0
   38.1930   29.1930   41.9980 C   0  0  0  0  0  0  0  0  0  0  0  0
   37.5690   28.3810   41.1430 N   0  0  0  0  0  0  0  0  0  0  0  0
   37.6230   25.5330   42.9740 H   0  0  0  0  0  0  0  0  0  0  0  0
   38.7900   27.1130   44.5390 H   0  0  0  0  0  0  0  0  0  0  0  0
   38.3550   30.5370   41.5380 N   0  0  0  0  0  0  0  0  0  0  0  0
   37.3880   30.8770   40.6370 C   0  0  0  0  0  3  0  0  0  0  0  0
   37.4300   32.1660   40.1080 C   0  0  0  0  0  0  0  0  0  0  0  0
   36.6750   32.4760   39.3840 H   0  0  0  0  0  0  0  0  0  0  0  0
   38.4420   32.9980   40.5330 C   0  0  0  0  0  0  0  0  0  0  0  0
   38.4320   34.1610   40.0180 O   0  0  0  0  0  0  0  0  0  0  0  0
   39.3860   32.6390   41.4240 N   0  0  0  0  0  0  0  0  0  0  0  0
   39.3230   31.3880   41.9200 C   0  0  0  0  0  0  0  0  0  0  0  0
   40.1440   30.9440   42.7530 O   0  0  0  0  0  0  0  0  0  0  0  0
   40.1340   33.2890   41.7220 H   0  0  0  0  0  0  0  0  0  0  0  0
   36.7180   26.2420   40.5950 O   0  0  0  0  0  0  0  0  0  0  0  0
   36.1320   26.6600   39.8530 H   0  0  0  0  0  0  0  0  0  0  0  0
  1  2  1  0  0  0  0
  2  7  1  0  0  0  0
  2  3  2  0  0  0  0
  3  8  1  0  0  0  0
  4  3  1  0  0  0  0
  5  4  2  0  0  0  0
  6  1  2  0  0  0  0
  6  5  1  0  0  0  0
  9 16  1  0  0  0  0
  9  5  1  0  0  0  0
 10  9  1  0  0  0  0
 11 13  1  0  0  0  0
 11 10  2  0  0  0  0
 12 11  1  0  0  0  0
 13 15  1  0  0  0  0
 14 13  2  0  0  0  0
 15 18  1  0  0  0  0
 15 16  1  0  0  0  0
 16 17  2  0  0  0  0
 19  1  1  0  0  0  0
 20 19  1  0  0  0  0
M  END
>  <minimizedAffinity>
-4.73557138

$$$$

 OpenBabel03242518433D

 20 21  0  0  0  0  0  0  0  0999 V2000
   37.2020   28.9920   42.1550 C   0  0  0  0  0  0  0  0  0  0  0  0
   38.3500   29.4480   42.8540 C   0  0  0  0  0  0  0  0  0  0  0  0
   39.3710   28.4810   43.0670 C   0  0  0  0  0  0  0  0  0  0  0  0
   39.1990   27.2240   42.6110 N   0  0  0  0  0  0  0  0  0  0  0  0
   38.0780   26.8580   41.9520 C   0  0  0  0  0  0  0  0  0  0  0  0
   37.0980   27.7350   41.7310 N   0  0  0  0  0  0  0  0  0  0  0  0
   38.4700   30.4550   43.2110 H   0  0  0  0  0  0  0  0  0  0  0  0
   40.2790   28.7560   43.5940 H   0  0  0  0  0  0  0  0  0  0  0  0
   37.8340   25.5440   41.4430 N   0  0  0  0  0  0  0  0  0  0  0  0
   36.9790   25.5720   40.3790 C   0  0  0  0  0  3  0  0  0  0  0  0
   36.6550   24.3530   39.7850 C   0  0  0  0  0  0  0  0  0  0  0  0
   35.9750   24.3330   38.9320 H   0  0  0  0  0  0  0  0  0  0  0  0
   37.2210   23.2150   40.3150 C   0  0  0  0  0  0  0  0  0  0  0  0
   36.8900   22.1320   39.7350 O   0  0  0  0  0  0  0  0  0  0  0  0
   38.0620   23.2130   41.3670 N   0  0  0  0  0  0  0  0  0  0  0  0
   38.3580   24.4040   41.9220 C   0  0  0  0  0  0  0  0  0  0  0  0
   39.1270   24.5250   42.9020 O   0  0  0  0  0  0  0  0  0  0  0  0
   38.4700   22.3380   41.7410 H   0  0  0  0  0  0  0  0  0  0  0  0
   36.2120   29.9190   41.9450 O   0  0  0  0  0  0  0  0  0  0  0  0
   35.5340   29.7230   41.1910 H   0  0  0  0  0  0  0  0  0  0  0  0
  1  2  1  0  0  0  0
  2  3  2  0  0  0  0
  2  7  1  0  0  0  0
  3  8  1  0  0  0  0
  4  3  1  0  0  0  0
  5  4  2  0  0  0  0
  6  5  1  0  0  0  0
  6  1  2  0  0  0  0
  9 16  1  0  0  0  0
  9  5  1  0  0  0  0
 10  9  1  0  0  0  0
 11 13  1  0  0  0  0
 11 10  2  0  0  0  0
 12 11  1  0  0  0  0
 13 15  1  0  0  0  0
 14 13  2  0  0  0  0
 15 18  1  0  0  0  0
 15 16  1  0  0  0  0
 16 17  2  0  0  0  0
 19  1  1  0  0  0  0
 20 19  1  0  0  0  0
M  END
>  <minimizedAffinity>
-4.71335363

$$$$

 OpenBabel03242518433D

 20 21  0  0  0  0  0  0  0  0999 V2000
   36.8570   30.6240   41.2130 C   0  0  0  0  0  0  0  0  0  0  0  0
   37.6610   31.5640   40.5190 C   0  0  0  0  0  0  0  0  0  0  0  0
   39.0170   31.1860   40.3100 C   0  0  0  0  0  0  0  0  0  0  0  0
   39.4500   29.9950   40.7670 N   0  0  0  0  0  0  0  0  0  0  0  0
   38.6280   29.1460   41.4210 C   0  0  0  0  0  0  0  0  0  0  0  0
   37.3500   29.4630   41.6370 N   0  0  0  0  0  0  0  0  0  0  0  0
   37.2990   32.5110   40.1620 H   0  0  0  0  0  0  0  0  0  0  0  0
   39.6930   31.8540   39.7870 H   0  0  0  0  0  0  0  0  0  0  0  0
   39.0230   27.8700   41.9300 N   0  0  0  0  0  0  0  0  0  0  0  0
   37.9640   27.0120   42.0060 C   0  0  0  0  0  3  0  0  0  0  0  0
   38.2120   25.7280   42.4890 C   0  0  0  0  0  0  0  0  0  0  0  0
   37.3910   25.0130   42.5650 H   0  0  0  0  0  0  0  0  0  0  0  0
   39.5050   25.4210   42.8520 C   0  0  0  0  0  0  0  0  0  0  0  0
   39.6730   24.2370   43.2850 O   0  0  0  0  0  0  0  0  0  0  0  0
   40.5340   26.2860   42.7680 N   0  0  0  0  0  0  0  0  0  0  0  0
   40.2670   27.5200   42.2990 C   0  0  0  0  0  0  0  0  0  0  0  0
   41.1430   28.4060   42.1770 O   0  0  0  0  0  0  0  0  0  0  0  0
   41.4950   26.0240   43.0500 H   0  0  0  0  0  0  0  0  0  0  0  0
   35.5480   30.9810   41.4190 O   0  0  0  0  0  0  0  0  0  0  0  0
   34.8770   30.2220   41.6220 H   0  0  0  0  0  0  0  0  0  0  0  0
  1 19  1  0  0  0  0
  1  6  1  0  0  0  0
  2  1  2  0  0  0  0
  3  2  1  0  0  0  0
  3  4  2  0  0  0  0
  4  5  1  0  0  0  0
  5  6  2  0  0  0  0
  5  9  1  0  0  0  0
  7  2  1  0  0  0  0
  8  3  1  0  0  0  0
  9 10  1  0  0  0  0
  9 16  1  0  0  0  0
 10 11  2  0  0  0  0
 11 12  1  0  0  0  0
 11 13  1  0  0  0  0
 13 14  2  0  0  0  0
 15 13  1  0  0  0  0
 15 18  1  0  0  0  0
 16 15  1  0  0  0  0
 17 16  2  0  0  0  0
 19 20  1  0  0  0  0
M  END
>  <minimizedAffinity>
-4.66340351

$$$$
