
 OpenBabel03242519473D

 39 41  0  0  1  0  0  0  0  0999 V2000
   46.5610   32.5580   46.5850 C   0  0  2  0  0  0  0  0  0  0  0  0
   47.1410   32.6410   45.2290 C   0  0  1  0  0  0  0  0  0  0  0  0
   46.8720   31.3170   44.6500 O   0  0  0  0  0  0  0  0  0  0  0  0
   47.4850   30.5910   45.7080 C   0  0  0  0  0  0  0  0  0  0  0  0
   46.5970   31.0670   46.8900 C   0  0  2  0  0  0  0  0  0  0  0  0
   47.1000   33.1520   47.3220 H   0  0  0  0  0  0  0  0  0  0  0  0
   48.2660   32.7020   45.3030 H   0  0  0  0  0  0  0  0  0  0  0  0
   47.5350   29.5390   45.5840 H   0  0  0  0  0  0  0  0  0  0  0  0
   48.5070   31.0400   45.8980 H   0  0  0  0  0  0  0  0  0  0  0  0
   47.1140   30.7930   47.8210 H   0  0  0  0  0  0  0  0  0  0  0  0
   44.8460   35.2210   44.0810 C   0  0  0  0  0  0  0  0  0  0  0  0
   45.4390   35.6890   42.8970 C   0  0  0  0  0  0  0  0  0  0  0  0
   46.6450   35.1130   42.4690 C   0  0  0  0  0  0  0  0  0  0  0  0
   47.1900   34.1160   43.2270 N   0  0  0  0  0  0  0  0  0  0  0  0
   46.5970   33.6850   44.3620 C   0  0  0  0  0  0  0  0  0  0  0  0
   45.4300   34.2270   44.7950 N   0  0  0  0  0  0  0  0  0  0  0  0
   44.9750   36.4730   42.3350 H   0  0  0  0  0  0  0  0  0  0  0  0
   47.1380   35.4400   41.5640 H   0  0  0  0  0  0  0  0  0  0  0  0
   43.6520   35.7700   44.5400 O   0  0  0  0  0  0  0  0  0  0  0  0
   43.7310   36.7200   44.9080 H   0  0  0  0  0  0  0  0  0  0  0  0
   45.1780   32.9560   46.5370 O   0  0  0  0  0  0  0  0  0  0  0  0
   44.6640   32.2130   46.1310 H   0  0  0  0  0  0  0  0  0  0  0  0
   45.3590   30.4740   46.7110 O   0  0  0  0  0  0  0  0  0  0  0  0
   45.1920   29.2930   47.3990 C   0  0  0  0  0  0  0  0  0  0  0  0
   45.6440   29.2890   48.3870 H   0  0  0  0  0  0  0  0  0  0  0  0
   44.0370   29.3910   47.7050 H   0  0  0  0  0  0  0  0  0  0  0  0
   45.1830   28.0640   46.5780 C   0  0  0  0  0  0  0  0  0  0  0  0
   45.5950   28.1990   45.5510 H   0  0  0  0  0  0  0  0  0  0  0  0
   45.8580   27.3270   47.0660 H   0  0  0  0  0  0  0  0  0  0  0  0
   43.8660   27.4980   46.3810 N   0  0  0  0  0  0  0  0  0  0  0  0
   43.6710   26.4290   47.2200 C   0  0  0  0  0  3  0  0  0  0  0  0
   42.5180   25.6690   47.2960 C   0  0  0  0  0  0  0  0  0  0  0  0
   42.3790   24.8310   47.9600 H   0  0  0  0  0  0  0  0  0  0  0  0
   41.4600   25.9870   46.4750 C   0  0  0  0  0  0  0  0  0  0  0  0
   40.3540   25.4130   46.4120 O   0  0  0  0  0  0  0  0  0  0  0  0
   41.6610   27.0270   45.6640 N   0  0  0  0  0  0  0  0  0  0  0  0
   42.7940   27.7230   45.6330 C   0  0  0  0  0  0  0  0  0  0  0  0
   42.9470   28.6930   44.8580 O   0  0  0  0  0  0  0  0  0  0  0  0
   40.9250   27.3520   45.0010 H   0  0  0  0  0  0  0  0  0  0  0  0
  1  5  1  0  0  0  0
  1  6  1  1  0  0  0
  2  7  1  1  0  0  0
  2  1  1  0  0  0  0
  3  2  1  0  0  0  0
  3  4  1  0  0  0  0
  4  9  1  0  0  0  0
  4  5  1  0  0  0  0
  5 10  1  1  0  0  0
  8  4  1  0  0  0  0
 11 19  1  0  0  0  0
 11 16  1  0  0  0  0
 12 11  2  0  0  0  0
 13 12  1  0  0  0  0
 13 14  2  0  0  0  0
 14 15  1  0  0  0  0
 15 16  2  0  0  0  0
 15  2  1  0  0  0  0
 17 12  1  0  0  0  0
 18 13  1  0  0  0  0
 19 20  1  0  0  0  0
 21  1  1  0  0  0  0
 22 21  1  0  0  0  0
 23  5  1  0  0  0  0
 23 24  1  0  0  0  0
 24 26  1  0  0  0  0
 24 25  1  0  0  0  0
 27 29  1  0  0  0  0
 27 24  1  0  0  0  0
 28 27  1  0  0  0  0
 30 27  1  0  0  0  0
 30 31  1  0  0  0  0
 31 32  2  0  0  0  0
 32 33  1  0  0  0  0
 34 32  1  0  0  0  0
 35 34  2  0  0  0  0
 36 34  1  0  0  0  0
 37 36  1  0  0  0  0
 37 30  1  0  0  0  0
 38 37  2  0  0  0  0
 39 36  1  0  0  0  0
M  END
>  <minimizedAffinity>
-5.65577555

>  <minimizedRMSD>
0.987371504

$$$$
