
 OpenBabel03252506193D

 24 25  0  0  0  0  0  0  0  0999 V2000
   44.8040   35.5760   43.8520 C   0  0  0  0  0  0  0  0  0  0  0  0
   44.1960   35.2700   42.6210 C   0  0  0  0  0  0  0  0  0  0  0  0
   44.2070   33.9540   42.1810 C   0  0  0  0  0  0  0  0  0  0  0  0
   44.8050   33.0280   42.9650 N   0  0  0  0  0  0  0  0  0  0  0  0
   45.3820   33.3450   44.1450 C   0  0  0  0  0  0  0  0  0  0  0  0
   45.3790   34.6030   44.5800 N   0  0  0  0  0  0  0  0  0  0  0  0
   43.7530   36.0890   42.0870 H   0  0  0  0  0  0  0  0  0  0  0  0
   43.7400   33.7170   41.2330 H   0  0  0  0  0  0  0  0  0  0  0  0
   45.9660   32.2530   44.8430 N   0  0  0  0  0  0  0  0  0  0  0  0
   46.4880   31.1690   44.2020 C   0  0  0  0  0  3  0  0  0  0  0  0
   47.0490   30.1200   44.9070 C   0  0  0  0  0  0  0  0  0  0  0  0
   47.4540   29.2750   44.3450 H   0  0  0  0  0  0  0  0  0  0  0  0
   47.0830   30.1670   46.2860 C   0  0  0  0  0  0  0  0  0  0  0  0
   47.5960   29.2050   46.8970 O   0  0  0  0  0  0  0  0  0  0  0  0
   46.5490   31.2680   46.8820 N   0  0  0  0  0  0  0  0  0  0  0  0
   46.0070   32.2810   46.1830 C   0  0  0  0  0  0  0  0  0  0  0  0
   45.5510   33.2370   46.8860 O   0  0  0  0  0  0  0  0  0  0  0  0
   46.6240   31.2090   47.9400 H   0  0  0  0  0  0  0  0  0  0  0  0
   44.8010   36.9690   44.3340 C   0  0  0  0  0  3  0  0  0  0  0  0
   45.3480   37.8780   43.5370 C   0  0  0  0  0  3  0  0  0  0  0  0
   45.3780   39.3070   43.9670 C   0  0  0  0  0  0  0  0  0  0  0  0
   45.4640   39.9170   43.0250 H   0  0  0  0  0  0  0  0  0  0  0  0
   44.5080   39.5900   44.5760 H   0  0  0  0  0  0  0  0  0  0  0  0
   46.2900   39.4730   44.5730 H   0  0  0  0  0  0  0  0  0  0  0  0
  1 19  1  0  0  0  0
  1  6  1  0  0  0  0
  2  1  2  0  0  0  0
  3  2  1  0  0  0  0
  3  4  2  0  0  0  0
  4  5  1  0  0  0  0
  5  6  2  0  0  0  0
  5  9  1  0  0  0  0
  7  2  1  0  0  0  0
  8  3  1  0  0  0  0
  9 16  1  0  0  0  0
 10  9  1  0  0  0  0
 10 11  2  0  0  0  0
 11 13  1  0  0  0  0
 12 11  1  0  0  0  0
 13 15  1  0  0  0  0
 13 14  2  0  0  0  0
 15 18  1  0  0  0  0
 16 15  1  0  0  0  0
 16 17  2  0  0  0  0
 20 21  1  0  0  0  0
 20 19  2  0  0  0  0
 21 24  1  0  0  0  0
 21 23  1  0  0  0  0
 22 21  1  0  0  0  0
M  END
>  <minimizedAffinity>
-3.85948825

>  <minimizedRMSD>
0.823737681

$$$$
