
 OpenBabel03252507463D

 38 40  0  0  0  0  0  0  0  0999 V2000
   47.7390   34.7850   40.9810 C   0  0  0  0  0  0  0  0  0  0  0  0
   48.1130   35.7070   40.5150 H   0  0  0  0  0  0  0  0  0  0  0  0
   47.0740   34.2850   40.2610 H   0  0  0  0  0  0  0  0  0  0  0  0
   48.8910   33.9420   41.3530 C   0  0  0  0  0  0  0  0  0  0  0  0
   48.8930   32.6460   40.8670 C   0  0  0  0  0  0  0  0  0  0  0  0
   49.9240   31.7650   41.1540 C   0  0  0  0  0  0  0  0  0  0  0  0
   50.9410   32.2520   41.9450 N   0  0  0  0  0  0  0  0  0  0  0  0
   50.9010   33.5190   42.3970 C   0  0  0  0  0  0  0  0  0  0  0  0
   49.9000   34.3440   42.1090 N   0  0  0  0  0  0  0  0  0  0  0  0
   49.9470   30.7600   40.7890 H   0  0  0  0  0  0  0  0  0  0  0  0
   51.6860   33.9360   43.0250 H   0  0  0  0  0  0  0  0  0  0  0  0
   47.5300   32.0500   39.8270 S   0  0  0  0  0  0  0  0  0  0  0  0
   50.4840   32.1070   35.9400 H   0  0  0  0  0  0  0  0  0  0  0  0
   49.5270   32.3260   36.3020 N   0  0  0  0  0  0  0  0  0  0  0  0
   49.3190   32.0540   37.5890 C   0  0  0  0  0  3  0  0  0  0  0  0
   48.0900   32.3140   38.1350 C   0  0  0  0  0  0  0  0  0  0  0  0
   47.0810   32.8550   37.3450 C   0  0  0  0  0  0  0  0  0  0  0  0
   45.8980   33.1440   37.7250 O   0  0  0  0  0  0  0  0  0  0  0  0
   47.3230   33.1220   36.0340 N   0  0  0  0  0  0  0  0  0  0  0  0
   48.5490   32.8540   35.5260 C   0  0  0  0  0  0  0  0  0  0  0  0
   48.8330   33.0780   34.3260 O   0  0  0  0  0  0  0  0  0  0  0  0
   46.5870   33.5300   35.4090 H   0  0  0  0  0  0  0  0  0  0  0  0
   46.8800   35.1610   42.1610 C   0  0  0  0  0  0  0  0  0  0  0  0
   47.2260   34.6180   43.0620 H   0  0  0  0  0  0  0  0  0  0  0  0
   47.0510   36.2480   42.3740 H   0  0  0  0  0  0  0  0  0  0  0  0
   45.4240   35.0350   41.9070 C   0  0  0  0  0  0  0  0  0  0  0  0
   44.4960   35.6280   42.8220 C   0  0  0  0  0  0  0  0  0  0  0  0
   42.8680   35.2080   42.0900 S   0  0  0  0  0  0  0  0  0  0  0  0
   43.7190   34.2940   40.6570 C   0  0  0  0  0  0  0  0  0  0  0  0
   44.8210   34.4330   40.9200 N   0  0  0  0  0  0  0  0  0  0  0  0
   44.7240   36.1830   43.7190 H   0  0  0  0  0  0  0  0  0  0  0  0
   43.0160   33.6720   39.6360 O   0  0  0  0  0  0  0  0  0  0  0  0
   41.0210   33.7960   37.8960 O   0  0  0  0  0  0  0  0  0  0  0  0
   42.0310   34.6580   38.6510 P   0  0  0  0  0  0  0  0  0  0  0  0
   41.1930   35.7200   39.6630 O   0  0  0  0  0  0  0  0  0  0  0  0
   40.6450   36.3290   39.1050 H   0  0  0  0  0  0  0  0  0  0  0  0
   42.9910   35.5400   37.5750 O   0  0  0  0  0  0  0  0  0  0  0  0
   43.1170   35.0590   36.7350 H   0  0  0  0  0  0  0  0  0  0  0  0
  1  4  1  0  0  0  0
  1 23  1  0  0  0  0
  2  1  1  0  0  0  0
  3  1  1  0  0  0  0
  4  9  1  0  0  0  0
  5  6  1  0  0  0  0
  5  4  2  0  0  0  0
  6  7  2  0  0  0  0
  7  8  1  0  0  0  0
  8 11  1  0  0  0  0
  9  8  2  0  0  0  0
 10  6  1  0  0  0  0
 12  5  1  0  0  0  0
 13 14  1  0  0  0  0
 14 15  1  0  0  0  0
 15 16  2  0  0  0  0
 16 12  1  0  0  0  0
 17 18  2  0  0  0  0
 17 16  1  0  0  0  0
 19 17  1  0  0  0  0
 20 19  1  0  0  0  0
 20 14  1  0  0  0  0
 21 20  2  0  0  0  0
 22 19  1  0  0  0  0
 23 25  1  0  0  0  0
 23 24  1  0  0  0  0
 26 23  1  0  0  0  0
 26 27  2  0  0  0  0
 27 31  1  0  0  0  0
 28 27  1  0  0  0  0
 29 30  2  0  0  0  0
 29 28  1  0  0  0  0
 30 26  1  0  0  0  0
 32 29  1  0  0  0  0
 33 34  2  0  0  0  0
 34 32  1  0  0  0  0
 34 35  1  0  0  0  0
 36 35  1  0  0  0  0
 37 34  1  0  0  0  0
 38 37  1  0  0  0  0
M  END
>  <minimizedAffinity>
-5.60873127

>  <minimizedRMSD>
0.906134546

$$$$
