
 OpenBabel03252508463D

 46 48  0  0  0  0  0  0  0  0999 V2000
   42.0540   31.9220   42.4360 N   0  0  0  0  0  0  0  0  0  0  0  0
   42.2540   30.9340   42.7120 H   0  0  0  0  0  0  0  0  0  0  0  0
   42.9870   32.5140   41.5350 C   0  0  0  0  0  0  0  0  0  0  0  0
   43.6740   31.7310   41.1000 H   0  0  0  0  0  0  0  0  0  0  0  0
   42.4250   32.9410   40.6870 H   0  0  0  0  0  0  0  0  0  0  0  0
   43.6850   34.9040   41.8330 C   0  0  0  0  0  0  0  0  0  0  0  0
   43.8630   33.5570   42.1400 C   0  0  0  0  0  0  0  0  0  0  0  0
   44.8700   33.2110   43.0170 C   0  0  0  0  0  0  0  0  0  0  0  0
   45.6630   34.1870   43.5600 C   0  0  0  0  0  0  0  0  0  0  0  0
   45.5100   35.5140   43.2770 C   0  0  0  0  0  0  0  0  0  0  0  0
   44.4900   35.8110   42.3950 C   0  0  0  0  0  0  0  0  0  0  0  0
   45.0440   32.1770   43.2820 H   0  0  0  0  0  0  0  0  0  0  0  0
   46.4580   33.8970   44.2540 H   0  0  0  0  0  0  0  0  0  0  0  0
   46.1080   36.3180   43.6780 H   0  0  0  0  0  0  0  0  0  0  0  0
   44.2890   36.8460   42.1080 H   0  0  0  0  0  0  0  0  0  0  0  0
   40.4140   35.9740   40.2820 C   0  0  0  0  0  0  0  0  0  0  0  0
   41.3770   35.7160   41.2660 C   0  0  0  0  0  0  0  0  0  0  0  0
   42.6060   35.2110   40.9020 C   0  0  0  0  0  0  0  0  0  0  0  0
   42.8050   34.9920   39.5700 N   0  0  0  0  0  0  0  0  0  0  0  0
   41.8720   35.2440   38.6260 C   0  0  0  0  0  0  0  0  0  0  0  0
   40.6790   35.7360   38.9980 N   0  0  0  0  0  0  0  0  0  0  0  0
   39.4490   36.3720   40.5720 H   0  0  0  0  0  0  0  0  0  0  0  0
   41.2030   35.8940   42.2990 H   0  0  0  0  0  0  0  0  0  0  0  0
   42.2220   35.0020   37.6170 H   0  0  0  0  0  0  0  0  0  0  0  0
   40.4350   32.0390   41.8770 S   0  0  0  0  0  0  0  0  0  0  0  0
   39.6930   33.1400   42.5970 O   0  0  0  0  0  0  0  0  0  0  0  0
   38.8260   33.0550   43.0630 H   0  0  0  0  0  0  0  0  0  0  0  0
   39.7210   30.7420   42.0360 O   0  0  0  0  0  0  0  0  0  0  0  0
   40.1480   29.8540   41.8180 H   0  0  0  0  0  0  0  0  0  0  0  0
   40.4890   32.4240   40.2410 O   0  0  0  0  0  0  0  0  0  0  0  0
   40.1230   31.2890   39.5240 C   0  0  0  0  0  0  0  0  0  0  0  0
   39.1740   31.5460   38.9820 H   0  0  0  0  0  0  0  0  0  0  0  0
   39.9620   30.3940   40.1170 H   0  0  0  0  0  0  0  0  0  0  0  0
   41.1670   31.0480   38.4160 C   0  0  0  0  0  0  0  0  0  0  0  0
   41.6790   32.0080   38.2080 H   0  0  0  0  0  0  0  0  0  0  0  0
   41.9230   30.3380   38.7710 H   0  0  0  0  0  0  0  0  0  0  0  0
   40.4890   30.5150   37.2530 N   0  0  0  0  0  0  0  0  0  0  0  0
   39.1480   30.6500   37.1390 C   0  0  0  0  0  3  0  0  0  0  0  0
   38.5510   30.1210   36.0020 C   0  0  0  0  0  0  0  0  0  0  0  0
   37.4630   30.2020   35.8580 H   0  0  0  0  0  0  0  0  0  0  0  0
   39.3380   29.4930   35.0590 C   0  0  0  0  0  0  0  0  0  0  0  0
   38.8360   28.9920   34.0010 O   0  0  0  0  0  0  0  0  0  0  0  0
   40.6790   29.3860   35.2240 N   0  0  0  0  0  0  0  0  0  0  0  0
   41.2490   29.9010   36.3250 C   0  0  0  0  0  0  0  0  0  0  0  0
   42.5120   29.8010   36.4830 O   0  0  0  0  0  0  0  0  0  0  0  0
   41.3070   28.9190   34.5330 H   0  0  0  0  0  0  0  0  0  0  0  0
  1  2  1  0  0  0  0
  3  7  1  0  0  0  0
  3  1  1  0  0  0  0
  4  3  1  0  0  0  0
  5  3  1  0  0  0  0
  6  7  2  0  0  0  0
  6 11  1  0  0  0  0
  7  8  1  0  0  0  0
  8 12  1  0  0  0  0
  8  9  2  0  0  0  0
  9 13  1  0  0  0  0
 10  9  1  0  0  0  0
 10 14  1  0  0  0  0
 11 10  2  0  0  0  0
 15 11  1  0  0  0  0
 16 22  1  0  0  0  0
 16 17  1  0  0  0  0
 17 23  1  0  0  0  0
 18 17  2  0  0  0  0
 18  6  1  0  0  0  0
 19 18  1  0  0  0  0
 20 21  1  0  0  0  0
 20 19  2  0  0  0  0
 21 16  2  0  0  0  0
 24 20  1  0  0  0  0
 25 28  1  0  0  0  0
 25  1  1  0  0  0  0
 25 26  1  0  0  0  0
 26 27  1  0  0  0  0
 29 28  1  0  0  0  0
 30 25  1  0  0  0  0
 31 33  1  0  0  0  0
 31 30  1  0  0  0  0
 32 31  1  0  0  0  0
 34 36  1  0  0  0  0
 34 31  1  0  0  0  0
 35 34  1  0  0  0  0
 37 34  1  0  0  0  0
 38 37  1  0  0  0  0
 39 38  2  0  0  0  0
 40 39  1  0  0  0  0
 41 43  1  0  0  0  0
 41 39  1  0  0  0  0
 42 41  2  0  0  0  0
 43 44  1  0  0  0  0
 44 45  2  0  0  0  0
 44 37  1  0  0  0  0
 46 43  1  0  0  0  0
M  END
>  <minimizedAffinity>
-5.38058853

>  <minimizedRMSD>
2.3760159

$$$$
