
 OpenBabel03242518383D

 40 43  0  0  1  0  0  0  0  0999 V2000
   48.4330   33.1230   40.6040 O   0  0  0  0  0  0  0  0  0  0  0  0
   48.2310   33.4770   39.2460 C   0  0  0  0  0  0  0  0  0  0  0  0
   48.5290   34.6470   38.5390 C   0  0  0  0  0  0  0  0  0  0  0  0
   48.1250   34.4860   37.2260 C   0  0  0  0  0  0  0  0  0  0  0  0
   47.6030   33.2320   37.1940 C   0  0  0  0  0  0  0  0  0  0  0  0
   47.6650   32.6450   38.3740 O   0  0  0  0  0  0  0  0  0  0  0  0
   48.9990   35.4770   39.0410 H   0  0  0  0  0  0  0  0  0  0  0  0
   48.2360   35.2380   36.4560 H   0  0  0  0  0  0  0  0  0  0  0  0
   47.0270   32.5900   35.9930 C   0  0  2  0  0  0  0  0  0  0  0  0
   47.4130   31.2310   35.6150 C   0  0  0  0  0  0  0  0  0  0  0  0
   48.0700   32.3370   34.8730 C   0  0  1  0  0  0  0  0  0  0  0  0
   46.0810   33.0520   35.6720 H   0  0  0  0  0  0  0  0  0  0  0  0
   48.0070   30.5770   36.2940 H   0  0  0  0  0  0  0  0  0  0  0  0
   46.6110   30.6500   35.0730 H   0  0  0  0  0  0  0  0  0  0  0  0
   49.0940   32.6410   35.0730 H   0  0  0  0  0  0  0  0  0  0  0  0
   48.4200   33.0480   32.5190 C   0  0  0  0  0  0  0  0  0  0  0  0
   49.6510   33.2710   32.7070 O   0  0  0  0  0  0  0  0  0  0  0  0
   47.5370   32.6180   33.5420 N   0  0  0  0  0  0  0  0  0  0  0  0
   48.1060   33.2180   31.4980 H   0  0  0  0  0  0  0  0  0  0  0  0
   46.5210   32.5010   33.3550 H   0  0  0  0  0  0  0  0  0  0  0  0
   48.4670   34.1650   41.5780 C   0  0  0  0  0  0  0  0  0  0  0  0
   49.4810   34.8920   41.5880 O   0  0  0  0  0  0  0  0  0  0  0  0
   47.3240   34.2470   42.4290 C   0  0  0  0  0  0  0  0  0  0  0  0
   46.2500   34.9260   41.9110 C   0  0  0  0  0  0  0  0  0  0  0  0
   45.1020   35.0500   42.6760 C   0  0  0  0  0  0  0  0  0  0  0  0
   45.0900   34.4910   43.9110 N   0  0  0  0  0  0  0  0  0  0  0  0
   46.1530   33.8340   44.3920 C   0  0  0  0  0  0  0  0  0  0  0  0
   47.2550   33.7300   43.6270 N   0  0  0  0  0  0  0  0  0  0  0  0
   46.1800   35.3970   40.9420 H   0  0  0  0  0  0  0  0  0  0  0  0
   44.2220   35.5740   42.3200 H   0  0  0  0  0  0  0  0  0  0  0  0
   46.0820   33.2680   45.6980 N   0  0  0  0  0  0  0  0  0  0  0  0
   46.7620   32.1960   46.1480 C   0  0  0  0  0  3  0  0  0  0  0  0
   46.5980   31.7490   47.4450 C   0  0  0  0  0  0  0  0  0  0  0  0
   47.1630   30.8930   47.7560 H   0  0  0  0  0  0  0  0  0  0  0  0
   45.7110   32.4560   48.2330 C   0  0  0  0  0  0  0  0  0  0  0  0
   45.5500   32.0560   49.4310 O   0  0  0  0  0  0  0  0  0  0  0  0
   45.0400   33.5110   47.7910 N   0  0  0  0  0  0  0  0  0  0  0  0
   45.2240   33.9300   46.5040 C   0  0  0  0  0  0  0  0  0  0  0  0
   44.5390   34.9390   46.1840 O   0  0  0  0  0  0  0  0  0  0  0  0
   44.3820   33.9930   48.4590 H   0  0  0  0  0  0  0  0  0  0  0  0
  1 21  1  0  0  0  0
  2  1  1  0  0  0  0
  3  7  1  0  0  0  0
  3  2  2  0  0  0  0
  4  3  1  0  0  0  0
  5  4  2  0  0  0  0
  5  6  1  0  0  0  0
  6  2  1  0  0  0  0
  8  4  1  0  0  0  0
  9 12  1  6  0  0  0
  9  5  1  0  0  0  0
 10  9  1  0  0  0  0
 10 13  1  0  0  0  0
 11 15  1  1  0  0  0
 11 10  1  0  0  0  0
 11  9  1  0  0  0  0
 14 10  1  0  0  0  0
 16 17  2  0  0  0  0
 16 18  1  0  0  0  0
 18 11  1  0  0  0  0
 19 16  1  0  0  0  0
 20 18  1  0  0  0  0
 21 22  2  0  0  0  0
 21 23  1  0  0  0  0
 23 28  1  0  0  0  0
 24 23  2  0  0  0  0
 24 25  1  0  0  0  0
 25 26  2  0  0  0  0
 26 27  1  0  0  0  0
 27 31  1  0  0  0  0
 28 27  2  0  0  0  0
 29 24  1  0  0  0  0
 30 25  1  0  0  0  0
 31 32  1  0  0  0  0
 31 38  1  0  0  0  0
 32 33  2  0  0  0  0
 33 34  1  0  0  0  0
 33 35  1  0  0  0  0
 35 36  2  0  0  0  0
 37 35  1  0  0  0  0
 37 40  1  0  0  0  0
 38 37  1  0  0  0  0
 39 38  2  0  0  0  0
M  END
>  <minimizedAffinity>
-7.09284115

>  <minimizedRMSD>
1.12410545

$$$$
