
 OpenBabel03242517073D

 35 37  0  0  1  0  0  0  0  0999 V2000
   47.3620   32.8810   42.4540 C   0  0  2  0  0  0  0  0  0  0  0  0
   46.6970   33.7510   41.4680 C   0  0  1  0  0  0  0  0  0  0  0  0
   46.4770   35.1680   41.9570 C   0  0  0  0  0  0  0  0  0  0  0  0
   45.6740   35.1840   43.2460 C   0  0  0  0  0  0  0  0  0  0  0  0
   46.0620   34.1020   44.2170 C   0  0  0  0  0  0  0  0  0  0  0  0
   47.3860   33.4770   43.8540 C   0  0  0  0  0  0  0  0  0  0  0  0
   46.8360   31.8850   42.5990 H   0  0  0  0  0  0  0  0  0  0  0  0
   45.6120   33.3580   41.4270 H   0  0  0  0  0  0  0  0  0  0  0  0
   47.3510   35.7710   42.1200 H   0  0  0  0  0  0  0  0  0  0  0  0
   45.8420   35.6560   41.1870 H   0  0  0  0  0  0  0  0  0  0  0  0
   44.5860   35.1510   43.0220 H   0  0  0  0  0  0  0  0  0  0  0  0
   45.8410   36.1630   43.7530 H   0  0  0  0  0  0  0  0  0  0  0  0
   45.3010   33.2800   44.0800 H   0  0  0  0  0  0  0  0  0  0  0  0
   46.0510   34.3780   45.2680 H   0  0  0  0  0  0  0  0  0  0  0  0
   48.1490   34.2870   43.9360 H   0  0  0  0  0  0  0  0  0  0  0  0
   47.6170   32.6550   44.5480 H   0  0  0  0  0  0  0  0  0  0  0  0
   47.1190   33.7040   40.1170 N   0  0  0  0  0  0  0  0  0  0  0  0
   46.7290   32.8730   39.1090 C   0  0  0  0  0  0  0  0  0  0  0  0
   47.1800   32.8700   37.8290 C   0  0  0  0  0  0  0  0  0  0  0  0
   46.7730   32.1470   37.1460 H   0  0  0  0  0  0  0  0  0  0  0  0
   48.1370   33.8120   37.5190 C   0  0  0  0  0  0  0  0  0  0  0  0
   48.5770   33.8320   36.3300 O   0  0  0  0  0  0  0  0  0  0  0  0
   48.5530   34.6540   38.4820 N   0  0  0  0  0  0  0  0  0  0  0  0
   48.0680   34.6120   39.7430 C   0  0  0  0  0  0  0  0  0  0  0  0
   48.6040   35.4910   40.4660 O   0  0  0  0  0  0  0  0  0  0  0  0
   49.2760   35.3220   38.1330 H   0  0  0  0  0  0  0  0  0  0  0  0
   48.7500   32.5320   42.0990 C   0  0  0  0  0  0  0  0  0  0  0  0
   49.7470   33.3860   42.5960 C   0  0  0  0  0  0  0  0  0  0  0  0
   51.0830   33.1300   42.2980 C   0  0  0  0  0  0  0  0  0  0  0  0
   51.3350   32.0220   41.5110 N   0  0  0  0  0  0  0  0  0  0  0  0
   50.3630   31.2290   41.0540 C   0  0  0  0  0  0  0  0  0  0  0  0
   49.0660   31.4800   41.3450 N   0  0  0  0  0  0  0  0  0  0  0  0
   49.6630   34.2430   43.2080 H   0  0  0  0  0  0  0  0  0  0  0  0
   51.9300   33.7180   42.6260 H   0  0  0  0  0  0  0  0  0  0  0  0
   50.6470   30.3790   40.4430 H   0  0  0  0  0  0  0  0  0  0  0  0
  1  7  1  1  0  0  0
  1  6  1  0  0  0  0
  2  8  1  6  0  0  0
  2  3  1  0  0  0  0
  2  1  1  0  0  0  0
  3  9  1  0  0  0  0
  3  4  1  0  0  0  0
  4 12  1  0  0  0  0
  4  5  1  0  0  0  0
  5 14  1  0  0  0  0
  6 15  1  0  0  0  0
  6  5  1  0  0  0  0
  6 16  1  0  0  0  0
 10  3  1  0  0  0  0
 11  4  1  0  0  0  0
 13  5  1  0  0  0  0
 17  2  1  0  0  0  0
 18 17  1  0  0  0  0
 19 18  2  0  0  0  0
 20 19  1  0  0  0  0
 21 19  1  0  0  0  0
 21 23  1  0  0  0  0
 22 21  2  0  0  0  0
 23 24  1  0  0  0  0
 24 17  1  0  0  0  0
 24 25  2  0  0  0  0
 26 23  1  0  0  0  0
 27  1  1  0  0  0  0
 27 28  1  0  0  0  0
 28 33  1  0  0  0  0
 29 28  2  0  0  0  0
 29 34  1  0  0  0  0
 30 29  1  0  0  0  0
 31 32  1  0  0  0  0
 31 30  2  0  0  0  0
 32 27  2  0  0  0  0
 35 31  1  0  0  0  0
M  END
>  <minimizedAffinity>
-5.16217232

>  <minimizedRMSD>
1.72878766

$$$$
