
 OpenBabel03252506253D

 46 50  0  0  0  0  0  0  0  0999 V2000
   45.5460   27.9480   47.8150 C   0  0  0  0  0  0  0  0  0  0  0  0
   45.0560   29.2420   47.8580 C   0  0  0  0  0  0  0  0  0  0  0  0
   44.1910   29.6020   46.8270 C   0  0  0  0  0  0  0  0  0  0  0  0
   43.8360   28.7340   45.8190 C   0  0  0  0  0  0  0  0  0  0  0  0
   43.0520   28.7970   44.7320 N   0  0  0  0  0  0  0  0  0  0  0  0
   43.0550   27.6340   44.0650 C   0  0  0  0  0  0  0  0  0  0  0  0
   43.8740   26.7390   44.7240 C   0  0  0  0  0  0  0  0  0  0  0  0
   44.3370   27.4510   45.7980 C   0  0  0  0  0  0  0  0  0  0  0  0
   45.1970   27.0820   46.8160 C   0  0  0  0  0  0  0  0  0  0  0  0
   46.2170   27.7230   48.6470 H   0  0  0  0  0  0  0  0  0  0  0  0
   43.7310   30.5770   46.7290 H   0  0  0  0  0  0  0  0  0  0  0  0
   42.4980   29.6480   44.4290 H   0  0  0  0  0  0  0  0  0  0  0  0
   42.4970   27.4410   43.1570 H   0  0  0  0  0  0  0  0  0  0  0  0
   44.1140   25.7140   44.4790 H   0  0  0  0  0  0  0  0  0  0  0  0
   45.7450   25.7660   46.8440 N   0  0  0  0  0  0  0  0  0  0  0  0
   46.8840   25.3500   46.2610 C   0  0  0  0  0  3  0  0  0  0  0  0
   47.2550   24.0160   46.4040 C   0  0  0  0  0  0  0  0  0  0  0  0
   48.1770   23.7110   45.9240 H   0  0  0  0  0  0  0  0  0  0  0  0
   46.4720   23.1410   47.1270 C   0  0  0  0  0  0  0  0  0  0  0  0
   46.8030   21.9340   47.2600 O   0  0  0  0  0  0  0  0  0  0  0  0
   45.3270   23.6110   47.7000 N   0  0  0  0  0  0  0  0  0  0  0  0
   44.9860   24.9040   47.5500 C   0  0  0  0  0  0  0  0  0  0  0  0
   43.8960   25.2140   48.1330 O   0  0  0  0  0  0  0  0  0  0  0  0
   44.7520   22.9100   48.2470 H   0  0  0  0  0  0  0  0  0  0  0  0
   45.2990   30.3050   48.8180 C   0  0  0  0  0  0  0  0  0  0  0  0
   44.4350   31.0080   48.8830 H   0  0  0  0  0  0  0  0  0  0  0  0
   45.3180   29.8280   49.8400 H   0  0  0  0  0  0  0  0  0  0  0  0
   46.5690   31.0600   48.6850 C   0  0  0  0  0  0  0  0  0  0  0  0
   46.5580   31.8680   49.4710 H   0  0  0  0  0  0  0  0  0  0  0  0
   47.4150   30.4100   48.8890 H   0  0  0  0  0  0  0  0  0  0  0  0
   46.3260   33.0280   45.7150 C   0  0  0  0  0  0  0  0  0  0  0  0
   47.2380   32.0390   45.3310 C   0  0  0  0  0  0  0  0  0  0  0  0
   47.4370   31.1960   46.3750 C   0  0  0  0  0  0  0  0  0  0  0  0
   46.6750   31.6500   47.3680 N   0  0  0  0  0  0  0  0  0  0  0  0
   45.9980   32.7530   46.9900 N   0  0  0  0  0  0  0  0  0  0  0  0
   47.7330   31.9230   44.3650 H   0  0  0  0  0  0  0  0  0  0  0  0
   48.0850   30.3180   46.4160 H   0  0  0  0  0  0  0  0  0  0  0  0
   44.4680   35.9350   44.5160 C   0  0  0  0  0  0  0  0  0  0  0  0
   45.0060   36.1470   43.2410 C   0  0  0  0  0  0  0  0  0  0  0  0
   46.0040   35.2850   42.8070 C   0  0  0  0  0  0  0  0  0  0  0  0
   46.3790   34.3060   43.6510 N   0  0  0  0  0  0  0  0  0  0  0  0
   45.8610   34.1120   44.8650 C   0  0  0  0  0  0  0  0  0  0  0  0
   44.9040   34.9350   45.2900 N   0  0  0  0  0  0  0  0  0  0  0  0
   43.6910   36.6270   44.8250 H   0  0  0  0  0  0  0  0  0  0  0  0
   44.7260   36.9140   42.5530 H   0  0  0  0  0  0  0  0  0  0  0  0
   46.4970   35.3430   41.8440 H   0  0  0  0  0  0  0  0  0  0  0  0
  1  2  1  0  0  0  0
  1 10  1  0  0  0  0
  2 25  1  0  0  0  0
  3  2  2  0  0  0  0
  4  3  1  0  0  0  0
  5  4  1  0  0  0  0
  6  7  2  0  0  0  0
  6  5  1  0  0  0  0
  7  8  1  0  0  0  0
  8  4  2  0  0  0  0
  8  9  1  0  0  0  0
  9 15  1  0  0  0  0
  9  1  2  0  0  0  0
 11  3  1  0  0  0  0
 12  5  1  0  0  0  0
 13  6  1  0  0  0  0
 14  7  1  0  0  0  0
 15 22  1  0  0  0  0
 16 17  2  0  0  0  0
 16 15  1  0  0  0  0
 17 19  1  0  0  0  0
 18 17  1  0  0  0  0
 19 20  2  0  0  0  0
 19 21  1  0  0  0  0
 21 24  1  0  0  0  0
 22 21  1  0  0  0  0
 22 23  2  0  0  0  0
 25 26  1  0  0  0  0
 25 27  1  0  0  0  0
 28 25  1  0  0  0  0
 28 30  1  0  0  0  0
 28 29  1  0  0  0  0
 31 35  2  0  0  0  0
 32 31  1  0  0  0  0
 32 33  2  0  0  0  0
 33 37  1  0  0  0  0
 33 34  1  0  0  0  0
 34 28  1  0  0  0  0
 35 34  1  0  0  0  0
 36 32  1  0  0  0  0
 38 44  1  0  0  0  0
 38 43  1  0  0  0  0
 39 38  2  0  0  0  0
 40 39  1  0  0  0  0
 40 41  2  0  0  0  0
 41 42  1  0  0  0  0
 42 43  2  0  0  0  0
 42 31  1  0  0  0  0
 45 39  1  0  0  0  0
 46 40  1  0  0  0  0
M  END
>  <minimizedAffinity>
-5.51874113

>  <minimizedRMSD>
1.47922707

$$$$
