
 OpenBabel03242521383D

 22 23  0  0  0  0  0  0  0  0999 V2000
   45.6290   34.9600   43.5280 C   0  0  0  0  0  0  0  0  0  0  0  0
   46.7340   34.5210   42.7750 C   0  0  0  0  0  0  0  0  0  0  0  0
   47.5590   33.5340   43.3570 C   0  0  0  0  0  0  0  0  0  0  0  0
   47.2420   33.0680   44.5970 N   0  0  0  0  0  0  0  0  0  0  0  0
   46.1640   33.5310   45.2720 C   0  0  0  0  0  0  0  0  0  0  0  0
   45.3580   34.4750   44.7400 N   0  0  0  0  0  0  0  0  0  0  0  0
   46.9820   34.8930   41.7890 H   0  0  0  0  0  0  0  0  0  0  0  0
   45.9490   33.1340   46.2580 H   0  0  0  0  0  0  0  0  0  0  0  0
   48.7040   33.0160   42.6830 N   0  0  0  0  0  0  0  0  0  0  0  0
   48.7030   31.7460   42.2340 C   0  0  0  0  0  0  0  0  0  0  0  0
   49.8380   31.2710   41.5790 C   0  0  0  0  0  0  0  0  0  0  0  0
   49.9500   30.2810   41.1800 H   0  0  0  0  0  0  0  0  0  0  0  0
   50.8660   32.1850   41.4640 C   0  0  0  0  0  0  0  0  0  0  0  0
   51.9170   31.7810   40.8700 O   0  0  0  0  0  0  0  0  0  0  0  0
   50.8880   33.4570   41.9050 N   0  0  0  0  0  0  0  0  0  0  0  0
   49.7510   33.8580   42.5330 C   0  0  0  0  0  0  0  0  0  0  0  0
   49.7120   35.0520   42.9730 O   0  0  0  0  0  0  0  0  0  0  0  0
   51.7310   34.0500   41.7540 H   0  0  0  0  0  0  0  0  0  0  0  0
   44.7730   36.0070   42.8850 C   0  0  0  0  0  0  0  0  0  0  0  0
   44.2100   36.5120   43.7110 H   0  0  0  0  0  0  0  0  0  0  0  0
   45.4120   36.7640   42.3690 H   0  0  0  0  0  0  0  0  0  0  0  0
   44.0770   35.5830   42.1620 H   0  0  0  0  0  0  0  0  0  0  0  0
  1  6  1  0  0  0  0
  2  3  1  0  0  0  0
  2  1  2  0  0  0  0
  3  4  2  0  0  0  0
  4  5  1  0  0  0  0
  5  8  1  0  0  0  0
  6  5  2  0  0  0  0
  7  2  1  0  0  0  0
  9  3  1  0  0  0  0
 10  9  1  0  0  0  0
 11 10  2  0  0  0  0
 12 11  1  0  0  0  0
 13 11  1  0  0  0  0
 13 15  1  0  0  0  0
 14 13  2  0  0  0  0
 15 16  1  0  0  0  0
 16  9  1  0  0  0  0
 16 17  2  0  0  0  0
 18 15  1  0  0  0  0
 19  1  1  0  0  0  0
 19 20  1  0  0  0  0
 21 19  1  0  0  0  0
 22 19  1  0  0  0  0
M  END
>  <minimizedAffinity>
-4.47753525

>  <minimizedRMSD>
1.65326548

$$$$
