
 OpenBabel03252506253D

 46 50  0  0  0  0  0  0  0  0999 V2000
   45.4930   27.2980   48.5260 C   0  0  0  0  0  0  0  0  0  0  0  0
   44.8990   28.2260   47.6870 C   0  0  0  0  0  0  0  0  0  0  0  0
   44.1660   27.7070   46.6240 C   0  0  0  0  0  0  0  0  0  0  0  0
   44.0300   26.3540   46.4060 C   0  0  0  0  0  0  0  0  0  0  0  0
   43.4080   25.5870   45.4980 N   0  0  0  0  0  0  0  0  0  0  0  0
   43.5990   24.2850   45.7510 C   0  0  0  0  0  0  0  0  0  0  0  0
   44.3850   24.1570   46.8790 C   0  0  0  0  0  0  0  0  0  0  0  0
   44.6300   25.4500   47.2540 C   0  0  0  0  0  0  0  0  0  0  0  0
   45.3620   25.9540   48.3150 C   0  0  0  0  0  0  0  0  0  0  0  0
   46.0530   27.7630   49.3410 H   0  0  0  0  0  0  0  0  0  0  0  0
   43.6470   28.3090   45.8880 H   0  0  0  0  0  0  0  0  0  0  0  0
   42.8360   25.9500   44.6820 H   0  0  0  0  0  0  0  0  0  0  0  0
   43.1950   23.4730   45.1580 H   0  0  0  0  0  0  0  0  0  0  0  0
   44.7390   23.2640   47.3750 H   0  0  0  0  0  0  0  0  0  0  0  0
   46.0030   25.0630   49.2250 N   0  0  0  0  0  0  0  0  0  0  0  0
   45.4570   24.4770   50.3070 C   0  0  0  0  0  0  0  0  0  0  0  0
   46.2510   23.6320   51.0760 C   0  0  0  0  0  0  0  0  0  0  0  0
   45.7840   23.1750   51.9400 H   0  0  0  0  0  0  0  0  0  0  0  0
   47.5680   23.4010   50.7370 C   0  0  0  0  0  0  0  0  0  0  0  0
   48.2890   22.6370   51.4290 O   0  0  0  0  0  0  0  0  0  0  0  0
   48.0750   24.0170   49.6320 N   0  0  0  0  0  0  0  0  0  0  0  0
   47.2900   24.8310   48.9000 C   0  0  0  0  0  0  0  0  0  0  0  0
   47.8860   25.3430   47.8960 O   0  0  0  0  0  0  0  0  0  0  0  0
   49.0880   23.8160   49.4030 H   0  0  0  0  0  0  0  0  0  0  0  0
   44.9150   29.6790   47.7350 C   0  0  0  0  0  0  0  0  0  0  0  0
   44.3060   30.1260   46.9160 H   0  0  0  0  0  0  0  0  0  0  0  0
   44.3560   29.9830   48.6660 H   0  0  0  0  0  0  0  0  0  0  0  0
   46.2420   30.3380   47.8100 C   0  0  0  0  0  0  0  0  0  0  0  0
   46.2450   30.9720   48.7420 H   0  0  0  0  0  0  0  0  0  0  0  0
   47.0260   29.5940   47.9120 H   0  0  0  0  0  0  0  0  0  0  0  0
   46.2440   32.8290   45.2500 C   0  0  0  0  0  0  0  0  0  0  0  0
   47.2210   31.9400   44.7870 C   0  0  0  0  0  0  0  0  0  0  0  0
   47.3380   30.9180   45.6720 C   0  0  0  0  0  0  0  0  0  0  0  0
   46.4640   31.1680   46.6450 N   0  0  0  0  0  0  0  0  0  0  0  0
   45.7960   32.3140   46.4080 N   0  0  0  0  0  0  0  0  0  0  0  0
   47.8160   32.0140   43.8750 H   0  0  0  0  0  0  0  0  0  0  0  0
   48.0050   30.0550   45.6170 H   0  0  0  0  0  0  0  0  0  0  0  0
   44.5760   35.9960   44.5290 C   0  0  0  0  0  0  0  0  0  0  0  0
   45.0860   36.3410   43.2720 C   0  0  0  0  0  0  0  0  0  0  0  0
   46.0010   35.4760   42.6840 C   0  0  0  0  0  0  0  0  0  0  0  0
   46.3280   34.3680   43.3740 N   0  0  0  0  0  0  0  0  0  0  0  0
   45.8360   34.0480   44.5730 C   0  0  0  0  0  0  0  0  0  0  0  0
   44.9590   34.8720   45.1430 N   0  0  0  0  0  0  0  0  0  0  0  0
   43.8640   36.6930   44.9590 H   0  0  0  0  0  0  0  0  0  0  0  0
   44.8430   37.2120   42.7040 H   0  0  0  0  0  0  0  0  0  0  0  0
   46.4650   35.6300   41.7180 H   0  0  0  0  0  0  0  0  0  0  0  0
  1 10  1  0  0  0  0
  2 25  1  0  0  0  0
  2  1  2  0  0  0  0
  3  2  1  0  0  0  0
  4  3  2  0  0  0  0
  4  8  1  0  0  0  0
  5  6  1  0  0  0  0
  5  4  1  0  0  0  0
  6  7  2  0  0  0  0
  7  8  1  0  0  0  0
  7 14  1  0  0  0  0
  8  9  2  0  0  0  0
  9  1  1  0  0  0  0
  9 15  1  0  0  0  0
 11  3  1  0  0  0  0
 12  5  1  0  0  0  0
 13  6  1  0  0  0  0
 15 16  1  0  0  0  0
 16 17  2  0  0  0  0
 17 18  1  0  0  0  0
 19 17  1  0  0  0  0
 19 20  2  0  0  0  0
 21 19  1  0  0  0  0
 22 15  1  0  0  0  0
 22 21  1  0  0  0  0
 23 22  2  0  0  0  0
 24 21  1  0  0  0  0
 25 28  1  0  0  0  0
 25 27  1  0  0  0  0
 26 25  1  0  0  0  0
 28 30  1  0  0  0  0
 28 29  1  0  0  0  0
 31 35  2  0  0  0  0
 32 31  1  0  0  0  0
 32 33  2  0  0  0  0
 33 34  1  0  0  0  0
 34 28  1  0  0  0  0
 35 34  1  0  0  0  0
 36 32  1  0  0  0  0
 37 33  1  0  0  0  0
 38 44  1  0  0  0  0
 38 43  1  0  0  0  0
 39 38  2  0  0  0  0
 40 39  1  0  0  0  0
 40 41  2  0  0  0  0
 41 42  1  0  0  0  0
 42 43  2  0  0  0  0
 42 31  1  0  0  0  0
 45 39  1  0  0  0  0
 46 40  1  0  0  0  0
M  END
>  <minimizedAffinity>
-5.77490044

>  <minimizedRMSD>
2.29809213

$$$$
