
 OpenBabel03242519213D

 35 37  0  0  0  0  0  0  0  0999 V2000
   47.8900   33.6990   42.8800 C   0  0  0  0  0  0  0  0  0  0  0  0
   48.6110   34.9000   42.6960 C   0  0  0  0  0  0  0  0  0  0  0  0
   49.9720   34.8400   42.3860 C   0  0  0  0  0  0  0  0  0  0  0  0
   50.5270   33.5800   42.2790 N   0  0  0  0  0  0  0  0  0  0  0  0
   49.8090   32.4510   42.4600 C   0  0  0  0  0  0  0  0  0  0  0  0
   48.5100   32.5200   42.7560 N   0  0  0  0  0  0  0  0  0  0  0  0
   48.2650   35.9010   42.7590 H   0  0  0  0  0  0  0  0  0  0  0  0
   50.6000   35.6940   42.2290 H   0  0  0  0  0  0  0  0  0  0  0  0
   50.4480   31.1820   42.3340 N   0  0  0  0  0  0  0  0  0  0  0  0
   50.0510   30.2120   43.1980 C   0  0  0  0  0  0  0  0  0  0  0  0
   50.6410   28.9450   43.1240 C   0  0  0  0  0  0  0  0  0  0  0  0
   50.3580   28.1410   43.7900 H   0  0  0  0  0  0  0  0  0  0  0  0
   51.6200   28.7460   42.1530 C   0  0  0  0  0  0  0  0  0  0  0  0
   52.1290   27.6010   42.1110 O   0  0  0  0  0  0  0  0  0  0  0  0
   51.9620   29.7680   41.3240 N   0  0  0  0  0  0  0  0  0  0  0  0
   51.3940   30.9820   41.3980 C   0  0  0  0  0  0  0  0  0  0  0  0
   51.7550   31.8760   40.6080 O   0  0  0  0  0  0  0  0  0  0  0  0
   52.7010   29.4940   40.6470 H   0  0  0  0  0  0  0  0  0  0  0  0
   46.4630   33.8470   43.2170 C   0  0  0  0  0  0  0  0  0  0  0  0
   45.7780   34.8700   42.4060 C   0  0  0  0  0  0  0  0  0  0  0  0
   45.3920   36.0920   43.1910 C   0  0  0  0  0  0  0  0  0  0  0  0
   44.5150   35.7390   44.3800 C   0  0  0  0  0  0  0  0  0  0  0  0
   44.9990   34.5330   45.1390 C   0  0  0  0  0  0  0  0  0  0  0  0
   46.3790   34.0980   44.7160 C   0  0  0  0  0  0  0  0  0  0  0  0
   46.0170   32.8150   43.0940 H   0  0  0  0  0  0  0  0  0  0  0  0
   46.2810   35.1690   41.4830 H   0  0  0  0  0  0  0  0  0  0  0  0
   44.7990   34.4170   42.0710 H   0  0  0  0  0  0  0  0  0  0  0  0
   44.7250   36.7060   42.5180 H   0  0  0  0  0  0  0  0  0  0  0  0
   46.1960   36.7420   43.5080 H   0  0  0  0  0  0  0  0  0  0  0  0
   43.4710   35.5980   44.0490 H   0  0  0  0  0  0  0  0  0  0  0  0
   44.5070   36.6110   45.0780 H   0  0  0  0  0  0  0  0  0  0  0  0
   44.3070   33.6770   44.8850 H   0  0  0  0  0  0  0  0  0  0  0  0
   45.0070   34.6530   46.2260 H   0  0  0  0  0  0  0  0  0  0  0  0
   47.1460   34.8570   44.9740 H   0  0  0  0  0  0  0  0  0  0  0  0
   46.6410   33.1720   45.2240 H   0  0  0  0  0  0  0  0  0  0  0  0
  1 19  1  0  0  0  0
  2  7  1  0  0  0  0
  2  1  2  0  0  0  0
  3  2  1  0  0  0  0
  4  3  2  0  0  0  0
  4  5  1  0  0  0  0
  5  6  2  0  0  0  0
  6  1  1  0  0  0  0
  8  3  1  0  0  0  0
  9  5  1  0  0  0  0
  9 10  1  0  0  0  0
 11 10  2  0  0  0  0
 11 12  1  0  0  0  0
 13 11  1  0  0  0  0
 14 13  2  0  0  0  0
 15 16  1  0  0  0  0
 15 13  1  0  0  0  0
 16  9  1  0  0  0  0
 17 16  2  0  0  0  0
 18 15  1  0  0  0  0
 19 24  1  0  0  0  0
 20 21  1  0  0  0  0
 20 19  1  0  0  0  0
 21 29  1  0  0  0  0
 21 22  1  0  0  0  0
 22 31  1  0  0  0  0
 22 23  1  0  0  0  0
 23 33  1  0  0  0  0
 24 34  1  0  0  0  0
 24 23  1  0  0  0  0
 24 35  1  0  0  0  0
 25 19  1  0  0  0  0
 26 20  1  0  0  0  0
 27 20  1  0  0  0  0
 28 21  1  0  0  0  0
 30 22  1  0  0  0  0
 32 23  1  0  0  0  0
M  END
>  <minimizedAffinity>
-4.86665392

>  <minimizedRMSD>
2.41325378

$$$$
