
 OpenBabel03252506283D

 48 52  0  0  0  0  0  0  0  0999 V2000
   45.9480   33.6220   45.5480 C   0  0  0  0  0  0  0  0  0  0  0  0
   44.9460   34.5490   45.8590 C   0  0  0  0  0  0  0  0  0  0  0  0
   44.7540   35.3690   44.8030 C   0  0  0  0  0  0  0  0  0  0  0  0
   45.6110   34.9600   43.8650 N   0  0  0  0  0  0  0  0  0  0  0  0
   46.3320   33.9190   44.2920 N   0  0  0  0  0  0  0  0  0  0  0  0
   44.4140   34.5860   46.8200 H   0  0  0  0  0  0  0  0  0  0  0  0
   44.0340   36.1740   44.7840 H   0  0  0  0  0  0  0  0  0  0  0  0
   47.7200   31.9610   48.2720 C   0  0  0  0  0  0  0  0  0  0  0  0
   47.3350   30.6330   48.1450 C   0  0  0  0  0  0  0  0  0  0  0  0
   46.4570   30.3190   47.1100 C   0  0  0  0  0  0  0  0  0  0  0  0
   46.0410   31.3270   46.2990 N   0  0  0  0  0  0  0  0  0  0  0  0
   46.4240   32.5830   46.4430 C   0  0  0  0  0  0  0  0  0  0  0  0
   47.2740   32.9000   47.4430 N   0  0  0  0  0  0  0  0  0  0  0  0
   48.4080   32.1620   49.0960 H   0  0  0  0  0  0  0  0  0  0  0  0
   47.6330   29.8000   48.7560 H   0  0  0  0  0  0  0  0  0  0  0  0
   45.9560   28.9980   46.8340 N   0  0  0  0  0  0  0  0  0  0  0  0
   46.2990   28.2830   45.7490 C   0  0  0  0  0  3  0  0  0  0  0  0
   45.7810   27.0140   45.5390 C   0  0  0  0  0  0  0  0  0  0  0  0
   46.0590   26.4430   44.6650 H   0  0  0  0  0  0  0  0  0  0  0  0
   44.9030   26.5030   46.4730 C   0  0  0  0  0  0  0  0  0  0  0  0
   44.3920   25.3590   46.3490 O   0  0  0  0  0  0  0  0  0  0  0  0
   44.5980   27.2750   47.5430 N   0  0  0  0  0  0  0  0  0  0  0  0
   45.1070   28.5240   47.7520 C   0  0  0  0  0  0  0  0  0  0  0  0
   44.7080   29.0870   48.8020 O   0  0  0  0  0  0  0  0  0  0  0  0
   43.9210   26.8430   48.2330 H   0  0  0  0  0  0  0  0  0  0  0  0
   45.7690   35.5490   42.5380 C   0  0  0  0  0  0  0  0  0  0  0  0
   46.8340   35.8140   42.3480 H   0  0  0  0  0  0  0  0  0  0  0  0
   45.1970   36.4720   42.4580 H   0  0  0  0  0  0  0  0  0  0  0  0
   45.3430   34.6000   41.4870 C   0  0  0  0  0  0  0  0  0  0  0  0
   45.8740   33.6270   41.6650 H   0  0  0  0  0  0  0  0  0  0  0  0
   45.7620   34.9560   40.5160 H   0  0  0  0  0  0  0  0  0  0  0  0
   42.9940   35.2250   40.6970 C   0  0  0  0  0  0  0  0  0  0  0  0
   43.9190   34.4060   41.2960 C   0  0  0  0  0  0  0  0  0  0  0  0
   43.4390   33.1950   41.8060 C   0  0  0  0  0  0  0  0  0  0  0  0
   42.1040   32.8430   41.7120 C   0  0  0  0  0  0  0  0  0  0  0  0
   41.3760   31.7830   42.0960 N   0  0  0  0  0  0  0  0  0  0  0  0
   40.0950   31.9220   41.7670 C   0  0  0  0  0  0  0  0  0  0  0  0
   39.9400   33.1460   41.1220 C   0  0  0  0  0  0  0  0  0  0  0  0
   41.2020   33.6760   41.1110 C   0  0  0  0  0  0  0  0  0  0  0  0
   41.6710   34.8720   40.6060 C   0  0  0  0  0  0  0  0  0  0  0  0
   43.4030   36.1500   40.3160 H   0  0  0  0  0  0  0  0  0  0  0  0
   44.0510   32.4500   42.3040 H   0  0  0  0  0  0  0  0  0  0  0  0
   41.7500   30.9360   42.5970 H   0  0  0  0  0  0  0  0  0  0  0  0
   39.2490   31.2550   41.9300 H   0  0  0  0  0  0  0  0  0  0  0  0
   39.0200   33.5570   40.7280 H   0  0  0  0  0  0  0  0  0  0  0  0
   40.7270   35.7850   39.9570 C   0  0  0  0  0  0  0  0  0  0  0  0
   40.0850   36.6350   40.6440 O   0  0  0  0  0  0  0  0  0  0  0  0
   40.5610   35.7490   38.8890 H   0  0  0  0  0  0  0  0  0  0  0  0
  1  2  1  0  0  0  0
  1 12  1  0  0  0  0
  2  6  1  0  0  0  0
  3  2  2  0  0  0  0
  4  5  1  0  0  0  0
  4  3  1  0  0  0  0
  5  1  2  0  0  0  0
  7  3  1  0  0  0  0
  8 14  1  0  0  0  0
  9  8  1  0  0  0  0
  9 15  1  0  0  0  0
 10  9  2  0  0  0  0
 11 12  2  0  0  0  0
 11 10  1  0  0  0  0
 12 13  1  0  0  0  0
 13  8  2  0  0  0  0
 16 10  1  0  0  0  0
 16 23  1  0  0  0  0
 17 16  1  0  0  0  0
 18 17  2  0  0  0  0
 18 20  1  0  0  0  0
 19 18  1  0  0  0  0
 20 22  1  0  0  0  0
 21 20  2  0  0  0  0
 22 23  1  0  0  0  0
 22 25  1  0  0  0  0
 23 24  2  0  0  0  0
 26  4  1  0  0  0  0
 27 26  1  0  0  0  0
 28 26  1  0  0  0  0
 29 30  1  0  0  0  0
 29 26  1  0  0  0  0
 31 29  1  0  0  0  0
 32 33  1  0  0  0  0
 33 29  1  0  0  0  0
 33 34  2  0  0  0  0
 34 42  1  0  0  0  0
 35 34  1  0  0  0  0
 35 36  1  0  0  0  0
 36 43  1  0  0  0  0
 37 44  1  0  0  0  0
 37 36  1  0  0  0  0
 38 37  2  0  0  0  0
 39 38  1  0  0  0  0
 39 35  2  0  0  0  0
 40 32  2  0  0  0  0
 40 39  1  0  0  0  0
 41 32  1  0  0  0  0
 45 38  1  0  0  0  0
 46 40  1  0  0  0  0
 46 47  2  0  0  0  0
 48 46  1  0  0  0  0
M  END
>  <minimizedAffinity>
-6.54098749

>  <minimizedRMSD>
8.60168552

$$$$
