
 OpenBabel03252506183D

 24 25  0  0  0  0  0  0  0  0999 V2000
   44.7380   35.5700   43.5690 C   0  0  0  0  0  0  0  0  0  0  0  0
   43.8900   35.4210   42.4570 C   0  0  0  0  0  0  0  0  0  0  0  0
   43.7870   34.1720   41.8600 C   0  0  0  0  0  0  0  0  0  0  0  0
   44.5120   33.1570   42.3820 N   0  0  0  0  0  0  0  0  0  0  0  0
   45.3210   33.3230   43.4520 C   0  0  0  0  0  0  0  0  0  0  0  0
   45.4290   34.5140   44.0360 N   0  0  0  0  0  0  0  0  0  0  0  0
   43.3650   36.2980   42.1320 H   0  0  0  0  0  0  0  0  0  0  0  0
   43.1350   34.0570   41.0030 H   0  0  0  0  0  0  0  0  0  0  0  0
   46.0110   32.1540   43.8730 N   0  0  0  0  0  0  0  0  0  0  0  0
   45.3610   31.0230   44.2720 C   0  0  0  0  0  3  0  0  0  0  0  0
   46.0580   29.9000   44.6760 C   0  0  0  0  0  0  0  0  0  0  0  0
   45.4900   29.0210   44.9860 H   0  0  0  0  0  0  0  0  0  0  0  0
   47.4380   29.9190   44.6780 C   0  0  0  0  0  0  0  0  0  0  0  0
   48.0420   28.8900   45.0480 O   0  0  0  0  0  0  0  0  0  0  0  0
   48.0430   31.0680   44.2730 N   0  0  0  0  0  0  0  0  0  0  0  0
   47.3520   32.1540   43.8820 C   0  0  0  0  0  0  0  0  0  0  0  0
   48.0640   33.1480   43.5310 O   0  0  0  0  0  0  0  0  0  0  0  0
   49.1010   30.9820   44.3090 H   0  0  0  0  0  0  0  0  0  0  0  0
   44.8590   36.8880   44.2160 C   0  0  0  0  0  3  0  0  0  0  0  0
   45.2700   37.8930   43.4520 C   0  0  0  0  0  3  0  0  0  0  0  0
   45.4150   39.2540   44.0460 C   0  0  0  0  0  0  0  0  0  0  0  0
   45.3380   39.9810   43.1890 H   0  0  0  0  0  0  0  0  0  0  0  0
   44.6810   39.4560   44.8380 H   0  0  0  0  0  0  0  0  0  0  0  0
   46.4270   39.3400   44.4860 H   0  0  0  0  0  0  0  0  0  0  0  0
  1  6  1  0  0  0  0
  1 19  1  0  0  0  0
  2  1  2  0  0  0  0
  3  4  2  0  0  0  0
  3  2  1  0  0  0  0
  4  5  1  0  0  0  0
  5  9  1  0  0  0  0
  5  6  2  0  0  0  0
  7  2  1  0  0  0  0
  8  3  1  0  0  0  0
  9 16  1  0  0  0  0
  9 10  1  0  0  0  0
 10 11  2  0  0  0  0
 11 13  1  0  0  0  0
 11 12  1  0  0  0  0
 13 14  2  0  0  0  0
 15 18  1  0  0  0  0
 15 13  1  0  0  0  0
 16 15  1  0  0  0  0
 17 16  2  0  0  0  0
 20 21  1  0  0  0  0
 20 19  2  0  0  0  0
 21 24  1  0  0  0  0
 21 23  1  0  0  0  0
 22 21  1  0  0  0  0
M  END
>  <minimizedAffinity>
-3.33236146

>  <minimizedRMSD>
0.50742811

$$$$
