
 OpenBabel03252503243D

 48 53  0  0  1  0  0  0  0  0999 V2000
   48.7340   30.6010   41.7050 C   0  0  0  0  0  0  0  0  0  0  0  0
   49.6860   29.6830   41.1440 C   0  0  0  0  0  0  0  0  0  0  0  0
   50.3270   28.8190   41.9930 C   0  0  0  0  0  0  0  0  0  0  0  0
   50.0170   28.8880   43.3190 N   0  0  0  0  0  0  0  0  0  0  0  0
   49.1150   29.7610   43.8360 C   0  0  0  0  0  0  0  0  0  0  0  0
   48.4740   30.6160   43.0240 N   0  0  0  0  0  0  0  0  0  0  0  0
   48.2500   31.2670   40.9930 H   0  0  0  0  0  0  0  0  0  0  0  0
   51.0380   28.1270   41.6110 H   0  0  0  0  0  0  0  0  0  0  0  0
   49.9400   29.7210   39.6730 C   0  0  1  0  0  0  0  0  0  0  0  0
   49.3290   30.7570   38.8450 C   0  0  0  0  0  0  0  0  0  0  0  0
   50.7730   30.8880   39.1620 C   0  0  2  0  0  0  0  0  0  0  0  0
   50.2040   28.7340   39.2560 H   0  0  0  0  0  0  0  0  0  0  0  0
   48.6060   31.4400   39.4050 H   0  0  0  0  0  0  0  0  0  0  0  0
   48.8960   30.4370   37.9070 H   0  0  0  0  0  0  0  0  0  0  0  0
   51.0760   31.6340   39.9330 H   0  0  0  0  0  0  0  0  0  0  0  0
   51.7390   30.5240   38.0930 C   0  0  0  0  0  0  0  0  0  0  0  0
   53.0410   30.1300   38.3170 C   0  0  0  0  0  0  0  0  0  0  0  0
   53.8790   29.8120   37.2650 C   0  0  0  0  0  0  0  0  0  0  0  0
   53.4280   29.8830   35.9720 C   0  0  0  0  0  0  0  0  0  0  0  0
   54.2310   29.5710   34.9200 N   0  0  0  0  0  0  0  0  0  0  0  0
   53.7560   29.6470   33.6470 C   0  0  0  0  0  0  0  0  0  0  0  0
   52.4350   30.0430   33.3230 C   0  0  0  0  0  0  0  0  0  0  0  0
   51.6170   30.3600   34.3790 C   0  0  0  0  0  0  0  0  0  0  0  0
   52.1230   30.2760   35.6890 C   0  0  0  0  0  0  0  0  0  0  0  0
   51.3160   30.5850   36.7650 C   0  0  0  0  0  0  0  0  0  0  0  0
   53.3910   30.0760   39.3250 H   0  0  0  0  0  0  0  0  0  0  0  0
   54.9130   29.5000   37.4600 H   0  0  0  0  0  0  0  0  0  0  0  0
   54.3950   29.3990   32.8120 H   0  0  0  0  0  0  0  0  0  0  0  0
   52.1440   30.0760   32.2870 H   0  0  0  0  0  0  0  0  0  0  0  0
   50.5980   30.6690   34.1890 H   0  0  0  0  0  0  0  0  0  0  0  0
   50.3220   30.8870   36.4670 H   0  0  0  0  0  0  0  0  0  0  0  0
   48.8700   29.7290   45.3000 C   0  0  2  0  0  0  0  0  0  0  0  0
   48.7510   28.4750   46.0280 C   0  0  0  0  0  0  0  0  0  0  0  0
   47.4600   29.1810   45.6840 C   0  0  1  0  0  0  0  0  0  0  0  0
   49.1170   30.6910   45.7960 H   0  0  0  0  0  0  0  0  0  0  0  0
   48.8920   27.5000   45.5260 H   0  0  0  0  0  0  0  0  0  0  0  0
   49.1250   28.4810   47.0780 H   0  0  0  0  0  0  0  0  0  0  0  0
   46.8430   28.7910   44.8740 H   0  0  0  0  0  0  0  0  0  0  0  0
   46.8090   29.7840   46.8300 N   0  0  0  0  0  0  0  0  0  0  0  0
   47.0240   31.0850   47.1620 C   0  0  0  0  0  3  0  0  0  0  0  0
   46.4260   31.7000   48.2440 C   0  0  0  0  0  0  0  0  0  0  0  0
   46.6200   32.7350   48.4790 H   0  0  0  0  0  0  0  0  0  0  0  0
   45.5690   30.9490   49.0200 C   0  0  0  0  0  0  0  0  0  0  0  0
   45.0130   31.4760   50.0030 O   0  0  0  0  0  0  0  0  0  0  0  0
   45.3550   29.6630   48.6910 N   0  0  0  0  0  0  0  0  0  0  0  0
   45.9620   29.1110   47.6300 C   0  0  0  0  0  0  0  0  0  0  0  0
   45.7070   27.9010   47.3920 O   0  0  0  0  0  0  0  0  0  0  0  0
   44.7030   29.0840   49.2790 H   0  0  0  0  0  0  0  0  0  0  0  0
  1  6  1  0  0  0  0
  2  1  2  0  0  0  0
  2  3  1  0  0  0  0
  3  4  2  0  0  0  0
  4  5  1  0  0  0  0
  5 32  1  0  0  0  0
  6  5  2  0  0  0  0
  7  1  1  0  0  0  0
  8  3  1  0  0  0  0
  9 12  1  6  0  0  0
  9  2  1  0  0  0  0
 10 11  1  0  0  0  0
 10 13  1  0  0  0  0
 10  9  1  0  0  0  0
 11  9  1  0  0  0  0
 11 15  1  1  0  0  0
 14 10  1  0  0  0  0
 16 17  1  0  0  0  0
 16 11  1  0  0  0  0
 17 26  1  0  0  0  0
 18 27  1  0  0  0  0
 18 17  2  0  0  0  0
 19 18  1  0  0  0  0
 20 19  2  0  0  0  0
 21 20  1  0  0  0  0
 22 21  2  0  0  0  0
 22 23  1  0  0  0  0
 23 24  2  0  0  0  0
 24 19  1  0  0  0  0
 24 25  1  0  0  0  0
 25 16  2  0  0  0  0
 28 21  1  0  0  0  0
 29 22  1  0  0  0  0
 30 23  1  0  0  0  0
 31 25  1  0  0  0  0
 32 34  1  0  0  0  0
 32 35  1  1  0  0  0
 32 33  1  0  0  0  0
 33 37  1  0  0  0  0
 34 38  1  6  0  0  0
 34 33  1  0  0  0  0
 34 39  1  0  0  0  0
 36 33  1  0  0  0  0
 39 40  1  0  0  0  0
 39 46  1  0  0  0  0
 40 41  2  0  0  0  0
 41 42  1  0  0  0  0
 41 43  1  0  0  0  0
 43 44  2  0  0  0  0
 45 43  1  0  0  0  0
 45 48  1  0  0  0  0
 46 45  1  0  0  0  0
 47 46  2  0  0  0  0
M  END
>  <minimizedAffinity>
-4.13848448

>  <minimizedRMSD>
5.51187706

$$$$
