
 OpenBabel03252502393D

 47 50  0  0  1  0  0  0  0  0999 V2000
   44.0970   33.4780   40.7530 C   0  0  1  0  0  0  0  0  0  0  0  0
   43.7080   32.4910   40.3620 H   0  0  0  0  0  0  0  0  0  0  0  0
   43.1110   34.4530   40.3770 N   0  0  0  0  0  0  0  0  0  0  0  0
   42.3190   34.0490   39.2770 C   0  0  0  0  0  0  0  0  0  0  0  0
   41.6340   35.3340   38.7740 C   0  0  0  0  0  0  0  0  0  0  0  0
   40.6940   35.6410   39.7840 N   0  0  0  0  0  0  0  0  0  0  0  0
   41.2200   35.8310   41.0620 C   0  0  0  0  0  0  0  0  0  0  0  0
   42.3420   34.8860   41.4670 C   0  0  0  0  0  0  0  0  0  0  0  0
   42.9650   33.7120   38.4400 H   0  0  0  0  0  0  0  0  0  0  0  0
   41.5350   33.2940   39.4900 H   0  0  0  0  0  0  0  0  0  0  0  0
   42.4070   36.0900   38.5830 H   0  0  0  0  0  0  0  0  0  0  0  0
   41.0920   35.0630   37.8390 H   0  0  0  0  0  0  0  0  0  0  0  0
   39.7160   35.5810   39.5940 H   0  0  0  0  0  0  0  0  0  0  0  0
   40.3950   35.8410   41.8110 H   0  0  0  0  0  0  0  0  0  0  0  0
   41.6400   36.8780   41.1000 H   0  0  0  0  0  0  0  0  0  0  0  0
   42.7610   35.3390   42.3330 H   0  0  0  0  0  0  0  0  0  0  0  0
   41.6930   33.9870   41.7200 H   0  0  0  0  0  0  0  0  0  0  0  0
   45.8930   33.1840   39.0480 C   0  0  0  0  0  0  0  0  0  0  0  0
   45.4220   33.6750   40.2540 C   0  0  0  0  0  0  0  0  0  0  0  0
   46.3430   34.4200   41.0140 C   0  0  0  0  0  0  0  0  0  0  0  0
   47.6140   34.6160   40.5440 N   0  0  0  0  0  0  0  0  0  0  0  0
   48.0060   34.1020   39.3490 C   0  0  0  0  0  0  0  0  0  0  0  0
   47.1390   33.3860   38.6030 N   0  0  0  0  0  0  0  0  0  0  0  0
   45.1850   32.6220   38.4800 H   0  0  0  0  0  0  0  0  0  0  0  0
   46.0440   34.8350   41.9690 H   0  0  0  0  0  0  0  0  0  0  0  0
   49.0110   34.2580   38.9780 H   0  0  0  0  0  0  0  0  0  0  0  0
   44.1690   33.4110   42.2850 C   0  0  0  0  0  0  0  0  0  0  0  0
   44.6710   34.2390   42.7740 H   0  0  0  0  0  0  0  0  0  0  0  0
   43.0870   33.7050   42.4830 H   0  0  0  0  0  0  0  0  0  0  0  0
   44.5080   32.1480   42.8480 C   0  0  0  0  0  0  0  0  0  0  0  0
   44.2940   30.8370   42.5880 C   0  0  0  0  0  0  0  0  0  0  0  0
   44.7300   29.7390   43.3050 C   0  0  0  0  0  0  0  0  0  0  0  0
   45.4490   30.0160   44.3850 N   0  0  0  0  0  0  0  0  0  0  0  0
   45.7080   31.2600   44.7180 C   0  0  0  0  0  0  0  0  0  0  0  0
   45.2510   32.2520   43.9720 N   0  0  0  0  0  0  0  0  0  0  0  0
   43.6820   30.7010   41.6760 H   0  0  0  0  0  0  0  0  0  0  0  0
   44.4470   28.7910   42.9210 H   0  0  0  0  0  0  0  0  0  0  0  0
   46.4940   31.4370   45.9050 N   0  0  0  0  0  0  0  0  0  0  0  0
   47.0860   30.3490   46.4820 C   0  0  0  0  0  0  0  0  0  0  0  0
   47.8580   30.4780   47.6370 C   0  0  0  0  0  0  0  0  0  0  0  0
   48.3370   29.6270   48.1100 H   0  0  0  0  0  0  0  0  0  0  0  0
   47.9650   31.7710   48.1300 C   0  0  0  0  0  0  0  0  0  0  0  0
   48.6370   31.9970   49.1640 O   0  0  0  0  0  0  0  0  0  0  0  0
   47.3780   32.8220   47.5510 N   0  0  0  0  0  0  0  0  0  0  0  0
   46.6430   32.6460   46.4370 C   0  0  0  0  0  0  0  0  0  0  0  0
   46.1110   33.6910   45.9360 O   0  0  0  0  0  0  0  0  0  0  0  0
   47.4840   33.7800   47.9550 H   0  0  0  0  0  0  0  0  0  0  0  0
  1  2  1  6  0  0  0
  1 27  1  0  0  0  0
  3  1  1  0  0  0  0
  3  8  1  0  0  0  0
  4 10  1  0  0  0  0
  4  3  1  0  0  0  0
  5  4  1  0  0  0  0
  5  6  1  0  0  0  0
  6  7  1  0  0  0  0
  7 15  1  0  0  0  0
  7  8  1  0  0  0  0
  7 14  1  0  0  0  0
  8 17  1  0  0  0  0
  8 16  1  0  0  0  0
  9  4  1  0  0  0  0
 11  5  1  0  0  0  0
 12  5  1  0  0  0  0
 13  6  1  0  0  0  0
 18 19  1  0  0  0  0
 19  1  1  0  0  0  0
 19 20  2  0  0  0  0
 20 25  1  0  0  0  0
 21 20  1  0  0  0  0
 22 21  2  0  0  0  0
 23 18  2  0  0  0  0
 23 22  1  0  0  0  0
 24 18  1  0  0  0  0
 26 22  1  0  0  0  0
 27 29  1  0  0  0  0
 27 28  1  0  0  0  0
 27 30  1  0  0  0  0
 30 35  1  0  0  0  0
 31 30  2  0  0  0  0
 31 32  1  0  0  0  0
 32 33  2  0  0  0  0
 33 34  1  0  0  0  0
 34 38  1  0  0  0  0
 35 34  2  0  0  0  0
 36 31  1  0  0  0  0
 37 32  1  0  0  0  0
 38 45  1  0  0  0  0
 38 39  1  0  0  0  0
 39 40  2  0  0  0  0
 40 41  1  0  0  0  0
 40 42  1  0  0  0  0
 42 43  2  0  0  0  0
 44 47  1  0  0  0  0
 44 42  1  0  0  0  0
 45 44  1  0  0  0  0
 46 45  2  0  0  0  0
M  END
>  <minimizedAffinity>
-5.9298625

>  <minimizedRMSD>
4.54389524

$$$$
