
 OpenBabel03252503033D

 34 35  0  0  0  0  0  0  0  0999 V2000
   39.9100   32.2580   40.9570 C   0  0  0  0  0  0  0  0  0  0  0  0
   39.0150   33.2240   40.5090 C   0  0  0  0  0  0  0  0  0  0  0  0
   37.6760   32.9240   40.2770 C   0  0  0  0  0  0  0  0  0  0  0  0
   37.2840   31.6380   40.5090 N   0  0  0  0  0  0  0  0  0  0  0  0
   38.1600   30.7320   40.9390 C   0  0  0  0  0  0  0  0  0  0  0  0
   39.4500   30.9910   41.1690 N   0  0  0  0  0  0  0  0  0  0  0  0
   40.9240   32.5750   41.1100 H   0  0  0  0  0  0  0  0  0  0  0  0
   36.9720   33.6630   39.9290 H   0  0  0  0  0  0  0  0  0  0  0  0
   37.8420   29.3570   41.2110 N   0  0  0  0  0  0  0  0  0  0  0  0
   37.3970   28.6850   40.1330 C   0  0  0  0  0  3  0  0  0  0  0  0
   37.0690   27.3410   40.3300 C   0  0  0  0  0  0  0  0  0  0  0  0
   36.6970   26.6990   39.5180 H   0  0  0  0  0  0  0  0  0  0  0  0
   37.2260   26.8060   41.6100 C   0  0  0  0  0  0  0  0  0  0  0  0
   36.9290   25.5990   41.7770 O   0  0  0  0  0  0  0  0  0  0  0  0
   37.6780   27.5250   42.6640 N   0  0  0  0  0  0  0  0  0  0  0  0
   37.9850   28.8210   42.4370 C   0  0  0  0  0  0  0  0  0  0  0  0
   38.4120   29.5670   43.3480 O   0  0  0  0  0  0  0  0  0  0  0  0
   37.7840   27.0970   43.6060 H   0  0  0  0  0  0  0  0  0  0  0  0
   39.6070   34.9130   40.2200 S   0  0  0  0  0  0  0  0  0  0  0  0
   41.4020   34.9150   40.1930 C   0  0  0  0  0  0  0  0  0  0  0  0
   41.7550   33.8830   40.3580 H   0  0  0  0  0  0  0  0  0  0  0  0
   41.8060   35.6400   40.9530 H   0  0  0  0  0  0  0  0  0  0  0  0
   41.8060   35.4460   38.8890 N   0  0  0  0  0  0  0  0  0  0  0  0
   40.9290   35.6170   38.3510 H   0  0  0  0  0  0  0  0  0  0  0  0
   42.8390   34.3700   38.0370 S   0  0  0  0  0  0  0  0  0  0  0  0
   42.6250   34.4250   36.5600 O   0  0  0  0  0  0  0  0  0  0  0  0
   41.7690   34.1810   36.1220 H   0  0  0  0  0  0  0  0  0  0  0  0
   44.2520   34.8080   38.3820 O   0  0  0  0  0  0  0  0  0  0  0  0
   44.7710   35.4110   37.7990 H   0  0  0  0  0  0  0  0  0  0  0  0
   42.6570   32.8190   38.6300 O   0  0  0  0  0  0  0  0  0  0  0  0
   43.8520   32.2960   39.0840 C   0  0  0  0  0  0  0  0  0  0  0  0
   44.3320   31.7870   38.2260 H   0  0  0  0  0  0  0  0  0  0  0  0
   44.4930   33.0800   39.5480 H   0  0  0  0  0  0  0  0  0  0  0  0
   43.6380   31.5260   39.8570 H   0  0  0  0  0  0  0  0  0  0  0  0
  1  7  1  0  0  0  0
  1  6  1  0  0  0  0
  2  1  2  0  0  0  0
  3  2  1  0  0  0  0
  3  4  2  0  0  0  0
  4  5  1  0  0  0  0
  5  6  2  0  0  0  0
  5  9  1  0  0  0  0
  8  3  1  0  0  0  0
  9 16  1  0  0  0  0
 10 11  2  0  0  0  0
 10  9  1  0  0  0  0
 11 13  1  0  0  0  0
 12 11  1  0  0  0  0
 13 14  2  0  0  0  0
 13 15  1  0  0  0  0
 15 18  1  0  0  0  0
 16 15  1  0  0  0  0
 16 17  2  0  0  0  0
 19  2  1  0  0  0  0
 20 19  1  0  0  0  0
 20 21  1  0  0  0  0
 20 22  1  0  0  0  0
 23 20  1  0  0  0  0
 24 23  1  0  0  0  0
 25 28  1  0  0  0  0
 25 30  1  0  0  0  0
 25 23  1  0  0  0  0
 26 25  1  0  0  0  0
 27 26  1  0  0  0  0
 29 28  1  0  0  0  0
 30 31  1  0  0  0  0
 31 33  1  0  0  0  0
 31 34  1  0  0  0  0
 32 31  1  0  0  0  0
M  END
>  <minimizedAffinity>
-5.97012234

$$$$

 OpenBabel03252503033D

 34 35  0  0  0  0  0  0  0  0999 V2000
   37.3600   27.1940   40.6690 C   0  0  0  0  0  0  0  0  0  0  0  0
   37.4490   26.7000   41.9670 C   0  0  0  0  0  0  0  0  0  0  0  0
   37.6680   27.5410   43.0540 C   0  0  0  0  0  0  0  0  0  0  0  0
   37.7910   28.8730   42.7860 N   0  0  0  0  0  0  0  0  0  0  0  0
   37.7010   29.3210   41.5350 C   0  0  0  0  0  0  0  0  0  0  0  0
   37.4920   28.5380   40.4730 N   0  0  0  0  0  0  0  0  0  0  0  0
   37.1900   26.4750   39.8910 H   0  0  0  0  0  0  0  0  0  0  0  0
   37.7390   27.1710   44.0630 H   0  0  0  0  0  0  0  0  0  0  0  0
   37.8160   30.7030   41.1550 N   0  0  0  0  0  0  0  0  0  0  0  0
   39.0100   31.2450   41.4580 C   0  0  0  0  0  3  0  0  0  0  0  0
   39.1880   32.5890   41.1150 C   0  0  0  0  0  0  0  0  0  0  0  0
   40.1240   33.1300   41.3170 H   0  0  0  0  0  0  0  0  0  0  0  0
   38.1310   33.2550   40.4940 C   0  0  0  0  0  0  0  0  0  0  0  0
   38.3000   34.4590   40.1900 O   0  0  0  0  0  0  0  0  0  0  0  0
   36.9470   32.6640   40.2100 N   0  0  0  0  0  0  0  0  0  0  0  0
   36.8100   31.3640   40.5550 C   0  0  0  0  0  0  0  0  0  0  0  0
   35.7520   30.7310   40.3330 O   0  0  0  0  0  0  0  0  0  0  0  0
   36.1770   33.1880   39.7450 H   0  0  0  0  0  0  0  0  0  0  0  0
   37.2770   24.9170   42.2480 S   0  0  0  0  0  0  0  0  0  0  0  0
   38.8100   24.0960   41.8020 C   0  0  0  0  0  0  0  0  0  0  0  0
   39.2960   24.6770   41.0010 H   0  0  0  0  0  0  0  0  0  0  0  0
   38.6130   23.0270   41.5080 H   0  0  0  0  0  0  0  0  0  0  0  0
   39.6230   24.0260   43.0190 N   0  0  0  0  0  0  0  0  0  0  0  0
   38.9620   24.0840   43.8240 H   0  0  0  0  0  0  0  0  0  0  0  0
   40.7880   25.2850   43.1000 S   0  0  0  0  0  0  0  0  0  0  0  0
   40.6180   26.1410   44.3110 O   0  0  0  0  0  0  0  0  0  0  0  0
   39.8060   26.6830   44.4880 H   0  0  0  0  0  0  0  0  0  0  0  0
   42.1370   24.5870   43.1320 O   0  0  0  0  0  0  0  0  0  0  0  0
   42.6100   24.3990   43.9770 H   0  0  0  0  0  0  0  0  0  0  0  0
   40.7470   26.1880   41.6950 O   0  0  0  0  0  0  0  0  0  0  0  0
   41.2280   27.4680   41.8900 C   0  0  0  0  0  0  0  0  0  0  0  0
   40.3670   28.0990   42.1820 H   0  0  0  0  0  0  0  0  0  0  0  0
   42.0600   27.4850   42.6300 H   0  0  0  0  0  0  0  0  0  0  0  0
   41.6190   27.8560   40.9240 H   0  0  0  0  0  0  0  0  0  0  0  0
  1  2  1  0  0  0  0
  2 19  1  0  0  0  0
  2  3  2  0  0  0  0
  3  8  1  0  0  0  0
  4  3  1  0  0  0  0
  5  4  2  0  0  0  0
  6  1  2  0  0  0  0
  6  5  1  0  0  0  0
  7  1  1  0  0  0  0
  9 10  1  0  0  0  0
  9  5  1  0  0  0  0
 11 12  1  0  0  0  0
 11 10  2  0  0  0  0
 13 11  1  0  0  0  0
 14 13  2  0  0  0  0
 15 13  1  0  0  0  0
 15 16  1  0  0  0  0
 16  9  1  0  0  0  0
 17 16  2  0  0  0  0
 18 15  1  0  0  0  0
 20 19  1  0  0  0  0
 20 23  1  0  0  0  0
 21 20  1  0  0  0  0
 22 20  1  0  0  0  0
 23 25  1  0  0  0  0
 23 24  1  0  0  0  0
 25 28  1  0  0  0  0
 25 26  1  0  0  0  0
 26 27  1  0  0  0  0
 28 29  1  0  0  0  0
 30 31  1  0  0  0  0
 30 25  1  0  0  0  0
 31 32  1  0  0  0  0
 31 33  1  0  0  0  0
 34 31  1  0  0  0  0
M  END
>  <minimizedAffinity>
-5.8571763

$$$$

 OpenBabel03252503033D

 34 35  0  0  0  0  0  0  0  0999 V2000
   37.7220   32.1120   40.1750 C   0  0  0  0  0  0  0  0  0  0  0  0
   38.8520   32.7250   40.7070 C   0  0  0  0  0  0  0  0  0  0  0  0
   39.7090   32.0490   41.5710 C   0  0  0  0  0  0  0  0  0  0  0  0
   39.3880   30.7580   41.8710 N   0  0  0  0  0  0  0  0  0  0  0  0
   38.3000   30.1940   41.3480 C   0  0  0  0  0  0  0  0  0  0  0  0
   37.4600   30.8170   40.5180 N   0  0  0  0  0  0  0  0  0  0  0  0
   37.1160   32.7060   39.5170 H   0  0  0  0  0  0  0  0  0  0  0  0
   40.5870   32.5130   41.9890 H   0  0  0  0  0  0  0  0  0  0  0  0
   37.8820   28.8430   41.6040 N   0  0  0  0  0  0  0  0  0  0  0  0
   37.6080   28.6020   42.9000 C   0  0  0  0  0  3  0  0  0  0  0  0
   37.1950   27.3050   43.2180 C   0  0  0  0  0  0  0  0  0  0  0  0
   36.9460   27.0000   44.2450 H   0  0  0  0  0  0  0  0  0  0  0  0
   37.0990   26.3730   42.1840 C   0  0  0  0  0  0  0  0  0  0  0  0
   36.7280   25.2120   42.4780 O   0  0  0  0  0  0  0  0  0  0  0  0
   37.3870   26.6650   40.8930 N   0  0  0  0  0  0  0  0  0  0  0  0
   37.7830   27.9280   40.6220 C   0  0  0  0  0  0  0  0  0  0  0  0
   38.0690   28.2940   39.4600 O   0  0  0  0  0  0  0  0  0  0  0  0
   37.3050   25.9470   40.1440 H   0  0  0  0  0  0  0  0  0  0  0  0
   39.2160   34.4450   40.2640 S   0  0  0  0  0  0  0  0  0  0  0  0
   40.8450   34.5310   39.5150 C   0  0  0  0  0  0  0  0  0  0  0  0
   41.5900   34.2050   40.2600 H   0  0  0  0  0  0  0  0  0  0  0  0
   41.0450   35.5690   39.1260 H   0  0  0  0  0  0  0  0  0  0  0  0
   40.8150   33.6670   38.3330 N   0  0  0  0  0  0  0  0  0  0  0  0
   40.3790   32.7680   38.6300 H   0  0  0  0  0  0  0  0  0  0  0  0
   42.3820   33.3940   37.6840 S   0  0  0  0  0  0  0  0  0  0  0  0
   42.4970   32.0640   37.0160 O   0  0  0  0  0  0  0  0  0  0  0  0
   42.3850   31.2010   37.4920 H   0  0  0  0  0  0  0  0  0  0  0  0
   42.6040   34.5110   36.6780 O   0  0  0  0  0  0  0  0  0  0  0  0
   42.4290   34.3910   35.7150 H   0  0  0  0  0  0  0  0  0  0  0  0
   43.5330   33.5860   38.8780 O   0  0  0  0  0  0  0  0  0  0  0  0
   44.7980   33.7660   38.3530 C   0  0  0  0  0  0  0  0  0  0  0  0
   45.2500   32.7620   38.2410 H   0  0  0  0  0  0  0  0  0  0  0  0
   44.7680   34.3460   37.4030 H   0  0  0  0  0  0  0  0  0  0  0  0
   45.4140   34.3350   39.0830 H   0  0  0  0  0  0  0  0  0  0  0  0
  1  6  2  0  0  0  0
  1  2  1  0  0  0  0
  2  3  2  0  0  0  0
  3  4  1  0  0  0  0
  3  8  1  0  0  0  0
  5  9  1  0  0  0  0
  5  4  2  0  0  0  0
  6  5  1  0  0  0  0
  7  1  1  0  0  0  0
  9 10  1  0  0  0  0
 10 11  2  0  0  0  0
 11 12  1  0  0  0  0
 13 14  2  0  0  0  0
 13 11  1  0  0  0  0
 15 13  1  0  0  0  0
 16 15  1  0  0  0  0
 16  9  1  0  0  0  0
 17 16  2  0  0  0  0
 18 15  1  0  0  0  0
 19  2  1  0  0  0  0
 20 21  1  0  0  0  0
 20 19  1  0  0  0  0
 22 20  1  0  0  0  0
 23 24  1  0  0  0  0
 23 20  1  0  0  0  0
 25 23  1  0  0  0  0
 25 30  1  0  0  0  0
 26 27  1  0  0  0  0
 26 25  1  0  0  0  0
 28 25  1  0  0  0  0
 29 28  1  0  0  0  0
 31 30  1  0  0  0  0
 31 34  1  0  0  0  0
 32 31  1  0  0  0  0
 33 31  1  0  0  0  0
M  END
>  <minimizedAffinity>
-5.58351469

$$$$

 OpenBabel03252503033D

 34 35  0  0  0  0  0  0  0  0999 V2000
   37.7850   28.5850   41.5400 C   0  0  0  0  0  0  0  0  0  0  0  0
   36.8100   29.2240   40.7800 C   0  0  0  0  0  0  0  0  0  0  0  0
   36.0610   28.5370   39.8290 C   0  0  0  0  0  0  0  0  0  0  0  0
   36.3290   27.2080   39.6770 N   0  0  0  0  0  0  0  0  0  0  0  0
   37.2670   26.6200   40.4170 C   0  0  0  0  0  0  0  0  0  0  0  0
   38.0010   27.2530   41.3360 N   0  0  0  0  0  0  0  0  0  0  0  0
   38.3150   29.1900   42.2500 H   0  0  0  0  0  0  0  0  0  0  0  0
   35.3030   29.0200   39.2340 H   0  0  0  0  0  0  0  0  0  0  0  0
   37.6190   25.2290   40.3300 N   0  0  0  0  0  0  0  0  0  0  0  0
   38.0870   24.8680   39.1210 C   0  0  0  0  0  3  0  0  0  0  0  0
   38.4480   23.5260   38.9680 C   0  0  0  0  0  0  0  0  0  0  0  0
   38.8420   23.1250   38.0230 H   0  0  0  0  0  0  0  0  0  0  0  0
   38.2980   22.6760   40.0640 C   0  0  0  0  0  0  0  0  0  0  0  0
   38.6240   21.4740   39.9180 O   0  0  0  0  0  0  0  0  0  0  0  0
   37.8210   23.0880   41.2630 N   0  0  0  0  0  0  0  0  0  0  0  0
   37.4820   24.3910   41.3740 C   0  0  0  0  0  0  0  0  0  0  0  0
   37.0330   24.8660   42.4420 O   0  0  0  0  0  0  0  0  0  0  0  0
   37.7210   22.4290   42.0620 H   0  0  0  0  0  0  0  0  0  0  0  0
   36.5080   30.9930   41.0350 S   0  0  0  0  0  0  0  0  0  0  0  0
   37.1760   31.9140   39.6450 C   0  0  0  0  0  0  0  0  0  0  0  0
   36.5830   31.6700   38.7480 H   0  0  0  0  0  0  0  0  0  0  0  0
   38.2720   31.6920   39.5170 H   0  0  0  0  0  0  0  0  0  0  0  0
   37.1010   33.3330   40.0010 N   0  0  0  0  0  0  0  0  0  0  0  0
   36.6250   33.8150   39.2080 H   0  0  0  0  0  0  0  0  0  0  0  0
   38.6500   34.0170   40.2860 S   0  0  0  0  0  0  0  0  0  0  0  0
   38.8600   35.2860   39.5270 O   0  0  0  0  0  0  0  0  0  0  0  0
   38.8580   35.3370   38.5360 H   0  0  0  0  0  0  0  0  0  0  0  0
   38.7070   34.2810   41.7810 O   0  0  0  0  0  0  0  0  0  0  0  0
   38.4940   35.1640   42.1660 H   0  0  0  0  0  0  0  0  0  0  0  0
   39.8380   32.8930   39.9500 O   0  0  0  0  0  0  0  0  0  0  0  0
   40.5830   33.2440   38.8400 C   0  0  0  0  0  0  0  0  0  0  0  0
   40.0800   32.8040   37.9580 H   0  0  0  0  0  0  0  0  0  0  0  0
   40.7160   34.3480   38.7680 H   0  0  0  0  0  0  0  0  0  0  0  0
   41.5900   32.7810   38.9210 H   0  0  0  0  0  0  0  0  0  0  0  0
  1  7  1  0  0  0  0
  2 19  1  0  0  0  0
  2  1  2  0  0  0  0
  3  2  1  0  0  0  0
  4  3  2  0  0  0  0
  4  5  1  0  0  0  0
  5  6  2  0  0  0  0
  6  1  1  0  0  0  0
  8  3  1  0  0  0  0
  9  5  1  0  0  0  0
  9 16  1  0  0  0  0
 10  9  1  0  0  0  0
 11 10  2  0  0  0  0
 11 13  1  0  0  0  0
 12 11  1  0  0  0  0
 13 15  1  0  0  0  0
 14 13  2  0  0  0  0
 15 16  1  0  0  0  0
 15 18  1  0  0  0  0
 16 17  2  0  0  0  0
 20 23  1  0  0  0  0
 20 19  1  0  0  0  0
 21 20  1  0  0  0  0
 22 20  1  0  0  0  0
 23 25  1  0  0  0  0
 24 23  1  0  0  0  0
 25 28  1  0  0  0  0
 26 25  1  0  0  0  0
 27 26  1  0  0  0  0
 28 29  1  0  0  0  0
 30 25  1  0  0  0  0
 31 34  1  0  0  0  0
 31 30  1  0  0  0  0
 32 31  1  0  0  0  0
 33 31  1  0  0  0  0
M  END
>  <minimizedAffinity>
-5.53207731

$$$$

 OpenBabel03252503033D

 34 35  0  0  0  0  0  0  0  0999 V2000
   37.5270   28.5420   42.6070 C   0  0  0  0  0  0  0  0  0  0  0  0
   37.6060   27.5490   41.6350 C   0  0  0  0  0  0  0  0  0  0  0  0
   37.8890   27.8530   40.3060 C   0  0  0  0  0  0  0  0  0  0  0  0
   38.0840   29.1690   40.0030 N   0  0  0  0  0  0  0  0  0  0  0  0
   38.0030   30.0990   40.9530 C   0  0  0  0  0  0  0  0  0  0  0  0
   37.7330   29.8380   42.2340 N   0  0  0  0  0  0  0  0  0  0  0  0
   37.3040   28.2190   43.6060 H   0  0  0  0  0  0  0  0  0  0  0  0
   37.9530   27.0940   39.5430 H   0  0  0  0  0  0  0  0  0  0  0  0
   38.1920   31.5070   40.7310 N   0  0  0  0  0  0  0  0  0  0  0  0
   37.3010   32.0400   39.8750 C   0  0  0  0  0  3  0  0  0  0  0  0
   37.4300   33.4080   39.6150 C   0  0  0  0  0  0  0  0  0  0  0  0
   36.7560   33.9450   38.9320 H   0  0  0  0  0  0  0  0  0  0  0  0
   38.4570   34.1050   40.2530 C   0  0  0  0  0  0  0  0  0  0  0  0
   38.5650   35.3310   40.0140 O   0  0  0  0  0  0  0  0  0  0  0  0
   39.3310   33.5210   41.1070 N   0  0  0  0  0  0  0  0  0  0  0  0
   39.1760   32.1980   41.3350 C   0  0  0  0  0  0  0  0  0  0  0  0
   39.9330   31.5700   42.1100 O   0  0  0  0  0  0  0  0  0  0  0  0
   40.0860   34.0690   41.5670 H   0  0  0  0  0  0  0  0  0  0  0  0
   37.3350   25.8210   42.1100 S   0  0  0  0  0  0  0  0  0  0  0  0
   38.7140   24.8250   41.5340 C   0  0  0  0  0  0  0  0  0  0  0  0
   39.3130   25.4300   40.8330 H   0  0  0  0  0  0  0  0  0  0  0  0
   38.3420   23.8670   41.0740 H   0  0  0  0  0  0  0  0  0  0  0  0
   39.4720   24.4230   42.7210 N   0  0  0  0  0  0  0  0  0  0  0  0
   38.7930   24.3870   43.5120 H   0  0  0  0  0  0  0  0  0  0  0  0
   40.7550   25.5090   43.0740 S   0  0  0  0  0  0  0  0  0  0  0  0
   40.5660   26.2080   44.3800 O   0  0  0  0  0  0  0  0  0  0  0  0
   39.8060   26.8160   44.5700 H   0  0  0  0  0  0  0  0  0  0  0  0
   42.0100   24.6530   43.1100 O   0  0  0  0  0  0  0  0  0  0  0  0
   42.3780   24.2970   43.9540 H   0  0  0  0  0  0  0  0  0  0  0  0
   40.9460   26.5910   41.8170 O   0  0  0  0  0  0  0  0  0  0  0  0
   42.2780   26.7940   41.5080 C   0  0  0  0  0  0  0  0  0  0  0  0
   42.6320   27.6370   42.1320 H   0  0  0  0  0  0  0  0  0  0  0  0
   42.8750   25.8640   41.6390 H   0  0  0  0  0  0  0  0  0  0  0  0
   42.3560   27.1060   40.4440 H   0  0  0  0  0  0  0  0  0  0  0  0
  1  7  1  0  0  0  0
  2 19  1  0  0  0  0
  2  1  2  0  0  0  0
  3  2  1  0  0  0  0
  4  3  2  0  0  0  0
  4  5  1  0  0  0  0
  5  6  2  0  0  0  0
  6  1  1  0  0  0  0
  8  3  1  0  0  0  0
  9  5  1  0  0  0  0
  9 16  1  0  0  0  0
 10  9  1  0  0  0  0
 11 10  2  0  0  0  0
 11 13  1  0  0  0  0
 12 11  1  0  0  0  0
 13 15  1  0  0  0  0
 14 13  2  0  0  0  0
 15 16  1  0  0  0  0
 15 18  1  0  0  0  0
 16 17  2  0  0  0  0
 20 19  1  0  0  0  0
 20 23  1  0  0  0  0
 21 20  1  0  0  0  0
 22 20  1  0  0  0  0
 23 25  1  0  0  0  0
 23 24  1  0  0  0  0
 25 28  1  0  0  0  0
 25 26  1  0  0  0  0
 26 27  1  0  0  0  0
 28 29  1  0  0  0  0
 30 25  1  0  0  0  0
 31 33  1  0  0  0  0
 31 30  1  0  0  0  0
 31 32  1  0  0  0  0
 34 31  1  0  0  0  0
M  END
>  <minimizedAffinity>
-5.50784397

$$$$

 OpenBabel03252503033D

 34 35  0  0  0  0  0  0  0  0999 V2000
   39.6700   31.9440   41.2490 C   0  0  0  0  0  0  0  0  0  0  0  0
   38.7790   32.8560   40.6920 C   0  0  0  0  0  0  0  0  0  0  0  0
   37.4810   32.4890   40.3500 C   0  0  0  0  0  0  0  0  0  0  0  0
   37.1240   31.1940   40.5860 N   0  0  0  0  0  0  0  0  0  0  0  0
   37.9960   30.3400   41.1210 C   0  0  0  0  0  0  0  0  0  0  0  0
   39.2470   30.6640   41.4580 N   0  0  0  0  0  0  0  0  0  0  0  0
   40.6520   32.3110   41.4830 H   0  0  0  0  0  0  0  0  0  0  0  0
   36.7810   33.1860   39.9180 H   0  0  0  0  0  0  0  0  0  0  0  0
   37.7130   28.9600   41.4060 N   0  0  0  0  0  0  0  0  0  0  0  0
   37.3980   28.2400   40.3140 C   0  0  0  0  0  3  0  0  0  0  0  0
   37.1100   26.8880   40.5220 C   0  0  0  0  0  0  0  0  0  0  0  0
   36.8410   26.2080   39.7000 H   0  0  0  0  0  0  0  0  0  0  0  0
   37.1720   26.3960   41.8260 C   0  0  0  0  0  0  0  0  0  0  0  0
   36.9130   25.1820   42.0040 O   0  0  0  0  0  0  0  0  0  0  0  0
   37.4950   27.1630   42.8940 N   0  0  0  0  0  0  0  0  0  0  0  0
   37.7670   28.4650   42.6560 C   0  0  0  0  0  0  0  0  0  0  0  0
   38.0760   29.2530   43.5780 O   0  0  0  0  0  0  0  0  0  0  0  0
   37.5330   26.7650   43.8550 H   0  0  0  0  0  0  0  0  0  0  0  0
   39.3220   34.5620   40.4060 S   0  0  0  0  0  0  0  0  0  0  0  0
   41.0110   34.5510   39.7960 C   0  0  0  0  0  0  0  0  0  0  0  0
   41.0060   34.8970   38.7490 H   0  0  0  0  0  0  0  0  0  0  0  0
   41.4650   33.5270   39.9140 H   0  0  0  0  0  0  0  0  0  0  0  0
   41.7860   35.4290   40.6760 N   0  0  0  0  0  0  0  0  0  0  0  0
   42.0950   36.2380   40.0950 H   0  0  0  0  0  0  0  0  0  0  0  0
   43.1380   34.6300   41.3690 S   0  0  0  0  0  0  0  0  0  0  0  0
   44.4280   35.0460   40.7440 O   0  0  0  0  0  0  0  0  0  0  0  0
   44.6460   34.8960   39.7880 H   0  0  0  0  0  0  0  0  0  0  0  0
   43.1200   35.0060   42.8410 O   0  0  0  0  0  0  0  0  0  0  0  0
   43.6600   35.7500   43.1990 H   0  0  0  0  0  0  0  0  0  0  0  0
   42.9210   32.9750   41.2930 O   0  0  0  0  0  0  0  0  0  0  0  0
   43.1610   32.3660   42.5100 C   0  0  0  0  0  0  0  0  0  0  0  0
   44.2360   32.1060   42.5380 H   0  0  0  0  0  0  0  0  0  0  0  0
   42.8380   33.0080   43.3600 H   0  0  0  0  0  0  0  0  0  0  0  0
   42.5830   31.4170   42.5570 H   0  0  0  0  0  0  0  0  0  0  0  0
  1  6  1  0  0  0  0
  1  7  1  0  0  0  0
  2  1  2  0  0  0  0
  3  4  2  0  0  0  0
  3  2  1  0  0  0  0
  4  5  1  0  0  0  0
  5  9  1  0  0  0  0
  5  6  2  0  0  0  0
  8  3  1  0  0  0  0
  9 16  1  0  0  0  0
 10 11  2  0  0  0  0
 10  9  1  0  0  0  0
 11 13  1  0  0  0  0
 12 11  1  0  0  0  0
 13 14  2  0  0  0  0
 13 15  1  0  0  0  0
 15 18  1  0  0  0  0
 16 15  1  0  0  0  0
 16 17  2  0  0  0  0
 19  2  1  0  0  0  0
 20 22  1  0  0  0  0
 20 19  1  0  0  0  0
 20 23  1  0  0  0  0
 21 20  1  0  0  0  0
 23 25  1  0  0  0  0
 24 23  1  0  0  0  0
 25 28  1  0  0  0  0
 26 25  1  0  0  0  0
 27 26  1  0  0  0  0
 28 29  1  0  0  0  0
 30 25  1  0  0  0  0
 30 31  1  0  0  0  0
 31 32  1  0  0  0  0
 31 34  1  0  0  0  0
 31 33  1  0  0  0  0
M  END
>  <minimizedAffinity>
-5.49212265

$$$$

 OpenBabel03252503033D

 34 35  0  0  0  0  0  0  0  0999 V2000
   38.7770   31.0670   40.2620 C   0  0  0  0  0  0  0  0  0  0  0  0
   37.5890   31.7890   40.3040 C   0  0  0  0  0  0  0  0  0  0  0  0
   36.4060   31.2190   40.7650 C   0  0  0  0  0  0  0  0  0  0  0  0
   36.4670   29.9190   41.1740 N   0  0  0  0  0  0  0  0  0  0  0  0
   37.6180   29.2500   41.1240 C   0  0  0  0  0  0  0  0  0  0  0  0
   38.7670   29.7700   40.6860 N   0  0  0  0  0  0  0  0  0  0  0  0
   39.6420   31.5840   39.8910 H   0  0  0  0  0  0  0  0  0  0  0  0
   35.4790   31.7680   40.8030 H   0  0  0  0  0  0  0  0  0  0  0  0
   37.7810   27.8810   41.5320 N   0  0  0  0  0  0  0  0  0  0  0  0
   37.0350   27.0160   40.8210 C   0  0  0  0  0  3  0  0  0  0  0  0
   37.1470   25.6670   41.1670 C   0  0  0  0  0  0  0  0  0  0  0  0
   36.5820   24.8760   40.6510 H   0  0  0  0  0  0  0  0  0  0  0  0
   38.0100   25.3240   42.2090 C   0  0  0  0  0  0  0  0  0  0  0  0
   38.1050   24.1110   42.5120 O   0  0  0  0  0  0  0  0  0  0  0  0
   38.7410   26.2340   42.8960 N   0  0  0  0  0  0  0  0  0  0  0  0
   38.6080   27.5290   42.5330 C   0  0  0  0  0  0  0  0  0  0  0  0
   39.2430   28.4420   43.1080 O   0  0  0  0  0  0  0  0  0  0  0  0
   39.3770   25.9460   43.6670 H   0  0  0  0  0  0  0  0  0  0  0  0
   37.5810   33.5140   39.7440 S   0  0  0  0  0  0  0  0  0  0  0  0
   38.8520   34.4270   40.6240 C   0  0  0  0  0  0  0  0  0  0  0  0
   39.2750   33.7740   41.4050 H   0  0  0  0  0  0  0  0  0  0  0  0
   38.4310   35.3860   41.0390 H   0  0  0  0  0  0  0  0  0  0  0  0
   39.8480   34.8340   39.6290 N   0  0  0  0  0  0  0  0  0  0  0  0
   39.4600   34.5780   38.6960 H   0  0  0  0  0  0  0  0  0  0  0  0
   41.3680   34.0770   39.8820 S   0  0  0  0  0  0  0  0  0  0  0  0
   42.5080   35.0340   39.7590 O   0  0  0  0  0  0  0  0  0  0  0  0
   42.7260   35.5210   38.9220 H   0  0  0  0  0  0  0  0  0  0  0  0
   41.3080   33.5060   41.2880 O   0  0  0  0  0  0  0  0  0  0  0  0
   41.6720   33.9910   42.0670 H   0  0  0  0  0  0  0  0  0  0  0  0
   41.5370   32.7800   38.8430 O   0  0  0  0  0  0  0  0  0  0  0  0
   41.7350   33.1860   37.5370 C   0  0  0  0  0  0  0  0  0  0  0  0
   40.7360   33.2800   37.0700 H   0  0  0  0  0  0  0  0  0  0  0  0
   42.3380   34.1210   37.4860 H   0  0  0  0  0  0  0  0  0  0  0  0
   42.2890   32.3900   36.9930 H   0  0  0  0  0  0  0  0  0  0  0  0
  1  2  2  0  0  0  0
  1  6  1  0  0  0  0
  2  3  1  0  0  0  0
  3  8  1  0  0  0  0
  3  4  2  0  0  0  0
  5  4  1  0  0  0  0
  5  9  1  0  0  0  0
  6  5  2  0  0  0  0
  7  1  1  0  0  0  0
  9 16  1  0  0  0  0
 10 11  2  0  0  0  0
 10  9  1  0  0  0  0
 11 13  1  0  0  0  0
 12 11  1  0  0  0  0
 13 14  2  0  0  0  0
 13 15  1  0  0  0  0
 15 18  1  0  0  0  0
 16 15  1  0  0  0  0
 16 17  2  0  0  0  0
 19  2  1  0  0  0  0
 19 20  1  0  0  0  0
 20 22  1  0  0  0  0
 20 21  1  0  0  0  0
 23 25  1  0  0  0  0
 23 20  1  0  0  0  0
 24 23  1  0  0  0  0
 25 28  1  0  0  0  0
 26 25  1  0  0  0  0
 27 26  1  0  0  0  0
 28 29  1  0  0  0  0
 30 25  1  0  0  0  0
 31 30  1  0  0  0  0
 32 31  1  0  0  0  0
 33 31  1  0  0  0  0
 34 31  1  0  0  0  0
M  END
>  <minimizedAffinity>
-5.41496134

$$$$

 OpenBabel03252503033D

 34 35  0  0  0  0  0  0  0  0999 V2000
   38.9260   29.7280   40.7030 C   0  0  0  0  0  0  0  0  0  0  0  0
   37.7230   29.8800   41.3860 C   0  0  0  0  0  0  0  0  0  0  0  0
   37.5640   29.4210   42.6900 C   0  0  0  0  0  0  0  0  0  0  0  0
   38.6420   28.8170   43.2660 N   0  0  0  0  0  0  0  0  0  0  0  0
   39.7830   28.6840   42.5910 C   0  0  0  0  0  0  0  0  0  0  0  0
   39.9650   29.1130   41.3400 N   0  0  0  0  0  0  0  0  0  0  0  0
   38.9620   30.1110   39.7000 H   0  0  0  0  0  0  0  0  0  0  0  0
   36.6370   29.5320   43.2300 H   0  0  0  0  0  0  0  0  0  0  0  0
   40.9700   28.0630   43.1130 N   0  0  0  0  0  0  0  0  0  0  0  0
   40.7990   26.7690   43.4410 C   0  0  0  0  0  3  0  0  0  0  0  0
   41.9160   26.1050   43.9550 C   0  0  0  0  0  0  0  0  0  0  0  0
   41.8880   25.0470   44.2550 H   0  0  0  0  0  0  0  0  0  0  0  0
   43.1050   26.8240   44.0880 C   0  0  0  0  0  0  0  0  0  0  0  0
   44.1020   26.2210   44.5510 O   0  0  0  0  0  0  0  0  0  0  0  0
   43.2260   28.1280   43.7440 N   0  0  0  0  0  0  0  0  0  0  0  0
   42.1260   28.7380   43.2500 C   0  0  0  0  0  0  0  0  0  0  0  0
   42.1390   29.9410   42.9040 O   0  0  0  0  0  0  0  0  0  0  0  0
   44.1270   28.6370   43.8560 H   0  0  0  0  0  0  0  0  0  0  0  0
   36.3320   30.6930   40.5560 S   0  0  0  0  0  0  0  0  0  0  0  0
   36.9630   31.9010   39.3880 C   0  0  0  0  0  0  0  0  0  0  0  0
   36.3340   31.8740   38.4830 H   0  0  0  0  0  0  0  0  0  0  0  0
   38.0500   31.7060   39.1680 H   0  0  0  0  0  0  0  0  0  0  0  0
   36.9260   33.2020   40.0610 N   0  0  0  0  0  0  0  0  0  0  0  0
   36.2690   33.8020   39.5170 H   0  0  0  0  0  0  0  0  0  0  0  0
   38.4770   33.9330   40.1540 S   0  0  0  0  0  0  0  0  0  0  0  0
   38.4830   35.3270   39.6180 O   0  0  0  0  0  0  0  0  0  0  0  0
   38.2740   35.5500   38.6740 H   0  0  0  0  0  0  0  0  0  0  0  0
   38.8360   33.9340   41.6300 O   0  0  0  0  0  0  0  0  0  0  0  0
   38.6790   34.7190   42.2070 H   0  0  0  0  0  0  0  0  0  0  0  0
   39.6060   32.9710   39.3850 O   0  0  0  0  0  0  0  0  0  0  0  0
   40.7580   33.6700   39.0790 C   0  0  0  0  0  0  0  0  0  0  0  0
   40.6160   34.1070   38.0720 H   0  0  0  0  0  0  0  0  0  0  0  0
   40.9970   34.4270   39.8600 H   0  0  0  0  0  0  0  0  0  0  0  0
   41.6070   32.9560   39.0210 H   0  0  0  0  0  0  0  0  0  0  0  0
  1  6  2  0  0  0  0
  1  2  1  0  0  0  0
  2  3  2  0  0  0  0
  3  8  1  0  0  0  0
  3  4  1  0  0  0  0
  5  9  1  0  0  0  0
  5  4  2  0  0  0  0
  6  5  1  0  0  0  0
  7  1  1  0  0  0  0
  9 16  1  0  0  0  0
  9 10  1  0  0  0  0
 10 11  2  0  0  0  0
 11 13  1  0  0  0  0
 11 12  1  0  0  0  0
 13 14  2  0  0  0  0
 15 18  1  0  0  0  0
 15 13  1  0  0  0  0
 16 15  1  0  0  0  0
 17 16  2  0  0  0  0
 19  2  1  0  0  0  0
 20 23  1  0  0  0  0
 20 19  1  0  0  0  0
 21 20  1  0  0  0  0
 22 20  1  0  0  0  0
 23 25  1  0  0  0  0
 24 23  1  0  0  0  0
 25 28  1  0  0  0  0
 26 25  1  0  0  0  0
 27 26  1  0  0  0  0
 28 29  1  0  0  0  0
 30 25  1  0  0  0  0
 31 30  1  0  0  0  0
 31 33  1  0  0  0  0
 32 31  1  0  0  0  0
 34 31  1  0  0  0  0
M  END
>  <minimizedAffinity>
-5.41220903

$$$$

 OpenBabel03252503033D

 34 35  0  0  0  0  0  0  0  0999 V2000
   39.1710   30.7500   39.6620 C   0  0  0  0  0  0  0  0  0  0  0  0
   38.2220   31.5950   40.2300 C   0  0  0  0  0  0  0  0  0  0  0  0
   38.4690   32.9530   40.4100 C   0  0  0  0  0  0  0  0  0  0  0  0
   39.6860   33.4150   40.0020 N   0  0  0  0  0  0  0  0  0  0  0  0
   40.5770   32.5860   39.4610 C   0  0  0  0  0  0  0  0  0  0  0  0
   40.3680   31.2800   39.2770 N   0  0  0  0  0  0  0  0  0  0  0  0
   38.8970   29.7170   39.5610 H   0  0  0  0  0  0  0  0  0  0  0  0
   37.7430   33.6170   40.8480 H   0  0  0  0  0  0  0  0  0  0  0  0
   41.8820   32.9800   39.0030 N   0  0  0  0  0  0  0  0  0  0  0  0
   42.6650   33.4800   39.9770 C   0  0  0  0  0  3  0  0  0  0  0  0
   43.9480   33.8830   39.5980 C   0  0  0  0  0  0  0  0  0  0  0  0
   44.6700   34.3060   40.3130 H   0  0  0  0  0  0  0  0  0  0  0  0
   44.3140   33.7390   38.2590 C   0  0  0  0  0  0  0  0  0  0  0  0
   45.4680   34.1020   37.9280 O   0  0  0  0  0  0  0  0  0  0  0  0
   43.4880   33.2290   37.3150 N   0  0  0  0  0  0  0  0  0  0  0  0
   42.2550   32.8500   37.7170 C   0  0  0  0  0  0  0  0  0  0  0  0
   41.4210   32.3670   36.9180 O   0  0  0  0  0  0  0  0  0  0  0  0
   43.7920   33.1340   36.3240 H   0  0  0  0  0  0  0  0  0  0  0  0
   36.6260   30.9100   40.7490 S   0  0  0  0  0  0  0  0  0  0  0  0
   36.7770   29.1310   40.9360 C   0  0  0  0  0  0  0  0  0  0  0  0
   37.8420   28.8590   40.8440 H   0  0  0  0  0  0  0  0  0  0  0  0
   36.1260   28.5990   40.1860 H   0  0  0  0  0  0  0  0  0  0  0  0
   36.2220   28.7930   42.2480 N   0  0  0  0  0  0  0  0  0  0  0  0
   35.5620   29.5610   42.5000 H   0  0  0  0  0  0  0  0  0  0  0  0
   37.4380   28.6210   43.4480 S   0  0  0  0  0  0  0  0  0  0  0  0
   38.4600   29.7090   43.3830 O   0  0  0  0  0  0  0  0  0  0  0  0
   39.0490   29.8590   42.5990 H   0  0  0  0  0  0  0  0  0  0  0  0
   36.7050   28.6660   44.7780 O   0  0  0  0  0  0  0  0  0  0  0  0
   36.6200   29.4970   45.3020 H   0  0  0  0  0  0  0  0  0  0  0  0
   38.1390   27.1090   43.3350 O   0  0  0  0  0  0  0  0  0  0  0  0
   39.5160   27.1830   43.2520 C   0  0  0  0  0  0  0  0  0  0  0  0
   39.7740   27.2540   42.1780 H   0  0  0  0  0  0  0  0  0  0  0  0
   39.9190   28.0230   43.8610 H   0  0  0  0  0  0  0  0  0  0  0  0
   39.9500   26.2370   43.6420 H   0  0  0  0  0  0  0  0  0  0  0  0
  1  2  1  0  0  0  0
  2  3  2  0  0  0  0
  2 19  1  0  0  0  0
  3  8  1  0  0  0  0
  4  3  1  0  0  0  0
  5  4  2  0  0  0  0
  6  5  1  0  0  0  0
  6  1  2  0  0  0  0
  7  1  1  0  0  0  0
  9  5  1  0  0  0  0
  9 10  1  0  0  0  0
 11 10  2  0  0  0  0
 11 12  1  0  0  0  0
 13 11  1  0  0  0  0
 14 13  2  0  0  0  0
 15 16  1  0  0  0  0
 15 13  1  0  0  0  0
 16  9  1  0  0  0  0
 17 16  2  0  0  0  0
 18 15  1  0  0  0  0
 19 20  1  0  0  0  0
 20 23  1  0  0  0  0
 21 20  1  0  0  0  0
 22 20  1  0  0  0  0
 23 24  1  0  0  0  0
 23 25  1  0  0  0  0
 25 28  1  0  0  0  0
 26 25  1  0  0  0  0
 27 26  1  0  0  0  0
 28 29  1  0  0  0  0
 30 25  1  0  0  0  0
 31 30  1  0  0  0  0
 31 34  1  0  0  0  0
 31 33  1  0  0  0  0
 32 31  1  0  0  0  0
M  END
>  <minimizedAffinity>
-5.39446354

$$$$
