
 OpenBabel03242511553D

 35 37  0  0  1  0  0  0  0  0999 V2000
   38.4990   28.1300   40.8000 C   0  0  2  0  0  0  0  0  0  0  0  0
   38.8910   26.8200   41.3580 C   0  0  0  0  0  0  0  0  0  0  0  0
   38.1530   26.4520   42.6010 C   0  0  0  0  0  0  0  0  0  0  0  0
   38.2290   27.5110   43.6790 C   0  0  0  0  0  0  0  0  0  0  0  0
   38.0780   28.9090   43.1530 C   0  0  0  0  0  0  0  0  0  0  0  0
   37.6200   28.9590   41.7180 C   0  0  1  0  0  0  0  0  0  0  0  0
   39.4300   28.7330   40.5860 H   0  0  0  0  0  0  0  0  0  0  0  0
   39.9860   26.7980   41.6240 H   0  0  0  0  0  0  0  0  0  0  0  0
   38.7620   25.9900   40.6430 H   0  0  0  0  0  0  0  0  0  0  0  0
   38.6960   25.5620   43.0370 H   0  0  0  0  0  0  0  0  0  0  0  0
   37.1250   26.1270   42.4980 H   0  0  0  0  0  0  0  0  0  0  0  0
   39.1740   27.3920   44.2630 H   0  0  0  0  0  0  0  0  0  0  0  0
   37.4080   27.2980   44.4120 H   0  0  0  0  0  0  0  0  0  0  0  0
   38.9940   29.4840   43.2850 H   0  0  0  0  0  0  0  0  0  0  0  0
   37.2870   29.4510   43.7320 H   0  0  0  0  0  0  0  0  0  0  0  0
   36.5950   28.6080   41.5770 H   0  0  0  0  0  0  0  0  0  0  0  0
   37.7520   30.3390   41.2840 N   0  0  0  0  0  0  0  0  0  0  0  0
   38.9480   30.9530   41.3250 C   0  0  0  0  0  3  0  0  0  0  0  0
   39.1290   32.2710   40.9220 C   0  0  0  0  0  0  0  0  0  0  0  0
   40.0980   32.7660   40.9570 H   0  0  0  0  0  0  0  0  0  0  0  0
   38.0070   32.9640   40.4610 C   0  0  0  0  0  0  0  0  0  0  0  0
   38.1190   34.1540   40.0860 O   0  0  0  0  0  0  0  0  0  0  0  0
   36.8190   32.3300   40.4280 N   0  0  0  0  0  0  0  0  0  0  0  0
   36.6980   31.0510   40.8300 C   0  0  0  0  0  0  0  0  0  0  0  0
   35.5630   30.5400   40.7670 O   0  0  0  0  0  0  0  0  0  0  0  0
   36.0160   32.9020   40.0730 H   0  0  0  0  0  0  0  0  0  0  0  0
   37.7990   28.0060   39.5070 C   0  0  0  0  0  0  0  0  0  0  0  0
   36.5450   27.3650   39.5530 C   0  0  0  0  0  0  0  0  0  0  0  0
   35.7920   27.1930   38.3880 C   0  0  0  0  0  0  0  0  0  0  0  0
   36.3530   27.6840   37.2270 N   0  0  0  0  0  0  0  0  0  0  0  0
   37.5590   28.2960   37.2140 C   0  0  0  0  0  0  0  0  0  0  0  0
   38.2810   28.4570   38.3490 N   0  0  0  0  0  0  0  0  0  0  0  0
   36.0330   26.9530   40.4110 H   0  0  0  0  0  0  0  0  0  0  0  0
   34.8360   26.7170   38.3460 H   0  0  0  0  0  0  0  0  0  0  0  0
   37.8930   28.6360   36.2580 H   0  0  0  0  0  0  0  0  0  0  0  0
  1  7  1  6  0  0  0
  1  2  1  0  0  0  0
  1  6  1  0  0  0  0
  2  8  1  0  0  0  0
  2  3  1  0  0  0  0
  3 10  1  0  0  0  0
  3  4  1  0  0  0  0
  4 12  1  0  0  0  0
  4 13  1  0  0  0  0
  5 14  1  0  0  0  0
  5  4  1  0  0  0  0
  5 15  1  0  0  0  0
  6 16  1  6  0  0  0
  6  5  1  0  0  0  0
  9  2  1  0  0  0  0
 11  3  1  0  0  0  0
 17 18  1  0  0  0  0
 17  6  1  0  0  0  0
 19 20  1  0  0  0  0
 19 18  2  0  0  0  0
 21 19  1  0  0  0  0
 22 21  2  0  0  0  0
 23 21  1  0  0  0  0
 23 24  1  0  0  0  0
 24 17  1  0  0  0  0
 25 24  2  0  0  0  0
 26 23  1  0  0  0  0
 27 28  1  0  0  0  0
 27  1  1  0  0  0  0
 28 33  1  0  0  0  0
 29 28  2  0  0  0  0
 30 29  1  0  0  0  0
 31 30  2  0  0  0  0
 31 32  1  0  0  0  0
 32 27  2  0  0  0  0
 34 29  1  0  0  0  0
 35 31  1  0  0  0  0
M  END
>  <minimizedAffinity>
-5.44909811

$$$$

 OpenBabel03242511553D

 35 37  0  0  1  0  0  0  0  0999 V2000
   36.0410   29.6740   40.3080 C   0  0  2  0  0  0  0  0  0  0  0  0
   34.7750   29.0250   39.9130 C   0  0  0  0  0  0  0  0  0  0  0  0
   34.8120   28.4150   38.5520 C   0  0  0  0  0  0  0  0  0  0  0  0
   35.2490   29.3820   37.4730 C   0  0  0  0  0  0  0  0  0  0  0  0
   36.3950   30.2580   37.8890 C   0  0  0  0  0  0  0  0  0  0  0  0
   37.0420   29.8220   39.1770 C   0  0  1  0  0  0  0  0  0  0  0  0
   35.8180   30.7080   40.7020 H   0  0  0  0  0  0  0  0  0  0  0  0
   33.9210   29.7600   39.9050 H   0  0  0  0  0  0  0  0  0  0  0  0
   34.4560   28.2360   40.6170 H   0  0  0  0  0  0  0  0  0  0  0  0
   33.7410   28.1630   38.2920 H   0  0  0  0  0  0  0  0  0  0  0  0
   35.3530   27.4840   38.4320 H   0  0  0  0  0  0  0  0  0  0  0  0
   34.3750   29.9860   37.1260 H   0  0  0  0  0  0  0  0  0  0  0  0
   35.5500   28.7710   36.5830 H   0  0  0  0  0  0  0  0  0  0  0  0
   36.0940   31.3050   37.9430 H   0  0  0  0  0  0  0  0  0  0  0  0
   37.2090   30.2110   37.1210 H   0  0  0  0  0  0  0  0  0  0  0  0
   37.5730   28.8700   39.0960 H   0  0  0  0  0  0  0  0  0  0  0  0
   37.9550   30.8830   39.5680 N   0  0  0  0  0  0  0  0  0  0  0  0
   37.4890   32.1160   39.8350 C   0  0  0  0  0  3  0  0  0  0  0  0
   38.3180   33.1660   40.2120 C   0  0  0  0  0  0  0  0  0  0  0  0
   37.9390   34.1640   40.4280 H   0  0  0  0  0  0  0  0  0  0  0  0
   39.6870   32.9040   40.3100 C   0  0  0  0  0  0  0  0  0  0  0  0
   40.4750   33.8170   40.6470 O   0  0  0  0  0  0  0  0  0  0  0  0
   40.1320   31.6620   40.0380 N   0  0  0  0  0  0  0  0  0  0  0  0
   39.2860   30.6790   39.6760 C   0  0  0  0  0  0  0  0  0  0  0  0
   39.7800   29.5590   39.4430 O   0  0  0  0  0  0  0  0  0  0  0  0
   41.1670   31.5270   40.1280 H   0  0  0  0  0  0  0  0  0  0  0  0
   36.7190   28.9650   41.4110 C   0  0  0  0  0  0  0  0  0  0  0  0
   36.8150   27.5670   41.2680 C   0  0  0  0  0  0  0  0  0  0  0  0
   37.4380   26.7940   42.2520 C   0  0  0  0  0  0  0  0  0  0  0  0
   37.9360   27.4830   43.3390 N   0  0  0  0  0  0  0  0  0  0  0  0
   37.8290   28.8270   43.4480 C   0  0  0  0  0  0  0  0  0  0  0  0
   37.2220   29.5680   42.4880 N   0  0  0  0  0  0  0  0  0  0  0  0
   36.4570   26.9490   40.4570 H   0  0  0  0  0  0  0  0  0  0  0  0
   37.5480   25.7310   42.2120 H   0  0  0  0  0  0  0  0  0  0  0  0
   38.2500   29.2530   44.3330 H   0  0  0  0  0  0  0  0  0  0  0  0
  1  7  1  1  0  0  0
  1 27  1  0  0  0  0
  2  1  1  0  0  0  0
  2  9  1  0  0  0  0
  3  2  1  0  0  0  0
  4  5  1  0  0  0  0
  4  3  1  0  0  0  0
  5 14  1  0  0  0  0
  5  6  1  0  0  0  0
  6 16  1  6  0  0  0
  6 17  1  0  0  0  0
  6  1  1  0  0  0  0
  8  2  1  0  0  0  0
 10  3  1  0  0  0  0
 11  3  1  0  0  0  0
 12  4  1  0  0  0  0
 13  4  1  0  0  0  0
 15  5  1  0  0  0  0
 17 24  1  0  0  0  0
 17 18  1  0  0  0  0
 18 19  2  0  0  0  0
 19 21  1  0  0  0  0
 19 20  1  0  0  0  0
 21 22  2  0  0  0  0
 23 26  1  0  0  0  0
 23 21  1  0  0  0  0
 24 23  1  0  0  0  0
 25 24  2  0  0  0  0
 27 32  1  0  0  0  0
 28 27  2  0  0  0  0
 28 29  1  0  0  0  0
 29 30  2  0  0  0  0
 30 31  1  0  0  0  0
 31 35  1  0  0  0  0
 32 31  2  0  0  0  0
 33 28  1  0  0  0  0
 34 29  1  0  0  0  0
M  END
>  <minimizedAffinity>
-5.38610744

$$$$

 OpenBabel03242511553D

 35 37  0  0  1  0  0  0  0  0999 V2000
   36.6480   28.7890   37.7180 C   0  0  2  0  0  0  0  0  0  0  0  0
   36.0940   28.6290   36.3580 C   0  0  0  0  0  0  0  0  0  0  0  0
   34.7760   29.2990   36.1650 C   0  0  0  0  0  0  0  0  0  0  0  0
   33.7400   28.8930   37.1900 C   0  0  0  0  0  0  0  0  0  0  0  0
   34.2890   28.7970   38.5840 C   0  0  0  0  0  0  0  0  0  0  0  0
   35.6730   29.3760   38.7210 C   0  0  1  0  0  0  0  0  0  0  0  0
   36.9690   27.7790   38.1070 H   0  0  0  0  0  0  0  0  0  0  0  0
   35.9350   27.5430   36.1050 H   0  0  0  0  0  0  0  0  0  0  0  0
   36.7700   29.0020   35.5700 H   0  0  0  0  0  0  0  0  0  0  0  0
   34.3700   28.9150   35.1830 H   0  0  0  0  0  0  0  0  0  0  0  0
   34.7690   30.3780   36.0650 H   0  0  0  0  0  0  0  0  0  0  0  0
   33.2470   27.9400   36.8770 H   0  0  0  0  0  0  0  0  0  0  0  0
   32.9260   29.6620   37.1620 H   0  0  0  0  0  0  0  0  0  0  0  0
   34.2620   27.7710   38.9520 H   0  0  0  0  0  0  0  0  0  0  0  0
   33.6510   29.3920   39.2870 H   0  0  0  0  0  0  0  0  0  0  0  0
   35.7040   30.4610   38.5970 H   0  0  0  0  0  0  0  0  0  0  0  0
   36.1560   29.0000   40.0390 N   0  0  0  0  0  0  0  0  0  0  0  0
   36.4220   27.7120   40.3230 C   0  0  0  0  0  3  0  0  0  0  0  0
   36.8860   27.2980   41.5660 C   0  0  0  0  0  0  0  0  0  0  0  0
   37.1000   26.2550   41.7940 H   0  0  0  0  0  0  0  0  0  0  0  0
   37.0750   28.2790   42.5430 C   0  0  0  0  0  0  0  0  0  0  0  0
   37.4910   27.9560   43.6790 O   0  0  0  0  0  0  0  0  0  0  0  0
   36.8020   29.5620   42.2370 N   0  0  0  0  0  0  0  0  0  0  0  0
   36.3550   29.9110   41.0160 C   0  0  0  0  0  0  0  0  0  0  0  0
   36.1280   31.1190   40.8160 O   0  0  0  0  0  0  0  0  0  0  0  0
   36.9630   30.2510   43.0100 H   0  0  0  0  0  0  0  0  0  0  0  0
   37.8630   29.6270   37.7370 C   0  0  0  0  0  0  0  0  0  0  0  0
   37.6460   31.0150   37.6340 C   0  0  0  0  0  0  0  0  0  0  0  0
   38.7250   31.9050   37.6430 C   0  0  0  0  0  0  0  0  0  0  0  0
   39.9770   31.3370   37.7580 N   0  0  0  0  0  0  0  0  0  0  0  0
   40.1540   29.9990   37.8560 C   0  0  0  0  0  0  0  0  0  0  0  0
   39.1010   29.1450   37.8450 N   0  0  0  0  0  0  0  0  0  0  0  0
   36.7080   31.5430   37.5420 H   0  0  0  0  0  0  0  0  0  0  0  0
   38.6380   32.9680   37.5680 H   0  0  0  0  0  0  0  0  0  0  0  0
   41.1680   29.6730   37.9390 H   0  0  0  0  0  0  0  0  0  0  0  0
  1 27  1  0  0  0  0
  1  7  1  1  0  0  0
  1  6  1  0  0  0  0
  2  1  1  0  0  0  0
  3  2  1  0  0  0  0
  3  4  1  0  0  0  0
  4  5  1  0  0  0  0
  5  6  1  0  0  0  0
  5 14  1  0  0  0  0
  5 15  1  0  0  0  0
  6 16  1  6  0  0  0
  6 17  1  0  0  0  0
  8  2  1  0  0  0  0
  9  2  1  0  0  0  0
 10  3  1  0  0  0  0
 11  3  1  0  0  0  0
 12  4  1  0  0  0  0
 13  4  1  0  0  0  0
 17 18  1  0  0  0  0
 17 24  1  0  0  0  0
 18 19  2  0  0  0  0
 19 20  1  0  0  0  0
 19 21  1  0  0  0  0
 21 22  2  0  0  0  0
 23 21  1  0  0  0  0
 23 26  1  0  0  0  0
 24 23  1  0  0  0  0
 25 24  2  0  0  0  0
 27 32  1  0  0  0  0
 28 29  1  0  0  0  0
 28 27  2  0  0  0  0
 29 30  2  0  0  0  0
 30 31  1  0  0  0  0
 31 35  1  0  0  0  0
 32 31  2  0  0  0  0
 33 28  1  0  0  0  0
 34 29  1  0  0  0  0
M  END
>  <minimizedAffinity>
-5.07924986

$$$$

 OpenBabel03242511553D

 35 37  0  0  1  0  0  0  0  0999 V2000
   37.2290   27.9890   40.8170 C   0  0  2  0  0  0  0  0  0  0  0  0
   36.9680   26.9540   41.8380 C   0  0  0  0  0  0  0  0  0  0  0  0
   36.7390   27.5040   43.2060 C   0  0  0  0  0  0  0  0  0  0  0  0
   37.8490   28.4190   43.6770 C   0  0  0  0  0  0  0  0  0  0  0  0
   38.3430   29.3530   42.6110 C   0  0  0  0  0  0  0  0  0  0  0  0
   37.4670   29.3760   41.3860 C   0  0  1  0  0  0  0  0  0  0  0  0
   38.1470   27.7020   40.2270 H   0  0  0  0  0  0  0  0  0  0  0  0
   37.8330   26.2380   41.9260 H   0  0  0  0  0  0  0  0  0  0  0  0
   36.1020   26.3150   41.5930 H   0  0  0  0  0  0  0  0  0  0  0  0
   36.7800   26.6200   43.9090 H   0  0  0  0  0  0  0  0  0  0  0  0
   35.7850   27.9750   43.4060 H   0  0  0  0  0  0  0  0  0  0  0  0
   38.6820   27.8140   44.1110 H   0  0  0  0  0  0  0  0  0  0  0  0
   37.4450   29.0130   44.5370 H   0  0  0  0  0  0  0  0  0  0  0  0
   39.3770   29.1360   42.3420 H   0  0  0  0  0  0  0  0  0  0  0  0
   38.3390   30.4050   42.9950 H   0  0  0  0  0  0  0  0  0  0  0  0
   36.4840   29.8190   41.5630 H   0  0  0  0  0  0  0  0  0  0  0  0
   38.1880   30.1230   40.3690 N   0  0  0  0  0  0  0  0  0  0  0  0
   39.2790   29.5970   39.7850 C   0  0  0  0  0  3  0  0  0  0  0  0
   40.0050   30.2680   38.8080 C   0  0  0  0  0  0  0  0  0  0  0  0
   40.8880   29.8400   38.3370 H   0  0  0  0  0  0  0  0  0  0  0  0
   39.5620   31.5400   38.4360 C   0  0  0  0  0  0  0  0  0  0  0  0
   40.1830   32.1860   37.5600 O   0  0  0  0  0  0  0  0  0  0  0  0
   38.4670   32.0480   39.0340 N   0  0  0  0  0  0  0  0  0  0  0  0
   37.8000   31.3560   39.9760 C   0  0  0  0  0  0  0  0  0  0  0  0
   36.7970   31.8980   40.4780 O   0  0  0  0  0  0  0  0  0  0  0  0
   38.1850   33.0050   38.7140 H   0  0  0  0  0  0  0  0  0  0  0  0
   36.1380   28.0960   39.8290 C   0  0  0  0  0  0  0  0  0  0  0  0
   36.2620   27.2710   38.6940 C   0  0  0  0  0  0  0  0  0  0  0  0
   35.2860   27.2890   37.6930 C   0  0  0  0  0  0  0  0  0  0  0  0
   34.2260   28.1490   37.8960 N   0  0  0  0  0  0  0  0  0  0  0  0
   34.1340   28.9290   38.9970 C   0  0  0  0  0  0  0  0  0  0  0  0
   35.0860   28.9050   39.9620 N   0  0  0  0  0  0  0  0  0  0  0  0
   37.0510   26.5730   38.4550 H   0  0  0  0  0  0  0  0  0  0  0  0
   35.3130   26.6930   36.8060 H   0  0  0  0  0  0  0  0  0  0  0  0
   33.2700   29.5550   39.0480 H   0  0  0  0  0  0  0  0  0  0  0  0
  1  7  1  6  0  0  0
  1  6  1  0  0  0  0
  1  2  1  0  0  0  0
  2  8  1  0  0  0  0
  2  3  1  0  0  0  0
  3 11  1  0  0  0  0
  3  4  1  0  0  0  0
  3 10  1  0  0  0  0
  4 12  1  0  0  0  0
  4 13  1  0  0  0  0
  5 15  1  0  0  0  0
  5  4  1  0  0  0  0
  6 16  1  1  0  0  0
  6  5  1  0  0  0  0
  9  2  1  0  0  0  0
 14  5  1  0  0  0  0
 17  6  1  0  0  0  0
 18 17  1  0  0  0  0
 19 18  2  0  0  0  0
 20 19  1  0  0  0  0
 21 19  1  0  0  0  0
 21 23  1  0  0  0  0
 22 21  2  0  0  0  0
 23 24  1  0  0  0  0
 24 17  1  0  0  0  0
 24 25  2  0  0  0  0
 26 23  1  0  0  0  0
 27 32  1  0  0  0  0
 27  1  1  0  0  0  0
 28 27  2  0  0  0  0
 29 30  2  0  0  0  0
 29 28  1  0  0  0  0
 30 31  1  0  0  0  0
 31 35  1  0  0  0  0
 31 32  2  0  0  0  0
 33 28  1  0  0  0  0
 34 29  1  0  0  0  0
M  END
>  <minimizedAffinity>
-5.07693243

$$$$

 OpenBabel03242511553D

 35 37  0  0  1  0  0  0  0  0999 V2000
   36.9200   30.9680   39.9150 C   0  0  2  0  0  0  0  0  0  0  0  0
   37.0040   32.4370   39.7880 C   0  0  0  0  0  0  0  0  0  0  0  0
   38.3980   32.9650   39.8360 C   0  0  0  0  0  0  0  0  0  0  0  0
   39.1690   32.5120   41.0570 C   0  0  0  0  0  0  0  0  0  0  0  0
   38.9450   31.0680   41.4000 C   0  0  0  0  0  0  0  0  0  0  0  0
   38.2220   30.3040   40.3210 C   0  0  1  0  0  0  0  0  0  0  0  0
   36.1480   30.7090   40.6970 H   0  0  0  0  0  0  0  0  0  0  0  0
   36.4430   32.9540   40.6170 H   0  0  0  0  0  0  0  0  0  0  0  0
   36.5410   32.8170   38.8610 H   0  0  0  0  0  0  0  0  0  0  0  0
   38.3050   34.0840   39.9560 H   0  0  0  0  0  0  0  0  0  0  0  0
   39.0180   32.8300   38.9580 H   0  0  0  0  0  0  0  0  0  0  0  0
   38.9370   33.1800   41.9220 H   0  0  0  0  0  0  0  0  0  0  0  0
   40.2560   32.6810   40.8430 H   0  0  0  0  0  0  0  0  0  0  0  0
   38.4340   30.9620   42.3570 H   0  0  0  0  0  0  0  0  0  0  0  0
   39.9300   30.5480   41.5180 H   0  0  0  0  0  0  0  0  0  0  0  0
   38.8120   30.1770   39.4100 H   0  0  0  0  0  0  0  0  0  0  0  0
   37.8710   29.0120   40.8870 N   0  0  0  0  0  0  0  0  0  0  0  0
   37.0800   28.9380   41.9720 C   0  0  0  0  0  3  0  0  0  0  0  0
   36.7140   27.7290   42.5520 C   0  0  0  0  0  0  0  0  0  0  0  0
   36.0740   27.6710   43.4310 H   0  0  0  0  0  0  0  0  0  0  0  0
   37.2010   26.5580   41.9650 C   0  0  0  0  0  0  0  0  0  0  0  0
   36.8990   25.4440   42.4510 O   0  0  0  0  0  0  0  0  0  0  0  0
   37.9920   26.6560   40.8790 N   0  0  0  0  0  0  0  0  0  0  0  0
   38.3170   27.8530   40.3550 C   0  0  0  0  0  0  0  0  0  0  0  0
   39.0520   27.8540   39.3500 O   0  0  0  0  0  0  0  0  0  0  0  0
   38.3250   25.7450   40.4840 H   0  0  0  0  0  0  0  0  0  0  0  0
   36.4600   30.3190   38.6720 C   0  0  0  0  0  0  0  0  0  0  0  0
   37.2570   30.5500   37.5340 C   0  0  0  0  0  0  0  0  0  0  0  0
   36.9170   29.9830   36.3020 C   0  0  0  0  0  0  0  0  0  0  0  0
   35.7770   29.2060   36.2870 N   0  0  0  0  0  0  0  0  0  0  0  0
   35.0310   29.0020   37.3970 C   0  0  0  0  0  0  0  0  0  0  0  0
   35.3700   29.5560   38.5870 N   0  0  0  0  0  0  0  0  0  0  0  0
   38.1590   31.1400   37.4550 H   0  0  0  0  0  0  0  0  0  0  0  0
   37.4720   30.1140   35.3980 H   0  0  0  0  0  0  0  0  0  0  0  0
   34.1700   28.3830   37.2670 H   0  0  0  0  0  0  0  0  0  0  0  0
  1  6  1  0  0  0  0
  1  7  1  1  0  0  0
  2  3  1  0  0  0  0
  2  1  1  0  0  0  0
  2  8  1  0  0  0  0
  3 10  1  0  0  0  0
  3  4  1  0  0  0  0
  4  5  1  0  0  0  0
  4 12  1  0  0  0  0
  5 15  1  0  0  0  0
  5 14  1  0  0  0  0
  6 16  1  6  0  0  0
  6 17  1  0  0  0  0
  6  5  1  0  0  0  0
  9  2  1  0  0  0  0
 11  3  1  0  0  0  0
 13  4  1  0  0  0  0
 17 18  1  0  0  0  0
 18 19  2  0  0  0  0
 19 20  1  0  0  0  0
 21 22  2  0  0  0  0
 21 19  1  0  0  0  0
 23 21  1  0  0  0  0
 24 23  1  0  0  0  0
 24 17  1  0  0  0  0
 25 24  2  0  0  0  0
 26 23  1  0  0  0  0
 27  1  1  0  0  0  0
 28 27  2  0  0  0  0
 29 28  1  0  0  0  0
 30 29  2  0  0  0  0
 30 31  1  0  0  0  0
 31 32  2  0  0  0  0
 32 27  1  0  0  0  0
 33 28  1  0  0  0  0
 34 29  1  0  0  0  0
 35 31  1  0  0  0  0
M  END
>  <minimizedAffinity>
-4.94681549

$$$$

 OpenBabel03242511553D

 35 37  0  0  1  0  0  0  0  0999 V2000
   37.3010   29.5250   41.6150 C   0  0  2  0  0  0  0  0  0  0  0  0
   37.7600   29.2860   42.9990 C   0  0  0  0  0  0  0  0  0  0  0  0
   38.4850   27.9950   43.1770 C   0  0  0  0  0  0  0  0  0  0  0  0
   37.7040   26.7960   42.6840 C   0  0  0  0  0  0  0  0  0  0  0  0
   36.9990   27.0400   41.3810 C   0  0  0  0  0  0  0  0  0  0  0  0
   37.4230   28.3170   40.7040 C   0  0  1  0  0  0  0  0  0  0  0  0
   36.2140   29.8270   41.6350 H   0  0  0  0  0  0  0  0  0  0  0  0
   36.8960   29.2650   43.7210 H   0  0  0  0  0  0  0  0  0  0  0  0
   38.4190   30.0870   43.3790 H   0  0  0  0  0  0  0  0  0  0  0  0
   38.5750   27.8380   44.2930 H   0  0  0  0  0  0  0  0  0  0  0  0
   39.5000   27.9320   42.8050 H   0  0  0  0  0  0  0  0  0  0  0  0
   36.9940   26.4520   43.4760 H   0  0  0  0  0  0  0  0  0  0  0  0
   38.4320   25.9530   42.5630 H   0  0  0  0  0  0  0  0  0  0  0  0
   35.9160   27.0100   41.5040 H   0  0  0  0  0  0  0  0  0  0  0  0
   37.2490   26.2250   40.6540 H   0  0  0  0  0  0  0  0  0  0  0  0
   38.4540   28.2950   40.3430 H   0  0  0  0  0  0  0  0  0  0  0  0
   36.5010   28.5340   39.6020 N   0  0  0  0  0  0  0  0  0  0  0  0
   35.1930   28.7380   39.8420 C   0  0  0  0  0  3  0  0  0  0  0  0
   34.2690   28.9500   38.8250 C   0  0  0  0  0  0  0  0  0  0  0  0
   33.2100   29.1140   39.0210 H   0  0  0  0  0  0  0  0  0  0  0  0
   34.7430   28.9460   37.5110 C   0  0  0  0  0  0  0  0  0  0  0  0
   33.9490   29.1320   36.5610 O   0  0  0  0  0  0  0  0  0  0  0  0
   36.0560   28.7400   37.2950 N   0  0  0  0  0  0  0  0  0  0  0  0
   36.9110   28.5390   38.3160 C   0  0  0  0  0  0  0  0  0  0  0  0
   38.1090   28.3570   38.0280 O   0  0  0  0  0  0  0  0  0  0  0  0
   36.3510   28.7470   36.2900 H   0  0  0  0  0  0  0  0  0  0  0  0
   38.0140   30.6430   40.9680 C   0  0  0  0  0  0  0  0  0  0  0  0
   37.2310   31.7780   40.6800 C   0  0  0  0  0  0  0  0  0  0  0  0
   37.8020   32.8980   40.0680 C   0  0  0  0  0  0  0  0  0  0  0  0
   39.1490   32.8080   39.7780 N   0  0  0  0  0  0  0  0  0  0  0  0
   39.8750   31.7050   40.0680 C   0  0  0  0  0  0  0  0  0  0  0  0
   39.3110   30.6240   40.6610 N   0  0  0  0  0  0  0  0  0  0  0  0
   36.1790   31.9330   40.8700 H   0  0  0  0  0  0  0  0  0  0  0  0
   37.2730   33.7920   39.8190 H   0  0  0  0  0  0  0  0  0  0  0  0
   40.9070   31.7480   39.7980 H   0  0  0  0  0  0  0  0  0  0  0  0
  1  7  1  1  0  0  0
  1  2  1  0  0  0  0
  2  3  1  0  0  0  0
  2  9  1  0  0  0  0
  2  8  1  0  0  0  0
  3 10  1  0  0  0  0
  4  3  1  0  0  0  0
  4 12  1  0  0  0  0
  5 14  1  0  0  0  0
  5  4  1  0  0  0  0
  6 16  1  6  0  0  0
  6  5  1  0  0  0  0
  6  1  1  0  0  0  0
 11  3  1  0  0  0  0
 13  4  1  0  0  0  0
 15  5  1  0  0  0  0
 17 18  1  0  0  0  0
 17  6  1  0  0  0  0
 19 20  1  0  0  0  0
 19 18  2  0  0  0  0
 21 19  1  0  0  0  0
 22 21  2  0  0  0  0
 23 21  1  0  0  0  0
 23 24  1  0  0  0  0
 24 17  1  0  0  0  0
 25 24  2  0  0  0  0
 26 23  1  0  0  0  0
 27  1  1  0  0  0  0
 28 33  1  0  0  0  0
 28 27  1  0  0  0  0
 29 28  2  0  0  0  0
 30 31  2  0  0  0  0
 30 29  1  0  0  0  0
 31 32  1  0  0  0  0
 32 27  2  0  0  0  0
 34 29  1  0  0  0  0
 35 31  1  0  0  0  0
M  END
>  <minimizedAffinity>
-4.91651535

$$$$

 OpenBabel03242511553D

 35 37  0  0  1  0  0  0  0  0999 V2000
   37.5970   29.5710   38.5130 C   0  0  2  0  0  0  0  0  0  0  0  0
   36.9460   29.5940   37.1880 C   0  0  0  0  0  0  0  0  0  0  0  0
   35.4870   29.2860   37.2300 C   0  0  0  0  0  0  0  0  0  0  0  0
   35.1690   27.9850   37.9330 C   0  0  0  0  0  0  0  0  0  0  0  0
   35.9750   27.7700   39.1810 C   0  0  0  0  0  0  0  0  0  0  0  0
   36.7320   28.9970   39.6200 C   0  0  1  0  0  0  0  0  0  0  0  0
   38.5330   28.9430   38.4540 H   0  0  0  0  0  0  0  0  0  0  0  0
   37.4070   28.8390   36.4910 H   0  0  0  0  0  0  0  0  0  0  0  0
   37.0620   30.5600   36.6670 H   0  0  0  0  0  0  0  0  0  0  0  0
   35.1720   29.1150   36.1580 H   0  0  0  0  0  0  0  0  0  0  0  0
   34.8200   30.0570   37.5960 H   0  0  0  0  0  0  0  0  0  0  0  0
   35.2800   27.1300   37.2210 H   0  0  0  0  0  0  0  0  0  0  0  0
   34.0790   28.0060   38.1920 H   0  0  0  0  0  0  0  0  0  0  0  0
   36.6480   26.9190   39.0780 H   0  0  0  0  0  0  0  0  0  0  0  0
   35.2950   27.5230   40.0370 H   0  0  0  0  0  0  0  0  0  0  0  0
   36.0840   29.8050   39.9680 H   0  0  0  0  0  0  0  0  0  0  0  0
   37.6360   28.5760   40.6770 N   0  0  0  0  0  0  0  0  0  0  0  0
   38.5390   27.6050   40.4520 C   0  0  0  0  0  3  0  0  0  0  0  0
   39.4260   27.1650   41.4270 C   0  0  0  0  0  0  0  0  0  0  0  0
   40.1560   26.3780   41.2430 H   0  0  0  0  0  0  0  0  0  0  0  0
   39.3560   27.7720   42.6840 C   0  0  0  0  0  0  0  0  0  0  0  0
   40.1350   27.4100   43.5960 O   0  0  0  0  0  0  0  0  0  0  0  0
   38.4440   28.7420   42.8870 N   0  0  0  0  0  0  0  0  0  0  0  0
   37.6070   29.1310   41.9080 C   0  0  0  0  0  0  0  0  0  0  0  0
   36.7950   30.0360   42.1800 O   0  0  0  0  0  0  0  0  0  0  0  0
   38.4400   29.1580   43.8490 H   0  0  0  0  0  0  0  0  0  0  0  0
   38.0420   30.9090   38.9470 C   0  0  0  0  0  0  0  0  0  0  0  0
   37.0190   31.8570   39.1420 C   0  0  0  0  0  0  0  0  0  0  0  0
   37.3240   33.1580   39.5550 C   0  0  0  0  0  0  0  0  0  0  0  0
   38.6630   33.4320   39.7490 N   0  0  0  0  0  0  0  0  0  0  0  0
   39.6240   32.5010   39.5540 C   0  0  0  0  0  0  0  0  0  0  0  0
   39.3160   31.2420   39.1540 N   0  0  0  0  0  0  0  0  0  0  0  0
   35.9530   31.7310   39.0150 H   0  0  0  0  0  0  0  0  0  0  0  0
   36.6040   33.9290   39.7230 H   0  0  0  0  0  0  0  0  0  0  0  0
   40.6250   32.8260   39.7340 H   0  0  0  0  0  0  0  0  0  0  0  0
  1  7  1  6  0  0  0
  1 27  1  0  0  0  0
  1  6  1  0  0  0  0
  2  3  1  0  0  0  0
  2  1  1  0  0  0  0
  3 11  1  0  0  0  0
  3  4  1  0  0  0  0
  4 13  1  0  0  0  0
  4  5  1  0  0  0  0
  5  6  1  0  0  0  0
  5 15  1  0  0  0  0
  6 16  1  1  0  0  0
  6 17  1  0  0  0  0
  8  2  1  0  0  0  0
  9  2  1  0  0  0  0
 10  3  1  0  0  0  0
 12  4  1  0  0  0  0
 14  5  1  0  0  0  0
 17 24  1  0  0  0  0
 18 17  1  0  0  0  0
 18 19  2  0  0  0  0
 19 21  1  0  0  0  0
 20 19  1  0  0  0  0
 21 23  1  0  0  0  0
 21 22  2  0  0  0  0
 23 26  1  0  0  0  0
 24 25  2  0  0  0  0
 24 23  1  0  0  0  0
 27 28  2  0  0  0  0
 27 32  1  0  0  0  0
 28 29  1  0  0  0  0
 29 34  1  0  0  0  0
 29 30  2  0  0  0  0
 31 35  1  0  0  0  0
 31 30  1  0  0  0  0
 32 31  2  0  0  0  0
 33 28  1  0  0  0  0
M  END
>  <minimizedAffinity>
-4.80643892

$$$$

 OpenBabel03242511553D

 35 37  0  0  1  0  0  0  0  0999 V2000
   38.6430   30.8900   40.1150 C   0  0  2  0  0  0  0  0  0  0  0  0
   39.5650   31.9640   40.5380 C   0  0  0  0  0  0  0  0  0  0  0  0
   38.8760   33.2260   40.9330 C   0  0  0  0  0  0  0  0  0  0  0  0
   37.9320   33.7510   39.8730 C   0  0  0  0  0  0  0  0  0  0  0  0
   37.1190   32.6750   39.2150 C   0  0  0  0  0  0  0  0  0  0  0  0
   37.2090   31.3460   39.9180 C   0  0  1  0  0  0  0  0  0  0  0  0
   39.0010   30.4620   39.1340 H   0  0  0  0  0  0  0  0  0  0  0  0
   40.2800   32.2400   39.7130 H   0  0  0  0  0  0  0  0  0  0  0  0
   40.2140   31.6680   41.3810 H   0  0  0  0  0  0  0  0  0  0  0  0
   39.6830   34.0130   41.0110 H   0  0  0  0  0  0  0  0  0  0  0  0
   38.3740   33.2470   41.8930 H   0  0  0  0  0  0  0  0  0  0  0  0
   38.5010   34.3530   39.1220 H   0  0  0  0  0  0  0  0  0  0  0  0
   37.2470   34.4840   40.3720 H   0  0  0  0  0  0  0  0  0  0  0  0
   37.3750   32.5720   38.1600 H   0  0  0  0  0  0  0  0  0  0  0  0
   36.0320   32.9480   39.2410 H   0  0  0  0  0  0  0  0  0  0  0  0
   36.7360   31.3420   40.9030 H   0  0  0  0  0  0  0  0  0  0  0  0
   36.5790   30.3670   39.0470 N   0  0  0  0  0  0  0  0  0  0  0  0
   36.9760   30.2410   37.7680 C   0  0  0  0  0  3  0  0  0  0  0  0
   36.4080   29.3220   36.8930 C   0  0  0  0  0  0  0  0  0  0  0  0
   36.7300   29.2220   35.8580 H   0  0  0  0  0  0  0  0  0  0  0  0
   35.3840   28.5090   37.3880 C   0  0  0  0  0  0  0  0  0  0  0  0
   34.8410   27.6660   36.6380 O   0  0  0  0  0  0  0  0  0  0  0  0
   35.0030   28.6530   38.6710 N   0  0  0  0  0  0  0  0  0  0  0  0
   35.5860   29.5590   39.4780 C   0  0  0  0  0  0  0  0  0  0  0  0
   35.1740   29.6260   40.6510 O   0  0  0  0  0  0  0  0  0  0  0  0
   34.2320   28.0160   38.9830 H   0  0  0  0  0  0  0  0  0  0  0  0
   38.6230   29.7580   41.0600 C   0  0  0  0  0  0  0  0  0  0  0  0
   39.1780   28.5550   40.5810 C   0  0  0  0  0  0  0  0  0  0  0  0
   39.2140   27.4160   41.3910 C   0  0  0  0  0  0  0  0  0  0  0  0
   38.6800   27.5570   42.6560 N   0  0  0  0  0  0  0  0  0  0  0  0
   38.1540   28.7250   43.0890 C   0  0  0  0  0  0  0  0  0  0  0  0
   38.1240   29.8230   42.2950 N   0  0  0  0  0  0  0  0  0  0  0  0
   39.6140   28.3560   39.6130 H   0  0  0  0  0  0  0  0  0  0  0  0
   39.6170   26.4710   41.0970 H   0  0  0  0  0  0  0  0  0  0  0  0
   37.7700   28.7170   44.0860 H   0  0  0  0  0  0  0  0  0  0  0  0
  1  7  1  6  0  0  0
  1  2  1  0  0  0  0
  1 27  1  0  0  0  0
  2  3  1  0  0  0  0
  2  9  1  0  0  0  0
  3 10  1  0  0  0  0
  3 11  1  0  0  0  0
  4 13  1  0  0  0  0
  4  3  1  0  0  0  0
  5 15  1  0  0  0  0
  5  4  1  0  0  0  0
  5  6  1  0  0  0  0
  6  1  1  0  0  0  0
  6 16  1  1  0  0  0
  8  2  1  0  0  0  0
 12  4  1  0  0  0  0
 14  5  1  0  0  0  0
 17 24  1  0  0  0  0
 17  6  1  0  0  0  0
 18 17  1  0  0  0  0
 19 21  1  0  0  0  0
 19 18  2  0  0  0  0
 20 19  1  0  0  0  0
 21 23  1  0  0  0  0
 22 21  2  0  0  0  0
 23 26  1  0  0  0  0
 23 24  1  0  0  0  0
 24 25  2  0  0  0  0
 27 32  1  0  0  0  0
 28 27  2  0  0  0  0
 28 29  1  0  0  0  0
 29 30  2  0  0  0  0
 30 31  1  0  0  0  0
 31 35  1  0  0  0  0
 32 31  2  0  0  0  0
 33 28  1  0  0  0  0
 34 29  1  0  0  0  0
M  END
>  <minimizedAffinity>
-4.79617167

$$$$

 OpenBabel03242511553D

 35 37  0  0  1  0  0  0  0  0999 V2000
   38.8170   27.5610   41.4550 C   0  0  2  0  0  0  0  0  0  0  0  0
   38.6860   28.9800   41.8430 C   0  0  0  0  0  0  0  0  0  0  0  0
   38.3120   29.1790   43.2740 C   0  0  0  0  0  0  0  0  0  0  0  0
   37.0670   28.4220   43.6790 C   0  0  0  0  0  0  0  0  0  0  0  0
   37.0080   27.0310   43.1180 C   0  0  0  0  0  0  0  0  0  0  0  0
   38.3050   26.5830   42.4960 C   0  0  1  0  0  0  0  0  0  0  0  0
   38.2330   27.3830   40.5060 H   0  0  0  0  0  0  0  0  0  0  0  0
   37.8940   29.5010   41.2350 H   0  0  0  0  0  0  0  0  0  0  0  0
   39.6050   29.5640   41.6610 H   0  0  0  0  0  0  0  0  0  0  0  0
   38.0290   30.2680   43.3740 H   0  0  0  0  0  0  0  0  0  0  0  0
   39.0800   29.0220   44.0210 H   0  0  0  0  0  0  0  0  0  0  0  0
   36.1570   29.0120   43.4090 H   0  0  0  0  0  0  0  0  0  0  0  0
   37.0580   28.3730   44.7980 H   0  0  0  0  0  0  0  0  0  0  0  0
   36.1840   26.9220   42.4120 H   0  0  0  0  0  0  0  0  0  0  0  0
   36.8070   26.2960   43.9400 H   0  0  0  0  0  0  0  0  0  0  0  0
   39.1090   26.4430   43.2230 H   0  0  0  0  0  0  0  0  0  0  0  0
   38.0270   25.3390   41.7970 N   0  0  0  0  0  0  0  0  0  0  0  0
   37.0970   25.2990   40.8270 C   0  0  0  0  0  3  0  0  0  0  0  0
   36.7930   24.1370   40.1270 C   0  0  0  0  0  0  0  0  0  0  0  0
   36.0380   24.1070   39.3420 H   0  0  0  0  0  0  0  0  0  0  0  0
   37.4960   22.9780   40.4650 C   0  0  0  0  0  0  0  0  0  0  0  0
   37.2580   21.9060   39.8630 O   0  0  0  0  0  0  0  0  0  0  0  0
   38.4230   23.0420   41.4390 N   0  0  0  0  0  0  0  0  0  0  0  0
   38.6800   24.1930   42.0870 C   0  0  0  0  0  0  0  0  0  0  0  0
   39.5540   24.1650   42.9750 O   0  0  0  0  0  0  0  0  0  0  0  0
   38.9160   22.1410   41.6480 H   0  0  0  0  0  0  0  0  0  0  0  0
   40.2090   27.1870   41.1420 C   0  0  0  0  0  0  0  0  0  0  0  0
   41.1160   27.2580   42.2180 C   0  0  0  0  0  0  0  0  0  0  0  0
   42.4620   26.9260   42.0370 C   0  0  0  0  0  0  0  0  0  0  0  0
   42.8220   26.5340   40.7640 N   0  0  0  0  0  0  0  0  0  0  0  0
   41.9290   26.4750   39.7500 C   0  0  0  0  0  0  0  0  0  0  0  0
   40.6260   26.8000   39.9360 N   0  0  0  0  0  0  0  0  0  0  0  0
   40.9220   27.5520   43.2400 H   0  0  0  0  0  0  0  0  0  0  0  0
   43.2050   26.9560   42.8040 H   0  0  0  0  0  0  0  0  0  0  0  0
   42.3210   26.1590   38.8080 H   0  0  0  0  0  0  0  0  0  0  0  0
  1  7  1  6  0  0  0
  1  2  1  0  0  0  0
  1  6  1  0  0  0  0
  2  3  1  0  0  0  0
  3 10  1  0  0  0  0
  3  4  1  0  0  0  0
  3 11  1  0  0  0  0
  4 13  1  0  0  0  0
  5  4  1  0  0  0  0
  5 15  1  0  0  0  0
  6  5  1  0  0  0  0
  6 16  1  1  0  0  0
  8  2  1  0  0  0  0
  9  2  1  0  0  0  0
 12  4  1  0  0  0  0
 14  5  1  0  0  0  0
 17 24  1  0  0  0  0
 17  6  1  0  0  0  0
 18 17  1  0  0  0  0
 19 21  1  0  0  0  0
 19 18  2  0  0  0  0
 20 19  1  0  0  0  0
 21 23  1  0  0  0  0
 22 21  2  0  0  0  0
 23 26  1  0  0  0  0
 23 24  1  0  0  0  0
 24 25  2  0  0  0  0
 27  1  1  0  0  0  0
 27 28  1  0  0  0  0
 28 33  1  0  0  0  0
 29 28  2  0  0  0  0
 29 34  1  0  0  0  0
 30 29  1  0  0  0  0
 31 32  1  0  0  0  0
 31 30  2  0  0  0  0
 32 27  2  0  0  0  0
 35 31  1  0  0  0  0
M  END
>  <minimizedAffinity>
-4.79107046

$$$$
