
 OpenBabel03242514433D

 22 23  0  0  0  0  0  0  0  0999 V2000
   45.9610   33.9280   44.2350 C   0  0  0  0  0  0  0  0  0  0  0  0
   45.8130   34.8670   43.2170 C   0  0  0  0  0  0  0  0  0  0  0  0
   45.0550   36.0290   43.4540 C   0  0  0  0  0  0  0  0  0  0  0  0
   44.5000   36.1650   44.6950 N   0  0  0  0  0  0  0  0  0  0  0  0
   44.6610   35.2340   45.6630 C   0  0  0  0  0  0  0  0  0  0  0  0
   45.3970   34.1140   45.4220 N   0  0  0  0  0  0  0  0  0  0  0  0
   44.9310   36.7680   42.6750 H   0  0  0  0  0  0  0  0  0  0  0  0
   44.2180   35.3500   46.6420 H   0  0  0  0  0  0  0  0  0  0  0  0
   46.4180   34.6690   41.9410 N   0  0  0  0  0  0  0  0  0  0  0  0
   47.6860   35.1670   41.9080 C   0  0  0  0  0  0  0  0  0  0  0  0
   48.4790   35.0960   40.7780 C   0  0  0  0  0  0  0  0  0  0  0  0
   49.4720   35.4740   40.7200 H   0  0  0  0  0  0  0  0  0  0  0  0
   47.9160   34.4840   39.6590 C   0  0  0  0  0  0  0  0  0  0  0  0
   48.5710   34.3750   38.5790 O   0  0  0  0  0  0  0  0  0  0  0  0
   46.6650   34.0070   39.7300 N   0  0  0  0  0  0  0  0  0  0  0  0
   45.9090   34.0870   40.8390 C   0  0  0  0  0  0  0  0  0  0  0  0
   44.7410   33.6700   40.9900 O   0  0  0  0  0  0  0  0  0  0  0  0
   46.2130   33.5420   38.9030 H   0  0  0  0  0  0  0  0  0  0  0  0
   46.7700   32.7080   43.9490 C   0  0  0  0  0  0  0  0  0  0  0  0
   46.8630   32.4760   42.8830 H   0  0  0  0  0  0  0  0  0  0  0  0
   47.7420   32.7990   44.4900 H   0  0  0  0  0  0  0  0  0  0  0  0
   46.2430   31.8420   44.4470 H   0  0  0  0  0  0  0  0  0  0  0  0
  1  6  1  0  0  0  0
  2  3  1  0  0  0  0
  2  1  2  0  0  0  0
  3  4  2  0  0  0  0
  4  5  1  0  0  0  0
  5  8  1  0  0  0  0
  6  5  2  0  0  0  0
  7  3  1  0  0  0  0
  9  2  1  0  0  0  0
 10  9  1  0  0  0  0
 11 10  2  0  0  0  0
 12 11  1  0  0  0  0
 13 15  1  0  0  0  0
 13 11  1  0  0  0  0
 14 13  2  0  0  0  0
 15 16  1  0  0  0  0
 16 17  2  0  0  0  0
 16  9  1  0  0  0  0
 18 15  1  0  0  0  0
 19  1  1  0  0  0  0
 19 22  1  0  0  0  0
 19 21  1  0  0  0  0
 20 19  1  0  0  0  0
M  END
>  <minimizedAffinity>
-5.07407761

>  <minimizedRMSD>
2.46691537

$$$$
