
 OpenBabel03252502243D

 35 37  0  0  1  0  0  0  0  0999 V2000
   46.6780   34.5020   42.2740 N   0  0  0  0  0  0  0  0  0  0  0  0
   48.1280   34.3680   42.2970 C   0  0  0  0  0  0  0  0  0  0  0  0
   48.5750   35.1430   41.0380 C   0  0  0  0  0  0  0  0  0  0  0  0
   48.1120   34.4070   39.8220 C   0  0  0  0  0  0  0  0  0  0  0  0
   46.7090   33.9080   39.9020 C   0  0  0  0  0  0  0  0  0  0  0  0
   45.8970   34.4010   41.0640 C   0  0  1  0  0  0  0  0  0  0  0  0
   48.4300   33.3060   42.1950 H   0  0  0  0  0  0  0  0  0  0  0  0
   48.5460   34.8810   43.1770 H   0  0  0  0  0  0  0  0  0  0  0  0
   49.6910   35.1300   41.0960 H   0  0  0  0  0  0  0  0  0  0  0  0
   48.1710   36.1690   41.1330 H   0  0  0  0  0  0  0  0  0  0  0  0
   48.7960   33.5190   39.7110 H   0  0  0  0  0  0  0  0  0  0  0  0
   48.3290   35.0330   38.9340 H   0  0  0  0  0  0  0  0  0  0  0  0
   46.1830   34.2700   38.9700 H   0  0  0  0  0  0  0  0  0  0  0  0
   46.6410   32.8000   39.8480 H   0  0  0  0  0  0  0  0  0  0  0  0
   45.5820   35.4330   40.8170 H   0  0  0  0  0  0  0  0  0  0  0  0
   44.4750   36.0480   44.8770 C   0  0  0  0  0  0  0  0  0  0  0  0
   45.1390   35.8950   43.6530 C   0  0  0  0  0  0  0  0  0  0  0  0
   45.9580   34.7460   43.4900 C   0  0  0  0  0  0  0  0  0  0  0  0
   46.0480   33.8640   44.5300 N   0  0  0  0  0  0  0  0  0  0  0  0
   45.3850   34.0580   45.6920 C   0  0  0  0  0  0  0  0  0  0  0  0
   44.5960   35.1590   45.8570 N   0  0  0  0  0  0  0  0  0  0  0  0
   43.9010   36.9620   44.8380 H   0  0  0  0  0  0  0  0  0  0  0  0
   45.1130   36.5440   42.8000 H   0  0  0  0  0  0  0  0  0  0  0  0
   45.4340   33.3890   46.5230 H   0  0  0  0  0  0  0  0  0  0  0  0
   44.8670   33.5030   41.2760 O   0  0  0  0  0  0  0  0  0  0  0  0
   41.7080   36.2600   39.9890 H   0  0  0  0  0  0  0  0  0  0  0  0
   41.9630   35.3300   40.3790 N   0  0  0  0  0  0  0  0  0  0  0  0
   43.2440   34.9170   40.6170 C   0  0  0  0  0  3  0  0  0  0  0  0
   43.5190   33.6460   41.1450 C   0  0  0  0  0  0  0  0  0  0  0  0
   42.4180   32.8570   41.4050 C   0  0  0  0  0  0  0  0  0  0  0  0
   42.7590   31.7410   41.8740 O   0  0  0  0  0  0  0  0  0  0  0  0
   41.1790   33.3120   41.1530 N   0  0  0  0  0  0  0  0  0  0  0  0
   40.9390   34.5170   40.6530 C   0  0  0  0  0  0  0  0  0  0  0  0
   39.7310   34.8360   40.4580 O   0  0  0  0  0  0  0  0  0  0  0  0
   40.4170   32.6110   41.3950 H   0  0  0  0  0  0  0  0  0  0  0  0
  1  2  1  0  0  0  0
  1 18  1  0  0  0  0
  2  8  1  0  0  0  0
  3  9  1  0  0  0  0
  3 10  1  0  0  0  0
  3  2  1  0  0  0  0
  4  5  1  0  0  0  0
  4  3  1  0  0  0  0
  5  6  1  0  0  0  0
  6 15  1  6  0  0  0
  6 25  1  0  0  0  0
  6  1  1  0  0  0  0
  7  2  1  0  0  0  0
 11  4  1  0  0  0  0
 12  4  1  0  0  0  0
 13  5  1  0  0  0  0
 14  5  1  0  0  0  0
 16 21  1  0  0  0  0
 17 16  2  0  0  0  0
 18 17  1  0  0  0  0
 18 19  2  0  0  0  0
 19 20  1  0  0  0  0
 20 21  2  0  0  0  0
 20 24  1  0  0  0  0
 22 16  1  0  0  0  0
 23 17  1  0  0  0  0
 26 27  1  0  0  0  0
 27 28  1  0  0  0  0
 27 33  1  0  0  0  0
 28 29  2  0  0  0  0
 29 25  1  0  0  0  0
 29 30  1  0  0  0  0
 30 31  2  0  0  0  0
 32 35  1  0  0  0  0
 32 30  1  0  0  0  0
 33 32  1  0  0  0  0
 34 33  2  0  0  0  0
M  END
>  <minimizedAffinity>
-5.94868326

>  <minimizedRMSD>
0.70230943

$$$$
