
 OpenBabel03252502243D

 35 37  0  0  1  0  0  0  0  0999 V2000
   46.9030   34.5770   42.2380 N   0  0  0  0  0  0  0  0  0  0  0  0
   48.3470   34.7640   42.2660 C   0  0  0  0  0  0  0  0  0  0  0  0
   48.6300   35.5370   40.9600 C   0  0  0  0  0  0  0  0  0  0  0  0
   48.3520   34.6440   39.7940 C   0  0  0  0  0  0  0  0  0  0  0  0
   47.0900   33.8580   39.9090 C   0  0  0  0  0  0  0  0  0  0  0  0
   46.1770   34.2330   41.0390 C   0  0  1  0  0  0  0  0  0  0  0  0
   48.8740   33.7890   42.2310 H   0  0  0  0  0  0  0  0  0  0  0  0
   48.6330   35.4090   43.1110 H   0  0  0  0  0  0  0  0  0  0  0  0
   49.7210   35.7710   41.0160 H   0  0  0  0  0  0  0  0  0  0  0  0
   48.0110   36.4550   40.9900 H   0  0  0  0  0  0  0  0  0  0  0  0
   49.2130   33.9210   39.7380 H   0  0  0  0  0  0  0  0  0  0  0  0
   48.4380   35.2450   38.8680 H   0  0  0  0  0  0  0  0  0  0  0  0
   46.5090   34.0380   38.9570 H   0  0  0  0  0  0  0  0  0  0  0  0
   47.2650   32.7600   39.9250 H   0  0  0  0  0  0  0  0  0  0  0  0
   45.6480   35.1540   40.7280 H   0  0  0  0  0  0  0  0  0  0  0  0
   44.4980   35.8690   44.8010 C   0  0  0  0  0  0  0  0  0  0  0  0
   45.2040   35.7980   43.5930 C   0  0  0  0  0  0  0  0  0  0  0  0
   46.1330   34.7340   43.4380 C   0  0  0  0  0  0  0  0  0  0  0  0
   46.2810   33.8500   44.4700 N   0  0  0  0  0  0  0  0  0  0  0  0
   45.5750   33.9640   45.6160 C   0  0  0  0  0  0  0  0  0  0  0  0
   44.6800   34.9820   45.7730 N   0  0  0  0  0  0  0  0  0  0  0  0
   43.8400   36.7240   44.7580 H   0  0  0  0  0  0  0  0  0  0  0  0
   45.1370   36.4530   42.7470 H   0  0  0  0  0  0  0  0  0  0  0  0
   45.6670   33.2900   46.4400 H   0  0  0  0  0  0  0  0  0  0  0  0
   45.3640   33.1480   41.3100 O   0  0  0  0  0  0  0  0  0  0  0  0
   41.9230   31.1920   43.1980 H   0  0  0  0  0  0  0  0  0  0  0  0
   42.2790   31.8280   42.4560 N   0  0  0  0  0  0  0  0  0  0  0  0
   43.5970   32.1450   42.2780 C   0  0  0  0  0  3  0  0  0  0  0  0
   44.0100   33.0130   41.2550 C   0  0  0  0  0  0  0  0  0  0  0  0
   43.0050   33.5140   40.4550 C   0  0  0  0  0  0  0  0  0  0  0  0
   43.4660   34.2790   39.5710 O   0  0  0  0  0  0  0  0  0  0  0  0
   41.7240   33.1710   40.6740 N   0  0  0  0  0  0  0  0  0  0  0  0
   41.3530   32.3490   41.6470 C   0  0  0  0  0  0  0  0  0  0  0  0
   40.1180   32.0980   41.7560 O   0  0  0  0  0  0  0  0  0  0  0  0
   41.0450   33.6230   39.9920 H   0  0  0  0  0  0  0  0  0  0  0  0
  1  2  1  0  0  0  0
  1 18  1  0  0  0  0
  2  8  1  0  0  0  0
  3 10  1  0  0  0  0
  3  9  1  0  0  0  0
  3  2  1  0  0  0  0
  4  5  1  0  0  0  0
  4  3  1  0  0  0  0
  5 14  1  0  0  0  0
  5  6  1  0  0  0  0
  6 15  1  6  0  0  0
  6 25  1  0  0  0  0
  6  1  1  0  0  0  0
  7  2  1  0  0  0  0
 11  4  1  0  0  0  0
 12  4  1  0  0  0  0
 13  5  1  0  0  0  0
 16 21  1  0  0  0  0
 17 16  2  0  0  0  0
 18 17  1  0  0  0  0
 18 19  2  0  0  0  0
 19 20  1  0  0  0  0
 20 21  2  0  0  0  0
 20 24  1  0  0  0  0
 22 16  1  0  0  0  0
 23 17  1  0  0  0  0
 27 26  1  0  0  0  0
 28 27  1  0  0  0  0
 29 25  1  0  0  0  0
 29 28  2  0  0  0  0
 30 32  1  0  0  0  0
 30 29  1  0  0  0  0
 31 30  2  0  0  0  0
 32 33  1  0  0  0  0
 33 34  2  0  0  0  0
 33 27  1  0  0  0  0
 35 32  1  0  0  0  0
M  END
>  <minimizedAffinity>
-6.04984331

>  <minimizedRMSD>
0.344741046

$$$$
