
 OpenBabel03252509323D

 28 29  0  0  0  0  0  0  0  0999 V2000
   50.4580   32.3040   42.5730 O   0  0  0  0  0  0  0  0  0  0  0  0
   49.5390   33.4620   42.3400 P   0  0  2  0  0  0  0  0  0  0  0  0
   50.0880   34.8900   43.0440 O   0  0  0  0  0  0  0  0  0  0  0  0
   49.8960   34.9300   44.0150 H   0  0  0  0  0  0  0  0  0  0  0  0
   48.0150   33.1300   42.9950 O   0  0  0  0  0  0  0  0  0  0  0  0
   47.1880   34.2070   42.6870 C   0  0  0  0  0  0  0  0  0  0  0  0
   46.5520   33.9810   41.7820 H   0  0  0  0  0  0  0  0  0  0  0  0
   47.7420   35.1380   42.4480 H   0  0  0  0  0  0  0  0  0  0  0  0
   45.3940   34.0010   45.9550 C   0  0  0  0  0  0  0  0  0  0  0  0
   46.2900   33.6880   44.9100 C   0  0  0  0  0  0  0  0  0  0  0  0
   46.2660   34.5040   43.7960 C   0  0  0  0  0  0  0  0  0  0  0  0
   45.3900   35.5600   43.7590 N   0  0  0  0  0  0  0  0  0  0  0  0
   44.5480   35.8280   44.7790 C   0  0  0  0  0  0  0  0  0  0  0  0
   44.5540   35.0500   45.8680 N   0  0  0  0  0  0  0  0  0  0  0  0
   45.3880   33.3890   46.8300 H   0  0  0  0  0  0  0  0  0  0  0  0
   46.9740   32.8590   44.9460 H   0  0  0  0  0  0  0  0  0  0  0  0
   43.9020   36.6850   44.6400 H   0  0  0  0  0  0  0  0  0  0  0  0
   49.3430   33.6690   40.6710 O   0  0  0  0  0  0  0  0  0  0  0  0
   45.9180   31.8410   38.5830 H   0  0  0  0  0  0  0  0  0  0  0  0
   46.9570   31.7950   38.7450 N   0  0  0  0  0  0  0  0  0  0  0  0
   47.4290   32.7360   39.5720 C   0  0  0  0  0  3  0  0  0  0  0  0
   48.8010   32.7310   39.8320 C   0  0  0  0  0  0  0  0  0  0  0  0
   49.5870   31.7620   39.2230 C   0  0  0  0  0  0  0  0  0  0  0  0
   50.8270   31.7290   39.4350 O   0  0  0  0  0  0  0  0  0  0  0  0
   48.9990   30.8610   38.4060 N   0  0  0  0  0  0  0  0  0  0  0  0
   47.6620   30.8500   38.1400 C   0  0  0  0  0  0  0  0  0  0  0  0
   47.1790   29.9820   37.3680 O   0  0  0  0  0  0  0  0  0  0  0  0
   49.6500   30.1440   37.9680 H   0  0  0  0  0  0  0  0  0  0  0  0
  2  1  2  1  0  0  0
  2  5  1  0  0  0  0
  2  3  1  0  0  0  0
  3  4  1  0  0  0  0
  6  5  1  0  0  0  0
  6 11  1  0  0  0  0
  7  6  1  0  0  0  0
  8  6  1  0  0  0  0
  9 15  1  0  0  0  0
 10 16  1  0  0  0  0
 10  9  2  0  0  0  0
 11 10  1  0  0  0  0
 12 11  2  0  0  0  0
 12 13  1  0  0  0  0
 13 14  2  0  0  0  0
 14  9  1  0  0  0  0
 17 13  1  0  0  0  0
 18  2  1  0  0  0  0
 19 20  1  0  0  0  0
 20 21  1  0  0  0  0
 21 22  2  0  0  0  0
 22 18  1  0  0  0  0
 23 24  2  0  0  0  0
 23 22  1  0  0  0  0
 25 23  1  0  0  0  0
 26 25  1  0  0  0  0
 26 20  1  0  0  0  0
 27 26  2  0  0  0  0
 28 25  1  0  0  0  0
M  END
>  <minimizedAffinity>
-4.23636913

>  <minimizedRMSD>
1.17501223

$$$$
