
 OpenBabel03252505003D

 38 40  0  0  1  0  0  0  0  0999 V2000
   36.2100   27.3870   39.4850 N   0  0  0  0  0  0  0  0  0  0  0  0
   36.1250   27.1610   38.0900 C   0  0  0  0  0  0  0  0  0  0  0  0
   35.0230   28.0650   37.6910 C   0  0  0  0  0  0  0  0  0  0  0  0
   34.5430   28.8270   38.9130 C   0  0  0  0  0  0  0  0  0  0  0  0
   35.7410   28.6570   39.8630 C   0  0  2  0  0  0  0  0  0  0  0  0
   36.5660   26.5980   37.3290 H   0  0  0  0  0  0  0  0  0  0  0  0
   34.5740   28.2640   36.7610 H   0  0  0  0  0  0  0  0  0  0  0  0
   33.6310   28.3910   39.3310 H   0  0  0  0  0  0  0  0  0  0  0  0
   34.4560   29.8910   38.6500 H   0  0  0  0  0  0  0  0  0  0  0  0
   35.4780   28.7490   40.9130 H   0  0  0  0  0  0  0  0  0  0  0  0
   36.6730   26.3950   40.3200 C   0  0  0  0  0  0  0  0  0  0  0  0
   37.2130   25.6230   39.6920 H   0  0  0  0  0  0  0  0  0  0  0  0
   35.8740   25.7820   40.7900 H   0  0  0  0  0  0  0  0  0  0  0  0
   38.1420   27.4580   43.6430 C   0  0  0  0  0  0  0  0  0  0  0  0
   37.1520   27.0520   42.6990 C   0  0  0  0  0  0  0  0  0  0  0  0
   37.5560   26.8360   41.3770 C   0  0  0  0  0  0  0  0  0  0  0  0
   38.8650   27.0300   41.0830 N   0  0  0  0  0  0  0  0  0  0  0  0
   39.8010   27.4220   42.0110 C   0  0  0  0  0  0  0  0  0  0  0  0
   39.4450   27.6340   43.2770 N   0  0  0  0  0  0  0  0  0  0  0  0
   37.7610   27.6010   44.6240 H   0  0  0  0  0  0  0  0  0  0  0  0
   36.1360   26.9110   42.9600 H   0  0  0  0  0  0  0  0  0  0  0  0
   40.8100   27.5410   41.6550 H   0  0  0  0  0  0  0  0  0  0  0  0
   36.7080   29.5780   39.4270 O   0  0  0  0  0  0  0  0  0  0  0  0
   38.0350   30.3800   41.5840 O   0  0  0  0  0  0  0  0  0  0  0  0
   37.0590   30.7870   40.5110 P   0  0  2  0  0  0  0  0  0  0  0  0
   35.5990   31.1380   41.3530 O   0  0  0  0  0  0  0  0  0  0  0  0
   35.0200   31.6840   40.7490 H   0  0  0  0  0  0  0  0  0  0  0  0
   37.4860   32.2270   39.7610 O   0  0  0  0  0  0  0  0  0  0  0  0
   40.0860   31.8140   36.1280 H   0  0  0  0  0  0  0  0  0  0  0  0
   40.0790   32.2110   37.0980 N   0  0  0  0  0  0  0  0  0  0  0  0
   38.9030   31.9590   37.6810 C   0  0  0  0  0  3  0  0  0  0  0  0
   38.5770   32.3500   38.9530 C   0  0  0  0  0  0  0  0  0  0  0  0
   39.6190   33.0490   39.5840 C   0  0  0  0  0  0  0  0  0  0  0  0
   39.5710   33.5130   40.7520 O   0  0  0  0  0  0  0  0  0  0  0  0
   40.8040   33.3120   39.0170 N   0  0  0  0  0  0  0  0  0  0  0  0
   41.0450   32.8830   37.7410 C   0  0  0  0  0  0  0  0  0  0  0  0
   42.0440   32.9910   36.9860 O   0  0  0  0  0  0  0  0  0  0  0  0
   41.6270   33.8150   39.3970 H   0  0  0  0  0  0  0  0  0  0  0  0
  1  5  1  0  0  0  0
  1 11  1  0  0  0  0
  2  1  1  0  0  0  0
  3  2  2  0  0  0  0
  3  4  1  0  0  0  0
  4  8  1  0  0  0  0
  4  5  1  0  0  0  0
  5 10  1  1  0  0  0
  6  2  1  0  0  0  0
  7  3  1  0  0  0  0
  9  4  1  0  0  0  0
 11 13  1  0  0  0  0
 11 16  1  0  0  0  0
 12 11  1  0  0  0  0
 14 20  1  0  0  0  0
 15 21  1  0  0  0  0
 15 14  2  0  0  0  0
 16 15  1  0  0  0  0
 17 16  2  0  0  0  0
 17 18  1  0  0  0  0
 18 19  2  0  0  0  0
 19 14  1  0  0  0  0
 22 18  1  0  0  0  0
 23  5  1  0  0  0  0
 23 25  1  0  0  0  0
 25 26  1  0  0  0  0
 25 24  2  1  0  0  0
 27 26  1  0  0  0  0
 28 25  1  0  0  0  0
 29 30  1  0  0  0  0
 30 31  1  0  0  0  0
 30 36  1  0  0  0  0
 31 32  2  0  0  0  0
 32 33  1  0  0  0  0
 32 28  1  0  0  0  0
 33 34  2  0  0  0  0
 35 38  1  0  0  0  0
 35 33  1  0  0  0  0
 36 35  1  0  0  0  0
 37 36  2  0  0  0  0
M  END
>  <minimizedAffinity>
-5.96918249

$$$$

 OpenBabel03252505003D

 38 40  0  0  1  0  0  0  0  0999 V2000
   36.0350   28.0880   37.8770 N   0  0  0  0  0  0  0  0  0  0  0  0
   35.5000   28.3750   36.5990 C   0  0  0  0  0  0  0  0  0  0  0  0
   34.1250   28.8180   36.9250 C   0  0  0  0  0  0  0  0  0  0  0  0
   33.9480   28.8070   38.4330 C   0  0  0  0  0  0  0  0  0  0  0  0
   35.4120   28.8140   38.9070 C   0  0  2  0  0  0  0  0  0  0  0  0
   35.7590   28.3680   35.5870 H   0  0  0  0  0  0  0  0  0  0  0  0
   33.3240   29.1380   36.3240 H   0  0  0  0  0  0  0  0  0  0  0  0
   33.4180   27.9120   38.7730 H   0  0  0  0  0  0  0  0  0  0  0  0
   33.4790   29.7530   38.7370 H   0  0  0  0  0  0  0  0  0  0  0  0
   35.5470   28.3970   39.9010 H   0  0  0  0  0  0  0  0  0  0  0  0
   37.0330   27.1480   38.0150 C   0  0  0  0  0  0  0  0  0  0  0  0
   37.9700   27.6730   38.3740 H   0  0  0  0  0  0  0  0  0  0  0  0
   37.3770   26.7040   37.0560 H   0  0  0  0  0  0  0  0  0  0  0  0
   35.7760   23.9270   39.5530 C   0  0  0  0  0  0  0  0  0  0  0  0
   35.9590   24.9440   38.5700 C   0  0  0  0  0  0  0  0  0  0  0  0
   36.7350   26.0560   38.9150 C   0  0  0  0  0  0  0  0  0  0  0  0
   37.2600   26.0900   40.1640 N   0  0  0  0  0  0  0  0  0  0  0  0
   37.0690   25.0960   41.0940 C   0  0  0  0  0  0  0  0  0  0  0  0
   36.3350   24.0270   40.7940 N   0  0  0  0  0  0  0  0  0  0  0  0
   35.1780   23.1160   39.2190 H   0  0  0  0  0  0  0  0  0  0  0  0
   35.5340   24.8890   37.6020 H   0  0  0  0  0  0  0  0  0  0  0  0
   37.5390   25.2390   42.0530 H   0  0  0  0  0  0  0  0  0  0  0  0
   35.8500   30.1420   38.7730 O   0  0  0  0  0  0  0  0  0  0  0  0
   37.7110   29.7010   40.6170 O   0  0  0  0  0  0  0  0  0  0  0  0
   36.7490   30.7120   40.0480 P   0  0  2  0  0  0  0  0  0  0  0  0
   35.6440   31.0400   41.3280 O   0  0  0  0  0  0  0  0  0  0  0  0
   35.1770   31.8960   41.1180 H   0  0  0  0  0  0  0  0  0  0  0  0
   37.4810   32.1870   39.7180 O   0  0  0  0  0  0  0  0  0  0  0  0
   40.0650   31.8580   36.0650 H   0  0  0  0  0  0  0  0  0  0  0  0
   40.0710   32.2090   37.0530 N   0  0  0  0  0  0  0  0  0  0  0  0
   38.8880   31.9690   37.6250 C   0  0  0  0  0  3  0  0  0  0  0  0
   38.5760   32.3110   38.9150 C   0  0  0  0  0  0  0  0  0  0  0  0
   39.6400   32.9420   39.5760 C   0  0  0  0  0  0  0  0  0  0  0  0
   39.6090   33.3530   40.7650 O   0  0  0  0  0  0  0  0  0  0  0  0
   40.8340   33.1910   39.0200 N   0  0  0  0  0  0  0  0  0  0  0  0
   41.0600   32.8160   37.7250 C   0  0  0  0  0  0  0  0  0  0  0  0
   42.0620   32.9260   36.9740 O   0  0  0  0  0  0  0  0  0  0  0  0
   41.6740   33.6470   39.4220 H   0  0  0  0  0  0  0  0  0  0  0  0
  1 11  1  0  0  0  0
  1  5  1  0  0  0  0
  2  3  2  0  0  0  0
  2  1  1  0  0  0  0
  3  4  1  0  0  0  0
  4  9  1  0  0  0  0
  4  8  1  0  0  0  0
  4  5  1  0  0  0  0
  5 10  1  1  0  0  0
  6  2  1  0  0  0  0
  7  3  1  0  0  0  0
 11 12  1  0  0  0  0
 11 16  1  0  0  0  0
 13 11  1  0  0  0  0
 14 19  1  0  0  0  0
 15 16  1  0  0  0  0
 15 14  2  0  0  0  0
 16 17  2  0  0  0  0
 17 18  1  0  0  0  0
 18 22  1  0  0  0  0
 19 18  2  0  0  0  0
 20 14  1  0  0  0  0
 21 15  1  0  0  0  0
 23  5  1  0  0  0  0
 23 25  1  0  0  0  0
 25 24  2  1  0  0  0
 25 26  1  0  0  0  0
 27 26  1  0  0  0  0
 28 25  1  0  0  0  0
 29 30  1  0  0  0  0
 30 31  1  0  0  0  0
 30 36  1  0  0  0  0
 31 32  2  0  0  0  0
 32 33  1  0  0  0  0
 32 28  1  0  0  0  0
 33 34  2  0  0  0  0
 35 38  1  0  0  0  0
 35 33  1  0  0  0  0
 36 35  1  0  0  0  0
 37 36  2  0  0  0  0
M  END
>  <minimizedAffinity>
-5.53823614

$$$$

 OpenBabel03252505003D

 38 40  0  0  1  0  0  0  0  0999 V2000
   37.6040   28.5970   38.7700 N   0  0  0  0  0  0  0  0  0  0  0  0
   36.5830   28.3690   37.8170 C   0  0  0  0  0  0  0  0  0  0  0  0
   35.8260   29.6410   37.8550 C   0  0  0  0  0  0  0  0  0  0  0  0
   36.5030   30.5880   38.8300 C   0  0  0  0  0  0  0  0  0  0  0  0
   37.9040   29.9610   38.9350 C   0  0  2  0  0  0  0  0  0  0  0  0
   36.2340   27.6390   37.1560 H   0  0  0  0  0  0  0  0  0  0  0  0
   34.9760   29.9730   37.3340 H   0  0  0  0  0  0  0  0  0  0  0  0
   35.9950   30.6050   39.7990 H   0  0  0  0  0  0  0  0  0  0  0  0
   36.5980   31.5730   38.3520 H   0  0  0  0  0  0  0  0  0  0  0  0
   38.4190   30.2020   39.8610 H   0  0  0  0  0  0  0  0  0  0  0  0
   38.1630   27.5390   39.4530 C   0  0  0  0  0  0  0  0  0  0  0  0
   39.2720   27.5130   39.2240 H   0  0  0  0  0  0  0  0  0  0  0  0
   37.8360   26.5390   39.0930 H   0  0  0  0  0  0  0  0  0  0  0  0
   36.7130   27.6550   42.9470 C   0  0  0  0  0  0  0  0  0  0  0  0
   36.7410   27.6780   41.5210 C   0  0  0  0  0  0  0  0  0  0  0  0
   37.9830   27.5620   40.8870 C   0  0  0  0  0  0  0  0  0  0  0  0
   39.0780   27.4360   41.6760 N   0  0  0  0  0  0  0  0  0  0  0  0
   39.0260   27.4160   43.0490 C   0  0  0  0  0  0  0  0  0  0  0  0
   37.8570   27.5250   43.6790 N   0  0  0  0  0  0  0  0  0  0  0  0
   35.7370   27.7460   43.3550 H   0  0  0  0  0  0  0  0  0  0  0  0
   35.8670   27.7800   40.9320 H   0  0  0  0  0  0  0  0  0  0  0  0
   39.9650   27.3100   43.5640 H   0  0  0  0  0  0  0  0  0  0  0  0
   38.5880   30.3560   37.7740 O   0  0  0  0  0  0  0  0  0  0  0  0
   39.6670   32.3630   39.1410 O   0  0  0  0  0  0  0  0  0  0  0  0
   39.8840   31.3620   38.0360 P   0  0  2  0  0  0  0  0  0  0  0  0
   40.0730   32.3090   36.6110 O   0  0  0  0  0  0  0  0  0  0  0  0
   40.5050   31.7360   35.9160 H   0  0  0  0  0  0  0  0  0  0  0  0
   41.3310   30.5250   38.1970 O   0  0  0  0  0  0  0  0  0  0  0  0
   44.9580   32.3220   36.2590 H   0  0  0  0  0  0  0  0  0  0  0  0
   44.3060   31.5030   36.1940 N   0  0  0  0  0  0  0  0  0  0  0  0
   43.3740   31.5910   37.1470 C   0  0  0  0  0  3  0  0  0  0  0  0
   42.3750   30.6710   37.3310 C   0  0  0  0  0  0  0  0  0  0  0  0
   42.4340   29.6200   36.4030 C   0  0  0  0  0  0  0  0  0  0  0  0
   41.6330   28.6510   36.3570 O   0  0  0  0  0  0  0  0  0  0  0  0
   43.3610   29.5140   35.4400 N   0  0  0  0  0  0  0  0  0  0  0  0
   44.3230   30.4790   35.3290 C   0  0  0  0  0  0  0  0  0  0  0  0
   45.2890   30.6240   34.5380 O   0  0  0  0  0  0  0  0  0  0  0  0
   43.4880   28.7840   34.7150 H   0  0  0  0  0  0  0  0  0  0  0  0
  1  5  1  0  0  0  0
  1 11  1  0  0  0  0
  2  3  2  0  0  0  0
  2  1  1  0  0  0  0
  3  4  1  0  0  0  0
  4  5  1  0  0  0  0
  4  8  1  0  0  0  0
  5 10  1  1  0  0  0
  6  2  1  0  0  0  0
  7  3  1  0  0  0  0
  9  4  1  0  0  0  0
 11 16  1  0  0  0  0
 12 11  1  0  0  0  0
 13 11  1  0  0  0  0
 14 20  1  0  0  0  0
 14 19  1  0  0  0  0
 15 14  2  0  0  0  0
 16 15  1  0  0  0  0
 16 17  2  0  0  0  0
 17 18  1  0  0  0  0
 18 22  1  0  0  0  0
 18 19  2  0  0  0  0
 21 15  1  0  0  0  0
 23 25  1  0  0  0  0
 23  5  1  0  0  0  0
 25 28  1  0  0  0  0
 25 24  2  1  0  0  0
 26 25  1  0  0  0  0
 27 26  1  0  0  0  0
 30 29  1  0  0  0  0
 30 31  1  0  0  0  0
 31 32  2  0  0  0  0
 32 28  1  0  0  0  0
 33 32  1  0  0  0  0
 34 33  2  0  0  0  0
 35 33  1  0  0  0  0
 36 35  1  0  0  0  0
 36 30  1  0  0  0  0
 37 36  2  0  0  0  0
 38 35  1  0  0  0  0
M  END
>  <minimizedAffinity>
-5.49433041

$$$$

 OpenBabel03252505003D

 38 40  0  0  1  0  0  0  0  0999 V2000
   37.2820   27.7160   41.4460 N   0  0  0  0  0  0  0  0  0  0  0  0
   36.3110   27.3870   42.4210 C   0  0  0  0  0  0  0  0  0  0  0  0
   36.9780   27.7920   43.6800 C   0  0  0  0  0  0  0  0  0  0  0  0
   38.3300   28.3970   43.3480 C   0  0  0  0  0  0  0  0  0  0  0  0
   38.1470   28.7440   41.8600 C   0  0  2  0  0  0  0  0  0  0  0  0
   35.3520   26.9810   42.5120 H   0  0  0  0  0  0  0  0  0  0  0  0
   36.6750   27.7510   44.6860 H   0  0  0  0  0  0  0  0  0  0  0  0
   39.1440   27.6820   43.4980 H   0  0  0  0  0  0  0  0  0  0  0  0
   38.4420   29.3340   43.9120 H   0  0  0  0  0  0  0  0  0  0  0  0
   39.0820   28.7980   41.3090 H   0  0  0  0  0  0  0  0  0  0  0  0
   37.3320   27.0220   40.2570 C   0  0  0  0  0  0  0  0  0  0  0  0
   38.2100   27.4080   39.6550 H   0  0  0  0  0  0  0  0  0  0  0  0
   36.4820   27.2280   39.5720 H   0  0  0  0  0  0  0  0  0  0  0  0
   36.7630   23.2850   40.0710 C   0  0  0  0  0  0  0  0  0  0  0  0
   36.4990   24.6770   39.9030 C   0  0  0  0  0  0  0  0  0  0  0  0
   37.4480   25.5860   40.3820 C   0  0  0  0  0  0  0  0  0  0  0  0
   38.5560   25.0790   40.9760 N   0  0  0  0  0  0  0  0  0  0  0  0
   38.7880   23.7320   41.1260 C   0  0  0  0  0  0  0  0  0  0  0  0
   37.9020   22.8440   40.6790 N   0  0  0  0  0  0  0  0  0  0  0  0
   35.9990   22.6580   39.6820 H   0  0  0  0  0  0  0  0  0  0  0  0
   35.6220   25.0420   39.4360 H   0  0  0  0  0  0  0  0  0  0  0  0
   39.7060   23.4540   41.6140 H   0  0  0  0  0  0  0  0  0  0  0  0
   37.3930   29.9280   41.8340 O   0  0  0  0  0  0  0  0  0  0  0  0
   38.7690   32.1720   41.4760 O   0  0  0  0  0  0  0  0  0  0  0  0
   37.9620   31.0960   40.7980 P   0  0  2  0  0  0  0  0  0  0  0  0
   36.5830   31.9100   40.1630 O   0  0  0  0  0  0  0  0  0  0  0  0
   36.1730   31.3230   39.4680 H   0  0  0  0  0  0  0  0  0  0  0  0
   38.7400   30.4500   39.4570 O   0  0  0  0  0  0  0  0  0  0  0  0
   43.0180   31.6170   38.7720 H   0  0  0  0  0  0  0  0  0  0  0  0
   42.0540   31.7420   38.3780 N   0  0  0  0  0  0  0  0  0  0  0  0
   41.1710   31.0740   39.1270 C   0  0  0  0  0  3  0  0  0  0  0  0
   39.8250   31.0350   38.8740 C   0  0  0  0  0  0  0  0  0  0  0  0
   39.4690   31.7790   37.7380 C   0  0  0  0  0  0  0  0  0  0  0  0
   38.2990   31.9030   37.2940 O   0  0  0  0  0  0  0  0  0  0  0  0
   40.3390   32.4550   36.9750 N   0  0  0  0  0  0  0  0  0  0  0  0
   41.6680   32.4390   37.3010 C   0  0  0  0  0  0  0  0  0  0  0  0
   42.6750   32.9710   36.7710 O   0  0  0  0  0  0  0  0  0  0  0  0
   40.1770   33.0260   36.1250 H   0  0  0  0  0  0  0  0  0  0  0  0
  1  5  1  0  0  0  0
  1  2  1  0  0  0  0
  2  6  1  0  0  0  0
  2  3  2  0  0  0  0
  3  7  1  0  0  0  0
  4  8  1  0  0  0  0
  4  3  1  0  0  0  0
  4  9  1  0  0  0  0
  5 10  1  6  0  0  0
  5  4  1  0  0  0  0
 11 16  1  0  0  0  0
 11  1  1  0  0  0  0
 12 11  1  0  0  0  0
 13 11  1  0  0  0  0
 14 19  1  0  0  0  0
 15 14  2  0  0  0  0
 15 16  1  0  0  0  0
 16 17  2  0  0  0  0
 17 18  1  0  0  0  0
 18 22  1  0  0  0  0
 19 18  2  0  0  0  0
 20 14  1  0  0  0  0
 21 15  1  0  0  0  0
 23  5  1  0  0  0  0
 25 24  2  1  0  0  0
 25 23  1  0  0  0  0
 26 25  1  0  0  0  0
 27 26  1  0  0  0  0
 28 25  1  0  0  0  0
 30 29  1  0  0  0  0
 30 31  1  0  0  0  0
 32 31  2  0  0  0  0
 32 28  1  0  0  0  0
 33 32  1  0  0  0  0
 34 33  2  0  0  0  0
 35 36  1  0  0  0  0
 35 33  1  0  0  0  0
 36 30  1  0  0  0  0
 37 36  2  0  0  0  0
 38 35  1  0  0  0  0
M  END
>  <minimizedAffinity>
-5.43842888

$$$$

 OpenBabel03252505003D

 38 40  0  0  1  0  0  0  0  0999 V2000
   38.2710   31.8640   38.3640 N   0  0  0  0  0  0  0  0  0  0  0  0
   39.6150   32.3010   38.4490 C   0  0  0  0  0  0  0  0  0  0  0  0
   39.5600   33.2740   39.5630 C   0  0  0  0  0  0  0  0  0  0  0  0
   38.1450   33.3140   40.1130 C   0  0  0  0  0  0  0  0  0  0  0  0
   37.5780   31.9870   39.5810 C   0  0  2  0  0  0  0  0  0  0  0  0
   40.5480   32.1570   38.0010 H   0  0  0  0  0  0  0  0  0  0  0  0
   40.2960   33.8750   40.0140 H   0  0  0  0  0  0  0  0  0  0  0  0
   37.5860   34.1740   39.7320 H   0  0  0  0  0  0  0  0  0  0  0  0
   38.1940   33.2560   41.2100 H   0  0  0  0  0  0  0  0  0  0  0  0
   36.4950   31.9850   39.4870 H   0  0  0  0  0  0  0  0  0  0  0  0
   37.7620   31.4190   37.1640 C   0  0  0  0  0  0  0  0  0  0  0  0
   38.5070   31.6650   36.3470 H   0  0  0  0  0  0  0  0  0  0  0  0
   36.8610   31.9700   36.8180 H   0  0  0  0  0  0  0  0  0  0  0  0
   37.9410   27.6390   37.2340 C   0  0  0  0  0  0  0  0  0  0  0  0
   38.3970   28.9900   37.2900 C   0  0  0  0  0  0  0  0  0  0  0  0
   37.4550   30.0070   37.1050 C   0  0  0  0  0  0  0  0  0  0  0  0
   36.1690   29.6380   36.8840 N   0  0  0  0  0  0  0  0  0  0  0  0
   35.7550   28.3280   36.8360 C   0  0  0  0  0  0  0  0  0  0  0  0
   36.6300   27.3390   37.0080 N   0  0  0  0  0  0  0  0  0  0  0  0
   38.7120   26.9240   37.3850 H   0  0  0  0  0  0  0  0  0  0  0  0
   39.4090   29.2470   37.4620 H   0  0  0  0  0  0  0  0  0  0  0  0
   34.7060   28.1620   36.6540 H   0  0  0  0  0  0  0  0  0  0  0  0
   38.0860   30.9880   40.4260 O   0  0  0  0  0  0  0  0  0  0  0  0
   36.4360   28.9100   40.2880 O   0  0  0  0  0  0  0  0  0  0  0  0
   36.9340   30.0370   41.1540 P   0  0  2  0  0  0  0  0  0  0  0  0
   35.5570   31.0380   41.4130 O   0  0  0  0  0  0  0  0  0  0  0  0
   35.7460   31.6220   42.2010 H   0  0  0  0  0  0  0  0  0  0  0  0
   37.3920   29.5230   42.6860 O   0  0  0  0  0  0  0  0  0  0  0  0
   41.6660   28.2200   43.0920 H   0  0  0  0  0  0  0  0  0  0  0  0
   40.6830   27.8610   43.1590 N   0  0  0  0  0  0  0  0  0  0  0  0
   39.8230   28.8510   42.8980 C   0  0  0  0  0  3  0  0  0  0  0  0
   38.4600   28.7060   42.9070 C   0  0  0  0  0  0  0  0  0  0  0  0
   38.0610   27.3970   43.2200 C   0  0  0  0  0  0  0  0  0  0  0  0
   36.8680   27.0040   43.2930 O   0  0  0  0  0  0  0  0  0  0  0  0
   38.9070   26.3910   43.4840 N   0  0  0  0  0  0  0  0  0  0  0  0
   40.2550   26.6260   43.4530 C   0  0  0  0  0  0  0  0  0  0  0  0
   41.2480   25.8830   43.6570 O   0  0  0  0  0  0  0  0  0  0  0  0
   38.7130   25.4020   43.7230 H   0  0  0  0  0  0  0  0  0  0  0  0
  1  2  1  0  0  0  0
  1  5  1  0  0  0  0
  2  3  2  0  0  0  0
  3  7  1  0  0  0  0
  3  4  1  0  0  0  0
  4  9  1  0  0  0  0
  5 10  1  6  0  0  0
  5  4  1  0  0  0  0
  5 23  1  0  0  0  0
  6  2  1  0  0  0  0
  8  4  1  0  0  0  0
 11  1  1  0  0  0  0
 12 11  1  0  0  0  0
 13 11  1  0  0  0  0
 14 15  1  0  0  0  0
 14 20  1  0  0  0  0
 15 21  1  0  0  0  0
 16 11  1  0  0  0  0
 16 15  2  0  0  0  0
 17 16  1  0  0  0  0
 18 17  2  0  0  0  0
 18 19  1  0  0  0  0
 19 14  2  0  0  0  0
 22 18  1  0  0  0  0
 23 25  1  0  0  0  0
 25 24  2  6  0  0  0
 25 26  1  0  0  0  0
 25 28  1  0  0  0  0
 26 27  1  0  0  0  0
 28 32  1  0  0  0  0
 29 30  1  0  0  0  0
 30 36  1  0  0  0  0
 31 32  2  0  0  0  0
 31 30  1  0  0  0  0
 32 33  1  0  0  0  0
 33 34  2  0  0  0  0
 33 35  1  0  0  0  0
 35 38  1  0  0  0  0
 36 35  1  0  0  0  0
 36 37  2  0  0  0  0
M  END
>  <minimizedAffinity>
-5.34271193

$$$$

 OpenBabel03252505003D

 38 40  0  0  1  0  0  0  0  0999 V2000
   38.0020   29.9400   38.2860 N   0  0  0  0  0  0  0  0  0  0  0  0
   38.3560   29.0310   37.2610 C   0  0  0  0  0  0  0  0  0  0  0  0
   39.2900   28.1170   37.9590 C   0  0  0  0  0  0  0  0  0  0  0  0
   39.3930   28.5350   39.4150 C   0  0  0  0  0  0  0  0  0  0  0  0
   38.1210   29.3870   39.5740 C   0  0  2  0  0  0  0  0  0  0  0  0
   38.1740   28.8300   36.2520 H   0  0  0  0  0  0  0  0  0  0  0  0
   39.8290   27.2750   37.6340 H   0  0  0  0  0  0  0  0  0  0  0  0
   40.2970   29.1200   39.6060 H   0  0  0  0  0  0  0  0  0  0  0  0
   39.2920   27.6390   40.0440 H   0  0  0  0  0  0  0  0  0  0  0  0
   38.1860   30.1170   40.3750 H   0  0  0  0  0  0  0  0  0  0  0  0
   37.6330   31.2290   37.9710 C   0  0  0  0  0  0  0  0  0  0  0  0
   36.5140   31.3260   38.1180 H   0  0  0  0  0  0  0  0  0  0  0  0
   37.7400   31.4850   36.8950 H   0  0  0  0  0  0  0  0  0  0  0  0
   38.4210   34.1220   40.2800 C   0  0  0  0  0  0  0  0  0  0  0  0
   37.6330   33.1700   39.5700 C   0  0  0  0  0  0  0  0  0  0  0  0
   38.2950   32.2670   38.7300 C   0  0  0  0  0  0  0  0  0  0  0  0
   39.6440   32.3620   38.6480 N   0  0  0  0  0  0  0  0  0  0  0  0
   40.3820   33.2900   39.3440 C   0  0  0  0  0  0  0  0  0  0  0  0
   39.7790   34.1610   40.1510 N   0  0  0  0  0  0  0  0  0  0  0  0
   37.8510   34.7710   40.8970 H   0  0  0  0  0  0  0  0  0  0  0  0
   36.5790   33.1220   39.6530 H   0  0  0  0  0  0  0  0  0  0  0  0
   41.4490   33.2640   39.1960 H   0  0  0  0  0  0  0  0  0  0  0  0
   37.0630   28.4740   39.7080 O   0  0  0  0  0  0  0  0  0  0  0  0
   34.5450   28.9950   40.3730 O   0  0  0  0  0  0  0  0  0  0  0  0
   35.9550   28.8580   40.8850 P   0  0  2  0  0  0  0  0  0  0  0  0
   36.3700   30.4260   41.4630 O   0  0  0  0  0  0  0  0  0  0  0  0
   37.1580   30.3320   42.0680 H   0  0  0  0  0  0  0  0  0  0  0  0
   36.0620   27.8570   42.2290 O   0  0  0  0  0  0  0  0  0  0  0  0
   38.7640   24.2750   42.2380 H   0  0  0  0  0  0  0  0  0  0  0  0
   38.6980   25.2620   42.5880 N   0  0  0  0  0  0  0  0  0  0  0  0
   37.5400   25.8020   42.1980 C   0  0  0  0  0  3  0  0  0  0  0  0
   37.1520   27.0830   42.4940 C   0  0  0  0  0  0  0  0  0  0  0  0
   38.1090   27.7710   43.2570 C   0  0  0  0  0  0  0  0  0  0  0  0
   37.9940   28.9580   43.6580 O   0  0  0  0  0  0  0  0  0  0  0  0
   39.2750   27.2470   43.6580 N   0  0  0  0  0  0  0  0  0  0  0  0
   39.5810   25.9580   43.3170 C   0  0  0  0  0  0  0  0  0  0  0  0
   40.5820   25.2350   43.5530 O   0  0  0  0  0  0  0  0  0  0  0  0
   40.0380   27.6700   44.2180 H   0  0  0  0  0  0  0  0  0  0  0  0
  1  5  1  0  0  0  0
  2  3  2  0  0  0  0
  2  1  1  0  0  0  0
  3  4  1  0  0  0  0
  4  5  1  0  0  0  0
  4  8  1  0  0  0  0
  4  9  1  0  0  0  0
  5 23  1  0  0  0  0
  5 10  1  1  0  0  0
  6  2  1  0  0  0  0
  7  3  1  0  0  0  0
 11 12  1  0  0  0  0
 11  1  1  0  0  0  0
 11 16  1  0  0  0  0
 13 11  1  0  0  0  0
 14 20  1  0  0  0  0
 15 21  1  0  0  0  0
 15 14  2  0  0  0  0
 16 15  1  0  0  0  0
 17 16  2  0  0  0  0
 17 18  1  0  0  0  0
 18 19  2  0  0  0  0
 19 14  1  0  0  0  0
 22 18  1  0  0  0  0
 23 25  1  0  0  0  0
 25 24  2  6  0  0  0
 25 26  1  0  0  0  0
 25 28  1  0  0  0  0
 26 27  1  0  0  0  0
 28 32  1  0  0  0  0
 29 30  1  0  0  0  0
 30 36  1  0  0  0  0
 31 32  2  0  0  0  0
 31 30  1  0  0  0  0
 32 33  1  0  0  0  0
 33 34  2  0  0  0  0
 33 35  1  0  0  0  0
 35 38  1  0  0  0  0
 36 37  2  0  0  0  0
 36 35  1  0  0  0  0
M  END
>  <minimizedAffinity>
-5.31638193

$$$$

 OpenBabel03252505003D

 38 40  0  0  1  0  0  0  0  0999 V2000
   36.5010   28.7910   38.5390 N   0  0  0  0  0  0  0  0  0  0  0  0
   37.0650   27.5120   38.3190 C   0  0  0  0  0  0  0  0  0  0  0  0
   37.0500   27.4110   36.8410 C   0  0  0  0  0  0  0  0  0  0  0  0
   36.5020   28.7040   36.2650 C   0  0  0  0  0  0  0  0  0  0  0  0
   36.6850   29.6650   37.4530 C   0  0  2  0  0  0  0  0  0  0  0  0
   37.4510   26.6920   38.8380 H   0  0  0  0  0  0  0  0  0  0  0  0
   37.3600   26.6540   36.1810 H   0  0  0  0  0  0  0  0  0  0  0  0
   35.4500   28.6080   35.9820 H   0  0  0  0  0  0  0  0  0  0  0  0
   37.1620   29.0310   35.4490 H   0  0  0  0  0  0  0  0  0  0  0  0
   36.0050   30.5120   37.4330 H   0  0  0  0  0  0  0  0  0  0  0  0
   35.8210   29.0560   39.7070 C   0  0  0  0  0  0  0  0  0  0  0  0
   34.9960   28.2900   39.8220 H   0  0  0  0  0  0  0  0  0  0  0  0
   35.2440   30.0060   39.6940 H   0  0  0  0  0  0  0  0  0  0  0  0
   37.3620   28.2520   43.0690 C   0  0  0  0  0  0  0  0  0  0  0  0
   36.4720   28.1480   41.9590 C   0  0  0  0  0  0  0  0  0  0  0  0
   36.6280   29.0580   40.9080 C   0  0  0  0  0  0  0  0  0  0  0  0
   37.6160   29.9790   41.0180 N   0  0  0  0  0  0  0  0  0  0  0  0
   38.4620   30.0580   42.0980 C   0  0  0  0  0  0  0  0  0  0  0  0
   38.3380   29.2050   43.1130 N   0  0  0  0  0  0  0  0  0  0  0  0
   37.1840   27.5280   43.8260 H   0  0  0  0  0  0  0  0  0  0  0  0
   35.7070   27.4180   41.9040 H   0  0  0  0  0  0  0  0  0  0  0  0
   39.2090   30.8330   42.0680 H   0  0  0  0  0  0  0  0  0  0  0  0
   38.0450   30.0150   37.4550 O   0  0  0  0  0  0  0  0  0  0  0  0
   37.2840   32.3600   38.4450 O   0  0  0  0  0  0  0  0  0  0  0  0
   38.3480   31.6350   37.6620 P   0  0  2  0  0  0  0  0  0  0  0  0
   38.3090   32.3510   36.0960 O   0  0  0  0  0  0  0  0  0  0  0  0
   39.1660   32.1270   35.6350 H   0  0  0  0  0  0  0  0  0  0  0  0
   39.8950   31.9370   38.2400 O   0  0  0  0  0  0  0  0  0  0  0  0
   42.7870   29.0100   36.4480 H   0  0  0  0  0  0  0  0  0  0  0  0
   42.6610   30.0320   36.6450 N   0  0  0  0  0  0  0  0  0  0  0  0
   41.4840   30.2350   37.2450 C   0  0  0  0  0  3  0  0  0  0  0  0
   41.0210   31.4660   37.6310 C   0  0  0  0  0  0  0  0  0  0  0  0
   41.9220   32.4990   37.3270 C   0  0  0  0  0  0  0  0  0  0  0  0
   41.7340   33.7170   37.5780 O   0  0  0  0  0  0  0  0  0  0  0  0
   43.1060   32.3160   36.7260 N   0  0  0  0  0  0  0  0  0  0  0  0
   43.4890   31.0510   36.3750 C   0  0  0  0  0  0  0  0  0  0  0  0
   44.5210   30.6050   35.8120 O   0  0  0  0  0  0  0  0  0  0  0  0
   43.8330   33.0060   36.4630 H   0  0  0  0  0  0  0  0  0  0  0  0
  1 11  1  0  0  0  0
  2  1  1  0  0  0  0
  2  6  1  0  0  0  0
  3  2  2  0  0  0  0
  4  3  1  0  0  0  0
  4  5  1  0  0  0  0
  5 10  1  6  0  0  0
  5 23  1  0  0  0  0
  5  1  1  0  0  0  0
  7  3  1  0  0  0  0
  8  4  1  0  0  0  0
  9  4  1  0  0  0  0
 11 12  1  0  0  0  0
 11 16  1  0  0  0  0
 13 11  1  0  0  0  0
 14 19  1  0  0  0  0
 14 20  1  0  0  0  0
 15 14  2  0  0  0  0
 16 17  2  0  0  0  0
 16 15  1  0  0  0  0
 17 18  1  0  0  0  0
 18 19  2  0  0  0  0
 21 15  1  0  0  0  0
 22 18  1  0  0  0  0
 23 25  1  0  0  0  0
 25 28  1  0  0  0  0
 25 24  2  1  0  0  0
 26 25  1  0  0  0  0
 27 26  1  0  0  0  0
 29 30  1  0  0  0  0
 30 31  1  0  0  0  0
 31 32  2  0  0  0  0
 32 28  1  0  0  0  0
 33 34  2  0  0  0  0
 33 32  1  0  0  0  0
 35 33  1  0  0  0  0
 36 30  1  0  0  0  0
 36 35  1  0  0  0  0
 37 36  2  0  0  0  0
 38 35  1  0  0  0  0
M  END
>  <minimizedAffinity>
-5.20448017

$$$$

 OpenBabel03252505003D

 38 40  0  0  1  0  0  0  0  0999 V2000
   36.9560   24.9130   40.5970 N   0  0  0  0  0  0  0  0  0  0  0  0
   37.1660   23.6360   40.0250 C   0  0  0  0  0  0  0  0  0  0  0  0
   36.3920   23.7240   38.7650 C   0  0  0  0  0  0  0  0  0  0  0  0
   35.7920   25.1150   38.6520 C   0  0  0  0  0  0  0  0  0  0  0  0
   36.6700   25.9020   39.6400 C   0  0  2  0  0  0  0  0  0  0  0  0
   37.6570   22.7320   40.2070 H   0  0  0  0  0  0  0  0  0  0  0  0
   36.2270   23.0370   37.9870 H   0  0  0  0  0  0  0  0  0  0  0  0
   34.7390   25.1280   38.9480 H   0  0  0  0  0  0  0  0  0  0  0  0
   35.9820   25.4960   37.6380 H   0  0  0  0  0  0  0  0  0  0  0  0
   36.1860   26.7900   40.0370 H   0  0  0  0  0  0  0  0  0  0  0  0
   37.0020   25.0750   41.9650 C   0  0  0  0  0  0  0  0  0  0  0  0
   37.6150   24.2300   42.4030 H   0  0  0  0  0  0  0  0  0  0  0  0
   36.0250   24.9300   42.4740 H   0  0  0  0  0  0  0  0  0  0  0  0
   37.4660   28.5240   43.4510 C   0  0  0  0  0  0  0  0  0  0  0  0
   36.7870   27.3470   43.0190 C   0  0  0  0  0  0  0  0  0  0  0  0
   37.5460   26.3340   42.4230 C   0  0  0  0  0  0  0  0  0  0  0  0
   38.8790   26.5430   42.2940 N   0  0  0  0  0  0  0  0  0  0  0  0
   39.5110   27.6880   42.7190 C   0  0  0  0  0  0  0  0  0  0  0  0
   38.8140   28.6680   43.2900 N   0  0  0  0  0  0  0  0  0  0  0  0
   36.8260   29.2460   43.8940 H   0  0  0  0  0  0  0  0  0  0  0  0
   35.7430   27.2130   43.1310 H   0  0  0  0  0  0  0  0  0  0  0  0
   40.5750   27.7360   42.5620 H   0  0  0  0  0  0  0  0  0  0  0  0
   37.8750   26.1550   38.9640 O   0  0  0  0  0  0  0  0  0  0  0  0
   37.6140   28.2150   37.3070 O   0  0  0  0  0  0  0  0  0  0  0  0
   38.1660   27.7560   38.6320 P   0  0  2  0  0  0  0  0  0  0  0  0
   39.8730   27.9290   38.4820 O   0  0  0  0  0  0  0  0  0  0  0  0
   40.2640   27.9240   39.4010 H   0  0  0  0  0  0  0  0  0  0  0  0
   37.7360   28.7700   39.8990 O   0  0  0  0  0  0  0  0  0  0  0  0
   39.5110   32.7930   39.0060 H   0  0  0  0  0  0  0  0  0  0  0  0
   38.6670   32.3380   39.4290 N   0  0  0  0  0  0  0  0  0  0  0  0
   38.7930   31.0090   39.3700 C   0  0  0  0  0  3  0  0  0  0  0  0
   37.8540   30.1270   39.8390 C   0  0  0  0  0  0  0  0  0  0  0  0
   36.7390   30.7740   40.3940 C   0  0  0  0  0  0  0  0  0  0  0  0
   35.7410   30.1910   40.8920 O   0  0  0  0  0  0  0  0  0  0  0  0
   36.5940   32.1040   40.4630 N   0  0  0  0  0  0  0  0  0  0  0  0
   37.5820   32.9110   39.9690 C   0  0  0  0  0  0  0  0  0  0  0  0
   37.7010   34.1610   39.9050 O   0  0  0  0  0  0  0  0  0  0  0  0
   35.8170   32.6710   40.8490 H   0  0  0  0  0  0  0  0  0  0  0  0
  1 11  1  0  0  0  0
  2  6  1  0  0  0  0
  2  1  1  0  0  0  0
  3  2  2  0  0  0  0
  4  3  1  0  0  0  0
  4  8  1  0  0  0  0
  4  5  1  0  0  0  0
  5 10  1  1  0  0  0
  5  1  1  0  0  0  0
  7  3  1  0  0  0  0
  9  4  1  0  0  0  0
 11 12  1  0  0  0  0
 11 16  1  0  0  0  0
 11 13  1  0  0  0  0
 14 20  1  0  0  0  0
 15 21  1  0  0  0  0
 15 14  2  0  0  0  0
 16 15  1  0  0  0  0
 17 16  2  0  0  0  0
 17 18  1  0  0  0  0
 18 19  2  0  0  0  0
 19 14  1  0  0  0  0
 22 18  1  0  0  0  0
 23  5  1  0  0  0  0
 25 24  2  6  0  0  0
 25 23  1  0  0  0  0
 25 28  1  0  0  0  0
 26 25  1  0  0  0  0
 26 27  1  0  0  0  0
 29 30  1  0  0  0  0
 30 36  1  0  0  0  0
 31 30  1  0  0  0  0
 31 32  2  0  0  0  0
 32 28  1  0  0  0  0
 32 33  1  0  0  0  0
 33 35  1  0  0  0  0
 33 34  2  0  0  0  0
 35 38  1  0  0  0  0
 36 35  1  0  0  0  0
 37 36  2  0  0  0  0
M  END
>  <minimizedAffinity>
-5.1713295

$$$$

 OpenBabel03252505003D

 38 40  0  0  1  0  0  0  0  0999 V2000
   36.6800   28.9350   41.7130 N   0  0  0  0  0  0  0  0  0  0  0  0
   37.7310   29.6090   42.3790 C   0  0  0  0  0  0  0  0  0  0  0  0
   37.8350   28.8530   43.6480 C   0  0  0  0  0  0  0  0  0  0  0  0
   36.8330   27.7130   43.6270 C   0  0  0  0  0  0  0  0  0  0  0  0
   36.5420   27.5970   42.1200 C   0  0  2  0  0  0  0  0  0  0  0  0
   38.3940   30.4070   42.2560 H   0  0  0  0  0  0  0  0  0  0  0  0
   38.4630   28.9590   44.4850 H   0  0  0  0  0  0  0  0  0  0  0  0
   35.9290   27.9550   44.1940 H   0  0  0  0  0  0  0  0  0  0  0  0
   37.3400   26.7950   43.9550 H   0  0  0  0  0  0  0  0  0  0  0  0
   35.5760   27.1530   41.8980 H   0  0  0  0  0  0  0  0  0  0  0  0
   35.8920   29.6080   40.8050 C   0  0  0  0  0  0  0  0  0  0  0  0
   35.3900   30.4710   41.3390 H   0  0  0  0  0  0  0  0  0  0  0  0
   35.0160   29.0280   40.4420 H   0  0  0  0  0  0  0  0  0  0  0  0
   37.5190   31.8320   38.2100 C   0  0  0  0  0  0  0  0  0  0  0  0
   36.7910   31.4770   39.3850 C   0  0  0  0  0  0  0  0  0  0  0  0
   36.5840   30.1180   39.6420 C   0  0  0  0  0  0  0  0  0  0  0  0
   37.0890   29.2290   38.7530 N   0  0  0  0  0  0  0  0  0  0  0  0
   37.7880   29.5960   37.6270 C   0  0  0  0  0  0  0  0  0  0  0  0
   38.0010   30.8820   37.3570 N   0  0  0  0  0  0  0  0  0  0  0  0
   37.6370   32.8800   38.0830 H   0  0  0  0  0  0  0  0  0  0  0  0
   36.4060   32.1970   40.0600 H   0  0  0  0  0  0  0  0  0  0  0  0
   38.1400   28.7950   36.9980 H   0  0  0  0  0  0  0  0  0  0  0  0
   37.6350   26.9050   41.5730 O   0  0  0  0  0  0  0  0  0  0  0  0
   36.3760   25.3040   39.8670 O   0  0  0  0  0  0  0  0  0  0  0  0
   37.2970   25.3620   41.0580 P   0  0  2  0  0  0  0  0  0  0  0  0
   36.4250   24.5940   42.3290 O   0  0  0  0  0  0  0  0  0  0  0  0
   37.0780   24.3430   43.0410 H   0  0  0  0  0  0  0  0  0  0  0  0
   38.6780   24.4290   40.8540 O   0  0  0  0  0  0  0  0  0  0  0  0
   41.6020   24.7520   44.2430 H   0  0  0  0  0  0  0  0  0  0  0  0
   41.5150   24.9030   43.2090 N   0  0  0  0  0  0  0  0  0  0  0  0
   40.2790   24.5910   42.8090 C   0  0  0  0  0  3  0  0  0  0  0  0
   39.8470   24.6780   41.5110 C   0  0  0  0  0  0  0  0  0  0  0  0
   40.8490   25.1360   40.6410 C   0  0  0  0  0  0  0  0  0  0  0  0
   40.7070   25.3030   39.4020 O   0  0  0  0  0  0  0  0  0  0  0  0
   42.0940   25.4540   41.0220 N   0  0  0  0  0  0  0  0  0  0  0  0
   42.4390   25.3370   42.3400 C   0  0  0  0  0  0  0  0  0  0  0  0
   43.5120   25.5600   42.9570 O   0  0  0  0  0  0  0  0  0  0  0  0
   42.8950   25.7970   40.4610 H   0  0  0  0  0  0  0  0  0  0  0  0
  1  5  1  0  0  0  0
  1  2  1  0  0  0  0
  2  3  2  0  0  0  0
  3  7  1  0  0  0  0
  4  3  1  0  0  0  0
  4  9  1  0  0  0  0
  4  8  1  0  0  0  0
  5 10  1  6  0  0  0
  5  4  1  0  0  0  0
  6  2  1  0  0  0  0
 11 12  1  0  0  0  0
 11  1  1  0  0  0  0
 13 11  1  0  0  0  0
 14 15  1  0  0  0  0
 15 16  2  0  0  0  0
 15 21  1  0  0  0  0
 16 11  1  0  0  0  0
 17 16  1  0  0  0  0
 18 17  2  0  0  0  0
 19 18  1  0  0  0  0
 19 14  2  0  0  0  0
 20 14  1  0  0  0  0
 22 18  1  0  0  0  0
 23  5  1  0  0  0  0
 25 24  2  6  0  0  0
 25 23  1  0  0  0  0
 25 26  1  0  0  0  0
 26 27  1  0  0  0  0
 28 25  1  0  0  0  0
 28 32  1  0  0  0  0
 30 29  1  0  0  0  0
 31 30  1  0  0  0  0
 32 31  2  0  0  0  0
 33 35  1  0  0  0  0
 33 32  1  0  0  0  0
 34 33  2  0  0  0  0
 35 36  1  0  0  0  0
 36 37  2  0  0  0  0
 36 30  1  0  0  0  0
 38 35  1  0  0  0  0
M  END
>  <minimizedAffinity>
-5.16356134

$$$$
