
 OpenBabel03252507553D

 45 48  0  0  1  0  0  0  0  0999 V2000
   49.0090   32.2260   40.4560 C   0  0  2  0  0  0  0  0  0  0  0  0
   49.7800   31.5360   41.4780 C   0  0  0  0  0  0  0  0  0  0  0  0
   50.3930   31.8590   40.1510 C   0  0  1  0  0  0  0  0  0  0  0  0
   48.2110   31.6620   39.9380 H   0  0  0  0  0  0  0  0  0  0  0  0
   49.6320   30.4470   41.7210 H   0  0  0  0  0  0  0  0  0  0  0  0
   50.1090   32.1010   42.3650 H   0  0  0  0  0  0  0  0  0  0  0  0
   51.0440   32.7460   40.0080 H   0  0  0  0  0  0  0  0  0  0  0  0
   47.1150   34.8020   42.1150 C   0  0  2  0  0  0  0  0  0  0  0  0
   46.3190   34.3620   40.8840 C   0  0  0  0  0  0  0  0  0  0  0  0
   47.5130   34.1970   39.9170 C   0  0  0  0  0  0  0  0  0  0  0  0
   48.6220   33.6550   40.7630 C   0  0  1  0  0  0  0  0  0  0  0  0
   48.1130   33.6800   42.1750 C   0  0  0  0  0  0  0  0  0  0  0  0
   47.6120   35.7670   41.8960 H   0  0  0  0  0  0  0  0  0  0  0  0
   45.8870   33.3800   41.1000 H   0  0  0  0  0  0  0  0  0  0  0  0
   45.6310   35.1320   40.5320 H   0  0  0  0  0  0  0  0  0  0  0  0
   47.8000   35.2480   39.6470 H   0  0  0  0  0  0  0  0  0  0  0  0
   47.2350   33.5730   39.0620 H   0  0  0  0  0  0  0  0  0  0  0  0
   49.5430   34.2730   40.7260 H   0  0  0  0  0  0  0  0  0  0  0  0
   47.5890   32.7400   42.4360 H   0  0  0  0  0  0  0  0  0  0  0  0
   48.9210   33.8880   42.9030 H   0  0  0  0  0  0  0  0  0  0  0  0
   44.5410   35.7780   44.6850 C   0  0  0  0  0  0  0  0  0  0  0  0
   45.2700   35.8190   43.5020 C   0  0  0  0  0  0  0  0  0  0  0  0
   46.2500   34.8520   43.3260 C   0  0  0  0  0  0  0  0  0  0  0  0
   46.4770   33.8850   44.3150 N   0  0  0  0  0  0  0  0  0  0  0  0
   45.7330   33.8950   45.4530 C   0  0  0  0  0  0  0  0  0  0  0  0
   44.7710   34.8410   45.6300 N   0  0  0  0  0  0  0  0  0  0  0  0
   43.7620   36.5160   44.8660 H   0  0  0  0  0  0  0  0  0  0  0  0
   45.1040   36.5580   42.7350 H   0  0  0  0  0  0  0  0  0  0  0  0
   45.9410   33.1320   46.1900 H   0  0  0  0  0  0  0  0  0  0  0  0
   50.5940   30.7730   39.2600 O   0  0  0  0  0  0  0  0  0  0  0  0
   51.2180   30.4050   36.7550 O   0  0  0  0  0  0  0  0  0  0  0  0
   51.4230   31.3480   37.9150 P   0  0  1  0  0  0  0  0  0  0  0  0
   50.7930   32.8730   37.4450 O   0  0  0  0  0  0  0  0  0  0  0  0
   51.2340   33.5640   37.9780 H   0  0  0  0  0  0  0  0  0  0  0  0
   53.0510   31.5500   38.1510 O   0  0  0  0  0  0  0  0  0  0  0  0
   54.9370   28.9850   41.3530 H   0  0  0  0  0  0  0  0  0  0  0  0
   54.9900   29.3560   40.3820 N   0  0  0  0  0  0  0  0  0  0  0  0
   53.9920   30.1570   40.0190 C   0  0  0  0  0  3  0  0  0  0  0  0
   53.9590   30.7110   38.7460 C   0  0  0  0  0  0  0  0  0  0  0  0
   55.0080   30.3890   37.8810 C   0  0  0  0  0  0  0  0  0  0  0  0
   55.1840   30.7720   36.6890 O   0  0  0  0  0  0  0  0  0  0  0  0
   56.0090   29.5640   38.2950 N   0  0  0  0  0  0  0  0  0  0  0  0
   55.9880   29.0590   39.5380 C   0  0  0  0  0  0  0  0  0  0  0  0
   56.8890   28.2870   39.9810 O   0  0  0  0  0  0  0  0  0  0  0  0
   56.8230   29.2780   37.7120 H   0  0  0  0  0  0  0  0  0  0  0  0
  1  4  1  6  0  0  0
  1 11  1  0  0  0  0
  1  2  1  0  0  0  0
  2  5  1  0  0  0  0
  2  6  1  0  0  0  0
  3  7  1  6  0  0  0
  3  1  1  0  0  0  0
  3  2  1  0  0  0  0
  8 13  1  6  0  0  0
  8 12  1  0  0  0  0
  8 23  1  0  0  0  0
  9 14  1  0  0  0  0
  9  8  1  0  0  0  0
 10 11  1  0  0  0  0
 10  9  1  0  0  0  0
 11 18  1  6  0  0  0
 11 12  1  0  0  0  0
 12 19  1  0  0  0  0
 12 20  1  0  0  0  0
 15  9  1  0  0  0  0
 16 10  1  0  0  0  0
 17 10  1  0  0  0  0
 21 27  1  0  0  0  0
 21 26  1  0  0  0  0
 22 21  2  0  0  0  0
 23 22  1  0  0  0  0
 23 24  2  0  0  0  0
 24 25  1  0  0  0  0
 25 26  2  0  0  0  0
 25 29  1  0  0  0  0
 28 22  1  0  0  0  0
 30  3  1  0  0  0  0
 32 31  2  6  0  0  0
 32 35  1  0  0  0  0
 32 30  1  0  0  0  0
 33 32  1  0  0  0  0
 33 34  1  0  0  0  0
 35 39  1  0  0  0  0
 37 36  1  0  0  0  0
 38 37  1  0  0  0  0
 39 38  2  0  0  0  0
 40 42  1  0  0  0  0
 40 39  1  0  0  0  0
 41 40  2  0  0  0  0
 42 43  1  0  0  0  0
 43 44  2  0  0  0  0
 43 37  1  0  0  0  0
 45 42  1  0  0  0  0
M  END
>  <minimizedAffinity>
-5.46028137

>  <minimizedRMSD>
1.32372749

$$$$
