
 OpenBabel03252505483D

 30 32  0  0  1  0  0  0  0  0999 V2000
   37.5360   28.8850   41.9720 C   0  0  0  0  0  0  0  0  0  0  0  0
   38.4970   29.2640   42.9370 C   0  0  0  0  0  0  0  0  0  0  0  0
   39.2770   30.4250   42.7510 C   0  0  0  0  0  0  0  0  0  0  0  0
   39.0480   31.1310   41.6100 N   0  0  0  0  0  0  0  0  0  0  0  0
   38.1070   30.7180   40.7070 C   0  0  0  0  0  0  0  0  0  0  0  0
   37.3780   29.6350   40.8820 N   0  0  0  0  0  0  0  0  0  0  0  0
   38.6440   28.6740   43.8270 H   0  0  0  0  0  0  0  0  0  0  0  0
   40.0060   30.7400   43.4580 H   0  0  0  0  0  0  0  0  0  0  0  0
   36.7690   27.6700   42.2330 C   0  0  1  0  0  0  0  0  0  0  0  0
   37.7050   26.4720   42.6390 C   0  0  1  0  0  0  0  0  0  0  0  0
   36.5890   27.0420   43.4850 C   0  0  0  0  0  0  0  0  0  0  0  0
   36.1040   27.4030   41.3530 H   0  0  0  0  0  0  0  0  0  0  0  0
   38.7360   26.6990   42.8960 H   0  0  0  0  0  0  0  0  0  0  0  0
   36.9560   27.5430   44.4220 H   0  0  0  0  0  0  0  0  0  0  0  0
   35.6990   26.4110   43.6950 H   0  0  0  0  0  0  0  0  0  0  0  0
   37.3480   25.1670   41.9680 C   0  0  0  0  0  0  0  0  0  0  0  0
   36.1510   24.6560   42.3750 F   0  0  0  0  0  0  0  0  0  0  0  0
   37.2750   25.3850   40.5780 F   0  0  0  0  0  0  0  0  0  0  0  0
   38.3670   24.2370   42.1210 F   0  0  0  0  0  0  0  0  0  0  0  0
   37.9950   31.5400   39.5950 O   0  0  0  0  0  0  0  0  0  0  0  0
   41.2330   34.4700   38.7940 H   0  0  0  0  0  0  0  0  0  0  0  0
   40.7420   33.5850   38.5960 N   0  0  0  0  0  0  0  0  0  0  0  0
   39.6410   33.0950   39.2350 C   0  0  0  0  0  3  0  0  0  0  0  0
   39.1050   31.8770   38.8370 C   0  0  0  0  0  0  0  0  0  0  0  0
   39.6750   31.1550   37.7990 C   0  0  0  0  0  0  0  0  0  0  0  0
   39.1000   30.0900   37.5480 O   0  0  0  0  0  0  0  0  0  0  0  0
   40.7450   31.7010   37.2280 N   0  0  0  0  0  0  0  0  0  0  0  0
   41.2870   32.8620   37.5800 C   0  0  0  0  0  0  0  0  0  0  0  0
   42.3120   33.2320   36.9220 O   0  0  0  0  0  0  0  0  0  0  0  0
   41.1620   31.1280   36.4370 H   0  0  0  0  0  0  0  0  0  0  0  0
  1  9  1  0  0  0  0
  1  2  1  0  0  0  0
  2  7  1  0  0  0  0
  3  2  2  0  0  0  0
  3  8  1  0  0  0  0
  4  3  1  0  0  0  0
  5  6  1  0  0  0  0
  5  4  2  0  0  0  0
  6  1  2  0  0  0  0
  9 12  1  6  0  0  0
  9 10  1  0  0  0  0
  9 11  1  0  0  0  0
 10 13  1  1  0  0  0
 10 11  1  0  0  0  0
 11 15  1  0  0  0  0
 11 14  1  0  0  0  0
 16 19  1  0  0  0  0
 16 17  1  0  0  0  0
 16 10  1  0  0  0  0
 18 16  1  0  0  0  0
 20  5  1  0  0  0  0
 22 21  1  0  0  0  0
 22 23  1  0  0  0  0
 24 23  2  0  0  0  0
 24 20  1  0  0  0  0
 25 24  1  0  0  0  0
 26 25  2  0  0  0  0
 27 28  1  0  0  0  0
 27 25  1  0  0  0  0
 28 22  1  0  0  0  0
 29 28  2  0  0  0  0
 30 27  1  0  0  0  0
M  END
>  <minimizedAffinity>
-5.67713451

$$$$

 OpenBabel03252505483D

 30 32  0  0  1  0  0  0  0  0999 V2000
   36.9510   28.7070   41.7950 C   0  0  0  0  0  0  0  0  0  0  0  0
   35.8720   29.0260   40.9390 C   0  0  0  0  0  0  0  0  0  0  0  0
   35.8290   30.2730   40.2790 C   0  0  0  0  0  0  0  0  0  0  0  0
   36.8650   31.1210   40.5200 N   0  0  0  0  0  0  0  0  0  0  0  0
   37.8840   30.7630   41.3600 C   0  0  0  0  0  0  0  0  0  0  0  0
   37.9250   29.5990   41.9740 N   0  0  0  0  0  0  0  0  0  0  0  0
   35.0720   28.3230   40.7780 H   0  0  0  0  0  0  0  0  0  0  0  0
   35.0330   30.5440   39.6280 H   0  0  0  0  0  0  0  0  0  0  0  0
   36.9260   27.3990   42.4450 C   0  0  1  0  0  0  0  0  0  0  0  0
   37.8140   26.3550   41.6740 C   0  0  1  0  0  0  0  0  0  0  0  0
   37.9990   26.7730   43.1150 C   0  0  0  0  0  0  0  0  0  0  0  0
   35.8640   27.0250   42.5830 H   0  0  0  0  0  0  0  0  0  0  0  0
   38.4990   26.7310   40.9180 H   0  0  0  0  0  0  0  0  0  0  0  0
   38.9550   27.3380   43.2920 H   0  0  0  0  0  0  0  0  0  0  0  0
   37.8260   26.0250   43.9180 H   0  0  0  0  0  0  0  0  0  0  0  0
   37.1640   25.0010   41.5160 C   0  0  0  0  0  0  0  0  0  0  0  0
   36.4040   24.6350   42.5890 F   0  0  0  0  0  0  0  0  0  0  0  0
   36.3250   25.0370   40.3860 F   0  0  0  0  0  0  0  0  0  0  0  0
   38.1090   24.0290   41.2180 F   0  0  0  0  0  0  0  0  0  0  0  0
   38.8620   31.7370   41.5060 O   0  0  0  0  0  0  0  0  0  0  0  0
   41.8150   30.9120   38.2950 H   0  0  0  0  0  0  0  0  0  0  0  0
   41.1620   31.5420   38.7870 N   0  0  0  0  0  0  0  0  0  0  0  0
   40.3930   31.2420   39.8740 C   0  0  0  0  0  3  0  0  0  0  0  0
   39.5640   32.2180   40.4130 C   0  0  0  0  0  0  0  0  0  0  0  0
   39.5090   33.4890   39.8600 C   0  0  0  0  0  0  0  0  0  0  0  0
   38.7320   34.2580   40.4370 O   0  0  0  0  0  0  0  0  0  0  0  0
   40.2890   33.7000   38.8040 N   0  0  0  0  0  0  0  0  0  0  0  0
   41.0950   32.7940   38.2600 C   0  0  0  0  0  0  0  0  0  0  0  0
   41.7710   33.1710   37.2490 O   0  0  0  0  0  0  0  0  0  0  0  0
   40.2280   34.6800   38.4020 H   0  0  0  0  0  0  0  0  0  0  0  0
  1  6  1  0  0  0  0
  1  9  1  0  0  0  0
  2  1  2  0  0  0  0
  3  4  2  0  0  0  0
  3  2  1  0  0  0  0
  4  5  1  0  0  0  0
  5 20  1  0  0  0  0
  5  6  2  0  0  0  0
  7  2  1  0  0  0  0
  8  3  1  0  0  0  0
  9 12  1  1  0  0  0
  9 11  1  0  0  0  0
 10 13  1  6  0  0  0
 10  9  1  0  0  0  0
 10 11  1  0  0  0  0
 11 14  1  0  0  0  0
 11 15  1  0  0  0  0
 16 10  1  0  0  0  0
 16 17  1  0  0  0  0
 18 16  1  0  0  0  0
 19 16  1  0  0  0  0
 21 22  1  0  0  0  0
 22 23  1  0  0  0  0
 23 24  2  0  0  0  0
 24 20  1  0  0  0  0
 25 24  1  0  0  0  0
 25 26  2  0  0  0  0
 27 25  1  0  0  0  0
 28 22  1  0  0  0  0
 28 27  1  0  0  0  0
 29 28  2  0  0  0  0
 30 27  1  0  0  0  0
M  END
>  <minimizedAffinity>
-5.66078901

$$$$

 OpenBabel03252505483D

 30 32  0  0  1  0  0  0  0  0999 V2000
   37.0440   28.0910   41.4560 C   0  0  0  0  0  0  0  0  0  0  0  0
   36.7790   27.6950   40.1260 C   0  0  0  0  0  0  0  0  0  0  0  0
   36.5800   28.6630   39.1180 C   0  0  0  0  0  0  0  0  0  0  0  0
   36.6570   29.9650   39.5070 N   0  0  0  0  0  0  0  0  0  0  0  0
   36.9140   30.2940   40.8100 C   0  0  0  0  0  0  0  0  0  0  0  0
   37.1010   29.3900   41.7490 N   0  0  0  0  0  0  0  0  0  0  0  0
   36.7270   26.6520   39.8630 H   0  0  0  0  0  0  0  0  0  0  0  0
   36.3800   28.4000   38.1080 H   0  0  0  0  0  0  0  0  0  0  0  0
   37.2360   27.0330   42.4440 C   0  0  1  0  0  0  0  0  0  0  0  0
   38.7380   26.5690   42.5080 C   0  0  1  0  0  0  0  0  0  0  0  0
   37.9440   27.1390   43.6610 C   0  0  0  0  0  0  0  0  0  0  0  0
   36.5350   26.1610   42.2600 H   0  0  0  0  0  0  0  0  0  0  0  0
   39.4820   27.1900   42.0160 H   0  0  0  0  0  0  0  0  0  0  0  0
   38.3220   28.1400   44.0060 H   0  0  0  0  0  0  0  0  0  0  0  0
   37.7100   26.4840   44.5280 H   0  0  0  0  0  0  0  0  0  0  0  0
   38.9090   25.0700   42.5740 C   0  0  0  0  0  0  0  0  0  0  0  0
   37.7290   24.3860   42.5400 F   0  0  0  0  0  0  0  0  0  0  0  0
   39.6780   24.6590   41.4680 F   0  0  0  0  0  0  0  0  0  0  0  0
   39.6670   24.7060   43.6790 F   0  0  0  0  0  0  0  0  0  0  0  0
   36.9560   31.6610   41.0470 O   0  0  0  0  0  0  0  0  0  0  0  0
   41.2840   32.5010   41.5670 H   0  0  0  0  0  0  0  0  0  0  0  0
   40.3710   32.6850   41.1240 N   0  0  0  0  0  0  0  0  0  0  0  0
   39.1930   32.0410   41.3660 C   0  0  0  0  0  3  0  0  0  0  0  0
   38.0520   32.4210   40.6730 C   0  0  0  0  0  0  0  0  0  0  0  0
   38.0950   33.4450   39.7390 C   0  0  0  0  0  0  0  0  0  0  0  0
   37.0100   33.6810   39.1950 O   0  0  0  0  0  0  0  0  0  0  0  0
   39.2800   34.0220   39.5610 N   0  0  0  0  0  0  0  0  0  0  0  0
   40.3940   33.6880   40.2030 C   0  0  0  0  0  0  0  0  0  0  0  0
   41.4400   34.3490   39.9060 O   0  0  0  0  0  0  0  0  0  0  0  0
   39.2850   34.8030   38.8410 H   0  0  0  0  0  0  0  0  0  0  0  0
  1  6  1  0  0  0  0
  1  9  1  0  0  0  0
  2  1  2  0  0  0  0
  3  4  2  0  0  0  0
  3  2  1  0  0  0  0
  4  5  1  0  0  0  0
  5 20  1  0  0  0  0
  5  6  2  0  0  0  0
  7  2  1  0  0  0  0
  8  3  1  0  0  0  0
  9 12  1  6  0  0  0
  9 10  1  0  0  0  0
  9 11  1  0  0  0  0
 10 13  1  6  0  0  0
 10 16  1  0  0  0  0
 10 11  1  0  0  0  0
 11 14  1  0  0  0  0
 11 15  1  0  0  0  0
 16 19  1  0  0  0  0
 17 16  1  0  0  0  0
 18 16  1  0  0  0  0
 22 23  1  0  0  0  0
 22 21  1  0  0  0  0
 24 20  1  0  0  0  0
 24 23  2  0  0  0  0
 25 24  1  0  0  0  0
 26 25  2  0  0  0  0
 27 25  1  0  0  0  0
 27 28  1  0  0  0  0
 28 22  1  0  0  0  0
 29 28  2  0  0  0  0
 30 27  1  0  0  0  0
M  END
>  <minimizedAffinity>
-5.65650463

$$$$

 OpenBabel03252505483D

 30 32  0  0  1  0  0  0  0  0999 V2000
   36.7740   30.7730   40.4120 C   0  0  0  0  0  0  0  0  0  0  0  0
   36.2060   30.1810   39.2620 C   0  0  0  0  0  0  0  0  0  0  0  0
   35.8260   28.8220   39.2710 C   0  0  0  0  0  0  0  0  0  0  0  0
   36.0430   28.1420   40.4300 N   0  0  0  0  0  0  0  0  0  0  0  0
   36.5980   28.7630   41.5140 C   0  0  0  0  0  0  0  0  0  0  0  0
   36.9500   30.0320   41.5060 N   0  0  0  0  0  0  0  0  0  0  0  0
   36.0530   30.7590   38.3650 H   0  0  0  0  0  0  0  0  0  0  0  0
   35.3950   28.3460   38.4230 H   0  0  0  0  0  0  0  0  0  0  0  0
   37.1430   32.1840   40.3270 C   0  0  1  0  0  0  0  0  0  0  0  0
   38.5500   32.3720   39.6470 C   0  0  1  0  0  0  0  0  0  0  0  0
   37.2480   32.9550   39.1480 C   0  0  0  0  0  0  0  0  0  0  0  0
   37.0980   32.6870   41.3420 H   0  0  0  0  0  0  0  0  0  0  0  0
   38.9830   31.5180   39.1320 H   0  0  0  0  0  0  0  0  0  0  0  0
   36.9180   32.5230   38.1640 H   0  0  0  0  0  0  0  0  0  0  0  0
   37.1130   34.0580   39.1620 H   0  0  0  0  0  0  0  0  0  0  0  0
   39.4340   33.3770   40.3470 C   0  0  0  0  0  0  0  0  0  0  0  0
   38.7480   34.2260   41.1650 F   0  0  0  0  0  0  0  0  0  0  0  0
   40.3690   32.6780   41.1350 F   0  0  0  0  0  0  0  0  0  0  0  0
   40.2060   34.0790   39.4310 F   0  0  0  0  0  0  0  0  0  0  0  0
   36.7580   27.9350   42.6160 O   0  0  0  0  0  0  0  0  0  0  0  0
   41.0310   27.6170   43.7790 H   0  0  0  0  0  0  0  0  0  0  0  0
   40.1530   27.2040   43.4290 N   0  0  0  0  0  0  0  0  0  0  0  0
   38.9640   27.8430   43.2330 C   0  0  0  0  0  3  0  0  0  0  0  0
   37.8750   27.1270   42.7520 C   0  0  0  0  0  0  0  0  0  0  0  0
   37.9830   25.7730   42.4690 C   0  0  0  0  0  0  0  0  0  0  0  0
   36.9400   25.2590   42.0490 O   0  0  0  0  0  0  0  0  0  0  0  0
   39.1750   25.2250   42.6870 N   0  0  0  0  0  0  0  0  0  0  0  0
   40.2390   25.8750   43.1450 C   0  0  0  0  0  0  0  0  0  0  0  0
   41.3020   25.1900   43.2930 O   0  0  0  0  0  0  0  0  0  0  0  0
   39.2300   24.1890   42.4620 H   0  0  0  0  0  0  0  0  0  0  0  0
  1  6  1  0  0  0  0
  2  3  1  0  0  0  0
  2  1  2  0  0  0  0
  3  4  2  0  0  0  0
  4  5  1  0  0  0  0
  5 20  1  0  0  0  0
  6  5  2  0  0  0  0
  7  2  1  0  0  0  0
  8  3  1  0  0  0  0
  9  1  1  0  0  0  0
  9 12  1  1  0  0  0
 10 13  1  6  0  0  0
 10  9  1  0  0  0  0
 10 16  1  0  0  0  0
 11 15  1  0  0  0  0
 11 10  1  0  0  0  0
 11  9  1  0  0  0  0
 14 11  1  0  0  0  0
 16 18  1  0  0  0  0
 16 17  1  0  0  0  0
 19 16  1  0  0  0  0
 20 24  1  0  0  0  0
 22 21  1  0  0  0  0
 23 22  1  0  0  0  0
 24 23  2  0  0  0  0
 25 27  1  0  0  0  0
 25 24  1  0  0  0  0
 26 25  2  0  0  0  0
 27 28  1  0  0  0  0
 28 29  2  0  0  0  0
 28 22  1  0  0  0  0
 30 27  1  0  0  0  0
M  END
>  <minimizedAffinity>
-5.45991802

$$$$

 OpenBabel03252505483D

 30 32  0  0  1  0  0  0  0  0999 V2000
   36.4470   29.0600   40.5600 C   0  0  0  0  0  0  0  0  0  0  0  0
   36.2390   28.9250   39.1690 C   0  0  0  0  0  0  0  0  0  0  0  0
   36.4730   30.0140   38.3030 C   0  0  0  0  0  0  0  0  0  0  0  0
   36.8980   31.1690   38.8840 N   0  0  0  0  0  0  0  0  0  0  0  0
   37.0820   31.2460   40.2370 C   0  0  0  0  0  0  0  0  0  0  0  0
   36.8650   30.2290   41.0450 N   0  0  0  0  0  0  0  0  0  0  0  0
   35.9010   27.9910   38.7520 H   0  0  0  0  0  0  0  0  0  0  0  0
   36.3270   29.9460   37.2520 H   0  0  0  0  0  0  0  0  0  0  0  0
   36.1820   27.8910   41.3940 C   0  0  1  0  0  0  0  0  0  0  0  0
   37.4950   27.0700   41.6730 C   0  0  1  0  0  0  0  0  0  0  0  0
   36.6070   27.6940   42.7260 C   0  0  0  0  0  0  0  0  0  0  0  0
   35.3680   27.2390   40.9470 H   0  0  0  0  0  0  0  0  0  0  0  0
   38.4460   27.5390   41.4330 H   0  0  0  0  0  0  0  0  0  0  0  0
   37.1060   28.5320   43.2850 H   0  0  0  0  0  0  0  0  0  0  0  0
   36.0510   27.0300   43.4210 H   0  0  0  0  0  0  0  0  0  0  0  0
   37.3190   25.5760   41.5410 C   0  0  0  0  0  0  0  0  0  0  0  0
   38.4980   24.8900   41.5230 F   0  0  0  0  0  0  0  0  0  0  0  0
   36.5680   25.1160   42.6400 F   0  0  0  0  0  0  0  0  0  0  0  0
   36.5420   25.2650   40.4340 F   0  0  0  0  0  0  0  0  0  0  0  0
   37.5130   32.4900   40.6760 O   0  0  0  0  0  0  0  0  0  0  0  0
   40.5490   35.0800   38.7310 H   0  0  0  0  0  0  0  0  0  0  0  0
   40.2800   34.3470   39.4050 N   0  0  0  0  0  0  0  0  0  0  0  0
   39.0270   33.8570   39.6310 C   0  0  0  0  0  3  0  0  0  0  0  0
   38.8440   32.8630   40.5830 C   0  0  0  0  0  0  0  0  0  0  0  0
   39.9190   32.3640   41.3050 C   0  0  0  0  0  0  0  0  0  0  0  0
   39.6160   31.4840   42.1190 O   0  0  0  0  0  0  0  0  0  0  0  0
   41.1060   32.8940   41.0250 N   0  0  0  0  0  0  0  0  0  0  0  0
   41.3210   33.8450   40.1230 C   0  0  0  0  0  0  0  0  0  0  0  0
   42.5250   34.2340   39.9860 O   0  0  0  0  0  0  0  0  0  0  0  0
   41.9100   32.4940   41.5910 H   0  0  0  0  0  0  0  0  0  0  0  0
  1  6  1  0  0  0  0
  1  9  1  0  0  0  0
  2  1  2  0  0  0  0
  3  4  2  0  0  0  0
  3  2  1  0  0  0  0
  4  5  1  0  0  0  0
  5 20  1  0  0  0  0
  5  6  2  0  0  0  0
  7  2  1  0  0  0  0
  8  3  1  0  0  0  0
  9 12  1  6  0  0  0
  9 10  1  0  0  0  0
  9 11  1  0  0  0  0
 10 13  1  6  0  0  0
 10 11  1  0  0  0  0
 11 14  1  0  0  0  0
 11 15  1  0  0  0  0
 16 10  1  0  0  0  0
 16 18  1  0  0  0  0
 17 16  1  0  0  0  0
 19 16  1  0  0  0  0
 21 22  1  0  0  0  0
 22 23  1  0  0  0  0
 22 28  1  0  0  0  0
 23 24  2  0  0  0  0
 24 20  1  0  0  0  0
 24 25  1  0  0  0  0
 25 26  2  0  0  0  0
 27 25  1  0  0  0  0
 27 30  1  0  0  0  0
 28 27  1  0  0  0  0
 29 28  2  0  0  0  0
M  END
>  <minimizedAffinity>
-5.40774488

$$$$

 OpenBabel03252505483D

 30 32  0  0  1  0  0  0  0  0999 V2000
   38.3120   27.6360   41.1960 C   0  0  0  0  0  0  0  0  0  0  0  0
   38.4270   28.1390   42.5120 C   0  0  0  0  0  0  0  0  0  0  0  0
   38.3220   29.5240   42.7590 C   0  0  0  0  0  0  0  0  0  0  0  0
   38.1120   30.3180   41.6730 N   0  0  0  0  0  0  0  0  0  0  0  0
   38.0100   29.7790   40.4200 C   0  0  0  0  0  0  0  0  0  0  0  0
   38.1060   28.4860   40.1900 N   0  0  0  0  0  0  0  0  0  0  0  0
   38.5940   27.4720   43.3420 H   0  0  0  0  0  0  0  0  0  0  0  0
   38.4030   29.9350   43.7360 H   0  0  0  0  0  0  0  0  0  0  0  0
   38.4330   26.1910   41.0180 C   0  0  1  0  0  0  0  0  0  0  0  0
   37.0730   25.5510   40.5530 C   0  0  1  0  0  0  0  0  0  0  0  0
   38.3790   25.4880   39.7940 C   0  0  0  0  0  0  0  0  0  0  0  0
   38.8350   25.6910   41.9530 H   0  0  0  0  0  0  0  0  0  0  0  0
   36.2890   26.2200   40.2090 H   0  0  0  0  0  0  0  0  0  0  0  0
   38.3540   26.0540   38.8230 H   0  0  0  0  0  0  0  0  0  0  0  0
   38.8800   24.5050   39.6680 H   0  0  0  0  0  0  0  0  0  0  0  0
   36.7290   24.2670   41.2710 C   0  0  0  0  0  0  0  0  0  0  0  0
   37.7420   23.3540   41.2660 F   0  0  0  0  0  0  0  0  0  0  0  0
   36.4290   24.5730   42.6130 F   0  0  0  0  0  0  0  0  0  0  0  0
   35.5570   23.7180   40.7690 F   0  0  0  0  0  0  0  0  0  0  0  0
   37.8010   30.7180   39.4200 O   0  0  0  0  0  0  0  0  0  0  0  0
   41.1650   30.8430   36.5260 H   0  0  0  0  0  0  0  0  0  0  0  0
   40.5880   31.2730   37.2640 N   0  0  0  0  0  0  0  0  0  0  0  0
   39.5200   30.7140   37.9040 C   0  0  0  0  0  3  0  0  0  0  0  0
   38.8530   31.4410   38.8820 C   0  0  0  0  0  0  0  0  0  0  0  0
   39.2580   32.7260   39.2130 C   0  0  0  0  0  0  0  0  0  0  0  0
   38.5770   33.2580   40.0970 O   0  0  0  0  0  0  0  0  0  0  0  0
   40.3060   33.1980   38.5440 N   0  0  0  0  0  0  0  0  0  0  0  0
   40.9700   32.5340   37.6040 C   0  0  0  0  0  0  0  0  0  0  0  0
   41.9510   33.1420   37.0670 O   0  0  0  0  0  0  0  0  0  0  0  0
   40.5950   34.1820   38.8180 H   0  0  0  0  0  0  0  0  0  0  0  0
  1  2  1  0  0  0  0
  2  3  2  0  0  0  0
  2  7  1  0  0  0  0
  3  8  1  0  0  0  0
  4  3  1  0  0  0  0
  5  4  2  0  0  0  0
  6  5  1  0  0  0  0
  6  1  2  0  0  0  0
  9  1  1  0  0  0  0
  9 12  1  1  0  0  0
 10 13  1  6  0  0  0
 10  9  1  0  0  0  0
 10 16  1  0  0  0  0
 11 10  1  0  0  0  0
 11  9  1  0  0  0  0
 14 11  1  0  0  0  0
 15 11  1  0  0  0  0
 16 18  1  0  0  0  0
 17 16  1  0  0  0  0
 19 16  1  0  0  0  0
 20  5  1  0  0  0  0
 21 22  1  0  0  0  0
 22 28  1  0  0  0  0
 22 23  1  0  0  0  0
 23 24  2  0  0  0  0
 24 25  1  0  0  0  0
 24 20  1  0  0  0  0
 25 26  2  0  0  0  0
 27 30  1  0  0  0  0
 27 25  1  0  0  0  0
 28 27  1  0  0  0  0
 29 28  2  0  0  0  0
M  END
>  <minimizedAffinity>
-5.37517309

$$$$

 OpenBabel03252505483D

 30 32  0  0  1  0  0  0  0  0999 V2000
   37.9660   29.2380   41.9070 C   0  0  0  0  0  0  0  0  0  0  0  0
   38.8360   29.7980   42.8710 C   0  0  0  0  0  0  0  0  0  0  0  0
   39.6850   30.8720   42.5290 C   0  0  0  0  0  0  0  0  0  0  0  0
   39.6110   31.3160   41.2440 N   0  0  0  0  0  0  0  0  0  0  0  0
   38.7520   30.7370   40.3510 C   0  0  0  0  0  0  0  0  0  0  0  0
   37.9590   29.7360   40.6700 N   0  0  0  0  0  0  0  0  0  0  0  0
   38.8610   29.4130   43.8770 H   0  0  0  0  0  0  0  0  0  0  0  0
   40.3500   31.3160   43.2290 H   0  0  0  0  0  0  0  0  0  0  0  0
   37.1190   28.1280   42.3340 C   0  0  1  0  0  0  0  0  0  0  0  0
   37.9510   26.8050   42.5180 C   0  0  1  0  0  0  0  0  0  0  0  0
   37.1410   27.4910   43.5940 C   0  0  0  0  0  0  0  0  0  0  0  0
   36.2440   27.9780   41.6270 H   0  0  0  0  0  0  0  0  0  0  0  0
   39.0350   26.8860   42.5350 H   0  0  0  0  0  0  0  0  0  0  0  0
   37.7720   27.9110   44.4240 H   0  0  0  0  0  0  0  0  0  0  0  0
   36.2430   26.9770   44.0000 H   0  0  0  0  0  0  0  0  0  0  0  0
   37.2800   25.5790   41.9440 C   0  0  0  0  0  0  0  0  0  0  0  0
   36.7480   25.7820   40.7050 F   0  0  0  0  0  0  0  0  0  0  0  0
   38.2390   24.5530   41.8400 F   0  0  0  0  0  0  0  0  0  0  0  0
   36.3290   25.0790   42.8220 F   0  0  0  0  0  0  0  0  0  0  0  0
   38.7970   31.2990   39.0820 O   0  0  0  0  0  0  0  0  0  0  0  0
   41.4370   28.8320   36.5030 H   0  0  0  0  0  0  0  0  0  0  0  0
   41.1960   29.7210   36.9670 N   0  0  0  0  0  0  0  0  0  0  0  0
   40.1150   29.9680   37.7610 C   0  0  0  0  0  3  0  0  0  0  0  0
   39.9440   31.2330   38.3080 C   0  0  0  0  0  0  0  0  0  0  0  0
   40.8580   32.2460   38.0570 C   0  0  0  0  0  0  0  0  0  0  0  0
   40.5860   33.3200   38.6040 O   0  0  0  0  0  0  0  0  0  0  0  0
   41.8840   31.9240   37.2740 N   0  0  0  0  0  0  0  0  0  0  0  0
   42.0820   30.7270   36.7320 C   0  0  0  0  0  0  0  0  0  0  0  0
   43.1200   30.5970   36.0070 O   0  0  0  0  0  0  0  0  0  0  0  0
   42.5680   32.7170   37.0980 H   0  0  0  0  0  0  0  0  0  0  0  0
  1  9  1  0  0  0  0
  1  2  1  0  0  0  0
  2  7  1  0  0  0  0
  3  2  2  0  0  0  0
  3  8  1  0  0  0  0
  4  3  1  0  0  0  0
  5  6  1  0  0  0  0
  5  4  2  0  0  0  0
  6  1  2  0  0  0  0
  9 12  1  6  0  0  0
  9 10  1  0  0  0  0
  9 11  1  0  0  0  0
 10 13  1  1  0  0  0
 10 11  1  0  0  0  0
 11 15  1  0  0  0  0
 11 14  1  0  0  0  0
 16 10  1  0  0  0  0
 16 19  1  0  0  0  0
 17 16  1  0  0  0  0
 18 16  1  0  0  0  0
 20  5  1  0  0  0  0
 21 22  1  0  0  0  0
 22 23  1  0  0  0  0
 23 24  2  0  0  0  0
 24 20  1  0  0  0  0
 25 24  1  0  0  0  0
 25 26  2  0  0  0  0
 27 25  1  0  0  0  0
 28 22  1  0  0  0  0
 28 27  1  0  0  0  0
 29 28  2  0  0  0  0
 30 27  1  0  0  0  0
M  END
>  <minimizedAffinity>
-5.34004021

$$$$

 OpenBabel03252505483D

 30 32  0  0  1  0  0  0  0  0999 V2000
   37.3360   26.9740   42.1190 C   0  0  0  0  0  0  0  0  0  0  0  0
   37.9380   27.6170   43.2240 C   0  0  0  0  0  0  0  0  0  0  0  0
   38.1090   29.0180   43.2300 C   0  0  0  0  0  0  0  0  0  0  0  0
   37.6710   29.6860   42.1270 N   0  0  0  0  0  0  0  0  0  0  0  0
   37.0970   29.0130   41.0830 C   0  0  0  0  0  0  0  0  0  0  0  0
   36.9360   27.7060   41.0790 N   0  0  0  0  0  0  0  0  0  0  0  0
   38.2700   27.0480   44.0760 H   0  0  0  0  0  0  0  0  0  0  0  0
   38.5560   29.5330   44.0450 H   0  0  0  0  0  0  0  0  0  0  0  0
   37.1950   25.5220   42.1840 C   0  0  1  0  0  0  0  0  0  0  0  0
   37.8830   24.8190   40.9570 C   0  0  1  0  0  0  0  0  0  0  0  0
   38.2280   24.5870   42.4100 C   0  0  0  0  0  0  0  0  0  0  0  0
   36.1070   25.2160   42.2870 H   0  0  0  0  0  0  0  0  0  0  0  0
   38.5510   25.4150   40.3400 H   0  0  0  0  0  0  0  0  0  0  0  0
   39.2580   24.9440   42.6830 H   0  0  0  0  0  0  0  0  0  0  0  0
   38.0220   23.5910   42.8580 H   0  0  0  0  0  0  0  0  0  0  0  0
   37.0560   23.7120   40.3470 C   0  0  0  0  0  0  0  0  0  0  0  0
   35.7180   23.8420   40.5810 F   0  0  0  0  0  0  0  0  0  0  0  0
   37.2540   23.7230   38.9530 F   0  0  0  0  0  0  0  0  0  0  0  0
   37.5170   22.4680   40.7540 F   0  0  0  0  0  0  0  0  0  0  0  0
   36.7070   29.8330   40.0330 O   0  0  0  0  0  0  0  0  0  0  0  0
   39.9710   29.8420   37.0250 H   0  0  0  0  0  0  0  0  0  0  0  0
   39.3490   30.3270   37.6890 N   0  0  0  0  0  0  0  0  0  0  0  0
   38.3850   29.7640   38.4730 C   0  0  0  0  0  3  0  0  0  0  0  0
   37.6330   30.5730   39.3170 C   0  0  0  0  0  0  0  0  0  0  0  0
   37.8510   31.9420   39.3700 C   0  0  0  0  0  0  0  0  0  0  0  0
   37.1140   32.5410   40.1610 O   0  0  0  0  0  0  0  0  0  0  0  0
   38.8080   32.4110   38.5750 N   0  0  0  0  0  0  0  0  0  0  0  0
   39.5480   31.6710   37.7550 C   0  0  0  0  0  0  0  0  0  0  0  0
   40.4210   32.2900   37.0660 O   0  0  0  0  0  0  0  0  0  0  0  0
   38.9540   33.4610   38.6360 H   0  0  0  0  0  0  0  0  0  0  0  0
  1  9  1  0  0  0  0
  1  2  1  0  0  0  0
  2  3  2  0  0  0  0
  2  7  1  0  0  0  0
  3  8  1  0  0  0  0
  4  3  1  0  0  0  0
  5  4  2  0  0  0  0
  6  5  1  0  0  0  0
  6  1  2  0  0  0  0
  9 12  1  1  0  0  0
  9 11  1  0  0  0  0
 10 13  1  6  0  0  0
 10  9  1  0  0  0  0
 10 11  1  0  0  0  0
 11 14  1  0  0  0  0
 11 15  1  0  0  0  0
 16 17  1  0  0  0  0
 16 19  1  0  0  0  0
 16 10  1  0  0  0  0
 18 16  1  0  0  0  0
 20  5  1  0  0  0  0
 21 22  1  0  0  0  0
 22 28  1  0  0  0  0
 22 23  1  0  0  0  0
 23 24  2  0  0  0  0
 24 25  1  0  0  0  0
 24 20  1  0  0  0  0
 25 26  2  0  0  0  0
 27 30  1  0  0  0  0
 27 25  1  0  0  0  0
 28 27  1  0  0  0  0
 29 28  2  0  0  0  0
M  END
>  <minimizedAffinity>
-5.32923508

$$$$

 OpenBabel03252505483D

 30 32  0  0  1  0  0  0  0  0999 V2000
   37.0180   30.6830   40.9210 C   0  0  0  0  0  0  0  0  0  0  0  0
   35.9580   29.9050   40.4020 C   0  0  0  0  0  0  0  0  0  0  0  0
   35.6620   28.6410   40.9540 C   0  0  0  0  0  0  0  0  0  0  0  0
   36.4480   28.2340   41.9890 N   0  0  0  0  0  0  0  0  0  0  0  0
   37.4620   29.0260   42.4520 C   0  0  0  0  0  0  0  0  0  0  0  0
   37.7370   30.2070   41.9370 N   0  0  0  0  0  0  0  0  0  0  0  0
   35.3620   30.2670   39.5800 H   0  0  0  0  0  0  0  0  0  0  0  0
   34.8720   28.0310   40.5890 H   0  0  0  0  0  0  0  0  0  0  0  0
   37.2660   31.9790   40.2950 C   0  0  1  0  0  0  0  0  0  0  0  0
   38.5750   31.9590   39.4230 C   0  0  1  0  0  0  0  0  0  0  0  0
   37.1860   32.2760   38.9170 C   0  0  0  0  0  0  0  0  0  0  0  0
   37.2870   32.8130   41.0640 H   0  0  0  0  0  0  0  0  0  0  0  0
   39.0160   30.9920   39.1940 H   0  0  0  0  0  0  0  0  0  0  0  0
   36.7900   31.5070   38.2000 H   0  0  0  0  0  0  0  0  0  0  0  0
   36.9680   33.3050   38.5570 H   0  0  0  0  0  0  0  0  0  0  0  0
   39.4460   33.1790   39.6050 C   0  0  0  0  0  0  0  0  0  0  0  0
   38.7370   34.3360   39.7450 F   0  0  0  0  0  0  0  0  0  0  0  0
   40.2230   33.0040   40.7660 F   0  0  0  0  0  0  0  0  0  0  0  0
   40.3740   33.2820   38.5770 F   0  0  0  0  0  0  0  0  0  0  0  0
   38.1730   28.4710   43.5070 O   0  0  0  0  0  0  0  0  0  0  0  0
   39.7840   24.3420   43.2530 H   0  0  0  0  0  0  0  0  0  0  0  0
   39.9000   25.3650   43.2010 N   0  0  0  0  0  0  0  0  0  0  0  0
   38.9380   26.3130   43.3920 C   0  0  0  0  0  3  0  0  0  0  0  0
   39.2720   27.6570   43.2830 C   0  0  0  0  0  0  0  0  0  0  0  0
   40.5690   28.0450   42.9820 C   0  0  0  0  0  0  0  0  0  0  0  0
   40.7280   29.2690   42.9150 O   0  0  0  0  0  0  0  0  0  0  0  0
   41.4470   27.0610   42.8120 N   0  0  0  0  0  0  0  0  0  0  0  0
   41.1670   25.7660   42.9080 C   0  0  0  0  0  0  0  0  0  0  0  0
   42.1340   24.9610   42.7130 O   0  0  0  0  0  0  0  0  0  0  0  0
   42.4320   27.3860   42.5830 H   0  0  0  0  0  0  0  0  0  0  0  0
  1  6  1  0  0  0  0
  2  1  2  0  0  0  0
  2  3  1  0  0  0  0
  3  4  2  0  0  0  0
  4  5  1  0  0  0  0
  5 20  1  0  0  0  0
  6  5  2  0  0  0  0
  7  2  1  0  0  0  0
  8  3  1  0  0  0  0
  9  1  1  0  0  0  0
  9 12  1  1  0  0  0
 10 13  1  6  0  0  0
 10 16  1  0  0  0  0
 10  9  1  0  0  0  0
 11 10  1  0  0  0  0
 11  9  1  0  0  0  0
 14 11  1  0  0  0  0
 15 11  1  0  0  0  0
 16 17  1  0  0  0  0
 16 18  1  0  0  0  0
 19 16  1  0  0  0  0
 22 21  1  0  0  0  0
 22 23  1  0  0  0  0
 24 23  2  0  0  0  0
 24 20  1  0  0  0  0
 25 24  1  0  0  0  0
 26 25  2  0  0  0  0
 27 28  1  0  0  0  0
 27 25  1  0  0  0  0
 28 22  1  0  0  0  0
 29 28  2  0  0  0  0
 30 27  1  0  0  0  0
M  END
>  <minimizedAffinity>
-5.26411629

$$$$
