
 OpenBabel03252509003D

 46 48  0  0  1  0  0  0  0  0999 V2000
   47.0830   34.3200   43.3630 N   0  0  0  0  0  0  0  0  0  0  0  0
   46.7250   35.1470   42.2580 C   0  0  0  0  0  0  0  0  0  0  0  0
   45.2580   35.1700   41.9180 C   0  0  0  0  0  0  0  0  0  0  0  0
   44.3380   34.9940   43.0900 C   0  0  0  0  0  0  0  0  0  0  0  0
   45.1020   34.9690   44.3930 C   0  0  0  0  0  0  0  0  0  0  0  0
   46.1100   33.7790   44.1840 C   0  0  2  0  0  0  0  0  0  0  0  0
   46.9970   36.1920   42.5660 H   0  0  0  0  0  0  0  0  0  0  0  0
   47.2800   34.9750   41.3340 H   0  0  0  0  0  0  0  0  0  0  0  0
   45.0290   34.4480   41.1000 H   0  0  0  0  0  0  0  0  0  0  0  0
   45.0110   36.1710   41.4900 H   0  0  0  0  0  0  0  0  0  0  0  0
   43.8640   33.9880   42.9790 H   0  0  0  0  0  0  0  0  0  0  0  0
   43.4840   35.7120   43.0980 H   0  0  0  0  0  0  0  0  0  0  0  0
   45.6690   35.8960   44.5120 H   0  0  0  0  0  0  0  0  0  0  0  0
   44.4240   34.7320   45.2220 H   0  0  0  0  0  0  0  0  0  0  0  0
   45.5310   32.9260   43.7960 H   0  0  0  0  0  0  0  0  0  0  0  0
   48.3180   33.6130   43.1940 C   0  0  0  0  0  0  0  0  0  0  0  0
   48.9890   34.2140   42.5680 H   0  0  0  0  0  0  0  0  0  0  0  0
   48.7780   33.4720   44.1960 H   0  0  0  0  0  0  0  0  0  0  0  0
   48.0260   32.2630   42.6140 C   0  0  0  0  0  0  0  0  0  0  0  0
   48.3470   31.4470   43.2730 H   0  0  0  0  0  0  0  0  0  0  0  0
   46.9380   32.1280   42.4510 H   0  0  0  0  0  0  0  0  0  0  0  0
   50.6380   31.5610   40.0000 C   0  0  0  0  0  0  0  0  0  0  0  0
   49.9990   31.6760   41.2540 C   0  0  0  0  0  0  0  0  0  0  0  0
   48.7020   32.1400   41.2960 C   0  0  0  0  0  0  0  0  0  0  0  0
   48.1020   32.4630   40.1320 N   0  0  0  0  0  0  0  0  0  0  0  0
   48.7380   32.3420   38.9500 C   0  0  0  0  0  0  0  0  0  0  0  0
   49.9970   31.8960   38.8670 N   0  0  0  0  0  0  0  0  0  0  0  0
   51.6500   31.1930   40.0350 H   0  0  0  0  0  0  0  0  0  0  0  0
   50.4850   31.4150   42.1940 H   0  0  0  0  0  0  0  0  0  0  0  0
   48.2620   32.6000   38.0110 H   0  0  0  0  0  0  0  0  0  0  0  0
   46.5880   33.5950   45.4830 O   0  0  0  0  0  0  0  0  0  0  0  0
   45.5060   31.2030   45.0530 O   0  0  0  0  0  0  0  0  0  0  0  0
   46.1960   32.0730   46.1010 P   0  0  2  0  0  0  0  0  0  0  0  0
   45.0300   32.3520   47.3230 O   0  0  0  0  0  0  0  0  0  0  0  0
   45.3530   33.0510   47.9390 H   0  0  0  0  0  0  0  0  0  0  0  0
   47.5060   31.3350   46.8060 O   0  0  0  0  0  0  0  0  0  0  0  0
   46.4010   27.5440   48.7650 H   0  0  0  0  0  0  0  0  0  0  0  0
   46.9410   28.0310   48.0050 N   0  0  0  0  0  0  0  0  0  0  0  0
   46.9270   29.3830   47.8270 C   0  0  0  0  0  3  0  0  0  0  0  0
   47.6730   29.9600   46.7940 C   0  0  0  0  0  0  0  0  0  0  0  0
   48.4030   29.1210   45.9850 C   0  0  0  0  0  0  0  0  0  0  0  0
   49.0270   29.7550   45.0990 O   0  0  0  0  0  0  0  0  0  0  0  0
   48.3800   27.8040   46.2060 N   0  0  0  0  0  0  0  0  0  0  0  0
   47.6680   27.2480   47.1940 C   0  0  0  0  0  0  0  0  0  0  0  0
   47.7650   26.0000   47.2520 O   0  0  0  0  0  0  0  0  0  0  0  0
   48.9770   27.2590   45.5250 H   0  0  0  0  0  0  0  0  0  0  0  0
  1  6  1  0  0  0  0
  2  7  1  0  0  0  0
  2  1  1  0  0  0  0
  3  2  1  0  0  0  0
  3  4  1  0  0  0  0
  4 12  1  0  0  0  0
  4  5  1  0  0  0  0
  5 13  1  0  0  0  0
  5 14  1  0  0  0  0
  6 15  1  6  0  0  0
  6  5  1  0  0  0  0
  6 31  1  0  0  0  0
  8  2  1  0  0  0  0
  9  3  1  0  0  0  0
 10  3  1  0  0  0  0
 11  4  1  0  0  0  0
 16  1  1  0  0  0  0
 16 18  1  0  0  0  0
 17 16  1  0  0  0  0
 19 16  1  0  0  0  0
 19 20  1  0  0  0  0
 21 19  1  0  0  0  0
 22 28  1  0  0  0  0
 22 23  1  0  0  0  0
 23 24  2  0  0  0  0
 23 29  1  0  0  0  0
 24 19  1  0  0  0  0
 25 24  1  0  0  0  0
 26 25  2  0  0  0  0
 27 26  1  0  0  0  0
 27 22  2  0  0  0  0
 30 26  1  0  0  0  0
 31 33  1  0  0  0  0
 33 32  2  6  0  0  0
 33 36  1  0  0  0  0
 33 34  1  0  0  0  0
 34 35  1  0  0  0  0
 38 37  1  0  0  0  0
 39 38  1  0  0  0  0
 40 36  1  0  0  0  0
 40 39  2  0  0  0  0
 41 43  1  0  0  0  0
 41 40  1  0  0  0  0
 42 41  2  0  0  0  0
 43 44  1  0  0  0  0
 44 45  2  0  0  0  0
 44 38  1  0  0  0  0
 46 43  1  0  0  0  0
M  END
>  <minimizedAffinity>
-4.46380997

>  <minimizedRMSD>
1.55588615

$$$$
