
 OpenBabel03242523193D

 38 41  0  0  0  0  0  0  0  0999 V2000
   44.4290   31.8540   42.8550 Cl  0  0  0  0  0  0  0  0  0  0  0  0
   44.5470   33.6130   42.7740 C   0  0  0  0  0  0  0  0  0  0  0  0
   45.4480   34.2040   43.6830 C   0  0  0  0  0  0  0  0  0  0  0  0
   45.4590   35.5800   43.5220 C   0  0  0  0  0  0  0  0  0  0  0  0
   44.7750   36.3570   42.6730 C   0  0  0  0  0  0  0  0  0  0  0  0
   43.9250   35.7050   41.8270 C   0  0  0  0  0  0  0  0  0  0  0  0
   43.7930   34.3590   41.8550 C   0  0  0  0  0  0  0  0  0  0  0  0
   46.0920   36.2050   44.1870 H   0  0  0  0  0  0  0  0  0  0  0  0
   44.8260   37.4300   42.5910 H   0  0  0  0  0  0  0  0  0  0  0  0
   43.2910   36.1600   41.0740 H   0  0  0  0  0  0  0  0  0  0  0  0
   42.9320   33.5540   41.0200 N   0  0  0  0  0  0  0  0  0  0  0  0
   41.6750   33.1480   41.2800 C   0  0  0  0  0  3  0  0  0  0  0  0
   41.0300   32.3780   40.3340 C   0  0  0  0  0  0  0  0  0  0  0  0
   40.0220   32.0740   40.5830 H   0  0  0  0  0  0  0  0  0  0  0  0
   41.6490   32.0280   39.1510 C   0  0  0  0  0  0  0  0  0  0  0  0
   41.0420   31.3250   38.3010 O   0  0  0  0  0  0  0  0  0  0  0  0
   42.9060   32.4480   38.9190 N   0  0  0  0  0  0  0  0  0  0  0  0
   43.5290   33.2090   39.8640 C   0  0  0  0  0  0  0  0  0  0  0  0
   44.7130   33.5390   39.5180 O   0  0  0  0  0  0  0  0  0  0  0  0
   43.3540   32.1720   38.0170 H   0  0  0  0  0  0  0  0  0  0  0  0
   46.2960   33.4960   44.6780 C   0  0  0  0  0  0  0  0  0  0  0  0
   45.7300   33.8660   45.6750 O   0  0  0  0  0  0  0  0  0  0  0  0
   47.3340   32.7470   43.9580 C   0  0  0  0  0  0  0  0  0  0  0  0
   48.2300   33.2540   43.0990 C   0  0  0  0  0  0  0  0  0  0  0  0
   49.0360   32.3120   42.4850 C   0  0  0  0  0  0  0  0  0  0  0  0
   48.8570   30.9520   42.8030 N   0  0  0  0  0  0  0  0  0  0  0  0
   47.9500   30.5360   43.6640 C   0  0  0  0  0  0  0  0  0  0  0  0
   47.1290   31.4440   44.2950 N   0  0  0  0  0  0  0  0  0  0  0  0
   49.8060   32.5510   41.7660 H   0  0  0  0  0  0  0  0  0  0  0  0
   47.9260   29.4620   43.8130 H   0  0  0  0  0  0  0  0  0  0  0  0
   48.4940   34.6280   42.8650 C   0  0  0  0  0  0  0  0  0  0  0  0
   49.5630   35.1950   42.2420 C   0  0  0  0  0  0  0  0  0  0  0  0
   48.3370   35.1410   41.3720 C   0  0  0  0  0  0  0  0  0  0  0  0
   48.0580   35.2980   43.6300 H   0  0  0  0  0  0  0  0  0  0  0  0
   50.3980   34.5420   41.8470 H   0  0  0  0  0  0  0  0  0  0  0  0
   49.9560   36.2340   42.3230 H   0  0  0  0  0  0  0  0  0  0  0  0
   47.6770   36.0280   41.2650 H   0  0  0  0  0  0  0  0  0  0  0  0
   48.2290   34.3240   40.6490 H   0  0  0  0  0  0  0  0  0  0  0  0
  2  1  1  0  0  0  0
  2  3  1  0  0  0  0
  3 21  1  0  0  0  0
  4  3  2  0  0  0  0
  4  8  1  0  0  0  0
  5  4  1  0  0  0  0
  6  7  1  0  0  0  0
  6  5  2  0  0  0  0
  7  2  2  0  0  0  0
  9  5  1  0  0  0  0
 10  6  1  0  0  0  0
 11 12  1  0  0  0  0
 11  7  1  0  0  0  0
 13 14  1  0  0  0  0
 13 12  2  0  0  0  0
 15 13  1  0  0  0  0
 16 15  2  0  0  0  0
 17 15  1  0  0  0  0
 17 18  1  0  0  0  0
 18 11  1  0  0  0  0
 19 18  2  0  0  0  0
 20 17  1  0  0  0  0
 21 22  2  0  0  0  0
 23 28  1  0  0  0  0
 23 21  1  0  0  0  0
 24 23  2  0  0  0  0
 25 26  2  0  0  0  0
 25 24  1  0  0  0  0
 26 27  1  0  0  0  0
 27 30  1  0  0  0  0
 27 28  2  0  0  0  0
 29 25  1  0  0  0  0
 31 24  1  0  0  0  0
 31 34  1  0  0  0  0
 32 36  1  0  0  0  0
 32 31  1  0  0  0  0
 33 32  1  0  0  0  0
 33 31  1  0  0  0  0
 35 32  1  0  0  0  0
 37 33  1  0  0  0  0
 38 33  1  0  0  0  0
M  END
>  <minimizedAffinity>
-5.65609884

>  <minimizedRMSD>
0.716558993

$$$$
