
 OpenBabel03252509023D

 46 48  0  0  1  0  0  0  0  0999 V2000
   37.1190   26.8290   41.5410 N   0  0  0  0  0  0  0  0  0  0  0  0
   37.1230   25.6360   42.3210 C   0  0  0  0  0  0  0  0  0  0  0  0
   36.7700   24.3750   41.5760 C   0  0  0  0  0  0  0  0  0  0  0  0
   37.1780   24.3630   40.1320 C   0  0  0  0  0  0  0  0  0  0  0  0
   37.9890   25.5880   39.7770 C   0  0  0  0  0  0  0  0  0  0  0  0
   37.0230   26.7690   40.1610 C   0  0  2  0  0  0  0  0  0  0  0  0
   38.1830   25.5120   42.6720 H   0  0  0  0  0  0  0  0  0  0  0  0
   36.5280   25.6610   43.2350 H   0  0  0  0  0  0  0  0  0  0  0  0
   35.6910   24.1290   41.7030 H   0  0  0  0  0  0  0  0  0  0  0  0
   37.3140   23.5220   42.0490 H   0  0  0  0  0  0  0  0  0  0  0  0
   36.2380   24.4190   39.5310 H   0  0  0  0  0  0  0  0  0  0  0  0
   37.6640   23.4110   39.8140 H   0  0  0  0  0  0  0  0  0  0  0  0
   38.8810   25.6400   40.4070 H   0  0  0  0  0  0  0  0  0  0  0  0
   38.1830   25.6110   38.6980 H   0  0  0  0  0  0  0  0  0  0  0  0
   36.0380   26.5390   39.7280 H   0  0  0  0  0  0  0  0  0  0  0  0
   36.5970   27.9770   42.2220 C   0  0  0  0  0  0  0  0  0  0  0  0
   36.5760   28.8240   41.5250 H   0  0  0  0  0  0  0  0  0  0  0  0
   35.5600   27.7450   42.5500 H   0  0  0  0  0  0  0  0  0  0  0  0
   37.4310   28.2360   43.4380 C   0  0  0  0  0  0  0  0  0  0  0  0
   36.9100   28.8610   44.1760 H   0  0  0  0  0  0  0  0  0  0  0  0
   37.6900   27.2890   43.9530 H   0  0  0  0  0  0  0  0  0  0  0  0
   41.0770   28.8010   42.7090 C   0  0  0  0  0  0  0  0  0  0  0  0
   39.8730   28.1730   43.0970 C   0  0  0  0  0  0  0  0  0  0  0  0
   38.7000   28.8940   43.0310 C   0  0  0  0  0  0  0  0  0  0  0  0
   38.7580   30.1690   42.5970 N   0  0  0  0  0  0  0  0  0  0  0  0
   39.9230   30.7410   42.2340 C   0  0  0  0  0  0  0  0  0  0  0  0
   41.0840   30.0760   42.2840 N   0  0  0  0  0  0  0  0  0  0  0  0
   41.9580   28.1850   42.7840 H   0  0  0  0  0  0  0  0  0  0  0  0
   39.8280   27.1420   43.4470 H   0  0  0  0  0  0  0  0  0  0  0  0
   39.9770   31.7650   41.8840 H   0  0  0  0  0  0  0  0  0  0  0  0
   37.6680   27.8530   39.5630 O   0  0  0  0  0  0  0  0  0  0  0  0
   36.0650   27.2030   37.5410 O   0  0  0  0  0  0  0  0  0  0  0  0
   36.9250   28.3230   38.1200 P   0  0  2  0  0  0  0  0  0  0  0  0
   38.1960   28.5680   37.0000 O   0  0  0  0  0  0  0  0  0  0  0  0
   38.8830   29.1530   37.3980 H   0  0  0  0  0  0  0  0  0  0  0  0
   36.1060   29.7590   38.2840 O   0  0  0  0  0  0  0  0  0  0  0  0
   36.8720   32.4600   41.6810 H   0  0  0  0  0  0  0  0  0  0  0  0
   37.0210   32.2430   40.6640 N   0  0  0  0  0  0  0  0  0  0  0  0
   36.4950   31.1470   40.0470 C   0  0  0  0  0  3  0  0  0  0  0  0
   36.7370   30.9250   38.6870 C   0  0  0  0  0  0  0  0  0  0  0  0
   37.5110   31.8420   38.0170 C   0  0  0  0  0  0  0  0  0  0  0  0
   37.6550   31.5330   36.8080 O   0  0  0  0  0  0  0  0  0  0  0  0
   38.0010   32.8980   38.6710 N   0  0  0  0  0  0  0  0  0  0  0  0
   37.7720   33.1150   39.9720 C   0  0  0  0  0  0  0  0  0  0  0  0
   38.3100   34.1540   40.4180 O   0  0  0  0  0  0  0  0  0  0  0  0
   38.5800   33.5340   38.0570 H   0  0  0  0  0  0  0  0  0  0  0  0
  1 16  1  0  0  0  0
  1  2  1  0  0  0  0
  2  7  1  0  0  0  0
  2  8  1  0  0  0  0
  3  9  1  0  0  0  0
  3 10  1  0  0  0  0
  3  2  1  0  0  0  0
  4  3  1  0  0  0  0
  5  4  1  0  0  0  0
  5  6  1  0  0  0  0
  5 13  1  0  0  0  0
  6 15  1  6  0  0  0
  6  1  1  0  0  0  0
 11  4  1  0  0  0  0
 12  4  1  0  0  0  0
 14  5  1  0  0  0  0
 16 18  1  0  0  0  0
 16 19  1  0  0  0  0
 17 16  1  0  0  0  0
 19 21  1  0  0  0  0
 19 20  1  0  0  0  0
 22 28  1  0  0  0  0
 22 23  1  0  0  0  0
 23 29  1  0  0  0  0
 24 23  2  0  0  0  0
 24 19  1  0  0  0  0
 25 24  1  0  0  0  0
 26 27  1  0  0  0  0
 26 25  2  0  0  0  0
 27 22  2  0  0  0  0
 30 26  1  0  0  0  0
 31  6  1  0  0  0  0
 33 32  2  6  0  0  0
 33 36  1  0  0  0  0
 33 31  1  0  0  0  0
 34 35  1  0  0  0  0
 34 33  1  0  0  0  0
 36 40  1  0  0  0  0
 38 37  1  0  0  0  0
 39 38  1  0  0  0  0
 40 39  2  0  0  0  0
 41 43  1  0  0  0  0
 41 40  1  0  0  0  0
 42 41  2  0  0  0  0
 43 44  1  0  0  0  0
 44 45  2  0  0  0  0
 44 38  1  0  0  0  0
 46 43  1  0  0  0  0
M  END
>  <minimizedAffinity>
-5.81273651

$$$$

 OpenBabel03252509023D

 46 48  0  0  1  0  0  0  0  0999 V2000
   37.1240   29.1920   42.0130 N   0  0  0  0  0  0  0  0  0  0  0  0
   36.3900   27.9720   42.0600 C   0  0  0  0  0  0  0  0  0  0  0  0
   37.2200   26.7160   42.0210 C   0  0  0  0  0  0  0  0  0  0  0  0
   38.5730   26.8360   42.6590 C   0  0  0  0  0  0  0  0  0  0  0  0
   38.7480   28.1780   43.3320 C   0  0  0  0  0  0  0  0  0  0  0  0
   38.5010   29.1930   42.1570 C   0  0  2  0  0  0  0  0  0  0  0  0
   35.8660   27.9760   43.0540 H   0  0  0  0  0  0  0  0  0  0  0  0
   35.5900   27.8670   41.3240 H   0  0  0  0  0  0  0  0  0  0  0  0
   37.2870   26.3170   40.9820 H   0  0  0  0  0  0  0  0  0  0  0  0
   36.6860   25.9220   42.5960 H   0  0  0  0  0  0  0  0  0  0  0  0
   39.3240   26.7940   41.8330 H   0  0  0  0  0  0  0  0  0  0  0  0
   38.8310   25.9780   43.3220 H   0  0  0  0  0  0  0  0  0  0  0  0
   37.9740   28.3190   44.0920 H   0  0  0  0  0  0  0  0  0  0  0  0
   39.7770   28.2840   43.6960 H   0  0  0  0  0  0  0  0  0  0  0  0
   39.1030   28.8540   41.3000 H   0  0  0  0  0  0  0  0  0  0  0  0
   36.5100   30.2200   41.2260 C   0  0  0  0  0  0  0  0  0  0  0  0
   36.0730   30.9700   41.8980 H   0  0  0  0  0  0  0  0  0  0  0  0
   37.2970   30.6990   40.6030 H   0  0  0  0  0  0  0  0  0  0  0  0
   35.5020   29.5920   40.3130 C   0  0  0  0  0  0  0  0  0  0  0  0
   35.3420   28.5290   40.5350 H   0  0  0  0  0  0  0  0  0  0  0  0
   34.5150   30.0870   40.4100 H   0  0  0  0  0  0  0  0  0  0  0  0
   37.4460   30.7240   37.2980 C   0  0  0  0  0  0  0  0  0  0  0  0
   37.0210   30.5770   38.6380 C   0  0  0  0  0  0  0  0  0  0  0  0
   35.9520   29.7490   38.9050 C   0  0  0  0  0  0  0  0  0  0  0  0
   35.3610   29.1160   37.8720 N   0  0  0  0  0  0  0  0  0  0  0  0
   35.7890   29.2770   36.6040 C   0  0  0  0  0  0  0  0  0  0  0  0
   36.8230   30.0720   36.3020 N   0  0  0  0  0  0  0  0  0  0  0  0
   38.2850   31.3850   37.1550 H   0  0  0  0  0  0  0  0  0  0  0  0
   37.5000   31.0890   39.4710 H   0  0  0  0  0  0  0  0  0  0  0  0
   35.3190   28.7710   35.7690 H   0  0  0  0  0  0  0  0  0  0  0  0
   38.9490   30.3860   42.7280 O   0  0  0  0  0  0  0  0  0  0  0  0
   40.9850   29.9690   41.0670 O   0  0  0  0  0  0  0  0  0  0  0  0
   40.2790   31.0290   41.9090 P   0  0  2  0  0  0  0  0  0  0  0  0
   41.3960   31.4870   43.1220 O   0  0  0  0  0  0  0  0  0  0  0  0
   40.9410   32.0360   43.8040 H   0  0  0  0  0  0  0  0  0  0  0  0
   39.8760   32.3900   41.0470 O   0  0  0  0  0  0  0  0  0  0  0  0
   40.5440   33.0240   36.7370 H   0  0  0  0  0  0  0  0  0  0  0  0
   40.8820   33.1670   37.7220 N   0  0  0  0  0  0  0  0  0  0  0  0
   40.2090   32.7110   38.8170 C   0  0  0  0  0  3  0  0  0  0  0  0
   40.7230   32.9400   40.0980 C   0  0  0  0  0  0  0  0  0  0  0  0
   41.9080   33.6290   40.1990 C   0  0  0  0  0  0  0  0  0  0  0  0
   42.2630   33.7700   41.3960 O   0  0  0  0  0  0  0  0  0  0  0  0
   42.5230   34.0520   39.0930 N   0  0  0  0  0  0  0  0  0  0  0  0
   42.0360   33.8350   37.8640 C   0  0  0  0  0  0  0  0  0  0  0  0
   42.7460   34.3030   36.9440 O   0  0  0  0  0  0  0  0  0  0  0  0
   43.4240   34.5690   39.2910 H   0  0  0  0  0  0  0  0  0  0  0  0
  1  2  1  0  0  0  0
  1  6  1  0  0  0  0
  2  7  1  0  0  0  0
  3  2  1  0  0  0  0
  3 10  1  0  0  0  0
  3  4  1  0  0  0  0
  4 12  1  0  0  0  0
  4  5  1  0  0  0  0
  5 14  1  0  0  0  0
  5 13  1  0  0  0  0
  6 15  1  6  0  0  0
  6 31  1  0  0  0  0
  6  5  1  0  0  0  0
  8  2  1  0  0  0  0
  9  3  1  0  0  0  0
 11  4  1  0  0  0  0
 16 17  1  0  0  0  0
 16  1  1  0  0  0  0
 18 16  1  0  0  0  0
 19 21  1  0  0  0  0
 19 20  1  0  0  0  0
 19 16  1  0  0  0  0
 22 23  1  0  0  0  0
 23 24  2  0  0  0  0
 23 29  1  0  0  0  0
 24 19  1  0  0  0  0
 25 24  1  0  0  0  0
 26 25  2  0  0  0  0
 27 26  1  0  0  0  0
 27 22  2  0  0  0  0
 28 22  1  0  0  0  0
 30 26  1  0  0  0  0
 33 32  2  6  0  0  0
 33 31  1  0  0  0  0
 33 34  1  0  0  0  0
 34 35  1  0  0  0  0
 36 33  1  0  0  0  0
 37 38  1  0  0  0  0
 38 44  1  0  0  0  0
 38 39  1  0  0  0  0
 39 40  2  0  0  0  0
 40 41  1  0  0  0  0
 40 36  1  0  0  0  0
 41 42  2  0  0  0  0
 43 46  1  0  0  0  0
 43 41  1  0  0  0  0
 44 43  1  0  0  0  0
 45 44  2  0  0  0  0
M  END
>  <minimizedAffinity>
-5.77867413

$$$$

 OpenBabel03252509023D

 46 48  0  0  1  0  0  0  0  0999 V2000
   38.0540   27.9050   42.9540 N   0  0  0  0  0  0  0  0  0  0  0  0
   39.1850   27.3330   43.6070 C   0  0  0  0  0  0  0  0  0  0  0  0
   40.5260   27.7870   43.0940 C   0  0  0  0  0  0  0  0  0  0  0  0
   40.5560   29.1940   42.5730 C   0  0  0  0  0  0  0  0  0  0  0  0
   39.2420   29.9000   42.8130 C   0  0  0  0  0  0  0  0  0  0  0  0
   38.2070   28.9670   42.0800 C   0  0  2  0  0  0  0  0  0  0  0  0
   39.1200   27.6760   44.6740 H   0  0  0  0  0  0  0  0  0  0  0  0
   39.2010   26.2430   43.6650 H   0  0  0  0  0  0  0  0  0  0  0  0
   40.9320   27.0630   42.3500 H   0  0  0  0  0  0  0  0  0  0  0  0
   41.2540   27.7630   43.9390 H   0  0  0  0  0  0  0  0  0  0  0  0
   40.6840   29.1260   41.4660 H   0  0  0  0  0  0  0  0  0  0  0  0
   41.4370   29.7810   42.9270 H   0  0  0  0  0  0  0  0  0  0  0  0
   39.0130   29.9110   43.8820 H   0  0  0  0  0  0  0  0  0  0  0  0
   39.2500   30.8850   42.3310 H   0  0  0  0  0  0  0  0  0  0  0  0
   38.6140   28.7510   41.0810 H   0  0  0  0  0  0  0  0  0  0  0  0
   36.9660   26.9950   42.7530 C   0  0  0  0  0  0  0  0  0  0  0  0
   36.4000   26.9060   43.6890 H   0  0  0  0  0  0  0  0  0  0  0  0
   36.3050   27.4120   41.9620 H   0  0  0  0  0  0  0  0  0  0  0  0
   37.5130   25.6870   42.2710 C   0  0  0  0  0  0  0  0  0  0  0  0
   38.6070   25.7000   42.1770 H   0  0  0  0  0  0  0  0  0  0  0  0
   37.2670   24.8690   42.9780 H   0  0  0  0  0  0  0  0  0  0  0  0
   35.8900   23.7500   39.4850 C   0  0  0  0  0  0  0  0  0  0  0  0
   36.4720   24.0630   40.7340 C   0  0  0  0  0  0  0  0  0  0  0  0
   36.9000   25.3530   40.9590 C   0  0  0  0  0  0  0  0  0  0  0  0
   36.7430   26.2600   39.9730 N   0  0  0  0  0  0  0  0  0  0  0  0
   36.1830   25.9300   38.7910 C   0  0  0  0  0  0  0  0  0  0  0  0
   35.7550   24.6890   38.5330 N   0  0  0  0  0  0  0  0  0  0  0  0
   35.5770   22.7250   39.3710 H   0  0  0  0  0  0  0  0  0  0  0  0
   36.5990   23.3300   41.5290 H   0  0  0  0  0  0  0  0  0  0  0  0
   36.0530   26.6530   37.9950 H   0  0  0  0  0  0  0  0  0  0  0  0
   37.0720   29.7790   42.0670 O   0  0  0  0  0  0  0  0  0  0  0  0
   35.1040   29.5580   40.2890 O   0  0  0  0  0  0  0  0  0  0  0  0
   36.5210   30.0850   40.4990 P   0  0  2  0  0  0  0  0  0  0  0  0
   37.5250   29.1620   39.4640 O   0  0  0  0  0  0  0  0  0  0  0  0
   38.4720   29.3310   39.6810 H   0  0  0  0  0  0  0  0  0  0  0  0
   36.6940   31.6840   40.0830 O   0  0  0  0  0  0  0  0  0  0  0  0
   40.1130   34.0070   41.6140 H   0  0  0  0  0  0  0  0  0  0  0  0
   39.6680   33.5030   40.8060 N   0  0  0  0  0  0  0  0  0  0  0  0
   38.4540   32.8850   40.8860 C   0  0  0  0  0  3  0  0  0  0  0  0
   37.9250   32.2340   39.7660 C   0  0  0  0  0  0  0  0  0  0  0  0
   38.6660   32.2470   38.6090 C   0  0  0  0  0  0  0  0  0  0  0  0
   38.0870   31.6320   37.6790 O   0  0  0  0  0  0  0  0  0  0  0  0
   39.8480   32.8680   38.5870 N   0  0  0  0  0  0  0  0  0  0  0  0
   40.3590   33.4920   39.6560 C   0  0  0  0  0  0  0  0  0  0  0  0
   41.4770   34.0190   39.4530 O   0  0  0  0  0  0  0  0  0  0  0  0
   40.3280   32.8130   37.6460 H   0  0  0  0  0  0  0  0  0  0  0  0
  1  2  1  0  0  0  0
  2  8  1  0  0  0  0
  2  7  1  0  0  0  0
  3  2  1  0  0  0  0
  3 10  1  0  0  0  0
  4  5  1  0  0  0  0
  4 12  1  0  0  0  0
  4  3  1  0  0  0  0
  5 13  1  0  0  0  0
  6 15  1  6  0  0  0
  6  5  1  0  0  0  0
  6  1  1  0  0  0  0
  9  3  1  0  0  0  0
 11  4  1  0  0  0  0
 14  5  1  0  0  0  0
 16  1  1  0  0  0  0
 16 17  1  0  0  0  0
 18 16  1  0  0  0  0
 19 16  1  0  0  0  0
 19 21  1  0  0  0  0
 20 19  1  0  0  0  0
 22 23  1  0  0  0  0
 23 24  2  0  0  0  0
 23 29  1  0  0  0  0
 24 19  1  0  0  0  0
 25 24  1  0  0  0  0
 26 25  2  0  0  0  0
 27 26  1  0  0  0  0
 27 22  2  0  0  0  0
 28 22  1  0  0  0  0
 30 26  1  0  0  0  0
 31  6  1  0  0  0  0
 33 32  2  6  0  0  0
 33 31  1  0  0  0  0
 34 35  1  0  0  0  0
 34 33  1  0  0  0  0
 36 33  1  0  0  0  0
 38 39  1  0  0  0  0
 38 37  1  0  0  0  0
 40 36  1  0  0  0  0
 40 39  2  0  0  0  0
 41 40  1  0  0  0  0
 42 41  2  0  0  0  0
 43 41  1  0  0  0  0
 43 44  1  0  0  0  0
 44 38  1  0  0  0  0
 45 44  2  0  0  0  0
 46 43  1  0  0  0  0
M  END
>  <minimizedAffinity>
-5.66792536

$$$$

 OpenBabel03252509023D

 46 48  0  0  1  0  0  0  0  0999 V2000
   36.5630   26.0590   40.1380 N   0  0  0  0  0  0  0  0  0  0  0  0
   36.5480   24.8160   39.4410 C   0  0  0  0  0  0  0  0  0  0  0  0
   37.5820   23.8130   39.8840 C   0  0  0  0  0  0  0  0  0  0  0  0
   37.9460   23.8870   41.3380 C   0  0  0  0  0  0  0  0  0  0  0  0
   37.0770   24.8800   42.0750 C   0  0  0  0  0  0  0  0  0  0  0  0
   37.3240   26.2160   41.2830 C   0  0  2  0  0  0  0  0  0  0  0  0
   35.5460   24.3590   39.6650 H   0  0  0  0  0  0  0  0  0  0  0  0
   36.5890   24.8780   38.3520 H   0  0  0  0  0  0  0  0  0  0  0  0
   38.4820   23.8570   39.2290 H   0  0  0  0  0  0  0  0  0  0  0  0
   37.1680   22.7880   39.7300 H   0  0  0  0  0  0  0  0  0  0  0  0
   38.9910   24.2800   41.3890 H   0  0  0  0  0  0  0  0  0  0  0  0
   37.9910   22.8910   41.8370 H   0  0  0  0  0  0  0  0  0  0  0  0
   36.0240   24.5990   41.9780 H   0  0  0  0  0  0  0  0  0  0  0  0
   37.4310   24.9950   43.1070 H   0  0  0  0  0  0  0  0  0  0  0  0
   38.4120   26.3260   41.1610 H   0  0  0  0  0  0  0  0  0  0  0  0
   36.3130   27.2020   39.3110 C   0  0  0  0  0  0  0  0  0  0  0  0
   35.2490   27.2230   39.0460 H   0  0  0  0  0  0  0  0  0  0  0  0
   36.5650   28.1150   39.8930 H   0  0  0  0  0  0  0  0  0  0  0  0
   37.2150   27.1400   38.1160 C   0  0  0  0  0  0  0  0  0  0  0  0
   38.0190   26.4020   38.2370 H   0  0  0  0  0  0  0  0  0  0  0  0
   36.6510   26.8460   37.2080 H   0  0  0  0  0  0  0  0  0  0  0  0
   37.5310   30.7790   37.2200 C   0  0  0  0  0  0  0  0  0  0  0  0
   36.9720   29.5020   37.4500 C   0  0  0  0  0  0  0  0  0  0  0  0
   37.7990   28.4850   37.8740 C   0  0  0  0  0  0  0  0  0  0  0  0
   39.1080   28.7570   38.0500 N   0  0  0  0  0  0  0  0  0  0  0  0
   39.6120   29.9870   37.8220 C   0  0  0  0  0  0  0  0  0  0  0  0
   38.8430   31.0010   37.4100 N   0  0  0  0  0  0  0  0  0  0  0  0
   36.8320   31.5310   36.8910 H   0  0  0  0  0  0  0  0  0  0  0  0
   35.9140   29.2840   37.3070 H   0  0  0  0  0  0  0  0  0  0  0  0
   40.6620   30.2130   37.9620 H   0  0  0  0  0  0  0  0  0  0  0  0
   36.7520   27.1530   42.1460 O   0  0  0  0  0  0  0  0  0  0  0  0
   38.9170   27.8060   43.5480 O   0  0  0  0  0  0  0  0  0  0  0  0
   37.8480   28.3540   42.6050 P   0  0  2  0  0  0  0  0  0  0  0  0
   36.9450   29.4820   43.5220 O   0  0  0  0  0  0  0  0  0  0  0  0
   36.1320   29.7400   43.0270 H   0  0  0  0  0  0  0  0  0  0  0  0
   38.4790   29.1520   41.2920 O   0  0  0  0  0  0  0  0  0  0  0  0
   40.5240   33.0560   41.3310 H   0  0  0  0  0  0  0  0  0  0  0  0
   39.6320   32.5180   41.1910 N   0  0  0  0  0  0  0  0  0  0  0  0
   39.5470   31.1630   41.3150 C   0  0  0  0  0  3  0  0  0  0  0  0
   38.3230   30.5170   41.1140 C   0  0  0  0  0  0  0  0  0  0  0  0
   37.2350   31.2930   40.7930 C   0  0  0  0  0  0  0  0  0  0  0  0
   36.1990   30.6000   40.6390 O   0  0  0  0  0  0  0  0  0  0  0  0
   37.3750   32.6170   40.6850 N   0  0  0  0  0  0  0  0  0  0  0  0
   38.5450   33.2390   40.8770 C   0  0  0  0  0  0  0  0  0  0  0  0
   38.4900   34.4820   40.7330 O   0  0  0  0  0  0  0  0  0  0  0  0
   36.4740   33.1100   40.4350 H   0  0  0  0  0  0  0  0  0  0  0  0
  1  6  1  0  0  0  0
  2  7  1  0  0  0  0
  2  3  1  0  0  0  0
  2  1  1  0  0  0  0
  3  4  1  0  0  0  0
  4 11  1  0  0  0  0
  4 12  1  0  0  0  0
  4  5  1  0  0  0  0
  5 14  1  0  0  0  0
  6 15  1  6  0  0  0
  6  5  1  0  0  0  0
  6 31  1  0  0  0  0
  8  2  1  0  0  0  0
  9  3  1  0  0  0  0
 10  3  1  0  0  0  0
 13  5  1  0  0  0  0
 16 18  1  0  0  0  0
 16  1  1  0  0  0  0
 17 16  1  0  0  0  0
 19 20  1  0  0  0  0
 19 16  1  0  0  0  0
 21 19  1  0  0  0  0
 22 27  2  0  0  0  0
 22 23  1  0  0  0  0
 23 24  2  0  0  0  0
 24 25  1  0  0  0  0
 24 19  1  0  0  0  0
 26 30  1  0  0  0  0
 26 25  2  0  0  0  0
 27 26  1  0  0  0  0
 28 22  1  0  0  0  0
 29 23  1  0  0  0  0
 31 33  1  0  0  0  0
 33 34  1  0  0  0  0
 33 32  2  1  0  0  0
 35 34  1  0  0  0  0
 36 33  1  0  0  0  0
 38 39  1  0  0  0  0
 38 37  1  0  0  0  0
 40 36  1  0  0  0  0
 40 39  2  0  0  0  0
 41 40  1  0  0  0  0
 42 41  2  0  0  0  0
 43 41  1  0  0  0  0
 43 44  1  0  0  0  0
 44 38  1  0  0  0  0
 45 44  2  0  0  0  0
 46 43  1  0  0  0  0
M  END
>  <minimizedAffinity>
-5.63335133

$$$$

 OpenBabel03252509023D

 46 48  0  0  1  0  0  0  0  0999 V2000
   37.0020   26.6620   41.7940 N   0  0  0  0  0  0  0  0  0  0  0  0
   37.1880   25.3060   42.1940 C   0  0  0  0  0  0  0  0  0  0  0  0
   36.7070   24.2710   41.2110 C   0  0  0  0  0  0  0  0  0  0  0  0
   36.8030   24.6790   39.7700 C   0  0  0  0  0  0  0  0  0  0  0  0
   37.5020   26.0090   39.6190 C   0  0  0  0  0  0  0  0  0  0  0  0
   36.6210   26.9690   40.5000 C   0  0  2  0  0  0  0  0  0  0  0  0
   38.3000   25.1700   42.2800 H   0  0  0  0  0  0  0  0  0  0  0  0
   36.7980   25.0410   43.1780 H   0  0  0  0  0  0  0  0  0  0  0  0
   35.6820   23.9210   41.4750 H   0  0  0  0  0  0  0  0  0  0  0  0
   37.3510   23.3640   41.3110 H   0  0  0  0  0  0  0  0  0  0  0  0
   35.7570   24.8250   39.4060 H   0  0  0  0  0  0  0  0  0  0  0  0
   37.2260   23.8850   39.1100 H   0  0  0  0  0  0  0  0  0  0  0  0
   38.5060   25.9550   40.0490 H   0  0  0  0  0  0  0  0  0  0  0  0
   37.4650   26.3370   38.5730 H   0  0  0  0  0  0  0  0  0  0  0  0
   35.5700   26.7940   40.2220 H   0  0  0  0  0  0  0  0  0  0  0  0
   36.6170   27.5420   42.8570 C   0  0  0  0  0  0  0  0  0  0  0  0
   36.3260   28.5100   42.4300 H   0  0  0  0  0  0  0  0  0  0  0  0
   35.7440   27.0940   43.3810 H   0  0  0  0  0  0  0  0  0  0  0  0
   37.7490   27.6470   43.8310 C   0  0  0  0  0  0  0  0  0  0  0  0
   37.4420   28.1020   44.7820 H   0  0  0  0  0  0  0  0  0  0  0  0
   38.1550   26.6450   44.0780 H   0  0  0  0  0  0  0  0  0  0  0  0
   39.6390   30.5020   42.2740 C   0  0  0  0  0  0  0  0  0  0  0  0
   38.5940   29.7470   42.8520 C   0  0  0  0  0  0  0  0  0  0  0  0
   38.8460   28.4440   43.2230 C   0  0  0  0  0  0  0  0  0  0  0  0
   40.0840   27.9490   43.0170 N   0  0  0  0  0  0  0  0  0  0  0  0
   41.0610   28.6950   42.4630 C   0  0  0  0  0  0  0  0  0  0  0  0
   40.8560   29.9630   42.0880 N   0  0  0  0  0  0  0  0  0  0  0  0
   39.3780   31.5120   42.0060 H   0  0  0  0  0  0  0  0  0  0  0  0
   37.5950   30.1480   43.0190 H   0  0  0  0  0  0  0  0  0  0  0  0
   42.0570   28.3040   42.2940 H   0  0  0  0  0  0  0  0  0  0  0  0
   37.1080   28.2190   40.1120 O   0  0  0  0  0  0  0  0  0  0  0  0
   36.5090   30.4730   38.8320 O   0  0  0  0  0  0  0  0  0  0  0  0
   36.0040   29.0690   39.1570 P   0  0  2  0  0  0  0  0  0  0  0  0
   34.6130   29.2830   40.1310 O   0  0  0  0  0  0  0  0  0  0  0  0
   34.3430   28.4180   40.5210 H   0  0  0  0  0  0  0  0  0  0  0  0
   35.5560   28.2060   37.8110 O   0  0  0  0  0  0  0  0  0  0  0  0
   34.4950   30.1420   33.9960 H   0  0  0  0  0  0  0  0  0  0  0  0
   35.2150   29.6320   34.5670 N   0  0  0  0  0  0  0  0  0  0  0  0
   34.9960   29.2090   35.8450 C   0  0  0  0  0  3  0  0  0  0  0  0
   36.0040   28.5340   36.5420 C   0  0  0  0  0  0  0  0  0  0  0  0
   37.1980   28.3230   35.8940 C   0  0  0  0  0  0  0  0  0  0  0  0
   38.0190   27.7100   36.6210 O   0  0  0  0  0  0  0  0  0  0  0  0
   37.3580   28.7580   34.6420 N   0  0  0  0  0  0  0  0  0  0  0  0
   36.3950   29.4040   33.9710 C   0  0  0  0  0  0  0  0  0  0  0  0
   36.7210   29.7390   32.8090 O   0  0  0  0  0  0  0  0  0  0  0  0
   38.3130   28.5400   34.2460 H   0  0  0  0  0  0  0  0  0  0  0  0
  1  2  1  0  0  0  0
  1 16  1  0  0  0  0
  2  7  1  0  0  0  0
  2  8  1  0  0  0  0
  3 10  1  0  0  0  0
  3  9  1  0  0  0  0
  3  2  1  0  0  0  0
  4  3  1  0  0  0  0
  5  4  1  0  0  0  0
  5 13  1  0  0  0  0
  5  6  1  0  0  0  0
  6 15  1  6  0  0  0
  6  1  1  0  0  0  0
 11  4  1  0  0  0  0
 12  4  1  0  0  0  0
 14  5  1  0  0  0  0
 16 18  1  0  0  0  0
 16 19  1  0  0  0  0
 17 16  1  0  0  0  0
 19 21  1  0  0  0  0
 19 20  1  0  0  0  0
 22 23  1  0  0  0  0
 23 29  1  0  0  0  0
 23 24  2  0  0  0  0
 24 19  1  0  0  0  0
 25 24  1  0  0  0  0
 26 25  2  0  0  0  0
 27 22  2  0  0  0  0
 27 26  1  0  0  0  0
 28 22  1  0  0  0  0
 30 26  1  0  0  0  0
 31  6  1  0  0  0  0
 33 32  2  6  0  0  0
 33 31  1  0  0  0  0
 33 34  1  0  0  0  0
 34 35  1  0  0  0  0
 36 33  1  0  0  0  0
 37 38  1  0  0  0  0
 38 39  1  0  0  0  0
 39 40  2  0  0  0  0
 40 36  1  0  0  0  0
 41 40  1  0  0  0  0
 41 42  2  0  0  0  0
 43 41  1  0  0  0  0
 44 38  1  0  0  0  0
 44 43  1  0  0  0  0
 45 44  2  0  0  0  0
 46 43  1  0  0  0  0
M  END
>  <minimizedAffinity>
-5.57531452

$$$$

 OpenBabel03252509023D

 46 48  0  0  1  0  0  0  0  0999 V2000
   37.1310   29.1220   40.0210 N   0  0  0  0  0  0  0  0  0  0  0  0
   36.1980   28.1450   39.5670 C   0  0  0  0  0  0  0  0  0  0  0  0
   35.2330   28.6130   38.5090 C   0  0  0  0  0  0  0  0  0  0  0  0
   35.7780   29.6610   37.5820 C   0  0  0  0  0  0  0  0  0  0  0  0
   37.2450   29.9150   37.8380 C   0  0  0  0  0  0  0  0  0  0  0  0
   37.2690   30.3280   39.3560 C   0  0  2  0  0  0  0  0  0  0  0  0
   36.8180   27.3350   39.0960 H   0  0  0  0  0  0  0  0  0  0  0  0
   35.6220   27.6380   40.3430 H   0  0  0  0  0  0  0  0  0  0  0  0
   34.2670   28.9280   38.9650 H   0  0  0  0  0  0  0  0  0  0  0  0
   34.9720   27.7440   37.8600 H   0  0  0  0  0  0  0  0  0  0  0  0
   35.2430   30.6120   37.8210 H   0  0  0  0  0  0  0  0  0  0  0  0
   35.5490   29.4670   36.5080 H   0  0  0  0  0  0  0  0  0  0  0  0
   37.8130   28.9880   37.7130 H   0  0  0  0  0  0  0  0  0  0  0  0
   37.5930   30.7560   37.2260 H   0  0  0  0  0  0  0  0  0  0  0  0
   36.4810   31.0830   39.5010 H   0  0  0  0  0  0  0  0  0  0  0  0
   37.3990   29.0720   41.4270 C   0  0  0  0  0  0  0  0  0  0  0  0
   38.4340   29.3910   41.6030 H   0  0  0  0  0  0  0  0  0  0  0  0
   36.7060   29.7750   41.9390 H   0  0  0  0  0  0  0  0  0  0  0  0
   37.1190   27.6870   41.9240 C   0  0  0  0  0  0  0  0  0  0  0  0
   36.3030   27.6640   42.6580 H   0  0  0  0  0  0  0  0  0  0  0  0
   36.8150   27.0210   41.0920 H   0  0  0  0  0  0  0  0  0  0  0  0
   39.6520   25.2250   43.2150 C   0  0  0  0  0  0  0  0  0  0  0  0
   38.4770   25.7560   42.6400 C   0  0  0  0  0  0  0  0  0  0  0  0
   38.3550   27.1240   42.5280 C   0  0  0  0  0  0  0  0  0  0  0  0
   39.3680   27.8940   42.9750 N   0  0  0  0  0  0  0  0  0  0  0  0
   40.4780   27.3570   43.5200 C   0  0  0  0  0  0  0  0  0  0  0  0
   40.6350   26.0340   43.6470 N   0  0  0  0  0  0  0  0  0  0  0  0
   39.6860   24.1490   43.2730 H   0  0  0  0  0  0  0  0  0  0  0  0
   37.6590   25.1330   42.2790 H   0  0  0  0  0  0  0  0  0  0  0  0
   41.2950   27.9690   43.8810 H   0  0  0  0  0  0  0  0  0  0  0  0
   38.5650   30.8290   39.4820 O   0  0  0  0  0  0  0  0  0  0  0  0
   39.2540   32.2390   41.6300 O   0  0  0  0  0  0  0  0  0  0  0  0
   38.5990   32.3310   40.2540 P   0  0  2  0  0  0  0  0  0  0  0  0
   36.9630   32.7470   40.5370 O   0  0  0  0  0  0  0  0  0  0  0  0
   36.4450   32.6480   39.7040 H   0  0  0  0  0  0  0  0  0  0  0  0
   39.2650   33.5090   39.2900 O   0  0  0  0  0  0  0  0  0  0  0  0
   43.1810   35.1340   40.4910 H   0  0  0  0  0  0  0  0  0  0  0  0
   42.6310   34.5360   39.8250 N   0  0  0  0  0  0  0  0  0  0  0  0
   41.2820   34.3550   39.9210 C   0  0  0  0  0  3  0  0  0  0  0  0
   40.6180   33.5430   38.9950 C   0  0  0  0  0  0  0  0  0  0  0  0
   41.3690   32.9500   38.0090 C   0  0  0  0  0  0  0  0  0  0  0  0
   40.6610   32.2490   37.2440 O   0  0  0  0  0  0  0  0  0  0  0  0
   42.6860   33.1620   37.9630 N   0  0  0  0  0  0  0  0  0  0  0  0
   43.3270   33.9390   38.8460 C   0  0  0  0  0  0  0  0  0  0  0  0
   44.5610   34.0230   38.6490 O   0  0  0  0  0  0  0  0  0  0  0  0
   43.1600   32.6570   37.1640 H   0  0  0  0  0  0  0  0  0  0  0  0
  1 16  1  0  0  0  0
  2  1  1  0  0  0  0
  2  8  1  0  0  0  0
  3  9  1  0  0  0  0
  3  2  1  0  0  0  0
  4 11  1  0  0  0  0
  4  5  1  0  0  0  0
  4  3  1  0  0  0  0
  5  6  1  0  0  0  0
  6 31  1  0  0  0  0
  6 15  1  1  0  0  0
  6  1  1  0  0  0  0
  7  2  1  0  0  0  0
 10  3  1  0  0  0  0
 12  4  1  0  0  0  0
 13  5  1  0  0  0  0
 14  5  1  0  0  0  0
 16 17  1  0  0  0  0
 16 19  1  0  0  0  0
 16 18  1  0  0  0  0
 19 24  1  0  0  0  0
 19 20  1  0  0  0  0
 21 19  1  0  0  0  0
 22 28  1  0  0  0  0
 22 27  1  0  0  0  0
 23 22  2  0  0  0  0
 24 23  1  0  0  0  0
 24 25  2  0  0  0  0
 25 26  1  0  0  0  0
 26 27  2  0  0  0  0
 26 30  1  0  0  0  0
 29 23  1  0  0  0  0
 31 33  1  0  0  0  0
 33 34  1  0  0  0  0
 33 32  2  1  0  0  0
 35 34  1  0  0  0  0
 36 33  1  0  0  0  0
 38 39  1  0  0  0  0
 38 37  1  0  0  0  0
 40 36  1  0  0  0  0
 40 39  2  0  0  0  0
 41 40  1  0  0  0  0
 42 41  2  0  0  0  0
 43 41  1  0  0  0  0
 43 44  1  0  0  0  0
 44 38  1  0  0  0  0
 45 44  2  0  0  0  0
 46 43  1  0  0  0  0
M  END
>  <minimizedAffinity>
-5.55001736

$$$$

 OpenBabel03252509023D

 46 48  0  0  1  0  0  0  0  0999 V2000
   37.6690   27.0010   40.1100 N   0  0  0  0  0  0  0  0  0  0  0  0
   37.7530   25.7470   40.7820 C   0  0  0  0  0  0  0  0  0  0  0  0
   37.8410   25.8220   42.2840 C   0  0  0  0  0  0  0  0  0  0  0  0
   37.1250   26.9890   42.8980 C   0  0  0  0  0  0  0  0  0  0  0  0
   36.3450   27.7650   41.8620 C   0  0  0  0  0  0  0  0  0  0  0  0
   37.4530   28.1690   40.8210 C   0  0  2  0  0  0  0  0  0  0  0  0
   36.7900   25.2170   40.5460 H   0  0  0  0  0  0  0  0  0  0  0  0
   38.5350   25.0710   40.4340 H   0  0  0  0  0  0  0  0  0  0  0  0
   38.9020   25.7640   42.6210 H   0  0  0  0  0  0  0  0  0  0  0  0
   37.3560   24.9130   42.7120 H   0  0  0  0  0  0  0  0  0  0  0  0
   37.9100   27.6800   43.2890 H   0  0  0  0  0  0  0  0  0  0  0  0
   36.5140   26.7170   43.7910 H   0  0  0  0  0  0  0  0  0  0  0  0
   35.6190   27.1100   41.3720 H   0  0  0  0  0  0  0  0  0  0  0  0
   35.9190   28.6700   42.3120 H   0  0  0  0  0  0  0  0  0  0  0  0
   38.2990   28.5840   41.3900 H   0  0  0  0  0  0  0  0  0  0  0  0
   38.4090   27.0640   38.8850 C   0  0  0  0  0  0  0  0  0  0  0  0
   38.6040   28.1160   38.6410 H   0  0  0  0  0  0  0  0  0  0  0  0
   39.3760   26.5360   39.0350 H   0  0  0  0  0  0  0  0  0  0  0  0
   37.6390   26.3470   37.8190 C   0  0  0  0  0  0  0  0  0  0  0  0
   38.2830   25.7170   37.1910 H   0  0  0  0  0  0  0  0  0  0  0  0
   36.8770   25.6750   38.2630 H   0  0  0  0  0  0  0  0  0  0  0  0
   36.9270   28.8630   35.1160 C   0  0  0  0  0  0  0  0  0  0  0  0
   37.6040   27.9170   35.9170 C   0  0  0  0  0  0  0  0  0  0  0  0
   36.9300   27.3420   36.9730 C   0  0  0  0  0  0  0  0  0  0  0  0
   35.6520   27.7100   37.1920 N   0  0  0  0  0  0  0  0  0  0  0  0
   35.0320   28.6160   36.4080 C   0  0  0  0  0  0  0  0  0  0  0  0
   35.6510   29.1980   35.3740 N   0  0  0  0  0  0  0  0  0  0  0  0
   37.5070   29.2760   34.3070 H   0  0  0  0  0  0  0  0  0  0  0  0
   38.6370   27.6200   35.7390 H   0  0  0  0  0  0  0  0  0  0  0  0
   34.0050   28.9170   36.5780 H   0  0  0  0  0  0  0  0  0  0  0  0
   36.7710   29.1120   40.0500 O   0  0  0  0  0  0  0  0  0  0  0  0
   38.1370   30.7580   41.6310 O   0  0  0  0  0  0  0  0  0  0  0  0
   37.0040   30.6880   40.6100 P   0  0  2  0  0  0  0  0  0  0  0  0
   35.5760   31.0960   41.4610 O   0  0  0  0  0  0  0  0  0  0  0  0
   34.7880   30.8980   40.9040 H   0  0  0  0  0  0  0  0  0  0  0  0
   37.1800   31.7700   39.3620 O   0  0  0  0  0  0  0  0  0  0  0  0
   40.2510   30.8930   36.3250 H   0  0  0  0  0  0  0  0  0  0  0  0
   39.9470   31.4810   37.1410 N   0  0  0  0  0  0  0  0  0  0  0  0
   38.7590   31.3070   37.7880 C   0  0  0  0  0  3  0  0  0  0  0  0
   38.4230   32.1300   38.8680 C   0  0  0  0  0  0  0  0  0  0  0  0
   39.3230   33.1000   39.2380 C   0  0  0  0  0  0  0  0  0  0  0  0
   38.9090   33.7710   40.2150 O   0  0  0  0  0  0  0  0  0  0  0  0
   40.4720   33.2270   38.5680 N   0  0  0  0  0  0  0  0  0  0  0  0
   40.7980   32.4400   37.5350 C   0  0  0  0  0  0  0  0  0  0  0  0
   41.9130   32.7020   37.0270 O   0  0  0  0  0  0  0  0  0  0  0  0
   41.0850   34.0030   38.9400 H   0  0  0  0  0  0  0  0  0  0  0  0
  1  2  1  0  0  0  0
  1  6  1  0  0  0  0
  2  3  1  0  0  0  0
  3  9  1  0  0  0  0
  3 10  1  0  0  0  0
  3  4  1  0  0  0  0
  4 11  1  0  0  0  0
  4 12  1  0  0  0  0
  5 14  1  0  0  0  0
  5  4  1  0  0  0  0
  6 15  1  1  0  0  0
  6  5  1  0  0  0  0
  7  2  1  0  0  0  0
  8  2  1  0  0  0  0
 13  5  1  0  0  0  0
 16 18  1  0  0  0  0
 16  1  1  0  0  0  0
 17 16  1  0  0  0  0
 19 21  1  0  0  0  0
 19 16  1  0  0  0  0
 20 19  1  0  0  0  0
 22 27  2  0  0  0  0
 22 23  1  0  0  0  0
 23 24  2  0  0  0  0
 24 25  1  0  0  0  0
 24 19  1  0  0  0  0
 26 30  1  0  0  0  0
 26 25  2  0  0  0  0
 27 26  1  0  0  0  0
 28 22  1  0  0  0  0
 29 23  1  0  0  0  0
 31 33  1  0  0  0  0
 31  6  1  0  0  0  0
 33 34  1  0  0  0  0
 33 32  2  1  0  0  0
 35 34  1  0  0  0  0
 36 33  1  0  0  0  0
 37 38  1  0  0  0  0
 38 44  1  0  0  0  0
 38 39  1  0  0  0  0
 39 40  2  0  0  0  0
 40 41  1  0  0  0  0
 40 36  1  0  0  0  0
 41 42  2  0  0  0  0
 43 46  1  0  0  0  0
 43 41  1  0  0  0  0
 44 43  1  0  0  0  0
 45 44  2  0  0  0  0
M  END
>  <minimizedAffinity>
-5.54621792

$$$$

 OpenBabel03252509023D

 46 48  0  0  1  0  0  0  0  0999 V2000
   36.7490   28.4570   41.6570 N   0  0  0  0  0  0  0  0  0  0  0  0
   36.9730   27.2080   42.3050 C   0  0  0  0  0  0  0  0  0  0  0  0
   38.3890   26.9570   42.7530 C   0  0  0  0  0  0  0  0  0  0  0  0
   39.1510   28.1880   43.1470 C   0  0  0  0  0  0  0  0  0  0  0  0
   38.2660   29.4120   43.1380 C   0  0  0  0  0  0  0  0  0  0  0  0
   37.7230   29.4400   41.6610 C   0  0  2  0  0  0  0  0  0  0  0  0
   36.3450   27.2380   43.2370 H   0  0  0  0  0  0  0  0  0  0  0  0
   36.6300   26.3230   41.7670 H   0  0  0  0  0  0  0  0  0  0  0  0
   38.9420   26.3530   41.9970 H   0  0  0  0  0  0  0  0  0  0  0  0
   38.3620   26.3150   43.6650 H   0  0  0  0  0  0  0  0  0  0  0  0
   39.9290   28.3510   42.3620 H   0  0  0  0  0  0  0  0  0  0  0  0
   39.7250   28.0710   44.0970 H   0  0  0  0  0  0  0  0  0  0  0  0
   37.4240   29.2700   43.8220 H   0  0  0  0  0  0  0  0  0  0  0  0
   38.8650   30.3110   43.3240 H   0  0  0  0  0  0  0  0  0  0  0  0
   38.5880   29.3030   40.9940 H   0  0  0  0  0  0  0  0  0  0  0  0
   35.8350   28.3940   40.5540 C   0  0  0  0  0  0  0  0  0  0  0  0
   34.8210   28.2390   40.9420 H   0  0  0  0  0  0  0  0  0  0  0  0
   35.8780   29.3630   40.0110 H   0  0  0  0  0  0  0  0  0  0  0  0
   36.2790   27.3100   39.6210 C   0  0  0  0  0  0  0  0  0  0  0  0
   37.1400   26.7500   40.0100 H   0  0  0  0  0  0  0  0  0  0  0  0
   35.4700   26.5700   39.4580 H   0  0  0  0  0  0  0  0  0  0  0  0
   36.1010   29.4120   36.5070 C   0  0  0  0  0  0  0  0  0  0  0  0
   35.7730   28.8460   37.7600 C   0  0  0  0  0  0  0  0  0  0  0  0
   36.6220   27.9070   38.3040 C   0  0  0  0  0  0  0  0  0  0  0  0
   37.7300   27.5710   37.6130 N   0  0  0  0  0  0  0  0  0  0  0  0
   38.0160   28.1290   36.4200 C   0  0  0  0  0  0  0  0  0  0  0  0
   37.2180   29.0440   35.8570 N   0  0  0  0  0  0  0  0  0  0  0  0
   35.3980   30.1390   36.1360 H   0  0  0  0  0  0  0  0  0  0  0  0
   34.8770   29.1190   38.3170 H   0  0  0  0  0  0  0  0  0  0  0  0
   38.9050   27.8640   35.8590 H   0  0  0  0  0  0  0  0  0  0  0  0
   37.1570   30.7140   41.6030 O   0  0  0  0  0  0  0  0  0  0  0  0
   39.2110   32.3270   41.0940 O   0  0  0  0  0  0  0  0  0  0  0  0
   37.9470   31.7160   40.4950 P   0  0  2  0  0  0  0  0  0  0  0  0
   36.8820   33.0250   40.2080 O   0  0  0  0  0  0  0  0  0  0  0  0
   35.9840   32.6810   39.9890 H   0  0  0  0  0  0  0  0  0  0  0  0
   38.2130   30.9480   39.0460 O   0  0  0  0  0  0  0  0  0  0  0  0
   40.9530   32.9360   36.2240 H   0  0  0  0  0  0  0  0  0  0  0  0
   40.7820   32.1410   36.8910 N   0  0  0  0  0  0  0  0  0  0  0  0
   39.6190   31.9840   37.5860 C   0  0  0  0  0  3  0  0  0  0  0  0
   39.4650   30.9000   38.4560 C   0  0  0  0  0  0  0  0  0  0  0  0
   40.5150   30.0210   38.5760 C   0  0  0  0  0  0  0  0  0  0  0  0
   40.2560   29.0950   39.3840 O   0  0  0  0  0  0  0  0  0  0  0  0
   41.6310   30.2240   37.8710 N   0  0  0  0  0  0  0  0  0  0  0  0
   41.7830   31.2600   37.0360 C   0  0  0  0  0  0  0  0  0  0  0  0
   42.8950   31.2910   36.4600 O   0  0  0  0  0  0  0  0  0  0  0  0
   42.3690   29.4870   38.0420 H   0  0  0  0  0  0  0  0  0  0  0  0
  1  6  1  0  0  0  0
  1  2  1  0  0  0  0
  2  3  1  0  0  0  0
  2  7  1  0  0  0  0
  3  4  1  0  0  0  0
  3 10  1  0  0  0  0
  4 12  1  0  0  0  0
  5  4  1  0  0  0  0
  5 14  1  0  0  0  0
  5 13  1  0  0  0  0
  6 15  1  6  0  0  0
  6  5  1  0  0  0  0
  8  2  1  0  0  0  0
  9  3  1  0  0  0  0
 11  4  1  0  0  0  0
 16 17  1  0  0  0  0
 16  1  1  0  0  0  0
 18 16  1  0  0  0  0
 19 20  1  0  0  0  0
 19 16  1  0  0  0  0
 21 19  1  0  0  0  0
 22 23  1  0  0  0  0
 23 24  2  0  0  0  0
 23 29  1  0  0  0  0
 24 19  1  0  0  0  0
 25 24  1  0  0  0  0
 26 25  2  0  0  0  0
 27 26  1  0  0  0  0
 27 22  2  0  0  0  0
 28 22  1  0  0  0  0
 30 26  1  0  0  0  0
 31  6  1  0  0  0  0
 33 32  2  1  0  0  0
 33 31  1  0  0  0  0
 34 33  1  0  0  0  0
 35 34  1  0  0  0  0
 36 33  1  0  0  0  0
 37 38  1  0  0  0  0
 38 44  1  0  0  0  0
 38 39  1  0  0  0  0
 39 40  2  0  0  0  0
 40 41  1  0  0  0  0
 40 36  1  0  0  0  0
 41 42  2  0  0  0  0
 43 46  1  0  0  0  0
 43 41  1  0  0  0  0
 44 43  1  0  0  0  0
 45 44  2  0  0  0  0
M  END
>  <minimizedAffinity>
-5.53729868

$$$$

 OpenBabel03252509023D

 46 48  0  0  1  0  0  0  0  0999 V2000
   38.8290   28.1590   41.5350 N   0  0  0  0  0  0  0  0  0  0  0  0
   39.4960   27.4700   42.5890 C   0  0  0  0  0  0  0  0  0  0  0  0
   38.7120   27.3300   43.8670 C   0  0  0  0  0  0  0  0  0  0  0  0
   37.2260   27.2250   43.6850 C   0  0  0  0  0  0  0  0  0  0  0  0
   36.8540   27.1440   42.2230 C   0  0  0  0  0  0  0  0  0  0  0  0
   37.4810   28.4590   41.6300 C   0  0  2  0  0  0  0  0  0  0  0  0
   39.6660   26.4280   42.2040 H   0  0  0  0  0  0  0  0  0  0  0  0
   40.4910   27.8380   42.8450 H   0  0  0  0  0  0  0  0  0  0  0  0
   38.9850   28.1340   44.5890 H   0  0  0  0  0  0  0  0  0  0  0  0
   39.0210   26.3810   44.3680 H   0  0  0  0  0  0  0  0  0  0  0  0
   36.7860   28.1750   44.0740 H   0  0  0  0  0  0  0  0  0  0  0  0
   36.7580   26.4210   44.3000 H   0  0  0  0  0  0  0  0  0  0  0  0
   37.3390   26.2800   41.7610 H   0  0  0  0  0  0  0  0  0  0  0  0
   35.7630   27.1770   42.1110 H   0  0  0  0  0  0  0  0  0  0  0  0
   37.1890   29.2880   42.2920 H   0  0  0  0  0  0  0  0  0  0  0  0
   39.6770   29.0200   40.7640 C   0  0  0  0  0  0  0  0  0  0  0  0
   40.6870   28.5920   40.7360 H   0  0  0  0  0  0  0  0  0  0  0  0
   39.2710   29.0720   39.7300 H   0  0  0  0  0  0  0  0  0  0  0  0
   39.6380   30.3940   41.3570 C   0  0  0  0  0  0  0  0  0  0  0  0
   38.7260   30.9410   41.0850 H   0  0  0  0  0  0  0  0  0  0  0  0
   39.6600   30.3500   42.4650 H   0  0  0  0  0  0  0  0  0  0  0  0
   43.0400   31.1900   39.9660 C   0  0  0  0  0  0  0  0  0  0  0  0
   41.9060   30.4630   40.3910 C   0  0  0  0  0  0  0  0  0  0  0  0
   40.8330   31.1560   40.9090 C   0  0  0  0  0  0  0  0  0  0  0  0
   40.9160   32.4990   40.9870 N   0  0  0  0  0  0  0  0  0  0  0  0
   42.0140   33.1650   40.5730 C   0  0  0  0  0  0  0  0  0  0  0  0
   43.0760   32.5300   40.0640 N   0  0  0  0  0  0  0  0  0  0  0  0
   43.8440   30.5920   39.5710 H   0  0  0  0  0  0  0  0  0  0  0  0
   41.8390   29.3780   40.3270 H   0  0  0  0  0  0  0  0  0  0  0  0
   42.0880   34.2440   40.6320 H   0  0  0  0  0  0  0  0  0  0  0  0
   36.8820   28.5020   40.3690 O   0  0  0  0  0  0  0  0  0  0  0  0
   36.0620   30.8390   41.3400 O   0  0  0  0  0  0  0  0  0  0  0  0
   35.9320   29.8820   40.1580 P   0  0  2  0  0  0  0  0  0  0  0  0
   34.3100   29.3370   40.1680 O   0  0  0  0  0  0  0  0  0  0  0  0
   34.2070   28.5840   39.5400 H   0  0  0  0  0  0  0  0  0  0  0  0
   36.2160   30.6100   38.6920 O   0  0  0  0  0  0  0  0  0  0  0  0
   40.1140   30.0250   36.7210 H   0  0  0  0  0  0  0  0  0  0  0  0
   39.4740   30.6610   37.2590 N   0  0  0  0  0  0  0  0  0  0  0  0
   38.2260   30.2950   37.6700 C   0  0  0  0  0  3  0  0  0  0  0  0
   37.4310   31.1990   38.3840 C   0  0  0  0  0  0  0  0  0  0  0  0
   37.9530   32.4430   38.6450 C   0  0  0  0  0  0  0  0  0  0  0  0
   37.1470   33.1600   39.2880 O   0  0  0  0  0  0  0  0  0  0  0  0
   39.1810   32.7480   38.2180 N   0  0  0  0  0  0  0  0  0  0  0  0
   39.9460   31.8860   37.5350 C   0  0  0  0  0  0  0  0  0  0  0  0
   41.0680   32.3430   37.2160 O   0  0  0  0  0  0  0  0  0  0  0  0
   39.4780   33.7300   38.4750 H   0  0  0  0  0  0  0  0  0  0  0  0
  1  6  1  0  0  0  0
  1  2  1  0  0  0  0
  2  8  1  0  0  0  0
  2  3  1  0  0  0  0
  3 10  1  0  0  0  0
  3  9  1  0  0  0  0
  4  3  1  0  0  0  0
  4 11  1  0  0  0  0
  4 12  1  0  0  0  0
  5  4  1  0  0  0  0
  6  5  1  0  0  0  0
  6 15  1  1  0  0  0
  7  2  1  0  0  0  0
 13  5  1  0  0  0  0
 14  5  1  0  0  0  0
 16 19  1  0  0  0  0
 16  1  1  0  0  0  0
 17 16  1  0  0  0  0
 18 16  1  0  0  0  0
 19 21  1  0  0  0  0
 20 19  1  0  0  0  0
 22 27  2  0  0  0  0
 22 23  1  0  0  0  0
 23 24  2  0  0  0  0
 24 25  1  0  0  0  0
 24 19  1  0  0  0  0
 26 30  1  0  0  0  0
 26 25  2  0  0  0  0
 27 26  1  0  0  0  0
 28 22  1  0  0  0  0
 29 23  1  0  0  0  0
 31  6  1  0  0  0  0
 33 34  1  0  0  0  0
 33 31  1  0  0  0  0
 33 32  2  1  0  0  0
 35 34  1  0  0  0  0
 36 33  1  0  0  0  0
 37 38  1  0  0  0  0
 38 44  1  0  0  0  0
 38 39  1  0  0  0  0
 39 40  2  0  0  0  0
 40 41  1  0  0  0  0
 40 36  1  0  0  0  0
 41 42  2  0  0  0  0
 43 46  1  0  0  0  0
 43 41  1  0  0  0  0
 44 43  1  0  0  0  0
 45 44  2  0  0  0  0
M  END
>  <minimizedAffinity>
-5.3936758

$$$$
