
 OpenBabel03252507553D

 45 48  0  0  1  0  0  0  0  0999 V2000
   48.9970   32.1400   40.5150 C   0  0  2  0  0  0  0  0  0  0  0  0
   49.9120   31.5150   41.4570 C   0  0  0  0  0  0  0  0  0  0  0  0
   50.3330   31.7710   40.0440 C   0  0  1  0  0  0  0  0  0  0  0  0
   48.1460   31.5410   40.1420 H   0  0  0  0  0  0  0  0  0  0  0  0
   49.8160   30.4390   41.7760 H   0  0  0  0  0  0  0  0  0  0  0  0
   50.3480   32.1310   42.2600 H   0  0  0  0  0  0  0  0  0  0  0  0
   50.9430   32.6550   39.7660 H   0  0  0  0  0  0  0  0  0  0  0  0
   47.1280   34.7730   42.1110 C   0  0  2  0  0  0  0  0  0  0  0  0
   46.3400   34.3280   40.8760 C   0  0  0  0  0  0  0  0  0  0  0  0
   47.5430   34.1290   39.9270 C   0  0  0  0  0  0  0  0  0  0  0  0
   48.6310   33.5800   40.7960 C   0  0  1  0  0  0  0  0  0  0  0  0
   48.1050   33.6350   42.2000 C   0  0  0  0  0  0  0  0  0  0  0  0
   47.6440   35.7260   41.8840 H   0  0  0  0  0  0  0  0  0  0  0  0
   45.8870   33.3580   41.1010 H   0  0  0  0  0  0  0  0  0  0  0  0
   45.6700   35.1050   40.5030 H   0  0  0  0  0  0  0  0  0  0  0  0
   47.8520   35.1700   39.6450 H   0  0  0  0  0  0  0  0  0  0  0  0
   47.2660   33.4970   39.0780 H   0  0  0  0  0  0  0  0  0  0  0  0
   49.5630   34.1810   40.7620 H   0  0  0  0  0  0  0  0  0  0  0  0
   47.5600   32.7080   42.4690 H   0  0  0  0  0  0  0  0  0  0  0  0
   48.9070   33.8400   42.9360 H   0  0  0  0  0  0  0  0  0  0  0  0
   44.5340   35.8300   44.6300 C   0  0  0  0  0  0  0  0  0  0  0  0
   45.2790   35.8400   43.4560 C   0  0  0  0  0  0  0  0  0  0  0  0
   46.2480   34.8560   43.3090 C   0  0  0  0  0  0  0  0  0  0  0  0
   46.4480   33.9040   44.3180 N   0  0  0  0  0  0  0  0  0  0  0  0
   45.6900   33.9450   45.4460 C   0  0  0  0  0  0  0  0  0  0  0  0
   44.7400   34.9060   45.5930 N   0  0  0  0  0  0  0  0  0  0  0  0
   43.7640   36.5810   44.7880 H   0  0  0  0  0  0  0  0  0  0  0  0
   45.1330   36.5670   42.6740 H   0  0  0  0  0  0  0  0  0  0  0  0
   45.8780   33.1920   46.1980 H   0  0  0  0  0  0  0  0  0  0  0  0
   50.4300   30.6390   39.1930 O   0  0  0  0  0  0  0  0  0  0  0  0
   51.0450   30.2570   36.6880 O   0  0  0  0  0  0  0  0  0  0  0  0
   51.4520   31.0310   37.9170 P   0  0  1  0  0  0  0  0  0  0  0  0
   51.3040   32.6980   37.5380 O   0  0  0  0  0  0  0  0  0  0  0  0
   51.8960   33.2010   38.1320 H   0  0  0  0  0  0  0  0  0  0  0  0
   53.0580   30.7450   38.2160 O   0  0  0  0  0  0  0  0  0  0  0  0
   54.9420   26.6860   37.6240 H   0  0  0  0  0  0  0  0  0  0  0  0
   54.6880   27.4460   38.2860 N   0  0  0  0  0  0  0  0  0  0  0  0
   54.0750   28.4960   37.7470 C   0  0  0  0  0  3  0  0  0  0  0  0
   53.6910   29.5710   38.5370 C   0  0  0  0  0  0  0  0  0  0  0  0
   53.9750   29.4950   39.9030 C   0  0  0  0  0  0  0  0  0  0  0  0
   53.7210   30.3460   40.8030 O   0  0  0  0  0  0  0  0  0  0  0  0
   54.6040   28.4000   40.4120 N   0  0  0  0  0  0  0  0  0  0  0  0
   54.9520   27.3920   39.5990 C   0  0  0  0  0  0  0  0  0  0  0  0
   55.5380   26.3470   40.0120 O   0  0  0  0  0  0  0  0  0  0  0  0
   54.8500   28.2680   41.4160 H   0  0  0  0  0  0  0  0  0  0  0  0
  1  4  1  6  0  0  0
  1 11  1  0  0  0  0
  1  2  1  0  0  0  0
  2  5  1  0  0  0  0
  2  6  1  0  0  0  0
  3  7  1  6  0  0  0
  3  1  1  0  0  0  0
  3  2  1  0  0  0  0
  8 13  1  6  0  0  0
  8 12  1  0  0  0  0
  8 23  1  0  0  0  0
  9 14  1  0  0  0  0
  9  8  1  0  0  0  0
 10 11  1  0  0  0  0
 10  9  1  0  0  0  0
 11 18  1  6  0  0  0
 11 12  1  0  0  0  0
 12 19  1  0  0  0  0
 12 20  1  0  0  0  0
 15  9  1  0  0  0  0
 16 10  1  0  0  0  0
 17 10  1  0  0  0  0
 21 27  1  0  0  0  0
 21 26  1  0  0  0  0
 22 21  2  0  0  0  0
 23 22  1  0  0  0  0
 23 24  2  0  0  0  0
 24 25  1  0  0  0  0
 25 26  2  0  0  0  0
 25 29  1  0  0  0  0
 28 22  1  0  0  0  0
 30  3  1  0  0  0  0
 32 31  2  6  0  0  0
 32 35  1  0  0  0  0
 32 30  1  0  0  0  0
 33 32  1  0  0  0  0
 33 34  1  0  0  0  0
 35 39  1  0  0  0  0
 36 37  1  0  0  0  0
 37 43  1  0  0  0  0
 38 37  1  0  0  0  0
 38 39  2  0  0  0  0
 39 40  1  0  0  0  0
 40 42  1  0  0  0  0
 40 41  2  0  0  0  0
 42 45  1  0  0  0  0
 43 44  2  0  0  0  0
 43 42  1  0  0  0  0
M  END
>  <minimizedAffinity>
-4.94663334

>  <minimizedRMSD>
2.11302924

$$$$
