
 OpenBabel03252509013D

 46 48  0  0  1  0  0  0  0  0999 V2000
   47.1740   34.1200   43.0210 N   0  0  0  0  0  0  0  0  0  0  0  0
   46.7800   35.4160   42.5770 C   0  0  0  0  0  0  0  0  0  0  0  0
   45.3280   35.7570   42.7880 C   0  0  0  0  0  0  0  0  0  0  0  0
   44.7020   35.1230   43.9950 C   0  0  0  0  0  0  0  0  0  0  0  0
   45.7250   34.3790   44.8220 C   0  0  0  0  0  0  0  0  0  0  0  0
   46.3220   33.3490   43.7930 C   0  0  2  0  0  0  0  0  0  0  0  0
   47.3700   36.1390   43.2020 H   0  0  0  0  0  0  0  0  0  0  0  0
   47.0350   35.6660   41.5460 H   0  0  0  0  0  0  0  0  0  0  0  0
   44.7360   35.5610   41.8640 H   0  0  0  0  0  0  0  0  0  0  0  0
   45.2440   36.8590   42.9500 H   0  0  0  0  0  0  0  0  0  0  0  0
   43.9790   34.3580   43.6200 H   0  0  0  0  0  0  0  0  0  0  0  0
   44.0830   35.8280   44.5990 H   0  0  0  0  0  0  0  0  0  0  0  0
   46.5170   35.0630   45.1390 H   0  0  0  0  0  0  0  0  0  0  0  0
   45.2290   33.8370   45.6350 H   0  0  0  0  0  0  0  0  0  0  0  0
   45.4730   32.8650   43.2870 H   0  0  0  0  0  0  0  0  0  0  0  0
   48.1140   33.4640   42.1620 C   0  0  0  0  0  0  0  0  0  0  0  0
   48.8010   34.2130   41.7480 H   0  0  0  0  0  0  0  0  0  0  0  0
   48.6920   32.7340   42.7710 H   0  0  0  0  0  0  0  0  0  0  0  0
   47.3620   32.7100   41.1090 C   0  0  0  0  0  0  0  0  0  0  0  0
   47.3620   31.6270   41.2900 H   0  0  0  0  0  0  0  0  0  0  0  0
   46.3000   33.0250   41.0780 H   0  0  0  0  0  0  0  0  0  0  0  0
   49.3330   32.3200   37.9290 C   0  0  0  0  0  0  0  0  0  0  0  0
   48.7660   32.0440   39.1930 C   0  0  0  0  0  0  0  0  0  0  0  0
   47.9610   32.9970   39.7790 C   0  0  0  0  0  0  0  0  0  0  0  0
   47.7520   34.1520   39.1170 N   0  0  0  0  0  0  0  0  0  0  0  0
   48.3080   34.3870   37.9110 C   0  0  0  0  0  0  0  0  0  0  0  0
   49.0960   33.4880   37.3080 N   0  0  0  0  0  0  0  0  0  0  0  0
   49.9520   31.5360   37.5250 H   0  0  0  0  0  0  0  0  0  0  0  0
   48.9350   31.1100   39.7270 H   0  0  0  0  0  0  0  0  0  0  0  0
   48.1450   35.3130   37.3720 H   0  0  0  0  0  0  0  0  0  0  0  0
   47.0360   32.5010   44.6410 O   0  0  0  0  0  0  0  0  0  0  0  0
   45.2040   30.7560   43.8180 O   0  0  0  0  0  0  0  0  0  0  0  0
   46.2340   31.0390   44.9080 P   0  0  2  0  0  0  0  0  0  0  0  0
   45.3430   31.2540   46.3540 O   0  0  0  0  0  0  0  0  0  0  0  0
   45.9320   31.6140   47.0580 H   0  0  0  0  0  0  0  0  0  0  0  0
   47.2960   29.7840   45.1470 O   0  0  0  0  0  0  0  0  0  0  0  0
   45.3320   25.9060   45.8730 H   0  0  0  0  0  0  0  0  0  0  0  0
   45.9210   26.6920   46.2500 N   0  0  0  0  0  0  0  0  0  0  0  0
   46.2780   27.7800   45.5100 C   0  0  0  0  0  3  0  0  0  0  0  0
   47.0630   28.7880   46.0800 C   0  0  0  0  0  0  0  0  0  0  0  0
   47.4490   28.6320   47.3900 C   0  0  0  0  0  0  0  0  0  0  0  0
   48.1480   29.5990   47.7860 O   0  0  0  0  0  0  0  0  0  0  0  0
   47.0710   27.5460   48.0680 N   0  0  0  0  0  0  0  0  0  0  0  0
   46.3200   26.5790   47.5270 C   0  0  0  0  0  0  0  0  0  0  0  0
   46.0620   25.6360   48.3080 O   0  0  0  0  0  0  0  0  0  0  0  0
   47.4270   27.5330   49.0640 H   0  0  0  0  0  0  0  0  0  0  0  0
  1  6  1  0  0  0  0
  2  3  1  0  0  0  0
  2  1  1  0  0  0  0
  2  7  1  0  0  0  0
  3 10  1  0  0  0  0
  3  4  1  0  0  0  0
  4 12  1  0  0  0  0
  4  5  1  0  0  0  0
  5 13  1  0  0  0  0
  5 14  1  0  0  0  0
  6 15  1  6  0  0  0
  6 31  1  0  0  0  0
  6  5  1  0  0  0  0
  8  2  1  0  0  0  0
  9  3  1  0  0  0  0
 11  4  1  0  0  0  0
 16 18  1  0  0  0  0
 16  1  1  0  0  0  0
 17 16  1  0  0  0  0
 19 20  1  0  0  0  0
 19 16  1  0  0  0  0
 21 19  1  0  0  0  0
 22 23  1  0  0  0  0
 23 29  1  0  0  0  0
 23 24  2  0  0  0  0
 24 19  1  0  0  0  0
 25 24  1  0  0  0  0
 26 25  2  0  0  0  0
 27 26  1  0  0  0  0
 27 22  2  0  0  0  0
 28 22  1  0  0  0  0
 30 26  1  0  0  0  0
 31 33  1  0  0  0  0
 33 32  2  6  0  0  0
 33 36  1  0  0  0  0
 33 34  1  0  0  0  0
 34 35  1  0  0  0  0
 36 40  1  0  0  0  0
 37 38  1  0  0  0  0
 38 44  1  0  0  0  0
 39 40  2  0  0  0  0
 39 38  1  0  0  0  0
 40 41  1  0  0  0  0
 41 42  2  0  0  0  0
 41 43  1  0  0  0  0
 43 46  1  0  0  0  0
 44 43  1  0  0  0  0
 44 45  2  0  0  0  0
M  END
>  <minimizedAffinity>
-4.42278576

>  <minimizedRMSD>
0.747515082

$$$$
