
 OpenBabel03242517513D

 20 21  0  0  0  0  0  0  0  0999 V2000
   36.9280   28.8160   42.3740 O   0  0  0  0  0  0  0  0  0  0  0  0
   35.8980   32.6020   40.1260 H   0  0  0  0  0  0  0  0  0  0  0  0
   36.6460   32.0090   40.5620 N   0  0  0  0  0  0  0  0  0  0  0  0
   36.2340   30.8650   41.1370 C   0  0  0  0  0  3  0  0  0  0  0  0
   37.1510   30.0250   41.7350 C   0  0  0  0  0  0  0  0  0  0  0  0
   38.4970   30.4070   41.7150 C   0  0  0  0  0  0  0  0  0  0  0  0
   39.4390   29.7390   42.2210 O   0  0  0  0  0  0  0  0  0  0  0  0
   38.8490   31.5740   41.1190 N   0  0  0  0  0  0  0  0  0  0  0  0
   37.9370   32.3860   40.5380 C   0  0  0  0  0  0  0  0  0  0  0  0
   38.2670   33.4790   39.9790 O   0  0  0  0  0  0  0  0  0  0  0  0
   39.8300   31.8750   41.0920 H   0  0  0  0  0  0  0  0  0  0  0  0
   37.2070   25.2960   41.9010 C   0  0  0  0  0  0  0  0  0  0  0  0
   36.9180   25.1350   40.5300 C   0  0  0  0  0  0  0  0  0  0  0  0
   36.6210   26.2820   39.7600 C   0  0  0  0  0  0  0  0  0  0  0  0
   36.6380   27.4610   40.4120 N   0  0  0  0  0  0  0  0  0  0  0  0
   36.9140   27.6010   41.7140 C   0  0  0  0  0  0  0  0  0  0  0  0
   37.1980   26.5070   42.4540 N   0  0  0  0  0  0  0  0  0  0  0  0
   37.4360   24.4250   42.4990 H   0  0  0  0  0  0  0  0  0  0  0  0
   36.9300   24.1390   40.0960 H   0  0  0  0  0  0  0  0  0  0  0  0
   36.3990   26.1790   38.7160 H   0  0  0  0  0  0  0  0  0  0  0  0
  2  3  1  0  0  0  0
  3  4  1  0  0  0  0
  4  5  2  0  0  0  0
  5  1  1  0  0  0  0
  6  5  1  0  0  0  0
  6  7  2  0  0  0  0
  8  6  1  0  0  0  0
  9  3  1  0  0  0  0
  9  8  1  0  0  0  0
 10  9  2  0  0  0  0
 11  8  1  0  0  0  0
 12 17  1  0  0  0  0
 12 18  1  0  0  0  0
 13 12  2  0  0  0  0
 14 15  2  0  0  0  0
 14 13  1  0  0  0  0
 15 16  1  0  0  0  0
 16  1  1  0  0  0  0
 16 17  2  0  0  0  0
 19 13  1  0  0  0  0
 20 14  1  0  0  0  0
M  END
>  <minimizedAffinity>
-4.44611454

$$$$

 OpenBabel03242517513D

 20 21  0  0  0  0  0  0  0  0999 V2000
   37.1180   32.0830   39.7880 O   0  0  0  0  0  0  0  0  0  0  0  0
   39.9100   31.5260   36.2760 H   0  0  0  0  0  0  0  0  0  0  0  0
   39.7400   31.9830   37.2040 N   0  0  0  0  0  0  0  0  0  0  0  0
   38.5680   31.6940   37.7990 C   0  0  0  0  0  3  0  0  0  0  0  0
   38.2600   32.2530   39.0230 C   0  0  0  0  0  0  0  0  0  0  0  0
   39.2000   33.1120   39.6040 C   0  0  0  0  0  0  0  0  0  0  0  0
   39.0520   33.6900   40.7140 O   0  0  0  0  0  0  0  0  0  0  0  0
   40.3640   33.3630   38.9530 N   0  0  0  0  0  0  0  0  0  0  0  0
   40.6490   32.8080   37.7540 C   0  0  0  0  0  0  0  0  0  0  0  0
   41.7400   33.0430   37.1440 O   0  0  0  0  0  0  0  0  0  0  0  0
   41.0680   33.9890   39.3590 H   0  0  0  0  0  0  0  0  0  0  0  0
   37.2620   29.2910   41.9980 C   0  0  0  0  0  0  0  0  0  0  0  0
   36.1670   28.5040   41.5870 C   0  0  0  0  0  0  0  0  0  0  0  0
   35.3670   28.9610   40.5160 C   0  0  0  0  0  0  0  0  0  0  0  0
   35.7210   30.1370   39.9630 N   0  0  0  0  0  0  0  0  0  0  0  0
   36.7630   30.8760   40.3620 C   0  0  0  0  0  0  0  0  0  0  0  0
   37.5310   30.4430   41.3850 N   0  0  0  0  0  0  0  0  0  0  0  0
   37.8810   28.9510   42.8160 H   0  0  0  0  0  0  0  0  0  0  0  0
   35.9630   27.5680   42.0980 H   0  0  0  0  0  0  0  0  0  0  0  0
   34.5290   28.3750   40.1900 H   0  0  0  0  0  0  0  0  0  0  0  0
  1 16  1  0  0  0  0
  2  3  1  0  0  0  0
  3  9  1  0  0  0  0
  3  4  1  0  0  0  0
  4  5  2  0  0  0  0
  5  6  1  0  0  0  0
  5  1  1  0  0  0  0
  6  7  2  0  0  0  0
  8 11  1  0  0  0  0
  8  6  1  0  0  0  0
  9  8  1  0  0  0  0
 10  9  2  0  0  0  0
 12 18  1  0  0  0  0
 13 12  1  0  0  0  0
 13 19  1  0  0  0  0
 14 13  2  0  0  0  0
 15 16  2  0  0  0  0
 15 14  1  0  0  0  0
 16 17  1  0  0  0  0
 17 12  2  0  0  0  0
 20 14  1  0  0  0  0
M  END
>  <minimizedAffinity>
-4.34230804

$$$$

 OpenBabel03242517513D

 20 21  0  0  0  0  0  0  0  0999 V2000
   36.9360   31.1390   41.0410 O   0  0  0  0  0  0  0  0  0  0  0  0
   40.9850   33.0800   41.5680 H   0  0  0  0  0  0  0  0  0  0  0  0
   40.1630   32.9090   40.9390 N   0  0  0  0  0  0  0  0  0  0  0  0
   39.1710   32.1600   41.4540 C   0  0  0  0  0  3  0  0  0  0  0  0
   38.0520   31.8830   40.6950 C   0  0  0  0  0  0  0  0  0  0  0  0
   37.9950   32.4070   39.3990 C   0  0  0  0  0  0  0  0  0  0  0  0
   37.0380   32.2360   38.5980 O   0  0  0  0  0  0  0  0  0  0  0  0
   39.0290   33.1560   38.9380 N   0  0  0  0  0  0  0  0  0  0  0  0
   40.1190   33.4160   39.6940 C   0  0  0  0  0  0  0  0  0  0  0  0
   41.0870   34.1190   39.2630 O   0  0  0  0  0  0  0  0  0  0  0  0
   39.0100   33.5510   37.9910 H   0  0  0  0  0  0  0  0  0  0  0  0
   36.6820   27.5940   40.7860 C   0  0  0  0  0  0  0  0  0  0  0  0
   37.0800   27.1540   42.0650 C   0  0  0  0  0  0  0  0  0  0  0  0
   37.4430   28.1180   43.0320 C   0  0  0  0  0  0  0  0  0  0  0  0
   37.3790   29.4070   42.6450 N   0  0  0  0  0  0  0  0  0  0  0  0
   36.9990   29.8130   41.4280 C   0  0  0  0  0  0  0  0  0  0  0  0
   36.6510   28.8940   40.5010 N   0  0  0  0  0  0  0  0  0  0  0  0
   36.4020   26.8650   40.0390 H   0  0  0  0  0  0  0  0  0  0  0  0
   37.1000   26.0890   42.2800 H   0  0  0  0  0  0  0  0  0  0  0  0
   37.7500   27.8020   44.0100 H   0  0  0  0  0  0  0  0  0  0  0  0
  1 16  1  0  0  0  0
  3  4  1  0  0  0  0
  3  2  1  0  0  0  0
  5  1  1  0  0  0  0
  5  4  2  0  0  0  0
  6  5  1  0  0  0  0
  7  6  2  0  0  0  0
  8  6  1  0  0  0  0
  8  9  1  0  0  0  0
  9  3  1  0  0  0  0
 10  9  2  0  0  0  0
 11  8  1  0  0  0  0
 12 13  1  0  0  0  0
 13 19  1  0  0  0  0
 13 14  2  0  0  0  0
 14 20  1  0  0  0  0
 15 14  1  0  0  0  0
 16 15  2  0  0  0  0
 17 12  2  0  0  0  0
 17 16  1  0  0  0  0
 18 12  1  0  0  0  0
M  END
>  <minimizedAffinity>
-4.28804064

$$$$

 OpenBabel03242517513D

 20 21  0  0  0  0  0  0  0  0999 V2000
   37.5120   29.1630   42.0200 O   0  0  0  0  0  0  0  0  0  0  0  0
   40.3150   32.6820   41.5730 H   0  0  0  0  0  0  0  0  0  0  0  0
   39.3650   32.2810   41.3840 N   0  0  0  0  0  0  0  0  0  0  0  0
   39.1490   31.0340   41.8400 C   0  0  0  0  0  3  0  0  0  0  0  0
   37.9260   30.4270   41.6340 C   0  0  0  0  0  0  0  0  0  0  0  0
   36.9450   31.1520   40.9470 C   0  0  0  0  0  0  0  0  0  0  0  0
   35.7880   30.7230   40.6900 O   0  0  0  0  0  0  0  0  0  0  0  0
   37.2250   32.4060   40.5130 N   0  0  0  0  0  0  0  0  0  0  0  0
   38.4290   32.9850   40.7230 C   0  0  0  0  0  0  0  0  0  0  0  0
   38.6910   34.1610   40.3160 O   0  0  0  0  0  0  0  0  0  0  0  0
   36.5220   32.9560   40.0080 H   0  0  0  0  0  0  0  0  0  0  0  0
   39.6540   26.4150   41.2710 C   0  0  0  0  0  0  0  0  0  0  0  0
   40.1150   26.0160   42.5420 C   0  0  0  0  0  0  0  0  0  0  0  0
   39.6660   26.7230   43.6790 C   0  0  0  0  0  0  0  0  0  0  0  0
   38.8170   27.7440   43.4530 N   0  0  0  0  0  0  0  0  0  0  0  0
   38.3850   28.1140   42.2420 C   0  0  0  0  0  0  0  0  0  0  0  0
   38.8120   27.4400   41.1510 N   0  0  0  0  0  0  0  0  0  0  0  0
   39.9900   25.8810   40.3930 H   0  0  0  0  0  0  0  0  0  0  0  0
   40.8020   25.1780   42.6200 H   0  0  0  0  0  0  0  0  0  0  0  0
   40.0070   26.4340   44.6550 H   0  0  0  0  0  0  0  0  0  0  0  0
  1 16  1  0  0  0  0
  3  2  1  0  0  0  0
  3  4  1  0  0  0  0
  5  4  2  0  0  0  0
  5  1  1  0  0  0  0
  6  5  1  0  0  0  0
  7  6  2  0  0  0  0
  8  9  1  0  0  0  0
  8  6  1  0  0  0  0
  9  3  1  0  0  0  0
 10  9  2  0  0  0  0
 11  8  1  0  0  0  0
 12 13  1  0  0  0  0
 13 19  1  0  0  0  0
 13 14  2  0  0  0  0
 14 20  1  0  0  0  0
 15 14  1  0  0  0  0
 16 15  2  0  0  0  0
 17 12  2  0  0  0  0
 17 16  1  0  0  0  0
 18 12  1  0  0  0  0
M  END
>  <minimizedAffinity>
-4.25389338

$$$$

 OpenBabel03242517513D

 20 21  0  0  0  0  0  0  0  0999 V2000
   37.6530   28.7040   40.3800 O   0  0  0  0  0  0  0  0  0  0  0  0
   35.8740   32.7870   41.1530 H   0  0  0  0  0  0  0  0  0  0  0  0
   36.5710   32.2150   40.6180 N   0  0  0  0  0  0  0  0  0  0  0  0
   36.5910   30.8980   40.8950 C   0  0  0  0  0  3  0  0  0  0  0  0
   37.4790   30.0700   40.2380 C   0  0  0  0  0  0  0  0  0  0  0  0
   38.3340   30.6470   39.2920 C   0  0  0  0  0  0  0  0  0  0  0  0
   39.1910   30.0130   38.6200 O   0  0  0  0  0  0  0  0  0  0  0  0
   38.2640   31.9820   39.0580 N   0  0  0  0  0  0  0  0  0  0  0  0
   37.3890   32.7790   39.7120 C   0  0  0  0  0  0  0  0  0  0  0  0
   37.3220   34.0300   39.4920 O   0  0  0  0  0  0  0  0  0  0  0  0
   38.8800   32.4280   38.3700 H   0  0  0  0  0  0  0  0  0  0  0  0
   38.2060   27.4170   43.6570 C   0  0  0  0  0  0  0  0  0  0  0  0
   39.5550   27.0110   43.6160 C   0  0  0  0  0  0  0  0  0  0  0  0
   40.2820   27.1920   42.4180 C   0  0  0  0  0  0  0  0  0  0  0  0
   39.6120   27.7500   41.3900 N   0  0  0  0  0  0  0  0  0  0  0  0
   38.3310   28.1320   41.4410 C   0  0  0  0  0  0  0  0  0  0  0  0
   37.6330   27.9610   42.5850 N   0  0  0  0  0  0  0  0  0  0  0  0
   37.6400   27.2840   44.5690 H   0  0  0  0  0  0  0  0  0  0  0  0
   40.0060   26.5690   44.5000 H   0  0  0  0  0  0  0  0  0  0  0  0
   41.3100   26.8880   42.3680 H   0  0  0  0  0  0  0  0  0  0  0  0
  1 16  1  0  0  0  0
  3  4  1  0  0  0  0
  3  2  1  0  0  0  0
  5  1  1  0  0  0  0
  5  4  2  0  0  0  0
  6  5  1  0  0  0  0
  7  6  2  0  0  0  0
  8  6  1  0  0  0  0
  8  9  1  0  0  0  0
  9  3  1  0  0  0  0
 10  9  2  0  0  0  0
 11  8  1  0  0  0  0
 12 18  1  0  0  0  0
 13 12  1  0  0  0  0
 13 19  1  0  0  0  0
 14 13  2  0  0  0  0
 15 16  2  0  0  0  0
 15 14  1  0  0  0  0
 16 17  1  0  0  0  0
 17 12  2  0  0  0  0
 20 14  1  0  0  0  0
M  END
>  <minimizedAffinity>
-4.25084829

$$$$

 OpenBabel03242517513D

 20 21  0  0  0  0  0  0  0  0999 V2000
   37.6000   28.7720   40.3690 O   0  0  0  0  0  0  0  0  0  0  0  0
   39.7230   32.6550   39.4450 H   0  0  0  0  0  0  0  0  0  0  0  0
   38.8350   32.1840   39.7430 N   0  0  0  0  0  0  0  0  0  0  0  0
   38.8800   30.8420   39.8340 C   0  0  0  0  0  3  0  0  0  0  0  0
   37.7550   30.1390   40.2180 C   0  0  0  0  0  0  0  0  0  0  0  0
   36.5950   30.8690   40.5030 C   0  0  0  0  0  0  0  0  0  0  0  0
   35.5000   30.3600   40.8630 O   0  0  0  0  0  0  0  0  0  0  0  0
   36.6150   32.2210   40.3920 N   0  0  0  0  0  0  0  0  0  0  0  0
   37.7250   32.8930   40.0130 C   0  0  0  0  0  0  0  0  0  0  0  0
   37.7440   34.1600   39.9100 O   0  0  0  0  0  0  0  0  0  0  0  0
   35.7770   32.7770   40.5960 H   0  0  0  0  0  0  0  0  0  0  0  0
   38.0780   27.4250   43.6330 C   0  0  0  0  0  0  0  0  0  0  0  0
   39.2560   26.6630   43.4940 C   0  0  0  0  0  0  0  0  0  0  0  0
   39.8930   26.6230   42.2330 C   0  0  0  0  0  0  0  0  0  0  0  0
   39.3100   27.3300   41.2450 N   0  0  0  0  0  0  0  0  0  0  0  0
   38.1910   28.0490   41.3900 C   0  0  0  0  0  0  0  0  0  0  0  0
   37.5790   28.0910   42.5930 N   0  0  0  0  0  0  0  0  0  0  0  0
   37.5820   27.4630   44.5930 H   0  0  0  0  0  0  0  0  0  0  0  0
   39.6480   26.1260   44.3530 H   0  0  0  0  0  0  0  0  0  0  0  0
   40.7900   26.0480   42.1080 H   0  0  0  0  0  0  0  0  0  0  0  0
  1 16  1  0  0  0  0
  2  3  1  0  0  0  0
  3  4  1  0  0  0  0
  3  9  1  0  0  0  0
  4  5  2  0  0  0  0
  5  1  1  0  0  0  0
  5  6  1  0  0  0  0
  6  7  2  0  0  0  0
  8  6  1  0  0  0  0
  8 11  1  0  0  0  0
  9  8  1  0  0  0  0
 10  9  2  0  0  0  0
 12 18  1  0  0  0  0
 13 12  1  0  0  0  0
 13 19  1  0  0  0  0
 14 13  2  0  0  0  0
 15 16  2  0  0  0  0
 15 14  1  0  0  0  0
 16 17  1  0  0  0  0
 17 12  2  0  0  0  0
 20 14  1  0  0  0  0
M  END
>  <minimizedAffinity>
-4.19487429

$$$$

 OpenBabel03242517513D

 20 21  0  0  0  0  0  0  0  0999 V2000
   36.9240   31.8760   40.8320 O   0  0  0  0  0  0  0  0  0  0  0  0
   41.4360   31.9680   41.1020 H   0  0  0  0  0  0  0  0  0  0  0  0
   40.5630   32.4340   40.7550 N   0  0  0  0  0  0  0  0  0  0  0  0
   39.4060   31.8140   41.0500 C   0  0  0  0  0  3  0  0  0  0  0  0
   38.2070   32.3570   40.6320 C   0  0  0  0  0  0  0  0  0  0  0  0
   38.2500   33.5530   39.9060 C   0  0  0  0  0  0  0  0  0  0  0  0
   37.2370   34.1580   39.4630 O   0  0  0  0  0  0  0  0  0  0  0  0
   39.4500   34.1290   39.6410 N   0  0  0  0  0  0  0  0  0  0  0  0
   40.6140   33.5830   40.0580 C   0  0  0  0  0  0  0  0  0  0  0  0
   41.7390   34.1230   39.8110 O   0  0  0  0  0  0  0  0  0  0  0  0
   39.5060   35.0060   39.1110 H   0  0  0  0  0  0  0  0  0  0  0  0
   35.2100   28.8100   40.2330 C   0  0  0  0  0  0  0  0  0  0  0  0
   35.2910   28.6690   38.8320 C   0  0  0  0  0  0  0  0  0  0  0  0
   35.9590   29.6660   38.0870 C   0  0  0  0  0  0  0  0  0  0  0  0
   36.4750   30.6940   38.7900 N   0  0  0  0  0  0  0  0  0  0  0  0
   36.3910   30.8170   40.1200 C   0  0  0  0  0  0  0  0  0  0  0  0
   35.7540   29.8660   40.8360 N   0  0  0  0  0  0  0  0  0  0  0  0
   34.7010   28.0530   40.8130 H   0  0  0  0  0  0  0  0  0  0  0  0
   34.8410   27.8020   38.3580 H   0  0  0  0  0  0  0  0  0  0  0  0
   36.0300   29.5760   37.0210 H   0  0  0  0  0  0  0  0  0  0  0  0
  3  4  1  0  0  0  0
  3  2  1  0  0  0  0
  5  1  1  0  0  0  0
  5  4  2  0  0  0  0
  6  5  1  0  0  0  0
  7  6  2  0  0  0  0
  8  6  1  0  0  0  0
  8  9  1  0  0  0  0
  9  3  1  0  0  0  0
 10  9  2  0  0  0  0
 11  8  1  0  0  0  0
 12 18  1  0  0  0  0
 12 17  1  0  0  0  0
 13 12  2  0  0  0  0
 14 15  2  0  0  0  0
 14 13  1  0  0  0  0
 15 16  1  0  0  0  0
 16  1  1  0  0  0  0
 16 17  2  0  0  0  0
 19 13  1  0  0  0  0
 20 14  1  0  0  0  0
M  END
>  <minimizedAffinity>
-4.19450951

$$$$

 OpenBabel03242517513D

 20 21  0  0  0  0  0  0  0  0999 V2000
   38.2410   28.8390   42.7940 O   0  0  0  0  0  0  0  0  0  0  0  0
   39.7070   25.1250   40.6730 H   0  0  0  0  0  0  0  0  0  0  0  0
   38.9700   25.5650   41.2760 N   0  0  0  0  0  0  0  0  0  0  0  0
   39.1530   26.8620   41.5820 C   0  0  0  0  0  3  0  0  0  0  0  0
   38.2320   27.5210   42.3720 C   0  0  0  0  0  0  0  0  0  0  0  0
   37.1260   26.7950   42.8280 C   0  0  0  0  0  0  0  0  0  0  0  0
   36.2100   27.2670   43.5550 O   0  0  0  0  0  0  0  0  0  0  0  0
   36.9990   25.4880   42.4850 N   0  0  0  0  0  0  0  0  0  0  0  0
   37.9110   24.8590   41.7110 C   0  0  0  0  0  0  0  0  0  0  0  0
   37.7920   23.6350   41.3880 O   0  0  0  0  0  0  0  0  0  0  0  0
   36.1970   24.9360   42.8070 H   0  0  0  0  0  0  0  0  0  0  0  0
   38.6070   31.8400   40.9070 C   0  0  0  0  0  0  0  0  0  0  0  0
   37.3170   32.0410   40.3760 C   0  0  0  0  0  0  0  0  0  0  0  0
   36.3020   31.1080   40.6870 C   0  0  0  0  0  0  0  0  0  0  0  0
   36.6580   30.0790   41.4810 N   0  0  0  0  0  0  0  0  0  0  0  0
   37.8870   29.8990   41.9790 C   0  0  0  0  0  0  0  0  0  0  0  0
   38.8590   30.7890   41.6850 N   0  0  0  0  0  0  0  0  0  0  0  0
   39.3910   32.5480   40.6760 H   0  0  0  0  0  0  0  0  0  0  0  0
   37.1290   32.9040   39.7430 H   0  0  0  0  0  0  0  0  0  0  0  0
   35.3140   31.2450   40.2920 H   0  0  0  0  0  0  0  0  0  0  0  0
  2  3  1  0  0  0  0
  3  4  1  0  0  0  0
  3  9  1  0  0  0  0
  4  5  2  0  0  0  0
  5  1  1  0  0  0  0
  5  6  1  0  0  0  0
  6  7  2  0  0  0  0
  8 11  1  0  0  0  0
  8  6  1  0  0  0  0
  9  8  1  0  0  0  0
 10  9  2  0  0  0  0
 12 17  1  0  0  0  0
 13 14  1  0  0  0  0
 13 12  2  0  0  0  0
 14 15  2  0  0  0  0
 15 16  1  0  0  0  0
 16  1  1  0  0  0  0
 17 16  2  0  0  0  0
 18 12  1  0  0  0  0
 19 13  1  0  0  0  0
 20 14  1  0  0  0  0
M  END
>  <minimizedAffinity>
-4.14195061

$$$$

 OpenBabel03242517513D

 20 21  0  0  0  0  0  0  0  0999 V2000
   35.9590   28.4630   40.0630 O   0  0  0  0  0  0  0  0  0  0  0  0
   36.5600   32.6890   41.5540 H   0  0  0  0  0  0  0  0  0  0  0  0
   36.6070   32.0230   40.7450 N   0  0  0  0  0  0  0  0  0  0  0  0
   36.2500   30.7520   41.0040 C   0  0  0  0  0  3  0  0  0  0  0  0
   36.2830   29.8080   39.9970 C   0  0  0  0  0  0  0  0  0  0  0  0
   36.6920   30.2240   38.7250 C   0  0  0  0  0  0  0  0  0  0  0  0
   36.7700   29.4720   37.7160 O   0  0  0  0  0  0  0  0  0  0  0  0
   37.0390   31.5210   38.5280 N   0  0  0  0  0  0  0  0  0  0  0  0
   37.0020   32.4320   39.5260 C   0  0  0  0  0  0  0  0  0  0  0  0
   37.3260   33.6480   39.3410 O   0  0  0  0  0  0  0  0  0  0  0  0
   37.3420   31.8490   37.6040 H   0  0  0  0  0  0  0  0  0  0  0  0
   38.2950   25.7870   40.3370 C   0  0  0  0  0  0  0  0  0  0  0  0
   38.4060   25.6030   41.7300 C   0  0  0  0  0  0  0  0  0  0  0  0
   37.6470   26.4310   42.5860 C   0  0  0  0  0  0  0  0  0  0  0  0
   36.8640   27.3510   41.9900 N   0  0  0  0  0  0  0  0  0  0  0  0
   36.7670   27.5160   40.6650 C   0  0  0  0  0  0  0  0  0  0  0  0
   37.4900   26.7260   39.8430 N   0  0  0  0  0  0  0  0  0  0  0  0
   38.8710   25.1580   39.6720 H   0  0  0  0  0  0  0  0  0  0  0  0
   39.0680   24.8320   42.1150 H   0  0  0  0  0  0  0  0  0  0  0  0
   37.7190   26.3060   43.6490 H   0  0  0  0  0  0  0  0  0  0  0  0
  1 16  1  0  0  0  0
  3  4  1  0  0  0  0
  3  2  1  0  0  0  0
  5  1  1  0  0  0  0
  5  4  2  0  0  0  0
  6  5  1  0  0  0  0
  7  6  2  0  0  0  0
  8  6  1  0  0  0  0
  8  9  1  0  0  0  0
  9  3  1  0  0  0  0
 10  9  2  0  0  0  0
 11  8  1  0  0  0  0
 12 13  1  0  0  0  0
 13 19  1  0  0  0  0
 13 14  2  0  0  0  0
 14 20  1  0  0  0  0
 15 14  1  0  0  0  0
 16 15  2  0  0  0  0
 17 12  2  0  0  0  0
 17 16  1  0  0  0  0
 18 12  1  0  0  0  0
M  END
>  <minimizedAffinity>
-4.13045549

$$$$
