
 OpenBabel03252509323D

 28 29  0  0  0  0  0  0  0  0999 V2000
   50.1740   33.0290   41.4930 O   0  0  0  0  0  0  0  0  0  0  0  0
   49.1700   34.1140   41.7240 P   0  0  2  0  0  0  0  0  0  0  0  0
   49.8530   35.5190   42.3530 O   0  0  0  0  0  0  0  0  0  0  0  0
   50.0140   35.4570   43.3280 H   0  0  0  0  0  0  0  0  0  0  0  0
   47.9950   33.5890   42.8220 O   0  0  0  0  0  0  0  0  0  0  0  0
   46.8070   34.2420   42.5020 C   0  0  0  0  0  0  0  0  0  0  0  0
   46.1580   33.5980   41.8410 H   0  0  0  0  0  0  0  0  0  0  0  0
   46.9590   35.1930   41.9520 H   0  0  0  0  0  0  0  0  0  0  0  0
   45.3650   34.0080   45.9380 C   0  0  0  0  0  0  0  0  0  0  0  0
   46.1290   33.6920   44.7950 C   0  0  0  0  0  0  0  0  0  0  0  0
   46.0230   34.5420   43.7110 C   0  0  0  0  0  0  0  0  0  0  0  0
   45.1960   35.6340   43.7980 N   0  0  0  0  0  0  0  0  0  0  0  0
   44.4800   35.9050   44.9090 C   0  0  0  0  0  0  0  0  0  0  0  0
   44.5670   35.0940   45.9700 N   0  0  0  0  0  0  0  0  0  0  0  0
   45.4240   33.3710   46.7920 H   0  0  0  0  0  0  0  0  0  0  0  0
   46.7760   32.8340   44.7350 H   0  0  0  0  0  0  0  0  0  0  0  0
   43.8620   36.7910   44.8630 H   0  0  0  0  0  0  0  0  0  0  0  0
   48.3870   34.4470   40.2600 O   0  0  0  0  0  0  0  0  0  0  0  0
   47.1340   30.4250   38.9600 H   0  0  0  0  0  0  0  0  0  0  0  0
   47.4660   31.3740   38.6410 N   0  0  0  0  0  0  0  0  0  0  0  0
   47.6940   32.2400   39.6380 C   0  0  0  0  0  3  0  0  0  0  0  0
   48.1370   33.5170   39.2860 C   0  0  0  0  0  0  0  0  0  0  0  0
   48.3120   33.8090   37.9390 C   0  0  0  0  0  0  0  0  0  0  0  0
   48.7100   34.9500   37.5880 O   0  0  0  0  0  0  0  0  0  0  0  0
   48.0490   32.8540   37.0220 N   0  0  0  0  0  0  0  0  0  0  0  0
   47.6170   31.6020   37.3450 C   0  0  0  0  0  0  0  0  0  0  0  0
   47.3910   30.7590   36.4410 O   0  0  0  0  0  0  0  0  0  0  0  0
   48.2030   33.1350   36.0090 H   0  0  0  0  0  0  0  0  0  0  0  0
  2  1  2  6  0  0  0
  2  3  1  0  0  0  0
  2  5  1  0  0  0  0
  3  4  1  0  0  0  0
  6  5  1  0  0  0  0
  6 11  1  0  0  0  0
  7  6  1  0  0  0  0
  8  6  1  0  0  0  0
  9 14  1  0  0  0  0
  9 15  1  0  0  0  0
 10  9  2  0  0  0  0
 11 12  2  0  0  0  0
 11 10  1  0  0  0  0
 12 13  1  0  0  0  0
 13 14  2  0  0  0  0
 16 10  1  0  0  0  0
 17 13  1  0  0  0  0
 18  2  1  0  0  0  0
 20 19  1  0  0  0  0
 20 21  1  0  0  0  0
 22 21  2  0  0  0  0
 22 18  1  0  0  0  0
 23 22  1  0  0  0  0
 24 23  2  0  0  0  0
 25 26  1  0  0  0  0
 25 23  1  0  0  0  0
 26 20  1  0  0  0  0
 27 26  2  0  0  0  0
 28 25  1  0  0  0  0
M  END
>  <minimizedAffinity>
-4.51567316

>  <minimizedRMSD>
0.859162509

$$$$
