
 OpenBabel03252507553D

 45 48  0  0  1  0  0  0  0  0999 V2000
   49.0190   32.2010   40.5080 C   0  0  2  0  0  0  0  0  0  0  0  0
   49.7480   31.5210   41.5670 C   0  0  0  0  0  0  0  0  0  0  0  0
   50.4120   31.8280   40.2620 C   0  0  1  0  0  0  0  0  0  0  0  0
   48.2390   31.6340   39.9670 H   0  0  0  0  0  0  0  0  0  0  0  0
   49.5870   30.4350   41.8160 H   0  0  0  0  0  0  0  0  0  0  0  0
   50.0440   32.0950   42.4600 H   0  0  0  0  0  0  0  0  0  0  0  0
   51.0710   32.7120   40.1340 H   0  0  0  0  0  0  0  0  0  0  0  0
   47.1070   34.8030   42.1070 C   0  0  2  0  0  0  0  0  0  0  0  0
   46.3180   34.3340   40.8810 C   0  0  0  0  0  0  0  0  0  0  0  0
   47.5170   34.1550   39.9230 C   0  0  0  0  0  0  0  0  0  0  0  0
   48.6240   33.6340   40.7850 C   0  0  1  0  0  0  0  0  0  0  0  0
   48.1090   33.6860   42.1940 C   0  0  0  0  0  0  0  0  0  0  0  0
   47.6000   35.7650   41.8700 H   0  0  0  0  0  0  0  0  0  0  0  0
   45.8890   33.3550   41.1150 H   0  0  0  0  0  0  0  0  0  0  0  0
   45.6290   35.0950   40.5100 H   0  0  0  0  0  0  0  0  0  0  0  0
   47.8010   35.2020   39.6330 H   0  0  0  0  0  0  0  0  0  0  0  0
   47.2460   33.5130   39.0800 H   0  0  0  0  0  0  0  0  0  0  0  0
   49.5430   34.2550   40.7400 H   0  0  0  0  0  0  0  0  0  0  0  0
   47.5870   32.7490   42.4720 H   0  0  0  0  0  0  0  0  0  0  0  0
   48.9130   33.9120   42.9210 H   0  0  0  0  0  0  0  0  0  0  0  0
   44.5290   35.8310   44.6530 C   0  0  0  0  0  0  0  0  0  0  0  0
   45.2650   35.8520   43.4730 C   0  0  0  0  0  0  0  0  0  0  0  0
   46.2350   34.8730   43.3120 C   0  0  0  0  0  0  0  0  0  0  0  0
   46.4460   33.9130   44.3110 N   0  0  0  0  0  0  0  0  0  0  0  0
   45.6960   33.9430   45.4460 C   0  0  0  0  0  0  0  0  0  0  0  0
   44.7440   34.9000   45.6080 N   0  0  0  0  0  0  0  0  0  0  0  0
   43.7570   36.5780   44.8230 H   0  0  0  0  0  0  0  0  0  0  0  0
   45.1100   36.5850   42.6980 H   0  0  0  0  0  0  0  0  0  0  0  0
   45.8920   33.1840   46.1900 H   0  0  0  0  0  0  0  0  0  0  0  0
   50.6450   30.7310   39.3910 O   0  0  0  0  0  0  0  0  0  0  0  0
   52.2260   30.0000   37.4510 O   0  0  0  0  0  0  0  0  0  0  0  0
   52.0600   31.0350   38.5360 P   0  0  1  0  0  0  0  0  0  0  0  0
   51.9650   32.5650   37.7670 O   0  0  0  0  0  0  0  0  0  0  0  0
   52.2380   33.2490   38.4100 H   0  0  0  0  0  0  0  0  0  0  0  0
   53.4310   31.0480   39.4690 O   0  0  0  0  0  0  0  0  0  0  0  0
   56.6800   27.9180   39.2900 H   0  0  0  0  0  0  0  0  0  0  0  0
   55.9060   28.3480   39.8360 N   0  0  0  0  0  0  0  0  0  0  0  0
   55.2730   29.3540   39.2400 C   0  0  0  0  0  3  0  0  0  0  0  0
   54.2230   30.0030   39.8740 C   0  0  0  0  0  0  0  0  0  0  0  0
   53.8700   29.5540   41.1500 C   0  0  0  0  0  0  0  0  0  0  0  0
   52.9570   29.9890   41.9080 O   0  0  0  0  0  0  0  0  0  0  0  0
   54.5460   28.5190   41.7220 N   0  0  0  0  0  0  0  0  0  0  0  0
   55.5530   27.9320   41.0600 C   0  0  0  0  0  0  0  0  0  0  0  0
   56.2200   26.9660   41.5400 O   0  0  0  0  0  0  0  0  0  0  0  0
   54.3450   28.1280   42.6670 H   0  0  0  0  0  0  0  0  0  0  0  0
  1  4  1  6  0  0  0
  1 11  1  0  0  0  0
  1  2  1  0  0  0  0
  2  5  1  0  0  0  0
  2  6  1  0  0  0  0
  3  7  1  6  0  0  0
  3  1  1  0  0  0  0
  3  2  1  0  0  0  0
  8 13  1  6  0  0  0
  8 12  1  0  0  0  0
  8 23  1  0  0  0  0
  9 14  1  0  0  0  0
  9  8  1  0  0  0  0
 10 11  1  0  0  0  0
 10  9  1  0  0  0  0
 11 18  1  6  0  0  0
 11 12  1  0  0  0  0
 12 19  1  0  0  0  0
 12 20  1  0  0  0  0
 15  9  1  0  0  0  0
 16 10  1  0  0  0  0
 17 10  1  0  0  0  0
 21 27  1  0  0  0  0
 21 26  1  0  0  0  0
 22 21  2  0  0  0  0
 23 22  1  0  0  0  0
 23 24  2  0  0  0  0
 24 25  1  0  0  0  0
 25 26  2  0  0  0  0
 25 29  1  0  0  0  0
 28 22  1  0  0  0  0
 30  3  1  0  0  0  0
 32 31  2  6  0  0  0
 32 30  1  0  0  0  0
 32 35  1  0  0  0  0
 33 34  1  0  0  0  0
 33 32  1  0  0  0  0
 35 39  1  0  0  0  0
 36 37  1  0  0  0  0
 37 43  1  0  0  0  0
 38 37  1  0  0  0  0
 38 39  2  0  0  0  0
 39 40  1  0  0  0  0
 40 42  1  0  0  0  0
 40 41  2  0  0  0  0
 42 45  1  0  0  0  0
 43 44  2  0  0  0  0
 43 42  1  0  0  0  0
M  END
>  <minimizedAffinity>
-5.18933678

>  <minimizedRMSD>
1.38219833

$$$$
