
 OpenBabel03252504313D

 34 35  0  0  0  0  0  0  0  0999 V2000
   45.3520   35.4680   43.4660 C   0  0  0  0  0  0  0  0  0  0  0  0
   45.2190   36.4240   44.0300 H   0  0  0  0  0  0  0  0  0  0  0  0
   46.1340   35.6550   42.7050 H   0  0  0  0  0  0  0  0  0  0  0  0
   43.7780   35.6670   41.4770 C   0  0  0  0  0  0  0  0  0  0  0  0
   44.0900   35.1540   42.6750 C   0  0  0  0  0  0  0  0  0  0  0  0
   42.5750   35.2500   40.9200 O   0  0  0  0  0  0  0  0  0  0  0  0
   41.3130   35.7110   41.2090 C   0  0  0  0  0  0  0  0  0  0  0  0
   41.2780   35.9030   42.3270 H   0  0  0  0  0  0  0  0  0  0  0  0
   41.1140   36.6650   40.7170 H   0  0  0  0  0  0  0  0  0  0  0  0
   40.2860   33.5850   41.6360 C   0  0  0  0  0  0  0  0  0  0  0  0
   40.2330   34.7580   40.8590 C   0  0  0  0  0  0  0  0  0  0  0  0
   39.2380   34.8590   39.9330 C   0  0  0  0  0  0  0  0  0  0  0  0
   38.3870   33.8430   39.8290 N   0  0  0  0  0  0  0  0  0  0  0  0
   38.4250   32.7310   40.5540 C   0  0  0  0  0  0  0  0  0  0  0  0
   39.4090   32.5430   41.5250 N   0  0  0  0  0  0  0  0  0  0  0  0
   41.0250   33.3770   42.4050 H   0  0  0  0  0  0  0  0  0  0  0  0
   39.2640   35.7790   39.3820 H   0  0  0  0  0  0  0  0  0  0  0  0
   37.6840   31.9600   40.3920 H   0  0  0  0  0  0  0  0  0  0  0  0
   45.6120   34.3730   44.2580 O   0  0  0  0  0  0  0  0  0  0  0  0
   46.5430   32.7170   42.3990 O   0  0  0  0  0  0  0  0  0  0  0  0
   46.8990   33.4480   43.6560 P   0  0  1  0  0  0  0  0  0  0  0  0
   48.2190   34.4580   43.3310 O   0  0  0  0  0  0  0  0  0  0  0  0
   48.5400   34.8810   44.1630 H   0  0  0  0  0  0  0  0  0  0  0  0
   47.3900   32.3580   44.8630 O   0  0  0  0  0  0  0  0  0  0  0  0
   46.4680   33.2020   49.0840 H   0  0  0  0  0  0  0  0  0  0  0  0
   46.2760   32.6050   48.2470 N   0  0  0  0  0  0  0  0  0  0  0  0
   46.9070   32.7920   47.0530 C   0  0  0  0  0  0  0  0  0  0  0  0
   46.6290   31.9760   45.9520 C   0  0  0  0  0  0  0  0  0  0  0  0
   45.6900   30.9680   46.1010 C   0  0  0  0  0  0  0  0  0  0  0  0
   45.5360   30.3140   45.0400 O   0  0  0  0  0  0  0  0  0  0  0  0
   45.0930   30.8210   47.2940 N   0  0  0  0  0  0  0  0  0  0  0  0
   45.3730   31.6060   48.3270 C   0  0  0  0  0  0  0  0  0  0  0  0
   44.7540   31.3860   49.4120 O   0  0  0  0  0  0  0  0  0  0  0  0
   44.4060   30.0470   47.3230 H   0  0  0  0  0  0  0  0  0  0  0  0
  1  2  1  0  0  0  0
  1 19  1  0  0  0  0
  3  1  1  0  0  0  0
  4  5  2  0  0  0  0
  5  1  1  0  0  0  0
  6  7  1  0  0  0  0
  6  4  1  0  0  0  0
  7  8  1  0  0  0  0
  9  7  1  0  0  0  0
 10 16  1  0  0  0  0
 11  7  1  0  0  0  0
 11 10  2  0  0  0  0
 12 11  1  0  0  0  0
 13 12  2  0  0  0  0
 13 14  1  0  0  0  0
 14 15  2  0  0  0  0
 15 10  1  0  0  0  0
 17 12  1  0  0  0  0
 18 14  1  0  0  0  0
 21 20  2  6  0  0  0
 21 19  1  0  0  0  0
 21 24  1  0  0  0  0
 22 21  1  0  0  0  0
 22 23  1  0  0  0  0
 24 28  1  0  0  0  0
 26 32  1  0  0  0  0
 26 25  1  0  0  0  0
 27 26  1  0  0  0  0
 28 29  1  0  0  0  0
 28 27  2  0  0  0  0
 29 31  1  0  0  0  0
 30 29  2  0  0  0  0
 31 34  1  0  0  0  0
 31 32  1  0  0  0  0
 32 33  2  0  0  0  0
M  END
>  <minimizedAffinity>
-5.50540638

>  <minimizedRMSD>
1.46998405

$$$$
