
 OpenBabel03252507553D

 45 48  0  0  1  0  0  0  0  0999 V2000
   48.9210   32.2060   40.4540 C   0  0  2  0  0  0  0  0  0  0  0  0
   49.6210   31.4630   41.4910 C   0  0  0  0  0  0  0  0  0  0  0  0
   50.3040   31.7980   40.2020 C   0  0  1  0  0  0  0  0  0  0  0  0
   48.1290   31.6850   39.8860 H   0  0  0  0  0  0  0  0  0  0  0  0
   49.4230   30.3740   41.6970 H   0  0  0  0  0  0  0  0  0  0  0  0
   49.9280   31.9930   42.4070 H   0  0  0  0  0  0  0  0  0  0  0  0
   50.9920   32.6640   40.1130 H   0  0  0  0  0  0  0  0  0  0  0  0
   47.0940   34.8050   42.1520 C   0  0  2  0  0  0  0  0  0  0  0  0
   46.2870   34.4040   40.9140 C   0  0  0  0  0  0  0  0  0  0  0  0
   47.4770   34.2230   39.9450 C   0  0  0  0  0  0  0  0  0  0  0  0
   48.5710   33.6400   40.7830 C   0  0  1  0  0  0  0  0  0  0  0  0
   48.0630   33.6570   42.1950 C   0  0  0  0  0  0  0  0  0  0  0  0
   47.6150   35.7600   41.9470 H   0  0  0  0  0  0  0  0  0  0  0  0
   45.8290   33.4300   41.1160 H   0  0  0  0  0  0  0  0  0  0  0  0
   45.6200   35.1970   40.5730 H   0  0  0  0  0  0  0  0  0  0  0  0
   47.7910   35.2710   39.6900 H   0  0  0  0  0  0  0  0  0  0  0  0
   47.1840   33.6200   39.0810 H   0  0  0  0  0  0  0  0  0  0  0  0
   49.5070   34.2340   40.7550 H   0  0  0  0  0  0  0  0  0  0  0  0
   47.5140   32.7270   42.4420 H   0  0  0  0  0  0  0  0  0  0  0  0
   48.8750   33.8340   42.9260 H   0  0  0  0  0  0  0  0  0  0  0  0
   44.5250   35.7930   44.7230 C   0  0  0  0  0  0  0  0  0  0  0  0
   45.2530   35.8310   43.5390 C   0  0  0  0  0  0  0  0  0  0  0  0
   46.2290   34.8590   43.3630 C   0  0  0  0  0  0  0  0  0  0  0  0
   46.4520   33.8910   44.3520 N   0  0  0  0  0  0  0  0  0  0  0  0
   45.7090   33.9060   45.4910 C   0  0  0  0  0  0  0  0  0  0  0  0
   44.7510   34.8550   45.6680 N   0  0  0  0  0  0  0  0  0  0  0  0
   43.7490   36.5340   44.9040 H   0  0  0  0  0  0  0  0  0  0  0  0
   45.0900   36.5700   42.7720 H   0  0  0  0  0  0  0  0  0  0  0  0
   45.9140   33.1410   46.2270 H   0  0  0  0  0  0  0  0  0  0  0  0
   50.5080   30.7280   39.2920 O   0  0  0  0  0  0  0  0  0  0  0  0
   51.3350   30.3030   36.8560 O   0  0  0  0  0  0  0  0  0  0  0  0
   51.3520   31.3250   37.9660 P   0  0  1  0  0  0  0  0  0  0  0  0
   50.5820   32.7360   37.3670 O   0  0  0  0  0  0  0  0  0  0  0  0
   50.9040   33.5020   37.8820 H   0  0  0  0  0  0  0  0  0  0  0  0
   52.9270   31.7330   38.2870 O   0  0  0  0  0  0  0  0  0  0  0  0
   56.6640   29.9380   36.5010 H   0  0  0  0  0  0  0  0  0  0  0  0
   56.0260   29.9990   37.3200 N   0  0  0  0  0  0  0  0  0  0  0  0
   54.9820   30.8090   37.1740 C   0  0  0  0  0  0  0  0  0  0  0  0
   54.0630   30.9680   38.2020 C   0  0  0  0  0  0  0  0  0  0  0  0
   54.2860   30.2460   39.3780 C   0  0  0  0  0  0  0  0  0  0  0  0
   53.5910   30.2350   40.4330 O   0  0  0  0  0  0  0  0  0  0  0  0
   55.3700   29.4280   39.4830 N   0  0  0  0  0  0  0  0  0  0  0  0
   56.2240   29.3140   38.4550 C   0  0  0  0  0  0  0  0  0  0  0  0
   57.2480   28.5700   38.4920 O   0  0  0  0  0  0  0  0  0  0  0  0
   55.6060   28.8580   40.3240 H   0  0  0  0  0  0  0  0  0  0  0  0
  1  4  1  6  0  0  0
  1 11  1  0  0  0  0
  1  2  1  0  0  0  0
  2  5  1  0  0  0  0
  2  6  1  0  0  0  0
  3  7  1  1  0  0  0
  3  1  1  0  0  0  0
  3  2  1  0  0  0  0
  8 13  1  6  0  0  0
  8 12  1  0  0  0  0
  8 23  1  0  0  0  0
  9 14  1  0  0  0  0
  9  8  1  0  0  0  0
 10 11  1  0  0  0  0
 10  9  1  0  0  0  0
 11 18  1  6  0  0  0
 11 12  1  0  0  0  0
 12 19  1  0  0  0  0
 12 20  1  0  0  0  0
 15  9  1  0  0  0  0
 16 10  1  0  0  0  0
 17 10  1  0  0  0  0
 21 27  1  0  0  0  0
 21 26  1  0  0  0  0
 22 21  2  0  0  0  0
 23 22  1  0  0  0  0
 23 24  2  0  0  0  0
 24 25  1  0  0  0  0
 25 26  2  0  0  0  0
 25 29  1  0  0  0  0
 28 22  1  0  0  0  0
 30  3  1  0  0  0  0
 32 31  2  6  0  0  0
 32 35  1  0  0  0  0
 32 30  1  0  0  0  0
 33 34  1  0  0  0  0
 33 32  1  0  0  0  0
 36 37  1  0  0  0  0
 37 43  1  0  0  0  0
 38 37  1  0  0  0  0
 38 39  2  0  0  0  0
 39 35  1  0  0  0  0
 39 40  1  0  0  0  0
 40 42  1  0  0  0  0
 40 41  2  0  0  0  0
 42 45  1  0  0  0  0
 43 44  2  0  0  0  0
 43 42  1  0  0  0  0
M  END
>  <minimizedAffinity>
-5.48907518

>  <minimizedRMSD>
1.95009601

$$$$
