
 OpenBabel03252502243D

 35 37  0  0  1  0  0  0  0  0999 V2000
   46.8420   34.6020   42.3100 N   0  0  0  0  0  0  0  0  0  0  0  0
   48.2920   34.4980   42.3940 C   0  0  0  0  0  0  0  0  0  0  0  0
   48.7770   35.3300   41.1860 C   0  0  0  0  0  0  0  0  0  0  0  0
   48.3860   34.6320   39.9240 C   0  0  0  0  0  0  0  0  0  0  0  0
   46.9920   34.1000   39.9220 C   0  0  0  0  0  0  0  0  0  0  0  0
   46.1180   34.5310   41.0630 C   0  0  1  0  0  0  0  0  0  0  0  0
   48.6220   33.4480   42.2670 H   0  0  0  0  0  0  0  0  0  0  0  0
   48.6580   34.9850   43.3110 H   0  0  0  0  0  0  0  0  0  0  0  0
   49.8890   35.3380   41.2940 H   0  0  0  0  0  0  0  0  0  0  0  0
   48.3460   36.3430   41.3020 H   0  0  0  0  0  0  0  0  0  0  0  0
   49.0930   33.7630   39.8110 H   0  0  0  0  0  0  0  0  0  0  0  0
   48.6270   35.2950   39.0710 H   0  0  0  0  0  0  0  0  0  0  0  0
   46.5000   34.4870   38.9810 H   0  0  0  0  0  0  0  0  0  0  0  0
   46.9520   32.9940   39.8240 H   0  0  0  0  0  0  0  0  0  0  0  0
   45.7910   35.5650   40.8410 H   0  0  0  0  0  0  0  0  0  0  0  0
   44.4720   35.9880   44.8560 C   0  0  0  0  0  0  0  0  0  0  0  0
   45.1910   35.8950   43.6580 C   0  0  0  0  0  0  0  0  0  0  0  0
   46.0630   34.7840   43.5010 C   0  0  0  0  0  0  0  0  0  0  0  0
   46.1470   33.8790   44.5220 N   0  0  0  0  0  0  0  0  0  0  0  0
   45.4300   34.0150   45.6590 C   0  0  0  0  0  0  0  0  0  0  0  0
   44.5890   35.0780   45.8180 N   0  0  0  0  0  0  0  0  0  0  0  0
   43.8620   36.8780   44.8170 H   0  0  0  0  0  0  0  0  0  0  0  0
   45.1730   36.5650   42.8210 H   0  0  0  0  0  0  0  0  0  0  0  0
   45.4720   33.3260   46.4740 H   0  0  0  0  0  0  0  0  0  0  0  0
   45.1000   33.6040   41.1950 O   0  0  0  0  0  0  0  0  0  0  0  0
   42.8940   31.6700   37.9360 H   0  0  0  0  0  0  0  0  0  0  0  0
   42.8850   32.3350   38.7350 N   0  0  0  0  0  0  0  0  0  0  0  0
   43.9660   32.6120   39.5220 C   0  0  0  0  0  3  0  0  0  0  0  0
   43.8840   33.5240   40.5870 C   0  0  0  0  0  0  0  0  0  0  0  0
   42.6500   34.1100   40.7760 C   0  0  0  0  0  0  0  0  0  0  0  0
   42.6710   34.9090   41.7480 O   0  0  0  0  0  0  0  0  0  0  0  0
   41.6180   33.8030   39.9730 N   0  0  0  0  0  0  0  0  0  0  0  0
   41.7160   32.9390   38.9710 C   0  0  0  0  0  0  0  0  0  0  0  0
   40.6780   32.7280   38.2820 O   0  0  0  0  0  0  0  0  0  0  0  0
   40.7240   34.3190   40.2210 H   0  0  0  0  0  0  0  0  0  0  0  0
  1  2  1  0  0  0  0
  1 18  1  0  0  0  0
  2  8  1  0  0  0  0
  3  9  1  0  0  0  0
  3 10  1  0  0  0  0
  3  2  1  0  0  0  0
  4  3  1  0  0  0  0
  5  4  1  0  0  0  0
  5  6  1  0  0  0  0
  6 15  1  6  0  0  0
  6 25  1  0  0  0  0
  6  1  1  0  0  0  0
  7  2  1  0  0  0  0
 11  4  1  0  0  0  0
 12  4  1  0  0  0  0
 13  5  1  0  0  0  0
 14  5  1  0  0  0  0
 16 21  1  0  0  0  0
 17 16  2  0  0  0  0
 18 17  1  0  0  0  0
 18 19  2  0  0  0  0
 19 20  1  0  0  0  0
 20 21  2  0  0  0  0
 20 24  1  0  0  0  0
 22 16  1  0  0  0  0
 23 17  1  0  0  0  0
 26 27  1  0  0  0  0
 27 33  1  0  0  0  0
 27 28  1  0  0  0  0
 28 29  2  0  0  0  0
 29 30  1  0  0  0  0
 29 25  1  0  0  0  0
 30 31  2  0  0  0  0
 32 35  1  0  0  0  0
 32 30  1  0  0  0  0
 33 32  1  0  0  0  0
 34 33  2  0  0  0  0
M  END
>  <minimizedAffinity>
-5.5669136

>  <minimizedRMSD>
0.985019326

$$$$
