
 OpenBabel03252500553D

 31 32  0  0  0  0  0  0  0  0999 V2000
   38.1960   30.5090   41.8180 O   0  0  0  0  0  0  0  0  0  0  0  0
   38.7550   28.4520   42.8670 C   0  0  0  0  0  0  0  0  0  0  0  0
   39.0740   29.4310   41.9310 C   0  0  0  0  0  0  0  0  0  0  0  0
   40.2610   29.2460   41.1760 C   0  0  0  0  0  0  0  0  0  0  0  0
   40.9860   28.1410   41.4240 N   0  0  0  0  0  0  0  0  0  0  0  0
   40.6480   27.2200   42.3330 C   0  0  0  0  0  0  0  0  0  0  0  0
   39.5410   27.3850   43.0410 N   0  0  0  0  0  0  0  0  0  0  0  0
   40.4650   30.0170   40.4750 H   0  0  0  0  0  0  0  0  0  0  0  0
   41.3110   26.3720   42.4430 H   0  0  0  0  0  0  0  0  0  0  0  0
   37.5460   28.5770   43.6790 C   0  0  0  0  0  0  0  0  0  0  0  0
   37.7390   28.5480   44.7850 H   0  0  0  0  0  0  0  0  0  0  0  0
   37.0300   29.5380   43.4640 H   0  0  0  0  0  0  0  0  0  0  0  0
   36.5910   27.4640   43.3180 C   0  0  0  0  0  0  0  0  0  0  0  0
   37.1560   26.5140   43.4130 H   0  0  0  0  0  0  0  0  0  0  0  0
   36.2180   27.6130   42.2860 H   0  0  0  0  0  0  0  0  0  0  0  0
   35.7300   27.3910   43.9980 H   0  0  0  0  0  0  0  0  0  0  0  0
   36.9640   29.4540   39.7640 O   0  0  0  0  0  0  0  0  0  0  0  0
   37.0380   30.7240   40.6070 P   0  0  1  0  0  0  0  0  0  0  0  0
   35.5370   30.9720   41.3500 O   0  0  0  0  0  0  0  0  0  0  0  0
   35.6920   31.7220   42.0090 H   0  0  0  0  0  0  0  0  0  0  0  0
   37.3670   32.0670   39.6270 O   0  0  0  0  0  0  0  0  0  0  0  0
   41.7510   33.0950   39.3780 H   0  0  0  0  0  0  0  0  0  0  0  0
   40.8900   32.7780   38.8600 N   0  0  0  0  0  0  0  0  0  0  0  0
   39.7850   32.6640   39.6350 C   0  0  0  0  0  3  0  0  0  0  0  0
   38.6190   32.2600   39.0610 C   0  0  0  0  0  0  0  0  0  0  0  0
   38.6000   31.9780   37.6980 C   0  0  0  0  0  0  0  0  0  0  0  0
   37.5960   31.5970   37.0350 O   0  0  0  0  0  0  0  0  0  0  0  0
   39.7430   32.1120   36.9690 N   0  0  0  0  0  0  0  0  0  0  0  0
   40.8950   32.5150   37.5590 C   0  0  0  0  0  0  0  0  0  0  0  0
   41.9840   32.6650   36.9770 O   0  0  0  0  0  0  0  0  0  0  0  0
   39.7650   31.9100   35.9430 H   0  0  0  0  0  0  0  0  0  0  0  0
  1  3  1  0  0  0  0
  2  7  1  0  0  0  0
  2 10  1  0  0  0  0
  3  2  2  0  0  0  0
  4  5  2  0  0  0  0
  4  3  1  0  0  0  0
  5  6  1  0  0  0  0
  6  9  1  0  0  0  0
  6  7  2  0  0  0  0
  8  4  1  0  0  0  0
 10 11  1  0  0  0  0
 12 10  1  0  0  0  0
 13 14  1  0  0  0  0
 13 10  1  0  0  0  0
 13 16  1  0  0  0  0
 15 13  1  0  0  0  0
 18 17  2  6  0  0  0
 18 19  1  0  0  0  0
 18  1  1  0  0  0  0
 19 20  1  0  0  0  0
 21 18  1  0  0  0  0
 23 22  1  0  0  0  0
 23 24  1  0  0  0  0
 25 21  1  0  0  0  0
 25 24  2  0  0  0  0
 26 25  1  0  0  0  0
 27 26  2  0  0  0  0
 28 29  1  0  0  0  0
 28 26  1  0  0  0  0
 29 23  1  0  0  0  0
 30 29  2  0  0  0  0
 31 28  1  0  0  0  0
M  END
>  <minimizedAffinity>
-5.63548899

$$$$

 OpenBabel03252500553D

 31 32  0  0  0  0  0  0  0  0999 V2000
   37.1120   28.7410   40.7630 O   0  0  0  0  0  0  0  0  0  0  0  0
   37.0440   26.6890   41.9590 C   0  0  0  0  0  0  0  0  0  0  0  0
   37.0540   27.3470   40.7330 C   0  0  0  0  0  0  0  0  0  0  0  0
   37.0030   26.5450   39.5640 C   0  0  0  0  0  0  0  0  0  0  0  0
   36.9500   25.2120   39.7310 N   0  0  0  0  0  0  0  0  0  0  0  0
   36.9440   24.6130   40.9260 C   0  0  0  0  0  0  0  0  0  0  0  0
   36.9900   25.3540   42.0220 N   0  0  0  0  0  0  0  0  0  0  0  0
   37.0120   27.0900   38.6520 H   0  0  0  0  0  0  0  0  0  0  0  0
   36.8990   23.5320   40.9340 H   0  0  0  0  0  0  0  0  0  0  0  0
   37.0940   27.4520   43.2040 C   0  0  0  0  0  0  0  0  0  0  0  0
   36.6830   28.4930   43.1140 H   0  0  0  0  0  0  0  0  0  0  0  0
   36.5090   26.9380   43.9990 H   0  0  0  0  0  0  0  0  0  0  0  0
   38.5260   27.5290   43.6800 C   0  0  0  0  0  0  0  0  0  0  0  0
   39.1230   27.9240   42.8320 H   0  0  0  0  0  0  0  0  0  0  0  0
   38.8720   26.5230   43.9850 H   0  0  0  0  0  0  0  0  0  0  0  0
   38.6690   28.2230   44.5200 H   0  0  0  0  0  0  0  0  0  0  0  0
   34.5530   29.0560   40.3150 O   0  0  0  0  0  0  0  0  0  0  0  0
   35.8860   29.7970   40.2760 P   0  0  1  0  0  0  0  0  0  0  0  0
   35.8280   31.0820   41.3770 O   0  0  0  0  0  0  0  0  0  0  0  0
   36.7760   31.4290   41.4230 H   0  0  0  0  0  0  0  0  0  0  0  0
   36.1610   30.4400   38.7320 O   0  0  0  0  0  0  0  0  0  0  0  0
   40.2310   29.9010   36.8640 H   0  0  0  0  0  0  0  0  0  0  0  0
   39.5640   30.5580   37.3490 N   0  0  0  0  0  0  0  0  0  0  0  0
   38.3720   30.0010   37.6720 C   0  0  0  0  0  3  0  0  0  0  0  0
   37.4390   30.7660   38.3020 C   0  0  0  0  0  0  0  0  0  0  0  0
   37.7400   32.0940   38.5920 C   0  0  0  0  0  0  0  0  0  0  0  0
   36.9760   32.9170   39.1690 O   0  0  0  0  0  0  0  0  0  0  0  0
   38.9560   32.5990   38.2430 N   0  0  0  0  0  0  0  0  0  0  0  0
   39.8730   31.8200   37.6160 C   0  0  0  0  0  0  0  0  0  0  0  0
   41.0040   32.1910   37.2600 O   0  0  0  0  0  0  0  0  0  0  0  0
   39.2160   33.5910   38.4450 H   0  0  0  0  0  0  0  0  0  0  0  0
  2  7  1  0  0  0  0
  2 10  1  0  0  0  0
  3  1  1  0  0  0  0
  3  2  2  0  0  0  0
  4  5  2  0  0  0  0
  4  3  1  0  0  0  0
  5  6  1  0  0  0  0
  6  9  1  0  0  0  0
  6  7  2  0  0  0  0
  8  4  1  0  0  0  0
 10 13  1  0  0  0  0
 10 12  1  0  0  0  0
 11 10  1  0  0  0  0
 13 15  1  0  0  0  0
 13 16  1  0  0  0  0
 14 13  1  0  0  0  0
 18 17  2  1  0  0  0
 18  1  1  0  0  0  0
 18 19  1  0  0  0  0
 19 20  1  0  0  0  0
 21 18  1  0  0  0  0
 22 23  1  0  0  0  0
 23 29  1  0  0  0  0
 23 24  1  0  0  0  0
 24 25  2  0  0  0  0
 25 26  1  0  0  0  0
 25 21  1  0  0  0  0
 26 27  2  0  0  0  0
 28 31  1  0  0  0  0
 28 26  1  0  0  0  0
 29 28  1  0  0  0  0
 30 29  2  0  0  0  0
M  END
>  <minimizedAffinity>
-5.55090427

$$$$

 OpenBabel03252500553D

 31 32  0  0  0  0  0  0  0  0999 V2000
   37.8110   29.6260   40.3320 O   0  0  0  0  0  0  0  0  0  0  0  0
   39.1270   28.8880   42.1680 C   0  0  0  0  0  0  0  0  0  0  0  0
   37.9510   28.7790   41.4320 C   0  0  0  0  0  0  0  0  0  0  0  0
   37.0000   27.8190   41.8650 C   0  0  0  0  0  0  0  0  0  0  0  0
   37.3090   27.0890   42.9520 N   0  0  0  0  0  0  0  0  0  0  0  0
   38.4510   27.2210   43.6340 C   0  0  0  0  0  0  0  0  0  0  0  0
   39.3430   28.1150   43.2370 N   0  0  0  0  0  0  0  0  0  0  0  0
   36.1180   27.7710   41.2750 H   0  0  0  0  0  0  0  0  0  0  0  0
   38.5870   26.5770   44.4930 H   0  0  0  0  0  0  0  0  0  0  0  0
   40.1510   29.8560   41.7790 C   0  0  0  0  0  0  0  0  0  0  0  0
   41.1960   29.4460   41.8100 H   0  0  0  0  0  0  0  0  0  0  0  0
   39.9720   30.2170   40.7430 H   0  0  0  0  0  0  0  0  0  0  0  0
   40.0680   31.0560   42.6930 C   0  0  0  0  0  0  0  0  0  0  0  0
   40.1180   30.6710   43.7320 H   0  0  0  0  0  0  0  0  0  0  0  0
   39.1210   31.6010   42.5080 H   0  0  0  0  0  0  0  0  0  0  0  0
   40.9070   31.7560   42.5710 H   0  0  0  0  0  0  0  0  0  0  0  0
   35.5160   29.7780   39.0850 O   0  0  0  0  0  0  0  0  0  0  0  0
   36.4610   30.5770   39.9770 P   0  0  1  0  0  0  0  0  0  0  0  0
   35.6690   30.9350   41.4300 O   0  0  0  0  0  0  0  0  0  0  0  0
   36.3860   31.3170   42.0300 H   0  0  0  0  0  0  0  0  0  0  0  0
   36.8790   32.0420   39.2320 O   0  0  0  0  0  0  0  0  0  0  0  0
   40.0470   31.6760   36.0430 H   0  0  0  0  0  0  0  0  0  0  0  0
   39.7910   32.0600   36.9900 N   0  0  0  0  0  0  0  0  0  0  0  0
   38.5320   31.7590   37.3910 C   0  0  0  0  0  3  0  0  0  0  0  0
   38.1030   32.2090   38.6010 C   0  0  0  0  0  0  0  0  0  0  0  0
   38.9710   32.9630   39.3870 C   0  0  0  0  0  0  0  0  0  0  0  0
   38.7110   33.4430   40.5250 O   0  0  0  0  0  0  0  0  0  0  0  0
   40.2260   33.2330   38.9320 N   0  0  0  0  0  0  0  0  0  0  0  0
   40.6350   32.7760   37.7220 C   0  0  0  0  0  0  0  0  0  0  0  0
   41.7570   32.9710   37.2250 O   0  0  0  0  0  0  0  0  0  0  0  0
   40.9040   33.7950   39.4950 H   0  0  0  0  0  0  0  0  0  0  0  0
  1  3  1  0  0  0  0
  2  7  1  0  0  0  0
  3  4  1  0  0  0  0
  3  2  2  0  0  0  0
  4  5  2  0  0  0  0
  5  6  1  0  0  0  0
  6  9  1  0  0  0  0
  7  6  2  0  0  0  0
  8  4  1  0  0  0  0
 10 11  1  0  0  0  0
 10  2  1  0  0  0  0
 10 13  1  0  0  0  0
 12 10  1  0  0  0  0
 13 14  1  0  0  0  0
 15 13  1  0  0  0  0
 16 13  1  0  0  0  0
 18 17  2  6  0  0  0
 18  1  1  0  0  0  0
 18 19  1  0  0  0  0
 19 20  1  0  0  0  0
 21 18  1  0  0  0  0
 22 23  1  0  0  0  0
 23 24  1  0  0  0  0
 23 29  1  0  0  0  0
 24 25  2  0  0  0  0
 25 21  1  0  0  0  0
 25 26  1  0  0  0  0
 26 27  2  0  0  0  0
 28 26  1  0  0  0  0
 28 31  1  0  0  0  0
 29 28  1  0  0  0  0
 30 29  2  0  0  0  0
M  END
>  <minimizedAffinity>
-5.52708721

$$$$

 OpenBabel03252500553D

 31 32  0  0  0  0  0  0  0  0999 V2000
   37.0210   28.5260   40.4990 O   0  0  0  0  0  0  0  0  0  0  0  0
   38.3620   27.8940   42.3560 C   0  0  0  0  0  0  0  0  0  0  0  0
   38.1750   28.7270   41.2580 C   0  0  0  0  0  0  0  0  0  0  0  0
   39.1720   29.7050   41.0060 C   0  0  0  0  0  0  0  0  0  0  0  0
   40.2190   29.7510   41.8490 N   0  0  0  0  0  0  0  0  0  0  0  0
   40.3660   28.9330   42.8960 C   0  0  0  0  0  0  0  0  0  0  0  0
   39.4410   28.0180   43.1370 N   0  0  0  0  0  0  0  0  0  0  0  0
   38.9880   30.3170   40.1580 H   0  0  0  0  0  0  0  0  0  0  0  0
   41.2520   29.0660   43.5030 H   0  0  0  0  0  0  0  0  0  0  0  0
   37.3760   26.8640   42.6750 C   0  0  0  0  0  0  0  0  0  0  0  0
   36.8210   26.4760   41.7790 H   0  0  0  0  0  0  0  0  0  0  0  0
   37.8670   25.9910   43.1580 H   0  0  0  0  0  0  0  0  0  0  0  0
   36.3800   27.4230   43.6650 C   0  0  0  0  0  0  0  0  0  0  0  0
   35.9900   28.3650   43.2280 H   0  0  0  0  0  0  0  0  0  0  0  0
   36.8810   27.6030   44.6360 H   0  0  0  0  0  0  0  0  0  0  0  0
   35.5140   26.7660   43.8300 H   0  0  0  0  0  0  0  0  0  0  0  0
   34.4630   28.9980   40.2140 O   0  0  0  0  0  0  0  0  0  0  0  0
   35.8280   29.6780   40.1810 P   0  0  1  0  0  0  0  0  0  0  0  0
   35.8840   30.8480   41.4040 O   0  0  0  0  0  0  0  0  0  0  0  0
   36.8490   31.1460   41.4360 H   0  0  0  0  0  0  0  0  0  0  0  0
   36.0630   30.4610   38.6950 O   0  0  0  0  0  0  0  0  0  0  0  0
   40.0360   29.9760   36.6160 H   0  0  0  0  0  0  0  0  0  0  0  0
   39.4110   30.6040   37.1860 N   0  0  0  0  0  0  0  0  0  0  0  0
   38.2150   30.0560   37.5070 C   0  0  0  0  0  3  0  0  0  0  0  0
   37.3330   30.7870   38.2430 C   0  0  0  0  0  0  0  0  0  0  0  0
   37.6900   32.0730   38.6400 C   0  0  0  0  0  0  0  0  0  0  0  0
   36.9780   32.8610   39.3220 O   0  0  0  0  0  0  0  0  0  0  0  0
   38.9080   32.5710   38.2870 N   0  0  0  0  0  0  0  0  0  0  0  0
   39.7730   31.8270   37.5540 C   0  0  0  0  0  0  0  0  0  0  0  0
   40.9010   32.1960   37.1860 O   0  0  0  0  0  0  0  0  0  0  0  0
   39.2090   33.5320   38.5690 H   0  0  0  0  0  0  0  0  0  0  0  0
  1  3  1  0  0  0  0
  2 10  1  0  0  0  0
  2  7  1  0  0  0  0
  3  2  2  0  0  0  0
  4  3  1  0  0  0  0
  4  5  2  0  0  0  0
  5  6  1  0  0  0  0
  6  7  2  0  0  0  0
  6  9  1  0  0  0  0
  8  4  1  0  0  0  0
 10 12  1  0  0  0  0
 10 13  1  0  0  0  0
 11 10  1  0  0  0  0
 13 16  1  0  0  0  0
 13 15  1  0  0  0  0
 14 13  1  0  0  0  0
 18 17  2  1  0  0  0
 18  1  1  0  0  0  0
 18 19  1  0  0  0  0
 19 20  1  0  0  0  0
 21 18  1  0  0  0  0
 22 23  1  0  0  0  0
 23 24  1  0  0  0  0
 23 29  1  0  0  0  0
 24 25  2  0  0  0  0
 25 26  1  0  0  0  0
 25 21  1  0  0  0  0
 26 27  2  0  0  0  0
 28 31  1  0  0  0  0
 28 26  1  0  0  0  0
 29 28  1  0  0  0  0
 30 29  2  0  0  0  0
M  END
>  <minimizedAffinity>
-5.35928965

$$$$

 OpenBabel03252500553D

 31 32  0  0  0  0  0  0  0  0999 V2000
   37.5750   28.8150   40.3690 O   0  0  0  0  0  0  0  0  0  0  0  0
   37.7930   26.9670   41.8470 C   0  0  0  0  0  0  0  0  0  0  0  0
   37.3450   27.4630   40.6260 C   0  0  0  0  0  0  0  0  0  0  0  0
   36.6950   26.5520   39.7540 C   0  0  0  0  0  0  0  0  0  0  0  0
   36.5640   25.2810   40.1730 N   0  0  0  0  0  0  0  0  0  0  0  0
   37.0080   24.8400   41.3540 C   0  0  0  0  0  0  0  0  0  0  0  0
   37.6140   25.6830   42.1750 N   0  0  0  0  0  0  0  0  0  0  0  0
   36.3710   26.9740   38.8350 H   0  0  0  0  0  0  0  0  0  0  0  0
   36.8430   23.7950   41.5810 H   0  0  0  0  0  0  0  0  0  0  0  0
   38.4700   27.8490   42.7950 C   0  0  0  0  0  0  0  0  0  0  0  0
   39.2210   27.3250   43.4440 H   0  0  0  0  0  0  0  0  0  0  0  0
   39.0120   28.6580   42.2570 H   0  0  0  0  0  0  0  0  0  0  0  0
   37.4370   28.5120   43.6780 C   0  0  0  0  0  0  0  0  0  0  0  0
   36.8180   27.6990   44.1110 H   0  0  0  0  0  0  0  0  0  0  0  0
   36.8260   29.2110   43.0750 H   0  0  0  0  0  0  0  0  0  0  0  0
   37.8750   29.0640   44.5220 H   0  0  0  0  0  0  0  0  0  0  0  0
   36.2170   30.2160   38.6250 O   0  0  0  0  0  0  0  0  0  0  0  0
   36.3910   29.9950   40.1250 P   0  0  1  0  0  0  0  0  0  0  0  0
   34.9320   29.4190   40.7630 O   0  0  0  0  0  0  0  0  0  0  0  0
   35.1520   29.1440   41.7100 H   0  0  0  0  0  0  0  0  0  0  0  0
   36.7620   31.4560   40.8990 O   0  0  0  0  0  0  0  0  0  0  0  0
   41.1590   32.1360   41.6390 H   0  0  0  0  0  0  0  0  0  0  0  0
   40.2950   32.4450   41.1210 N   0  0  0  0  0  0  0  0  0  0  0  0
   39.1870   31.7180   41.4030 C   0  0  0  0  0  3  0  0  0  0  0  0
   38.0170   32.0360   40.7850 C   0  0  0  0  0  0  0  0  0  0  0  0
   37.9970   33.0970   39.8850 C   0  0  0  0  0  0  0  0  0  0  0  0
   36.9890   33.5040   39.2420 O   0  0  0  0  0  0  0  0  0  0  0  0
   39.1430   33.7930   39.6410 N   0  0  0  0  0  0  0  0  0  0  0  0
   40.2990   33.4610   40.2660 C   0  0  0  0  0  0  0  0  0  0  0  0
   41.3900   34.0350   40.1080 O   0  0  0  0  0  0  0  0  0  0  0  0
   39.1640   34.5960   38.9710 H   0  0  0  0  0  0  0  0  0  0  0  0
  1  3  1  0  0  0  0
  2  7  1  0  0  0  0
  2 10  1  0  0  0  0
  3  2  2  0  0  0  0
  4  5  2  0  0  0  0
  4  3  1  0  0  0  0
  5  6  1  0  0  0  0
  6  9  1  0  0  0  0
  6  7  2  0  0  0  0
  8  4  1  0  0  0  0
 10 11  1  0  0  0  0
 10 13  1  0  0  0  0
 12 10  1  0  0  0  0
 13 14  1  0  0  0  0
 13 16  1  0  0  0  0
 15 13  1  0  0  0  0
 18 17  2  6  0  0  0
 18  1  1  0  0  0  0
 18 19  1  0  0  0  0
 18 21  1  0  0  0  0
 19 20  1  0  0  0  0
 23 24  1  0  0  0  0
 23 22  1  0  0  0  0
 25 21  1  0  0  0  0
 25 24  2  0  0  0  0
 26 25  1  0  0  0  0
 27 26  2  0  0  0  0
 28 26  1  0  0  0  0
 28 29  1  0  0  0  0
 29 23  1  0  0  0  0
 30 29  2  0  0  0  0
 31 28  1  0  0  0  0
M  END
>  <minimizedAffinity>
-5.24807978

$$$$

 OpenBabel03252500553D

 31 32  0  0  0  0  0  0  0  0999 V2000
   38.2770   28.4220   41.0640 O   0  0  0  0  0  0  0  0  0  0  0  0
   38.7050   26.3130   42.0720 C   0  0  0  0  0  0  0  0  0  0  0  0
   39.0200   27.6640   41.9690 C   0  0  0  0  0  0  0  0  0  0  0  0
   40.0690   28.1500   42.7920 C   0  0  0  0  0  0  0  0  0  0  0  0
   40.6750   27.2690   43.6070 N   0  0  0  0  0  0  0  0  0  0  0  0
   40.3440   25.9750   43.6790 C   0  0  0  0  0  0  0  0  0  0  0  0
   39.3670   25.5140   42.9140 N   0  0  0  0  0  0  0  0  0  0  0  0
   40.2760   29.1860   42.6810 H   0  0  0  0  0  0  0  0  0  0  0  0
   40.9040   25.3630   44.3730 H   0  0  0  0  0  0  0  0  0  0  0  0
   37.6360   25.7430   41.2530 C   0  0  0  0  0  0  0  0  0  0  0  0
   36.7550   26.4270   41.1200 H   0  0  0  0  0  0  0  0  0  0  0  0
   38.0130   25.4960   40.2370 H   0  0  0  0  0  0  0  0  0  0  0  0
   37.1650   24.4540   41.8840 C   0  0  0  0  0  0  0  0  0  0  0  0
   36.9110   24.6870   42.9390 H   0  0  0  0  0  0  0  0  0  0  0  0
   37.9660   23.6930   41.8180 H   0  0  0  0  0  0  0  0  0  0  0  0
   36.2540   24.0490   41.4200 H   0  0  0  0  0  0  0  0  0  0  0  0
   35.6690   28.6390   41.0350 O   0  0  0  0  0  0  0  0  0  0  0  0
   36.9390   29.3830   41.4370 P   0  0  1  0  0  0  0  0  0  0  0  0
   36.9180   29.6330   43.1110 O   0  0  0  0  0  0  0  0  0  0  0  0
   37.8400   29.9790   43.3350 H   0  0  0  0  0  0  0  0  0  0  0  0
   37.0000   30.8990   40.6810 O   0  0  0  0  0  0  0  0  0  0  0  0
   40.9630   32.5640   42.0460 H   0  0  0  0  0  0  0  0  0  0  0  0
   40.2290   32.5450   41.2900 N   0  0  0  0  0  0  0  0  0  0  0  0
   39.1740   31.7390   41.5590 C   0  0  0  0  0  3  0  0  0  0  0  0
   38.1700   31.6430   40.6450 C   0  0  0  0  0  0  0  0  0  0  0  0
   38.2590   32.3770   39.4660 C   0  0  0  0  0  0  0  0  0  0  0  0
   37.4080   32.3870   38.5340 O   0  0  0  0  0  0  0  0  0  0  0  0
   39.3440   33.1720   39.2500 N   0  0  0  0  0  0  0  0  0  0  0  0
   40.3350   33.2540   40.1730 C   0  0  0  0  0  0  0  0  0  0  0  0
   41.3600   33.9490   40.0640 O   0  0  0  0  0  0  0  0  0  0  0  0
   39.4450   33.7370   38.3760 H   0  0  0  0  0  0  0  0  0  0  0  0
  1 18  1  0  0  0  0
  1  3  1  0  0  0  0
  2  7  1  0  0  0  0
  3  2  2  0  0  0  0
  3  4  1  0  0  0  0
  4  5  2  0  0  0  0
  5  6  1  0  0  0  0
  6  9  1  0  0  0  0
  7  6  2  0  0  0  0
  8  4  1  0  0  0  0
 10 13  1  0  0  0  0
 10  2  1  0  0  0  0
 11 10  1  0  0  0  0
 12 10  1  0  0  0  0
 13 14  1  0  0  0  0
 15 13  1  0  0  0  0
 16 13  1  0  0  0  0
 18 17  2  6  0  0  0
 18 19  1  0  0  0  0
 19 20  1  0  0  0  0
 21 18  1  0  0  0  0
 23 24  1  0  0  0  0
 23 22  1  0  0  0  0
 25 21  1  0  0  0  0
 25 24  2  0  0  0  0
 26 25  1  0  0  0  0
 27 26  2  0  0  0  0
 28 26  1  0  0  0  0
 28 29  1  0  0  0  0
 29 23  1  0  0  0  0
 30 29  2  0  0  0  0
 31 28  1  0  0  0  0
M  END
>  <minimizedAffinity>
-5.18511057

$$$$

 OpenBabel03252500553D

 31 32  0  0  0  0  0  0  0  0999 V2000
   37.8640   29.3190   40.0860 O   0  0  0  0  0  0  0  0  0  0  0  0
   37.6050   27.3750   41.4280 C   0  0  0  0  0  0  0  0  0  0  0  0
   38.1870   28.6270   41.2540 C   0  0  0  0  0  0  0  0  0  0  0  0
   39.0550   29.0870   42.2770 C   0  0  0  0  0  0  0  0  0  0  0  0
   39.2480   28.2790   43.3350 N   0  0  0  0  0  0  0  0  0  0  0  0
   38.6700   27.0810   43.4680 C   0  0  0  0  0  0  0  0  0  0  0  0
   37.8590   26.6430   42.5180 N   0  0  0  0  0  0  0  0  0  0  0  0
   39.4770   30.0460   42.1030 H   0  0  0  0  0  0  0  0  0  0  0  0
   38.9020   26.5200   44.3650 H   0  0  0  0  0  0  0  0  0  0  0  0
   36.7000   26.8380   40.4140 C   0  0  0  0  0  0  0  0  0  0  0  0
   35.6590   26.6460   40.7910 H   0  0  0  0  0  0  0  0  0  0  0  0
   36.6120   27.5420   39.5580 H   0  0  0  0  0  0  0  0  0  0  0  0
   37.2720   25.5470   39.8750 C   0  0  0  0  0  0  0  0  0  0  0  0
   37.4760   24.8980   40.7510 H   0  0  0  0  0  0  0  0  0  0  0  0
   38.1960   25.7590   39.3030 H   0  0  0  0  0  0  0  0  0  0  0  0
   36.5740   24.9980   39.2270 H   0  0  0  0  0  0  0  0  0  0  0  0
   35.6530   29.9690   38.8480 O   0  0  0  0  0  0  0  0  0  0  0  0
   36.6280   30.4570   39.9160 P   0  0  1  0  0  0  0  0  0  0  0  0
   35.8070   30.5700   41.3920 O   0  0  0  0  0  0  0  0  0  0  0  0
   36.5270   30.7390   42.0790 H   0  0  0  0  0  0  0  0  0  0  0  0
   37.2140   31.9970   39.5220 O   0  0  0  0  0  0  0  0  0  0  0  0
   39.9440   31.8750   35.9340 H   0  0  0  0  0  0  0  0  0  0  0  0
   39.8380   32.1270   36.9510 N   0  0  0  0  0  0  0  0  0  0  0  0
   38.6100   31.8710   37.4630 C   0  0  0  0  0  3  0  0  0  0  0  0
   38.3690   32.1610   38.7700 C   0  0  0  0  0  0  0  0  0  0  0  0
   39.3900   32.7120   39.5380 C   0  0  0  0  0  0  0  0  0  0  0  0
   39.3120   33.0300   40.7570 O   0  0  0  0  0  0  0  0  0  0  0  0
   40.6060   32.9480   38.9690 N   0  0  0  0  0  0  0  0  0  0  0  0
   40.8270   32.6510   37.6640 C   0  0  0  0  0  0  0  0  0  0  0  0
   41.8980   32.8310   37.0600 O   0  0  0  0  0  0  0  0  0  0  0  0
   41.3960   33.3600   39.5160 H   0  0  0  0  0  0  0  0  0  0  0  0
  1  3  1  0  0  0  0
  2  7  1  0  0  0  0
  3  2  2  0  0  0  0
  3  4  1  0  0  0  0
  4  5  2  0  0  0  0
  5  6  1  0  0  0  0
  6  9  1  0  0  0  0
  7  6  2  0  0  0  0
  8  4  1  0  0  0  0
 10 11  1  0  0  0  0
 10  2  1  0  0  0  0
 12 10  1  0  0  0  0
 13 10  1  0  0  0  0
 13 14  1  0  0  0  0
 15 13  1  0  0  0  0
 16 13  1  0  0  0  0
 18 17  2  6  0  0  0
 18  1  1  0  0  0  0
 18 19  1  0  0  0  0
 19 20  1  0  0  0  0
 21 18  1  0  0  0  0
 22 23  1  0  0  0  0
 23 24  1  0  0  0  0
 23 29  1  0  0  0  0
 24 25  2  0  0  0  0
 25 21  1  0  0  0  0
 25 26  1  0  0  0  0
 26 27  2  0  0  0  0
 28 31  1  0  0  0  0
 28 26  1  0  0  0  0
 29 28  1  0  0  0  0
 30 29  2  0  0  0  0
M  END
>  <minimizedAffinity>
-5.16114044

$$$$

 OpenBabel03252500553D

 31 32  0  0  0  0  0  0  0  0999 V2000
   38.2460   27.9590   40.3530 O   0  0  0  0  0  0  0  0  0  0  0  0
   38.2900   26.4580   42.1950 C   0  0  0  0  0  0  0  0  0  0  0  0
   38.8810   26.9100   41.0190 C   0  0  0  0  0  0  0  0  0  0  0  0
   40.0730   26.2650   40.6020 C   0  0  0  0  0  0  0  0  0  0  0  0
   40.5410   25.2680   41.3750 N   0  0  0  0  0  0  0  0  0  0  0  0
   39.9450   24.8610   42.5000 C   0  0  0  0  0  0  0  0  0  0  0  0
   38.8310   25.4570   42.8960 N   0  0  0  0  0  0  0  0  0  0  0  0
   40.4890   26.6420   39.7000 H   0  0  0  0  0  0  0  0  0  0  0  0
   40.4150   24.0480   43.0380 H   0  0  0  0  0  0  0  0  0  0  0  0
   37.0590   27.0760   42.6840 C   0  0  0  0  0  0  0  0  0  0  0  0
   36.4220   27.5210   41.8730 H   0  0  0  0  0  0  0  0  0  0  0  0
   36.4320   26.3270   43.2170 H   0  0  0  0  0  0  0  0  0  0  0  0
   37.4110   28.1570   43.6800 C   0  0  0  0  0  0  0  0  0  0  0  0
   38.1380   28.8290   43.1780 H   0  0  0  0  0  0  0  0  0  0  0  0
   37.8430   27.6980   44.5900 H   0  0  0  0  0  0  0  0  0  0  0  0
   36.5510   28.7780   43.9700 H   0  0  0  0  0  0  0  0  0  0  0  0
   38.2990   27.6990   37.7500 O   0  0  0  0  0  0  0  0  0  0  0  0
   37.3430   27.8310   38.9310 P   0  0  1  0  0  0  0  0  0  0  0  0
   36.4000   26.4280   39.0290 O   0  0  0  0  0  0  0  0  0  0  0  0
   35.9090   26.5040   39.9090 H   0  0  0  0  0  0  0  0  0  0  0  0
   36.3010   29.1490   38.7050 O   0  0  0  0  0  0  0  0  0  0  0  0
   38.2170   33.1100   37.7130 H   0  0  0  0  0  0  0  0  0  0  0  0
   37.7130   32.5320   38.4350 N   0  0  0  0  0  0  0  0  0  0  0  0
   37.3910   31.2820   38.0220 C   0  0  0  0  0  3  0  0  0  0  0  0
   36.7370   30.4540   38.8820 C   0  0  0  0  0  0  0  0  0  0  0  0
   36.4190   30.9180   40.1550 C   0  0  0  0  0  0  0  0  0  0  0  0
   35.8180   30.2650   41.0520 O   0  0  0  0  0  0  0  0  0  0  0  0
   36.7690   32.1850   40.5150 N   0  0  0  0  0  0  0  0  0  0  0  0
   37.4210   32.9950   39.6440 C   0  0  0  0  0  0  0  0  0  0  0  0
   37.7790   34.1610   39.8810 O   0  0  0  0  0  0  0  0  0  0  0  0
   36.5470   32.5660   41.4630 H   0  0  0  0  0  0  0  0  0  0  0  0
  1  3  1  0  0  0  0
  2 10  1  0  0  0  0
  2  7  1  0  0  0  0
  3  2  2  0  0  0  0
  4  3  1  0  0  0  0
  4  5  2  0  0  0  0
  5  6  1  0  0  0  0
  6  7  2  0  0  0  0
  6  9  1  0  0  0  0
  8  4  1  0  0  0  0
 10 12  1  0  0  0  0
 10 13  1  0  0  0  0
 11 10  1  0  0  0  0
 13 16  1  0  0  0  0
 13 15  1  0  0  0  0
 14 13  1  0  0  0  0
 18 17  2  6  0  0  0
 18 19  1  0  0  0  0
 18  1  1  0  0  0  0
 19 20  1  0  0  0  0
 21 25  1  0  0  0  0
 21 18  1  0  0  0  0
 22 23  1  0  0  0  0
 23 29  1  0  0  0  0
 24 23  1  0  0  0  0
 24 25  2  0  0  0  0
 25 26  1  0  0  0  0
 26 28  1  0  0  0  0
 26 27  2  0  0  0  0
 28 31  1  0  0  0  0
 29 30  2  0  0  0  0
 29 28  1  0  0  0  0
M  END
>  <minimizedAffinity>
-4.98830986

$$$$

 OpenBabel03252500553D

 31 32  0  0  0  0  0  0  0  0999 V2000
   36.9810   30.2020   39.2300 O   0  0  0  0  0  0  0  0  0  0  0  0
   38.5220   31.8760   38.5460 C   0  0  0  0  0  0  0  0  0  0  0  0
   38.2200   30.5250   38.6750 C   0  0  0  0  0  0  0  0  0  0  0  0
   39.1960   29.5950   38.2330 C   0  0  0  0  0  0  0  0  0  0  0  0
   40.3370   30.0930   37.7220 N   0  0  0  0  0  0  0  0  0  0  0  0
   40.5930   31.4010   37.6130 C   0  0  0  0  0  0  0  0  0  0  0  0
   39.6870   32.2740   38.0250 N   0  0  0  0  0  0  0  0  0  0  0  0
   38.9230   28.5760   38.3500 H   0  0  0  0  0  0  0  0  0  0  0  0
   41.5470   31.6810   37.1860 H   0  0  0  0  0  0  0  0  0  0  0  0
   37.5630   32.8890   38.9820 C   0  0  0  0  0  0  0  0  0  0  0  0
   37.2750   33.6170   38.1760 H   0  0  0  0  0  0  0  0  0  0  0  0
   36.6250   32.4090   39.3380 H   0  0  0  0  0  0  0  0  0  0  0  0
   38.1460   33.6540   40.1470 C   0  0  0  0  0  0  0  0  0  0  0  0
   39.1420   34.0210   39.8220 H   0  0  0  0  0  0  0  0  0  0  0  0
   38.2270   32.9870   41.0270 H   0  0  0  0  0  0  0  0  0  0  0  0
   37.5570   34.5380   40.4270 H   0  0  0  0  0  0  0  0  0  0  0  0
   37.9740   30.0450   41.6460 O   0  0  0  0  0  0  0  0  0  0  0  0
   36.6750   29.8860   40.8610 P   0  0  1  0  0  0  0  0  0  0  0  0
   35.5580   31.0280   41.4200 O   0  0  0  0  0  0  0  0  0  0  0  0
   34.7890   30.9830   40.7660 H   0  0  0  0  0  0  0  0  0  0  0  0
   36.0180   28.3440   41.1100 O   0  0  0  0  0  0  0  0  0  0  0  0
   38.5010   25.0760   39.2380 H   0  0  0  0  0  0  0  0  0  0  0  0
   38.0990   25.4790   40.1250 N   0  0  0  0  0  0  0  0  0  0  0  0
   37.3650   26.6030   39.9440 C   0  0  0  0  0  3  0  0  0  0  0  0
   36.8020   27.2020   41.0290 C   0  0  0  0  0  0  0  0  0  0  0  0
   36.9980   26.6400   42.2870 C   0  0  0  0  0  0  0  0  0  0  0  0
   36.5380   27.0840   43.3760 O   0  0  0  0  0  0  0  0  0  0  0  0
   37.7450   25.5070   42.4080 N   0  0  0  0  0  0  0  0  0  0  0  0
   38.2990   24.9250   41.3150 C   0  0  0  0  0  0  0  0  0  0  0  0
   38.9940   23.8950   41.3270 O   0  0  0  0  0  0  0  0  0  0  0  0
   37.9130   25.0580   43.3370 H   0  0  0  0  0  0  0  0  0  0  0  0
  1 18  1  0  0  0  0
  2  3  1  0  0  0  0
  2 10  1  0  0  0  0
  3  1  1  0  0  0  0
  4  8  1  0  0  0  0
  4  3  2  0  0  0  0
  5  4  1  0  0  0  0
  6  5  2  0  0  0  0
  6  7  1  0  0  0  0
  7  2  2  0  0  0  0
  9  6  1  0  0  0  0
 10 12  1  0  0  0  0
 10 13  1  0  0  0  0
 11 10  1  0  0  0  0
 13 16  1  0  0  0  0
 13 15  1  0  0  0  0
 14 13  1  0  0  0  0
 18 21  1  0  0  0  0
 18 19  1  0  0  0  0
 18 17  2  1  0  0  0
 20 19  1  0  0  0  0
 22 23  1  0  0  0  0
 23 29  1  0  0  0  0
 24 23  1  0  0  0  0
 24 25  2  0  0  0  0
 25 21  1  0  0  0  0
 25 26  1  0  0  0  0
 26 28  1  0  0  0  0
 26 27  2  0  0  0  0
 28 31  1  0  0  0  0
 29 30  2  0  0  0  0
 29 28  1  0  0  0  0
M  END
>  <minimizedAffinity>
-4.86413002

$$$$
