
 OpenBabel03242517513D

 20 21  0  0  0  0  0  0  0  0999 V2000
   45.1430   33.1250   47.3560 O   0  0  0  0  0  0  0  0  0  0  0  0
   49.4410   32.1130   48.3280 H   0  0  0  0  0  0  0  0  0  0  0  0
   48.4260   31.9110   48.4990 N   0  0  0  0  0  0  0  0  0  0  0  0
   47.5490   32.6600   47.8050 C   0  0  0  0  0  0  0  0  0  0  0  0
   46.1930   32.4640   47.9700 C   0  0  0  0  0  0  0  0  0  0  0  0
   45.7810   31.4730   48.8690 C   0  0  0  0  0  0  0  0  0  0  0  0
   44.5790   31.1860   49.1180 O   0  0  0  0  0  0  0  0  0  0  0  0
   46.7150   30.7510   49.5390 N   0  0  0  0  0  0  0  0  0  0  0  0
   48.0400   30.9580   49.3660 C   0  0  0  0  0  0  0  0  0  0  0  0
   48.9150   30.2810   49.9920 O   0  0  0  0  0  0  0  0  0  0  0  0
   46.4380   30.0200   50.2020 H   0  0  0  0  0  0  0  0  0  0  0  0
   44.6720   35.6550   44.8910 C   0  0  0  0  0  0  0  0  0  0  0  0
   45.4230   35.1770   43.7980 C   0  0  0  0  0  0  0  0  0  0  0  0
   46.1050   33.9470   43.9280 C   0  0  0  0  0  0  0  0  0  0  0  0
   45.9800   33.3170   45.1130 N   0  0  0  0  0  0  0  0  0  0  0  0
   45.2640   33.7800   46.1440 C   0  0  0  0  0  0  0  0  0  0  0  0
   44.6100   34.9560   46.0230 N   0  0  0  0  0  0  0  0  0  0  0  0
   44.1450   36.5950   44.8030 H   0  0  0  0  0  0  0  0  0  0  0  0
   45.4610   35.7610   42.8830 H   0  0  0  0  0  0  0  0  0  0  0  0
   46.6810   33.5680   43.1070 H   0  0  0  0  0  0  0  0  0  0  0  0
  1  5  1  0  0  0  0
  2  3  1  0  0  0  0
  3  9  1  0  0  0  0
  4  5  2  0  0  0  0
  4  3  1  0  0  0  0
  5  6  1  0  0  0  0
  6  7  2  0  0  0  0
  6  8  1  0  0  0  0
  8 11  1  0  0  0  0
  9  8  1  0  0  0  0
  9 10  2  0  0  0  0
 12 17  1  0  0  0  0
 13 14  1  0  0  0  0
 13 12  2  0  0  0  0
 14 15  2  0  0  0  0
 15 16  1  0  0  0  0
 16  1  1  0  0  0  0
 17 16  2  0  0  0  0
 18 12  1  0  0  0  0
 19 13  1  0  0  0  0
 20 14  1  0  0  0  0
M  END
>  <minimizedAffinity>
-4.87953329

>  <minimizedRMSD>
1.50005627

$$$$
