
 OpenBabel03242523193D

 38 41  0  0  0  0  0  0  0  0999 V2000
   44.4570   31.8450   42.8570 Cl  0  0  0  0  0  0  0  0  0  0  0  0
   44.5600   33.6050   42.7770 C   0  0  0  0  0  0  0  0  0  0  0  0
   45.4550   34.2030   43.6890 C   0  0  0  0  0  0  0  0  0  0  0  0
   45.4550   35.5790   43.5280 C   0  0  0  0  0  0  0  0  0  0  0  0
   44.7670   36.3510   42.6780 C   0  0  0  0  0  0  0  0  0  0  0  0
   43.9240   35.6930   41.8300 C   0  0  0  0  0  0  0  0  0  0  0  0
   43.8030   34.3450   41.8580 C   0  0  0  0  0  0  0  0  0  0  0  0
   46.0820   36.2080   44.1960 H   0  0  0  0  0  0  0  0  0  0  0  0
   44.8100   37.4240   42.5970 H   0  0  0  0  0  0  0  0  0  0  0  0
   43.2880   36.1420   41.0760 H   0  0  0  0  0  0  0  0  0  0  0  0
   42.9500   33.5340   41.0200 N   0  0  0  0  0  0  0  0  0  0  0  0
   41.6970   33.1180   41.2770 C   0  0  0  0  0  3  0  0  0  0  0  0
   41.0590   32.3440   40.3290 C   0  0  0  0  0  0  0  0  0  0  0  0
   40.0540   32.0300   40.5760 H   0  0  0  0  0  0  0  0  0  0  0  0
   41.6830   32.0000   39.1470 C   0  0  0  0  0  0  0  0  0  0  0  0
   41.0830   31.2920   38.2960 O   0  0  0  0  0  0  0  0  0  0  0  0
   42.9370   32.4310   38.9180 N   0  0  0  0  0  0  0  0  0  0  0  0
   43.5510   33.1940   39.8640 C   0  0  0  0  0  0  0  0  0  0  0  0
   44.7340   33.5340   39.5210 O   0  0  0  0  0  0  0  0  0  0  0  0
   43.3890   32.1590   38.0160 H   0  0  0  0  0  0  0  0  0  0  0  0
   46.3070   33.5010   44.6850 C   0  0  0  0  0  0  0  0  0  0  0  0
   45.7380   33.8700   45.6810 O   0  0  0  0  0  0  0  0  0  0  0  0
   47.3490   32.7570   43.9670 C   0  0  0  0  0  0  0  0  0  0  0  0
   48.2380   33.2650   43.1030 C   0  0  0  0  0  0  0  0  0  0  0  0
   49.0500   32.3270   42.4920 C   0  0  0  0  0  0  0  0  0  0  0  0
   48.8840   30.9670   42.8190 N   0  0  0  0  0  0  0  0  0  0  0  0
   47.9840   30.5490   43.6850 C   0  0  0  0  0  0  0  0  0  0  0  0
   47.1560   31.4540   44.3130 N   0  0  0  0  0  0  0  0  0  0  0  0
   49.8160   32.5680   41.7690 H   0  0  0  0  0  0  0  0  0  0  0  0
   47.9690   29.4750   43.8410 H   0  0  0  0  0  0  0  0  0  0  0  0
   48.4890   34.6400   42.8590 C   0  0  0  0  0  0  0  0  0  0  0  0
   49.5550   35.2140   42.2360 C   0  0  0  0  0  0  0  0  0  0  0  0
   48.3330   35.1410   41.3610 C   0  0  0  0  0  0  0  0  0  0  0  0
   48.0440   35.3120   43.6170 H   0  0  0  0  0  0  0  0  0  0  0  0
   50.3980   34.5660   41.8490 H   0  0  0  0  0  0  0  0  0  0  0  0
   49.9370   36.2570   42.3100 H   0  0  0  0  0  0  0  0  0  0  0  0
   47.6640   36.0200   41.2450 H   0  0  0  0  0  0  0  0  0  0  0  0
   48.2360   34.3170   40.6450 H   0  0  0  0  0  0  0  0  0  0  0  0
  2  1  1  0  0  0  0
  2  3  1  0  0  0  0
  3 21  1  0  0  0  0
  4  3  2  0  0  0  0
  4  8  1  0  0  0  0
  5  4  1  0  0  0  0
  6  7  1  0  0  0  0
  6  5  2  0  0  0  0
  7  2  2  0  0  0  0
  9  5  1  0  0  0  0
 10  6  1  0  0  0  0
 11 12  1  0  0  0  0
 11  7  1  0  0  0  0
 13 14  1  0  0  0  0
 13 12  2  0  0  0  0
 15 13  1  0  0  0  0
 16 15  2  0  0  0  0
 17 15  1  0  0  0  0
 17 18  1  0  0  0  0
 18 11  1  0  0  0  0
 19 18  2  0  0  0  0
 20 17  1  0  0  0  0
 21 22  2  0  0  0  0
 23 28  1  0  0  0  0
 23 21  1  0  0  0  0
 24 23  2  0  0  0  0
 25 26  2  0  0  0  0
 25 24  1  0  0  0  0
 26 27  1  0  0  0  0
 27 30  1  0  0  0  0
 27 28  2  0  0  0  0
 29 25  1  0  0  0  0
 31 24  1  0  0  0  0
 31 34  1  0  0  0  0
 32 36  1  0  0  0  0
 32 31  1  0  0  0  0
 33 32  1  0  0  0  0
 33 31  1  0  0  0  0
 35 32  1  0  0  0  0
 37 33  1  0  0  0  0
 38 33  1  0  0  0  0
M  END
>  <minimizedAffinity>
-5.66370201

>  <minimizedRMSD>
0.576019466

$$$$
