
 OpenBabel03252509003D

 46 48  0  0  1  0  0  0  0  0999 V2000
   46.6660   34.5630   43.4560 N   0  0  0  0  0  0  0  0  0  0  0  0
   46.2040   35.6650   42.6790 C   0  0  0  0  0  0  0  0  0  0  0  0
   44.7120   35.8700   42.6720 C   0  0  0  0  0  0  0  0  0  0  0  0
   44.0140   35.4610   43.9360 C   0  0  0  0  0  0  0  0  0  0  0  0
   45.0020   35.0550   45.0050 C   0  0  0  0  0  0  0  0  0  0  0  0
   45.8080   33.8950   44.3130 C   0  0  2  0  0  0  0  0  0  0  0  0
   46.6480   36.5780   43.1610 H   0  0  0  0  0  0  0  0  0  0  0  0
   46.5510   35.6990   41.6450 H   0  0  0  0  0  0  0  0  0  0  0  0
   44.2510   35.3970   41.7740 H   0  0  0  0  0  0  0  0  0  0  0  0
   44.5060   36.9610   42.5540 H   0  0  0  0  0  0  0  0  0  0  0  0
   43.4150   34.5500   43.6940 H   0  0  0  0  0  0  0  0  0  0  0  0
   43.2660   36.2080   44.2940 H   0  0  0  0  0  0  0  0  0  0  0  0
   45.6850   35.8840   45.2170 H   0  0  0  0  0  0  0  0  0  0  0  0
   44.4700   34.6600   45.8780 H   0  0  0  0  0  0  0  0  0  0  0  0
   45.0730   33.2090   43.8650 H   0  0  0  0  0  0  0  0  0  0  0  0
   47.7560   33.8430   42.8680 C   0  0  0  0  0  0  0  0  0  0  0  0
   48.4110   34.5530   42.3470 H   0  0  0  0  0  0  0  0  0  0  0  0
   48.3270   33.3480   43.6850 H   0  0  0  0  0  0  0  0  0  0  0  0
   47.2040   32.7820   41.9670 C   0  0  0  0  0  0  0  0  0  0  0  0
   47.4080   31.7700   42.3390 H   0  0  0  0  0  0  0  0  0  0  0  0
   46.1030   32.8710   41.8770 H   0  0  0  0  0  0  0  0  0  0  0  0
   49.1160   32.0870   38.8030 C   0  0  0  0  0  0  0  0  0  0  0  0
   48.5650   31.9300   40.0940 C   0  0  0  0  0  0  0  0  0  0  0  0
   47.7850   32.9440   40.6080 C   0  0  0  0  0  0  0  0  0  0  0  0
   47.5840   34.0410   39.8510 N   0  0  0  0  0  0  0  0  0  0  0  0
   48.1230   34.1610   38.6210 C   0  0  0  0  0  0  0  0  0  0  0  0
   48.8860   33.2000   38.0860 N   0  0  0  0  0  0  0  0  0  0  0  0
   49.7150   31.2600   38.4580 H   0  0  0  0  0  0  0  0  0  0  0  0
   48.7290   31.0430   40.7050 H   0  0  0  0  0  0  0  0  0  0  0  0
   47.9650   35.0400   38.0070 H   0  0  0  0  0  0  0  0  0  0  0  0
   46.4980   33.3560   45.4000 O   0  0  0  0  0  0  0  0  0  0  0  0
   45.3920   31.1460   44.4160 O   0  0  0  0  0  0  0  0  0  0  0  0
   46.2810   31.6860   45.5330 P   0  0  2  0  0  0  0  0  0  0  0  0
   45.4110   31.4440   46.9870 O   0  0  0  0  0  0  0  0  0  0  0  0
   45.8500   31.9300   47.7240 H   0  0  0  0  0  0  0  0  0  0  0  0
   47.7290   30.8820   45.6660 O   0  0  0  0  0  0  0  0  0  0  0  0
   47.2860   26.5060   45.9440 H   0  0  0  0  0  0  0  0  0  0  0  0
   47.5660   27.4050   46.4110 N   0  0  0  0  0  0  0  0  0  0  0  0
   47.4950   28.6210   45.7970 C   0  0  0  0  0  3  0  0  0  0  0  0
   47.8850   29.7750   46.4830 C   0  0  0  0  0  0  0  0  0  0  0  0
   48.3320   29.6320   47.7750 C   0  0  0  0  0  0  0  0  0  0  0  0
   48.6520   30.7360   48.2820 O   0  0  0  0  0  0  0  0  0  0  0  0
   48.3810   28.4170   48.3270 N   0  0  0  0  0  0  0  0  0  0  0  0
   48.0080   27.3090   47.6740 C   0  0  0  0  0  0  0  0  0  0  0  0
   48.1190   26.2580   48.3470 O   0  0  0  0  0  0  0  0  0  0  0  0
   48.7390   28.4270   49.3220 H   0  0  0  0  0  0  0  0  0  0  0  0
  1  6  1  0  0  0  0
  2  7  1  0  0  0  0
  2  1  1  0  0  0  0
  3  2  1  0  0  0  0
  3  4  1  0  0  0  0
  4 12  1  0  0  0  0
  4  5  1  0  0  0  0
  5 13  1  0  0  0  0
  5 14  1  0  0  0  0
  6 15  1  6  0  0  0
  6  5  1  0  0  0  0
  6 31  1  0  0  0  0
  8  2  1  0  0  0  0
  9  3  1  0  0  0  0
 10  3  1  0  0  0  0
 11  4  1  0  0  0  0
 16  1  1  0  0  0  0
 16 18  1  0  0  0  0
 17 16  1  0  0  0  0
 19 20  1  0  0  0  0
 19 16  1  0  0  0  0
 21 19  1  0  0  0  0
 22 23  1  0  0  0  0
 23 24  2  0  0  0  0
 23 29  1  0  0  0  0
 24 19  1  0  0  0  0
 25 24  1  0  0  0  0
 26 25  2  0  0  0  0
 27 26  1  0  0  0  0
 27 22  2  0  0  0  0
 28 22  1  0  0  0  0
 30 26  1  0  0  0  0
 31 33  1  0  0  0  0
 33 32  2  6  0  0  0
 33 36  1  0  0  0  0
 33 34  1  0  0  0  0
 34 35  1  0  0  0  0
 36 40  1  0  0  0  0
 37 38  1  0  0  0  0
 38 44  1  0  0  0  0
 39 38  1  0  0  0  0
 39 40  2  0  0  0  0
 40 41  1  0  0  0  0
 41 42  2  0  0  0  0
 41 43  1  0  0  0  0
 43 46  1  0  0  0  0
 44 43  1  0  0  0  0
 44 45  2  0  0  0  0
M  END
>  <minimizedAffinity>
-4.55666113

>  <minimizedRMSD>
1.31742048

$$$$
