
 OpenBabel03252507553D

 45 48  0  0  1  0  0  0  0  0999 V2000
   48.9530   32.2050   40.4260 C   0  0  2  0  0  0  0  0  0  0  0  0
   49.6690   31.4660   41.4540 C   0  0  0  0  0  0  0  0  0  0  0  0
   50.3350   31.8060   40.1570 C   0  0  1  0  0  0  0  0  0  0  0  0
   48.1570   31.6790   39.8660 H   0  0  0  0  0  0  0  0  0  0  0  0
   49.4810   30.3760   41.6620 H   0  0  0  0  0  0  0  0  0  0  0  0
   49.9840   31.9970   42.3660 H   0  0  0  0  0  0  0  0  0  0  0  0
   51.0160   32.6770   40.0600 H   0  0  0  0  0  0  0  0  0  0  0  0
   47.1170   34.7920   42.1320 C   0  0  2  0  0  0  0  0  0  0  0  0
   46.3110   34.3910   40.8940 C   0  0  0  0  0  0  0  0  0  0  0  0
   47.5010   34.2180   39.9230 C   0  0  0  0  0  0  0  0  0  0  0  0
   48.5970   33.6370   40.7590 C   0  0  1  0  0  0  0  0  0  0  0  0
   48.0900   33.6470   42.1710 C   0  0  0  0  0  0  0  0  0  0  0  0
   47.6340   35.7490   41.9300 H   0  0  0  0  0  0  0  0  0  0  0  0
   45.8570   33.4150   41.0930 H   0  0  0  0  0  0  0  0  0  0  0  0
   45.6400   35.1830   40.5560 H   0  0  0  0  0  0  0  0  0  0  0  0
   47.8100   35.2680   39.6720 H   0  0  0  0  0  0  0  0  0  0  0  0
   47.2100   33.6160   39.0580 H   0  0  0  0  0  0  0  0  0  0  0  0
   49.5310   34.2350   40.7330 H   0  0  0  0  0  0  0  0  0  0  0  0
   47.5450   32.7140   42.4160 H   0  0  0  0  0  0  0  0  0  0  0  0
   48.9020   33.8250   42.9030 H   0  0  0  0  0  0  0  0  0  0  0  0
   44.5430   35.7600   44.7060 C   0  0  0  0  0  0  0  0  0  0  0  0
   45.2710   35.8040   43.5220 C   0  0  0  0  0  0  0  0  0  0  0  0
   46.2520   34.8390   43.3440 C   0  0  0  0  0  0  0  0  0  0  0  0
   46.4830   33.8710   44.3320 N   0  0  0  0  0  0  0  0  0  0  0  0
   45.7400   33.8790   45.4710 C   0  0  0  0  0  0  0  0  0  0  0  0
   44.7770   34.8220   45.6500 N   0  0  0  0  0  0  0  0  0  0  0  0
   43.7630   36.4960   44.8890 H   0  0  0  0  0  0  0  0  0  0  0  0
   45.1020   36.5430   42.7560 H   0  0  0  0  0  0  0  0  0  0  0  0
   45.9500   33.1150   46.2070 H   0  0  0  0  0  0  0  0  0  0  0  0
   50.5360   30.7380   39.2440 O   0  0  0  0  0  0  0  0  0  0  0  0
   51.3910   30.3100   36.8190 O   0  0  0  0  0  0  0  0  0  0  0  0
   51.4030   31.3290   37.9310 P   0  0  1  0  0  0  0  0  0  0  0  0
   50.6540   32.7490   37.3250 O   0  0  0  0  0  0  0  0  0  0  0  0
   50.9760   33.5110   37.8460 H   0  0  0  0  0  0  0  0  0  0  0  0
   52.9770   31.7220   38.2740 O   0  0  0  0  0  0  0  0  0  0  0  0
   56.7120   29.8480   36.5660 H   0  0  0  0  0  0  0  0  0  0  0  0
   56.0660   29.9320   37.3750 N   0  0  0  0  0  0  0  0  0  0  0  0
   55.0330   30.7520   37.2020 C   0  0  0  0  0  3  0  0  0  0  0  0
   54.1050   30.9420   38.2170 C   0  0  0  0  0  0  0  0  0  0  0  0
   54.3060   30.2410   39.4090 C   0  0  0  0  0  0  0  0  0  0  0  0
   53.5990   30.2580   40.4550 O   0  0  0  0  0  0  0  0  0  0  0  0
   55.3790   29.4120   39.5420 N   0  0  0  0  0  0  0  0  0  0  0  0
   56.2430   29.2680   38.5260 C   0  0  0  0  0  0  0  0  0  0  0  0
   57.2570   28.5130   38.5890 O   0  0  0  0  0  0  0  0  0  0  0  0
   55.5980   28.8560   40.3960 H   0  0  0  0  0  0  0  0  0  0  0  0
  1  4  1  6  0  0  0
  1 11  1  0  0  0  0
  1  2  1  0  0  0  0
  2  5  1  0  0  0  0
  2  6  1  0  0  0  0
  3  7  1  1  0  0  0
  3  1  1  0  0  0  0
  3  2  1  0  0  0  0
  8 13  1  6  0  0  0
  8 12  1  0  0  0  0
  8 23  1  0  0  0  0
  9 14  1  0  0  0  0
  9  8  1  0  0  0  0
 10 11  1  0  0  0  0
 10  9  1  0  0  0  0
 11 18  1  6  0  0  0
 11 12  1  0  0  0  0
 12 19  1  0  0  0  0
 12 20  1  0  0  0  0
 15  9  1  0  0  0  0
 16 10  1  0  0  0  0
 17 10  1  0  0  0  0
 21 27  1  0  0  0  0
 21 26  1  0  0  0  0
 22 21  2  0  0  0  0
 23 22  1  0  0  0  0
 23 24  2  0  0  0  0
 24 25  1  0  0  0  0
 25 26  2  0  0  0  0
 25 29  1  0  0  0  0
 28 22  1  0  0  0  0
 30  3  1  0  0  0  0
 32 31  2  6  0  0  0
 32 35  1  0  0  0  0
 32 30  1  0  0  0  0
 33 34  1  0  0  0  0
 33 32  1  0  0  0  0
 36 37  1  0  0  0  0
 37 43  1  0  0  0  0
 38 37  1  0  0  0  0
 38 39  2  0  0  0  0
 39 35  1  0  0  0  0
 39 40  1  0  0  0  0
 40 42  1  0  0  0  0
 40 41  2  0  0  0  0
 42 45  1  0  0  0  0
 43 44  2  0  0  0  0
 43 42  1  0  0  0  0
M  END
>  <minimizedAffinity>
-5.47890472

>  <minimizedRMSD>
2.06547546

$$$$
