
 OpenBabel03252509003D

 46 48  0  0  1  0  0  0  0  0999 V2000
   47.0770   34.3260   42.9970 N   0  0  0  0  0  0  0  0  0  0  0  0
   46.5800   35.4980   42.3560 C   0  0  0  0  0  0  0  0  0  0  0  0
   45.1020   35.7420   42.5090 C   0  0  0  0  0  0  0  0  0  0  0  0
   44.5140   35.2510   43.8000 C   0  0  0  0  0  0  0  0  0  0  0  0
   45.5850   34.7360   44.7330 C   0  0  0  0  0  0  0  0  0  0  0  0
   46.2820   33.6140   43.8790 C   0  0  2  0  0  0  0  0  0  0  0  0
   47.0980   36.3580   42.8610 H   0  0  0  0  0  0  0  0  0  0  0  0
   46.8290   35.6060   41.2990 H   0  0  0  0  0  0  0  0  0  0  0  0
   44.5430   35.3540   41.6260 H   0  0  0  0  0  0  0  0  0  0  0  0
   44.9220   36.8430   42.4970 H   0  0  0  0  0  0  0  0  0  0  0  0
   43.8640   34.3780   43.5470 H   0  0  0  0  0  0  0  0  0  0  0  0
   43.8280   35.9860   44.2850 H   0  0  0  0  0  0  0  0  0  0  0  0
   46.3110   35.5260   44.9410 H   0  0  0  0  0  0  0  0  0  0  0  0
   45.1250   34.2860   45.6210 H   0  0  0  0  0  0  0  0  0  0  0  0
   45.4850   32.9850   43.4530 H   0  0  0  0  0  0  0  0  0  0  0  0
   48.0820   33.6280   42.2520 C   0  0  0  0  0  0  0  0  0  0  0  0
   48.7490   34.3600   41.7810 H   0  0  0  0  0  0  0  0  0  0  0  0
   48.6670   33.0010   42.9610 H   0  0  0  0  0  0  0  0  0  0  0  0
   47.4110   32.7240   41.2650 C   0  0  0  0  0  0  0  0  0  0  0  0
   47.5250   31.6630   41.5240 H   0  0  0  0  0  0  0  0  0  0  0  0
   46.3210   32.9230   41.2210 H   0  0  0  0  0  0  0  0  0  0  0  0
   49.3200   32.2580   38.0580 C   0  0  0  0  0  0  0  0  0  0  0  0
   48.7870   32.0170   39.3440 C   0  0  0  0  0  0  0  0  0  0  0  0
   47.9730   32.9730   39.9120 C   0  0  0  0  0  0  0  0  0  0  0  0
   47.7220   34.0970   39.2100 N   0  0  0  0  0  0  0  0  0  0  0  0
   48.2460   34.2980   37.9840 C   0  0  0  0  0  0  0  0  0  0  0  0
   49.0410   33.3950   37.3980 N   0  0  0  0  0  0  0  0  0  0  0  0
   49.9490   31.4730   37.6700 H   0  0  0  0  0  0  0  0  0  0  0  0
   48.9910   31.1080   39.9100 H   0  0  0  0  0  0  0  0  0  0  0  0
   48.0480   35.1980   37.4150 H   0  0  0  0  0  0  0  0  0  0  0  0
   47.0530   32.9720   44.8500 O   0  0  0  0  0  0  0  0  0  0  0  0
   45.5530   30.8590   44.2470 O   0  0  0  0  0  0  0  0  0  0  0  0
   46.3590   31.5200   45.3620 P   0  0  2  0  0  0  0  0  0  0  0  0
   45.2260   31.9460   46.5730 O   0  0  0  0  0  0  0  0  0  0  0  0
   45.6550   32.5340   47.2390 H   0  0  0  0  0  0  0  0  0  0  0  0
   47.4820   30.5060   46.0490 O   0  0  0  0  0  0  0  0  0  0  0  0
   47.7360   26.1480   45.4400 H   0  0  0  0  0  0  0  0  0  0  0  0
   47.3980   26.9470   46.0340 N   0  0  0  0  0  0  0  0  0  0  0  0
   47.6200   28.2570   45.7230 C   0  0  0  0  0  3  0  0  0  0  0  0
   47.1380   29.2660   46.5630 C   0  0  0  0  0  0  0  0  0  0  0  0
   46.4480   28.8870   47.6890 C   0  0  0  0  0  0  0  0  0  0  0  0
   46.0690   29.8800   48.3590 O   0  0  0  0  0  0  0  0  0  0  0  0
   46.2600   27.5890   47.9450 N   0  0  0  0  0  0  0  0  0  0  0  0
   46.7190   26.6200   47.1430 C   0  0  0  0  0  0  0  0  0  0  0  0
   46.4500   25.4630   47.5380 O   0  0  0  0  0  0  0  0  0  0  0  0
   45.7170   27.4150   48.8350 H   0  0  0  0  0  0  0  0  0  0  0  0
  1  6  1  0  0  0  0
  2  3  1  0  0  0  0
  2  7  1  0  0  0  0
  2  1  1  0  0  0  0
  3  4  1  0  0  0  0
  4 12  1  0  0  0  0
  4  5  1  0  0  0  0
  5 13  1  0  0  0  0
  5 14  1  0  0  0  0
  6 15  1  6  0  0  0
  6  5  1  0  0  0  0
  6 31  1  0  0  0  0
  8  2  1  0  0  0  0
  9  3  1  0  0  0  0
 10  3  1  0  0  0  0
 11  4  1  0  0  0  0
 16 18  1  0  0  0  0
 16  1  1  0  0  0  0
 17 16  1  0  0  0  0
 19 20  1  0  0  0  0
 19 16  1  0  0  0  0
 21 19  1  0  0  0  0
 22 23  1  0  0  0  0
 23 29  1  0  0  0  0
 23 24  2  0  0  0  0
 24 19  1  0  0  0  0
 25 24  1  0  0  0  0
 26 25  2  0  0  0  0
 27 26  1  0  0  0  0
 27 22  2  0  0  0  0
 28 22  1  0  0  0  0
 30 26  1  0  0  0  0
 31 33  1  0  0  0  0
 33 32  2  6  0  0  0
 33 36  1  0  0  0  0
 33 34  1  0  0  0  0
 34 35  1  0  0  0  0
 36 40  1  0  0  0  0
 37 38  1  0  0  0  0
 38 44  1  0  0  0  0
 39 38  1  0  0  0  0
 39 40  2  0  0  0  0
 40 41  1  0  0  0  0
 41 43  1  0  0  0  0
 41 42  2  0  0  0  0
 43 46  1  0  0  0  0
 44 45  2  0  0  0  0
 44 43  1  0  0  0  0
M  END
>  <minimizedAffinity>
-4.33871126

>  <minimizedRMSD>
0.612383425

$$$$
