
 OpenBabel03252502243D

 35 37  0  0  1  0  0  0  0  0999 V2000
   46.7760   34.5700   42.2270 N   0  0  0  0  0  0  0  0  0  0  0  0
   48.2320   34.6030   42.2500 C   0  0  0  0  0  0  0  0  0  0  0  0
   48.5890   35.3640   40.9540 C   0  0  0  0  0  0  0  0  0  0  0  0
   48.2140   34.5240   39.7760 C   0  0  0  0  0  0  0  0  0  0  0  0
   46.8770   33.8730   39.8850 C   0  0  0  0  0  0  0  0  0  0  0  0
   46.0120   34.3250   41.0260 C   0  0  1  0  0  0  0  0  0  0  0  0
   48.6520   33.5790   42.1960 H   0  0  0  0  0  0  0  0  0  0  0  0
   48.5880   35.2000   43.1030 H   0  0  0  0  0  0  0  0  0  0  0  0
   49.6990   35.4800   41.0070 H   0  0  0  0  0  0  0  0  0  0  0  0
   48.0710   36.3410   41.0030 H   0  0  0  0  0  0  0  0  0  0  0  0
   48.9940   33.7150   39.7030 H   0  0  0  0  0  0  0  0  0  0  0  0
   48.3590   35.1280   38.8590 H   0  0  0  0  0  0  0  0  0  0  0  0
   46.3130   34.1300   38.9390 H   0  0  0  0  0  0  0  0  0  0  0  0
   46.9350   32.7630   39.8830 H   0  0  0  0  0  0  0  0  0  0  0  0
   45.5820   35.3010   40.7330 H   0  0  0  0  0  0  0  0  0  0  0  0
   44.5060   36.0480   44.8110 C   0  0  0  0  0  0  0  0  0  0  0  0
   45.1920   35.9220   43.5970 C   0  0  0  0  0  0  0  0  0  0  0  0
   46.0320   34.7870   43.4330 C   0  0  0  0  0  0  0  0  0  0  0  0
   46.1180   33.8930   44.4640 N   0  0  0  0  0  0  0  0  0  0  0  0
   45.4330   34.0630   45.6160 C   0  0  0  0  0  0  0  0  0  0  0  0
   44.6240   35.1490   45.7820 N   0  0  0  0  0  0  0  0  0  0  0  0
   43.9180   36.9530   44.7740 H   0  0  0  0  0  0  0  0  0  0  0  0
   45.1710   36.5810   42.7520 H   0  0  0  0  0  0  0  0  0  0  0  0
   45.4790   33.3830   46.4390 H   0  0  0  0  0  0  0  0  0  0  0  0
   45.0910   33.3260   41.2850 O   0  0  0  0  0  0  0  0  0  0  0  0
   40.9860   34.6060   42.1480 H   0  0  0  0  0  0  0  0  0  0  0  0
   41.6280   34.0360   41.5600 N   0  0  0  0  0  0  0  0  0  0  0  0
   42.9840   33.9820   41.7260 C   0  0  0  0  0  3  0  0  0  0  0  0
   43.7930   33.1900   40.8970 C   0  0  0  0  0  0  0  0  0  0  0  0
   43.1290   32.4810   39.9180 C   0  0  0  0  0  0  0  0  0  0  0  0
   43.9310   31.8030   39.2260 O   0  0  0  0  0  0  0  0  0  0  0  0
   41.7940   32.5690   39.7980 N   0  0  0  0  0  0  0  0  0  0  0  0
   41.0450   33.3230   40.5920 C   0  0  0  0  0  0  0  0  0  0  0  0
   39.7990   33.3270   40.3850 O   0  0  0  0  0  0  0  0  0  0  0  0
   41.4030   31.9760   39.0070 H   0  0  0  0  0  0  0  0  0  0  0  0
  1  2  1  0  0  0  0
  1 18  1  0  0  0  0
  2  8  1  0  0  0  0
  3 10  1  0  0  0  0
  3  9  1  0  0  0  0
  3  2  1  0  0  0  0
  4  5  1  0  0  0  0
  4  3  1  0  0  0  0
  5  6  1  0  0  0  0
  6 15  1  6  0  0  0
  6 25  1  0  0  0  0
  6  1  1  0  0  0  0
  7  2  1  0  0  0  0
 11  4  1  0  0  0  0
 12  4  1  0  0  0  0
 13  5  1  0  0  0  0
 14  5  1  0  0  0  0
 16 21  1  0  0  0  0
 17 16  2  0  0  0  0
 18 17  1  0  0  0  0
 18 19  2  0  0  0  0
 19 20  1  0  0  0  0
 20 21  2  0  0  0  0
 20 24  1  0  0  0  0
 22 16  1  0  0  0  0
 23 17  1  0  0  0  0
 27 28  1  0  0  0  0
 27 26  1  0  0  0  0
 29 25  1  0  0  0  0
 29 28  2  0  0  0  0
 30 29  1  0  0  0  0
 31 30  2  0  0  0  0
 32 30  1  0  0  0  0
 32 33  1  0  0  0  0
 33 27  1  0  0  0  0
 34 33  2  0  0  0  0
 35 32  1  0  0  0  0
M  END
>  <minimizedAffinity>
-5.7129302

>  <minimizedRMSD>
0.561020553

$$$$
