
 OpenBabel03252502243D

 35 37  0  0  1  0  0  0  0  0999 V2000
   46.7480   34.5590   42.2720 N   0  0  0  0  0  0  0  0  0  0  0  0
   48.2040   34.5510   42.2980 C   0  0  0  0  0  0  0  0  0  0  0  0
   48.5860   35.3280   41.0190 C   0  0  0  0  0  0  0  0  0  0  0  0
   48.1900   34.5250   39.8230 C   0  0  0  0  0  0  0  0  0  0  0  0
   46.8340   33.9100   39.9160 C   0  0  0  0  0  0  0  0  0  0  0  0
   45.9810   34.3610   41.0650 C   0  0  1  0  0  0  0  0  0  0  0  0
   48.5960   33.5160   42.2230 H   0  0  0  0  0  0  0  0  0  0  0  0
   48.5750   35.1190   43.1640 H   0  0  0  0  0  0  0  0  0  0  0  0
   49.6980   35.4120   41.0770 H   0  0  0  0  0  0  0  0  0  0  0  0
   48.0950   36.3190   41.0880 H   0  0  0  0  0  0  0  0  0  0  0  0
   48.9470   33.6960   39.7340 H   0  0  0  0  0  0  0  0  0  0  0  0
   48.3540   35.1440   38.9190 H   0  0  0  0  0  0  0  0  0  0  0  0
   46.2810   34.2030   38.9750 H   0  0  0  0  0  0  0  0  0  0  0  0
   46.8610   32.7990   39.8900 H   0  0  0  0  0  0  0  0  0  0  0  0
   45.5790   35.3560   40.7920 H   0  0  0  0  0  0  0  0  0  0  0  0
   44.4800   36.0240   44.8660 C   0  0  0  0  0  0  0  0  0  0  0  0
   45.1630   35.9020   43.6490 C   0  0  0  0  0  0  0  0  0  0  0  0
   46.0080   34.7720   43.4810 C   0  0  0  0  0  0  0  0  0  0  0  0
   46.1020   33.8770   44.5110 N   0  0  0  0  0  0  0  0  0  0  0  0
   45.4210   34.0420   45.6660 C   0  0  0  0  0  0  0  0  0  0  0  0
   44.6070   35.1240   45.8360 N   0  0  0  0  0  0  0  0  0  0  0  0
   43.8880   36.9260   44.8320 H   0  0  0  0  0  0  0  0  0  0  0  0
   45.1340   36.5620   42.8050 H   0  0  0  0  0  0  0  0  0  0  0  0
   45.4730   33.3620   46.4890 H   0  0  0  0  0  0  0  0  0  0  0  0
   45.0300   33.3840   41.3000 O   0  0  0  0  0  0  0  0  0  0  0  0
   42.4530   30.8790   38.7890 H   0  0  0  0  0  0  0  0  0  0  0  0
   42.5460   31.7160   39.4010 N   0  0  0  0  0  0  0  0  0  0  0  0
   43.7060   32.0990   40.0120 C   0  0  0  0  0  3  0  0  0  0  0  0
   43.7620   33.2420   40.8260 C   0  0  0  0  0  0  0  0  0  0  0  0
   42.5790   33.9370   40.9610 C   0  0  0  0  0  0  0  0  0  0  0  0
   42.7240   34.9410   41.7040 O   0  0  0  0  0  0  0  0  0  0  0  0
   41.4650   33.5150   40.3370 N   0  0  0  0  0  0  0  0  0  0  0  0
   41.4320   32.4330   39.5720 C   0  0  0  0  0  0  0  0  0  0  0  0
   40.3270   32.1330   39.0350 O   0  0  0  0  0  0  0  0  0  0  0  0
   40.6210   34.1350   40.5190 H   0  0  0  0  0  0  0  0  0  0  0  0
  1  2  1  0  0  0  0
  1 18  1  0  0  0  0
  2  8  1  0  0  0  0
  3  9  1  0  0  0  0
  3 10  1  0  0  0  0
  3  2  1  0  0  0  0
  4  5  1  0  0  0  0
  4  3  1  0  0  0  0
  5  6  1  0  0  0  0
  6 15  1  6  0  0  0
  6 25  1  0  0  0  0
  6  1  1  0  0  0  0
  7  2  1  0  0  0  0
 11  4  1  0  0  0  0
 12  4  1  0  0  0  0
 13  5  1  0  0  0  0
 14  5  1  0  0  0  0
 16 21  1  0  0  0  0
 17 16  2  0  0  0  0
 18 17  1  0  0  0  0
 18 19  2  0  0  0  0
 19 20  1  0  0  0  0
 20 21  2  0  0  0  0
 20 24  1  0  0  0  0
 22 16  1  0  0  0  0
 23 17  1  0  0  0  0
 26 27  1  0  0  0  0
 27 33  1  0  0  0  0
 27 28  1  0  0  0  0
 28 29  2  0  0  0  0
 29 30  1  0  0  0  0
 29 25  1  0  0  0  0
 30 31  2  0  0  0  0
 32 35  1  0  0  0  0
 32 30  1  0  0  0  0
 33 32  1  0  0  0  0
 34 33  2  0  0  0  0
M  END
>  <minimizedAffinity>
-5.57434702

>  <minimizedRMSD>
0.692155063

$$$$
