
 OpenBabel03252509003D

 46 48  0  0  1  0  0  0  0  0999 V2000
   46.8180   34.3320   43.7120 N   0  0  0  0  0  0  0  0  0  0  0  0
   46.3960   35.2710   42.7270 C   0  0  0  0  0  0  0  0  0  0  0  0
   44.9070   35.4760   42.6250 C   0  0  0  0  0  0  0  0  0  0  0  0
   44.1610   35.3130   43.9160 C   0  0  0  0  0  0  0  0  0  0  0  0
   45.1050   35.1110   45.0790 C   0  0  0  0  0  0  0  0  0  0  0  0
   45.9230   33.8390   44.6460 C   0  0  2  0  0  0  0  0  0  0  0  0
   46.8320   36.2560   43.0450 H   0  0  0  0  0  0  0  0  0  0  0  0
   46.7810   35.1090   41.7180 H   0  0  0  0  0  0  0  0  0  0  0  0
   44.4750   34.8440   41.8150 H   0  0  0  0  0  0  0  0  0  0  0  0
   44.7170   36.5260   42.2980 H   0  0  0  0  0  0  0  0  0  0  0  0
   43.5610   34.3750   43.8270 H   0  0  0  0  0  0  0  0  0  0  0  0
   43.4080   36.1160   44.1000 H   0  0  0  0  0  0  0  0  0  0  0  0
   45.7880   35.9620   45.1570 H   0  0  0  0  0  0  0  0  0  0  0  0
   44.5380   34.8880   45.9900 H   0  0  0  0  0  0  0  0  0  0  0  0
   45.1970   33.0840   44.3080 H   0  0  0  0  0  0  0  0  0  0  0  0
   47.9220   33.5110   43.3100 C   0  0  0  0  0  0  0  0  0  0  0  0
   48.6450   34.1290   42.7640 H   0  0  0  0  0  0  0  0  0  0  0  0
   48.4040   33.1040   44.2260 H   0  0  0  0  0  0  0  0  0  0  0  0
   47.4000   32.3630   42.5020 C   0  0  0  0  0  0  0  0  0  0  0  0
   47.5750   31.3950   42.9880 H   0  0  0  0  0  0  0  0  0  0  0  0
   46.3050   32.4480   42.3520 H   0  0  0  0  0  0  0  0  0  0  0  0
   49.8150   31.6720   39.7020 C   0  0  0  0  0  0  0  0  0  0  0  0
   49.2060   31.6580   40.9760 C   0  0  0  0  0  0  0  0  0  0  0  0
   48.0440   32.3760   41.1620 C   0  0  0  0  0  0  0  0  0  0  0  0
   47.5430   33.0610   40.1150 N   0  0  0  0  0  0  0  0  0  0  0  0
   48.1480   33.0550   38.9100 C   0  0  0  0  0  0  0  0  0  0  0  0
   49.2770   32.3710   38.6880 N   0  0  0  0  0  0  0  0  0  0  0  0
   50.7190   31.0910   39.6220 H   0  0  0  0  0  0  0  0  0  0  0  0
   49.6120   31.1030   41.8220 H   0  0  0  0  0  0  0  0  0  0  0  0
   47.7500   33.6030   38.0640 H   0  0  0  0  0  0  0  0  0  0  0  0
   46.5680   33.5110   45.8400 O   0  0  0  0  0  0  0  0  0  0  0  0
   45.5580   31.1000   45.3400 O   0  0  0  0  0  0  0  0  0  0  0  0
   46.0660   32.0170   46.4500 P   0  0  2  0  0  0  0  0  0  0  0  0
   44.7110   32.3500   47.4420 O   0  0  0  0  0  0  0  0  0  0  0  0
   44.9300   33.0760   48.0730 H   0  0  0  0  0  0  0  0  0  0  0  0
   47.2320   31.3130   47.4000 O   0  0  0  0  0  0  0  0  0  0  0  0
   44.9630   27.6010   48.1080 H   0  0  0  0  0  0  0  0  0  0  0  0
   45.8960   28.0580   47.9490 N   0  0  0  0  0  0  0  0  0  0  0  0
   46.0490   29.4020   47.7660 C   0  0  0  0  0  3  0  0  0  0  0  0
   47.3230   29.9400   47.5590 C   0  0  0  0  0  0  0  0  0  0  0  0
   48.3900   29.0730   47.5480 C   0  0  0  0  0  0  0  0  0  0  0  0
   49.4760   29.6740   47.3540 O   0  0  0  0  0  0  0  0  0  0  0  0
   48.1830   27.7660   47.7330 N   0  0  0  0  0  0  0  0  0  0  0  0
   46.9640   27.2470   47.9300 C   0  0  0  0  0  0  0  0  0  0  0  0
   46.9590   26.0040   48.0850 O   0  0  0  0  0  0  0  0  0  0  0  0
   49.0730   27.1960   47.7030 H   0  0  0  0  0  0  0  0  0  0  0  0
  1  6  1  0  0  0  0
  2  7  1  0  0  0  0
  2  1  1  0  0  0  0
  3  2  1  0  0  0  0
  3  4  1  0  0  0  0
  4 12  1  0  0  0  0
  4  5  1  0  0  0  0
  5 13  1  0  0  0  0
  5 14  1  0  0  0  0
  6 15  1  6  0  0  0
  6  5  1  0  0  0  0
  6 31  1  0  0  0  0
  8  2  1  0  0  0  0
  9  3  1  0  0  0  0
 10  3  1  0  0  0  0
 11  4  1  0  0  0  0
 16  1  1  0  0  0  0
 16 18  1  0  0  0  0
 17 16  1  0  0  0  0
 19 20  1  0  0  0  0
 19 16  1  0  0  0  0
 21 19  1  0  0  0  0
 22 23  1  0  0  0  0
 23 24  2  0  0  0  0
 23 29  1  0  0  0  0
 24 19  1  0  0  0  0
 25 24  1  0  0  0  0
 26 25  2  0  0  0  0
 27 26  1  0  0  0  0
 27 22  2  0  0  0  0
 28 22  1  0  0  0  0
 30 26  1  0  0  0  0
 31 33  1  0  0  0  0
 33 32  2  6  0  0  0
 33 36  1  0  0  0  0
 33 34  1  0  0  0  0
 34 35  1  0  0  0  0
 36 40  1  0  0  0  0
 38 37  1  0  0  0  0
 39 38  1  0  0  0  0
 40 39  2  0  0  0  0
 41 40  1  0  0  0  0
 41 43  1  0  0  0  0
 42 41  2  0  0  0  0
 43 44  1  0  0  0  0
 44 38  1  0  0  0  0
 44 45  2  0  0  0  0
 46 43  1  0  0  0  0
M  END
>  <minimizedAffinity>
-4.58557034

>  <minimizedRMSD>
1.4666878

$$$$
