
 OpenBabel03242521293D

 36 38  0  0  1  0  0  0  0  0999 V2000
   37.2970   29.8300   41.5280 C   0  0  1  0  0  0  0  0  0  0  0  0
   37.7240   28.5590   40.8330 C   0  0  2  0  0  0  0  0  0  0  0  0
   36.6550   27.8610   40.3090 O   0  0  0  0  0  0  0  0  0  0  0  0
   36.1950   28.6120   39.2370 C   0  0  0  0  0  0  0  0  0  0  0  0
   35.4930   29.8230   39.7670 C   0  0  2  0  0  0  0  0  0  0  0  0
   36.2650   30.6150   40.7910 C   0  0  2  0  0  0  0  0  0  0  0  0
   38.2280   30.4710   41.5850 H   0  0  0  0  0  0  0  0  0  0  0  0
   38.3720   28.9080   39.9840 H   0  0  0  0  0  0  0  0  0  0  0  0
   37.0110   28.9130   38.5520 H   0  0  0  0  0  0  0  0  0  0  0  0
   35.4420   28.0060   38.7080 H   0  0  0  0  0  0  0  0  0  0  0  0
   35.2800   30.4900   38.9100 H   0  0  0  0  0  0  0  0  0  0  0  0
   35.4980   30.9190   41.5490 H   0  0  0  0  0  0  0  0  0  0  0  0
   38.9150   25.5130   42.7490 C   0  0  0  0  0  0  0  0  0  0  0  0
   38.1950   26.3010   41.8410 C   0  0  0  0  0  0  0  0  0  0  0  0
   38.4650   27.6970   41.7660 C   0  0  0  0  0  0  0  0  0  0  0  0
   39.4160   28.1900   42.5900 N   0  0  0  0  0  0  0  0  0  0  0  0
   40.0960   27.4050   43.4590 C   0  0  0  0  0  0  0  0  0  0  0  0
   39.8500   26.0650   43.5420 N   0  0  0  0  0  0  0  0  0  0  0  0
   38.6120   24.4750   42.7030 H   0  0  0  0  0  0  0  0  0  0  0  0
   37.4340   25.9180   41.1790 H   0  0  0  0  0  0  0  0  0  0  0  0
   40.8600   27.8340   44.1140 H   0  0  0  0  0  0  0  0  0  0  0  0
   36.9530   29.6070   42.8650 O   0  0  0  0  0  0  0  0  0  0  0  0
   37.1650   30.3830   43.4390 H   0  0  0  0  0  0  0  0  0  0  0  0
   34.2800   29.3450   40.2970 O   0  0  0  0  0  0  0  0  0  0  0  0
   33.7220   30.1740   40.4240 H   0  0  0  0  0  0  0  0  0  0  0  0
   36.7790   31.7950   40.2510 O   0  0  0  0  0  0  0  0  0  0  0  0
   38.9540   31.5480   36.2890 H   0  0  0  0  0  0  0  0  0  0  0  0
   38.9930   31.8010   37.2990 N   0  0  0  0  0  0  0  0  0  0  0  0
   37.8490   31.5910   37.9540 C   0  0  0  0  0  3  0  0  0  0  0  0
   37.7800   31.8890   39.2990 C   0  0  0  0  0  0  0  0  0  0  0  0
   38.9310   32.4020   39.9120 C   0  0  0  0  0  0  0  0  0  0  0  0
   39.0850   32.7410   41.1300 O   0  0  0  0  0  0  0  0  0  0  0  0
   40.0790   32.6010   39.2030 N   0  0  0  0  0  0  0  0  0  0  0  0
   40.0910   32.2940   37.8970 C   0  0  0  0  0  0  0  0  0  0  0  0
   41.0750   32.4250   37.1220 O   0  0  0  0  0  0  0  0  0  0  0  0
   40.9600   32.9730   39.5830 H   0  0  0  0  0  0  0  0  0  0  0  0
  1  7  1  1  0  0  0
  1 22  1  0  0  0  0
  2  8  1  6  0  0  0
  2  1  1  0  0  0  0
  2 15  1  0  0  0  0
  3  2  1  0  0  0  0
  4  5  1  0  0  0  0
  4  3  1  0  0  0  0
  5 11  1  6  0  0  0
  5 24  1  0  0  0  0
  5  6  1  0  0  0  0
  6  1  1  0  0  0  0
  6 12  1  1  0  0  0
  9  4  1  0  0  0  0
 10  4  1  0  0  0  0
 13 18  1  0  0  0  0
 14 13  2  0  0  0  0
 15 14  1  0  0  0  0
 15 16  2  0  0  0  0
 16 17  1  0  0  0  0
 17 18  2  0  0  0  0
 17 21  1  0  0  0  0
 19 13  1  0  0  0  0
 20 14  1  0  0  0  0
 22 23  1  0  0  0  0
 24 25  1  0  0  0  0
 26  6  1  0  0  0  0
 27 28  1  0  0  0  0
 28 34  1  0  0  0  0
 28 29  1  0  0  0  0
 29 30  2  0  0  0  0
 30 31  1  0  0  0  0
 30 26  1  0  0  0  0
 31 32  2  0  0  0  0
 33 36  1  0  0  0  0
 33 31  1  0  0  0  0
 34 33  1  0  0  0  0
 35 34  2  0  0  0  0
M  END
>  <minimizedAffinity>
-6.18942976

$$$$

 OpenBabel03242521293D

 36 38  0  0  1  0  0  0  0  0999 V2000
   39.1840   31.7810   38.2070 C   0  0  1  0  0  0  0  0  0  0  0  0
   40.1520   32.4030   39.1860 C   0  0  2  0  0  0  0  0  0  0  0  0
   39.6740   33.5820   39.7230 O   0  0  0  0  0  0  0  0  0  0  0  0
   38.6310   33.2240   40.5650 C   0  0  0  0  0  0  0  0  0  0  0  0
   37.4590   32.8140   39.7290 C   0  0  2  0  0  0  0  0  0  0  0  0
   37.7620   31.8010   38.6550 C   0  0  2  0  0  0  0  0  0  0  0  0
   39.4950   30.6970   38.1220 H   0  0  0  0  0  0  0  0  0  0  0  0
   40.2390   31.6460   40.0120 H   0  0  0  0  0  0  0  0  0  0  0  0
   38.9100   32.4080   41.2590 H   0  0  0  0  0  0  0  0  0  0  0  0
   38.3320   34.1270   41.1210 H   0  0  0  0  0  0  0  0  0  0  0  0
   36.7010   32.3780   40.4060 H   0  0  0  0  0  0  0  0  0  0  0  0
   37.1570   32.1340   37.7740 H   0  0  0  0  0  0  0  0  0  0  0  0
   43.2280   34.1570   37.8350 C   0  0  0  0  0  0  0  0  0  0  0  0
   41.9970   33.9600   38.4760 C   0  0  0  0  0  0  0  0  0  0  0  0
   41.4450   32.6480   38.5320 C   0  0  0  0  0  0  0  0  0  0  0  0
   42.1520   31.6530   37.9530 N   0  0  0  0  0  0  0  0  0  0  0  0
   43.3390   31.8720   37.3390 C   0  0  0  0  0  0  0  0  0  0  0  0
   43.8830   33.1230   37.2780 N   0  0  0  0  0  0  0  0  0  0  0  0
   43.5310   35.1960   37.8660 H   0  0  0  0  0  0  0  0  0  0  0  0
   41.4260   34.7470   38.9410 H   0  0  0  0  0  0  0  0  0  0  0  0
   43.8880   31.0450   36.8790 H   0  0  0  0  0  0  0  0  0  0  0  0
   39.3490   32.2870   36.9140 O   0  0  0  0  0  0  0  0  0  0  0  0
   39.1460   31.6120   36.2210 H   0  0  0  0  0  0  0  0  0  0  0  0
   36.9610   34.0100   39.1790 O   0  0  0  0  0  0  0  0  0  0  0  0
   36.0500   33.7590   38.8280 H   0  0  0  0  0  0  0  0  0  0  0  0
   37.2950   30.5300   38.9980 O   0  0  0  0  0  0  0  0  0  0  0  0
   39.4320   28.6750   42.5310 H   0  0  0  0  0  0  0  0  0  0  0  0
   38.5240   28.8890   42.0650 N   0  0  0  0  0  0  0  0  0  0  0  0
   38.6500   29.5380   40.9060 C   0  0  0  0  0  3  0  0  0  0  0  0
   37.5160   29.8760   40.1980 C   0  0  0  0  0  0  0  0  0  0  0  0
   36.2770   29.5130   40.7420 C   0  0  0  0  0  0  0  0  0  0  0  0
   35.1170   29.7240   40.2590 O   0  0  0  0  0  0  0  0  0  0  0  0
   36.1950   28.8500   41.9310 N   0  0  0  0  0  0  0  0  0  0  0  0
   37.3310   28.5460   42.5790 C   0  0  0  0  0  0  0  0  0  0  0  0
   37.4060   27.9400   43.6800 O   0  0  0  0  0  0  0  0  0  0  0  0
   35.3240   28.5520   42.3910 H   0  0  0  0  0  0  0  0  0  0  0  0
  1  7  1  6  0  0  0
  1  6  1  0  0  0  0
  1  2  1  0  0  0  0
  2  3  1  0  0  0  0
  2  8  1  1  0  0  0
  3  4  1  0  0  0  0
  4 10  1  0  0  0  0
  4  9  1  0  0  0  0
  5 11  1  1  0  0  0
  5  4  1  0  0  0  0
  6 12  1  6  0  0  0
  6 26  1  0  0  0  0
  6  5  1  0  0  0  0
 13 19  1  0  0  0  0
 13 14  1  0  0  0  0
 14 15  2  0  0  0  0
 14 20  1  0  0  0  0
 15  2  1  0  0  0  0
 16 15  1  0  0  0  0
 17 16  2  0  0  0  0
 18 17  1  0  0  0  0
 18 13  2  0  0  0  0
 21 17  1  0  0  0  0
 22  1  1  0  0  0  0
 23 22  1  0  0  0  0
 24  5  1  0  0  0  0
 25 24  1  0  0  0  0
 26 30  1  0  0  0  0
 28 27  1  0  0  0  0
 28 34  1  0  0  0  0
 29 28  1  0  0  0  0
 30 31  1  0  0  0  0
 30 29  2  0  0  0  0
 31 33  1  0  0  0  0
 32 31  2  0  0  0  0
 33 36  1  0  0  0  0
 33 34  1  0  0  0  0
 34 35  2  0  0  0  0
M  END
>  <minimizedAffinity>
-6.16332722

$$$$

 OpenBabel03242521293D

 36 38  0  0  1  0  0  0  0  0999 V2000
   38.3190   29.2300   42.1390 C   0  0  1  0  0  0  0  0  0  0  0  0
   37.9720   28.2850   41.0130 C   0  0  2  0  0  0  0  0  0  0  0  0
   36.7160   28.5250   40.4920 O   0  0  0  0  0  0  0  0  0  0  0  0
   36.8070   29.7310   39.8130 C   0  0  0  0  0  0  0  0  0  0  0  0
   36.8990   30.8400   40.8140 C   0  0  2  0  0  0  0  0  0  0  0  0
   37.9460   30.6510   41.8830 C   0  0  2  0  0  0  0  0  0  0  0  0
   39.4460   29.1910   42.2300 H   0  0  0  0  0  0  0  0  0  0  0  0
   38.7350   28.5050   40.2180 H   0  0  0  0  0  0  0  0  0  0  0  0
   37.6740   29.7640   39.1250 H   0  0  0  0  0  0  0  0  0  0  0  0
   35.8630   29.8700   39.2610 H   0  0  0  0  0  0  0  0  0  0  0  0
   37.1370   31.7700   40.2640 H   0  0  0  0  0  0  0  0  0  0  0  0
   37.4610   31.0250   42.8210 H   0  0  0  0  0  0  0  0  0  0  0  0
   37.0990   24.6630   41.7070 C   0  0  0  0  0  0  0  0  0  0  0  0
   36.9890   25.9800   41.2400 C   0  0  0  0  0  0  0  0  0  0  0  0
   38.0550   26.8930   41.4780 C   0  0  0  0  0  0  0  0  0  0  0  0
   39.1290   26.4290   42.1540 N   0  0  0  0  0  0  0  0  0  0  0  0
   39.2090   25.1510   42.5950 C   0  0  0  0  0  0  0  0  0  0  0  0
   38.1960   24.2630   42.3730 N   0  0  0  0  0  0  0  0  0  0  0  0
   36.2230   24.0780   41.4590 H   0  0  0  0  0  0  0  0  0  0  0  0
   36.1360   26.3590   40.7000 H   0  0  0  0  0  0  0  0  0  0  0  0
   40.0930   24.8060   43.1390 H   0  0  0  0  0  0  0  0  0  0  0  0
   37.8590   28.7660   43.3750 O   0  0  0  0  0  0  0  0  0  0  0  0
   38.4530   29.0320   44.1180 H   0  0  0  0  0  0  0  0  0  0  0  0
   35.6110   30.9430   41.3710 O   0  0  0  0  0  0  0  0  0  0  0  0
   35.6200   31.8290   41.8510 H   0  0  0  0  0  0  0  0  0  0  0  0
   39.0600   31.4630   41.6620 O   0  0  0  0  0  0  0  0  0  0  0  0
   41.4890   30.5390   37.9560 H   0  0  0  0  0  0  0  0  0  0  0  0
   40.9730   31.2520   38.5140 N   0  0  0  0  0  0  0  0  0  0  0  0
   40.4350   30.7740   39.6380 C   0  0  0  0  0  3  0  0  0  0  0  0
   39.7260   31.6260   40.4600 C   0  0  0  0  0  0  0  0  0  0  0  0
   39.6080   32.9640   40.0630 C   0  0  0  0  0  0  0  0  0  0  0  0
   39.0040   33.9100   40.6660 O   0  0  0  0  0  0  0  0  0  0  0  0
   40.1740   33.4100   38.9040 N   0  0  0  0  0  0  0  0  0  0  0  0
   40.8530   32.5380   38.1420 C   0  0  0  0  0  0  0  0  0  0  0  0
   41.4240   32.8070   37.0530 O   0  0  0  0  0  0  0  0  0  0  0  0
   40.1300   34.3740   38.5490 H   0  0  0  0  0  0  0  0  0  0  0  0
  1  7  1  1  0  0  0
  1 22  1  0  0  0  0
  2  8  1  6  0  0  0
  2 15  1  0  0  0  0
  2  1  1  0  0  0  0
  3  2  1  0  0  0  0
  4  3  1  0  0  0  0
  4  5  1  0  0  0  0
  5 11  1  6  0  0  0
  5 24  1  0  0  0  0
  5  6  1  0  0  0  0
  6  1  1  0  0  0  0
  6 12  1  1  0  0  0
  9  4  1  0  0  0  0
 10  4  1  0  0  0  0
 13 18  1  0  0  0  0
 14 15  1  0  0  0  0
 14 13  2  0  0  0  0
 15 16  2  0  0  0  0
 16 17  1  0  0  0  0
 17 21  1  0  0  0  0
 18 17  2  0  0  0  0
 19 13  1  0  0  0  0
 20 14  1  0  0  0  0
 22 23  1  0  0  0  0
 24 25  1  0  0  0  0
 26  6  1  0  0  0  0
 27 28  1  0  0  0  0
 28 29  1  0  0  0  0
 29 30  2  0  0  0  0
 30 26  1  0  0  0  0
 31 30  1  0  0  0  0
 31 32  2  0  0  0  0
 33 31  1  0  0  0  0
 34 28  1  0  0  0  0
 34 33  1  0  0  0  0
 35 34  2  0  0  0  0
 36 33  1  0  0  0  0
M  END
>  <minimizedAffinity>
-5.8005228

$$$$

 OpenBabel03242521293D

 36 38  0  0  1  0  0  0  0  0999 V2000
   35.7360   29.2850   40.3960 C   0  0  1  0  0  0  0  0  0  0  0  0
   36.2770   29.2070   38.9880 C   0  0  2  0  0  0  0  0  0  0  0  0
   36.5830   30.4490   38.4710 O   0  0  0  0  0  0  0  0  0  0  0  0
   37.7020   30.8870   39.1650 C   0  0  0  0  0  0  0  0  0  0  0  0
   37.2880   31.2670   40.5520 C   0  0  2  0  0  0  0  0  0  0  0  0
   36.4730   30.2300   41.2830 C   0  0  2  0  0  0  0  0  0  0  0  0
   35.8680   28.2480   40.8290 H   0  0  0  0  0  0  0  0  0  0  0  0
   37.2290   28.6170   39.0860 H   0  0  0  0  0  0  0  0  0  0  0  0
   38.5020   30.1230   39.2010 H   0  0  0  0  0  0  0  0  0  0  0  0
   38.0580   31.8050   38.6700 H   0  0  0  0  0  0  0  0  0  0  0  0
   38.2070   31.4540   41.1380 H   0  0  0  0  0  0  0  0  0  0  0  0
   35.6950   30.8200   41.8330 H   0  0  0  0  0  0  0  0  0  0  0  0
   34.4100   26.5150   37.0800 C   0  0  0  0  0  0  0  0  0  0  0  0
   35.3450   27.1220   37.9310 C   0  0  0  0  0  0  0  0  0  0  0  0
   35.3070   28.5340   38.1110 C   0  0  0  0  0  0  0  0  0  0  0  0
   34.3570   29.2200   37.4380 N   0  0  0  0  0  0  0  0  0  0  0  0
   33.4670   28.6090   36.6210 C   0  0  0  0  0  0  0  0  0  0  0  0
   33.4890   27.2560   36.4380 N   0  0  0  0  0  0  0  0  0  0  0  0
   34.5500   25.4430   37.0350 H   0  0  0  0  0  0  0  0  0  0  0  0
   36.1060   26.5830   38.4730 H   0  0  0  0  0  0  0  0  0  0  0  0
   32.7100   29.1920   36.0890 H   0  0  0  0  0  0  0  0  0  0  0  0
   34.3540   29.4920   40.4160 O   0  0  0  0  0  0  0  0  0  0  0  0
   33.9240   29.0600   41.1950 H   0  0  0  0  0  0  0  0  0  0  0  0
   36.5730   32.4710   40.4080 O   0  0  0  0  0  0  0  0  0  0  0  0
   36.5140   32.8360   41.3450 H   0  0  0  0  0  0  0  0  0  0  0  0
   37.2290   29.5700   42.2530 O   0  0  0  0  0  0  0  0  0  0  0  0
   40.5600   26.8660   40.8100 H   0  0  0  0  0  0  0  0  0  0  0  0
   39.6810   26.9610   41.3610 N   0  0  0  0  0  0  0  0  0  0  0  0
   39.1700   28.1940   41.3580 C   0  0  0  0  0  3  0  0  0  0  0  0
   38.0050   28.4410   42.0550 C   0  0  0  0  0  0  0  0  0  0  0  0
   37.4150   27.3690   42.7370 C   0  0  0  0  0  0  0  0  0  0  0  0
   36.3490   27.3760   43.4340 O   0  0  0  0  0  0  0  0  0  0  0  0
   37.9720   26.1240   42.7130 N   0  0  0  0  0  0  0  0  0  0  0  0
   39.1060   25.9390   42.0190 C   0  0  0  0  0  0  0  0  0  0  0  0
   39.7290   24.8510   41.9100 O   0  0  0  0  0  0  0  0  0  0  0  0
   37.5980   25.2920   43.1880 H   0  0  0  0  0  0  0  0  0  0  0  0
  1 22  1  0  0  0  0
  1  7  1  1  0  0  0
  1  6  1  0  0  0  0
  2  8  1  1  0  0  0
  2  1  1  0  0  0  0
  3  2  1  0  0  0  0
  3  4  1  0  0  0  0
  4  9  1  0  0  0  0
  4  5  1  0  0  0  0
  5 11  1  1  0  0  0
  5  6  1  0  0  0  0
  6 12  1  1  0  0  0
  6 26  1  0  0  0  0
 10  4  1  0  0  0  0
 13 14  1  0  0  0  0
 14 15  2  0  0  0  0
 14 20  1  0  0  0  0
 15  2  1  0  0  0  0
 16 15  1  0  0  0  0
 17 16  2  0  0  0  0
 18 17  1  0  0  0  0
 18 13  2  0  0  0  0
 19 13  1  0  0  0  0
 21 17  1  0  0  0  0
 22 23  1  0  0  0  0
 24  5  1  0  0  0  0
 24 25  1  0  0  0  0
 27 28  1  0  0  0  0
 28 34  1  0  0  0  0
 29 28  1  0  0  0  0
 29 30  2  0  0  0  0
 30 26  1  0  0  0  0
 30 31  1  0  0  0  0
 31 32  2  0  0  0  0
 33 31  1  0  0  0  0
 33 36  1  0  0  0  0
 34 33  1  0  0  0  0
 35 34  2  0  0  0  0
M  END
>  <minimizedAffinity>
-5.63086081

$$$$

 OpenBabel03242521293D

 36 38  0  0  1  0  0  0  0  0999 V2000
   38.2040   30.8800   39.1080 C   0  0  1  0  0  0  0  0  0  0  0  0
   39.5810   31.4770   39.2790 C   0  0  2  0  0  0  0  0  0  0  0  0
   39.5800   32.8510   39.1510 O   0  0  0  0  0  0  0  0  0  0  0  0
   38.9340   33.3400   40.2770 C   0  0  0  0  0  0  0  0  0  0  0  0
   37.4690   33.0560   40.1500 C   0  0  2  0  0  0  0  0  0  0  0  0
   37.1210   31.6300   39.8070 C   0  0  2  0  0  0  0  0  0  0  0  0
   38.2590   29.8530   39.5780 H   0  0  0  0  0  0  0  0  0  0  0  0
   39.8690   31.2170   40.3340 H   0  0  0  0  0  0  0  0  0  0  0  0
   39.3280   32.9010   41.2140 H   0  0  0  0  0  0  0  0  0  0  0  0
   39.0530   34.4350   40.2760 H   0  0  0  0  0  0  0  0  0  0  0  0
   36.9950   33.2990   41.1190 H   0  0  0  0  0  0  0  0  0  0  0  0
   36.2740   31.7140   39.0790 H   0  0  0  0  0  0  0  0  0  0  0  0
   42.3020   31.1200   36.6640 C   0  0  0  0  0  0  0  0  0  0  0  0
   41.4380   31.7110   37.5970 C   0  0  0  0  0  0  0  0  0  0  0  0
   40.5100   30.8920   38.3010 C   0  0  0  0  0  0  0  0  0  0  0  0
   40.5150   29.5690   38.0230 N   0  0  0  0  0  0  0  0  0  0  0  0
   41.3600   29.0240   37.1160 C   0  0  0  0  0  0  0  0  0  0  0  0
   42.2570   29.7950   36.4340 N   0  0  0  0  0  0  0  0  0  0  0  0
   42.9530   31.8520   36.2040 H   0  0  0  0  0  0  0  0  0  0  0  0
   41.4270   32.7650   37.8250 H   0  0  0  0  0  0  0  0  0  0  0  0
   41.3400   27.9500   36.9130 H   0  0  0  0  0  0  0  0  0  0  0  0
   37.9050   30.6270   37.7660 O   0  0  0  0  0  0  0  0  0  0  0  0
   37.3200   29.8380   37.6570 H   0  0  0  0  0  0  0  0  0  0  0  0
   37.0030   33.9480   39.1660 O   0  0  0  0  0  0  0  0  0  0  0  0
   36.0010   33.9210   39.2630 H   0  0  0  0  0  0  0  0  0  0  0  0
   36.6250   30.9390   40.9140 O   0  0  0  0  0  0  0  0  0  0  0  0
   39.7640   29.0780   43.5910 H   0  0  0  0  0  0  0  0  0  0  0  0
   38.8830   28.9500   43.0490 N   0  0  0  0  0  0  0  0  0  0  0  0
   38.4710   30.0540   42.4210 C   0  0  0  0  0  3  0  0  0  0  0  0
   37.3140   30.0070   41.6700 C   0  0  0  0  0  0  0  0  0  0  0  0
   36.6280   28.7870   41.6070 C   0  0  0  0  0  0  0  0  0  0  0  0
   35.5520   28.5250   40.9780 O   0  0  0  0  0  0  0  0  0  0  0  0
   37.0870   27.6830   42.2650 N   0  0  0  0  0  0  0  0  0  0  0  0
   38.2180   27.7850   42.9820 C   0  0  0  0  0  0  0  0  0  0  0  0
   38.7550   26.8540   43.6370 O   0  0  0  0  0  0  0  0  0  0  0  0
   36.6390   26.7580   42.2650 H   0  0  0  0  0  0  0  0  0  0  0  0
  1  2  1  0  0  0  0
  1  7  1  1  0  0  0
  1  6  1  0  0  0  0
  2  8  1  1  0  0  0
  3  2  1  0  0  0  0
  3  4  1  0  0  0  0
  4  9  1  0  0  0  0
  5  4  1  0  0  0  0
  5 11  1  1  0  0  0
  6 12  1  6  0  0  0
  6  5  1  0  0  0  0
  6 26  1  0  0  0  0
 10  4  1  0  0  0  0
 13 14  1  0  0  0  0
 14 20  1  0  0  0  0
 14 15  2  0  0  0  0
 15  2  1  0  0  0  0
 16 15  1  0  0  0  0
 17 16  2  0  0  0  0
 18 13  2  0  0  0  0
 18 17  1  0  0  0  0
 19 13  1  0  0  0  0
 21 17  1  0  0  0  0
 22  1  1  0  0  0  0
 23 22  1  0  0  0  0
 24 25  1  0  0  0  0
 24  5  1  0  0  0  0
 26 30  1  0  0  0  0
 28 27  1  0  0  0  0
 29 28  1  0  0  0  0
 30 29  2  0  0  0  0
 31 30  1  0  0  0  0
 31 33  1  0  0  0  0
 32 31  2  0  0  0  0
 33 34  1  0  0  0  0
 34 28  1  0  0  0  0
 34 35  2  0  0  0  0
 36 33  1  0  0  0  0
M  END
>  <minimizedAffinity>
-5.60313177

$$$$

 OpenBabel03242521293D

 36 38  0  0  1  0  0  0  0  0999 V2000
   38.3150   27.1780   41.0620 C   0  0  1  0  0  0  0  0  0  0  0  0
   38.1290   25.9680   41.9470 C   0  0  2  0  0  0  0  0  0  0  0  0
   39.2470   25.6950   42.7080 O   0  0  0  0  0  0  0  0  0  0  0  0
   39.3250   26.7080   43.6510 C   0  0  0  0  0  0  0  0  0  0  0  0
   39.7650   27.9660   42.9700 C   0  0  2  0  0  0  0  0  0  0  0  0
   38.9830   28.3310   41.7330 C   0  0  2  0  0  0  0  0  0  0  0  0
   37.2710   27.5120   40.7820 H   0  0  0  0  0  0  0  0  0  0  0  0
   37.2890   26.2530   42.6370 H   0  0  0  0  0  0  0  0  0  0  0  0
   38.3640   26.8730   44.1750 H   0  0  0  0  0  0  0  0  0  0  0  0
   40.1180   26.4330   44.3660 H   0  0  0  0  0  0  0  0  0  0  0  0
   39.6630   28.7950   43.6950 H   0  0  0  0  0  0  0  0  0  0  0  0
   39.7520   28.7130   41.0150 H   0  0  0  0  0  0  0  0  0  0  0  0
   38.2070   22.4990   40.4200 C   0  0  0  0  0  0  0  0  0  0  0  0
   38.5550   23.5960   41.2210 C   0  0  0  0  0  0  0  0  0  0  0  0
   37.7890   24.7930   41.1300 C   0  0  0  0  0  0  0  0  0  0  0  0
   36.7550   24.8030   40.2610 N   0  0  0  0  0  0  0  0  0  0  0  0
   36.4420   23.7300   39.4980 C   0  0  0  0  0  0  0  0  0  0  0  0
   37.1650   22.5740   39.5740 N   0  0  0  0  0  0  0  0  0  0  0  0
   38.8670   21.6590   40.5890 H   0  0  0  0  0  0  0  0  0  0  0  0
   39.3780   23.5980   41.9180 H   0  0  0  0  0  0  0  0  0  0  0  0
   35.5980   23.7690   38.8030 H   0  0  0  0  0  0  0  0  0  0  0  0
   38.9080   26.8490   39.8400 O   0  0  0  0  0  0  0  0  0  0  0  0
   38.5940   27.4300   39.1050 H   0  0  0  0  0  0  0  0  0  0  0  0
   41.1270   27.7700   42.6740 O   0  0  0  0  0  0  0  0  0  0  0  0
   41.4640   28.6910   42.4450 H   0  0  0  0  0  0  0  0  0  0  0  0
   38.1040   29.3890   41.9730 O   0  0  0  0  0  0  0  0  0  0  0  0
   39.7190   33.3240   40.4280 H   0  0  0  0  0  0  0  0  0  0  0  0
   38.8920   32.7040   40.5590 N   0  0  0  0  0  0  0  0  0  0  0  0
   39.1730   31.5470   41.1620 C   0  0  0  0  0  3  0  0  0  0  0  0
   38.1560   30.6430   41.3900 C   0  0  0  0  0  0  0  0  0  0  0  0
   36.8670   30.9940   40.9710 C   0  0  0  0  0  0  0  0  0  0  0  0
   35.7950   30.3150   41.0810 O   0  0  0  0  0  0  0  0  0  0  0  0
   36.6240   32.1890   40.3580 N   0  0  0  0  0  0  0  0  0  0  0  0
   37.6510   33.0310   40.1600 C   0  0  0  0  0  0  0  0  0  0  0  0
   37.5760   34.1610   39.6100 O   0  0  0  0  0  0  0  0  0  0  0  0
   35.7080   32.5150   40.0230 H   0  0  0  0  0  0  0  0  0  0  0  0
  1  7  1  6  0  0  0
  1  6  1  0  0  0  0
  1  2  1  0  0  0  0
  2  8  1  1  0  0  0
  2  3  1  0  0  0  0
  3  4  1  0  0  0  0
  4  9  1  0  0  0  0
  4 10  1  0  0  0  0
  5  4  1  0  0  0  0
  5 11  1  1  0  0  0
  6 12  1  6  0  0  0
  6 26  1  0  0  0  0
  6  5  1  0  0  0  0
 13 19  1  0  0  0  0
 13 14  1  0  0  0  0
 14 20  1  0  0  0  0
 15 14  2  0  0  0  0
 15  2  1  0  0  0  0
 16 15  1  0  0  0  0
 17 18  1  0  0  0  0
 17 16  2  0  0  0  0
 18 13  2  0  0  0  0
 21 17  1  0  0  0  0
 22  1  1  0  0  0  0
 23 22  1  0  0  0  0
 24  5  1  0  0  0  0
 25 24  1  0  0  0  0
 27 28  1  0  0  0  0
 28 29  1  0  0  0  0
 29 30  2  0  0  0  0
 30 26  1  0  0  0  0
 31 32  2  0  0  0  0
 31 30  1  0  0  0  0
 33 31  1  0  0  0  0
 34 33  1  0  0  0  0
 34 28  1  0  0  0  0
 35 34  2  0  0  0  0
 36 33  1  0  0  0  0
M  END
>  <minimizedAffinity>
-5.4940505

$$$$

 OpenBabel03242521293D

 36 38  0  0  1  0  0  0  0  0999 V2000
   39.3260   30.6450   39.9710 C   0  0  1  0  0  0  0  0  0  0  0  0
   37.8560   30.5930   40.3180 C   0  0  2  0  0  0  0  0  0  0  0  0
   37.4340   31.7180   40.9960 O   0  0  0  0  0  0  0  0  0  0  0  0
   37.4560   32.7530   40.0740 C   0  0  0  0  0  0  0  0  0  0  0  0
   38.8810   33.1220   39.8000 C   0  0  2  0  0  0  0  0  0  0  0  0
   39.7870   31.9660   39.4560 C   0  0  2  0  0  0  0  0  0  0  0  0
   39.4670   29.8920   39.1380 H   0  0  0  0  0  0  0  0  0  0  0  0
   37.3350   30.5610   39.3220 H   0  0  0  0  0  0  0  0  0  0  0  0
   36.9420   32.4880   39.1290 H   0  0  0  0  0  0  0  0  0  0  0  0
   36.9800   33.6270   40.5470 H   0  0  0  0  0  0  0  0  0  0  0  0
   38.8880   33.8260   38.9480 H   0  0  0  0  0  0  0  0  0  0  0  0
   40.7480   32.1940   39.9840 H   0  0  0  0  0  0  0  0  0  0  0  0
   36.9700   27.0390   41.2940 C   0  0  0  0  0  0  0  0  0  0  0  0
   37.2480   28.1570   40.4960 C   0  0  0  0  0  0  0  0  0  0  0  0
   37.5690   29.3950   41.1210 C   0  0  0  0  0  0  0  0  0  0  0  0
   37.5880   29.4210   42.4720 N   0  0  0  0  0  0  0  0  0  0  0  0
   37.3150   28.3260   43.2200 C   0  0  0  0  0  0  0  0  0  0  0  0
   37.0060   27.1310   42.6350 N   0  0  0  0  0  0  0  0  0  0  0  0
   36.7430   26.1680   40.6940 H   0  0  0  0  0  0  0  0  0  0  0  0
   37.2360   28.1470   39.4170 H   0  0  0  0  0  0  0  0  0  0  0  0
   37.3370   28.3780   44.3120 H   0  0  0  0  0  0  0  0  0  0  0  0
   40.1270   30.1620   41.0100 O   0  0  0  0  0  0  0  0  0  0  0  0
   40.9450   29.7200   40.6750 H   0  0  0  0  0  0  0  0  0  0  0  0
   39.3200   33.7880   40.9590 O   0  0  0  0  0  0  0  0  0  0  0  0
   40.1760   34.2360   40.6770 H   0  0  0  0  0  0  0  0  0  0  0  0
   40.0820   31.9310   38.0920 O   0  0  0  0  0  0  0  0  0  0  0  0
   43.1520   29.0680   36.4000 H   0  0  0  0  0  0  0  0  0  0  0  0
   42.9000   30.0540   36.6270 N   0  0  0  0  0  0  0  0  0  0  0  0
   41.6910   30.1900   37.1760 C   0  0  0  0  0  3  0  0  0  0  0  0
   41.2470   31.4500   37.5210 C   0  0  0  0  0  0  0  0  0  0  0  0
   42.1020   32.5320   37.2710 C   0  0  0  0  0  0  0  0  0  0  0  0
   41.8930   33.7660   37.5090 O   0  0  0  0  0  0  0  0  0  0  0  0
   43.3300   32.3460   36.7070 N   0  0  0  0  0  0  0  0  0  0  0  0
   43.7120   31.0980   36.3920 C   0  0  0  0  0  0  0  0  0  0  0  0
   44.8120   30.7790   35.8690 O   0  0  0  0  0  0  0  0  0  0  0  0
   44.0090   33.0880   36.4950 H   0  0  0  0  0  0  0  0  0  0  0  0
  1  7  1  6  0  0  0
  1  2  1  0  0  0  0
  1 22  1  0  0  0  0
  2  8  1  6  0  0  0
  2  3  1  0  0  0  0
  2 15  1  0  0  0  0
  4 10  1  0  0  0  0
  4  3  1  0  0  0  0
  5 11  1  6  0  0  0
  5  4  1  0  0  0  0
  5 24  1  0  0  0  0
  6  5  1  0  0  0  0
  6  1  1  0  0  0  0
  6 12  1  1  0  0  0
  9  4  1  0  0  0  0
 13 18  1  0  0  0  0
 14 15  1  0  0  0  0
 14 13  2  0  0  0  0
 15 16  2  0  0  0  0
 16 17  1  0  0  0  0
 17 21  1  0  0  0  0
 18 17  2  0  0  0  0
 19 13  1  0  0  0  0
 20 14  1  0  0  0  0
 23 22  1  0  0  0  0
 25 24  1  0  0  0  0
 26  6  1  0  0  0  0
 27 28  1  0  0  0  0
 28 29  1  0  0  0  0
 29 30  2  0  0  0  0
 30 26  1  0  0  0  0
 31 32  2  0  0  0  0
 31 30  1  0  0  0  0
 33 31  1  0  0  0  0
 34 28  1  0  0  0  0
 34 33  1  0  0  0  0
 35 34  2  0  0  0  0
 36 33  1  0  0  0  0
M  END
>  <minimizedAffinity>
-5.42045927

$$$$

 OpenBabel03242521293D

 36 38  0  0  1  0  0  0  0  0999 V2000
   36.6380   27.6840   38.6570 C   0  0  1  0  0  0  0  0  0  0  0  0
   37.9220   27.3300   39.3690 C   0  0  2  0  0  0  0  0  0  0  0  0
   39.0010   27.2690   38.5120 O   0  0  0  0  0  0  0  0  0  0  0  0
   39.2590   28.5750   38.1250 C   0  0  0  0  0  0  0  0  0  0  0  0
   38.1870   29.0160   37.1780 C   0  0  2  0  0  0  0  0  0  0  0  0
   36.7760   28.7780   37.6530 C   0  0  2  0  0  0  0  0  0  0  0  0
   35.9370   28.0540   39.4630 H   0  0  0  0  0  0  0  0  0  0  0  0
   38.0860   28.1790   40.0880 H   0  0  0  0  0  0  0  0  0  0  0  0
   39.3150   29.2670   38.9880 H   0  0  0  0  0  0  0  0  0  0  0  0
   40.2070   28.5730   37.5630 H   0  0  0  0  0  0  0  0  0  0  0  0
   38.3120   30.1020   37.0110 H   0  0  0  0  0  0  0  0  0  0  0  0
   36.2240   28.4400   36.7390 H   0  0  0  0  0  0  0  0  0  0  0  0
   37.1610   24.7530   42.0420 C   0  0  0  0  0  0  0  0  0  0  0  0
   37.2790   25.9950   41.4030 C   0  0  0  0  0  0  0  0  0  0  0  0
   37.7750   26.0450   40.0690 C   0  0  0  0  0  0  0  0  0  0  0  0
   38.1090   24.8730   39.4870 N   0  0  0  0  0  0  0  0  0  0  0  0
   37.9850   23.6870   40.1280 C   0  0  0  0  0  0  0  0  0  0  0  0
   37.5110   23.6210   41.4060 N   0  0  0  0  0  0  0  0  0  0  0  0
   36.7730   24.8570   43.0470 H   0  0  0  0  0  0  0  0  0  0  0  0
   37.0150   26.9360   41.8590 H   0  0  0  0  0  0  0  0  0  0  0  0
   38.2650   22.7540   39.6290 H   0  0  0  0  0  0  0  0  0  0  0  0
   35.9980   26.5540   38.1390 O   0  0  0  0  0  0  0  0  0  0  0  0
   35.0140   26.6490   38.1410 H   0  0  0  0  0  0  0  0  0  0  0  0
   38.4470   28.3270   35.9790 O   0  0  0  0  0  0  0  0  0  0  0  0
   37.8840   28.8040   35.2930 H   0  0  0  0  0  0  0  0  0  0  0  0
   36.1650   29.9620   38.0700 O   0  0  0  0  0  0  0  0  0  0  0  0
   38.6980   33.7120   38.1790 H   0  0  0  0  0  0  0  0  0  0  0  0
   38.0990   33.0400   38.7040 N   0  0  0  0  0  0  0  0  0  0  0  0
   37.6180   32.0450   37.9560 C   0  0  0  0  0  3  0  0  0  0  0  0
   36.8110   31.0920   38.5420 C   0  0  0  0  0  0  0  0  0  0  0  0
   36.5380   31.2220   39.9100 C   0  0  0  0  0  0  0  0  0  0  0  0
   35.8240   30.4630   40.6430 O   0  0  0  0  0  0  0  0  0  0  0  0
   37.0510   32.2570   40.6370 N   0  0  0  0  0  0  0  0  0  0  0  0
   37.8300   33.1560   40.0160 C   0  0  0  0  0  0  0  0  0  0  0  0
   38.3690   34.1570   40.5580 O   0  0  0  0  0  0  0  0  0  0  0  0
   36.8940   32.4180   41.6410 H   0  0  0  0  0  0  0  0  0  0  0  0
  1  2  1  0  0  0  0
  1  7  1  1  0  0  0
  2 15  1  0  0  0  0
  2  8  1  1  0  0  0
  3  2  1  0  0  0  0
  4  3  1  0  0  0  0
  4  9  1  0  0  0  0
  5 11  1  6  0  0  0
  5  6  1  0  0  0  0
  5  4  1  0  0  0  0
  6 12  1  6  0  0  0
  6 26  1  0  0  0  0
  6  1  1  0  0  0  0
 10  4  1  0  0  0  0
 13 19  1  0  0  0  0
 14 20  1  0  0  0  0
 14 13  2  0  0  0  0
 15 14  1  0  0  0  0
 16 15  2  0  0  0  0
 16 17  1  0  0  0  0
 17 18  2  0  0  0  0
 18 13  1  0  0  0  0
 21 17  1  0  0  0  0
 22 23  1  0  0  0  0
 22  1  1  0  0  0  0
 24  5  1  0  0  0  0
 25 24  1  0  0  0  0
 26 30  1  0  0  0  0
 27 28  1  0  0  0  0
 28 34  1  0  0  0  0
 29 30  2  0  0  0  0
 29 28  1  0  0  0  0
 30 31  1  0  0  0  0
 31 33  1  0  0  0  0
 31 32  2  0  0  0  0
 33 36  1  0  0  0  0
 34 35  2  0  0  0  0
 34 33  1  0  0  0  0
M  END
>  <minimizedAffinity>
-5.40992022

$$$$

 OpenBabel03242521293D

 36 38  0  0  1  0  0  0  0  0999 V2000
   38.4840   28.3780   40.1620 C   0  0  1  0  0  0  0  0  0  0  0  0
   37.3660   27.3650   40.0870 C   0  0  2  0  0  0  0  0  0  0  0  0
   36.4920   27.4660   41.1490 O   0  0  0  0  0  0  0  0  0  0  0  0
   35.7950   28.6500   40.9610 C   0  0  0  0  0  0  0  0  0  0  0  0
   36.7090   29.7970   41.2560 C   0  0  2  0  0  0  0  0  0  0  0  0
   38.0450   29.7470   40.5570 C   0  0  2  0  0  0  0  0  0  0  0  0
   38.8990   28.4490   39.1120 H   0  0  0  0  0  0  0  0  0  0  0  0
   36.8140   27.6280   39.1440 H   0  0  0  0  0  0  0  0  0  0  0  0
   35.3860   28.7400   39.9360 H   0  0  0  0  0  0  0  0  0  0  0  0
   34.9860   28.6790   41.7100 H   0  0  0  0  0  0  0  0  0  0  0  0
   36.1960   30.7250   40.9440 H   0  0  0  0  0  0  0  0  0  0  0  0
   38.7780   30.1060   41.3230 H   0  0  0  0  0  0  0  0  0  0  0  0
   38.7380   24.0870   38.7690 C   0  0  0  0  0  0  0  0  0  0  0  0
   38.2200   25.3890   38.7830 C   0  0  0  0  0  0  0  0  0  0  0  0
   37.9210   26.0040   40.0320 C   0  0  0  0  0  0  0  0  0  0  0  0
   38.1570   25.2840   41.1500 N   0  0  0  0  0  0  0  0  0  0  0  0
   38.6580   24.0260   41.1080 C   0  0  0  0  0  0  0  0  0  0  0  0
   38.9510   23.4230   39.9190 N   0  0  0  0  0  0  0  0  0  0  0  0
   38.9200   23.7420   37.7590 H   0  0  0  0  0  0  0  0  0  0  0  0
   38.0280   25.9720   37.8960 H   0  0  0  0  0  0  0  0  0  0  0  0
   38.8380   23.4680   42.0310 H   0  0  0  0  0  0  0  0  0  0  0  0
   39.5610   27.9160   40.9250 O   0  0  0  0  0  0  0  0  0  0  0  0
   40.4260   28.2630   40.5980 H   0  0  0  0  0  0  0  0  0  0  0  0
   36.8640   29.7970   42.6550 O   0  0  0  0  0  0  0  0  0  0  0  0
   37.2700   30.6960   42.8580 H   0  0  0  0  0  0  0  0  0  0  0  0
   38.1050   30.6520   39.4950 O   0  0  0  0  0  0  0  0  0  0  0  0
   42.3210   32.2840   39.2720 H   0  0  0  0  0  0  0  0  0  0  0  0
   41.4060   32.1420   38.7920 N   0  0  0  0  0  0  0  0  0  0  0  0
   40.4970   31.5100   39.5380 C   0  0  0  0  0  3  0  0  0  0  0  0
   39.2470   31.2650   39.0090 C   0  0  0  0  0  0  0  0  0  0  0  0
   38.9960   31.7010   37.7020 C   0  0  0  0  0  0  0  0  0  0  0  0
   37.9220   31.5800   37.0280 O   0  0  0  0  0  0  0  0  0  0  0  0
   39.9550   32.3450   36.9760 N   0  0  0  0  0  0  0  0  0  0  0  0
   41.1550   32.5560   37.5390 C   0  0  0  0  0  0  0  0  0  0  0  0
   42.1300   33.1330   36.9900 O   0  0  0  0  0  0  0  0  0  0  0  0
   39.8450   32.6920   36.0140 H   0  0  0  0  0  0  0  0  0  0  0  0
  1  7  1  6  0  0  0
  1  6  1  0  0  0  0
  1 22  1  0  0  0  0
  2  8  1  6  0  0  0
  2  1  1  0  0  0  0
  2  3  1  0  0  0  0
  4  3  1  0  0  0  0
  4  5  1  0  0  0  0
  4 10  1  0  0  0  0
  5 11  1  6  0  0  0
  5 24  1  0  0  0  0
  6  5  1  0  0  0  0
  6 12  1  1  0  0  0
  9  4  1  0  0  0  0
 13 14  2  0  0  0  0
 13 18  1  0  0  0  0
 14 15  1  0  0  0  0
 15  2  1  0  0  0  0
 15 16  2  0  0  0  0
 17 16  1  0  0  0  0
 17 21  1  0  0  0  0
 18 17  2  0  0  0  0
 19 13  1  0  0  0  0
 20 14  1  0  0  0  0
 23 22  1  0  0  0  0
 24 25  1  0  0  0  0
 26  6  1  0  0  0  0
 28 27  1  0  0  0  0
 28 29  1  0  0  0  0
 30 26  1  0  0  0  0
 30 29  2  0  0  0  0
 31 30  1  0  0  0  0
 32 31  2  0  0  0  0
 33 34  1  0  0  0  0
 33 31  1  0  0  0  0
 34 28  1  0  0  0  0
 35 34  2  0  0  0  0
 36 33  1  0  0  0  0
M  END
>  <minimizedAffinity>
-5.40445137

$$$$
