
 OpenBabel03252502243D

 35 37  0  0  1  0  0  0  0  0999 V2000
   46.9620   34.6490   42.2190 N   0  0  0  0  0  0  0  0  0  0  0  0
   48.4140   34.7250   42.3120 C   0  0  0  0  0  0  0  0  0  0  0  0
   48.8060   35.5450   41.0640 C   0  0  0  0  0  0  0  0  0  0  0  0
   48.5120   34.7400   39.8390 C   0  0  0  0  0  0  0  0  0  0  0  0
   47.1920   34.0470   39.8610 C   0  0  0  0  0  0  0  0  0  0  0  0
   46.2630   34.4280   40.9760 C   0  0  1  0  0  0  0  0  0  0  0  0
   48.8680   33.7160   42.2400 H   0  0  0  0  0  0  0  0  0  0  0  0
   48.7110   35.2990   43.2030 H   0  0  0  0  0  0  0  0  0  0  0  0
   49.9080   35.6920   41.1740 H   0  0  0  0  0  0  0  0  0  0  0  0
   48.2560   36.5040   41.1250 H   0  0  0  0  0  0  0  0  0  0  0  0
   49.3190   33.9580   39.7730 H   0  0  0  0  0  0  0  0  0  0  0  0
   48.6800   35.3830   38.9530 H   0  0  0  0  0  0  0  0  0  0  0  0
   46.6650   34.3230   38.9000 H   0  0  0  0  0  0  0  0  0  0  0  0
   47.2850   32.9400   39.8200 H   0  0  0  0  0  0  0  0  0  0  0  0
   45.8160   35.4020   40.7000 H   0  0  0  0  0  0  0  0  0  0  0  0
   44.4980   35.9360   44.7280 C   0  0  0  0  0  0  0  0  0  0  0  0
   45.2400   35.8740   43.5420 C   0  0  0  0  0  0  0  0  0  0  0  0
   46.1570   34.7980   43.3970 C   0  0  0  0  0  0  0  0  0  0  0  0
   46.2580   33.8940   44.4170 N   0  0  0  0  0  0  0  0  0  0  0  0
   45.5170   33.9990   45.5420 C   0  0  0  0  0  0  0  0  0  0  0  0
   44.6340   35.0290   45.6890 N   0  0  0  0  0  0  0  0  0  0  0  0
   43.8550   36.8020   44.6800 H   0  0  0  0  0  0  0  0  0  0  0  0
   45.2110   36.5450   42.7060 H   0  0  0  0  0  0  0  0  0  0  0  0
   45.5720   33.3100   46.3560 H   0  0  0  0  0  0  0  0  0  0  0  0
   45.3610   33.3940   41.1530 O   0  0  0  0  0  0  0  0  0  0  0  0
   41.3170   32.8940   42.7740 H   0  0  0  0  0  0  0  0  0  0  0  0
   41.9260   33.0090   41.9370 N   0  0  0  0  0  0  0  0  0  0  0  0
   43.2850   33.1380   41.9830 C   0  0  0  0  0  3  0  0  0  0  0  0
   44.0470   33.2900   40.8140 C   0  0  0  0  0  0  0  0  0  0  0  0
   43.3340   33.3000   39.6350 C   0  0  0  0  0  0  0  0  0  0  0  0
   44.0960   33.4400   38.6440 O   0  0  0  0  0  0  0  0  0  0  0  0
   41.9960   33.1690   39.6450 N   0  0  0  0  0  0  0  0  0  0  0  0
   41.2930   33.0260   40.7610 C   0  0  0  0  0  0  0  0  0  0  0  0
   40.0390   32.9130   40.6490 O   0  0  0  0  0  0  0  0  0  0  0  0
   41.5640   33.1930   38.6740 H   0  0  0  0  0  0  0  0  0  0  0  0
  1  2  1  0  0  0  0
  1 18  1  0  0  0  0
  2  8  1  0  0  0  0
  3 10  1  0  0  0  0
  3  9  1  0  0  0  0
  3  2  1  0  0  0  0
  4  5  1  0  0  0  0
  4  3  1  0  0  0  0
  5  6  1  0  0  0  0
  6 15  1  6  0  0  0
  6 25  1  0  0  0  0
  6  1  1  0  0  0  0
  7  2  1  0  0  0  0
 11  4  1  0  0  0  0
 12  4  1  0  0  0  0
 13  5  1  0  0  0  0
 14  5  1  0  0  0  0
 16 21  1  0  0  0  0
 17 16  2  0  0  0  0
 18 17  1  0  0  0  0
 18 19  2  0  0  0  0
 19 20  1  0  0  0  0
 20 21  2  0  0  0  0
 20 24  1  0  0  0  0
 22 16  1  0  0  0  0
 23 17  1  0  0  0  0
 27 28  1  0  0  0  0
 27 26  1  0  0  0  0
 29 25  1  0  0  0  0
 29 28  2  0  0  0  0
 30 32  1  0  0  0  0
 30 29  1  0  0  0  0
 31 30  2  0  0  0  0
 32 33  1  0  0  0  0
 33 27  1  0  0  0  0
 34 33  2  0  0  0  0
 35 32  1  0  0  0  0
M  END
>  <minimizedAffinity>
-5.74517727

>  <minimizedRMSD>
0.559925079

$$$$
