
 OpenBabel03252505283D

 25 26  0  0  0  0  0  0  0  0999 V2000
   46.9430   32.4060   48.2900 O   0  0  0  0  0  0  0  0  0  0  0  0
   45.9010   32.6180   47.1900 P   0  0  1  0  0  0  0  0  0  0  0  0
   44.5960   33.5340   47.7360 O   0  0  0  0  0  0  0  0  0  0  0  0
   43.7210   33.1340   47.5810 H   0  0  0  0  0  0  0  0  0  0  0  0
   46.6850   33.3880   45.9150 O   0  0  0  0  0  0  0  0  0  0  0  0
   44.4240   35.7330   44.4790 C   0  0  0  0  0  0  0  0  0  0  0  0
   44.8310   35.8530   43.1480 C   0  0  0  0  0  0  0  0  0  0  0  0
   45.9430   35.0720   42.7560 C   0  0  0  0  0  0  0  0  0  0  0  0
   46.5250   34.2780   43.6830 N   0  0  0  0  0  0  0  0  0  0  0  0
   46.0920   34.2000   44.9580 C   0  0  0  0  0  0  0  0  0  0  0  0
   45.0450   34.9220   45.3640 N   0  0  0  0  0  0  0  0  0  0  0  0
   43.5670   36.3520   44.7310 H   0  0  0  0  0  0  0  0  0  0  0  0
   44.3150   36.5130   42.4510 H   0  0  0  0  0  0  0  0  0  0  0  0
   46.2860   35.1370   41.7360 H   0  0  0  0  0  0  0  0  0  0  0  0
   45.3180   31.0890   46.7680 O   0  0  0  0  0  0  0  0  0  0  0  0
   48.9440   28.6550   45.5370 H   0  0  0  0  0  0  0  0  0  0  0  0
   48.1010   28.7520   46.1500 N   0  0  0  0  0  0  0  0  0  0  0  0
   47.3370   29.8450   46.0050 C   0  0  0  0  0  0  0  0  0  0  0  0
   46.2140   30.0260   46.7860 C   0  0  0  0  0  0  0  0  0  0  0  0
   45.8980   29.0450   47.7280 C   0  0  0  0  0  0  0  0  0  0  0  0
   44.9070   29.0500   48.5270 O   0  0  0  0  0  0  0  0  0  0  0  0
   46.6650   27.9560   47.8690 N   0  0  0  0  0  0  0  0  0  0  0  0
   47.7510   27.8230   47.0830 C   0  0  0  0  0  0  0  0  0  0  0  0
   48.5560   26.8370   47.1210 O   0  0  0  0  0  0  0  0  0  0  0  0
   46.5070   27.1790   48.5400 H   0  0  0  0  0  0  0  0  0  0  0  0
  2  3  1  0  0  0  0
  2  1  2  1  0  0  0
  4  3  1  0  0  0  0
  5  2  1  0  0  0  0
  6 12  1  0  0  0  0
  6 11  1  0  0  0  0
  7  6  2  0  0  0  0
  8  7  1  0  0  0  0
  8  9  2  0  0  0  0
  9 10  1  0  0  0  0
 10 11  2  0  0  0  0
 10  5  1  0  0  0  0
 13  7  1  0  0  0  0
 14  8  1  0  0  0  0
 15 19  1  0  0  0  0
 15  2  1  0  0  0  0
 16 17  1  0  0  0  0
 17 23  1  0  0  0  0
 18 17  1  0  0  0  0
 18 19  2  0  0  0  0
 19 20  1  0  0  0  0
 20 22  1  0  0  0  0
 20 21  2  0  0  0  0
 22 25  1  0  0  0  0
 23 24  2  0  0  0  0
 23 22  1  0  0  0  0
M  END
>  <minimizedAffinity>
-4.74335289

>  <minimizedRMSD>
1.92380416

$$$$
