
 OpenBabel03252502253D

 35 37  0  0  1  0  0  0  0  0999 V2000
   46.7420   34.5440   42.2700 N   0  0  0  0  0  0  0  0  0  0  0  0
   48.1980   34.5620   42.2880 C   0  0  0  0  0  0  0  0  0  0  0  0
   48.5590   35.3330   40.9990 C   0  0  0  0  0  0  0  0  0  0  0  0
   48.1710   34.5100   39.8140 C   0  0  0  0  0  0  0  0  0  0  0  0
   46.8280   33.8720   39.9200 C   0  0  0  0  0  0  0  0  0  0  0  0
   45.9720   34.3200   41.0690 C   0  0  1  0  0  0  0  0  0  0  0  0
   48.6080   33.5340   42.2220 H   0  0  0  0  0  0  0  0  0  0  0  0
   48.5630   35.1460   43.1470 H   0  0  0  0  0  0  0  0  0  0  0  0
   49.6700   35.4380   41.0510 H   0  0  0  0  0  0  0  0  0  0  0  0
   48.0510   36.3150   41.0610 H   0  0  0  0  0  0  0  0  0  0  0  0
   48.9420   33.6940   39.7290 H   0  0  0  0  0  0  0  0  0  0  0  0
   48.3190   35.1230   38.9030 H   0  0  0  0  0  0  0  0  0  0  0  0
   46.2640   34.1450   38.9790 H   0  0  0  0  0  0  0  0  0  0  0  0
   46.8750   32.7620   39.9060 H   0  0  0  0  0  0  0  0  0  0  0  0
   45.5510   35.3040   40.7890 H   0  0  0  0  0  0  0  0  0  0  0  0
   44.4560   35.9920   44.8580 C   0  0  0  0  0  0  0  0  0  0  0  0
   45.1340   35.8690   43.6390 C   0  0  0  0  0  0  0  0  0  0  0  0
   46.0040   34.7570   43.4810 C   0  0  0  0  0  0  0  0  0  0  0  0
   46.1260   33.8790   44.5220 N   0  0  0  0  0  0  0  0  0  0  0  0
   45.4480   34.0430   45.6790 C   0  0  0  0  0  0  0  0  0  0  0  0
   44.6100   35.1080   45.8390 N   0  0  0  0  0  0  0  0  0  0  0  0
   43.8430   36.8790   44.8160 H   0  0  0  0  0  0  0  0  0  0  0  0
   45.0860   36.5160   42.7860 H   0  0  0  0  0  0  0  0  0  0  0  0
   45.5210   33.3760   46.5100 H   0  0  0  0  0  0  0  0  0  0  0  0
   45.0410   33.3290   41.3200 O   0  0  0  0  0  0  0  0  0  0  0  0
   41.4320   31.1500   42.5280 H   0  0  0  0  0  0  0  0  0  0  0  0
   41.8460   31.9820   42.0610 N   0  0  0  0  0  0  0  0  0  0  0  0
   43.1880   32.2120   41.9390 C   0  0  0  0  0  3  0  0  0  0  0  0
   43.6800   33.3580   41.2960 C   0  0  0  0  0  0  0  0  0  0  0  0
   42.7240   34.2220   40.8030 C   0  0  0  0  0  0  0  0  0  0  0  0
   43.2550   35.2160   40.2460 O   0  0  0  0  0  0  0  0  0  0  0  0
   41.4160   33.9490   40.9490 N   0  0  0  0  0  0  0  0  0  0  0  0
   40.9710   32.8590   41.5610 C   0  0  0  0  0  0  0  0  0  0  0  0
   39.7180   32.7080   41.6390 O   0  0  0  0  0  0  0  0  0  0  0  0
   40.7830   34.6910   40.5280 H   0  0  0  0  0  0  0  0  0  0  0  0
  1  2  1  0  0  0  0
  1 18  1  0  0  0  0
  2  8  1  0  0  0  0
  3  9  1  0  0  0  0
  3 10  1  0  0  0  0
  3  2  1  0  0  0  0
  4  5  1  0  0  0  0
  4  3  1  0  0  0  0
  5  6  1  0  0  0  0
  6 15  1  6  0  0  0
  6 25  1  0  0  0  0
  6  1  1  0  0  0  0
  7  2  1  0  0  0  0
 11  4  1  0  0  0  0
 12  4  1  0  0  0  0
 13  5  1  0  0  0  0
 14  5  1  0  0  0  0
 16 21  1  0  0  0  0
 17 16  2  0  0  0  0
 18 17  1  0  0  0  0
 18 19  2  0  0  0  0
 19 20  1  0  0  0  0
 20 21  2  0  0  0  0
 20 24  1  0  0  0  0
 22 16  1  0  0  0  0
 23 17  1  0  0  0  0
 27 26  1  0  0  0  0
 28 27  1  0  0  0  0
 29 25  1  0  0  0  0
 29 28  2  0  0  0  0
 30 32  1  0  0  0  0
 30 29  1  0  0  0  0
 31 30  2  0  0  0  0
 32 33  1  0  0  0  0
 33 34  2  0  0  0  0
 33 27  1  0  0  0  0
 35 32  1  0  0  0  0
M  END
>  <minimizedAffinity>
-6.18083811

>  <minimizedRMSD>
0.398078769

$$$$
