
 OpenBabel03242512193D

 34 36  0  0  0  0  0  0  0  0999 V2000
   36.9530   29.0870   41.8320 C   0  0  0  0  0  0  0  0  0  0  0  0
   36.7350   27.7750   41.4960 C   0  0  0  0  0  0  0  0  0  0  0  0
   36.5750   27.4270   40.1680 C   0  0  0  0  0  0  0  0  0  0  0  0
   36.6370   28.4110   39.2000 C   0  0  0  0  0  0  0  0  0  0  0  0
   36.8570   29.7220   39.5590 C   0  0  0  0  0  0  0  0  0  0  0  0
   37.0210   30.0880   40.9020 C   0  0  0  0  0  0  0  0  0  0  0  0
   36.4060   26.3670   39.9770 H   0  0  0  0  0  0  0  0  0  0  0  0
   36.5020   28.0570   38.1870 H   0  0  0  0  0  0  0  0  0  0  0  0
   36.8910   30.4230   38.7390 H   0  0  0  0  0  0  0  0  0  0  0  0
   36.6950   26.8330   42.6430 C   0  0  0  0  0  0  0  0  0  0  0  0
   36.4640   27.4700   43.5460 H   0  0  0  0  0  0  0  0  0  0  0  0
   35.9040   26.1090   42.5830 H   0  0  0  0  0  0  0  0  0  0  0  0
   38.0660   26.2600   42.8740 C   0  0  0  0  0  0  0  0  0  0  0  0
   38.2980   24.9490   42.4380 C   0  0  0  0  0  0  0  0  0  0  0  0
   39.5590   24.4120   42.6400 C   0  0  0  0  0  0  0  0  0  0  0  0
   40.4940   25.1890   43.2480 N   0  0  0  0  0  0  0  0  0  0  0  0
   40.2380   26.4530   43.6570 C   0  0  0  0  0  0  0  0  0  0  0  0
   39.0320   26.9860   43.4720 N   0  0  0  0  0  0  0  0  0  0  0  0
   37.4950   24.3980   41.9630 H   0  0  0  0  0  0  0  0  0  0  0  0
   39.7560   23.4120   42.3140 H   0  0  0  0  0  0  0  0  0  0  0  0
   41.0890   26.9230   44.1170 H   0  0  0  0  0  0  0  0  0  0  0  0
   37.1280   29.5580   43.1320 O   0  0  0  0  0  0  0  0  0  0  0  0
   36.3230   29.5130   43.7530 H   0  0  0  0  0  0  0  0  0  0  0  0
   37.2400   31.4390   41.1380 O   0  0  0  0  0  0  0  0  0  0  0  0
   39.4950   34.3840   38.5070 H   0  0  0  0  0  0  0  0  0  0  0  0
   39.4680   33.7390   39.3130 N   0  0  0  0  0  0  0  0  0  0  0  0
   38.3720   33.0670   39.6260 C   0  0  0  0  0  3  0  0  0  0  0  0
   38.2660   32.2020   40.6720 C   0  0  0  0  0  0  0  0  0  0  0  0
   39.4170   32.0350   41.4530 C   0  0  0  0  0  0  0  0  0  0  0  0
   39.5170   31.2720   42.4720 O   0  0  0  0  0  0  0  0  0  0  0  0
   40.5690   32.6990   41.1770 N   0  0  0  0  0  0  0  0  0  0  0  0
   40.5440   33.5270   40.1140 C   0  0  0  0  0  0  0  0  0  0  0  0
   41.6210   34.1580   39.8440 O   0  0  0  0  0  0  0  0  0  0  0  0
   41.4370   32.5930   41.7420 H   0  0  0  0  0  0  0  0  0  0  0  0
  1 22  1  0  0  0  0
  2  1  1  0  0  0  0
  2 10  1  0  0  0  0
  3  2  2  0  0  0  0
  4  5  2  0  0  0  0
  4  3  1  0  0  0  0
  5  6  1  0  0  0  0
  6 24  1  0  0  0  0
  6  1  2  0  0  0  0
  7  3  1  0  0  0  0
  8  4  1  0  0  0  0
  9  5  1  0  0  0  0
 10 13  1  0  0  0  0
 10 11  1  0  0  0  0
 12 10  1  0  0  0  0
 13 18  1  0  0  0  0
 14 15  1  0  0  0  0
 14 13  2  0  0  0  0
 15 16  2  0  0  0  0
 16 17  1  0  0  0  0
 17 21  1  0  0  0  0
 18 17  2  0  0  0  0
 19 14  1  0  0  0  0
 20 15  1  0  0  0  0
 22 23  1  0  0  0  0
 25 26  1  0  0  0  0
 26 27  1  0  0  0  0
 26 32  1  0  0  0  0
 27 28  2  0  0  0  0
 28 24  1  0  0  0  0
 28 29  1  0  0  0  0
 29 30  2  0  0  0  0
 31 29  1  0  0  0  0
 31 34  1  0  0  0  0
 32 31  1  0  0  0  0
 33 32  2  0  0  0  0
M  END
>  <minimizedAffinity>
-6.11602736

$$$$

 OpenBabel03242512193D

 34 36  0  0  0  0  0  0  0  0999 V2000
   37.4720   29.5540   42.1120 C   0  0  0  0  0  0  0  0  0  0  0  0
   36.5820   28.5260   41.9310 C   0  0  0  0  0  0  0  0  0  0  0  0
   35.7790   28.5070   40.8070 C   0  0  0  0  0  0  0  0  0  0  0  0
   35.8870   29.5290   39.8830 C   0  0  0  0  0  0  0  0  0  0  0  0
   36.7870   30.5520   40.0850 C   0  0  0  0  0  0  0  0  0  0  0  0
   37.6070   30.5820   41.2200 C   0  0  0  0  0  0  0  0  0  0  0  0
   35.0980   27.6600   40.7300 H   0  0  0  0  0  0  0  0  0  0  0  0
   35.2250   29.4420   39.0330 H   0  0  0  0  0  0  0  0  0  0  0  0
   36.8040   31.3070   39.3130 H   0  0  0  0  0  0  0  0  0  0  0  0
   36.5810   27.5010   43.0060 C   0  0  0  0  0  0  0  0  0  0  0  0
   37.0550   28.0040   43.8990 H   0  0  0  0  0  0  0  0  0  0  0  0
   35.5990   27.2040   43.3220 H   0  0  0  0  0  0  0  0  0  0  0  0
   37.4970   26.3700   42.6270 C   0  0  0  0  0  0  0  0  0  0  0  0
   36.9040   25.1880   42.1660 C   0  0  0  0  0  0  0  0  0  0  0  0
   37.7380   24.1410   41.8080 C   0  0  0  0  0  0  0  0  0  0  0  0
   39.0800   24.3240   41.9250 N   0  0  0  0  0  0  0  0  0  0  0  0
   39.6210   25.4800   42.3750 C   0  0  0  0  0  0  0  0  0  0  0  0
   38.8360   26.4980   42.7240 N   0  0  0  0  0  0  0  0  0  0  0  0
   35.8250   25.1260   42.1030 H   0  0  0  0  0  0  0  0  0  0  0  0
   37.3040   23.2300   41.4530 H   0  0  0  0  0  0  0  0  0  0  0  0
   40.6960   25.4530   42.4040 H   0  0  0  0  0  0  0  0  0  0  0  0
   38.3320   29.6810   43.2020 O   0  0  0  0  0  0  0  0  0  0  0  0
   37.9060   29.8640   44.1080 H   0  0  0  0  0  0  0  0  0  0  0  0
   38.4760   31.6620   41.3100 O   0  0  0  0  0  0  0  0  0  0  0  0
   42.1500   31.4100   38.6420 H   0  0  0  0  0  0  0  0  0  0  0  0
   41.3350   31.9340   39.0010 N   0  0  0  0  0  0  0  0  0  0  0  0
   40.5100   31.4070   39.8910 C   0  0  0  0  0  3  0  0  0  0  0  0
   39.4200   32.0400   40.4060 C   0  0  0  0  0  0  0  0  0  0  0  0
   39.1840   33.3400   39.9390 C   0  0  0  0  0  0  0  0  0  0  0  0
   38.2180   34.0920   40.3000 O   0  0  0  0  0  0  0  0  0  0  0  0
   39.9980   33.9290   39.0270 N   0  0  0  0  0  0  0  0  0  0  0  0
   41.0440   33.1960   38.5950 C   0  0  0  0  0  0  0  0  0  0  0  0
   41.8180   33.7390   37.7350 O   0  0  0  0  0  0  0  0  0  0  0  0
   39.8440   34.8920   38.6640 H   0  0  0  0  0  0  0  0  0  0  0  0
  1 22  1  0  0  0  0
  2  1  1  0  0  0  0
  2 10  1  0  0  0  0
  3  2  2  0  0  0  0
  4  5  2  0  0  0  0
  4  3  1  0  0  0  0
  5  6  1  0  0  0  0
  6 24  1  0  0  0  0
  6  1  2  0  0  0  0
  7  3  1  0  0  0  0
  8  4  1  0  0  0  0
  9  5  1  0  0  0  0
 10 12  1  0  0  0  0
 10 11  1  0  0  0  0
 13 18  1  0  0  0  0
 13 10  1  0  0  0  0
 14 13  2  0  0  0  0
 15 16  2  0  0  0  0
 15 14  1  0  0  0  0
 16 17  1  0  0  0  0
 17 21  1  0  0  0  0
 17 18  2  0  0  0  0
 19 14  1  0  0  0  0
 20 15  1  0  0  0  0
 22 23  1  0  0  0  0
 25 26  1  0  0  0  0
 26 27  1  0  0  0  0
 27 28  2  0  0  0  0
 28 24  1  0  0  0  0
 29 30  2  0  0  0  0
 29 28  1  0  0  0  0
 31 29  1  0  0  0  0
 32 26  1  0  0  0  0
 32 31  1  0  0  0  0
 33 32  2  0  0  0  0
 34 31  1  0  0  0  0
M  END
>  <minimizedAffinity>
-6.04742861

$$$$

 OpenBabel03242512193D

 34 36  0  0  0  0  0  0  0  0999 V2000
   36.4830   27.9930   41.3210 C   0  0  0  0  0  0  0  0  0  0  0  0
   35.9340   28.3380   40.1110 C   0  0  0  0  0  0  0  0  0  0  0  0
   35.9750   27.4420   39.0610 C   0  0  0  0  0  0  0  0  0  0  0  0
   36.5730   26.2100   39.2490 C   0  0  0  0  0  0  0  0  0  0  0  0
   37.1180   25.8840   40.4700 C   0  0  0  0  0  0  0  0  0  0  0  0
   37.0810   26.7840   41.5430 C   0  0  0  0  0  0  0  0  0  0  0  0
   35.5200   27.7850   38.1320 H   0  0  0  0  0  0  0  0  0  0  0  0
   36.5640   25.5670   38.3790 H   0  0  0  0  0  0  0  0  0  0  0  0
   37.5620   24.9020   40.5270 H   0  0  0  0  0  0  0  0  0  0  0  0
   35.3280   29.6930   40.0630 C   0  0  0  0  0  0  0  0  0  0  0  0
   34.6480   29.6850   39.1610 H   0  0  0  0  0  0  0  0  0  0  0  0
   34.6980   29.9180   40.9030 H   0  0  0  0  0  0  0  0  0  0  0  0
   36.3940   30.7130   39.7750 C   0  0  0  0  0  0  0  0  0  0  0  0
   36.8140   30.8500   38.4460 C   0  0  0  0  0  0  0  0  0  0  0  0
   37.7930   31.7910   38.1690 C   0  0  0  0  0  0  0  0  0  0  0  0
   38.2850   32.5250   39.2020 N   0  0  0  0  0  0  0  0  0  0  0  0
   37.8570   32.3680   40.4760 C   0  0  0  0  0  0  0  0  0  0  0  0
   36.9180   31.4690   40.7630 N   0  0  0  0  0  0  0  0  0  0  0  0
   36.3690   30.2240   37.6830 H   0  0  0  0  0  0  0  0  0  0  0  0
   38.1260   31.9100   37.1590 H   0  0  0  0  0  0  0  0  0  0  0  0
   38.3520   33.0280   41.1660 H   0  0  0  0  0  0  0  0  0  0  0  0
   36.5020   28.8110   42.4500 O   0  0  0  0  0  0  0  0  0  0  0  0
   37.0780   29.6480   42.4050 H   0  0  0  0  0  0  0  0  0  0  0  0
   37.6610   26.3400   42.7250 O   0  0  0  0  0  0  0  0  0  0  0  0
   41.3060   23.6350   43.0090 H   0  0  0  0  0  0  0  0  0  0  0  0
   40.8760   24.5720   43.0740 N   0  0  0  0  0  0  0  0  0  0  0  0
   39.5850   24.7590   42.8510 C   0  0  0  0  0  3  0  0  0  0  0  0
   38.9540   25.9640   42.9190 C   0  0  0  0  0  0  0  0  0  0  0  0
   39.7570   27.0630   43.2510 C   0  0  0  0  0  0  0  0  0  0  0  0
   39.3540   28.2680   43.3630 O   0  0  0  0  0  0  0  0  0  0  0  0
   41.0870   26.9280   43.4890 N   0  0  0  0  0  0  0  0  0  0  0  0
   41.5920   25.6830   43.3900 C   0  0  0  0  0  0  0  0  0  0  0  0
   42.8420   25.5420   43.6110 O   0  0  0  0  0  0  0  0  0  0  0  0
   41.7060   27.7280   43.7360 H   0  0  0  0  0  0  0  0  0  0  0  0
  1  6  1  0  0  0  0
  1 22  1  0  0  0  0
  2  1  2  0  0  0  0
  3  4  2  0  0  0  0
  3  2  1  0  0  0  0
  4  5  1  0  0  0  0
  5  9  1  0  0  0  0
  5  6  2  0  0  0  0
  6 24  1  0  0  0  0
  7  3  1  0  0  0  0
  8  4  1  0  0  0  0
 10  2  1  0  0  0  0
 10 12  1  0  0  0  0
 11 10  1  0  0  0  0
 13 10  1  0  0  0  0
 13 18  1  0  0  0  0
 14 13  2  0  0  0  0
 15 14  1  0  0  0  0
 15 16  2  0  0  0  0
 16 17  1  0  0  0  0
 17 18  2  0  0  0  0
 17 21  1  0  0  0  0
 19 14  1  0  0  0  0
 20 15  1  0  0  0  0
 23 22  1  0  0  0  0
 24 28  1  0  0  0  0
 25 26  1  0  0  0  0
 26 32  1  0  0  0  0
 27 28  2  0  0  0  0
 27 26  1  0  0  0  0
 28 29  1  0  0  0  0
 29 30  2  0  0  0  0
 29 31  1  0  0  0  0
 31 34  1  0  0  0  0
 32 31  1  0  0  0  0
 32 33  2  0  0  0  0
M  END
>  <minimizedAffinity>
-5.86520767

$$$$

 OpenBabel03242512193D

 34 36  0  0  0  0  0  0  0  0999 V2000
   37.2240   28.9850   41.9470 C   0  0  0  0  0  0  0  0  0  0  0  0
   37.6550   30.2370   41.5850 C   0  0  0  0  0  0  0  0  0  0  0  0
   38.9460   30.6280   41.8820 C   0  0  0  0  0  0  0  0  0  0  0  0
   39.7830   29.7470   42.5400 C   0  0  0  0  0  0  0  0  0  0  0  0
   39.3310   28.4960   42.8940 C   0  0  0  0  0  0  0  0  0  0  0  0
   38.0240   28.0870   42.5980 C   0  0  0  0  0  0  0  0  0  0  0  0
   39.2170   31.6340   41.5640 H   0  0  0  0  0  0  0  0  0  0  0  0
   40.7760   30.1280   42.7350 H   0  0  0  0  0  0  0  0  0  0  0  0
   40.0520   27.8740   43.4040 H   0  0  0  0  0  0  0  0  0  0  0  0
   36.6440   31.0690   40.8840 C   0  0  0  0  0  0  0  0  0  0  0  0
   35.6430   30.6290   41.1700 H   0  0  0  0  0  0  0  0  0  0  0  0
   36.6200   32.0910   41.2120 H   0  0  0  0  0  0  0  0  0  0  0  0
   36.7760   30.8790   39.3990 C   0  0  0  0  0  0  0  0  0  0  0  0
   37.5620   31.8040   38.6980 C   0  0  0  0  0  0  0  0  0  0  0  0
   37.6960   31.6360   37.3300 C   0  0  0  0  0  0  0  0  0  0  0  0
   37.0580   30.5850   36.7490 N   0  0  0  0  0  0  0  0  0  0  0  0
   36.3060   29.7090   37.4550 C   0  0  0  0  0  0  0  0  0  0  0  0
   36.1650   29.8540   38.7710 N   0  0  0  0  0  0  0  0  0  0  0  0
   38.0360   32.6140   39.2390 H   0  0  0  0  0  0  0  0  0  0  0  0
   38.2930   32.3310   36.7780 H   0  0  0  0  0  0  0  0  0  0  0  0
   35.8750   28.9400   36.8390 H   0  0  0  0  0  0  0  0  0  0  0  0
   35.9480   28.4800   41.7030 O   0  0  0  0  0  0  0  0  0  0  0  0
   35.1760   28.9120   42.2060 H   0  0  0  0  0  0  0  0  0  0  0  0
   37.6860   26.8020   43.0030 O   0  0  0  0  0  0  0  0  0  0  0  0
   36.4020   23.8010   39.8360 H   0  0  0  0  0  0  0  0  0  0  0  0
   37.0400   24.0850   40.5980 N   0  0  0  0  0  0  0  0  0  0  0  0
   36.8880   25.2340   41.2360 C   0  0  0  0  0  3  0  0  0  0  0  0
   37.6890   25.6710   42.2460 C   0  0  0  0  0  0  0  0  0  0  0  0
   38.7400   24.8200   42.6110 C   0  0  0  0  0  0  0  0  0  0  0  0
   39.5950   25.0510   43.5300 O   0  0  0  0  0  0  0  0  0  0  0  0
   38.9430   23.6290   41.9900 N   0  0  0  0  0  0  0  0  0  0  0  0
   38.0800   23.3130   41.0050 C   0  0  0  0  0  0  0  0  0  0  0  0
   38.2590   22.1950   40.4120 O   0  0  0  0  0  0  0  0  0  0  0  0
   39.7160   22.9800   42.2420 H   0  0  0  0  0  0  0  0  0  0  0  0
  1  6  1  0  0  0  0
  2  3  1  0  0  0  0
  2  1  2  0  0  0  0
  3  4  2  0  0  0  0
  4  8  1  0  0  0  0
  4  5  1  0  0  0  0
  5  9  1  0  0  0  0
  6  5  2  0  0  0  0
  6 24  1  0  0  0  0
  7  3  1  0  0  0  0
 10 11  1  0  0  0  0
 10 12  1  0  0  0  0
 10  2  1  0  0  0  0
 13 10  1  0  0  0  0
 14 19  1  0  0  0  0
 14 13  2  0  0  0  0
 15 14  1  0  0  0  0
 16 15  2  0  0  0  0
 16 17  1  0  0  0  0
 17 18  2  0  0  0  0
 18 13  1  0  0  0  0
 20 15  1  0  0  0  0
 21 17  1  0  0  0  0
 22  1  1  0  0  0  0
 22 23  1  0  0  0  0
 25 26  1  0  0  0  0
 26 32  1  0  0  0  0
 26 27  1  0  0  0  0
 27 28  2  0  0  0  0
 28 29  1  0  0  0  0
 28 24  1  0  0  0  0
 29 30  2  0  0  0  0
 31 34  1  0  0  0  0
 31 29  1  0  0  0  0
 32 31  1  0  0  0  0
 33 32  2  0  0  0  0
M  END
>  <minimizedAffinity>
-5.79335022

$$$$

 OpenBabel03242512193D

 34 36  0  0  0  0  0  0  0  0999 V2000
   36.7660   30.9560   39.6660 C   0  0  0  0  0  0  0  0  0  0  0  0
   36.1560   29.7430   39.4710 C   0  0  0  0  0  0  0  0  0  0  0  0
   36.2280   29.1320   38.2350 C   0  0  0  0  0  0  0  0  0  0  0  0
   36.9170   29.7570   37.2130 C   0  0  0  0  0  0  0  0  0  0  0  0
   37.5220   30.9740   37.4290 C   0  0  0  0  0  0  0  0  0  0  0  0
   37.4560   31.6040   38.6790 C   0  0  0  0  0  0  0  0  0  0  0  0
   35.7200   28.1710   38.1550 H   0  0  0  0  0  0  0  0  0  0  0  0
   36.9270   29.2140   36.2770 H   0  0  0  0  0  0  0  0  0  0  0  0
   38.0380   31.3890   36.5760 H   0  0  0  0  0  0  0  0  0  0  0  0
   35.4560   29.1960   40.6620 C   0  0  0  0  0  0  0  0  0  0  0  0
   35.1210   30.0970   41.2530 H   0  0  0  0  0  0  0  0  0  0  0  0
   34.5630   28.6490   40.4270 H   0  0  0  0  0  0  0  0  0  0  0  0
   36.4390   28.4650   41.5330 C   0  0  0  0  0  0  0  0  0  0  0  0
   36.7030   27.1240   41.2240 C   0  0  0  0  0  0  0  0  0  0  0  0
   37.6110   26.4420   42.0170 C   0  0  0  0  0  0  0  0  0  0  0  0
   38.1920   27.1140   43.0460 N   0  0  0  0  0  0  0  0  0  0  0  0
   37.9160   28.4110   43.3190 C   0  0  0  0  0  0  0  0  0  0  0  0
   37.0450   29.0830   42.5680 N   0  0  0  0  0  0  0  0  0  0  0  0
   36.1950   26.6640   40.3850 H   0  0  0  0  0  0  0  0  0  0  0  0
   37.8260   25.4180   41.7960 H   0  0  0  0  0  0  0  0  0  0  0  0
   38.4630   28.7840   44.1660 H   0  0  0  0  0  0  0  0  0  0  0  0
   36.7620   31.6680   40.8650 O   0  0  0  0  0  0  0  0  0  0  0  0
   35.8690   32.0450   41.1750 H   0  0  0  0  0  0  0  0  0  0  0  0
   38.1080   32.8270   38.7750 O   0  0  0  0  0  0  0  0  0  0  0  0
   42.6500   32.7320   38.5570 H   0  0  0  0  0  0  0  0  0  0  0  0
   41.7800   33.0100   39.0390 N   0  0  0  0  0  0  0  0  0  0  0  0
   40.5880   32.7100   38.5480 C   0  0  0  0  0  3  0  0  0  0  0  0
   39.4040   33.0450   39.1290 C   0  0  0  0  0  0  0  0  0  0  0  0
   39.4870   33.7580   40.3320 C   0  0  0  0  0  0  0  0  0  0  0  0
   38.4940   34.1610   41.0250 O   0  0  0  0  0  0  0  0  0  0  0  0
   40.6830   34.0930   40.8820 N   0  0  0  0  0  0  0  0  0  0  0  0
   41.7830   33.7030   40.2070 C   0  0  0  0  0  0  0  0  0  0  0  0
   42.9150   34.0120   40.7130 O   0  0  0  0  0  0  0  0  0  0  0  0
   40.7720   34.6220   41.7730 H   0  0  0  0  0  0  0  0  0  0  0  0
  1 22  1  0  0  0  0
  2  1  1  0  0  0  0
  2 10  1  0  0  0  0
  3  2  2  0  0  0  0
  4  5  2  0  0  0  0
  4  3  1  0  0  0  0
  5  6  1  0  0  0  0
  6 24  1  0  0  0  0
  6  1  2  0  0  0  0
  7  3  1  0  0  0  0
  8  4  1  0  0  0  0
  9  5  1  0  0  0  0
 10 11  1  0  0  0  0
 10 13  1  0  0  0  0
 12 10  1  0  0  0  0
 13 18  1  0  0  0  0
 14 13  2  0  0  0  0
 14 15  1  0  0  0  0
 15 16  2  0  0  0  0
 16 17  1  0  0  0  0
 17 21  1  0  0  0  0
 18 17  2  0  0  0  0
 19 14  1  0  0  0  0
 20 15  1  0  0  0  0
 22 23  1  0  0  0  0
 24 28  1  0  0  0  0
 25 26  1  0  0  0  0
 26 32  1  0  0  0  0
 27 26  1  0  0  0  0
 27 28  2  0  0  0  0
 28 29  1  0  0  0  0
 29 31  1  0  0  0  0
 29 30  2  0  0  0  0
 31 34  1  0  0  0  0
 32 33  2  0  0  0  0
 32 31  1  0  0  0  0
M  END
>  <minimizedAffinity>
-5.67275

$$$$

 OpenBabel03242512193D

 34 36  0  0  0  0  0  0  0  0999 V2000
   38.3290   29.2640   42.6860 C   0  0  0  0  0  0  0  0  0  0  0  0
   38.3820   27.9300   43.0040 C   0  0  0  0  0  0  0  0  0  0  0  0
   39.6060   27.3250   43.2160 C   0  0  0  0  0  0  0  0  0  0  0  0
   40.7590   28.0790   43.1040 C   0  0  0  0  0  0  0  0  0  0  0  0
   40.6840   29.4160   42.7850 C   0  0  0  0  0  0  0  0  0  0  0  0
   39.4480   30.0400   42.5670 C   0  0  0  0  0  0  0  0  0  0  0  0
   39.5700   26.2650   43.4640 H   0  0  0  0  0  0  0  0  0  0  0  0
   41.6750   27.5330   43.2850 H   0  0  0  0  0  0  0  0  0  0  0  0
   41.6330   29.9270   42.7190 H   0  0  0  0  0  0  0  0  0  0  0  0
   37.0620   27.2530   43.0890 C   0  0  0  0  0  0  0  0  0  0  0  0
   37.0900   26.6620   44.0500 H   0  0  0  0  0  0  0  0  0  0  0  0
   36.2330   27.9300   43.1840 H   0  0  0  0  0  0  0  0  0  0  0  0
   36.9380   26.2460   41.9800 C   0  0  0  0  0  0  0  0  0  0  0  0
   36.8250   26.7370   40.6730 C   0  0  0  0  0  0  0  0  0  0  0  0
   36.7150   25.8180   39.6420 C   0  0  0  0  0  0  0  0  0  0  0  0
   36.7260   24.4970   39.9600 N   0  0  0  0  0  0  0  0  0  0  0  0
   36.8370   24.0550   41.2340 C   0  0  0  0  0  0  0  0  0  0  0  0
   36.9420   24.9230   42.2390 N   0  0  0  0  0  0  0  0  0  0  0  0
   36.8250   27.8080   40.5070 H   0  0  0  0  0  0  0  0  0  0  0  0
   36.6290   26.1740   38.6370 H   0  0  0  0  0  0  0  0  0  0  0  0
   36.8270   22.9820   41.3050 H   0  0  0  0  0  0  0  0  0  0  0  0
   37.1570   29.9810   42.4500 O   0  0  0  0  0  0  0  0  0  0  0  0
   36.6300   29.7410   41.6130 H   0  0  0  0  0  0  0  0  0  0  0  0
   39.5010   31.3930   42.2550 O   0  0  0  0  0  0  0  0  0  0  0  0
   42.8640   33.1220   39.7290 H   0  0  0  0  0  0  0  0  0  0  0  0
   41.8670   32.8800   39.8520 N   0  0  0  0  0  0  0  0  0  0  0  0
   41.4240   32.3160   40.9640 C   0  0  0  0  0  3  0  0  0  0  0  0
   40.1280   31.9710   41.1940 C   0  0  0  0  0  0  0  0  0  0  0  0
   39.2240   32.2460   40.1600 C   0  0  0  0  0  0  0  0  0  0  0  0
   37.9720   31.9980   40.1850 O   0  0  0  0  0  0  0  0  0  0  0  0
   39.6230   32.8240   38.9980 N   0  0  0  0  0  0  0  0  0  0  0  0
   40.9350   33.1170   38.8940 C   0  0  0  0  0  0  0  0  0  0  0  0
   41.3240   33.6600   37.8060 O   0  0  0  0  0  0  0  0  0  0  0  0
   38.9720   33.0380   38.2150 H   0  0  0  0  0  0  0  0  0  0  0  0
  1  2  1  0  0  0  0
  2 10  1  0  0  0  0
  2  3  2  0  0  0  0
  3  7  1  0  0  0  0
  4  3  1  0  0  0  0
  4  8  1  0  0  0  0
  5  4  2  0  0  0  0
  6  1  2  0  0  0  0
  6  5  1  0  0  0  0
  9  5  1  0  0  0  0
 10 12  1  0  0  0  0
 10 11  1  0  0  0  0
 13 18  1  0  0  0  0
 13 10  1  0  0  0  0
 14 13  2  0  0  0  0
 15 16  2  0  0  0  0
 15 14  1  0  0  0  0
 16 17  1  0  0  0  0
 17 21  1  0  0  0  0
 17 18  2  0  0  0  0
 19 14  1  0  0  0  0
 20 15  1  0  0  0  0
 22  1  1  0  0  0  0
 23 22  1  0  0  0  0
 24  6  1  0  0  0  0
 25 26  1  0  0  0  0
 26 27  1  0  0  0  0
 27 28  2  0  0  0  0
 28 24  1  0  0  0  0
 29 30  2  0  0  0  0
 29 28  1  0  0  0  0
 31 29  1  0  0  0  0
 32 31  1  0  0  0  0
 32 26  1  0  0  0  0
 33 32  2  0  0  0  0
 34 31  1  0  0  0  0
M  END
>  <minimizedAffinity>
-5.60989428

$$$$

 OpenBabel03242512193D

 34 36  0  0  0  0  0  0  0  0999 V2000
   37.4840   26.9780   41.0030 C   0  0  0  0  0  0  0  0  0  0  0  0
   37.7620   26.1550   42.0650 C   0  0  0  0  0  0  0  0  0  0  0  0
   38.8730   26.4020   42.8490 C   0  0  0  0  0  0  0  0  0  0  0  0
   39.6860   27.4780   42.5460 C   0  0  0  0  0  0  0  0  0  0  0  0
   39.3890   28.2910   41.4760 C   0  0  0  0  0  0  0  0  0  0  0  0
   38.2650   28.0510   40.6740 C   0  0  0  0  0  0  0  0  0  0  0  0
   39.0300   25.7080   43.6740 H   0  0  0  0  0  0  0  0  0  0  0  0
   40.5340   27.6030   43.2060 H   0  0  0  0  0  0  0  0  0  0  0  0
   40.0770   29.1060   41.3130 H   0  0  0  0  0  0  0  0  0  0  0  0
   36.7980   25.0440   42.2660 C   0  0  0  0  0  0  0  0  0  0  0  0
   37.1170   24.5390   43.2240 H   0  0  0  0  0  0  0  0  0  0  0  0
   35.7870   25.3690   42.4270 H   0  0  0  0  0  0  0  0  0  0  0  0
   36.9710   24.0220   41.1760 C   0  0  0  0  0  0  0  0  0  0  0  0
   38.1910   23.3370   41.1220 C   0  0  0  0  0  0  0  0  0  0  0  0
   38.3600   22.3900   40.1260 C   0  0  0  0  0  0  0  0  0  0  0  0
   37.3310   22.1820   39.2610 N   0  0  0  0  0  0  0  0  0  0  0  0
   36.1630   22.8610   39.3400 C   0  0  0  0  0  0  0  0  0  0  0  0
   35.9830   23.7760   40.2910 N   0  0  0  0  0  0  0  0  0  0  0  0
   38.9590   23.5650   41.8510 H   0  0  0  0  0  0  0  0  0  0  0  0
   39.2850   21.8550   40.0690 H   0  0  0  0  0  0  0  0  0  0  0  0
   35.4610   22.5720   38.5790 H   0  0  0  0  0  0  0  0  0  0  0  0
   36.3960   26.8300   40.1430 O   0  0  0  0  0  0  0  0  0  0  0  0
   36.3950   26.0130   39.5360 H   0  0  0  0  0  0  0  0  0  0  0  0
   38.0690   28.9410   39.6260 O   0  0  0  0  0  0  0  0  0  0  0  0
   36.0750   32.7120   41.2030 H   0  0  0  0  0  0  0  0  0  0  0  0
   36.6840   32.2390   40.5170 N   0  0  0  0  0  0  0  0  0  0  0  0
   36.9230   30.9390   40.5820 C   0  0  0  0  0  3  0  0  0  0  0  0
   37.7150   30.2530   39.7130 C   0  0  0  0  0  0  0  0  0  0  0  0
   38.3040   31.0050   38.6880 C   0  0  0  0  0  0  0  0  0  0  0  0
   39.0740   30.5460   37.7800 O   0  0  0  0  0  0  0  0  0  0  0  0
   38.0930   32.3420   38.5740 N   0  0  0  0  0  0  0  0  0  0  0  0
   37.2890   32.9040   39.4980 C   0  0  0  0  0  0  0  0  0  0  0  0
   37.0830   34.1610   39.4030 O   0  0  0  0  0  0  0  0  0  0  0  0
   38.5190   32.9240   37.8230 H   0  0  0  0  0  0  0  0  0  0  0  0
  1  2  1  0  0  0  0
  2 10  1  0  0  0  0
  2  3  2  0  0  0  0
  3  7  1  0  0  0  0
  4  3  1  0  0  0  0
  4  8  1  0  0  0  0
  5  4  2  0  0  0  0
  6  1  2  0  0  0  0
  6  5  1  0  0  0  0
  9  5  1  0  0  0  0
 10 12  1  0  0  0  0
 10 11  1  0  0  0  0
 13 10  1  0  0  0  0
 14 13  1  0  0  0  0
 14 19  1  0  0  0  0
 15 14  2  0  0  0  0
 16 17  2  0  0  0  0
 16 15  1  0  0  0  0
 17 18  1  0  0  0  0
 18 13  2  0  0  0  0
 20 15  1  0  0  0  0
 21 17  1  0  0  0  0
 22  1  1  0  0  0  0
 23 22  1  0  0  0  0
 24 28  1  0  0  0  0
 24  6  1  0  0  0  0
 26 27  1  0  0  0  0
 26 25  1  0  0  0  0
 28 27  2  0  0  0  0
 29 28  1  0  0  0  0
 30 29  2  0  0  0  0
 31 29  1  0  0  0  0
 31 32  1  0  0  0  0
 32 26  1  0  0  0  0
 33 32  2  0  0  0  0
 34 31  1  0  0  0  0
M  END
>  <minimizedAffinity>
-5.56328154

$$$$

 OpenBabel03242512193D

 34 36  0  0  0  0  0  0  0  0999 V2000
   36.8170   28.6670   40.5300 C   0  0  0  0  0  0  0  0  0  0  0  0
   36.8370   27.3390   40.8770 C   0  0  0  0  0  0  0  0  0  0  0  0
   37.1750   26.9750   42.1660 C   0  0  0  0  0  0  0  0  0  0  0  0
   37.4880   27.9580   43.0850 C   0  0  0  0  0  0  0  0  0  0  0  0
   37.4620   29.2840   42.7160 C   0  0  0  0  0  0  0  0  0  0  0  0
   37.1210   29.6660   41.4120 C   0  0  0  0  0  0  0  0  0  0  0  0
   37.1700   25.9040   42.3680 H   0  0  0  0  0  0  0  0  0  0  0  0
   37.7420   27.5910   44.0700 H   0  0  0  0  0  0  0  0  0  0  0  0
   37.7200   29.9840   43.4970 H   0  0  0  0  0  0  0  0  0  0  0  0
   36.4760   26.4010   39.7840 C   0  0  0  0  0  0  0  0  0  0  0  0
   35.4180   26.0750   40.0060 H   0  0  0  0  0  0  0  0  0  0  0  0
   36.4470   26.8570   38.8120 H   0  0  0  0  0  0  0  0  0  0  0  0
   37.3250   25.1630   39.8810 C   0  0  0  0  0  0  0  0  0  0  0  0
   36.7020   23.9870   40.3180 C   0  0  0  0  0  0  0  0  0  0  0  0
   37.4730   22.8390   40.4060 C   0  0  0  0  0  0  0  0  0  0  0  0
   38.7850   22.9230   40.0620 N   0  0  0  0  0  0  0  0  0  0  0  0
   39.3570   24.0760   39.6430 C   0  0  0  0  0  0  0  0  0  0  0  0
   38.6330   25.1890   39.5530 N   0  0  0  0  0  0  0  0  0  0  0  0
   35.6490   24.0080   40.5730 H   0  0  0  0  0  0  0  0  0  0  0  0
   37.0150   21.9310   40.7370 H   0  0  0  0  0  0  0  0  0  0  0  0
   40.4010   23.9630   39.4130 H   0  0  0  0  0  0  0  0  0  0  0  0
   36.4930   29.1550   39.2650 O   0  0  0  0  0  0  0  0  0  0  0  0
   37.1420   28.9470   38.5090 H   0  0  0  0  0  0  0  0  0  0  0  0
   37.1270   31.0330   41.1620 O   0  0  0  0  0  0  0  0  0  0  0  0
   41.1400   33.1510   41.4550 H   0  0  0  0  0  0  0  0  0  0  0  0
   40.2850   32.9180   40.9250 N   0  0  0  0  0  0  0  0  0  0  0  0
   39.3400   32.1470   41.4390 C   0  0  0  0  0  3  0  0  0  0  0  0
   38.1900   31.8010   40.7980 C   0  0  0  0  0  0  0  0  0  0  0  0
   38.0260   32.3130   39.5040 C   0  0  0  0  0  0  0  0  0  0  0  0
   37.0220   32.1030   38.7460 O   0  0  0  0  0  0  0  0  0  0  0  0
   38.9640   33.1080   38.9280 N   0  0  0  0  0  0  0  0  0  0  0  0
   40.0580   33.3770   39.6670 C   0  0  0  0  0  0  0  0  0  0  0  0
   40.9490   34.1240   39.1370 O   0  0  0  0  0  0  0  0  0  0  0  0
   38.8670   33.5010   37.9690 H   0  0  0  0  0  0  0  0  0  0  0  0
  1  2  2  0  0  0  0
  1  6  1  0  0  0  0
  2  3  1  0  0  0  0
  3  7  1  0  0  0  0
  3  4  2  0  0  0  0
  4  8  1  0  0  0  0
  5  4  1  0  0  0  0
  5  9  1  0  0  0  0
  6  5  2  0  0  0  0
 10 13  1  0  0  0  0
 10 11  1  0  0  0  0
 10  2  1  0  0  0  0
 12 10  1  0  0  0  0
 13 14  1  0  0  0  0
 14 15  2  0  0  0  0
 14 19  1  0  0  0  0
 15 20  1  0  0  0  0
 16 15  1  0  0  0  0
 17 16  2  0  0  0  0
 18 17  1  0  0  0  0
 18 13  2  0  0  0  0
 21 17  1  0  0  0  0
 22  1  1  0  0  0  0
 23 22  1  0  0  0  0
 24  6  1  0  0  0  0
 26 27  1  0  0  0  0
 26 25  1  0  0  0  0
 28 24  1  0  0  0  0
 28 27  2  0  0  0  0
 29 28  1  0  0  0  0
 30 29  2  0  0  0  0
 31 29  1  0  0  0  0
 31 32  1  0  0  0  0
 32 26  1  0  0  0  0
 33 32  2  0  0  0  0
 34 31  1  0  0  0  0
M  END
>  <minimizedAffinity>
-5.48512983

$$$$

 OpenBabel03242512193D

 34 36  0  0  0  0  0  0  0  0999 V2000
   38.0630   31.8250   39.8720 C   0  0  0  0  0  0  0  0  0  0  0  0
   36.9850   30.9770   39.8160 C   0  0  0  0  0  0  0  0  0  0  0  0
   36.6010   30.4390   38.6030 C   0  0  0  0  0  0  0  0  0  0  0  0
   37.3120   30.7660   37.4640 C   0  0  0  0  0  0  0  0  0  0  0  0
   38.3910   31.6180   37.5420 C   0  0  0  0  0  0  0  0  0  0  0  0
   38.7900   32.1710   38.7660 C   0  0  0  0  0  0  0  0  0  0  0  0
   35.7380   29.7750   38.6360 H   0  0  0  0  0  0  0  0  0  0  0  0
   36.9490   30.3040   36.5560 H   0  0  0  0  0  0  0  0  0  0  0  0
   38.8870   31.8180   36.6050 H   0  0  0  0  0  0  0  0  0  0  0  0
   36.3230   30.7190   41.1200 C   0  0  0  0  0  0  0  0  0  0  0  0
   36.5660   31.6160   41.7620 H   0  0  0  0  0  0  0  0  0  0  0  0
   35.2520   30.6790   41.0620 H   0  0  0  0  0  0  0  0  0  0  0  0
   36.9690   29.5370   41.7890 C   0  0  0  0  0  0  0  0  0  0  0  0
   36.3820   28.2820   41.5870 C   0  0  0  0  0  0  0  0  0  0  0  0
   36.9710   27.1850   42.1940 C   0  0  0  0  0  0  0  0  0  0  0  0
   38.0840   27.3930   42.9470 N   0  0  0  0  0  0  0  0  0  0  0  0
   38.6270   28.6200   43.1230 C   0  0  0  0  0  0  0  0  0  0  0  0
   38.0740   29.6860   42.5480 N   0  0  0  0  0  0  0  0  0  0  0  0
   35.4940   28.2050   40.9710 H   0  0  0  0  0  0  0  0  0  0  0  0
   36.5380   26.2180   42.0510 H   0  0  0  0  0  0  0  0  0  0  0  0
   39.5020   28.6030   43.7470 H   0  0  0  0  0  0  0  0  0  0  0  0
   38.5430   32.4280   41.0330 O   0  0  0  0  0  0  0  0  0  0  0  0
   37.9470   33.1260   41.4720 H   0  0  0  0  0  0  0  0  0  0  0  0
   39.8930   33.0130   38.7180 O   0  0  0  0  0  0  0  0  0  0  0  0
   43.4700   32.2390   36.0190 H   0  0  0  0  0  0  0  0  0  0  0  0
   43.0490   32.2790   36.9610 N   0  0  0  0  0  0  0  0  0  0  0  0
   41.7820   32.6160   37.1390 C   0  0  0  0  0  3  0  0  0  0  0  0
   41.1630   32.6900   38.3490 C   0  0  0  0  0  0  0  0  0  0  0  0
   41.9520   32.3820   39.4650 C   0  0  0  0  0  0  0  0  0  0  0  0
   41.5560   32.3940   40.6790 O   0  0  0  0  0  0  0  0  0  0  0  0
   43.2570   32.0300   39.3410 N   0  0  0  0  0  0  0  0  0  0  0  0
   43.7520   31.9950   38.0880 C   0  0  0  0  0  0  0  0  0  0  0  0
   44.9790   31.6660   37.9560 O   0  0  0  0  0  0  0  0  0  0  0  0
   43.8650   31.7970   40.1530 H   0  0  0  0  0  0  0  0  0  0  0  0
  1 22  1  0  0  0  0
  2  1  1  0  0  0  0
  2 10  1  0  0  0  0
  3  7  1  0  0  0  0
  3  2  2  0  0  0  0
  4  5  2  0  0  0  0
  4  3  1  0  0  0  0
  5  6  1  0  0  0  0
  6  1  2  0  0  0  0
  8  4  1  0  0  0  0
  9  5  1  0  0  0  0
 10 11  1  0  0  0  0
 10 13  1  0  0  0  0
 12 10  1  0  0  0  0
 13 18  1  0  0  0  0
 14 13  2  0  0  0  0
 14 15  1  0  0  0  0
 15 16  2  0  0  0  0
 16 17  1  0  0  0  0
 17 21  1  0  0  0  0
 18 17  2  0  0  0  0
 19 14  1  0  0  0  0
 20 15  1  0  0  0  0
 22 23  1  0  0  0  0
 24  6  1  0  0  0  0
 25 26  1  0  0  0  0
 26 27  1  0  0  0  0
 26 32  1  0  0  0  0
 27 28  2  0  0  0  0
 28 24  1  0  0  0  0
 28 29  1  0  0  0  0
 29 30  2  0  0  0  0
 31 29  1  0  0  0  0
 31 34  1  0  0  0  0
 32 31  1  0  0  0  0
 33 32  2  0  0  0  0
M  END
>  <minimizedAffinity>
-5.45114279

$$$$
