
 OpenBabel03252509013D

 46 48  0  0  1  0  0  0  0  0999 V2000
   46.5960   34.5910   43.5530 N   0  0  0  0  0  0  0  0  0  0  0  0
   46.0930   35.5640   42.6420 C   0  0  0  0  0  0  0  0  0  0  0  0
   44.5960   35.7230   42.6260 C   0  0  0  0  0  0  0  0  0  0  0  0
   43.9230   35.4670   43.9430 C   0  0  0  0  0  0  0  0  0  0  0  0
   44.9320   35.2370   45.0440 C   0  0  0  0  0  0  0  0  0  0  0  0
   45.7670   34.0190   44.5030 C   0  0  2  0  0  0  0  0  0  0  0  0
   46.5130   36.5460   42.9910 H   0  0  0  0  0  0  0  0  0  0  0  0
   46.4300   35.4700   41.6080 H   0  0  0  0  0  0  0  0  0  0  0  0
   44.1420   35.1200   41.8060 H   0  0  0  0  0  0  0  0  0  0  0  0
   44.3550   36.7810   42.3670 H   0  0  0  0  0  0  0  0  0  0  0  0
   43.3500   34.5140   43.8320 H   0  0  0  0  0  0  0  0  0  0  0  0
   43.1550   36.2320   44.2070 H   0  0  0  0  0  0  0  0  0  0  0  0
   45.5900   36.1060   45.1340 H   0  0  0  0  0  0  0  0  0  0  0  0
   44.4200   34.9470   45.9690 H   0  0  0  0  0  0  0  0  0  0  0  0
   45.0490   33.2580   44.1610 H   0  0  0  0  0  0  0  0  0  0  0  0
   47.7030   33.8310   43.0530 C   0  0  0  0  0  0  0  0  0  0  0  0
   48.3800   34.5040   42.5120 H   0  0  0  0  0  0  0  0  0  0  0  0
   48.2410   33.3880   43.9200 H   0  0  0  0  0  0  0  0  0  0  0  0
   47.1780   32.7160   42.2020 C   0  0  0  0  0  0  0  0  0  0  0  0
   47.4160   31.7270   42.6150 H   0  0  0  0  0  0  0  0  0  0  0  0
   46.0740   32.7660   42.1190 H   0  0  0  0  0  0  0  0  0  0  0  0
   49.3150   32.1260   39.1630 C   0  0  0  0  0  0  0  0  0  0  0  0
   48.7800   32.0070   40.4650 C   0  0  0  0  0  0  0  0  0  0  0  0
   47.7430   32.8380   40.8330 C   0  0  0  0  0  0  0  0  0  0  0  0
   47.2860   33.7270   39.9280 N   0  0  0  0  0  0  0  0  0  0  0  0
   47.8180   33.8160   38.6920 C   0  0  0  0  0  0  0  0  0  0  0  0
   48.8250   33.0290   38.2970 N   0  0  0  0  0  0  0  0  0  0  0  0
   50.1230   31.4490   38.9380 H   0  0  0  0  0  0  0  0  0  0  0  0
   49.1500   31.2880   41.1950 H   0  0  0  0  0  0  0  0  0  0  0  0
   47.4560   34.5290   37.9600 H   0  0  0  0  0  0  0  0  0  0  0  0
   46.4830   33.6510   45.6440 O   0  0  0  0  0  0  0  0  0  0  0  0
   45.5290   31.2550   44.9890 O   0  0  0  0  0  0  0  0  0  0  0  0
   46.1560   32.0640   46.1220 P   0  0  2  0  0  0  0  0  0  0  0  0
   44.9570   32.1820   47.3370 O   0  0  0  0  0  0  0  0  0  0  0  0
   45.2340   32.8390   48.0170 H   0  0  0  0  0  0  0  0  0  0  0  0
   47.4890   31.3320   46.7900 O   0  0  0  0  0  0  0  0  0  0  0  0
   46.3870   27.5450   48.7560 H   0  0  0  0  0  0  0  0  0  0  0  0
   46.9280   28.0300   47.9960 N   0  0  0  0  0  0  0  0  0  0  0  0
   46.9120   29.3820   47.8150 C   0  0  0  0  0  3  0  0  0  0  0  0
   47.6570   29.9570   46.7800 C   0  0  0  0  0  0  0  0  0  0  0  0
   48.3890   29.1180   45.9750 C   0  0  0  0  0  0  0  0  0  0  0  0
   49.0140   29.7510   45.0880 O   0  0  0  0  0  0  0  0  0  0  0  0
   48.3680   27.8020   46.1990 N   0  0  0  0  0  0  0  0  0  0  0  0
   47.6550   27.2460   47.1880 C   0  0  0  0  0  0  0  0  0  0  0  0
   47.7530   25.9990   47.2490 O   0  0  0  0  0  0  0  0  0  0  0  0
   48.9660   27.2540   45.5200 H   0  0  0  0  0  0  0  0  0  0  0  0
  1  6  1  0  0  0  0
  2  7  1  0  0  0  0
  2  1  1  0  0  0  0
  3  2  1  0  0  0  0
  3  4  1  0  0  0  0
  4 12  1  0  0  0  0
  4  5  1  0  0  0  0
  5 13  1  0  0  0  0
  5 14  1  0  0  0  0
  6 15  1  6  0  0  0
  6  5  1  0  0  0  0
  6 31  1  0  0  0  0
  8  2  1  0  0  0  0
  9  3  1  0  0  0  0
 10  3  1  0  0  0  0
 11  4  1  0  0  0  0
 16  1  1  0  0  0  0
 16 18  1  0  0  0  0
 17 16  1  0  0  0  0
 19 20  1  0  0  0  0
 19 16  1  0  0  0  0
 21 19  1  0  0  0  0
 22 23  1  0  0  0  0
 23 24  2  0  0  0  0
 23 29  1  0  0  0  0
 24 19  1  0  0  0  0
 25 24  1  0  0  0  0
 26 25  2  0  0  0  0
 27 26  1  0  0  0  0
 27 22  2  0  0  0  0
 28 22  1  0  0  0  0
 30 26  1  0  0  0  0
 31 33  1  0  0  0  0
 33 32  2  6  0  0  0
 33 36  1  0  0  0  0
 33 34  1  0  0  0  0
 34 35  1  0  0  0  0
 38 37  1  0  0  0  0
 39 38  1  0  0  0  0
 40 36  1  0  0  0  0
 40 39  2  0  0  0  0
 41 43  1  0  0  0  0
 41 40  1  0  0  0  0
 42 41  2  0  0  0  0
 43 44  1  0  0  0  0
 44 45  2  0  0  0  0
 44 38  1  0  0  0  0
 46 43  1  0  0  0  0
M  END
>  <minimizedAffinity>
-4.51754761

>  <minimizedRMSD>
1.25565803

$$$$
