
 OpenBabel03252507043D

 48 51  0  0  0  0  0  0  0  0999 V2000
   41.7860   31.8340   41.9010 C   0  0  0  0  0  0  0  0  0  0  0  0
   41.3100   32.2470   42.8160 H   0  0  0  0  0  0  0  0  0  0  0  0
   41.7440   32.7140   41.1700 H   0  0  0  0  0  0  0  0  0  0  0  0
   41.1790   30.7330   41.4430 N   0  0  0  0  0  0  0  0  0  0  0  0
   40.8830   29.5410   42.1720 C   0  0  0  0  0  0  0  0  0  0  0  0
   39.3820   29.7290   42.3380 C   0  0  0  0  0  0  0  0  0  0  0  0
   38.6490   29.8290   41.0890 C   0  0  0  0  0  0  0  0  0  0  0  0
   39.3490   30.2630   39.9000 C   0  0  0  0  0  0  0  0  0  0  0  0
   40.7570   30.8010   40.0250 C   0  0  0  0  0  0  0  0  0  0  0  0
   41.1870   28.5880   41.7750 H   0  0  0  0  0  0  0  0  0  0  0  0
   41.3070   29.6270   43.1970 H   0  0  0  0  0  0  0  0  0  0  0  0
   39.0320   28.8810   42.9880 H   0  0  0  0  0  0  0  0  0  0  0  0
   39.2500   30.6290   42.9720 H   0  0  0  0  0  0  0  0  0  0  0  0
   37.7650   30.5010   41.2450 H   0  0  0  0  0  0  0  0  0  0  0  0
   38.1990   28.8190   40.8540 H   0  0  0  0  0  0  0  0  0  0  0  0
   38.9630   30.2640   38.9300 H   0  0  0  0  0  0  0  0  0  0  0  0
   41.7120   31.3640   38.7100 S   0  0  0  0  0  0  0  0  0  0  0  0
   39.4980   35.3050   37.4050 H   0  0  0  0  0  0  0  0  0  0  0  0
   40.3880   34.8290   37.6660 N   0  0  0  0  0  0  0  0  0  0  0  0
   40.5860   33.5270   38.0280 C   0  0  0  0  0  3  0  0  0  0  0  0
   41.8660   33.0420   38.3530 C   0  0  0  0  0  0  0  0  0  0  0  0
   42.8560   33.9860   38.2660 C   0  0  0  0  0  0  0  0  0  0  0  0
   43.9900   33.5460   38.5470 O   0  0  0  0  0  0  0  0  0  0  0  0
   42.7020   35.2700   37.9160 N   0  0  0  0  0  0  0  0  0  0  0  0
   41.4510   35.6480   37.6240 C   0  0  0  0  0  0  0  0  0  0  0  0
   41.3580   36.8640   37.3010 O   0  0  0  0  0  0  0  0  0  0  0  0
   43.5630   35.8530   37.9020 H   0  0  0  0  0  0  0  0  0  0  0  0
   43.2380   31.6580   42.1650 C   0  0  0  0  0  0  0  0  0  0  0  0
   43.4660   31.1430   43.1190 H   0  0  0  0  0  0  0  0  0  0  0  0
   43.6330   30.9690   41.3690 H   0  0  0  0  0  0  0  0  0  0  0  0
   43.8970   32.9700   42.0350 C   0  0  0  0  0  0  0  0  0  0  0  0
   43.1460   34.1070   41.8220 C   0  0  0  0  0  0  0  0  0  0  0  0
   43.8100   35.3200   41.6940 C   0  0  0  0  0  0  0  0  0  0  0  0
   45.1750   35.3210   41.7880 N   0  0  0  0  0  0  0  0  0  0  0  0
   45.8620   34.2010   41.9960 C   0  0  0  0  0  0  0  0  0  0  0  0
   45.2060   33.0410   42.1160 N   0  0  0  0  0  0  0  0  0  0  0  0
   42.0920   34.3120   41.7370 H   0  0  0  0  0  0  0  0  0  0  0  0
   43.3890   36.3140   41.5210 H   0  0  0  0  0  0  0  0  0  0  0  0
   47.3140   34.3030   42.1150 C   0  0  0  0  0  0  0  0  0  0  0  0
   48.0610   33.2180   42.5630 C   0  0  0  0  0  0  0  0  0  0  0  0
   49.4320   33.3310   42.6860 C   0  0  0  0  0  0  0  0  0  0  0  0
   49.9410   34.5630   42.3370 C   0  0  0  0  0  0  0  0  0  0  0  0
   49.2380   35.6670   41.8880 C   0  0  0  0  0  0  0  0  0  0  0  0
   47.8970   35.4780   41.7930 N   0  0  0  0  0  0  0  0  0  0  0  0
   47.5960   32.2680   42.8230 H   0  0  0  0  0  0  0  0  0  0  0  0
   50.0890   32.5450   43.0250 H   0  0  0  0  0  0  0  0  0  0  0  0
   51.0220   34.6940   42.4210 H   0  0  0  0  0  0  0  0  0  0  0  0
   49.7280   36.5940   41.6360 H   0  0  0  0  0  0  0  0  0  0  0  0
  1 28  1  0  0  0  0
  1  2  1  0  0  0  0
  3  1  1  0  0  0  0
  4  1  1  0  0  0  0
  4  5  1  0  0  0  0
  5  6  1  0  0  0  0
  5 11  1  0  0  0  0
  6 13  1  0  0  0  0
  6 12  1  0  0  0  0
  7 14  1  0  0  0  0
  7  6  1  0  0  0  0
  8  9  2  0  0  0  0
  8  7  1  0  0  0  0
  9  4  1  0  0  0  0
 10  5  1  0  0  0  0
 15  7  1  0  0  0  0
 16  8  1  0  0  0  0
 17  9  1  0  0  0  0
 18 19  1  0  0  0  0
 19 20  1  0  0  0  0
 20 21  2  0  0  0  0
 21 17  1  0  0  0  0
 22 21  1  0  0  0  0
 22 23  2  0  0  0  0
 24 22  1  0  0  0  0
 25 19  1  0  0  0  0
 25 24  1  0  0  0  0
 26 25  2  0  0  0  0
 27 24  1  0  0  0  0
 28 29  1  0  0  0  0
 30 28  1  0  0  0  0
 31 36  1  0  0  0  0
 31 28  1  0  0  0  0
 32 31  2  0  0  0  0
 33 34  2  0  0  0  0
 33 32  1  0  0  0  0
 34 35  1  0  0  0  0
 35 39  1  0  0  0  0
 35 36  2  0  0  0  0
 37 32  1  0  0  0  0
 38 33  1  0  0  0  0
 39 40  1  0  0  0  0
 40 41  2  0  0  0  0
 40 45  1  0  0  0  0
 41 46  1  0  0  0  0
 42 47  1  0  0  0  0
 42 41  1  0  0  0  0
 43 42  2  0  0  0  0
 44 43  1  0  0  0  0
 44 39  2  0  0  0  0
 48 43  1  0  0  0  0
M  END
>  <minimizedAffinity>
-5.65401983

>  <minimizedRMSD>
3.13788652

$$$$
