
 OpenBabel03242518163D

 33 35  0  0  0  0  0  0  0  0999 V2000
   50.0520   33.1260   42.0570 C   0  0  0  0  0  0  0  0  0  0  0  0
   49.8990   34.5270   42.1740 C   0  0  0  0  0  0  0  0  0  0  0  0
   48.7930   35.0710   42.7300 C   0  0  0  0  0  0  0  0  0  0  0  0
   47.7930   34.1570   43.1910 C   0  0  0  0  0  0  0  0  0  0  0  0
   48.4430   32.5190   42.8240 S   0  0  0  0  0  0  0  0  0  0  0  0
   50.7370   35.0350   41.7790 H   0  0  0  0  0  0  0  0  0  0  0  0
   48.6750   36.1390   42.8200 H   0  0  0  0  0  0  0  0  0  0  0  0
   51.0290   32.2250   41.5750 C   0  0  0  0  0  0  0  0  0  0  0  0
   52.0340   32.7530   41.6010 H   0  0  0  0  0  0  0  0  0  0  0  0
   51.1860   31.4110   42.3410 H   0  0  0  0  0  0  0  0  0  0  0  0
   50.8250   31.6140   40.2500 C   0  0  0  0  0  0  0  0  0  0  0  0
   50.0600   30.7840   40.2490 H   0  0  0  0  0  0  0  0  0  0  0  0
   50.3820   32.3990   39.5750 H   0  0  0  0  0  0  0  0  0  0  0  0
   52.1020   31.2280   39.6560 C   0  0  0  0  0  0  0  0  0  0  0  0
   52.9900   30.4290   40.3420 C   0  0  0  0  0  0  0  0  0  0  0  0
   54.2020   30.0920   39.7240 C   0  0  0  0  0  0  0  0  0  0  0  0
   54.4200   30.5810   38.4840 N   0  0  0  0  0  0  0  0  0  0  0  0
   53.5380   31.3560   37.8430 C   0  0  0  0  0  0  0  0  0  0  0  0
   52.4040   31.6670   38.4290 N   0  0  0  0  0  0  0  0  0  0  0  0
   52.7190   30.0910   41.3290 H   0  0  0  0  0  0  0  0  0  0  0  0
   54.9090   29.4590   40.2630 H   0  0  0  0  0  0  0  0  0  0  0  0
   53.8230   31.6880   36.8530 H   0  0  0  0  0  0  0  0  0  0  0  0
   46.6720   34.4580   43.7500 O   0  0  0  0  0  0  0  0  0  0  0  0
   44.0600   34.5410   40.0840 H   0  0  0  0  0  0  0  0  0  0  0  0
   44.1480   34.7910   41.0850 N   0  0  0  0  0  0  0  0  0  0  0  0
   45.3230   34.4380   41.6350 C   0  0  0  0  0  0  0  0  0  0  0  0
   45.5270   34.7350   42.9760 C   0  0  0  0  0  0  0  0  0  0  0  0
   44.5230   35.3800   43.6940 C   0  0  0  0  0  0  0  0  0  0  0  0
   44.5930   35.7000   44.9120 O   0  0  0  0  0  0  0  0  0  0  0  0
   43.3510   35.7150   43.0840 N   0  0  0  0  0  0  0  0  0  0  0  0
   43.1780   35.4160   41.7850 C   0  0  0  0  0  0  0  0  0  0  0  0
   42.1040   35.7060   41.1640 O   0  0  0  0  0  0  0  0  0  0  0  0
   42.5640   36.1910   43.5460 H   0  0  0  0  0  0  0  0  0  0  0  0
  1  2  2  0  0  0  0
  1  5  1  0  0  0  0
  2  3  1  0  0  0  0
  3  7  1  0  0  0  0
  3  4  2  0  0  0  0
  4 23  1  0  0  0  0
  5  4  1  0  0  0  0
  6  2  1  0  0  0  0
  8  9  1  0  0  0  0
  8  1  1  0  0  0  0
  8 10  1  0  0  0  0
 11  8  1  0  0  0  0
 12 11  1  0  0  0  0
 13 11  1  0  0  0  0
 14 11  1  0  0  0  0
 14 15  1  0  0  0  0
 15 20  1  0  0  0  0
 16 21  1  0  0  0  0
 16 15  2  0  0  0  0
 17 16  1  0  0  0  0
 18 19  1  0  0  0  0
 18 17  2  0  0  0  0
 19 14  2  0  0  0  0
 22 18  1  0  0  0  0
 24 25  1  0  0  0  0
 25 26  1  0  0  0  0
 25 31  1  0  0  0  0
 26 27  2  0  0  0  0
 27 28  1  0  0  0  0
 27 23  1  0  0  0  0
 28 29  2  0  0  0  0
 30 33  1  0  0  0  0
 30 28  1  0  0  0  0
 31 30  1  0  0  0  0
 32 31  2  0  0  0  0
M  END
>  <minimizedAffinity>
-5.27698612

>  <minimizedRMSD>
9.05041981

$$$$
