
 OpenBabel03252509003D

 46 48  0  0  1  0  0  0  0  0999 V2000
   46.7670   34.2770   43.4310 N   0  0  0  0  0  0  0  0  0  0  0  0
   46.4230   35.5050   42.7950 C   0  0  0  0  0  0  0  0  0  0  0  0
   44.9720   35.8970   42.8880 C   0  0  0  0  0  0  0  0  0  0  0  0
   44.2790   35.4470   44.1410 C   0  0  0  0  0  0  0  0  0  0  0  0
   45.2470   34.8080   45.1090 C   0  0  0  0  0  0  0  0  0  0  0  0
   45.8650   33.6350   44.2610 C   0  0  2  0  0  0  0  0  0  0  0  0
   47.0030   36.2980   43.3410 H   0  0  0  0  0  0  0  0  0  0  0  0
   46.7300   35.6050   41.7520 H   0  0  0  0  0  0  0  0  0  0  0  0
   44.4170   35.5840   41.9740 H   0  0  0  0  0  0  0  0  0  0  0  0
   44.9070   37.0110   42.8920 H   0  0  0  0  0  0  0  0  0  0  0  0
   43.5560   34.6500   43.8410 H   0  0  0  0  0  0  0  0  0  0  0  0
   43.6500   36.2400   44.6120 H   0  0  0  0  0  0  0  0  0  0  0  0
   46.0410   35.5160   45.3660 H   0  0  0  0  0  0  0  0  0  0  0  0
   44.7030   34.3920   45.9650 H   0  0  0  0  0  0  0  0  0  0  0  0
   45.0280   33.1000   43.7870 H   0  0  0  0  0  0  0  0  0  0  0  0
   47.7290   33.4920   42.7160 C   0  0  0  0  0  0  0  0  0  0  0  0
   48.4890   34.1600   42.2920 H   0  0  0  0  0  0  0  0  0  0  0  0
   48.2120   32.7940   43.4350 H   0  0  0  0  0  0  0  0  0  0  0  0
   47.0150   32.6810   41.6780 C   0  0  0  0  0  0  0  0  0  0  0  0
   46.9920   31.6120   41.9260 H   0  0  0  0  0  0  0  0  0  0  0  0
   45.9600   33.0050   41.5780 H   0  0  0  0  0  0  0  0  0  0  0  0
   49.1280   32.0730   38.6270 C   0  0  0  0  0  0  0  0  0  0  0  0
   48.5000   31.8840   39.8780 C   0  0  0  0  0  0  0  0  0  0  0  0
   47.6770   32.8770   40.3620 C   0  0  0  0  0  0  0  0  0  0  0  0
   47.5100   33.9880   39.6170 N   0  0  0  0  0  0  0  0  0  0  0  0
   48.1230   34.1400   38.4260 C   0  0  0  0  0  0  0  0  0  0  0  0
   48.9300   33.2000   37.9200 N   0  0  0  0  0  0  0  0  0  0  0  0
   49.7580   31.2610   38.3040 H   0  0  0  0  0  0  0  0  0  0  0  0
   48.6360   30.9850   40.4790 H   0  0  0  0  0  0  0  0  0  0  0  0
   47.9930   35.0300   37.8210 H   0  0  0  0  0  0  0  0  0  0  0  0
   46.5210   32.9010   45.2500 O   0  0  0  0  0  0  0  0  0  0  0  0
   45.1180   30.9600   44.0920 O   0  0  0  0  0  0  0  0  0  0  0  0
   46.1380   31.2560   45.1870 P   0  0  2  0  0  0  0  0  0  0  0  0
   45.3550   30.9030   46.6680 O   0  0  0  0  0  0  0  0  0  0  0  0
   45.8970   31.2410   47.4200 H   0  0  0  0  0  0  0  0  0  0  0  0
   47.4980   30.3070   45.0910 O   0  0  0  0  0  0  0  0  0  0  0  0
   50.2040   28.8810   48.2650 H   0  0  0  0  0  0  0  0  0  0  0  0
   49.3450   28.7110   47.6820 N   0  0  0  0  0  0  0  0  0  0  0  0
   48.9030   29.5820   46.7290 C   0  0  0  0  0  3  0  0  0  0  0  0
   47.7510   29.2870   45.9930 C   0  0  0  0  0  0  0  0  0  0  0  0
   47.1000   28.1080   46.2680 C   0  0  0  0  0  0  0  0  0  0  0  0
   46.0830   27.9580   45.5430 O   0  0  0  0  0  0  0  0  0  0  0  0
   47.5760   27.2930   47.2120 N   0  0  0  0  0  0  0  0  0  0  0  0
   48.6790   27.5710   47.9190 C   0  0  0  0  0  0  0  0  0  0  0  0
   48.9790   26.6940   48.7610 O   0  0  0  0  0  0  0  0  0  0  0  0
   46.9960   26.4170   47.3370 H   0  0  0  0  0  0  0  0  0  0  0  0
  1  6  1  0  0  0  0
  2  3  1  0  0  0  0
  2  7  1  0  0  0  0
  2  1  1  0  0  0  0
  3 10  1  0  0  0  0
  3  4  1  0  0  0  0
  4 12  1  0  0  0  0
  4  5  1  0  0  0  0
  5 13  1  0  0  0  0
  5 14  1  0  0  0  0
  6 15  1  6  0  0  0
  6  5  1  0  0  0  0
  6 31  1  0  0  0  0
  8  2  1  0  0  0  0
  9  3  1  0  0  0  0
 11  4  1  0  0  0  0
 16  1  1  0  0  0  0
 16 18  1  0  0  0  0
 17 16  1  0  0  0  0
 19 20  1  0  0  0  0
 19 16  1  0  0  0  0
 21 19  1  0  0  0  0
 22 23  1  0  0  0  0
 23 24  2  0  0  0  0
 23 29  1  0  0  0  0
 24 19  1  0  0  0  0
 25 24  1  0  0  0  0
 26 25  2  0  0  0  0
 27 26  1  0  0  0  0
 27 22  2  0  0  0  0
 28 22  1  0  0  0  0
 30 26  1  0  0  0  0
 33 32  2  6  0  0  0
 33 31  1  0  0  0  0
 33 34  1  0  0  0  0
 34 35  1  0  0  0  0
 36 33  1  0  0  0  0
 36 40  1  0  0  0  0
 38 44  1  0  0  0  0
 38 37  1  0  0  0  0
 39 38  1  0  0  0  0
 40 41  1  0  0  0  0
 40 39  2  0  0  0  0
 41 43  1  0  0  0  0
 42 41  2  0  0  0  0
 43 46  1  0  0  0  0
 43 44  1  0  0  0  0
 44 45  2  0  0  0  0
M  END
>  <minimizedAffinity>
-4.13805914

>  <minimizedRMSD>
0.996071041

$$$$
