
 OpenBabel03252509313D

 28 29  0  0  0  0  0  0  0  0999 V2000
   48.9910   32.0680   40.5190 O   0  0  0  0  0  0  0  0  0  0  0  0
   48.6560   33.4370   41.0220 P   0  0  2  0  0  0  0  0  0  0  0  0
   49.9740   34.2240   41.7140 O   0  0  0  0  0  0  0  0  0  0  0  0
   50.1480   33.9240   42.6420 H   0  0  0  0  0  0  0  0  0  0  0  0
   47.4490   33.3380   42.2030 O   0  0  0  0  0  0  0  0  0  0  0  0
   46.7900   34.5650   42.2270 C   0  0  0  0  0  0  0  0  0  0  0  0
   46.0450   34.6390   41.3820 H   0  0  0  0  0  0  0  0  0  0  0  0
   47.4700   35.4350   42.1150 H   0  0  0  0  0  0  0  0  0  0  0  0
   45.4710   34.0080   45.6750 C   0  0  0  0  0  0  0  0  0  0  0  0
   46.2060   33.8110   44.4870 C   0  0  0  0  0  0  0  0  0  0  0  0
   46.0370   34.7400   43.4790 C   0  0  0  0  0  0  0  0  0  0  0  0
   45.1780   35.7920   43.6790 N   0  0  0  0  0  0  0  0  0  0  0  0
   44.4910   35.9480   44.8290 C   0  0  0  0  0  0  0  0  0  0  0  0
   44.6400   35.0590   45.8180 N   0  0  0  0  0  0  0  0  0  0  0  0
   45.5790   33.3080   46.4730 H   0  0  0  0  0  0  0  0  0  0  0  0
   46.8790   32.9840   44.3390 H   0  0  0  0  0  0  0  0  0  0  0  0
   43.8430   36.8130   44.8730 H   0  0  0  0  0  0  0  0  0  0  0  0
   48.0370   34.3490   39.7360 O   0  0  0  0  0  0  0  0  0  0  0  0
   44.6550   32.1570   37.9490 H   0  0  0  0  0  0  0  0  0  0  0  0
   45.5640   32.6540   37.7540 N   0  0  0  0  0  0  0  0  0  0  0  0
   46.1650   33.1490   38.8450 C   0  0  0  0  0  3  0  0  0  0  0  0
   47.3750   33.8200   38.6590 C   0  0  0  0  0  0  0  0  0  0  0  0
   47.8780   33.9350   37.3700 C   0  0  0  0  0  0  0  0  0  0  0  0
   48.9670   34.5330   37.1680 O   0  0  0  0  0  0  0  0  0  0  0  0
   47.1830   33.3950   36.3450 N   0  0  0  0  0  0  0  0  0  0  0  0
   46.0000   32.7350   36.5070 C   0  0  0  0  0  0  0  0  0  0  0  0
   45.4040   32.2560   35.5080 O   0  0  0  0  0  0  0  0  0  0  0  0
   47.6160   33.5130   35.3820 H   0  0  0  0  0  0  0  0  0  0  0  0
  2  1  2  6  0  0  0
  2  3  1  0  0  0  0
  2  5  1  0  0  0  0
  3  4  1  0  0  0  0
  5  6  1  0  0  0  0
  6 11  1  0  0  0  0
  7  6  1  0  0  0  0
  8  6  1  0  0  0  0
  9 14  1  0  0  0  0
  9 15  1  0  0  0  0
 10  9  2  0  0  0  0
 11 12  2  0  0  0  0
 11 10  1  0  0  0  0
 12 13  1  0  0  0  0
 13 17  1  0  0  0  0
 13 14  2  0  0  0  0
 16 10  1  0  0  0  0
 18  2  1  0  0  0  0
 20 19  1  0  0  0  0
 20 21  1  0  0  0  0
 22 21  2  0  0  0  0
 22 18  1  0  0  0  0
 23 22  1  0  0  0  0
 24 23  2  0  0  0  0
 25 26  1  0  0  0  0
 25 23  1  0  0  0  0
 26 20  1  0  0  0  0
 27 26  2  0  0  0  0
 28 25  1  0  0  0  0
M  END
>  <minimizedAffinity>
-4.89773893

>  <minimizedRMSD>
1.51003134

$$$$
