
 OpenBabel03252504483D

 28 29  0  0  0  0  0  0  0  0999 V2000
   35.6800   29.6680   39.2370 O   0  0  0  0  0  0  0  0  0  0  0  0
   36.6220   30.5730   40.0340 P   0  0  1  0  0  0  0  0  0  0  0  0
   35.7370   31.0550   41.3960 O   0  0  0  0  0  0  0  0  0  0  0  0
   35.0690   30.3750   41.6560 H   0  0  0  0  0  0  0  0  0  0  0  0
   37.9770   29.6410   40.4010 O   0  0  0  0  0  0  0  0  0  0  0  0
   39.2880   27.6000   43.0770 C   0  0  0  0  0  0  0  0  0  0  0  0
   38.1110   27.1630   43.6770 C   0  0  0  0  0  0  0  0  0  0  0  0
   36.8890   27.5880   43.1360 C   0  0  0  0  0  0  0  0  0  0  0  0
   36.9330   28.4020   42.0580 N   0  0  0  0  0  0  0  0  0  0  0  0
   38.1100   28.8080   41.5000 C   0  0  0  0  0  0  0  0  0  0  0  0
   39.2870   28.3960   42.0240 N   0  0  0  0  0  0  0  0  0  0  0  0
   38.0820   26.5140   44.5350 H   0  0  0  0  0  0  0  0  0  0  0  0
   35.9450   27.2690   43.5750 H   0  0  0  0  0  0  0  0  0  0  0  0
   40.5750   27.1270   43.6790 C   0  0  0  0  0  0  0  0  0  0  0  0
   40.7120   26.0350   43.5930 H   0  0  0  0  0  0  0  0  0  0  0  0
   41.4190   27.7230   43.2440 H   0  0  0  0  0  0  0  0  0  0  0  0
   40.5040   27.3490   44.7680 H   0  0  0  0  0  0  0  0  0  0  0  0
   37.0710   31.9320   39.1590 O   0  0  0  0  0  0  0  0  0  0  0  0
   40.2140   31.8930   35.9870 H   0  0  0  0  0  0  0  0  0  0  0  0
   39.8970   32.1690   36.9450 N   0  0  0  0  0  0  0  0  0  0  0  0
   38.6610   31.8590   37.4300 C   0  0  0  0  0  3  0  0  0  0  0  0
   38.3250   32.2670   38.7200 C   0  0  0  0  0  0  0  0  0  0  0  0
   39.2820   32.9580   39.4070 C   0  0  0  0  0  0  0  0  0  0  0  0
   39.0010   33.3300   40.5590 O   0  0  0  0  0  0  0  0  0  0  0  0
   40.4960   33.2620   38.9350 N   0  0  0  0  0  0  0  0  0  0  0  0
   40.8040   32.8580   37.6800 C   0  0  0  0  0  0  0  0  0  0  0  0
   41.9470   33.1460   37.2380 O   0  0  0  0  0  0  0  0  0  0  0  0
   41.1820   33.7870   39.4980 H   0  0  0  0  0  0  0  0  0  0  0  0
  2  1  2  6  0  0  0
  2  5  1  0  0  0  0
  2  3  1  0  0  0  0
  3  4  1  0  0  0  0
  5 10  1  0  0  0  0
  6  7  1  0  0  0  0
  6 14  1  0  0  0  0
  7 12  1  0  0  0  0
  8 13  1  0  0  0  0
  8  7  2  0  0  0  0
  9  8  1  0  0  0  0
 10 11  1  0  0  0  0
 10  9  2  0  0  0  0
 11  6  2  0  0  0  0
 14 17  1  0  0  0  0
 15 14  1  0  0  0  0
 16 14  1  0  0  0  0
 18  2  1  0  0  0  0
 19 20  1  0  0  0  0
 20 21  1  0  0  0  0
 20 26  1  0  0  0  0
 21 22  2  0  0  0  0
 22 18  1  0  0  0  0
 22 23  1  0  0  0  0
 23 24  2  0  0  0  0
 25 23  1  0  0  0  0
 25 28  1  0  0  0  0
 26 25  1  0  0  0  0
 27 26  2  0  0  0  0
M  END
>  <minimizedAffinity>
-5.73274994

$$$$

 OpenBabel03252504483D

 28 29  0  0  0  0  0  0  0  0999 V2000
   35.3670   30.0640   40.3270 O   0  0  0  0  0  0  0  0  0  0  0  0
   36.7600   30.6330   40.6070 P   0  0  1  0  0  0  0  0  0  0  0  0
   36.5750   32.3170   40.5550 O   0  0  0  0  0  0  0  0  0  0  0  0
   35.6640   32.5920   40.8200 H   0  0  0  0  0  0  0  0  0  0  0  0
   37.2150   30.0480   42.1200 O   0  0  0  0  0  0  0  0  0  0  0  0
   37.7260   26.4840   42.4080 C   0  0  0  0  0  0  0  0  0  0  0  0
   39.0000   26.4440   42.9670 C   0  0  0  0  0  0  0  0  0  0  0  0
   39.6500   27.6580   43.2300 C   0  0  0  0  0  0  0  0  0  0  0  0
   38.9940   28.7980   42.9230 N   0  0  0  0  0  0  0  0  0  0  0  0
   37.7440   28.7930   42.3750 C   0  0  0  0  0  0  0  0  0  0  0  0
   37.1200   27.6210   42.1210 N   0  0  0  0  0  0  0  0  0  0  0  0
   39.5180   25.5320   43.2100 H   0  0  0  0  0  0  0  0  0  0  0  0
   40.6480   27.6700   43.6680 H   0  0  0  0  0  0  0  0  0  0  0  0
   37.0590   25.1710   42.1380 C   0  0  0  0  0  0  0  0  0  0  0  0
   36.8450   24.6030   43.0600 H   0  0  0  0  0  0  0  0  0  0  0  0
   36.1570   25.3460   41.4970 H   0  0  0  0  0  0  0  0  0  0  0  0
   37.7950   24.5660   41.5620 H   0  0  0  0  0  0  0  0  0  0  0  0
   37.8720   30.1650   39.4420 O   0  0  0  0  0  0  0  0  0  0  0  0
   41.9080   32.0780   39.4410 H   0  0  0  0  0  0  0  0  0  0  0  0
   40.9910   31.8960   38.9710 N   0  0  0  0  0  0  0  0  0  0  0  0
   40.0130   31.1310   39.5340 C   0  0  0  0  0  3  0  0  0  0  0  0
   38.8220   30.9420   38.8330 C   0  0  0  0  0  0  0  0  0  0  0  0
   38.7310   31.5530   37.6150 C   0  0  0  0  0  0  0  0  0  0  0  0
   37.6770   31.3960   36.9760 O   0  0  0  0  0  0  0  0  0  0  0  0
   39.6880   32.3050   37.0600 N   0  0  0  0  0  0  0  0  0  0  0  0
   40.8380   32.4760   37.7560 C   0  0  0  0  0  0  0  0  0  0  0  0
   41.7370   33.1840   37.2310 O   0  0  0  0  0  0  0  0  0  0  0  0
   39.5670   32.7440   36.1350 H   0  0  0  0  0  0  0  0  0  0  0  0
  2  1  2  6  0  0  0
  2  5  1  0  0  0  0
  3  2  1  0  0  0  0
  3  4  1  0  0  0  0
  5 10  1  0  0  0  0
  6  7  1  0  0  0  0
  7 12  1  0  0  0  0
  7  8  2  0  0  0  0
  8 13  1  0  0  0  0
  9  8  1  0  0  0  0
 10  9  2  0  0  0  0
 11 10  1  0  0  0  0
 11  6  2  0  0  0  0
 14  6  1  0  0  0  0
 14 15  1  0  0  0  0
 16 14  1  0  0  0  0
 17 14  1  0  0  0  0
 18  2  1  0  0  0  0
 20 19  1  0  0  0  0
 20 21  1  0  0  0  0
 22 18  1  0  0  0  0
 22 21  2  0  0  0  0
 23 22  1  0  0  0  0
 24 23  2  0  0  0  0
 25 23  1  0  0  0  0
 25 26  1  0  0  0  0
 26 20  1  0  0  0  0
 27 26  2  0  0  0  0
 28 25  1  0  0  0  0
M  END
>  <minimizedAffinity>
-5.68113089

$$$$

 OpenBabel03252504483D

 28 29  0  0  0  0  0  0  0  0999 V2000
   37.4100   29.3130   39.8250 O   0  0  0  0  0  0  0  0  0  0  0  0
   36.5320   29.9970   40.8760 P   0  0  1  0  0  0  0  0  0  0  0  0
   34.9360   29.6870   40.3980 O   0  0  0  0  0  0  0  0  0  0  0  0
   34.8630   28.8350   39.9030 H   0  0  0  0  0  0  0  0  0  0  0  0
   36.9420   29.3070   42.3580 O   0  0  0  0  0  0  0  0  0  0  0  0
   37.8700   25.8170   42.4110 C   0  0  0  0  0  0  0  0  0  0  0  0
   39.1410   25.8910   42.9760 C   0  0  0  0  0  0  0  0  0  0  0  0
   39.6430   27.1520   43.3240 C   0  0  0  0  0  0  0  0  0  0  0  0
   38.8560   28.2250   43.0880 N   0  0  0  0  0  0  0  0  0  0  0  0
   37.6160   28.1090   42.5320 C   0  0  0  0  0  0  0  0  0  0  0  0
   37.1340   26.8910   42.1970 N   0  0  0  0  0  0  0  0  0  0  0  0
   39.7630   25.0320   43.1610 H   0  0  0  0  0  0  0  0  0  0  0  0
   40.6320   27.2530   43.7690 H   0  0  0  0  0  0  0  0  0  0  0  0
   37.3640   24.4550   42.0500 C   0  0  0  0  0  0  0  0  0  0  0  0
   37.2180   23.8060   42.9310 H   0  0  0  0  0  0  0  0  0  0  0  0
   36.4470   24.5660   41.4150 H   0  0  0  0  0  0  0  0  0  0  0  0
   38.1650   23.9810   41.4400 H   0  0  0  0  0  0  0  0  0  0  0  0
   36.7830   31.6550   40.9160 O   0  0  0  0  0  0  0  0  0  0  0  0
   41.1680   32.1930   41.5740 H   0  0  0  0  0  0  0  0  0  0  0  0
   40.2770   32.4930   41.1160 N   0  0  0  0  0  0  0  0  0  0  0  0
   39.0890   31.8580   41.3260 C   0  0  0  0  0  3  0  0  0  0  0  0
   37.9510   32.3300   40.6720 C   0  0  0  0  0  0  0  0  0  0  0  0
   38.1230   33.4130   39.8600 C   0  0  0  0  0  0  0  0  0  0  0  0
   37.1210   33.8480   39.2680 O   0  0  0  0  0  0  0  0  0  0  0  0
   39.2870   34.0390   39.6520 N   0  0  0  0  0  0  0  0  0  0  0  0
   40.3800   33.5670   40.2950 C   0  0  0  0  0  0  0  0  0  0  0  0
   41.4750   34.1580   40.0980 O   0  0  0  0  0  0  0  0  0  0  0  0
   39.3610   34.8560   39.0260 H   0  0  0  0  0  0  0  0  0  0  0  0
  2  1  2  6  0  0  0
  2 18  1  0  0  0  0
  2  5  1  0  0  0  0
  3  2  1  0  0  0  0
  4  3  1  0  0  0  0
  5 10  1  0  0  0  0
  6  7  1  0  0  0  0
  7 12  1  0  0  0  0
  7  8  2  0  0  0  0
  8 13  1  0  0  0  0
  9  8  1  0  0  0  0
 10  9  2  0  0  0  0
 11  6  2  0  0  0  0
 11 10  1  0  0  0  0
 14  6  1  0  0  0  0
 14 15  1  0  0  0  0
 16 14  1  0  0  0  0
 17 14  1  0  0  0  0
 20 21  1  0  0  0  0
 20 19  1  0  0  0  0
 22 18  1  0  0  0  0
 22 21  2  0  0  0  0
 23 22  1  0  0  0  0
 24 23  2  0  0  0  0
 25 23  1  0  0  0  0
 25 26  1  0  0  0  0
 26 20  1  0  0  0  0
 27 26  2  0  0  0  0
 28 25  1  0  0  0  0
M  END
>  <minimizedAffinity>
-5.53605461

$$$$

 OpenBabel03252504483D

 28 29  0  0  0  0  0  0  0  0999 V2000
   37.8410   29.9870   42.3670 O   0  0  0  0  0  0  0  0  0  0  0  0
   36.9340   29.9570   41.1350 P   0  0  1  0  0  0  0  0  0  0  0  0
   35.6330   30.9750   41.5100 O   0  0  0  0  0  0  0  0  0  0  0  0
   35.8980   31.6890   42.1410 H   0  0  0  0  0  0  0  0  0  0  0  0
   37.8710   30.5040   39.8450 O   0  0  0  0  0  0  0  0  0  0  0  0
   40.4160   33.0210   39.3630 C   0  0  0  0  0  0  0  0  0  0  0  0
   39.7590   34.1540   39.8360 C   0  0  0  0  0  0  0  0  0  0  0  0
   38.4470   34.0140   40.3110 C   0  0  0  0  0  0  0  0  0  0  0  0
   37.8990   32.7800   40.2790 N   0  0  0  0  0  0  0  0  0  0  0  0
   38.5780   31.6940   39.8070 C   0  0  0  0  0  0  0  0  0  0  0  0
   39.8430   31.8320   39.3490 N   0  0  0  0  0  0  0  0  0  0  0  0
   40.2010   35.1350   39.8580 H   0  0  0  0  0  0  0  0  0  0  0  0
   37.8990   34.8760   40.6900 H   0  0  0  0  0  0  0  0  0  0  0  0
   41.8150   33.2050   38.8620 C   0  0  0  0  0  0  0  0  0  0  0  0
   42.5160   33.5130   39.6570 H   0  0  0  0  0  0  0  0  0  0  0  0
   42.1300   32.2770   38.3180 H   0  0  0  0  0  0  0  0  0  0  0  0
   41.7730   34.0480   38.1370 H   0  0  0  0  0  0  0  0  0  0  0  0
   36.3550   28.4150   40.8210 O   0  0  0  0  0  0  0  0  0  0  0  0
   38.7880   25.0220   39.2370 H   0  0  0  0  0  0  0  0  0  0  0  0
   38.2950   25.4900   40.0320 N   0  0  0  0  0  0  0  0  0  0  0  0
   37.6340   26.6740   39.8950 C   0  0  0  0  0  3  0  0  0  0  0  0
   37.0040   27.2240   41.0120 C   0  0  0  0  0  0  0  0  0  0  0  0
   37.1030   26.5150   42.1740 C   0  0  0  0  0  0  0  0  0  0  0  0
   36.5480   26.9880   43.1800 O   0  0  0  0  0  0  0  0  0  0  0  0
   37.7500   25.3520   42.3120 N   0  0  0  0  0  0  0  0  0  0  0  0
   38.3560   24.8350   41.2170 C   0  0  0  0  0  0  0  0  0  0  0  0
   38.9640   23.7400   41.3490 O   0  0  0  0  0  0  0  0  0  0  0  0
   37.7930   24.8570   43.2160 H   0  0  0  0  0  0  0  0  0  0  0  0
  2  3  1  0  0  0  0
  2  1  2  1  0  0  0
  3  4  1  0  0  0  0
  5  2  1  0  0  0  0
  6  7  1  0  0  0  0
  7 12  1  0  0  0  0
  7  8  2  0  0  0  0
  8 13  1  0  0  0  0
  9  8  1  0  0  0  0
 10  5  1  0  0  0  0
 10  9  2  0  0  0  0
 11  6  2  0  0  0  0
 11 10  1  0  0  0  0
 14  6  1  0  0  0  0
 14 15  1  0  0  0  0
 16 14  1  0  0  0  0
 17 14  1  0  0  0  0
 18 22  1  0  0  0  0
 18  2  1  0  0  0  0
 19 20  1  0  0  0  0
 20 26  1  0  0  0  0
 21 20  1  0  0  0  0
 21 22  2  0  0  0  0
 22 23  1  0  0  0  0
 23 25  1  0  0  0  0
 23 24  2  0  0  0  0
 25 28  1  0  0  0  0
 26 27  2  0  0  0  0
 26 25  1  0  0  0  0
M  END
>  <minimizedAffinity>
-5.03673029

$$$$

 OpenBabel03252504483D

 28 29  0  0  0  0  0  0  0  0999 V2000
   38.2210   28.3150   38.1640 O   0  0  0  0  0  0  0  0  0  0  0  0
   36.7190   28.4020   37.8830 P   0  0  1  0  0  0  0  0  0  0  0  0
   36.5300   27.8730   36.2850 O   0  0  0  0  0  0  0  0  0  0  0  0
   37.2320   27.2260   36.0300 H   0  0  0  0  0  0  0  0  0  0  0  0
   35.9660   27.4100   39.0180 O   0  0  0  0  0  0  0  0  0  0  0  0
   37.1390   27.2690   42.4320 C   0  0  0  0  0  0  0  0  0  0  0  0
   37.6360   25.9700   42.4860 C   0  0  0  0  0  0  0  0  0  0  0  0
   37.5520   25.1750   41.3350 C   0  0  0  0  0  0  0  0  0  0  0  0
   36.9890   25.7240   40.2360 N   0  0  0  0  0  0  0  0  0  0  0  0
   36.5130   27.0030   40.2250 C   0  0  0  0  0  0  0  0  0  0  0  0
   36.5950   27.7670   41.3370 N   0  0  0  0  0  0  0  0  0  0  0  0
   38.0840   25.5380   43.3650 H   0  0  0  0  0  0  0  0  0  0  0  0
   37.9310   24.1540   41.3360 H   0  0  0  0  0  0  0  0  0  0  0  0
   37.2430   28.0910   43.6790 C   0  0  0  0  0  0  0  0  0  0  0  0
   38.2880   28.3000   43.9660 H   0  0  0  0  0  0  0  0  0  0  0  0
   36.6160   29.0130   43.5590 H   0  0  0  0  0  0  0  0  0  0  0  0
   36.8120   27.4680   44.4940 H   0  0  0  0  0  0  0  0  0  0  0  0
   36.1490   29.9740   38.0150 O   0  0  0  0  0  0  0  0  0  0  0  0
   36.9000   32.4550   41.6510 H   0  0  0  0  0  0  0  0  0  0  0  0
   37.0660   32.2610   40.6360 N   0  0  0  0  0  0  0  0  0  0  0  0
   36.4810   31.2180   39.9810 C   0  0  0  0  0  3  0  0  0  0  0  0
   36.7600   31.0360   38.6260 C   0  0  0  0  0  0  0  0  0  0  0  0
   37.6140   31.9370   38.0570 C   0  0  0  0  0  0  0  0  0  0  0  0
   37.8750   31.7910   36.8500 O   0  0  0  0  0  0  0  0  0  0  0  0
   38.1880   32.9610   38.6970 N   0  0  0  0  0  0  0  0  0  0  0  0
   37.9050   33.1220   40.0110 C   0  0  0  0  0  0  0  0  0  0  0  0
   38.4470   34.0870   40.6110 O   0  0  0  0  0  0  0  0  0  0  0  0
   38.8260   33.6140   38.2160 H   0  0  0  0  0  0  0  0  0  0  0  0
  2 18  1  0  0  0  0
  2  1  2  1  0  0  0
  2  5  1  0  0  0  0
  3  2  1  0  0  0  0
  4  3  1  0  0  0  0
  5 10  1  0  0  0  0
  6  7  1  0  0  0  0
  6 14  1  0  0  0  0
  7 12  1  0  0  0  0
  8 13  1  0  0  0  0
  8  7  2  0  0  0  0
  9  8  1  0  0  0  0
 10  9  2  0  0  0  0
 10 11  1  0  0  0  0
 11  6  2  0  0  0  0
 14 15  1  0  0  0  0
 14 17  1  0  0  0  0
 16 14  1  0  0  0  0
 18 22  1  0  0  0  0
 20 19  1  0  0  0  0
 21 20  1  0  0  0  0
 22 21  2  0  0  0  0
 23 22  1  0  0  0  0
 23 25  1  0  0  0  0
 24 23  2  0  0  0  0
 25 26  1  0  0  0  0
 26 27  2  0  0  0  0
 26 20  1  0  0  0  0
 28 25  1  0  0  0  0
M  END
>  <minimizedAffinity>
-5.0191102

$$$$

 OpenBabel03252504483D

 28 29  0  0  0  0  0  0  0  0999 V2000
   37.2280   28.4130   38.4190 O   0  0  0  0  0  0  0  0  0  0  0  0
   36.2110   29.4120   38.9750 P   0  0  1  0  0  0  0  0  0  0  0  0
   34.9420   29.4330   37.8530 O   0  0  0  0  0  0  0  0  0  0  0  0
   34.8560   28.5680   37.3840 H   0  0  0  0  0  0  0  0  0  0  0  0
   35.7630   28.8370   40.4940 O   0  0  0  0  0  0  0  0  0  0  0  0
   37.7870   26.5190   42.3850 C   0  0  0  0  0  0  0  0  0  0  0  0
   38.3120   27.3620   43.3600 C   0  0  0  0  0  0  0  0  0  0  0  0
   37.9490   28.7160   43.3360 C   0  0  0  0  0  0  0  0  0  0  0  0
   37.1060   29.1200   42.3610 N   0  0  0  0  0  0  0  0  0  0  0  0
   36.6140   28.2600   41.4230 C   0  0  0  0  0  0  0  0  0  0  0  0
   36.9660   26.9550   41.4480 N   0  0  0  0  0  0  0  0  0  0  0  0
   38.9840   27.0340   44.1350 H   0  0  0  0  0  0  0  0  0  0  0  0
   38.3380   29.4080   44.0820 H   0  0  0  0  0  0  0  0  0  0  0  0
   38.1950   25.0790   42.4380 C   0  0  0  0  0  0  0  0  0  0  0  0
   37.8350   24.5660   43.3470 H   0  0  0  0  0  0  0  0  0  0  0  0
   37.8840   24.5780   41.4840 H   0  0  0  0  0  0  0  0  0  0  0  0
   39.3060   25.0770   42.4970 H   0  0  0  0  0  0  0  0  0  0  0  0
   36.8580   30.9550   39.1050 O   0  0  0  0  0  0  0  0  0  0  0  0
   39.4690   32.4040   35.7850 H   0  0  0  0  0  0  0  0  0  0  0  0
   39.3410   32.1500   36.7910 N   0  0  0  0  0  0  0  0  0  0  0  0
   38.1530   31.7090   37.2940 C   0  0  0  0  0  3  0  0  0  0  0  0
   38.0740   31.3920   38.6500 C   0  0  0  0  0  0  0  0  0  0  0  0
   39.2180   31.5530   39.3780 C   0  0  0  0  0  0  0  0  0  0  0  0
   39.1680   31.2750   40.5880 O   0  0  0  0  0  0  0  0  0  0  0  0
   40.3850   31.9840   38.8880 N   0  0  0  0  0  0  0  0  0  0  0  0
   40.4420   32.2870   37.5690 C   0  0  0  0  0  0  0  0  0  0  0  0
   41.5420   32.6930   37.1110 O   0  0  0  0  0  0  0  0  0  0  0  0
   41.2210   32.0870   39.4840 H   0  0  0  0  0  0  0  0  0  0  0  0
  2  1  2  6  0  0  0
  2 18  1  0  0  0  0
  2  5  1  0  0  0  0
  3  2  1  0  0  0  0
  4  3  1  0  0  0  0
  5 10  1  0  0  0  0
  6 14  1  0  0  0  0
  6  7  1  0  0  0  0
  7 12  1  0  0  0  0
  8  7  2  0  0  0  0
  8 13  1  0  0  0  0
  9  8  1  0  0  0  0
 10 11  1  0  0  0  0
 10  9  2  0  0  0  0
 11  6  2  0  0  0  0
 14 17  1  0  0  0  0
 14 15  1  0  0  0  0
 16 14  1  0  0  0  0
 19 20  1  0  0  0  0
 20 21  1  0  0  0  0
 20 26  1  0  0  0  0
 21 22  2  0  0  0  0
 22 18  1  0  0  0  0
 22 23  1  0  0  0  0
 23 24  2  0  0  0  0
 25 23  1  0  0  0  0
 25 28  1  0  0  0  0
 26 25  1  0  0  0  0
 27 26  2  0  0  0  0
M  END
>  <minimizedAffinity>
-4.9909544

$$$$

 OpenBabel03252504483D

 28 29  0  0  0  0  0  0  0  0999 V2000
   37.2770   31.0110   37.3870 O   0  0  0  0  0  0  0  0  0  0  0  0
   37.4560   31.6520   38.7650 P   0  0  1  0  0  0  0  0  0  0  0  0
   37.0740   33.2890   38.5520 O   0  0  0  0  0  0  0  0  0  0  0  0
   36.4200   33.4180   37.8230 H   0  0  0  0  0  0  0  0  0  0  0  0
   36.4050   30.8410   39.8040 O   0  0  0  0  0  0  0  0  0  0  0  0
   37.0310   28.2210   42.2110 C   0  0  0  0  0  0  0  0  0  0  0  0
   37.1360   27.1140   41.3740 C   0  0  0  0  0  0  0  0  0  0  0  0
   36.9870   27.3060   39.9930 C   0  0  0  0  0  0  0  0  0  0  0  0
   36.7490   28.5630   39.5590 N   0  0  0  0  0  0  0  0  0  0  0  0
   36.6530   29.6220   40.4140 C   0  0  0  0  0  0  0  0  0  0  0  0
   36.7960   29.4340   41.7450 N   0  0  0  0  0  0  0  0  0  0  0  0
   37.3260   26.1150   41.7260 H   0  0  0  0  0  0  0  0  0  0  0  0
   37.0630   26.4650   39.3040 H   0  0  0  0  0  0  0  0  0  0  0  0
   37.1940   27.9820   43.6800 C   0  0  0  0  0  0  0  0  0  0  0  0
   38.2080   27.6380   43.9460 H   0  0  0  0  0  0  0  0  0  0  0  0
   36.8680   28.9000   44.2350 H   0  0  0  0  0  0  0  0  0  0  0  0
   36.5030   27.1470   43.9330 H   0  0  0  0  0  0  0  0  0  0  0  0
   39.0350   31.5210   39.3160 O   0  0  0  0  0  0  0  0  0  0  0  0
   41.7550   32.7910   36.0090 H   0  0  0  0  0  0  0  0  0  0  0  0
   41.4900   32.8060   37.0210 N   0  0  0  0  0  0  0  0  0  0  0  0
   40.4090   32.1350   37.5100 C   0  0  0  0  0  3  0  0  0  0  0  0
   40.1330   32.2120   38.8760 C   0  0  0  0  0  0  0  0  0  0  0  0
   40.9870   32.9680   39.6250 C   0  0  0  0  0  0  0  0  0  0  0  0
   40.7580   33.0480   40.8440 O   0  0  0  0  0  0  0  0  0  0  0  0
   42.0500   33.6260   39.1490 N   0  0  0  0  0  0  0  0  0  0  0  0
   42.3010   33.5400   37.8210 C   0  0  0  0  0  0  0  0  0  0  0  0
   43.3020   34.1610   37.3750 O   0  0  0  0  0  0  0  0  0  0  0  0
   42.6640   34.1830   39.7620 H   0  0  0  0  0  0  0  0  0  0  0  0
  2  1  2  6  0  0  0
  2 18  1  0  0  0  0
  2  5  1  0  0  0  0
  3  2  1  0  0  0  0
  4  3  1  0  0  0  0
  5 10  1  0  0  0  0
  6 14  1  0  0  0  0
  7 12  1  0  0  0  0
  7  6  2  0  0  0  0
  8  7  1  0  0  0  0
  9  8  2  0  0  0  0
  9 10  1  0  0  0  0
 10 11  2  0  0  0  0
 11  6  1  0  0  0  0
 13  8  1  0  0  0  0
 14 17  1  0  0  0  0
 14 15  1  0  0  0  0
 14 16  1  0  0  0  0
 19 20  1  0  0  0  0
 20 21  1  0  0  0  0
 20 26  1  0  0  0  0
 21 22  2  0  0  0  0
 22 18  1  0  0  0  0
 22 23  1  0  0  0  0
 23 24  2  0  0  0  0
 25 23  1  0  0  0  0
 25 28  1  0  0  0  0
 26 25  1  0  0  0  0
 27 26  2  0  0  0  0
M  END
>  <minimizedAffinity>
-4.90351343

$$$$

 OpenBabel03252504483D

 28 29  0  0  0  0  0  0  0  0999 V2000
   36.8970   27.8370   36.7300 O   0  0  0  0  0  0  0  0  0  0  0  0
   36.6120   28.4950   38.0810 P   0  0  1  0  0  0  0  0  0  0  0  0
   35.1960   27.7580   38.6510 O   0  0  0  0  0  0  0  0  0  0  0  0
   35.1060   26.8340   38.3140 H   0  0  0  0  0  0  0  0  0  0  0  0
   37.9620   28.2030   39.0460 O   0  0  0  0  0  0  0  0  0  0  0  0
   37.4870   26.0520   41.9080 C   0  0  0  0  0  0  0  0  0  0  0  0
   38.0160   26.8430   42.9240 C   0  0  0  0  0  0  0  0  0  0  0  0
   38.5260   28.1060   42.5880 C   0  0  0  0  0  0  0  0  0  0  0  0
   38.4690   28.4770   41.2900 N   0  0  0  0  0  0  0  0  0  0  0  0
   37.9420   27.6700   40.3250 C   0  0  0  0  0  0  0  0  0  0  0  0
   37.4520   26.4530   40.6510 N   0  0  0  0  0  0  0  0  0  0  0  0
   38.0580   26.5420   43.9560 H   0  0  0  0  0  0  0  0  0  0  0  0
   38.9480   28.7560   43.3530 H   0  0  0  0  0  0  0  0  0  0  0  0
   36.9520   24.7090   42.3000 C   0  0  0  0  0  0  0  0  0  0  0  0
   36.0750   24.7770   42.9660 H   0  0  0  0  0  0  0  0  0  0  0  0
   36.7700   24.1070   41.3720 H   0  0  0  0  0  0  0  0  0  0  0  0
   37.7580   24.2190   42.8920 H   0  0  0  0  0  0  0  0  0  0  0  0
   36.3510   30.1460   37.9300 O   0  0  0  0  0  0  0  0  0  0  0  0
   39.1300   33.6250   38.2760 H   0  0  0  0  0  0  0  0  0  0  0  0
   38.4270   32.9800   38.7060 N   0  0  0  0  0  0  0  0  0  0  0  0
   37.8390   31.9630   38.0140 C   0  0  0  0  0  3  0  0  0  0  0  0
   36.9130   31.1520   38.6700 C   0  0  0  0  0  0  0  0  0  0  0  0
   36.6680   31.4490   39.9800 C   0  0  0  0  0  0  0  0  0  0  0  0
   35.8450   30.7380   40.5820 O   0  0  0  0  0  0  0  0  0  0  0  0
   37.2430   32.4450   40.6620 N   0  0  0  0  0  0  0  0  0  0  0  0
   38.1390   33.2220   40.0080 C   0  0  0  0  0  0  0  0  0  0  0  0
   38.6790   34.1590   40.6520 O   0  0  0  0  0  0  0  0  0  0  0  0
   37.0200   32.6260   41.6530 H   0  0  0  0  0  0  0  0  0  0  0  0
  2  1  2  6  0  0  0
  2  3  1  0  0  0  0
  2  5  1  0  0  0  0
  4  3  1  0  0  0  0
  5 10  1  0  0  0  0
  6 14  1  0  0  0  0
  6  7  1  0  0  0  0
  7 12  1  0  0  0  0
  8  7  2  0  0  0  0
  8 13  1  0  0  0  0
  9  8  1  0  0  0  0
 10 11  1  0  0  0  0
 10  9  2  0  0  0  0
 11  6  2  0  0  0  0
 14 17  1  0  0  0  0
 14 15  1  0  0  0  0
 16 14  1  0  0  0  0
 18  2  1  0  0  0  0
 18 22  1  0  0  0  0
 19 20  1  0  0  0  0
 20 26  1  0  0  0  0
 21 22  2  0  0  0  0
 21 20  1  0  0  0  0
 22 23  1  0  0  0  0
 23 24  2  0  0  0  0
 23 25  1  0  0  0  0
 25 28  1  0  0  0  0
 26 27  2  0  0  0  0
 26 25  1  0  0  0  0
M  END
>  <minimizedAffinity>
-4.89730406

$$$$

 OpenBabel03252504483D

 28 29  0  0  0  0  0  0  0  0999 V2000
   40.4650   30.7400   38.4730 O   0  0  0  0  0  0  0  0  0  0  0  0
   39.6540   31.9550   38.9290 P   0  0  1  0  0  0  0  0  0  0  0  0
   38.2180   31.8980   38.0300 O   0  0  0  0  0  0  0  0  0  0  0  0
   37.9750   30.9710   37.7900 H   0  0  0  0  0  0  0  0  0  0  0  0
   39.4220   31.7750   40.5880 O   0  0  0  0  0  0  0  0  0  0  0  0
   36.8220   29.3890   41.3630 C   0  0  0  0  0  0  0  0  0  0  0  0
   37.2780   28.8880   42.5790 C   0  0  0  0  0  0  0  0  0  0  0  0
   38.4790   29.3920   43.1000 C   0  0  0  0  0  0  0  0  0  0  0  0
   39.1210   30.3400   42.3830 N   0  0  0  0  0  0  0  0  0  0  0  0
   38.6400   30.8040   41.1940 C   0  0  0  0  0  0  0  0  0  0  0  0
   37.4820   30.3160   40.6940 N   0  0  0  0  0  0  0  0  0  0  0  0
   36.7610   28.1330   43.1460 H   0  0  0  0  0  0  0  0  0  0  0  0
   38.8690   29.0270   44.0490 H   0  0  0  0  0  0  0  0  0  0  0  0
   35.5380   28.8300   40.8340 C   0  0  0  0  0  0  0  0  0  0  0  0
   34.6720   29.0680   41.4760 H   0  0  0  0  0  0  0  0  0  0  0  0
   35.4130   29.1530   39.7680 H   0  0  0  0  0  0  0  0  0  0  0  0
   35.6520   27.7230   40.8620 H   0  0  0  0  0  0  0  0  0  0  0  0
   40.4500   33.3960   38.6050 O   0  0  0  0  0  0  0  0  0  0  0  0
   44.2190   33.4930   36.2120 H   0  0  0  0  0  0  0  0  0  0  0  0
   43.7210   33.6140   37.1240 N   0  0  0  0  0  0  0  0  0  0  0  0
   42.3790   33.4190   37.2640 C   0  0  0  0  0  3  0  0  0  0  0  0
   41.8010   33.6030   38.5200 C   0  0  0  0  0  0  0  0  0  0  0  0
   42.6450   33.9690   39.5280 C   0  0  0  0  0  0  0  0  0  0  0  0
   42.1490   34.1380   40.6550 O   0  0  0  0  0  0  0  0  0  0  0  0
   43.9620   34.1600   39.3950 N   0  0  0  0  0  0  0  0  0  0  0  0
   44.5050   33.9780   38.1680 C   0  0  0  0  0  0  0  0  0  0  0  0
   45.7450   34.1590   38.0460 O   0  0  0  0  0  0  0  0  0  0  0  0
   44.5550   34.4370   40.1930 H   0  0  0  0  0  0  0  0  0  0  0  0
  2  1  2  6  0  0  0
  2  5  1  0  0  0  0
  3  2  1  0  0  0  0
  4  3  1  0  0  0  0
  5 10  1  0  0  0  0
  6  7  1  0  0  0  0
  7  8  2  0  0  0  0
  7 12  1  0  0  0  0
  8 13  1  0  0  0  0
  9  8  1  0  0  0  0
 10  9  2  0  0  0  0
 11 10  1  0  0  0  0
 11  6  2  0  0  0  0
 14 17  1  0  0  0  0
 14  6  1  0  0  0  0
 14 15  1  0  0  0  0
 16 14  1  0  0  0  0
 18  2  1  0  0  0  0
 19 20  1  0  0  0  0
 20 21  1  0  0  0  0
 20 26  1  0  0  0  0
 21 22  2  0  0  0  0
 22 18  1  0  0  0  0
 22 23  1  0  0  0  0
 23 24  2  0  0  0  0
 25 23  1  0  0  0  0
 25 28  1  0  0  0  0
 26 25  1  0  0  0  0
 27 26  2  0  0  0  0
M  END
>  <minimizedAffinity>
-4.65424013

$$$$
