
 OpenBabel03252507553D

 45 48  0  0  1  0  0  0  0  0999 V2000
   49.0800   32.0840   40.5600 C   0  0  2  0  0  0  0  0  0  0  0  0
   49.5740   31.3240   41.6980 C   0  0  0  0  0  0  0  0  0  0  0  0
   50.4500   31.5710   40.5100 C   0  0  1  0  0  0  0  0  0  0  0  0
   48.3360   31.6050   39.8980 H   0  0  0  0  0  0  0  0  0  0  0  0
   49.2690   30.2580   41.8960 H   0  0  0  0  0  0  0  0  0  0  0  0
   49.7920   31.8570   42.6370 H   0  0  0  0  0  0  0  0  0  0  0  0
   51.2060   32.3820   40.4990 H   0  0  0  0  0  0  0  0  0  0  0  0
   47.2720   34.8560   41.9840 C   0  0  2  0  0  0  0  0  0  0  0  0
   46.5690   34.4640   40.6820 C   0  0  0  0  0  0  0  0  0  0  0  0
   47.8350   34.1710   39.8460 C   0  0  0  0  0  0  0  0  0  0  0  0
   48.7970   33.5490   40.8100 C   0  0  1  0  0  0  0  0  0  0  0  0
   48.1510   33.6490   42.1600 C   0  0  0  0  0  0  0  0  0  0  0  0
   47.8760   35.7670   41.8070 H   0  0  0  0  0  0  0  0  0  0  0  0
   46.0280   33.5300   40.8640 H   0  0  0  0  0  0  0  0  0  0  0  0
   45.9950   35.2860   40.2520 H   0  0  0  0  0  0  0  0  0  0  0  0
   48.2440   35.1870   39.5950 H   0  0  0  0  0  0  0  0  0  0  0  0
   47.5910   33.5580   38.9750 H   0  0  0  0  0  0  0  0  0  0  0  0
   49.7700   34.0800   40.8610 H   0  0  0  0  0  0  0  0  0  0  0  0
   47.5180   32.7660   42.3760 H   0  0  0  0  0  0  0  0  0  0  0  0
   48.8960   33.7990   42.9660 H   0  0  0  0  0  0  0  0  0  0  0  0
   44.6520   36.1820   44.3420 C   0  0  0  0  0  0  0  0  0  0  0  0
   45.5100   36.1430   43.2490 C   0  0  0  0  0  0  0  0  0  0  0  0
   46.2950   35.0090   43.0980 C   0  0  0  0  0  0  0  0  0  0  0  0
   46.2090   33.9590   44.0220 N   0  0  0  0  0  0  0  0  0  0  0  0
   45.3510   34.0530   45.0730 C   0  0  0  0  0  0  0  0  0  0  0  0
   44.5800   35.1630   45.2260 N   0  0  0  0  0  0  0  0  0  0  0  0
   44.0170   37.0500   44.5010 H   0  0  0  0  0  0  0  0  0  0  0  0
   45.5840   36.9450   42.5320 H   0  0  0  0  0  0  0  0  0  0  0  0
   45.3170   33.2210   45.7620 H   0  0  0  0  0  0  0  0  0  0  0  0
   50.6950   30.4630   39.6570 O   0  0  0  0  0  0  0  0  0  0  0  0
   51.7140   30.1810   37.2730 O   0  0  0  0  0  0  0  0  0  0  0  0
   51.9230   30.8860   38.5910 P   0  0  1  0  0  0  0  0  0  0  0  0
   51.8730   32.5720   38.2760 O   0  0  0  0  0  0  0  0  0  0  0  0
   52.3670   33.0310   38.9850 H   0  0  0  0  0  0  0  0  0  0  0  0
   53.4510   30.5430   39.1380 O   0  0  0  0  0  0  0  0  0  0  0  0
   56.3360   27.3390   40.4770 H   0  0  0  0  0  0  0  0  0  0  0  0
   55.3780   27.7370   40.5400 N   0  0  0  0  0  0  0  0  0  0  0  0
   55.1560   28.8190   39.7990 C   0  0  0  0  0  3  0  0  0  0  0  0
   53.9120   29.4360   39.8050 C   0  0  0  0  0  0  0  0  0  0  0  0
   52.9220   28.8730   40.6160 C   0  0  0  0  0  0  0  0  0  0  0  0
   51.7300   29.2600   40.7770 O   0  0  0  0  0  0  0  0  0  0  0  0
   53.1940   27.7640   41.3570 N   0  0  0  0  0  0  0  0  0  0  0  0
   54.4150   27.2120   41.3100 C   0  0  0  0  0  0  0  0  0  0  0  0
   54.7290   26.1810   41.9770 O   0  0  0  0  0  0  0  0  0  0  0  0
   52.5120   27.2860   41.9840 H   0  0  0  0  0  0  0  0  0  0  0  0
  1  4  1  6  0  0  0
  1 11  1  0  0  0  0
  1  2  1  0  0  0  0
  2  5  1  0  0  0  0
  2  6  1  0  0  0  0
  3  7  1  1  0  0  0
  3  1  1  0  0  0  0
  3  2  1  0  0  0  0
  8 13  1  6  0  0  0
  8 12  1  0  0  0  0
  8 23  1  0  0  0  0
  9 14  1  0  0  0  0
  9  8  1  0  0  0  0
 10  9  1  0  0  0  0
 10 11  1  0  0  0  0
 11 18  1  6  0  0  0
 11 12  1  0  0  0  0
 12 19  1  0  0  0  0
 12 20  1  0  0  0  0
 15  9  1  0  0  0  0
 16 10  1  0  0  0  0
 17 10  1  0  0  0  0
 21 27  1  0  0  0  0
 21 26  1  0  0  0  0
 22 21  2  0  0  0  0
 23 22  1  0  0  0  0
 23 24  2  0  0  0  0
 24 25  1  0  0  0  0
 25 26  2  0  0  0  0
 25 29  1  0  0  0  0
 28 22  1  0  0  0  0
 30  3  1  0  0  0  0
 32 31  2  6  0  0  0
 32 35  1  0  0  0  0
 32 30  1  0  0  0  0
 33 32  1  0  0  0  0
 33 34  1  0  0  0  0
 35 39  1  0  0  0  0
 36 37  1  0  0  0  0
 37 43  1  0  0  0  0
 38 39  2  0  0  0  0
 38 37  1  0  0  0  0
 39 40  1  0  0  0  0
 40 41  2  0  0  0  0
 40 42  1  0  0  0  0
 42 45  1  0  0  0  0
 43 42  1  0  0  0  0
 43 44  2  0  0  0  0
M  END
>  <minimizedAffinity>
-4.28016138

>  <minimizedRMSD>
1.72989857

$$$$
