
 OpenBabel03252502243D

 35 37  0  0  1  0  0  0  0  0999 V2000
   46.8090   34.5690   42.2610 N   0  0  0  0  0  0  0  0  0  0  0  0
   48.2640   34.6270   42.2910 C   0  0  0  0  0  0  0  0  0  0  0  0
   48.6140   35.4020   41.0020 C   0  0  0  0  0  0  0  0  0  0  0  0
   48.2590   34.5640   39.8170 C   0  0  0  0  0  0  0  0  0  0  0  0
   46.9330   33.8900   39.9150 C   0  0  0  0  0  0  0  0  0  0  0  0
   46.0560   34.3190   41.0550 C   0  0  1  0  0  0  0  0  0  0  0  0
   48.7020   33.6110   42.2330 H   0  0  0  0  0  0  0  0  0  0  0  0
   48.6050   35.2240   43.1500 H   0  0  0  0  0  0  0  0  0  0  0  0
   49.7220   35.5380   41.0620 H   0  0  0  0  0  0  0  0  0  0  0  0
   48.0790   36.3700   41.0560 H   0  0  0  0  0  0  0  0  0  0  0  0
   49.0540   33.7700   39.7420 H   0  0  0  0  0  0  0  0  0  0  0  0
   48.3980   35.1770   38.9050 H   0  0  0  0  0  0  0  0  0  0  0  0
   46.3700   34.1430   38.9680 H   0  0  0  0  0  0  0  0  0  0  0  0
   47.0110   32.7810   39.9060 H   0  0  0  0  0  0  0  0  0  0  0  0
   45.6100   35.2900   40.7670 H   0  0  0  0  0  0  0  0  0  0  0  0
   44.4910   35.9840   44.8380 C   0  0  0  0  0  0  0  0  0  0  0  0
   45.1850   35.8760   43.6270 C   0  0  0  0  0  0  0  0  0  0  0  0
   46.0550   34.7650   43.4650 C   0  0  0  0  0  0  0  0  0  0  0  0
   46.1620   33.8730   44.4960 N   0  0  0  0  0  0  0  0  0  0  0  0
   45.4690   34.0230   45.6460 C   0  0  0  0  0  0  0  0  0  0  0  0
   44.6310   35.0870   45.8090 N   0  0  0  0  0  0  0  0  0  0  0  0
   43.8790   36.8730   44.8000 H   0  0  0  0  0  0  0  0  0  0  0  0
   45.1480   36.5360   42.7820 H   0  0  0  0  0  0  0  0  0  0  0  0
   45.5300   33.3450   46.4690 H   0  0  0  0  0  0  0  0  0  0  0  0
   45.1500   33.3030   41.3020 O   0  0  0  0  0  0  0  0  0  0  0  0
   41.5840   35.6160   40.2280 H   0  0  0  0  0  0  0  0  0  0  0  0
   41.9820   34.7630   40.6700 N   0  0  0  0  0  0  0  0  0  0  0  0
   43.3180   34.4890   40.7520 C   0  0  0  0  0  3  0  0  0  0  0  0
   43.7900   33.3170   41.3640 C   0  0  0  0  0  0  0  0  0  0  0  0
   42.8200   32.4760   41.8690 C   0  0  0  0  0  0  0  0  0  0  0  0
   43.3340   31.4570   42.3970 O   0  0  0  0  0  0  0  0  0  0  0  0
   41.5190   32.7940   41.7630 N   0  0  0  0  0  0  0  0  0  0  0  0
   41.0920   33.9070   41.1800 C   0  0  0  0  0  0  0  0  0  0  0  0
   39.8440   34.1000   41.1390 O   0  0  0  0  0  0  0  0  0  0  0  0
   40.8730   32.0670   42.1900 H   0  0  0  0  0  0  0  0  0  0  0  0
  1  2  1  0  0  0  0
  1 18  1  0  0  0  0
  2  8  1  0  0  0  0
  3 10  1  0  0  0  0
  3  9  1  0  0  0  0
  3  2  1  0  0  0  0
  4  5  1  0  0  0  0
  4  3  1  0  0  0  0
  5  6  1  0  0  0  0
  6 15  1  6  0  0  0
  6 25  1  0  0  0  0
  6  1  1  0  0  0  0
  7  2  1  0  0  0  0
 11  4  1  0  0  0  0
 12  4  1  0  0  0  0
 13  5  1  0  0  0  0
 14  5  1  0  0  0  0
 16 21  1  0  0  0  0
 17 16  2  0  0  0  0
 18 17  1  0  0  0  0
 18 19  2  0  0  0  0
 19 20  1  0  0  0  0
 20 21  2  0  0  0  0
 20 24  1  0  0  0  0
 22 16  1  0  0  0  0
 23 17  1  0  0  0  0
 25 29  1  0  0  0  0
 26 27  1  0  0  0  0
 27 28  1  0  0  0  0
 27 33  1  0  0  0  0
 28 29  2  0  0  0  0
 29 30  1  0  0  0  0
 30 31  2  0  0  0  0
 32 30  1  0  0  0  0
 32 35  1  0  0  0  0
 33 32  1  0  0  0  0
 34 33  2  0  0  0  0
M  END
>  <minimizedAffinity>
-6.10368633

>  <minimizedRMSD>
0.906182468

$$$$
