
 OpenBabel03252509003D

 46 48  0  0  1  0  0  0  0  0999 V2000
   47.2460   34.1020   43.0370 N   0  0  0  0  0  0  0  0  0  0  0  0
   46.7070   35.3000   42.4820 C   0  0  0  0  0  0  0  0  0  0  0  0
   45.2360   35.5180   42.7210 C   0  0  0  0  0  0  0  0  0  0  0  0
   44.7190   34.9560   44.0130 C   0  0  0  0  0  0  0  0  0  0  0  0
   45.8400   34.4060   44.8640 C   0  0  0  0  0  0  0  0  0  0  0  0
   46.5030   33.3370   43.9190 C   0  0  2  0  0  0  0  0  0  0  0  0
   47.2420   36.1380   43.0040 H   0  0  0  0  0  0  0  0  0  0  0  0
   46.9010   35.4630   41.4210 H   0  0  0  0  0  0  0  0  0  0  0  0
   44.6370   35.1690   41.8490 H   0  0  0  0  0  0  0  0  0  0  0  0
   45.0460   36.6170   42.7740 H   0  0  0  0  0  0  0  0  0  0  0  0
   44.0650   34.0900   43.7490 H   0  0  0  0  0  0  0  0  0  0  0  0
   44.0520   35.6570   44.5690 H   0  0  0  0  0  0  0  0  0  0  0  0
   46.5690   35.1940   45.0760 H   0  0  0  0  0  0  0  0  0  0  0  0
   45.4290   33.9070   45.7500 H   0  0  0  0  0  0  0  0  0  0  0  0
   45.6910   32.7220   43.5030 H   0  0  0  0  0  0  0  0  0  0  0  0
   48.2180   33.4540   42.2080 C   0  0  0  0  0  0  0  0  0  0  0  0
   48.8730   34.2150   41.7660 H   0  0  0  0  0  0  0  0  0  0  0  0
   48.8230   32.7750   42.8480 H   0  0  0  0  0  0  0  0  0  0  0  0
   47.5050   32.6270   41.1830 C   0  0  0  0  0  0  0  0  0  0  0  0
   47.5990   31.5500   41.3750 H   0  0  0  0  0  0  0  0  0  0  0  0
   46.4190   32.8520   41.1760 H   0  0  0  0  0  0  0  0  0  0  0  0
   49.3700   32.3340   37.9300 C   0  0  0  0  0  0  0  0  0  0  0  0
   48.8590   32.0270   39.2110 C   0  0  0  0  0  0  0  0  0  0  0  0
   48.0440   32.9460   39.8350 C   0  0  0  0  0  0  0  0  0  0  0  0
   47.7700   34.0990   39.1910 N   0  0  0  0  0  0  0  0  0  0  0  0
   48.2730   34.3630   37.9680 C   0  0  0  0  0  0  0  0  0  0  0  0
   49.0690   33.4980   37.3280 N   0  0  0  0  0  0  0  0  0  0  0  0
   50.0010   31.5760   37.4960 H   0  0  0  0  0  0  0  0  0  0  0  0
   49.0810   31.0950   39.7300 H   0  0  0  0  0  0  0  0  0  0  0  0
   48.0570   35.2870   37.4450 H   0  0  0  0  0  0  0  0  0  0  0  0
   47.3280   32.6560   44.8160 O   0  0  0  0  0  0  0  0  0  0  0  0
   47.4360   30.1660   43.8850 O   0  0  0  0  0  0  0  0  0  0  0  0
   46.8740   31.0400   45.0040 P   0  0  2  0  0  0  0  0  0  0  0  0
   45.1730   31.0090   44.8160 O   0  0  0  0  0  0  0  0  0  0  0  0
   44.7610   31.6920   45.3960 H   0  0  0  0  0  0  0  0  0  0  0  0
   47.2300   30.4690   46.5230 O   0  0  0  0  0  0  0  0  0  0  0  0
   47.3190   26.1040   47.1240 H   0  0  0  0  0  0  0  0  0  0  0  0
   46.8210   27.0160   47.2830 N   0  0  0  0  0  0  0  0  0  0  0  0
   47.2880   28.2130   46.8260 C   0  0  0  0  0  0  0  0  0  0  0  0
   46.5680   29.3860   47.0770 C   0  0  0  0  0  0  0  0  0  0  0  0
   45.3960   29.2790   47.7880 C   0  0  0  0  0  0  0  0  0  0  0  0
   44.8450   30.3960   47.9470 O   0  0  0  0  0  0  0  0  0  0  0  0
   44.9870   28.0800   48.2110 N   0  0  0  0  0  0  0  0  0  0  0  0
   45.6720   26.9540   47.9720 C   0  0  0  0  0  0  0  0  0  0  0  0
   45.1380   25.9240   48.4440 O   0  0  0  0  0  0  0  0  0  0  0  0
   44.0750   28.1180   48.7450 H   0  0  0  0  0  0  0  0  0  0  0  0
  1  6  1  0  0  0  0
  2  3  1  0  0  0  0
  2  7  1  0  0  0  0
  2  1  1  0  0  0  0
  3 10  1  0  0  0  0
  3  4  1  0  0  0  0
  4 12  1  0  0  0  0
  4  5  1  0  0  0  0
  5 13  1  0  0  0  0
  5 14  1  0  0  0  0
  6 15  1  6  0  0  0
  6 31  1  0  0  0  0
  6  5  1  0  0  0  0
  8  2  1  0  0  0  0
  9  3  1  0  0  0  0
 11  4  1  0  0  0  0
 16 18  1  0  0  0  0
 16  1  1  0  0  0  0
 17 16  1  0  0  0  0
 19 20  1  0  0  0  0
 19 16  1  0  0  0  0
 21 19  1  0  0  0  0
 22 23  1  0  0  0  0
 23 29  1  0  0  0  0
 23 24  2  0  0  0  0
 24 19  1  0  0  0  0
 25 24  1  0  0  0  0
 26 25  2  0  0  0  0
 27 22  2  0  0  0  0
 27 26  1  0  0  0  0
 28 22  1  0  0  0  0
 30 26  1  0  0  0  0
 31 33  1  0  0  0  0
 33 32  2  6  0  0  0
 33 36  1  0  0  0  0
 34 33  1  0  0  0  0
 34 35  1  0  0  0  0
 36 40  1  0  0  0  0
 37 38  1  0  0  0  0
 38 44  1  0  0  0  0
 39 40  2  0  0  0  0
 39 38  1  0  0  0  0
 40 41  1  0  0  0  0
 41 42  2  0  0  0  0
 41 43  1  0  0  0  0
 43 46  1  0  0  0  0
 44 43  1  0  0  0  0
 44 45  2  0  0  0  0
M  END
>  <minimizedAffinity>
-4.68471575

>  <minimizedRMSD>
1.32594264

$$$$
