
 OpenBabel03242523213D

 38 41  0  0  0  0  0  0  0  0999 V2000
   38.8940   28.4360   38.2050 Cl  0  0  0  0  0  0  0  0  0  0  0  0
   37.7050   29.3590   39.1280 C   0  0  0  0  0  0  0  0  0  0  0  0
   36.5670   28.6380   39.5440 C   0  0  0  0  0  0  0  0  0  0  0  0
   35.7130   29.4610   40.2610 C   0  0  0  0  0  0  0  0  0  0  0  0
   35.8280   30.7550   40.5850 C   0  0  0  0  0  0  0  0  0  0  0  0
   36.9600   31.3780   40.1430 C   0  0  0  0  0  0  0  0  0  0  0  0
   37.8970   30.7160   39.4250 C   0  0  0  0  0  0  0  0  0  0  0  0
   34.7480   29.0580   40.6340 H   0  0  0  0  0  0  0  0  0  0  0  0
   35.1290   31.3470   41.1500 H   0  0  0  0  0  0  0  0  0  0  0  0
   37.2300   32.4150   40.3040 H   0  0  0  0  0  0  0  0  0  0  0  0
   39.1300   31.2570   38.9010 N   0  0  0  0  0  0  0  0  0  0  0  0
   40.3320   31.3050   39.5050 C   0  0  0  0  0  3  0  0  0  0  0  0
   41.3860   31.8690   38.8150 C   0  0  0  0  0  0  0  0  0  0  0  0
   42.3340   31.8880   39.3380 H   0  0  0  0  0  0  0  0  0  0  0  0
   41.2220   32.3730   37.5420 C   0  0  0  0  0  0  0  0  0  0  0  0
   42.1970   32.8840   36.9310 O   0  0  0  0  0  0  0  0  0  0  0  0
   40.0080   32.3100   36.9640 N   0  0  0  0  0  0  0  0  0  0  0  0
   38.9780   31.7500   37.6570 C   0  0  0  0  0  0  0  0  0  0  0  0
   37.8860   31.7550   36.9940 O   0  0  0  0  0  0  0  0  0  0  0  0
   39.9070   32.6980   35.9980 H   0  0  0  0  0  0  0  0  0  0  0  0
   36.2860   27.2000   39.2900 C   0  0  0  0  0  0  0  0  0  0  0  0
   35.4280   27.3430   38.4550 O   0  0  0  0  0  0  0  0  0  0  0  0
   37.1610   26.3930   40.1490 C   0  0  0  0  0  0  0  0  0  0  0  0
   37.3790   26.5770   41.4590 C   0  0  0  0  0  0  0  0  0  0  0  0
   38.3270   25.7320   42.0090 C   0  0  0  0  0  0  0  0  0  0  0  0
   38.9570   24.7840   41.1800 N   0  0  0  0  0  0  0  0  0  0  0  0
   38.6810   24.6670   39.8960 C   0  0  0  0  0  0  0  0  0  0  0  0
   37.7440   25.4920   39.3130 N   0  0  0  0  0  0  0  0  0  0  0  0
   38.6230   25.7490   43.0470 H   0  0  0  0  0  0  0  0  0  0  0  0
   39.2400   23.8930   39.3820 H   0  0  0  0  0  0  0  0  0  0  0  0
   36.6650   27.4470   42.3210 C   0  0  0  0  0  0  0  0  0  0  0  0
   36.5740   27.4140   43.6790 C   0  0  0  0  0  0  0  0  0  0  0  0
   37.5250   28.4680   43.1800 C   0  0  0  0  0  0  0  0  0  0  0  0
   35.7610   27.8850   41.8570 H   0  0  0  0  0  0  0  0  0  0  0  0
   37.1020   26.6010   44.2600 H   0  0  0  0  0  0  0  0  0  0  0  0
   35.7970   27.8540   44.3440 H   0  0  0  0  0  0  0  0  0  0  0  0
   37.2020   29.5250   43.0840 H   0  0  0  0  0  0  0  0  0  0  0  0
   38.5990   28.2490   43.1510 H   0  0  0  0  0  0  0  0  0  0  0  0
  1  2  1  0  0  0  0
  2  7  2  0  0  0  0
  2  3  1  0  0  0  0
  3  4  2  0  0  0  0
  4  5  1  0  0  0  0
  4  8  1  0  0  0  0
  5  9  1  0  0  0  0
  6 10  1  0  0  0  0
  6  5  2  0  0  0  0
  7  6  1  0  0  0  0
 11  7  1  0  0  0  0
 11 12  1  0  0  0  0
 13 14  1  0  0  0  0
 13 12  2  0  0  0  0
 15 13  1  0  0  0  0
 16 15  2  0  0  0  0
 17 15  1  0  0  0  0
 17 18  1  0  0  0  0
 18 11  1  0  0  0  0
 19 18  2  0  0  0  0
 20 17  1  0  0  0  0
 21  3  1  0  0  0  0
 21 23  1  0  0  0  0
 22 21  2  0  0  0  0
 23 24  1  0  0  0  0
 24 25  2  0  0  0  0
 24 31  1  0  0  0  0
 25 29  1  0  0  0  0
 26 25  1  0  0  0  0
 27 26  2  0  0  0  0
 28 27  1  0  0  0  0
 28 23  2  0  0  0  0
 30 27  1  0  0  0  0
 31 33  1  0  0  0  0
 31 32  1  0  0  0  0
 32 35  1  0  0  0  0
 32 36  1  0  0  0  0
 33 32  1  0  0  0  0
 34 31  1  0  0  0  0
 37 33  1  0  0  0  0
 38 33  1  0  0  0  0
M  END
>  <minimizedAffinity>
-6.33186817

$$$$

 OpenBabel03242523213D

 38 41  0  0  0  0  0  0  0  0999 V2000
   36.5380   27.0250   39.3210 Cl  0  0  0  0  0  0  0  0  0  0  0  0
   37.1280   27.6560   40.8610 C   0  0  0  0  0  0  0  0  0  0  0  0
   36.6880   28.9530   41.1950 C   0  0  0  0  0  0  0  0  0  0  0  0
   37.2080   29.3360   42.4210 C   0  0  0  0  0  0  0  0  0  0  0  0
   38.0110   28.6760   43.2640 C   0  0  0  0  0  0  0  0  0  0  0  0
   38.3900   27.4270   42.8650 C   0  0  0  0  0  0  0  0  0  0  0  0
   37.9720   26.9010   41.6900 C   0  0  0  0  0  0  0  0  0  0  0  0
   36.9860   30.3500   42.8170 H   0  0  0  0  0  0  0  0  0  0  0  0
   38.3840   29.0250   44.2110 H   0  0  0  0  0  0  0  0  0  0  0  0
   39.0340   26.7440   43.4080 H   0  0  0  0  0  0  0  0  0  0  0  0
   38.3010   25.6010   41.1550 N   0  0  0  0  0  0  0  0  0  0  0  0
   39.2580   25.2960   40.2600 C   0  0  0  0  0  3  0  0  0  0  0  0
   39.4030   23.9750   39.8840 C   0  0  0  0  0  0  0  0  0  0  0  0
   40.1840   23.7740   39.1620 H   0  0  0  0  0  0  0  0  0  0  0  0
   38.5920   22.9880   40.4050 C   0  0  0  0  0  0  0  0  0  0  0  0
   38.7410   21.7900   40.0490 O   0  0  0  0  0  0  0  0  0  0  0  0
   37.6440   23.3250   41.3000 N   0  0  0  0  0  0  0  0  0  0  0  0
   37.5150   24.6320   41.6600 C   0  0  0  0  0  0  0  0  0  0  0  0
   36.5790   24.8110   42.5130 O   0  0  0  0  0  0  0  0  0  0  0  0
   37.0410   22.5600   41.6820 H   0  0  0  0  0  0  0  0  0  0  0  0
   35.7850   29.8170   40.3890 C   0  0  0  0  0  0  0  0  0  0  0  0
   34.7440   29.2750   40.6650 O   0  0  0  0  0  0  0  0  0  0  0  0
   36.5960   30.8360   39.7100 C   0  0  0  0  0  0  0  0  0  0  0  0
   36.9920   30.8150   38.4300 C   0  0  0  0  0  0  0  0  0  0  0  0
   37.8310   31.8530   38.0700 C   0  0  0  0  0  0  0  0  0  0  0  0
   38.1840   32.8120   39.0390 N   0  0  0  0  0  0  0  0  0  0  0  0
   37.7470   32.7600   40.2810 C   0  0  0  0  0  0  0  0  0  0  0  0
   36.9100   31.7400   40.6780 N   0  0  0  0  0  0  0  0  0  0  0  0
   38.2420   31.9830   37.0790 H   0  0  0  0  0  0  0  0  0  0  0  0
   38.0970   33.5650   40.9190 H   0  0  0  0  0  0  0  0  0  0  0  0
   36.5460   29.9220   37.4220 C   0  0  0  0  0  0  0  0  0  0  0  0
   36.7370   29.9940   36.0760 C   0  0  0  0  0  0  0  0  0  0  0  0
   37.6470   29.0010   36.7460 C   0  0  0  0  0  0  0  0  0  0  0  0
   35.6040   29.4000   37.6780 H   0  0  0  0  0  0  0  0  0  0  0  0
   37.3060   30.8650   35.6330 H   0  0  0  0  0  0  0  0  0  0  0  0
   36.1540   29.5190   35.2550 H   0  0  0  0  0  0  0  0  0  0  0  0
   37.3990   27.9180   36.7540 H   0  0  0  0  0  0  0  0  0  0  0  0
   38.6700   29.3000   37.0030 H   0  0  0  0  0  0  0  0  0  0  0  0
  1  2  1  0  0  0  0
  2  3  2  0  0  0  0
  2  7  1  0  0  0  0
  3  4  1  0  0  0  0
  4  8  1  0  0  0  0
  4  5  2  0  0  0  0
  5  9  1  0  0  0  0
  6  5  1  0  0  0  0
  6 10  1  0  0  0  0
  7  6  2  0  0  0  0
 11 18  1  0  0  0  0
 11  7  1  0  0  0  0
 12 11  1  0  0  0  0
 13 12  2  0  0  0  0
 13 15  1  0  0  0  0
 14 13  1  0  0  0  0
 15 17  1  0  0  0  0
 16 15  2  0  0  0  0
 17 18  1  0  0  0  0
 17 20  1  0  0  0  0
 18 19  2  0  0  0  0
 21 22  2  0  0  0  0
 21  3  1  0  0  0  0
 23 21  1  0  0  0  0
 23 28  1  0  0  0  0
 24 23  2  0  0  0  0
 25 24  1  0  0  0  0
 25 26  2  0  0  0  0
 26 27  1  0  0  0  0
 27 28  2  0  0  0  0
 27 30  1  0  0  0  0
 29 25  1  0  0  0  0
 31 34  1  0  0  0  0
 31 24  1  0  0  0  0
 32 33  1  0  0  0  0
 32 31  1  0  0  0  0
 33 37  1  0  0  0  0
 33 38  1  0  0  0  0
 33 31  1  0  0  0  0
 35 32  1  0  0  0  0
 36 32  1  0  0  0  0
M  END
>  <minimizedAffinity>
-6.13386965

$$$$

 OpenBabel03242523213D

 38 41  0  0  0  0  0  0  0  0999 V2000
   39.3240   27.2450   39.6170 Cl  0  0  0  0  0  0  0  0  0  0  0  0
   38.6680   27.8110   41.1550 C   0  0  0  0  0  0  0  0  0  0  0  0
   38.9500   29.1540   41.4780 C   0  0  0  0  0  0  0  0  0  0  0  0
   38.3810   29.4840   42.6980 C   0  0  0  0  0  0  0  0  0  0  0  0
   37.6500   28.7440   43.5390 C   0  0  0  0  0  0  0  0  0  0  0  0
   37.4220   27.4550   43.1500 C   0  0  0  0  0  0  0  0  0  0  0  0
   37.9110   26.9710   41.9850 C   0  0  0  0  0  0  0  0  0  0  0  0
   38.5380   30.5000   43.1190 H   0  0  0  0  0  0  0  0  0  0  0  0
   37.2290   29.0570   44.4800 H   0  0  0  0  0  0  0  0  0  0  0  0
   36.8570   26.7080   43.6950 H   0  0  0  0  0  0  0  0  0  0  0  0
   37.7440   25.6350   41.4620 N   0  0  0  0  0  0  0  0  0  0  0  0
   36.8520   25.2130   40.5470 C   0  0  0  0  0  3  0  0  0  0  0  0
   36.8690   23.8810   40.1870 C   0  0  0  0  0  0  0  0  0  0  0  0
   36.1340   23.5840   39.4490 H   0  0  0  0  0  0  0  0  0  0  0  0
   37.7700   22.9980   40.7450 C   0  0  0  0  0  0  0  0  0  0  0  0
   37.7670   21.7860   40.4020 O   0  0  0  0  0  0  0  0  0  0  0  0
   38.6510   23.4500   41.6570 N   0  0  0  0  0  0  0  0  0  0  0  0
   38.6220   24.7670   42.0010 C   0  0  0  0  0  0  0  0  0  0  0  0
   39.5080   25.0610   42.8740 O   0  0  0  0  0  0  0  0  0  0  0  0
   39.3250   22.7630   42.0660 H   0  0  0  0  0  0  0  0  0  0  0  0
   39.7270   30.1200   40.6560 C   0  0  0  0  0  0  0  0  0  0  0  0
   40.7790   29.5320   40.6580 O   0  0  0  0  0  0  0  0  0  0  0  0
   38.8470   31.2350   40.2880 C   0  0  0  0  0  0  0  0  0  0  0  0
   37.8640   31.2060   39.3770 C   0  0  0  0  0  0  0  0  0  0  0  0
   37.2490   32.4250   39.1540 C   0  0  0  0  0  0  0  0  0  0  0  0
   37.6880   33.5510   39.8760 N   0  0  0  0  0  0  0  0  0  0  0  0
   38.6640   33.4930   40.7600 C   0  0  0  0  0  0  0  0  0  0  0  0
   39.3010   32.2970   41.0080 N   0  0  0  0  0  0  0  0  0  0  0  0
   36.4420   32.5760   38.4510 H   0  0  0  0  0  0  0  0  0  0  0  0
   38.8950   34.4370   41.2430 H   0  0  0  0  0  0  0  0  0  0  0  0
   37.3400   30.0550   38.7350 C   0  0  0  0  0  0  0  0  0  0  0  0
   36.5190   29.9840   37.6520 C   0  0  0  0  0  0  0  0  0  0  0  0
   37.9550   29.6840   37.3200 C   0  0  0  0  0  0  0  0  0  0  0  0
   37.2010   29.1940   39.4160 H   0  0  0  0  0  0  0  0  0  0  0  0
   36.1540   30.9340   37.1570 H   0  0  0  0  0  0  0  0  0  0  0  0
   35.8480   29.1560   37.3290 H   0  0  0  0  0  0  0  0  0  0  0  0
   38.3130   28.6360   37.2420 H   0  0  0  0  0  0  0  0  0  0  0  0
   38.5870   30.4790   36.9080 H   0  0  0  0  0  0  0  0  0  0  0  0
  1  2  1  0  0  0  0
  2  3  2  0  0  0  0
  2  7  1  0  0  0  0
  3  4  1  0  0  0  0
  4  8  1  0  0  0  0
  4  5  2  0  0  0  0
  5  9  1  0  0  0  0
  6  5  1  0  0  0  0
  6 10  1  0  0  0  0
  7  6  2  0  0  0  0
 11  7  1  0  0  0  0
 11 18  1  0  0  0  0
 12 11  1  0  0  0  0
 13 12  2  0  0  0  0
 13 15  1  0  0  0  0
 14 13  1  0  0  0  0
 15 17  1  0  0  0  0
 16 15  2  0  0  0  0
 17 18  1  0  0  0  0
 17 20  1  0  0  0  0
 18 19  2  0  0  0  0
 21 22  2  0  0  0  0
 21  3  1  0  0  0  0
 23 21  1  0  0  0  0
 23 28  1  0  0  0  0
 24 23  2  0  0  0  0
 25 24  1  0  0  0  0
 25 26  2  0  0  0  0
 26 27  1  0  0  0  0
 27 28  2  0  0  0  0
 27 30  1  0  0  0  0
 29 25  1  0  0  0  0
 31 24  1  0  0  0  0
 31 34  1  0  0  0  0
 32 31  1  0  0  0  0
 33 32  1  0  0  0  0
 33 31  1  0  0  0  0
 35 32  1  0  0  0  0
 36 32  1  0  0  0  0
 37 33  1  0  0  0  0
 38 33  1  0  0  0  0
M  END
>  <minimizedAffinity>
-6.07344961

$$$$

 OpenBabel03242523213D

 38 41  0  0  0  0  0  0  0  0999 V2000
   39.7580   29.4730   41.2870 Cl  0  0  0  0  0  0  0  0  0  0  0  0
   38.0630   29.5380   40.7990 C   0  0  0  0  0  0  0  0  0  0  0  0
   37.1820   28.7400   41.5570 C   0  0  0  0  0  0  0  0  0  0  0  0
   35.8850   28.8770   41.0870 C   0  0  0  0  0  0  0  0  0  0  0  0
   35.4040   29.6190   40.0820 C   0  0  0  0  0  0  0  0  0  0  0  0
   36.3240   30.3620   39.4000 C   0  0  0  0  0  0  0  0  0  0  0  0
   37.6360   30.3400   39.7300 C   0  0  0  0  0  0  0  0  0  0  0  0
   35.0680   28.2860   41.5530 H   0  0  0  0  0  0  0  0  0  0  0  0
   34.3780   29.6880   39.7610 H   0  0  0  0  0  0  0  0  0  0  0  0
   36.1270   31.0200   38.5620 H   0  0  0  0  0  0  0  0  0  0  0  0
   38.7040   31.0740   39.0910 N   0  0  0  0  0  0  0  0  0  0  0  0
   39.5460   30.6380   38.1360 C   0  0  0  0  0  3  0  0  0  0  0  0
   40.5000   31.5140   37.6610 C   0  0  0  0  0  0  0  0  0  0  0  0
   41.1580   31.1230   36.8940 H   0  0  0  0  0  0  0  0  0  0  0  0
   40.5970   32.8020   38.1450 C   0  0  0  0  0  0  0  0  0  0  0  0
   41.4760   33.5840   37.6970 O   0  0  0  0  0  0  0  0  0  0  0  0
   39.7390   33.2090   39.0990 N   0  0  0  0  0  0  0  0  0  0  0  0
   38.8030   32.3320   39.5580 C   0  0  0  0  0  0  0  0  0  0  0  0
   38.0570   32.8460   40.4590 O   0  0  0  0  0  0  0  0  0  0  0  0
   39.8310   34.1900   39.4510 H   0  0  0  0  0  0  0  0  0  0  0  0
   37.5400   27.8730   42.7110 C   0  0  0  0  0  0  0  0  0  0  0  0
   37.3310   28.6700   43.5900 O   0  0  0  0  0  0  0  0  0  0  0  0
   37.9430   26.5570   42.1990 C   0  0  0  0  0  0  0  0  0  0  0  0
   39.0630   25.8900   42.5100 C   0  0  0  0  0  0  0  0  0  0  0  0
   39.2450   24.7110   41.8110 C   0  0  0  0  0  0  0  0  0  0  0  0
   38.2740   24.3210   40.8680 N   0  0  0  0  0  0  0  0  0  0  0  0
   37.1950   25.0370   40.6230 C   0  0  0  0  0  0  0  0  0  0  0  0
   36.9800   26.2180   41.2990 N   0  0  0  0  0  0  0  0  0  0  0  0
   40.0950   24.0560   41.9400 H   0  0  0  0  0  0  0  0  0  0  0  0
   36.5330   24.6150   39.8740 H   0  0  0  0  0  0  0  0  0  0  0  0
   39.9820   26.2160   43.5410 C   0  0  0  0  0  0  0  0  0  0  0  0
   41.2790   25.8260   43.6800 C   0  0  0  0  0  0  0  0  0  0  0  0
   41.1410   27.2340   43.1690 C   0  0  0  0  0  0  0  0  0  0  0  0
   39.5010   26.4050   44.5190 H   0  0  0  0  0  0  0  0  0  0  0  0
   41.7450   25.1360   42.9140 H   0  0  0  0  0  0  0  0  0  0  0  0
   41.9090   25.7880   44.5970 H   0  0  0  0  0  0  0  0  0  0  0  0
   41.2230   28.1000   43.8600 H   0  0  0  0  0  0  0  0  0  0  0  0
   41.2130   27.4230   42.0910 H   0  0  0  0  0  0  0  0  0  0  0  0
  2  1  1  0  0  0  0
  2  3  1  0  0  0  0
  3 21  1  0  0  0  0
  4  8  1  0  0  0  0
  4  3  2  0  0  0  0
  5  4  1  0  0  0  0
  6  7  1  0  0  0  0
  6  5  2  0  0  0  0
  7  2  2  0  0  0  0
  9  5  1  0  0  0  0
 10  6  1  0  0  0  0
 11 18  1  0  0  0  0
 11  7  1  0  0  0  0
 12 11  1  0  0  0  0
 13 12  2  0  0  0  0
 13 15  1  0  0  0  0
 14 13  1  0  0  0  0
 15 17  1  0  0  0  0
 16 15  2  0  0  0  0
 17 20  1  0  0  0  0
 17 18  1  0  0  0  0
 18 19  2  0  0  0  0
 21 22  2  0  0  0  0
 23 24  1  0  0  0  0
 23 21  1  0  0  0  0
 24 31  1  0  0  0  0
 25 29  1  0  0  0  0
 25 24  2  0  0  0  0
 26 25  1  0  0  0  0
 27 26  2  0  0  0  0
 27 28  1  0  0  0  0
 28 23  2  0  0  0  0
 30 27  1  0  0  0  0
 31 32  1  0  0  0  0
 31 34  1  0  0  0  0
 32 36  1  0  0  0  0
 33 31  1  0  0  0  0
 33 32  1  0  0  0  0
 33 37  1  0  0  0  0
 35 32  1  0  0  0  0
 38 33  1  0  0  0  0
M  END
>  <minimizedAffinity>
-6.03859138

$$$$

 OpenBabel03242523213D

 38 41  0  0  0  0  0  0  0  0999 V2000
   38.7660   29.7610   42.7060 Cl  0  0  0  0  0  0  0  0  0  0  0  0
   37.7460   29.2960   41.3420 C   0  0  0  0  0  0  0  0  0  0  0  0
   37.0180   28.1000   41.5080 C   0  0  0  0  0  0  0  0  0  0  0  0
   36.2530   27.8430   40.3820 C   0  0  0  0  0  0  0  0  0  0  0  0
   36.1280   28.5380   39.2440 C   0  0  0  0  0  0  0  0  0  0  0  0
   36.8670   29.6840   39.1660 C   0  0  0  0  0  0  0  0  0  0  0  0
   37.6700   30.0790   40.1800 C   0  0  0  0  0  0  0  0  0  0  0  0
   35.6430   26.9160   40.3330 H   0  0  0  0  0  0  0  0  0  0  0  0
   35.5120   28.2890   38.3970 H   0  0  0  0  0  0  0  0  0  0  0  0
   36.8980   30.3740   38.3310 H   0  0  0  0  0  0  0  0  0  0  0  0
   38.4990   31.2610   40.2210 N   0  0  0  0  0  0  0  0  0  0  0  0
   38.1720   32.4820   40.6830 C   0  0  0  0  0  3  0  0  0  0  0  0
   39.1260   33.4770   40.6280 C   0  0  0  0  0  0  0  0  0  0  0  0
   38.8210   34.4430   41.0090 H   0  0  0  0  0  0  0  0  0  0  0  0
   40.3840   33.2380   40.1140 C   0  0  0  0  0  0  0  0  0  0  0  0
   41.2390   34.1600   40.0720 O   0  0  0  0  0  0  0  0  0  0  0  0
   40.6820   32.0060   39.6600 N   0  0  0  0  0  0  0  0  0  0  0  0
   39.7290   31.0340   39.7220 C   0  0  0  0  0  0  0  0  0  0  0  0
   40.1420   29.9180   39.2590 O   0  0  0  0  0  0  0  0  0  0  0  0
   41.6410   31.8470   39.2750 H   0  0  0  0  0  0  0  0  0  0  0  0
   37.0240   27.2170   42.7050 C   0  0  0  0  0  0  0  0  0  0  0  0
   36.0660   27.6880   43.2650 O   0  0  0  0  0  0  0  0  0  0  0  0
   38.1430   26.2740   42.5840 C   0  0  0  0  0  0  0  0  0  0  0  0
   38.2190   25.2320   41.7450 C   0  0  0  0  0  0  0  0  0  0  0  0
   39.3460   24.4460   41.9040 C   0  0  0  0  0  0  0  0  0  0  0  0
   40.2850   24.7940   42.8930 N   0  0  0  0  0  0  0  0  0  0  0  0
   40.1360   25.8410   43.6780 C   0  0  0  0  0  0  0  0  0  0  0  0
   39.0260   26.6480   43.5510 N   0  0  0  0  0  0  0  0  0  0  0  0
   39.5590   23.5670   41.3120 H   0  0  0  0  0  0  0  0  0  0  0  0
   40.9390   25.9900   44.3930 H   0  0  0  0  0  0  0  0  0  0  0  0
   37.3380   24.9450   40.6710 C   0  0  0  0  0  0  0  0  0  0  0  0
   37.3170   23.8560   39.8550 C   0  0  0  0  0  0  0  0  0  0  0  0
   36.2540   23.8130   40.9190 C   0  0  0  0  0  0  0  0  0  0  0  0
   36.9510   25.8490   40.1640 H   0  0  0  0  0  0  0  0  0  0  0  0
   38.0870   23.0380   39.9860 H   0  0  0  0  0  0  0  0  0  0  0  0
   36.8760   23.7460   38.8390 H   0  0  0  0  0  0  0  0  0  0  0  0
   35.2120   24.1260   40.6950 H   0  0  0  0  0  0  0  0  0  0  0  0
   36.4370   23.2410   41.8360 H   0  0  0  0  0  0  0  0  0  0  0  0
  2  3  1  0  0  0  0
  2  1  1  0  0  0  0
  3 21  1  0  0  0  0
  4  3  2  0  0  0  0
  5  4  1  0  0  0  0
  6  5  2  0  0  0  0
  6  7  1  0  0  0  0
  7 11  1  0  0  0  0
  7  2  2  0  0  0  0
  8  4  1  0  0  0  0
  9  5  1  0  0  0  0
 10  6  1  0  0  0  0
 11 12  1  0  0  0  0
 13 12  2  0  0  0  0
 13 14  1  0  0  0  0
 15 13  1  0  0  0  0
 16 15  2  0  0  0  0
 17 18  1  0  0  0  0
 17 15  1  0  0  0  0
 18 11  1  0  0  0  0
 19 18  2  0  0  0  0
 20 17  1  0  0  0  0
 21 22  2  0  0  0  0
 23 21  1  0  0  0  0
 23 28  1  0  0  0  0
 24 25  1  0  0  0  0
 24 23  2  0  0  0  0
 25 26  2  0  0  0  0
 26 27  1  0  0  0  0
 27 30  1  0  0  0  0
 28 27  2  0  0  0  0
 29 25  1  0  0  0  0
 31 33  1  0  0  0  0
 31 24  1  0  0  0  0
 32 35  1  0  0  0  0
 32 31  1  0  0  0  0
 32 33  1  0  0  0  0
 33 38  1  0  0  0  0
 34 31  1  0  0  0  0
 36 32  1  0  0  0  0
 37 33  1  0  0  0  0
M  END
>  <minimizedAffinity>
-5.92499208

$$$$

 OpenBabel03242523213D

 38 41  0  0  0  0  0  0  0  0999 V2000
   39.3370   28.7570   39.5070 Cl  0  0  0  0  0  0  0  0  0  0  0  0
   38.7700   28.3210   41.1210 C   0  0  0  0  0  0  0  0  0  0  0  0
   38.9090   26.9620   41.4670 C   0  0  0  0  0  0  0  0  0  0  0  0
   38.4380   26.7420   42.7520 C   0  0  0  0  0  0  0  0  0  0  0  0
   37.9110   27.5970   43.6370 C   0  0  0  0  0  0  0  0  0  0  0  0
   37.8130   28.8940   43.2230 C   0  0  0  0  0  0  0  0  0  0  0  0
   38.2260   29.2770   41.9920 C   0  0  0  0  0  0  0  0  0  0  0  0
   38.4420   25.7130   43.1690 H   0  0  0  0  0  0  0  0  0  0  0  0
   37.5620   27.3690   44.6300 H   0  0  0  0  0  0  0  0  0  0  0  0
   37.4160   29.7250   43.7940 H   0  0  0  0  0  0  0  0  0  0  0  0
   38.1750   30.6090   41.4350 N   0  0  0  0  0  0  0  0  0  0  0  0
   39.1770   31.5040   41.3460 C   0  0  0  0  0  3  0  0  0  0  0  0
   38.9070   32.7290   40.7710 C   0  0  0  0  0  0  0  0  0  0  0  0
   39.7400   33.4180   40.7200 H   0  0  0  0  0  0  0  0  0  0  0  0
   37.6480   33.0370   40.2980 C   0  0  0  0  0  0  0  0  0  0  0  0
   37.4240   34.1610   39.7770 O   0  0  0  0  0  0  0  0  0  0  0  0
   36.6680   32.1210   40.4000 N   0  0  0  0  0  0  0  0  0  0  0  0
   36.9500   30.9170   40.9700 C   0  0  0  0  0  0  0  0  0  0  0  0
   35.9330   30.1440   41.0040 O   0  0  0  0  0  0  0  0  0  0  0  0
   35.7210   32.3760   40.0340 H   0  0  0  0  0  0  0  0  0  0  0  0
   39.4850   25.8850   40.6180 C   0  0  0  0  0  0  0  0  0  0  0  0
   40.6270   26.2710   40.6090 O   0  0  0  0  0  0  0  0  0  0  0  0
   38.4100   24.9540   40.2510 C   0  0  0  0  0  0  0  0  0  0  0  0
   37.3770   25.2130   39.4380 C   0  0  0  0  0  0  0  0  0  0  0  0
   36.4530   24.1890   39.3370 C   0  0  0  0  0  0  0  0  0  0  0  0
   36.6680   23.0030   40.0660 N   0  0  0  0  0  0  0  0  0  0  0  0
   37.7170   22.8280   40.8440 C   0  0  0  0  0  0  0  0  0  0  0  0
   38.6580   23.8260   40.9710 N   0  0  0  0  0  0  0  0  0  0  0  0
   35.5620   24.2350   38.7270 H   0  0  0  0  0  0  0  0  0  0  0  0
   37.7550   21.8660   41.3440 H   0  0  0  0  0  0  0  0  0  0  0  0
   37.2160   26.3550   38.6110 C   0  0  0  0  0  0  0  0  0  0  0  0
   36.2650   26.5950   37.6670 C   0  0  0  0  0  0  0  0  0  0  0  0
   36.0090   27.3240   38.9580 C   0  0  0  0  0  0  0  0  0  0  0  0
   38.1670   26.8700   38.3790 H   0  0  0  0  0  0  0  0  0  0  0  0
   35.4740   25.8160   37.4520 H   0  0  0  0  0  0  0  0  0  0  0  0
   36.2910   27.2980   36.8040 H   0  0  0  0  0  0  0  0  0  0  0  0
   36.3020   28.3880   39.0780 H   0  0  0  0  0  0  0  0  0  0  0  0
   35.3120   26.8940   39.6880 H   0  0  0  0  0  0  0  0  0  0  0  0
  1  2  1  0  0  0  0
  2  3  2  0  0  0  0
  2  7  1  0  0  0  0
  3  4  1  0  0  0  0
  4  8  1  0  0  0  0
  4  5  2  0  0  0  0
  5  9  1  0  0  0  0
  6  5  1  0  0  0  0
  6 10  1  0  0  0  0
  7  6  2  0  0  0  0
 11  7  1  0  0  0  0
 12 11  1  0  0  0  0
 13 12  2  0  0  0  0
 14 13  1  0  0  0  0
 15 17  1  0  0  0  0
 15 13  1  0  0  0  0
 16 15  2  0  0  0  0
 17 18  1  0  0  0  0
 18 19  2  0  0  0  0
 18 11  1  0  0  0  0
 20 17  1  0  0  0  0
 21  3  1  0  0  0  0
 22 21  2  0  0  0  0
 23 21  1  0  0  0  0
 23 28  1  0  0  0  0
 24 23  2  0  0  0  0
 25 24  1  0  0  0  0
 25 26  2  0  0  0  0
 26 27  1  0  0  0  0
 27 28  2  0  0  0  0
 27 30  1  0  0  0  0
 29 25  1  0  0  0  0
 31 33  1  0  0  0  0
 31 24  1  0  0  0  0
 32 31  1  0  0  0  0
 32 33  1  0  0  0  0
 33 37  1  0  0  0  0
 33 38  1  0  0  0  0
 34 31  1  0  0  0  0
 35 32  1  0  0  0  0
 36 32  1  0  0  0  0
M  END
>  <minimizedAffinity>
-5.88366842

$$$$

 OpenBabel03242523213D

 38 41  0  0  0  0  0  0  0  0999 V2000
   36.6220   26.9630   39.2720 Cl  0  0  0  0  0  0  0  0  0  0  0  0
   36.7030   28.6030   39.9230 C   0  0  0  0  0  0  0  0  0  0  0  0
   36.9950   28.6960   41.2990 C   0  0  0  0  0  0  0  0  0  0  0  0
   37.0380   30.0240   41.6910 C   0  0  0  0  0  0  0  0  0  0  0  0
   36.8540   31.1430   40.9800 C   0  0  0  0  0  0  0  0  0  0  0  0
   36.5760   30.9630   39.6550 C   0  0  0  0  0  0  0  0  0  0  0  0
   36.4950   29.7270   39.1100 C   0  0  0  0  0  0  0  0  0  0  0  0
   37.2230   30.2740   42.7580 H   0  0  0  0  0  0  0  0  0  0  0  0
   36.9020   32.1560   41.3410 H   0  0  0  0  0  0  0  0  0  0  0  0
   36.3970   31.7420   38.9230 H   0  0  0  0  0  0  0  0  0  0  0  0
   36.2070   29.4040   37.7320 N   0  0  0  0  0  0  0  0  0  0  0  0
   35.0170   29.0800   37.1930 C   0  0  0  0  0  3  0  0  0  0  0  0
   34.9680   28.8070   35.8410 C   0  0  0  0  0  0  0  0  0  0  0  0
   33.9920   28.5500   35.4480 H   0  0  0  0  0  0  0  0  0  0  0  0
   36.1010   28.8600   35.0560 C   0  0  0  0  0  0  0  0  0  0  0  0
   36.0330   28.6070   33.8250 O   0  0  0  0  0  0  0  0  0  0  0  0
   37.2760   29.1880   35.6240 N   0  0  0  0  0  0  0  0  0  0  0  0
   37.3080   29.4550   36.9600 C   0  0  0  0  0  0  0  0  0  0  0  0
   38.4830   29.7510   37.3680 O   0  0  0  0  0  0  0  0  0  0  0  0
   38.1220   29.2230   35.0100 H   0  0  0  0  0  0  0  0  0  0  0  0
   37.2450   27.5640   42.2310 C   0  0  0  0  0  0  0  0  0  0  0  0
   36.2190   27.6370   42.8600 O   0  0  0  0  0  0  0  0  0  0  0  0
   38.5510   26.9750   41.9120 C   0  0  0  0  0  0  0  0  0  0  0  0
   38.8770   25.6770   41.9810 C   0  0  0  0  0  0  0  0  0  0  0  0
   40.2060   25.4020   41.7180 C   0  0  0  0  0  0  0  0  0  0  0  0
   41.0740   26.4670   41.4090 N   0  0  0  0  0  0  0  0  0  0  0  0
   40.6700   27.7210   41.3600 C   0  0  0  0  0  0  0  0  0  0  0  0
   39.3540   28.0340   41.6170 N   0  0  0  0  0  0  0  0  0  0  0  0
   40.6340   24.4100   41.7340 H   0  0  0  0  0  0  0  0  0  0  0  0
   41.4460   28.4370   41.1070 H   0  0  0  0  0  0  0  0  0  0  0  0
   37.9850   24.5900   42.1750 C   0  0  0  0  0  0  0  0  0  0  0  0
   36.7740   24.3690   41.5950 C   0  0  0  0  0  0  0  0  0  0  0  0
   37.8740   23.5370   40.9930 C   0  0  0  0  0  0  0  0  0  0  0  0
   38.0480   24.1430   43.1850 H   0  0  0  0  0  0  0  0  0  0  0  0
   36.3550   25.1200   40.8610 H   0  0  0  0  0  0  0  0  0  0  0  0
   35.9310   23.7320   41.9450 H   0  0  0  0  0  0  0  0  0  0  0  0
   38.0280   22.4840   41.3090 H   0  0  0  0  0  0  0  0  0  0  0  0
   38.3600   23.8780   40.0720 H   0  0  0  0  0  0  0  0  0  0  0  0
  1  2  1  0  0  0  0
  2  3  1  0  0  0  0
  3  4  2  0  0  0  0
  3 21  1  0  0  0  0
  4  8  1  0  0  0  0
  5  9  1  0  0  0  0
  5  4  1  0  0  0  0
  6  5  2  0  0  0  0
  7  6  1  0  0  0  0
  7  2  2  0  0  0  0
 10  6  1  0  0  0  0
 11  7  1  0  0  0  0
 12 11  1  0  0  0  0
 13 12  2  0  0  0  0
 14 13  1  0  0  0  0
 15 17  1  0  0  0  0
 15 13  1  0  0  0  0
 16 15  2  0  0  0  0
 17 18  1  0  0  0  0
 18 19  2  0  0  0  0
 18 11  1  0  0  0  0
 20 17  1  0  0  0  0
 21 22  2  0  0  0  0
 23 24  1  0  0  0  0
 23 21  1  0  0  0  0
 24 31  1  0  0  0  0
 25 29  1  0  0  0  0
 25 24  2  0  0  0  0
 26 25  1  0  0  0  0
 27 26  2  0  0  0  0
 27 28  1  0  0  0  0
 28 23  2  0  0  0  0
 30 27  1  0  0  0  0
 31 34  1  0  0  0  0
 32 36  1  0  0  0  0
 32 31  1  0  0  0  0
 33 37  1  0  0  0  0
 33 32  1  0  0  0  0
 33 31  1  0  0  0  0
 35 32  1  0  0  0  0
 38 33  1  0  0  0  0
M  END
>  <minimizedAffinity>
-5.72663689

$$$$

 OpenBabel03242523213D

 38 41  0  0  0  0  0  0  0  0999 V2000
   38.6640   28.5130   39.5180 Cl  0  0  0  0  0  0  0  0  0  0  0  0
   38.0770   28.1580   41.1450 C   0  0  0  0  0  0  0  0  0  0  0  0
   37.9390   26.7900   41.4550 C   0  0  0  0  0  0  0  0  0  0  0  0
   37.4800   26.6360   42.7540 C   0  0  0  0  0  0  0  0  0  0  0  0
   37.1800   27.5550   43.6800 C   0  0  0  0  0  0  0  0  0  0  0  0
   37.3430   28.8550   43.2980 C   0  0  0  0  0  0  0  0  0  0  0  0
   37.7810   29.1800   42.0600 C   0  0  0  0  0  0  0  0  0  0  0  0
   37.2820   25.6160   43.1480 H   0  0  0  0  0  0  0  0  0  0  0  0
   36.8270   27.3750   44.6810 H   0  0  0  0  0  0  0  0  0  0  0  0
   37.1520   29.7330   43.9040 H   0  0  0  0  0  0  0  0  0  0  0  0
   37.9920   30.5090   41.5340 N   0  0  0  0  0  0  0  0  0  0  0  0
   39.1340   31.2210   41.5290 C   0  0  0  0  0  3  0  0  0  0  0  0
   39.1130   32.4820   40.9690 C   0  0  0  0  0  0  0  0  0  0  0  0
   40.0530   33.0200   40.9860 H   0  0  0  0  0  0  0  0  0  0  0  0
   37.9580   33.0080   40.4290 C   0  0  0  0  0  0  0  0  0  0  0  0
   37.9610   34.1610   39.9240 O   0  0  0  0  0  0  0  0  0  0  0  0
   36.8320   32.2710   40.4480 N   0  0  0  0  0  0  0  0  0  0  0  0
   36.8690   31.0280   41.0040 C   0  0  0  0  0  0  0  0  0  0  0  0
   35.7360   30.4400   40.9570 O   0  0  0  0  0  0  0  0  0  0  0  0
   35.9680   32.6900   40.0320 H   0  0  0  0  0  0  0  0  0  0  0  0
   38.2410   25.6420   40.5590 C   0  0  0  0  0  0  0  0  0  0  0  0
   37.1070   25.2960   40.3420 O   0  0  0  0  0  0  0  0  0  0  0  0
   39.6980   25.5350   40.4120 C   0  0  0  0  0  0  0  0  0  0  0  0
   40.3760   25.4110   39.2630 C   0  0  0  0  0  0  0  0  0  0  0  0
   41.7390   25.2320   39.4140 C   0  0  0  0  0  0  0  0  0  0  0  0
   42.2820   25.2000   40.7130 N   0  0  0  0  0  0  0  0  0  0  0  0
   41.5420   25.3330   41.7950 C   0  0  0  0  0  0  0  0  0  0  0  0
   40.1810   25.5120   41.6850 N   0  0  0  0  0  0  0  0  0  0  0  0
   42.4290   25.1130   38.5910 H   0  0  0  0  0  0  0  0  0  0  0  0
   42.0940   25.2910   42.7290 H   0  0  0  0  0  0  0  0  0  0  0  0
   39.8530   25.5610   37.9530 C   0  0  0  0  0  0  0  0  0  0  0  0
   40.3830   25.1420   36.7710 C   0  0  0  0  0  0  0  0  0  0  0  0
   39.2710   24.2560   37.2620 C   0  0  0  0  0  0  0  0  0  0  0  0
   39.2270   26.4650   37.8270 H   0  0  0  0  0  0  0  0  0  0  0  0
   41.3810   24.6100   36.7580 H   0  0  0  0  0  0  0  0  0  0  0  0
   40.1830   25.5090   35.7390 H   0  0  0  0  0  0  0  0  0  0  0  0
   38.2380   24.3720   36.8720 H   0  0  0  0  0  0  0  0  0  0  0  0
   39.5190   23.3380   37.8080 H   0  0  0  0  0  0  0  0  0  0  0  0
  1  2  1  0  0  0  0
  2  3  2  0  0  0  0
  2  7  1  0  0  0  0
  3  4  1  0  0  0  0
  4  8  1  0  0  0  0
  4  5  2  0  0  0  0
  5  9  1  0  0  0  0
  6  5  1  0  0  0  0
  6 10  1  0  0  0  0
  7  6  2  0  0  0  0
 11  7  1  0  0  0  0
 12 11  1  0  0  0  0
 13 14  1  0  0  0  0
 13 12  2  0  0  0  0
 15 17  1  0  0  0  0
 15 13  1  0  0  0  0
 16 15  2  0  0  0  0
 17 18  1  0  0  0  0
 18 11  1  0  0  0  0
 19 18  2  0  0  0  0
 20 17  1  0  0  0  0
 21  3  1  0  0  0  0
 22 21  2  0  0  0  0
 23 21  1  0  0  0  0
 23 28  1  0  0  0  0
 24 25  1  0  0  0  0
 24 23  2  0  0  0  0
 25 26  2  0  0  0  0
 26 27  1  0  0  0  0
 27 30  1  0  0  0  0
 28 27  2  0  0  0  0
 29 25  1  0  0  0  0
 31 24  1  0  0  0  0
 32 33  1  0  0  0  0
 32 31  1  0  0  0  0
 33 38  1  0  0  0  0
 33 31  1  0  0  0  0
 34 31  1  0  0  0  0
 35 32  1  0  0  0  0
 36 32  1  0  0  0  0
 37 33  1  0  0  0  0
M  END
>  <minimizedAffinity>
-5.71104193

$$$$

 OpenBabel03242523213D

 38 41  0  0  0  0  0  0  0  0999 V2000
   39.6190   28.8300   39.7480 Cl  0  0  0  0  0  0  0  0  0  0  0  0
   37.8870   29.0950   39.9620 C   0  0  0  0  0  0  0  0  0  0  0  0
   37.3040   30.0330   39.0850 C   0  0  0  0  0  0  0  0  0  0  0  0
   35.9470   30.1510   39.3430 C   0  0  0  0  0  0  0  0  0  0  0  0
   35.1810   29.5300   40.2480 C   0  0  0  0  0  0  0  0  0  0  0  0
   35.8240   28.6380   41.0560 C   0  0  0  0  0  0  0  0  0  0  0  0
   37.1520   28.4050   40.9380 C   0  0  0  0  0  0  0  0  0  0  0  0
   35.3410   30.8790   38.7620 H   0  0  0  0  0  0  0  0  0  0  0  0
   34.1240   29.6620   40.4010 H   0  0  0  0  0  0  0  0  0  0  0  0
   35.3770   28.0420   41.8430 H   0  0  0  0  0  0  0  0  0  0  0  0
   37.9470   27.4930   41.7270 N   0  0  0  0  0  0  0  0  0  0  0  0
   38.6770   27.7730   42.8220 C   0  0  0  0  0  3  0  0  0  0  0  0
   39.3650   26.7410   43.4270 C   0  0  0  0  0  0  0  0  0  0  0  0
   39.9400   27.0090   44.3050 H   0  0  0  0  0  0  0  0  0  0  0  0
   39.3130   25.4550   42.9300 C   0  0  0  0  0  0  0  0  0  0  0  0
   39.9490   24.5290   43.4980 O   0  0  0  0  0  0  0  0  0  0  0  0
   38.5730   25.2070   41.8340 N   0  0  0  0  0  0  0  0  0  0  0  0
   37.9000   26.2360   41.2480 C   0  0  0  0  0  0  0  0  0  0  0  0
   37.2410   25.8630   40.2190 O   0  0  0  0  0  0  0  0  0  0  0  0
   38.5480   24.2250   41.4740 H   0  0  0  0  0  0  0  0  0  0  0  0
   37.9970   30.7980   38.0150 C   0  0  0  0  0  0  0  0  0  0  0  0
   37.6490   30.1270   37.0770 O   0  0  0  0  0  0  0  0  0  0  0  0
   38.7130   31.9220   38.6330 C   0  0  0  0  0  0  0  0  0  0  0  0
   39.9800   32.2860   38.3950 C   0  0  0  0  0  0  0  0  0  0  0  0
   40.4390   33.3250   39.1850 C   0  0  0  0  0  0  0  0  0  0  0  0
   39.5690   33.8940   40.1350 N   0  0  0  0  0  0  0  0  0  0  0  0
   38.3310   33.4760   40.3040 C   0  0  0  0  0  0  0  0  0  0  0  0
   37.8390   32.4430   39.5370 N   0  0  0  0  0  0  0  0  0  0  0  0
   41.4360   33.7370   39.1230 H   0  0  0  0  0  0  0  0  0  0  0  0
   37.7740   34.0070   41.0690 H   0  0  0  0  0  0  0  0  0  0  0  0
   40.8210   31.7980   37.3620 C   0  0  0  0  0  0  0  0  0  0  0  0
   42.1420   32.0450   37.1510 C   0  0  0  0  0  0  0  0  0  0  0  0
   41.8880   30.6970   37.7690 C   0  0  0  0  0  0  0  0  0  0  0  0
   40.2840   31.5900   36.4170 H   0  0  0  0  0  0  0  0  0  0  0  0
   42.7050   32.7360   37.8480 H   0  0  0  0  0  0  0  0  0  0  0  0
   42.7360   31.9550   36.2130 H   0  0  0  0  0  0  0  0  0  0  0  0
   41.8570   29.7810   37.1420 H   0  0  0  0  0  0  0  0  0  0  0  0
   41.9850   30.5780   38.8550 H   0  0  0  0  0  0  0  0  0  0  0  0
  1  2  1  0  0  0  0
  2  7  1  0  0  0  0
  3  4  1  0  0  0  0
  3  2  2  0  0  0  0
  4  5  2  0  0  0  0
  5  9  1  0  0  0  0
  5  6  1  0  0  0  0
  6 10  1  0  0  0  0
  7  6  2  0  0  0  0
  7 11  1  0  0  0  0
  8  4  1  0  0  0  0
 11 12  1  0  0  0  0
 12 13  2  0  0  0  0
 13 14  1  0  0  0  0
 15 13  1  0  0  0  0
 15 16  2  0  0  0  0
 17 15  1  0  0  0  0
 18 11  1  0  0  0  0
 18 17  1  0  0  0  0
 19 18  2  0  0  0  0
 20 17  1  0  0  0  0
 21 23  1  0  0  0  0
 21  3  1  0  0  0  0
 22 21  2  0  0  0  0
 23 28  1  0  0  0  0
 24 23  2  0  0  0  0
 24 25  1  0  0  0  0
 25 26  2  0  0  0  0
 26 27  1  0  0  0  0
 27 30  1  0  0  0  0
 28 27  2  0  0  0  0
 29 25  1  0  0  0  0
 31 33  1  0  0  0  0
 31 24  1  0  0  0  0
 32 31  1  0  0  0  0
 32 33  1  0  0  0  0
 32 35  1  0  0  0  0
 33 38  1  0  0  0  0
 34 31  1  0  0  0  0
 36 32  1  0  0  0  0
 37 33  1  0  0  0  0
M  END
>  <minimizedAffinity>
-5.68416309

$$$$
