
 OpenBabel03252507043D

 48 51  0  0  0  0  0  0  0  0999 V2000
   41.9360   34.0960   40.9960 C   0  0  0  0  0  0  0  0  0  0  0  0
   41.6040   34.0990   42.0560 H   0  0  0  0  0  0  0  0  0  0  0  0
   42.2120   35.1910   40.8090 H   0  0  0  0  0  0  0  0  0  0  0  0
   41.0070   33.6310   40.1540 N   0  0  0  0  0  0  0  0  0  0  0  0
   40.3720   32.3510   40.1860 C   0  0  0  0  0  0  0  0  0  0  0  0
   39.0080   32.7750   40.7120 C   0  0  0  0  0  0  0  0  0  0  0  0
   38.3140   33.7350   39.8730 C   0  0  0  0  0  0  0  0  0  0  0  0
   39.0860   34.5730   38.9830 C   0  0  0  0  0  0  0  0  0  0  0  0
   40.5930   34.5830   39.0980 C   0  0  0  0  0  0  0  0  0  0  0  0
   40.3550   31.7470   39.2960 H   0  0  0  0  0  0  0  0  0  0  0  0
   40.8260   31.7410   40.9980 H   0  0  0  0  0  0  0  0  0  0  0  0
   38.4270   31.8250   40.8700 H   0  0  0  0  0  0  0  0  0  0  0  0
   39.1780   33.1640   41.7370 H   0  0  0  0  0  0  0  0  0  0  0  0
   37.6860   34.3950   40.5270 H   0  0  0  0  0  0  0  0  0  0  0  0
   37.5670   33.1780   39.2330 H   0  0  0  0  0  0  0  0  0  0  0  0
   38.6960   35.2120   38.2550 H   0  0  0  0  0  0  0  0  0  0  0  0
   41.6450   35.5320   38.1220 S   0  0  0  0  0  0  0  0  0  0  0  0
   39.8230   39.8430   38.6050 H   0  0  0  0  0  0  0  0  0  0  0  0
   40.1650   39.0860   37.9740 N   0  0  0  0  0  0  0  0  0  0  0  0
   40.6820   37.8660   38.3040 C   0  0  0  0  0  3  0  0  0  0  0  0
   41.1000   36.9540   37.3170 C   0  0  0  0  0  0  0  0  0  0  0  0
   40.9340   37.4090   36.0350 C   0  0  0  0  0  0  0  0  0  0  0  0
   41.2990   36.5910   35.1650 O   0  0  0  0  0  0  0  0  0  0  0  0
   40.4320   38.5970   35.6720 N   0  0  0  0  0  0  0  0  0  0  0  0
   40.0610   39.4040   36.6740 C   0  0  0  0  0  0  0  0  0  0  0  0
   39.5950   40.5090   36.2790 O   0  0  0  0  0  0  0  0  0  0  0  0
   40.3780   38.7830   34.6500 H   0  0  0  0  0  0  0  0  0  0  0  0
   43.2370   33.3820   40.9140 C   0  0  0  0  0  0  0  0  0  0  0  0
   43.1970   32.3250   41.2460 H   0  0  0  0  0  0  0  0  0  0  0  0
   43.5120   33.3260   39.8250 H   0  0  0  0  0  0  0  0  0  0  0  0
   44.2520   34.1800   41.6250 C   0  0  0  0  0  0  0  0  0  0  0  0
   43.8860   35.3220   42.3060 C   0  0  0  0  0  0  0  0  0  0  0  0
   44.8780   36.0500   42.9510 C   0  0  0  0  0  0  0  0  0  0  0  0
   46.1650   35.5910   42.8780 N   0  0  0  0  0  0  0  0  0  0  0  0
   46.4750   34.4830   42.2130 C   0  0  0  0  0  0  0  0  0  0  0  0
   45.5080   33.7950   41.5960 N   0  0  0  0  0  0  0  0  0  0  0  0
   42.9520   35.8260   42.4900 H   0  0  0  0  0  0  0  0  0  0  0  0
   44.7800   36.9710   43.5320 H   0  0  0  0  0  0  0  0  0  0  0  0
   47.8710   34.0520   42.2170 C   0  0  0  0  0  0  0  0  0  0  0  0
   48.1960   32.7180   41.9890 C   0  0  0  0  0  0  0  0  0  0  0  0
   49.5190   32.3200   42.0100 C   0  0  0  0  0  0  0  0  0  0  0  0
   50.4190   33.3300   42.2660 C   0  0  0  0  0  0  0  0  0  0  0  0
   50.1410   34.6660   42.4980 C   0  0  0  0  0  0  0  0  0  0  0  0
   48.8210   34.9790   42.4610 N   0  0  0  0  0  0  0  0  0  0  0  0
   47.4330   31.9670   41.7910 H   0  0  0  0  0  0  0  0  0  0  0  0
   49.8620   31.3110   41.8460 H   0  0  0  0  0  0  0  0  0  0  0  0
   51.4760   33.0570   42.2930 H   0  0  0  0  0  0  0  0  0  0  0  0
   50.9190   35.3880   42.6900 H   0  0  0  0  0  0  0  0  0  0  0  0
  1  2  1  0  0  0  0
  3  1  1  0  0  0  0
  4  5  1  0  0  0  0
  4  1  1  0  0  0  0
  5  6  1  0  0  0  0
  5 11  1  0  0  0  0
  6 12  1  0  0  0  0
  6 13  1  0  0  0  0
  7 14  1  0  0  0  0
  7  6  1  0  0  0  0
  8  9  2  0  0  0  0
  8  7  1  0  0  0  0
  9  4  1  0  0  0  0
 10  5  1  0  0  0  0
 15  7  1  0  0  0  0
 16  8  1  0  0  0  0
 17  9  1  0  0  0  0
 19 20  1  0  0  0  0
 19 18  1  0  0  0  0
 21 17  1  0  0  0  0
 21 20  2  0  0  0  0
 22 21  1  0  0  0  0
 23 22  2  0  0  0  0
 24 22  1  0  0  0  0
 24 25  1  0  0  0  0
 25 19  1  0  0  0  0
 26 25  2  0  0  0  0
 27 24  1  0  0  0  0
 28  1  1  0  0  0  0
 28 29  1  0  0  0  0
 28 31  1  0  0  0  0
 30 28  1  0  0  0  0
 31 32  1  0  0  0  0
 32 37  1  0  0  0  0
 32 33  2  0  0  0  0
 33 38  1  0  0  0  0
 34 33  1  0  0  0  0
 35 39  1  0  0  0  0
 35 34  2  0  0  0  0
 36 31  2  0  0  0  0
 36 35  1  0  0  0  0
 39 44  1  0  0  0  0
 40 41  1  0  0  0  0
 40 39  2  0  0  0  0
 41 42  2  0  0  0  0
 42 47  1  0  0  0  0
 42 43  1  0  0  0  0
 43 48  1  0  0  0  0
 44 43  2  0  0  0  0
 45 40  1  0  0  0  0
 46 41  1  0  0  0  0
M  END
>  <minimizedAffinity>
-1.60537577

>  <minimizedRMSD>
0.29374969

$$$$
