
 OpenBabel03252507553D

 45 48  0  0  1  0  0  0  0  0999 V2000
   49.0140   32.2300   40.4660 C   0  0  2  0  0  0  0  0  0  0  0  0
   49.7950   31.5490   41.4870 C   0  0  0  0  0  0  0  0  0  0  0  0
   50.3970   31.8680   40.1550 C   0  0  1  0  0  0  0  0  0  0  0  0
   48.2150   31.6600   39.9560 H   0  0  0  0  0  0  0  0  0  0  0  0
   49.6530   30.4610   41.7370 H   0  0  0  0  0  0  0  0  0  0  0  0
   50.1270   32.1200   42.3690 H   0  0  0  0  0  0  0  0  0  0  0  0
   51.0430   32.7580   40.0020 H   0  0  0  0  0  0  0  0  0  0  0  0
   47.1120   34.8060   42.1160 C   0  0  2  0  0  0  0  0  0  0  0  0
   46.3170   34.3590   40.8860 C   0  0  0  0  0  0  0  0  0  0  0  0
   47.5120   34.1950   39.9190 C   0  0  0  0  0  0  0  0  0  0  0  0
   48.6220   33.6590   40.7680 C   0  0  1  0  0  0  0  0  0  0  0  0
   48.1130   33.6870   42.1800 C   0  0  0  0  0  0  0  0  0  0  0  0
   47.6060   35.7720   41.8930 H   0  0  0  0  0  0  0  0  0  0  0  0
   45.8880   33.3760   41.1060 H   0  0  0  0  0  0  0  0  0  0  0  0
   45.6270   35.1260   40.5310 H   0  0  0  0  0  0  0  0  0  0  0  0
   47.7960   35.2460   39.6460 H   0  0  0  0  0  0  0  0  0  0  0  0
   47.2370   33.5670   39.0670 H   0  0  0  0  0  0  0  0  0  0  0  0
   49.5410   34.2790   40.7290 H   0  0  0  0  0  0  0  0  0  0  0  0
   47.5910   32.7470   42.4440 H   0  0  0  0  0  0  0  0  0  0  0  0
   48.9200   33.9010   42.9080 H   0  0  0  0  0  0  0  0  0  0  0  0
   44.5370   35.7860   44.6840 C   0  0  0  0  0  0  0  0  0  0  0  0
   45.2670   35.8260   43.5010 C   0  0  0  0  0  0  0  0  0  0  0  0
   46.2460   34.8580   43.3260 C   0  0  0  0  0  0  0  0  0  0  0  0
   46.4710   33.8910   44.3150 N   0  0  0  0  0  0  0  0  0  0  0  0
   45.7260   33.9030   45.4530 C   0  0  0  0  0  0  0  0  0  0  0  0
   44.7660   34.8490   45.6290 N   0  0  0  0  0  0  0  0  0  0  0  0
   43.7590   36.5250   44.8640 H   0  0  0  0  0  0  0  0  0  0  0  0
   45.1020   36.5640   42.7340 H   0  0  0  0  0  0  0  0  0  0  0  0
   45.9330   33.1390   46.1900 H   0  0  0  0  0  0  0  0  0  0  0  0
   50.5990   30.7780   39.2680 O   0  0  0  0  0  0  0  0  0  0  0  0
   51.2130   30.4010   36.7620 O   0  0  0  0  0  0  0  0  0  0  0  0
   51.4230   31.3470   37.9190 P   0  0  1  0  0  0  0  0  0  0  0  0
   50.7950   32.8720   37.4460 O   0  0  0  0  0  0  0  0  0  0  0  0
   51.2390   33.5640   37.9760 H   0  0  0  0  0  0  0  0  0  0  0  0
   53.0530   31.5470   38.1500 O   0  0  0  0  0  0  0  0  0  0  0  0
   54.9390   28.9830   41.3520 H   0  0  0  0  0  0  0  0  0  0  0  0
   54.9920   29.3550   40.3820 N   0  0  0  0  0  0  0  0  0  0  0  0
   53.9940   30.1550   40.0170 C   0  0  0  0  0  3  0  0  0  0  0  0
   53.9620   30.7090   38.7440 C   0  0  0  0  0  0  0  0  0  0  0  0
   55.0110   30.3880   37.8810 C   0  0  0  0  0  0  0  0  0  0  0  0
   55.1890   30.7720   36.6890 O   0  0  0  0  0  0  0  0  0  0  0  0
   56.0130   29.5650   38.2950 N   0  0  0  0  0  0  0  0  0  0  0  0
   55.9900   29.0600   39.5380 C   0  0  0  0  0  0  0  0  0  0  0  0
   56.8930   28.2880   39.9820 O   0  0  0  0  0  0  0  0  0  0  0  0
   56.8290   29.2790   37.7130 H   0  0  0  0  0  0  0  0  0  0  0  0
  1  4  1  6  0  0  0
  1 11  1  0  0  0  0
  1  2  1  0  0  0  0
  2  5  1  0  0  0  0
  2  6  1  0  0  0  0
  3  7  1  6  0  0  0
  3  1  1  0  0  0  0
  3  2  1  0  0  0  0
  8 13  1  6  0  0  0
  8 12  1  0  0  0  0
  8 23  1  0  0  0  0
  9 14  1  0  0  0  0
  9  8  1  0  0  0  0
 10 11  1  0  0  0  0
 10  9  1  0  0  0  0
 11 18  1  6  0  0  0
 11 12  1  0  0  0  0
 12 19  1  0  0  0  0
 12 20  1  0  0  0  0
 15  9  1  0  0  0  0
 16 10  1  0  0  0  0
 17 10  1  0  0  0  0
 21 27  1  0  0  0  0
 21 26  1  0  0  0  0
 22 21  2  0  0  0  0
 23 22  1  0  0  0  0
 23 24  2  0  0  0  0
 24 25  1  0  0  0  0
 25 26  2  0  0  0  0
 25 29  1  0  0  0  0
 28 22  1  0  0  0  0
 30  3  1  0  0  0  0
 32 31  2  6  0  0  0
 32 35  1  0  0  0  0
 32 30  1  0  0  0  0
 33 32  1  0  0  0  0
 33 34  1  0  0  0  0
 35 39  1  0  0  0  0
 37 36  1  0  0  0  0
 38 37  1  0  0  0  0
 39 38  2  0  0  0  0
 40 42  1  0  0  0  0
 40 39  1  0  0  0  0
 41 40  2  0  0  0  0
 42 43  1  0  0  0  0
 43 44  2  0  0  0  0
 43 37  1  0  0  0  0
 45 42  1  0  0  0  0
M  END
>  <minimizedAffinity>
-5.45993757

>  <minimizedRMSD>
1.35051775

$$$$
