
 OpenBabel03252504283D

 23 24  0  0  0  0  0  0  0  0999 V2000
   38.5140   28.6830   43.0750 C   0  0  0  0  0  0  0  0  0  0  0  0
   39.4920   29.2010   42.9770 H   0  0  0  0  0  0  0  0  0  0  0  0
   38.1520   28.9730   44.1000 H   0  0  0  0  0  0  0  0  0  0  0  0
   37.9770   26.5250   42.1490 C   0  0  0  0  0  0  0  0  0  0  0  0
   38.7880   27.2470   42.9970 C   0  0  0  0  0  0  0  0  0  0  0  0
   39.7680   26.5540   43.6790 C   0  0  0  0  0  0  0  0  0  0  0  0
   39.8670   25.2210   43.4740 N   0  0  0  0  0  0  0  0  0  0  0  0
   39.0650   24.5400   42.6420 C   0  0  0  0  0  0  0  0  0  0  0  0
   38.0700   25.1790   41.9350 N   0  0  0  0  0  0  0  0  0  0  0  0
   37.1670   26.9790   41.5570 H   0  0  0  0  0  0  0  0  0  0  0  0
   40.3940   27.1320   44.3390 H   0  0  0  0  0  0  0  0  0  0  0  0
   39.3560   23.4920   42.6620 H   0  0  0  0  0  0  0  0  0  0  0  0
   37.6890   29.1600   42.0680 O   0  0  0  0  0  0  0  0  0  0  0  0
   39.9050   32.9500   41.0160 H   0  0  0  0  0  0  0  0  0  0  0  0
   39.0370   32.3520   41.0240 N   0  0  0  0  0  0  0  0  0  0  0  0
   39.0120   31.1390   41.5690 C   0  0  0  0  0  3  0  0  0  0  0  0
   37.8270   30.4310   41.5300 C   0  0  0  0  0  0  0  0  0  0  0  0
   36.7340   31.0350   40.9230 C   0  0  0  0  0  0  0  0  0  0  0  0
   35.6520   30.3860   40.8880 O   0  0  0  0  0  0  0  0  0  0  0  0
   36.7910   32.2700   40.3770 N   0  0  0  0  0  0  0  0  0  0  0  0
   37.9770   32.9350   40.4350 C   0  0  0  0  0  0  0  0  0  0  0  0
   37.9600   34.0780   39.9090 O   0  0  0  0  0  0  0  0  0  0  0  0
   35.9440   32.7010   39.9220 H   0  0  0  0  0  0  0  0  0  0  0  0
  1  3  1  0  0  0  0
  2  1  1  0  0  0  0
  4  5  1  0  0  0  0
  5  1  1  0  0  0  0
  5  6  2  0  0  0  0
  6 11  1  0  0  0  0
  7  6  1  0  0  0  0
  8 12  1  0  0  0  0
  8  7  2  0  0  0  0
  9  4  2  0  0  0  0
  9  8  1  0  0  0  0
 10  4  1  0  0  0  0
 13  1  1  0  0  0  0
 14 15  1  0  0  0  0
 15 16  1  0  0  0  0
 17 16  2  0  0  0  0
 17 13  1  0  0  0  0
 18 17  1  0  0  0  0
 19 18  2  0  0  0  0
 20 21  1  0  0  0  0
 20 18  1  0  0  0  0
 21 15  1  0  0  0  0
 22 21  2  0  0  0  0
 23 20  1  0  0  0  0
M  END
>  <minimizedAffinity>
-4.73328972

$$$$

 OpenBabel03252504283D

 23 24  0  0  0  0  0  0  0  0999 V2000
   37.5570   28.3590   42.9490 C   0  0  0  0  0  0  0  0  0  0  0  0
   38.1950   29.0090   43.5850 H   0  0  0  0  0  0  0  0  0  0  0  0
   36.5730   28.3250   43.4920 H   0  0  0  0  0  0  0  0  0  0  0  0
   39.3970   26.9400   43.5870 C   0  0  0  0  0  0  0  0  0  0  0  0
   38.1940   27.0400   42.9230 C   0  0  0  0  0  0  0  0  0  0  0  0
   37.7130   25.9010   42.3080 C   0  0  0  0  0  0  0  0  0  0  0  0
   38.4480   24.7700   42.3950 N   0  0  0  0  0  0  0  0  0  0  0  0
   39.6180   24.6980   43.0470 C   0  0  0  0  0  0  0  0  0  0  0  0
   40.1460   25.8020   43.6790 N   0  0  0  0  0  0  0  0  0  0  0  0
   39.8700   27.7850   44.1110 H   0  0  0  0  0  0  0  0  0  0  0  0
   36.7710   25.9950   41.7930 H   0  0  0  0  0  0  0  0  0  0  0  0
   39.9980   23.6820   42.9630 H   0  0  0  0  0  0  0  0  0  0  0  0
   37.4570   28.9650   41.7070 O   0  0  0  0  0  0  0  0  0  0  0  0
   40.3600   32.4210   41.7620 H   0  0  0  0  0  0  0  0  0  0  0  0
   39.4190   32.0010   41.5430 N   0  0  0  0  0  0  0  0  0  0  0  0
   39.1280   30.7300   41.8030 C   0  0  0  0  0  3  0  0  0  0  0  0
   37.8670   30.2710   41.4790 C   0  0  0  0  0  0  0  0  0  0  0  0
   36.9810   31.1700   40.9000 C   0  0  0  0  0  0  0  0  0  0  0  0
   35.8290   30.7490   40.6040 O   0  0  0  0  0  0  0  0  0  0  0  0
   37.3070   32.4570   40.6480 N   0  0  0  0  0  0  0  0  0  0  0  0
   38.5600   32.8710   40.9820 C   0  0  0  0  0  0  0  0  0  0  0  0
   38.7970   34.0790   40.7200 O   0  0  0  0  0  0  0  0  0  0  0  0
   36.6130   33.1160   40.2070 H   0  0  0  0  0  0  0  0  0  0  0  0
  1  3  1  0  0  0  0
  1  2  1  0  0  0  0
  4  9  1  0  0  0  0
  4 10  1  0  0  0  0
  5  1  1  0  0  0  0
  5  4  2  0  0  0  0
  6  7  2  0  0  0  0
  6  5  1  0  0  0  0
  7  8  1  0  0  0  0
  8  9  2  0  0  0  0
 11  6  1  0  0  0  0
 12  8  1  0  0  0  0
 13  1  1  0  0  0  0
 15 14  1  0  0  0  0
 15 16  1  0  0  0  0
 17 13  1  0  0  0  0
 17 16  2  0  0  0  0
 18 17  1  0  0  0  0
 19 18  2  0  0  0  0
 20 18  1  0  0  0  0
 20 21  1  0  0  0  0
 21 15  1  0  0  0  0
 22 21  2  0  0  0  0
 23 20  1  0  0  0  0
M  END
>  <minimizedAffinity>
-4.65759087

$$$$

 OpenBabel03252504283D

 23 24  0  0  0  0  0  0  0  0999 V2000
   36.9030   27.6010   42.1020 C   0  0  0  0  0  0  0  0  0  0  0  0
   35.9220   27.3620   42.5660 H   0  0  0  0  0  0  0  0  0  0  0  0
   36.6800   27.6570   41.0020 H   0  0  0  0  0  0  0  0  0  0  0  0
   38.8560   26.7670   43.2390 C   0  0  0  0  0  0  0  0  0  0  0  0
   37.7960   26.4810   42.4060 C   0  0  0  0  0  0  0  0  0  0  0  0
   37.6820   25.1840   41.9470 C   0  0  0  0  0  0  0  0  0  0  0  0
   38.6120   24.2850   42.3400 N   0  0  0  0  0  0  0  0  0  0  0  0
   39.6350   24.5870   43.1530 C   0  0  0  0  0  0  0  0  0  0  0  0
   39.7990   25.8640   43.6420 N   0  0  0  0  0  0  0  0  0  0  0  0
   39.0390   27.7670   43.6620 H   0  0  0  0  0  0  0  0  0  0  0  0
   36.8490   24.9770   41.2960 H   0  0  0  0  0  0  0  0  0  0  0  0
   40.2290   23.6890   43.3090 H   0  0  0  0  0  0  0  0  0  0  0  0
   37.3200   28.8180   42.6200 O   0  0  0  0  0  0  0  0  0  0  0  0
   35.5960   32.0960   40.0390 H   0  0  0  0  0  0  0  0  0  0  0  0
   36.3990   31.6290   40.5360 N   0  0  0  0  0  0  0  0  0  0  0  0
   36.2490   30.5140   41.2440 C   0  0  0  0  0  3  0  0  0  0  0  0
   37.3620   29.9770   41.8590 C   0  0  0  0  0  0  0  0  0  0  0  0
   38.5720   30.6400   41.6970 C   0  0  0  0  0  0  0  0  0  0  0  0
   39.5890   30.1480   42.2610 O   0  0  0  0  0  0  0  0  0  0  0  0
   38.6930   31.7730   40.9710 N   0  0  0  0  0  0  0  0  0  0  0  0
   37.5720   32.2710   40.3810 C   0  0  0  0  0  0  0  0  0  0  0  0
   37.7550   33.3260   39.7200 O   0  0  0  0  0  0  0  0  0  0  0  0
   39.6250   32.2540   40.8680 H   0  0  0  0  0  0  0  0  0  0  0  0
  1  5  1  0  0  0  0
  1  2  1  0  0  0  0
  1 13  1  0  0  0  0
  3  1  1  0  0  0  0
  4  9  1  0  0  0  0
  4 10  1  0  0  0  0
  5  4  2  0  0  0  0
  6  7  2  0  0  0  0
  6  5  1  0  0  0  0
  7  8  1  0  0  0  0
  8 12  1  0  0  0  0
  8  9  2  0  0  0  0
 11  6  1  0  0  0  0
 14 15  1  0  0  0  0
 15 16  1  0  0  0  0
 16 17  2  0  0  0  0
 17 13  1  0  0  0  0
 18 17  1  0  0  0  0
 18 19  2  0  0  0  0
 20 18  1  0  0  0  0
 21 15  1  0  0  0  0
 21 20  1  0  0  0  0
 22 21  2  0  0  0  0
 23 20  1  0  0  0  0
M  END
>  <minimizedAffinity>
-4.62425327

$$$$

 OpenBabel03252504283D

 23 24  0  0  0  0  0  0  0  0999 V2000
   37.4520   29.6780   39.7850 C   0  0  0  0  0  0  0  0  0  0  0  0
   36.4190   29.5330   39.4030 H   0  0  0  0  0  0  0  0  0  0  0  0
   38.0830   29.0190   39.1270 H   0  0  0  0  0  0  0  0  0  0  0  0
   36.5770   28.1860   41.4630 C   0  0  0  0  0  0  0  0  0  0  0  0
   37.4580   29.2040   41.1710 C   0  0  0  0  0  0  0  0  0  0  0  0
   38.2510   29.6710   42.2010 C   0  0  0  0  0  0  0  0  0  0  0  0
   38.1120   29.1040   43.4200 N   0  0  0  0  0  0  0  0  0  0  0  0
   37.2460   28.1130   43.6800 C   0  0  0  0  0  0  0  0  0  0  0  0
   36.4300   27.6080   42.6920 N   0  0  0  0  0  0  0  0  0  0  0  0
   35.9010   27.7400   40.7170 H   0  0  0  0  0  0  0  0  0  0  0  0
   38.9350   30.4680   41.9570 H   0  0  0  0  0  0  0  0  0  0  0  0
   37.3350   27.8430   44.7300 H   0  0  0  0  0  0  0  0  0  0  0  0
   37.7620   31.0210   39.6420 O   0  0  0  0  0  0  0  0  0  0  0  0
   42.1420   32.0580   39.3040 H   0  0  0  0  0  0  0  0  0  0  0  0
   41.1740   31.9710   38.8990 N   0  0  0  0  0  0  0  0  0  0  0  0
   40.1380   31.5380   39.6130 C   0  0  0  0  0  3  0  0  0  0  0  0
   38.9070   31.4580   38.9930 C   0  0  0  0  0  0  0  0  0  0  0  0
   38.8300   31.8360   37.6590 C   0  0  0  0  0  0  0  0  0  0  0  0
   37.7040   31.7610   37.0940 O   0  0  0  0  0  0  0  0  0  0  0  0
   39.9010   32.2720   36.9600 N   0  0  0  0  0  0  0  0  0  0  0  0
   41.0970   32.3360   37.6060 C   0  0  0  0  0  0  0  0  0  0  0  0
   42.0510   32.7500   36.8970 O   0  0  0  0  0  0  0  0  0  0  0  0
   39.8100   32.5510   35.9480 H   0  0  0  0  0  0  0  0  0  0  0  0
  1  5  1  0  0  0  0
  2  1  1  0  0  0  0
  3  1  1  0  0  0  0
  4  9  1  0  0  0  0
  5  4  2  0  0  0  0
  5  6  1  0  0  0  0
  6  7  2  0  0  0  0
  7  8  1  0  0  0  0
  8 12  1  0  0  0  0
  9  8  2  0  0  0  0
 10  4  1  0  0  0  0
 11  6  1  0  0  0  0
 13  1  1  0  0  0  0
 15 14  1  0  0  0  0
 15 16  1  0  0  0  0
 17 16  2  0  0  0  0
 17 13  1  0  0  0  0
 18 17  1  0  0  0  0
 19 18  2  0  0  0  0
 20 21  1  0  0  0  0
 20 18  1  0  0  0  0
 21 15  1  0  0  0  0
 22 21  2  0  0  0  0
 23 20  1  0  0  0  0
M  END
>  <minimizedAffinity>
-4.36318636

$$$$

 OpenBabel03252504283D

 23 24  0  0  0  0  0  0  0  0999 V2000
   36.1570   28.0190   40.3730 C   0  0  0  0  0  0  0  0  0  0  0  0
   35.3700   28.6320   40.8630 H   0  0  0  0  0  0  0  0  0  0  0  0
   35.5990   27.1290   39.9710 H   0  0  0  0  0  0  0  0  0  0  0  0
   38.1510   26.8320   41.0200 C   0  0  0  0  0  0  0  0  0  0  0  0
   37.0980   27.6240   41.4230 C   0  0  0  0  0  0  0  0  0  0  0  0
   37.0360   27.9640   42.7600 C   0  0  0  0  0  0  0  0  0  0  0  0
   38.0040   27.5000   43.5820 N   0  0  0  0  0  0  0  0  0  0  0  0
   39.0200   26.7310   43.1650 C   0  0  0  0  0  0  0  0  0  0  0  0
   39.1340   26.3600   41.8430 N   0  0  0  0  0  0  0  0  0  0  0  0
   38.2960   26.5050   39.9790 H   0  0  0  0  0  0  0  0  0  0  0  0
   36.2060   28.5830   43.0600 H   0  0  0  0  0  0  0  0  0  0  0  0
   39.6520   26.4990   44.0210 H   0  0  0  0  0  0  0  0  0  0  0  0
   36.7180   28.7910   39.3680 O   0  0  0  0  0  0  0  0  0  0  0  0
   36.2630   32.8180   41.3560 H   0  0  0  0  0  0  0  0  0  0  0  0
   36.5770   32.2050   40.5590 N   0  0  0  0  0  0  0  0  0  0  0  0
   36.4030   30.8860   40.5610 C   0  0  0  0  0  3  0  0  0  0  0  0
   36.8500   30.1680   39.4700 C   0  0  0  0  0  0  0  0  0  0  0  0
   37.4550   30.8720   38.4380 C   0  0  0  0  0  0  0  0  0  0  0  0
   37.8640   30.2130   37.4420 O   0  0  0  0  0  0  0  0  0  0  0  0
   37.6190   32.2130   38.4650 N   0  0  0  0  0  0  0  0  0  0  0  0
   37.1660   32.8850   39.5580 C   0  0  0  0  0  0  0  0  0  0  0  0
   37.3500   34.1300   39.5180 O   0  0  0  0  0  0  0  0  0  0  0  0
   38.0840   32.7180   37.6660 H   0  0  0  0  0  0  0  0  0  0  0  0
  1  2  1  0  0  0  0
  1  5  1  0  0  0  0
  3  1  1  0  0  0  0
  4  5  2  0  0  0  0
  4  9  1  0  0  0  0
  5  6  1  0  0  0  0
  6 11  1  0  0  0  0
  6  7  2  0  0  0  0
  8  7  1  0  0  0  0
  8 12  1  0  0  0  0
  9  8  2  0  0  0  0
 10  4  1  0  0  0  0
 13 17  1  0  0  0  0
 13  1  1  0  0  0  0
 15 16  1  0  0  0  0
 15 14  1  0  0  0  0
 17 16  2  0  0  0  0
 18 20  1  0  0  0  0
 18 17  1  0  0  0  0
 19 18  2  0  0  0  0
 20 21  1  0  0  0  0
 21 15  1  0  0  0  0
 22 21  2  0  0  0  0
 23 20  1  0  0  0  0
M  END
>  <minimizedAffinity>
-4.3492837

$$$$

 OpenBabel03252504283D

 23 24  0  0  0  0  0  0  0  0999 V2000
   37.0450   27.1100   42.6690 C   0  0  0  0  0  0  0  0  0  0  0  0
   37.9260   27.6970   43.0040 H   0  0  0  0  0  0  0  0  0  0  0  0
   36.4840   26.8900   43.6180 H   0  0  0  0  0  0  0  0  0  0  0  0
   38.8010   25.9820   41.4660 C   0  0  0  0  0  0  0  0  0  0  0  0
   37.5630   25.8820   42.0620 C   0  0  0  0  0  0  0  0  0  0  0  0
   36.9420   24.6490   42.0310 C   0  0  0  0  0  0  0  0  0  0  0  0
   37.5830   23.6270   41.4200 N   0  0  0  0  0  0  0  0  0  0  0  0
   38.7890   23.7490   40.8470 C   0  0  0  0  0  0  0  0  0  0  0  0
   39.4560   24.9550   40.8480 N   0  0  0  0  0  0  0  0  0  0  0  0
   39.3830   26.9160   41.4350 H   0  0  0  0  0  0  0  0  0  0  0  0
   35.9740   24.5870   42.5010 H   0  0  0  0  0  0  0  0  0  0  0  0
   39.0740   22.7850   40.4310 H   0  0  0  0  0  0  0  0  0  0  0  0
   36.3200   27.9110   41.8000 O   0  0  0  0  0  0  0  0  0  0  0  0
   39.1520   31.4240   41.6800 H   0  0  0  0  0  0  0  0  0  0  0  0
   38.2440   30.9530   41.4270 N   0  0  0  0  0  0  0  0  0  0  0  0
   37.9460   29.7180   41.8240 C   0  0  0  0  0  3  0  0  0  0  0  0
   36.7320   29.1850   41.4410 C   0  0  0  0  0  0  0  0  0  0  0  0
   35.8970   29.9760   40.6620 C   0  0  0  0  0  0  0  0  0  0  0  0
   34.7870   29.4870   40.3120 O   0  0  0  0  0  0  0  0  0  0  0  0
   36.2280   31.2270   40.2740 N   0  0  0  0  0  0  0  0  0  0  0  0
   37.4340   31.7160   40.6710 C   0  0  0  0  0  0  0  0  0  0  0  0
   37.6790   32.8860   40.2750 O   0  0  0  0  0  0  0  0  0  0  0  0
   35.5730   31.8020   39.6820 H   0  0  0  0  0  0  0  0  0  0  0  0
  1  2  1  0  0  0  0
  1  3  1  0  0  0  0
  4  5  1  0  0  0  0
  5  1  1  0  0  0  0
  6  5  2  0  0  0  0
  6 11  1  0  0  0  0
  7  6  1  0  0  0  0
  8  9  1  0  0  0  0
  8  7  2  0  0  0  0
  9  4  2  0  0  0  0
 10  4  1  0  0  0  0
 12  8  1  0  0  0  0
 13  1  1  0  0  0  0
 15 14  1  0  0  0  0
 15 16  1  0  0  0  0
 17 13  1  0  0  0  0
 17 16  2  0  0  0  0
 18 17  1  0  0  0  0
 19 18  2  0  0  0  0
 20 18  1  0  0  0  0
 20 21  1  0  0  0  0
 21 15  1  0  0  0  0
 22 21  2  0  0  0  0
 23 20  1  0  0  0  0
M  END
>  <minimizedAffinity>
-4.27383232

$$$$

 OpenBabel03252504283D

 23 24  0  0  0  0  0  0  0  0999 V2000
   36.2690   30.8070   40.9750 C   0  0  0  0  0  0  0  0  0  0  0  0
   36.7350   31.7370   41.3650 H   0  0  0  0  0  0  0  0  0  0  0  0
   35.1950   30.8830   41.2970 H   0  0  0  0  0  0  0  0  0  0  0  0
   36.3520   28.4530   41.4860 C   0  0  0  0  0  0  0  0  0  0  0  0
   36.9440   29.6890   41.6380 C   0  0  0  0  0  0  0  0  0  0  0  0
   38.1000   29.7490   42.3910 C   0  0  0  0  0  0  0  0  0  0  0  0
   38.5730   28.6020   42.9270 N   0  0  0  0  0  0  0  0  0  0  0  0
   37.9790   27.4100   42.7630 C   0  0  0  0  0  0  0  0  0  0  0  0
   36.8240   27.2900   42.0230 N   0  0  0  0  0  0  0  0  0  0  0  0
   35.4300   28.2930   40.9050 H   0  0  0  0  0  0  0  0  0  0  0  0
   38.5500   30.7220   42.5010 H   0  0  0  0  0  0  0  0  0  0  0  0
   38.5600   26.6590   43.2940 H   0  0  0  0  0  0  0  0  0  0  0  0
   36.4110   30.8190   39.5960 O   0  0  0  0  0  0  0  0  0  0  0  0
   39.7570   33.6910   38.6320 H   0  0  0  0  0  0  0  0  0  0  0  0
   39.2670   32.7650   38.5250 N   0  0  0  0  0  0  0  0  0  0  0  0
   38.1460   32.4700   39.1770 C   0  0  0  0  0  3  0  0  0  0  0  0
   37.5780   31.2290   38.9700 C   0  0  0  0  0  0  0  0  0  0  0  0
   38.2180   30.3650   38.0910 C   0  0  0  0  0  0  0  0  0  0  0  0
   37.6980   29.2300   37.9030 O   0  0  0  0  0  0  0  0  0  0  0  0
   39.3580   30.6930   37.4430 N   0  0  0  0  0  0  0  0  0  0  0  0
   39.8860   31.9250   37.6740 C   0  0  0  0  0  0  0  0  0  0  0  0
   40.9460   32.1660   37.0390 O   0  0  0  0  0  0  0  0  0  0  0  0
   39.8200   30.0140   36.7830 H   0  0  0  0  0  0  0  0  0  0  0  0
  1  3  1  0  0  0  0
  1  2  1  0  0  0  0
  1  5  1  0  0  0  0
  4  5  2  0  0  0  0
  4  9  1  0  0  0  0
  5  6  1  0  0  0  0
  6 11  1  0  0  0  0
  6  7  2  0  0  0  0
  8  7  1  0  0  0  0
  8 12  1  0  0  0  0
  9  8  2  0  0  0  0
 10  4  1  0  0  0  0
 13  1  1  0  0  0  0
 15 14  1  0  0  0  0
 15 16  1  0  0  0  0
 17 16  2  0  0  0  0
 17 13  1  0  0  0  0
 18 17  1  0  0  0  0
 19 18  2  0  0  0  0
 20 21  1  0  0  0  0
 20 18  1  0  0  0  0
 21 15  1  0  0  0  0
 22 21  2  0  0  0  0
 23 20  1  0  0  0  0
M  END
>  <minimizedAffinity>
-4.24839687

$$$$

 OpenBabel03252504283D

 23 24  0  0  0  0  0  0  0  0999 V2000
   37.8990   27.9410   39.2720 C   0  0  0  0  0  0  0  0  0  0  0  0
   37.5470   26.9510   38.9100 H   0  0  0  0  0  0  0  0  0  0  0  0
   38.7820   28.1750   38.6170 H   0  0  0  0  0  0  0  0  0  0  0  0
   37.3800   27.1590   41.4910 C   0  0  0  0  0  0  0  0  0  0  0  0
   38.3070   27.7590   40.6670 C   0  0  0  0  0  0  0  0  0  0  0  0
   39.5140   28.1240   41.2290 C   0  0  0  0  0  0  0  0  0  0  0  0
   39.7070   27.8710   42.5440 N   0  0  0  0  0  0  0  0  0  0  0  0
   38.7880   27.2850   43.3260 C   0  0  0  0  0  0  0  0  0  0  0  0
   37.5670   26.9010   42.8190 N   0  0  0  0  0  0  0  0  0  0  0  0
   36.3880   26.8290   41.1440 H   0  0  0  0  0  0  0  0  0  0  0  0
   40.2280   28.5920   40.5730 H   0  0  0  0  0  0  0  0  0  0  0  0
   39.1940   27.2010   44.3320 H   0  0  0  0  0  0  0  0  0  0  0  0
   36.8580   28.8400   39.0970 O   0  0  0  0  0  0  0  0  0  0  0  0
   38.3740   32.8690   37.7370 H   0  0  0  0  0  0  0  0  0  0  0  0
   37.8540   32.2520   38.4130 N   0  0  0  0  0  0  0  0  0  0  0  0
   37.7400   30.9380   38.2390 C   0  0  0  0  0  3  0  0  0  0  0  0
   37.0370   30.2130   39.1800 C   0  0  0  0  0  0  0  0  0  0  0  0
   36.4910   30.9060   40.2530 C   0  0  0  0  0  0  0  0  0  0  0  0
   35.8480   30.2420   41.1120 O   0  0  0  0  0  0  0  0  0  0  0  0
   36.6230   32.2430   40.4030 N   0  0  0  0  0  0  0  0  0  0  0  0
   37.3230   32.9210   39.4530 C   0  0  0  0  0  0  0  0  0  0  0  0
   37.4080   34.1610   39.6540 O   0  0  0  0  0  0  0  0  0  0  0  0
   36.1970   32.7400   41.2280 H   0  0  0  0  0  0  0  0  0  0  0  0
  1  5  1  0  0  0  0
  2  1  1  0  0  0  0
  3  1  1  0  0  0  0
  4  9  1  0  0  0  0
  5  6  1  0  0  0  0
  5  4  2  0  0  0  0
  6  7  2  0  0  0  0
  7  8  1  0  0  0  0
  8 12  1  0  0  0  0
  9  8  2  0  0  0  0
 10  4  1  0  0  0  0
 11  6  1  0  0  0  0
 13 17  1  0  0  0  0
 13  1  1  0  0  0  0
 14 15  1  0  0  0  0
 15 21  1  0  0  0  0
 16 15  1  0  0  0  0
 16 17  2  0  0  0  0
 17 18  1  0  0  0  0
 18 20  1  0  0  0  0
 18 19  2  0  0  0  0
 20 23  1  0  0  0  0
 21 22  2  0  0  0  0
 21 20  1  0  0  0  0
M  END
>  <minimizedAffinity>
-4.22465372

$$$$

 OpenBabel03252504283D

 23 24  0  0  0  0  0  0  0  0999 V2000
   37.5270   28.0860   41.2730 C   0  0  0  0  0  0  0  0  0  0  0  0
   38.6140   28.1470   41.4940 H   0  0  0  0  0  0  0  0  0  0  0  0
   37.0350   28.4990   42.1960 H   0  0  0  0  0  0  0  0  0  0  0  0
   37.3410   25.8770   42.2150 C   0  0  0  0  0  0  0  0  0  0  0  0
   37.2130   26.6670   41.0930 C   0  0  0  0  0  0  0  0  0  0  0  0
   36.8060   26.0510   39.9270 C   0  0  0  0  0  0  0  0  0  0  0  0
   36.5610   24.7220   39.9590 N   0  0  0  0  0  0  0  0  0  0  0  0
   36.6920   23.9730   41.0640 C   0  0  0  0  0  0  0  0  0  0  0  0
   37.0950   24.5340   42.2560 N   0  0  0  0  0  0  0  0  0  0  0  0
   37.6570   26.2660   43.1950 H   0  0  0  0  0  0  0  0  0  0  0  0
   36.7110   26.6820   39.0580 H   0  0  0  0  0  0  0  0  0  0  0  0
   36.4360   22.9450   40.8180 H   0  0  0  0  0  0  0  0  0  0  0  0
   37.2890   28.8670   40.1520 O   0  0  0  0  0  0  0  0  0  0  0  0
   36.0730   33.1630   40.8170 H   0  0  0  0  0  0  0  0  0  0  0  0
   36.7670   32.4290   40.5180 N   0  0  0  0  0  0  0  0  0  0  0  0
   36.4930   31.1280   40.5620 C   0  0  0  0  0  3  0  0  0  0  0  0
   37.4680   30.2420   40.1490 C   0  0  0  0  0  0  0  0  0  0  0  0
   38.6770   30.7690   39.7140 C   0  0  0  0  0  0  0  0  0  0  0  0
   39.5680   29.9580   39.3380 O   0  0  0  0  0  0  0  0  0  0  0  0
   38.9260   32.0970   39.6820 N   0  0  0  0  0  0  0  0  0  0  0  0
   37.9400   32.9380   40.0970 C   0  0  0  0  0  0  0  0  0  0  0  0
   38.2370   34.1590   40.0410 O   0  0  0  0  0  0  0  0  0  0  0  0
   39.8540   32.4660   39.3470 H   0  0  0  0  0  0  0  0  0  0  0  0
  1  2  1  0  0  0  0
  1  3  1  0  0  0  0
  4  9  1  0  0  0  0
  4 10  1  0  0  0  0
  5  1  1  0  0  0  0
  5  4  2  0  0  0  0
  6  7  2  0  0  0  0
  6  5  1  0  0  0  0
  7  8  1  0  0  0  0
  8  9  2  0  0  0  0
 11  6  1  0  0  0  0
 12  8  1  0  0  0  0
 13  1  1  0  0  0  0
 15 16  1  0  0  0  0
 15 14  1  0  0  0  0
 17 13  1  0  0  0  0
 17 16  2  0  0  0  0
 18 17  1  0  0  0  0
 19 18  2  0  0  0  0
 20 18  1  0  0  0  0
 20 21  1  0  0  0  0
 21 15  1  0  0  0  0
 22 21  2  0  0  0  0
 23 20  1  0  0  0  0
M  END
>  <minimizedAffinity>
-4.21737528

$$$$
