
 OpenBabel03252507553D

 45 48  0  0  1  0  0  0  0  0999 V2000
   48.6800   32.2320   40.3940 C   0  0  2  0  0  0  0  0  0  0  0  0
   49.4900   31.5630   41.4010 C   0  0  0  0  0  0  0  0  0  0  0  0
   50.0590   31.8780   40.0530 C   0  0  1  0  0  0  0  0  0  0  0  0
   47.8740   31.6530   39.9060 H   0  0  0  0  0  0  0  0  0  0  0  0
   49.3610   30.4750   41.6600 H   0  0  0  0  0  0  0  0  0  0  0  0
   49.8380   32.1420   42.2710 H   0  0  0  0  0  0  0  0  0  0  0  0
   50.6950   32.7710   39.8810 H   0  0  0  0  0  0  0  0  0  0  0  0
   46.8530   34.8080   42.1260 C   0  0  2  0  0  0  0  0  0  0  0  0
   45.9820   34.3230   40.9630 C   0  0  0  0  0  0  0  0  0  0  0  0
   47.1090   34.1600   39.9180 C   0  0  0  0  0  0  0  0  0  0  0  0
   48.2850   33.6600   40.6970 C   0  0  1  0  0  0  0  0  0  0  0  0
   47.8760   33.7080   42.1390 C   0  0  0  0  0  0  0  0  0  0  0  0
   47.3120   35.7770   41.8500 H   0  0  0  0  0  0  0  0  0  0  0  0
   45.5870   33.3390   41.2310 H   0  0  0  0  0  0  0  0  0  0  0  0
   45.2550   35.0720   40.6430 H   0  0  0  0  0  0  0  0  0  0  0  0
   47.3540   35.2100   39.6060 H   0  0  0  0  0  0  0  0  0  0  0  0
   46.7860   33.5110   39.0990 H   0  0  0  0  0  0  0  0  0  0  0  0
   49.1880   34.2950   40.5810 H   0  0  0  0  0  0  0  0  0  0  0  0
   47.3910   32.7640   42.4580 H   0  0  0  0  0  0  0  0  0  0  0  0
   48.7280   33.9490   42.8040 H   0  0  0  0  0  0  0  0  0  0  0  0
   44.4930   35.8330   44.8760 C   0  0  0  0  0  0  0  0  0  0  0  0
   45.1420   35.8670   43.6480 C   0  0  0  0  0  0  0  0  0  0  0  0
   46.0730   34.8690   43.3930 C   0  0  0  0  0  0  0  0  0  0  0  0
   46.3310   33.8790   44.3500 N   0  0  0  0  0  0  0  0  0  0  0  0
   45.6660   33.8980   45.5370 C   0  0  0  0  0  0  0  0  0  0  0  0
   44.7530   34.8730   45.7910 N   0  0  0  0  0  0  0  0  0  0  0  0
   43.7560   36.5940   45.1200 H   0  0  0  0  0  0  0  0  0  0  0  0
   44.9520   36.6230   42.9030 H   0  0  0  0  0  0  0  0  0  0  0  0
   45.8950   33.1160   46.2470 H   0  0  0  0  0  0  0  0  0  0  0  0
   50.2480   30.7840   39.1690 O   0  0  0  0  0  0  0  0  0  0  0  0
   51.0730   30.3380   36.7360 O   0  0  0  0  0  0  0  0  0  0  0  0
   51.1980   31.3080   37.8850 P   0  0  1  0  0  0  0  0  0  0  0  0
   50.6400   32.8300   37.3240 O   0  0  0  0  0  0  0  0  0  0  0  0
   51.0480   33.5280   37.8760 H   0  0  0  0  0  0  0  0  0  0  0  0
   52.8040   31.4880   38.2540 O   0  0  0  0  0  0  0  0  0  0  0  0
   54.2340   30.0440   42.2850 H   0  0  0  0  0  0  0  0  0  0  0  0
   54.3630   30.0290   41.2530 N   0  0  0  0  0  0  0  0  0  0  0  0
   53.4960   30.7610   40.5580 C   0  0  0  0  0  3  0  0  0  0  0  0
   53.5710   30.8160   39.1720 C   0  0  0  0  0  0  0  0  0  0  0  0
   54.5850   30.0780   38.5560 C   0  0  0  0  0  0  0  0  0  0  0  0
   54.8410   29.9800   37.3220 O   0  0  0  0  0  0  0  0  0  0  0  0
   55.4500   29.3440   39.3080 N   0  0  0  0  0  0  0  0  0  0  0  0
   55.3280   29.3280   40.6430 C   0  0  0  0  0  0  0  0  0  0  0  0
   56.1010   28.6640   41.3970 O   0  0  0  0  0  0  0  0  0  0  0  0
   56.2310   28.7680   38.9250 H   0  0  0  0  0  0  0  0  0  0  0  0
  1  4  1  6  0  0  0
  1 11  1  0  0  0  0
  1  2  1  0  0  0  0
  2  5  1  0  0  0  0
  2  6  1  0  0  0  0
  3  7  1  6  0  0  0
  3  1  1  0  0  0  0
  3  2  1  0  0  0  0
  8 13  1  6  0  0  0
  8 12  1  0  0  0  0
  8 23  1  0  0  0  0
  9 14  1  0  0  0  0
  9  8  1  0  0  0  0
 10 11  1  0  0  0  0
 10  9  1  0  0  0  0
 11 18  1  6  0  0  0
 11 12  1  0  0  0  0
 12 19  1  0  0  0  0
 12 20  1  0  0  0  0
 15  9  1  0  0  0  0
 16 10  1  0  0  0  0
 17 10  1  0  0  0  0
 21 27  1  0  0  0  0
 21 26  1  0  0  0  0
 22 21  2  0  0  0  0
 23 22  1  0  0  0  0
 23 24  2  0  0  0  0
 24 25  1  0  0  0  0
 25 26  2  0  0  0  0
 25 29  1  0  0  0  0
 28 22  1  0  0  0  0
 30  3  1  0  0  0  0
 32 31  2  6  0  0  0
 32 35  1  0  0  0  0
 32 30  1  0  0  0  0
 33 34  1  0  0  0  0
 33 32  1  0  0  0  0
 35 39  1  0  0  0  0
 37 36  1  0  0  0  0
 38 37  1  0  0  0  0
 39 38  2  0  0  0  0
 40 39  1  0  0  0  0
 40 42  1  0  0  0  0
 41 40  2  0  0  0  0
 42 43  1  0  0  0  0
 43 37  1  0  0  0  0
 43 44  2  0  0  0  0
 45 42  1  0  0  0  0
M  END
>  <minimizedAffinity>
-5.34726143

>  <minimizedRMSD>
0.978481293

$$$$
