
 OpenBabel03242512003D

 48 51  0  0  1  0  0  0  0  0999 V2000
   47.6910   34.1390   42.3570 C   0  0  2  0  0  0  0  0  0  0  0  0
   48.8920   35.0240   42.5090 C   0  0  0  0  0  0  0  0  0  0  0  0
   48.9810   36.0460   41.4450 C   0  0  0  0  0  0  0  0  0  0  0  0
   48.9500   35.4590   40.0520 C   0  0  0  0  0  0  0  0  0  0  0  0
   47.9830   34.3230   39.9000 C   0  0  0  0  0  0  0  0  0  0  0  0
   47.0020   34.2190   41.0450 C   0  0  1  0  0  0  0  0  0  0  0  0
   48.0870   33.0840   42.4780 H   0  0  0  0  0  0  0  0  0  0  0  0
   49.8450   34.4600   42.5410 H   0  0  0  0  0  0  0  0  0  0  0  0
   48.8010   35.5410   43.4840 H   0  0  0  0  0  0  0  0  0  0  0  0
   49.9610   36.5690   41.5340 H   0  0  0  0  0  0  0  0  0  0  0  0
   48.1560   36.7850   41.5200 H   0  0  0  0  0  0  0  0  0  0  0  0
   48.7820   36.2810   39.3460 H   0  0  0  0  0  0  0  0  0  0  0  0
   49.9630   35.0540   39.8550 H   0  0  0  0  0  0  0  0  0  0  0  0
   48.4920   33.3480   39.7540 H   0  0  0  0  0  0  0  0  0  0  0  0
   47.3690   34.5340   38.9810 H   0  0  0  0  0  0  0  0  0  0  0  0
   46.2960   35.0500   40.9020 H   0  0  0  0  0  0  0  0  0  0  0  0
   46.7200   34.2990   43.4590 C   0  0  0  0  0  0  0  0  0  0  0  0
   45.8100   35.3190   43.2400 C   0  0  0  0  0  0  0  0  0  0  0  0
   44.8200   35.5860   44.2010 C   0  0  0  0  0  0  0  0  0  0  0  0
   44.8460   34.7660   45.3360 N   0  0  0  0  0  0  0  0  0  0  0  0
   45.7570   33.7860   45.5000 C   0  0  0  0  0  0  0  0  0  0  0  0
   46.6830   33.5680   44.5520 N   0  0  0  0  0  0  0  0  0  0  0  0
   45.6320   36.0480   42.4630 H   0  0  0  0  0  0  0  0  0  0  0  0
   44.0440   36.3160   44.2130 H   0  0  0  0  0  0  0  0  0  0  0  0
   45.6820   33.2180   46.4120 H   0  0  0  0  0  0  0  0  0  0  0  0
   46.2090   32.9550   40.8590 C   0  0  2  0  0  0  0  0  0  0  0  0
   46.2230   32.3150   39.4810 C   0  0  0  0  0  0  0  0  0  0  0  0
   44.9960   32.9440   39.9970 C   0  0  1  0  0  0  0  0  0  0  0  0
   46.3280   32.2080   41.6710 H   0  0  0  0  0  0  0  0  0  0  0  0
   46.7250   32.7920   38.6390 H   0  0  0  0  0  0  0  0  0  0  0  0
   46.1940   31.2050   39.4010 H   0  0  0  0  0  0  0  0  0  0  0  0
   44.7070   33.9520   39.6200 H   0  0  0  0  0  0  0  0  0  0  0  0
   43.8590   32.1830   40.6090 C   0  0  0  0  0  0  0  0  0  0  0  0
   44.1170   31.1050   40.5870 H   0  0  0  0  0  0  0  0  0  0  0  0
   43.8000   32.4630   41.6890 H   0  0  0  0  0  0  0  0  0  0  0  0
   42.5540   32.3400   39.8950 C   0  0  0  0  0  0  0  0  0  0  0  0
   42.7670   32.2620   38.8100 H   0  0  0  0  0  0  0  0  0  0  0  0
   41.9400   31.4500   40.1440 H   0  0  0  0  0  0  0  0  0  0  0  0
   41.8800   33.5800   40.1990 N   0  0  0  0  0  0  0  0  0  0  0  0
   41.9420   34.1890   41.3970 C   0  0  0  0  0  3  0  0  0  0  0  0
   41.2540   35.3920   41.5990 C   0  0  0  0  0  0  0  0  0  0  0  0
   41.2740   35.9150   42.5430 H   0  0  0  0  0  0  0  0  0  0  0  0
   40.5370   35.8680   40.4930 C   0  0  0  0  0  0  0  0  0  0  0  0
   39.9270   36.9670   40.7270 O   0  0  0  0  0  0  0  0  0  0  0  0
   40.4960   35.2340   39.3070 N   0  0  0  0  0  0  0  0  0  0  0  0
   41.1760   34.0810   39.1660 C   0  0  0  0  0  0  0  0  0  0  0  0
   41.0820   33.5560   38.0260 O   0  0  0  0  0  0  0  0  0  0  0  0
   39.9080   35.7490   38.6100 H   0  0  0  0  0  0  0  0  0  0  0  0
  1  7  1  1  0  0  0
  1  2  1  0  0  0  0
  1 17  1  0  0  0  0
  2  8  1  0  0  0  0
  2  9  1  0  0  0  0
  3 11  1  0  0  0  0
  3 10  1  0  0  0  0
  3  2  1  0  0  0  0
  4  3  1  0  0  0  0
  5  4  1  0  0  0  0
  5  6  1  0  0  0  0
  6 16  1  6  0  0  0
  6  1  1  0  0  0  0
 12  4  1  0  0  0  0
 13  4  1  0  0  0  0
 14  5  1  0  0  0  0
 15  5  1  0  0  0  0
 17 22  1  0  0  0  0
 18 17  2  0  0  0  0
 18 19  1  0  0  0  0
 19 24  1  0  0  0  0
 19 20  2  0  0  0  0
 20 21  1  0  0  0  0
 21 25  1  0  0  0  0
 22 21  2  0  0  0  0
 23 18  1  0  0  0  0
 26  6  1  0  0  0  0
 26 29  1  1  0  0  0
 27 28  1  0  0  0  0
 27 26  1  0  0  0  0
 28 32  1  6  0  0  0
 28 33  1  0  0  0  0
 28 26  1  0  0  0  0
 30 27  1  0  0  0  0
 31 27  1  0  0  0  0
 33 35  1  0  0  0  0
 34 33  1  0  0  0  0
 36 38  1  0  0  0  0
 36 39  1  0  0  0  0
 36 33  1  0  0  0  0
 37 36  1  0  0  0  0
 39 40  1  0  0  0  0
 40 41  2  0  0  0  0
 41 42  1  0  0  0  0
 43 44  2  0  0  0  0
 43 41  1  0  0  0  0
 45 43  1  0  0  0  0
 46 45  1  0  0  0  0
 46 39  1  0  0  0  0
 47 46  2  0  0  0  0
 48 45  1  0  0  0  0
M  END
>  <minimizedAffinity>
-6.20934439

>  <minimizedRMSD>
1.19941318

$$$$
