
 OpenBabel03242512003D

 48 51  0  0  1  0  0  0  0  0999 V2000
   47.0390   34.0770   42.4890 C   0  0  2  0  0  0  0  0  0  0  0  0
   48.4670   34.4920   42.6750 C   0  0  0  0  0  0  0  0  0  0  0  0
   48.8970   35.5030   41.6860 C   0  0  0  0  0  0  0  0  0  0  0  0
   48.6730   35.0670   40.2550 C   0  0  0  0  0  0  0  0  0  0  0  0
   47.3800   34.3370   40.0450 C   0  0  0  0  0  0  0  0  0  0  0  0
   46.4190   34.4830   41.2030 C   0  0  1  0  0  0  0  0  0  0  0  0
   47.0550   32.9450   42.5250 H   0  0  0  0  0  0  0  0  0  0  0  0
   49.1740   33.6400   42.6440 H   0  0  0  0  0  0  0  0  0  0  0  0
   48.5530   34.9350   43.6860 H   0  0  0  0  0  0  0  0  0  0  0  0
   49.9960   35.6580   41.7890 H   0  0  0  0  0  0  0  0  0  0  0  0
   48.3700   36.4680   41.8330 H   0  0  0  0  0  0  0  0  0  0  0  0
   48.7930   35.9490   39.6150 H   0  0  0  0  0  0  0  0  0  0  0  0
   49.4910   34.3610   40.0060 H   0  0  0  0  0  0  0  0  0  0  0  0
   47.5310   33.2620   39.8170 H   0  0  0  0  0  0  0  0  0  0  0  0
   46.8750   34.8110   39.1580 H   0  0  0  0  0  0  0  0  0  0  0  0
   46.0350   35.5110   41.1360 H   0  0  0  0  0  0  0  0  0  0  0  0
   46.1770   34.4710   43.6220 C   0  0  0  0  0  0  0  0  0  0  0  0
   45.4970   35.6570   43.4040 C   0  0  0  0  0  0  0  0  0  0  0  0
   44.6330   36.1550   44.3940 C   0  0  0  0  0  0  0  0  0  0  0  0
   44.5350   35.3780   45.5540 N   0  0  0  0  0  0  0  0  0  0  0  0
   45.2210   34.2290   45.7170 C   0  0  0  0  0  0  0  0  0  0  0  0
   46.0340   33.7930   44.7400 N   0  0  0  0  0  0  0  0  0  0  0  0
   45.4440   36.3880   42.6110 H   0  0  0  0  0  0  0  0  0  0  0  0
   44.0330   37.0360   44.4110 H   0  0  0  0  0  0  0  0  0  0  0  0
   45.0670   33.7130   46.6490 H   0  0  0  0  0  0  0  0  0  0  0  0
   45.2470   33.5770   40.9450 C   0  0  2  0  0  0  0  0  0  0  0  0
   44.9160   33.2540   39.4990 C   0  0  0  0  0  0  0  0  0  0  0  0
   44.0140   34.1010   40.2970 C   0  0  1  0  0  0  0  0  0  0  0  0
   45.2000   32.6810   41.5980 H   0  0  0  0  0  0  0  0  0  0  0  0
   45.4570   33.7190   38.6750 H   0  0  0  0  0  0  0  0  0  0  0  0
   44.5230   32.2420   39.2470 H   0  0  0  0  0  0  0  0  0  0  0  0
   44.0290   35.2040   40.1360 H   0  0  0  0  0  0  0  0  0  0  0  0
   42.7610   33.6060   40.9520 C   0  0  0  0  0  0  0  0  0  0  0  0
   43.0140   33.3000   41.9880 H   0  0  0  0  0  0  0  0  0  0  0  0
   42.0590   34.4700   41.0490 H   0  0  0  0  0  0  0  0  0  0  0  0
   42.1380   32.4230   40.2820 C   0  0  0  0  0  0  0  0  0  0  0  0
   42.9260   31.9500   39.6610 H   0  0  0  0  0  0  0  0  0  0  0  0
   41.9010   31.6870   41.0770 H   0  0  0  0  0  0  0  0  0  0  0  0
   40.9860   32.7600   39.4790 N   0  0  0  0  0  0  0  0  0  0  0  0
   40.9710   33.7510   38.5700 C   0  0  0  0  0  3  0  0  0  0  0  0
   39.8060   34.0040   37.8370 C   0  0  0  0  0  0  0  0  0  0  0  0
   39.7500   34.7870   37.0980 H   0  0  0  0  0  0  0  0  0  0  0  0
   38.7200   33.1690   38.1290 C   0  0  0  0  0  0  0  0  0  0  0  0
   37.6800   33.4380   37.4360 O   0  0  0  0  0  0  0  0  0  0  0  0
   38.7660   32.1850   39.0460 N   0  0  0  0  0  0  0  0  0  0  0  0
   39.9110   31.9830   39.7230 C   0  0  0  0  0  0  0  0  0  0  0  0
   39.8660   31.0450   40.5590 O   0  0  0  0  0  0  0  0  0  0  0  0
   37.8530   31.6750   39.1170 H   0  0  0  0  0  0  0  0  0  0  0  0
  1  7  1  6  0  0  0
  1  2  1  0  0  0  0
  1 17  1  0  0  0  0
  2  9  1  0  0  0  0
  3 10  1  0  0  0  0
  3 11  1  0  0  0  0
  3  2  1  0  0  0  0
  4  3  1  0  0  0  0
  5  4  1  0  0  0  0
  5  6  1  0  0  0  0
  6 16  1  1  0  0  0
  6  1  1  0  0  0  0
  8  2  1  0  0  0  0
 12  4  1  0  0  0  0
 13  4  1  0  0  0  0
 14  5  1  0  0  0  0
 15  5  1  0  0  0  0
 17 22  1  0  0  0  0
 18 17  2  0  0  0  0
 18 19  1  0  0  0  0
 19 24  1  0  0  0  0
 19 20  2  0  0  0  0
 20 21  1  0  0  0  0
 21 25  1  0  0  0  0
 22 21  2  0  0  0  0
 23 18  1  0  0  0  0
 26  6  1  0  0  0  0
 26 29  1  1  0  0  0
 27 28  1  0  0  0  0
 27 26  1  0  0  0  0
 28 32  1  6  0  0  0
 28 26  1  0  0  0  0
 28 33  1  0  0  0  0
 30 27  1  0  0  0  0
 31 27  1  0  0  0  0
 33 35  1  0  0  0  0
 33 34  1  0  0  0  0
 36 33  1  0  0  0  0
 36 38  1  0  0  0  0
 37 36  1  0  0  0  0
 39 46  1  0  0  0  0
 39 36  1  0  0  0  0
 40 39  1  0  0  0  0
 41 43  1  0  0  0  0
 41 40  2  0  0  0  0
 42 41  1  0  0  0  0
 43 45  1  0  0  0  0
 44 43  2  0  0  0  0
 45 48  1  0  0  0  0
 45 46  1  0  0  0  0
 46 47  2  0  0  0  0
M  END
>  <minimizedAffinity>
-6.44965696

>  <minimizedRMSD>
2.93662453

$$$$
