
 OpenBabel03242517543D

 39 41  0  0  0  0  0  0  0  0999 V2000
   35.6480   29.8530   40.3030 C   0  0  0  0  0  0  0  0  0  0  0  0
   36.6440   30.8510   40.3270 C   0  0  0  0  0  0  0  0  0  0  0  0
   37.7330   30.6830   41.1790 C   0  0  0  0  0  0  0  0  0  0  0  0
   37.7610   29.5680   41.9260 N   0  0  0  0  0  0  0  0  0  0  0  0
   36.8240   28.6370   41.8980 C   0  0  0  0  0  0  0  0  0  0  0  0
   35.7590   28.7860   41.0770 N   0  0  0  0  0  0  0  0  0  0  0  0
   34.8170   30.0320   39.6200 H   0  0  0  0  0  0  0  0  0  0  0  0
   36.6500   31.7510   39.7420 H   0  0  0  0  0  0  0  0  0  0  0  0
   38.8240   31.6740   41.2820 C   0  0  0  0  0  0  0  0  0  0  0  0
   38.8970   31.8860   42.3900 H   0  0  0  0  0  0  0  0  0  0  0  0
   39.7480   31.2430   40.8880 H   0  0  0  0  0  0  0  0  0  0  0  0
   38.5390   32.9180   40.4990 C   0  0  0  0  0  0  0  0  0  0  0  0
   37.6710   32.7000   39.8510 H   0  0  0  0  0  0  0  0  0  0  0  0
   38.2210   33.6860   41.2440 H   0  0  0  0  0  0  0  0  0  0  0  0
   39.6570   33.4430   39.7860 N   0  0  0  0  0  0  0  0  0  0  0  0
   40.2920   32.6980   38.8620 C   0  0  0  0  0  3  0  0  0  0  0  0
   41.3760   33.0940   38.1140 C   0  0  0  0  0  0  0  0  0  0  0  0
   41.8430   32.4480   37.3840 H   0  0  0  0  0  0  0  0  0  0  0  0
   41.8010   34.3810   38.3850 C   0  0  0  0  0  0  0  0  0  0  0  0
   42.7990   34.8430   37.7460 O   0  0  0  0  0  0  0  0  0  0  0  0
   41.2090   35.1810   39.3000 N   0  0  0  0  0  0  0  0  0  0  0  0
   40.1570   34.6630   39.9590 C   0  0  0  0  0  0  0  0  0  0  0  0
   39.6270   35.4300   40.8030 O   0  0  0  0  0  0  0  0  0  0  0  0
   41.5840   36.1430   39.4540 H   0  0  0  0  0  0  0  0  0  0  0  0
   36.8510   27.4940   42.6650 O   0  0  0  0  0  0  0  0  0  0  0  0
   38.1810   25.4340   42.2160 C   0  0  0  0  0  0  0  0  0  0  0  0
   37.9370   26.6430   42.8280 C   0  0  0  0  0  0  0  0  0  0  0  0
   38.8770   27.1060   43.7310 C   0  0  0  0  0  0  0  0  0  0  0  0
   40.0270   26.3860   44.0190 C   0  0  0  0  0  0  0  0  0  0  0  0
   40.2520   25.1850   43.4010 C   0  0  0  0  0  0  0  0  0  0  0  0
   39.3110   24.7120   42.4910 C   0  0  0  0  0  0  0  0  0  0  0  0
   38.7830   28.0420   44.2650 H   0  0  0  0  0  0  0  0  0  0  0  0
   40.7680   26.7420   44.7250 H   0  0  0  0  0  0  0  0  0  0  0  0
   41.1390   24.6000   43.6030 H   0  0  0  0  0  0  0  0  0  0  0  0
   39.4580   23.7690   41.9850 H   0  0  0  0  0  0  0  0  0  0  0  0
   36.9460   24.9320   41.0980 S   0  0  0  0  0  0  0  0  0  0  0  0
   37.0910   23.4730   40.7350 O   0  0  0  0  0  0  0  0  0  0  0  0
   37.1830   25.6950   39.8000 O   0  0  0  0  0  0  0  0  0  0  0  0
   35.6900   25.1710   41.5290 H   0  0  0  0  0  0  0  0  0  0  0  0
  1  2  2  0  0  0  0
  1  6  1  0  0  0  0
  2  3  1  0  0  0  0
  3  9  1  0  0  0  0
  3  4  2  0  0  0  0
  5  4  1  0  0  0  0
  5 25  1  0  0  0  0
  6  5  2  0  0  0  0
  7  1  1  0  0  0  0
  8  2  1  0  0  0  0
  9 10  1  0  0  0  0
 11  9  1  0  0  0  0
 12 14  1  0  0  0  0
 12  9  1  0  0  0  0
 13 12  1  0  0  0  0
 15 22  1  0  0  0  0
 15 12  1  0  0  0  0
 16 15  1  0  0  0  0
 17 19  1  0  0  0  0
 17 16  2  0  0  0  0
 18 17  1  0  0  0  0
 19 21  1  0  0  0  0
 20 19  2  0  0  0  0
 21 24  1  0  0  0  0
 21 22  1  0  0  0  0
 22 23  2  0  0  0  0
 25 27  1  0  0  0  0
 26 31  2  0  0  0  0
 26 27  1  0  0  0  0
 27 28  2  0  0  0  0
 28 29  1  0  0  0  0
 28 32  1  0  0  0  0
 29 33  1  0  0  0  0
 30 34  1  0  0  0  0
 30 29  2  0  0  0  0
 31 30  1  0  0  0  0
 35 31  1  0  0  0  0
 36 39  1  0  0  0  0
 36 26  1  0  0  0  0
 37 36  2  0  0  0  0
 38 36  2  0  0  0  0
M  END
>  <minimizedAffinity>
-6.20478678

$$$$

 OpenBabel03242517543D

 39 41  0  0  0  0  0  0  0  0999 V2000
   36.3970   30.7960   40.9370 C   0  0  0  0  0  0  0  0  0  0  0  0
   37.4720   31.3790   40.2350 C   0  0  0  0  0  0  0  0  0  0  0  0
   38.7650   30.9460   40.5200 C   0  0  0  0  0  0  0  0  0  0  0  0
   38.9000   29.9910   41.4550 N   0  0  0  0  0  0  0  0  0  0  0  0
   37.8870   29.4500   42.1080 C   0  0  0  0  0  0  0  0  0  0  0  0
   36.6260   29.8610   41.8430 N   0  0  0  0  0  0  0  0  0  0  0  0
   35.4060   31.1690   40.6760 H   0  0  0  0  0  0  0  0  0  0  0  0
   37.3960   32.1410   39.4830 H   0  0  0  0  0  0  0  0  0  0  0  0
   39.9570   31.4980   39.8440 C   0  0  0  0  0  0  0  0  0  0  0  0
   40.8180   31.1770   40.5030 H   0  0  0  0  0  0  0  0  0  0  0  0
   40.0350   31.0770   38.8390 H   0  0  0  0  0  0  0  0  0  0  0  0
   39.8940   32.9870   39.7040 C   0  0  0  0  0  0  0  0  0  0  0  0
   39.8200   33.2070   38.6240 H   0  0  0  0  0  0  0  0  0  0  0  0
   38.9350   33.3030   40.1810 H   0  0  0  0  0  0  0  0  0  0  0  0
   40.9510   33.6920   40.3510 N   0  0  0  0  0  0  0  0  0  0  0  0
   41.8850   33.0300   41.0580 C   0  0  0  0  0  3  0  0  0  0  0  0
   42.9470   33.5980   41.7230 C   0  0  0  0  0  0  0  0  0  0  0  0
   43.6670   33.0100   42.2740 H   0  0  0  0  0  0  0  0  0  0  0  0
   43.0000   34.9750   41.6150 C   0  0  0  0  0  0  0  0  0  0  0  0
   43.9450   35.5980   42.1950 O   0  0  0  0  0  0  0  0  0  0  0  0
   42.0950   35.7010   40.9220 N   0  0  0  0  0  0  0  0  0  0  0  0
   41.1070   35.0120   40.3210 C   0  0  0  0  0  0  0  0  0  0  0  0
   40.2800   35.7140   39.6840 O   0  0  0  0  0  0  0  0  0  0  0  0
   42.1960   36.7390   40.8840 H   0  0  0  0  0  0  0  0  0  0  0  0
   38.0260   28.4730   43.0680 O   0  0  0  0  0  0  0  0  0  0  0  0
   39.3420   26.3560   43.0030 C   0  0  0  0  0  0  0  0  0  0  0  0
   38.2050   27.1160   42.8340 C   0  0  0  0  0  0  0  0  0  0  0  0
   37.0690   26.4750   42.3720 C   0  0  0  0  0  0  0  0  0  0  0  0
   37.0640   25.1180   42.0850 C   0  0  0  0  0  0  0  0  0  0  0  0
   38.2040   24.3800   42.2590 C   0  0  0  0  0  0  0  0  0  0  0  0
   39.3510   25.0170   42.7230 C   0  0  0  0  0  0  0  0  0  0  0  0
   36.1250   26.9770   42.2060 H   0  0  0  0  0  0  0  0  0  0  0  0
   36.1790   24.6090   41.7230 H   0  0  0  0  0  0  0  0  0  0  0  0
   38.2330   23.3200   42.0440 H   0  0  0  0  0  0  0  0  0  0  0  0
   40.2680   24.4640   42.8720 H   0  0  0  0  0  0  0  0  0  0  0  0
   40.7190   27.2460   43.5860 S   0  0  0  0  0  0  0  0  0  0  0  0
   41.4760   27.8940   42.4520 O   0  0  0  0  0  0  0  0  0  0  0  0
   41.6840   26.2310   44.1850 O   0  0  0  0  0  0  0  0  0  0  0  0
   40.4150   28.1720   44.5180 H   0  0  0  0  0  0  0  0  0  0  0  0
  1  6  1  0  0  0  0
  2  3  1  0  0  0  0
  2  1  2  0  0  0  0
  3  4  2  0  0  0  0
  4  5  1  0  0  0  0
  5 25  1  0  0  0  0
  6  5  2  0  0  0  0
  7  1  1  0  0  0  0
  8  2  1  0  0  0  0
  9 10  1  0  0  0  0
  9  3  1  0  0  0  0
 11  9  1  0  0  0  0
 12  9  1  0  0  0  0
 12 14  1  0  0  0  0
 12 15  1  0  0  0  0
 13 12  1  0  0  0  0
 15 16  1  0  0  0  0
 16 17  2  0  0  0  0
 17 18  1  0  0  0  0
 19 17  1  0  0  0  0
 19 20  2  0  0  0  0
 21 19  1  0  0  0  0
 22 15  1  0  0  0  0
 22 21  1  0  0  0  0
 23 22  2  0  0  0  0
 24 21  1  0  0  0  0
 26 36  1  0  0  0  0
 27 26  1  0  0  0  0
 27 25  1  0  0  0  0
 28 27  2  0  0  0  0
 29 30  2  0  0  0  0
 29 28  1  0  0  0  0
 30 31  1  0  0  0  0
 31 35  1  0  0  0  0
 31 26  2  0  0  0  0
 32 28  1  0  0  0  0
 33 29  1  0  0  0  0
 34 30  1  0  0  0  0
 36 38  2  0  0  0  0
 36 39  1  0  0  0  0
 37 36  2  0  0  0  0
M  END
>  <minimizedAffinity>
-6.11844206

$$$$

 OpenBabel03242517543D

 39 41  0  0  0  0  0  0  0  0999 V2000
   36.5040   28.8460   37.1580 C   0  0  0  0  0  0  0  0  0  0  0  0
   36.8790   30.2060   37.1640 C   0  0  0  0  0  0  0  0  0  0  0  0
   36.9420   30.8730   38.3850 C   0  0  0  0  0  0  0  0  0  0  0  0
   36.6400   30.1670   39.4860 N   0  0  0  0  0  0  0  0  0  0  0  0
   36.2890   28.8930   39.4720 C   0  0  0  0  0  0  0  0  0  0  0  0
   36.2220   28.2320   38.2940 N   0  0  0  0  0  0  0  0  0  0  0  0
   36.4710   28.3710   36.1770 H   0  0  0  0  0  0  0  0  0  0  0  0
   37.1280   30.7960   36.3020 H   0  0  0  0  0  0  0  0  0  0  0  0
   37.3180   32.2980   38.4950 C   0  0  0  0  0  0  0  0  0  0  0  0
   38.3210   32.3570   37.9760 H   0  0  0  0  0  0  0  0  0  0  0  0
   36.5650   32.9140   37.9960 H   0  0  0  0  0  0  0  0  0  0  0  0
   37.4030   32.7560   39.9170 C   0  0  0  0  0  0  0  0  0  0  0  0
   36.4360   33.2320   40.1610 H   0  0  0  0  0  0  0  0  0  0  0  0
   37.4920   31.8310   40.5360 H   0  0  0  0  0  0  0  0  0  0  0  0
   38.5280   33.5820   40.2110 N   0  0  0  0  0  0  0  0  0  0  0  0
   38.4650   34.9140   40.0310 C   0  0  0  0  0  3  0  0  0  0  0  0
   39.4800   35.8100   40.2780 C   0  0  0  0  0  0  0  0  0  0  0  0
   39.3690   36.8720   40.1140 H   0  0  0  0  0  0  0  0  0  0  0  0
   40.6380   35.2230   40.7520 C   0  0  0  0  0  0  0  0  0  0  0  0
   41.6380   35.9650   41.0120 O   0  0  0  0  0  0  0  0  0  0  0  0
   40.7680   33.8930   40.9550 N   0  0  0  0  0  0  0  0  0  0  0  0
   39.6930   33.1360   40.6700 C   0  0  0  0  0  0  0  0  0  0  0  0
   39.8430   31.9020   40.8690 O   0  0  0  0  0  0  0  0  0  0  0  0
   41.6740   33.5180   41.3140 H   0  0  0  0  0  0  0  0  0  0  0  0
   35.9770   28.1690   40.6010 O   0  0  0  0  0  0  0  0  0  0  0  0
   37.4490   26.4780   41.6910 C   0  0  0  0  0  0  0  0  0  0  0  0
   36.8750   27.7230   41.5620 C   0  0  0  0  0  0  0  0  0  0  0  0
   37.2160   28.6860   42.4960 C   0  0  0  0  0  0  0  0  0  0  0  0
   38.1010   28.4170   43.5290 C   0  0  0  0  0  0  0  0  0  0  0  0
   38.6610   27.1730   43.6410 C   0  0  0  0  0  0  0  0  0  0  0  0
   38.3240   26.1990   42.7060 C   0  0  0  0  0  0  0  0  0  0  0  0
   36.8230   29.6940   42.4860 H   0  0  0  0  0  0  0  0  0  0  0  0
   38.3730   29.1650   44.2640 H   0  0  0  0  0  0  0  0  0  0  0  0
   39.3550   26.9310   44.4350 H   0  0  0  0  0  0  0  0  0  0  0  0
   38.7480   25.2070   42.7650 H   0  0  0  0  0  0  0  0  0  0  0  0
   36.9630   25.3340   40.4740 S   0  0  0  0  0  0  0  0  0  0  0  0
   36.4280   24.0650   41.0930 O   0  0  0  0  0  0  0  0  0  0  0  0
   38.2230   24.9160   39.7260 O   0  0  0  0  0  0  0  0  0  0  0  0
   36.0660   25.8230   39.5930 H   0  0  0  0  0  0  0  0  0  0  0  0
  1  2  2  0  0  0  0
  1  6  1  0  0  0  0
  2  3  1  0  0  0  0
  3  9  1  0  0  0  0
  3  4  2  0  0  0  0
  5  4  1  0  0  0  0
  5 25  1  0  0  0  0
  6  5  2  0  0  0  0
  7  1  1  0  0  0  0
  8  2  1  0  0  0  0
  9 12  1  0  0  0  0
 10  9  1  0  0  0  0
 11  9  1  0  0  0  0
 12 13  1  0  0  0  0
 12 15  1  0  0  0  0
 12 14  1  0  0  0  0
 15 22  1  0  0  0  0
 16 15  1  0  0  0  0
 16 17  2  0  0  0  0
 17 19  1  0  0  0  0
 18 17  1  0  0  0  0
 19 21  1  0  0  0  0
 19 20  2  0  0  0  0
 21 24  1  0  0  0  0
 22 23  2  0  0  0  0
 22 21  1  0  0  0  0
 25 27  1  0  0  0  0
 26 31  1  0  0  0  0
 27 26  2  0  0  0  0
 27 28  1  0  0  0  0
 28 29  2  0  0  0  0
 29 30  1  0  0  0  0
 29 33  1  0  0  0  0
 30 34  1  0  0  0  0
 31 35  1  0  0  0  0
 31 30  2  0  0  0  0
 32 28  1  0  0  0  0
 36 37  2  0  0  0  0
 36 26  1  0  0  0  0
 38 36  2  0  0  0  0
 39 36  1  0  0  0  0
M  END
>  <minimizedAffinity>
-6.08754683

$$$$

 OpenBabel03242517543D

 39 41  0  0  0  0  0  0  0  0999 V2000
   37.0300   30.0340   37.4910 C   0  0  0  0  0  0  0  0  0  0  0  0
   37.2740   31.4000   37.7440 C   0  0  0  0  0  0  0  0  0  0  0  0
   37.0880   31.8780   39.0390 C   0  0  0  0  0  0  0  0  0  0  0  0
   36.6870   30.9960   39.9690 N   0  0  0  0  0  0  0  0  0  0  0  0
   36.4610   29.7170   39.7220 C   0  0  0  0  0  0  0  0  0  0  0  0
   36.6360   29.2380   38.4700 N   0  0  0  0  0  0  0  0  0  0  0  0
   37.1910   29.7100   36.4620 H   0  0  0  0  0  0  0  0  0  0  0  0
   37.5960   32.1280   37.0250 H   0  0  0  0  0  0  0  0  0  0  0  0
   37.3100   33.2930   39.4050 C   0  0  0  0  0  0  0  0  0  0  0  0
   37.4950   33.8050   38.4130 H   0  0  0  0  0  0  0  0  0  0  0  0
   36.4210   33.6850   39.9050 H   0  0  0  0  0  0  0  0  0  0  0  0
   38.4650   33.4650   40.3400 C   0  0  0  0  0  0  0  0  0  0  0  0
   38.1470   34.1820   41.1180 H   0  0  0  0  0  0  0  0  0  0  0  0
   38.6150   32.4750   40.8330 H   0  0  0  0  0  0  0  0  0  0  0  0
   39.6940   33.8250   39.7110 N   0  0  0  0  0  0  0  0  0  0  0  0
   40.3880   32.9220   38.9950 C   0  0  0  0  0  3  0  0  0  0  0  0
   41.5790   33.1500   38.3460 C   0  0  0  0  0  0  0  0  0  0  0  0
   42.0890   32.3810   37.7840 H   0  0  0  0  0  0  0  0  0  0  0  0
   42.0490   34.4430   38.4810 C   0  0  0  0  0  0  0  0  0  0  0  0
   43.1450   34.7580   37.9180 O   0  0  0  0  0  0  0  0  0  0  0  0
   41.4020   35.3980   39.1860 N   0  0  0  0  0  0  0  0  0  0  0  0
   40.2460   35.0330   39.7700 C   0  0  0  0  0  0  0  0  0  0  0  0
   39.6670   35.9430   40.4180 O   0  0  0  0  0  0  0  0  0  0  0  0
   41.8160   36.3550   39.2460 H   0  0  0  0  0  0  0  0  0  0  0  0
   36.0480   28.8120   40.6740 O   0  0  0  0  0  0  0  0  0  0  0  0
   37.3180   26.8640   41.5730 C   0  0  0  0  0  0  0  0  0  0  0  0
   36.8610   28.1630   41.5940 C   0  0  0  0  0  0  0  0  0  0  0  0
   37.2440   28.9600   42.6590 C   0  0  0  0  0  0  0  0  0  0  0  0
   38.0570   28.4770   43.6740 C   0  0  0  0  0  0  0  0  0  0  0  0
   38.5000   27.1830   43.6350 C   0  0  0  0  0  0  0  0  0  0  0  0
   38.1200   26.3750   42.5680 C   0  0  0  0  0  0  0  0  0  0  0  0
   36.9430   29.9930   42.7720 H   0  0  0  0  0  0  0  0  0  0  0  0
   38.3610   29.0950   44.5100 H   0  0  0  0  0  0  0  0  0  0  0  0
   39.1350   26.7760   44.4110 H   0  0  0  0  0  0  0  0  0  0  0  0
   38.4520   25.3490   42.5060 H   0  0  0  0  0  0  0  0  0  0  0  0
   36.7860   25.9390   40.1980 S   0  0  0  0  0  0  0  0  0  0  0  0
   36.5740   24.4880   40.5600 O   0  0  0  0  0  0  0  0  0  0  0  0
   37.9280   25.9400   39.1910 O   0  0  0  0  0  0  0  0  0  0  0  0
   35.6750   26.4270   39.6090 H   0  0  0  0  0  0  0  0  0  0  0  0
  1  2  2  0  0  0  0
  1  6  1  0  0  0  0
  2  3  1  0  0  0  0
  3  9  1  0  0  0  0
  3  4  2  0  0  0  0
  5  4  1  0  0  0  0
  5 25  1  0  0  0  0
  6  5  2  0  0  0  0
  7  1  1  0  0  0  0
  8  2  1  0  0  0  0
  9 11  1  0  0  0  0
  9 12  1  0  0  0  0
 10  9  1  0  0  0  0
 12 14  1  0  0  0  0
 12 13  1  0  0  0  0
 15 22  1  0  0  0  0
 15 12  1  0  0  0  0
 16 15  1  0  0  0  0
 17 19  1  0  0  0  0
 17 16  2  0  0  0  0
 18 17  1  0  0  0  0
 19 21  1  0  0  0  0
 20 19  2  0  0  0  0
 21 24  1  0  0  0  0
 21 22  1  0  0  0  0
 22 23  2  0  0  0  0
 25 27  1  0  0  0  0
 26 27  2  0  0  0  0
 26 31  1  0  0  0  0
 27 28  1  0  0  0  0
 28 32  1  0  0  0  0
 28 29  2  0  0  0  0
 29 33  1  0  0  0  0
 30 29  1  0  0  0  0
 30 34  1  0  0  0  0
 31 30  2  0  0  0  0
 35 31  1  0  0  0  0
 36 37  2  0  0  0  0
 36 26  1  0  0  0  0
 38 36  2  0  0  0  0
 39 36  1  0  0  0  0
M  END
>  <minimizedAffinity>
-6.05493832

$$$$

 OpenBabel03242517543D

 39 41  0  0  0  0  0  0  0  0999 V2000
   39.8420   30.7340   42.7270 C   0  0  0  0  0  0  0  0  0  0  0  0
   39.0540   29.5640   42.7410 C   0  0  0  0  0  0  0  0  0  0  0  0
   38.1300   29.3740   41.7170 C   0  0  0  0  0  0  0  0  0  0  0  0
   38.0520   30.3270   40.7740 N   0  0  0  0  0  0  0  0  0  0  0  0
   38.7940   31.4210   40.7690 C   0  0  0  0  0  0  0  0  0  0  0  0
   39.6960   31.6210   41.7570 N   0  0  0  0  0  0  0  0  0  0  0  0
   40.5500   30.8350   43.5500 H   0  0  0  0  0  0  0  0  0  0  0  0
   39.0940   28.7850   43.4780 H   0  0  0  0  0  0  0  0  0  0  0  0
   37.2540   28.1860   41.6460 C   0  0  0  0  0  0  0  0  0  0  0  0
   36.2220   28.5930   41.8670 H   0  0  0  0  0  0  0  0  0  0  0  0
   37.3120   27.7480   40.6460 H   0  0  0  0  0  0  0  0  0  0  0  0
   37.6510   27.1260   42.6250 C   0  0  0  0  0  0  0  0  0  0  0  0
   38.5840   27.4660   43.1080 H   0  0  0  0  0  0  0  0  0  0  0  0
   36.8520   27.1090   43.4050 H   0  0  0  0  0  0  0  0  0  0  0  0
   37.7470   25.8130   42.0760 N   0  0  0  0  0  0  0  0  0  0  0  0
   36.8810   25.3990   41.1330 C   0  0  0  0  0  3  0  0  0  0  0  0
   36.8740   24.1620   40.5320 C   0  0  0  0  0  0  0  0  0  0  0  0
   36.1510   23.8880   39.7770 H   0  0  0  0  0  0  0  0  0  0  0  0
   37.8710   23.3170   40.9830 C   0  0  0  0  0  0  0  0  0  0  0  0
   37.9520   22.1470   40.4900 O   0  0  0  0  0  0  0  0  0  0  0  0
   38.7710   23.6690   41.9270 N   0  0  0  0  0  0  0  0  0  0  0  0
   38.6600   24.9130   42.4290 C   0  0  0  0  0  0  0  0  0  0  0  0
   39.5110   25.2120   43.3060 O   0  0  0  0  0  0  0  0  0  0  0  0
   39.4980   22.9790   42.2210 H   0  0  0  0  0  0  0  0  0  0  0  0
   38.7140   32.4000   39.8040 O   0  0  0  0  0  0  0  0  0  0  0  0
   40.7320   33.7200   39.1730 C   0  0  0  0  0  0  0  0  0  0  0  0
   39.4880   33.5500   39.7390 C   0  0  0  0  0  0  0  0  0  0  0  0
   38.8990   34.6530   40.3320 C   0  0  0  0  0  0  0  0  0  0  0  0
   39.5290   35.8880   40.3610 C   0  0  0  0  0  0  0  0  0  0  0  0
   40.7650   36.0360   39.7930 C   0  0  0  0  0  0  0  0  0  0  0  0
   41.3660   34.9330   39.1950 C   0  0  0  0  0  0  0  0  0  0  0  0
   37.9250   34.6290   40.8040 H   0  0  0  0  0  0  0  0  0  0  0  0
   39.0730   36.7560   40.8230 H   0  0  0  0  0  0  0  0  0  0  0  0
   41.2830   36.9860   39.7990 H   0  0  0  0  0  0  0  0  0  0  0  0
   42.3410   35.0150   38.7370 H   0  0  0  0  0  0  0  0  0  0  0  0
   41.3950   32.2810   38.4520 S   0  0  0  0  0  0  0  0  0  0  0  0
   42.8830   32.4100   38.2340 O   0  0  0  0  0  0  0  0  0  0  0  0
   40.7930   32.1620   37.0580 O   0  0  0  0  0  0  0  0  0  0  0  0
   41.1320   31.1540   39.1450 H   0  0  0  0  0  0  0  0  0  0  0  0
  1  2  1  0  0  0  0
  1  7  1  0  0  0  0
  2  8  1  0  0  0  0
  3  2  2  0  0  0  0
  4  3  1  0  0  0  0
  5  4  2  0  0  0  0
  5  6  1  0  0  0  0
  6  1  2  0  0  0  0
  9  3  1  0  0  0  0
  9 10  1  0  0  0  0
  9 12  1  0  0  0  0
 11  9  1  0  0  0  0
 12 13  1  0  0  0  0
 12 14  1  0  0  0  0
 15 22  1  0  0  0  0
 15 12  1  0  0  0  0
 16 15  1  0  0  0  0
 17 19  1  0  0  0  0
 17 16  2  0  0  0  0
 18 17  1  0  0  0  0
 19 21  1  0  0  0  0
 20 19  2  0  0  0  0
 21 24  1  0  0  0  0
 21 22  1  0  0  0  0
 22 23  2  0  0  0  0
 25  5  1  0  0  0  0
 26 31  2  0  0  0  0
 26 27  1  0  0  0  0
 27 25  1  0  0  0  0
 27 28  2  0  0  0  0
 28 29  1  0  0  0  0
 28 32  1  0  0  0  0
 29 33  1  0  0  0  0
 30 34  1  0  0  0  0
 30 29  2  0  0  0  0
 31 30  1  0  0  0  0
 35 31  1  0  0  0  0
 36 39  1  0  0  0  0
 36 26  1  0  0  0  0
 37 36  2  0  0  0  0
 38 36  2  0  0  0  0
M  END
>  <minimizedAffinity>
-6.00731039

$$$$

 OpenBabel03242517543D

 39 41  0  0  0  0  0  0  0  0999 V2000
   36.8970   28.9320   37.0680 C   0  0  0  0  0  0  0  0  0  0  0  0
   37.1200   30.3150   37.2280 C   0  0  0  0  0  0  0  0  0  0  0  0
   36.9850   30.8680   38.4990 C   0  0  0  0  0  0  0  0  0  0  0  0
   36.6490   30.0350   39.4980 N   0  0  0  0  0  0  0  0  0  0  0  0
   36.4420   28.7390   39.3400 C   0  0  0  0  0  0  0  0  0  0  0  0
   36.5680   28.1880   38.1110 N   0  0  0  0  0  0  0  0  0  0  0  0
   37.0160   28.5490   36.0540 H   0  0  0  0  0  0  0  0  0  0  0  0
   37.3910   31.0050   36.4510 H   0  0  0  0  0  0  0  0  0  0  0  0
   37.1910   32.3060   38.7690 C   0  0  0  0  0  0  0  0  0  0  0  0
   38.0310   32.5970   38.0690 H   0  0  0  0  0  0  0  0  0  0  0  0
   36.2710   32.8540   38.5500 H   0  0  0  0  0  0  0  0  0  0  0  0
   37.5450   32.5730   40.1980 C   0  0  0  0  0  0  0  0  0  0  0  0
   36.6200   32.9060   40.7020 H   0  0  0  0  0  0  0  0  0  0  0  0
   37.8330   31.5880   40.6350 H   0  0  0  0  0  0  0  0  0  0  0  0
   38.6400   33.4670   40.3840 N   0  0  0  0  0  0  0  0  0  0  0  0
   38.4970   34.7840   40.1530 C   0  0  0  0  0  3  0  0  0  0  0  0
   39.4770   35.7390   40.2970 C   0  0  0  0  0  0  0  0  0  0  0  0
   39.3000   36.7860   40.0960 H   0  0  0  0  0  0  0  0  0  0  0  0
   40.6920   35.2330   40.7190 C   0  0  0  0  0  0  0  0  0  0  0  0
   41.6660   36.0340   40.8830 O   0  0  0  0  0  0  0  0  0  0  0  0
   40.9030   33.9220   40.9680 N   0  0  0  0  0  0  0  0  0  0  0  0
   39.8540   33.0990   40.7850 C   0  0  0  0  0  0  0  0  0  0  0  0
   40.0800   31.8850   41.0250 O   0  0  0  0  0  0  0  0  0  0  0  0
   41.8480   33.6090   41.2840 H   0  0  0  0  0  0  0  0  0  0  0  0
   36.0960   27.8860   40.3630 O   0  0  0  0  0  0  0  0  0  0  0  0
   37.6320   27.1310   42.1760 C   0  0  0  0  0  0  0  0  0  0  0  0
   36.9390   26.9810   40.9950 C   0  0  0  0  0  0  0  0  0  0  0  0
   37.0760   25.7810   40.3190 C   0  0  0  0  0  0  0  0  0  0  0  0
   37.8800   24.7600   40.8040 C   0  0  0  0  0  0  0  0  0  0  0  0
   38.5610   24.9280   41.9790 C   0  0  0  0  0  0  0  0  0  0  0  0
   38.4290   26.1320   42.6650 C   0  0  0  0  0  0  0  0  0  0  0  0
   36.5760   25.5610   39.3860 H   0  0  0  0  0  0  0  0  0  0  0  0
   37.9910   23.8180   40.2810 H   0  0  0  0  0  0  0  0  0  0  0  0
   39.1960   24.1510   42.3840 H   0  0  0  0  0  0  0  0  0  0  0  0
   38.9520   26.2970   43.5960 H   0  0  0  0  0  0  0  0  0  0  0  0
   37.4000   28.6700   42.9540 S   0  0  0  0  0  0  0  0  0  0  0  0
   38.6740   29.4810   42.9600 O   0  0  0  0  0  0  0  0  0  0  0  0
   37.0970   28.3870   44.4200 O   0  0  0  0  0  0  0  0  0  0  0  0
   36.3970   29.4020   42.4270 H   0  0  0  0  0  0  0  0  0  0  0  0
  1  2  2  0  0  0  0
  1  6  1  0  0  0  0
  2  3  1  0  0  0  0
  3  9  1  0  0  0  0
  3  4  2  0  0  0  0
  5  4  1  0  0  0  0
  5 25  1  0  0  0  0
  6  5  2  0  0  0  0
  7  1  1  0  0  0  0
  8  2  1  0  0  0  0
  9 12  1  0  0  0  0
 10  9  1  0  0  0  0
 11  9  1  0  0  0  0
 12 15  1  0  0  0  0
 12 14  1  0  0  0  0
 12 13  1  0  0  0  0
 15 22  1  0  0  0  0
 16 17  2  0  0  0  0
 16 15  1  0  0  0  0
 17 19  1  0  0  0  0
 18 17  1  0  0  0  0
 19 20  2  0  0  0  0
 19 21  1  0  0  0  0
 21 24  1  0  0  0  0
 22 21  1  0  0  0  0
 22 23  2  0  0  0  0
 25 27  1  0  0  0  0
 26 31  1  0  0  0  0
 26 36  1  0  0  0  0
 27 26  2  0  0  0  0
 28 29  2  0  0  0  0
 28 27  1  0  0  0  0
 29 30  1  0  0  0  0
 30 34  1  0  0  0  0
 30 31  2  0  0  0  0
 31 35  1  0  0  0  0
 32 28  1  0  0  0  0
 33 29  1  0  0  0  0
 36 37  2  0  0  0  0
 36 38  2  0  0  0  0
 39 36  1  0  0  0  0
M  END
>  <minimizedAffinity>
-6.00680733

$$$$

 OpenBabel03242517543D

 39 41  0  0  0  0  0  0  0  0999 V2000
   36.4210   31.1650   40.7070 C   0  0  0  0  0  0  0  0  0  0  0  0
   37.6670   31.6390   40.2490 C   0  0  0  0  0  0  0  0  0  0  0  0
   38.8190   30.9510   40.6250 C   0  0  0  0  0  0  0  0  0  0  0  0
   38.6610   29.8710   41.4070 N   0  0  0  0  0  0  0  0  0  0  0  0
   37.4880   29.4340   41.8320 C   0  0  0  0  0  0  0  0  0  0  0  0
   36.3610   30.0910   41.4760 N   0  0  0  0  0  0  0  0  0  0  0  0
   35.5510   31.7380   40.3840 H   0  0  0  0  0  0  0  0  0  0  0  0
   37.8260   32.4970   39.6230 H   0  0  0  0  0  0  0  0  0  0  0  0
   40.1710   31.3720   40.2020 C   0  0  0  0  0  0  0  0  0  0  0  0
   40.8090   31.2010   41.1210 H   0  0  0  0  0  0  0  0  0  0  0  0
   40.4980   30.7570   39.3600 H   0  0  0  0  0  0  0  0  0  0  0  0
   40.2110   32.8000   39.7590 C   0  0  0  0  0  0  0  0  0  0  0  0
   40.3300   32.7940   38.6610 H   0  0  0  0  0  0  0  0  0  0  0  0
   39.2040   33.2240   39.9880 H   0  0  0  0  0  0  0  0  0  0  0  0
   41.1810   33.6050   40.4270 N   0  0  0  0  0  0  0  0  0  0  0  0
   42.1680   33.0360   41.1430 C   0  0  0  0  0  3  0  0  0  0  0  0
   43.1550   33.7050   41.8280 C   0  0  0  0  0  0  0  0  0  0  0  0
   43.9240   33.1900   42.3870 H   0  0  0  0  0  0  0  0  0  0  0  0
   43.0690   35.0810   41.7290 C   0  0  0  0  0  0  0  0  0  0  0  0
   43.9360   35.7930   42.3270 O   0  0  0  0  0  0  0  0  0  0  0  0
   42.1040   35.7160   41.0270 N   0  0  0  0  0  0  0  0  0  0  0  0
   41.2010   34.9340   40.4070 C   0  0  0  0  0  0  0  0  0  0  0  0
   40.3160   35.5530   39.7610 O   0  0  0  0  0  0  0  0  0  0  0  0
   42.0990   36.7590   40.9970 H   0  0  0  0  0  0  0  0  0  0  0  0
   37.3260   28.3270   42.6350 O   0  0  0  0  0  0  0  0  0  0  0  0
   38.1910   26.1420   41.8020 C   0  0  0  0  0  0  0  0  0  0  0  0
   38.1530   27.2120   42.6690 C   0  0  0  0  0  0  0  0  0  0  0  0
   39.0430   27.2110   43.7280 C   0  0  0  0  0  0  0  0  0  0  0  0
   39.9450   26.1750   43.9200 C   0  0  0  0  0  0  0  0  0  0  0  0
   39.9680   25.1200   43.0470 C   0  0  0  0  0  0  0  0  0  0  0  0
   39.0750   25.1130   41.9800 C   0  0  0  0  0  0  0  0  0  0  0  0
   39.0970   28.0010   44.4650 H   0  0  0  0  0  0  0  0  0  0  0  0
   40.6460   26.1670   44.7460 H   0  0  0  0  0  0  0  0  0  0  0  0
   40.6590   24.2970   43.1690 H   0  0  0  0  0  0  0  0  0  0  0  0
   39.0670   24.2970   41.2720 H   0  0  0  0  0  0  0  0  0  0  0  0
   37.0360   26.2300   40.5030 S   0  0  0  0  0  0  0  0  0  0  0  0
   36.7050   24.8570   39.9680 O   0  0  0  0  0  0  0  0  0  0  0  0
   37.7160   26.9580   39.3510 O   0  0  0  0  0  0  0  0  0  0  0  0
   35.8990   26.8780   40.8280 H   0  0  0  0  0  0  0  0  0  0  0  0
  1  6  1  0  0  0  0
  2  3  1  0  0  0  0
  2  1  2  0  0  0  0
  3  4  2  0  0  0  0
  4  5  1  0  0  0  0
  5 25  1  0  0  0  0
  6  5  2  0  0  0  0
  7  1  1  0  0  0  0
  8  2  1  0  0  0  0
  9  3  1  0  0  0  0
  9 10  1  0  0  0  0
 11  9  1  0  0  0  0
 12 14  1  0  0  0  0
 12  9  1  0  0  0  0
 12 15  1  0  0  0  0
 13 12  1  0  0  0  0
 15 16  1  0  0  0  0
 16 17  2  0  0  0  0
 17 18  1  0  0  0  0
 19 17  1  0  0  0  0
 19 20  2  0  0  0  0
 21 19  1  0  0  0  0
 22 15  1  0  0  0  0
 22 21  1  0  0  0  0
 23 22  2  0  0  0  0
 24 21  1  0  0  0  0
 25 27  1  0  0  0  0
 26 31  2  0  0  0  0
 26 27  1  0  0  0  0
 27 28  2  0  0  0  0
 28 29  1  0  0  0  0
 28 32  1  0  0  0  0
 29 33  1  0  0  0  0
 30 34  1  0  0  0  0
 30 29  2  0  0  0  0
 31 30  1  0  0  0  0
 35 31  1  0  0  0  0
 36 39  1  0  0  0  0
 36 26  1  0  0  0  0
 37 36  2  0  0  0  0
 38 36  2  0  0  0  0
M  END
>  <minimizedAffinity>
-5.98179913

$$$$

 OpenBabel03242517543D

 39 41  0  0  0  0  0  0  0  0999 V2000
   37.0430   32.0120   38.9710 C   0  0  0  0  0  0  0  0  0  0  0  0
   37.5200   33.2590   39.4270 C   0  0  0  0  0  0  0  0  0  0  0  0
   38.5070   33.2730   40.4100 C   0  0  0  0  0  0  0  0  0  0  0  0
   38.9420   32.0850   40.8610 N   0  0  0  0  0  0  0  0  0  0  0  0
   38.4890   30.9220   40.4280 C   0  0  0  0  0  0  0  0  0  0  0  0
   37.5300   30.8910   39.4750 N   0  0  0  0  0  0  0  0  0  0  0  0
   36.2720   32.0560   38.2010 H   0  0  0  0  0  0  0  0  0  0  0  0
   37.1940   34.2230   39.0860 H   0  0  0  0  0  0  0  0  0  0  0  0
   39.0670   34.5260   40.9570 C   0  0  0  0  0  0  0  0  0  0  0  0
   38.1910   35.2420   40.9520 H   0  0  0  0  0  0  0  0  0  0  0  0
   39.4410   34.3480   41.9690 H   0  0  0  0  0  0  0  0  0  0  0  0
   40.2090   35.0440   40.1400 C   0  0  0  0  0  0  0  0  0  0  0  0
   40.1930   34.4980   39.1800 H   0  0  0  0  0  0  0  0  0  0  0  0
   39.9760   36.1140   39.9250 H   0  0  0  0  0  0  0  0  0  0  0  0
   41.4770   35.0000   40.7920 N   0  0  0  0  0  0  0  0  0  0  0  0
   41.8410   35.9700   41.6500 C   0  0  0  0  0  3  0  0  0  0  0  0
   43.0320   36.0350   42.3350 C   0  0  0  0  0  0  0  0  0  0  0  0
   43.2660   36.8430   43.0140 H   0  0  0  0  0  0  0  0  0  0  0  0
   43.8840   34.9800   42.0730 C   0  0  0  0  0  0  0  0  0  0  0  0
   45.0140   34.9460   42.6570 O   0  0  0  0  0  0  0  0  0  0  0  0
   43.5810   33.9740   41.2230 N   0  0  0  0  0  0  0  0  0  0  0  0
   42.3800   34.0390   40.6210 C   0  0  0  0  0  0  0  0  0  0  0  0
   42.1260   33.0900   39.8350 O   0  0  0  0  0  0  0  0  0  0  0  0
   44.2750   33.2080   41.0720 H   0  0  0  0  0  0  0  0  0  0  0  0
   38.9330   29.7040   40.8920 O   0  0  0  0  0  0  0  0  0  0  0  0
   37.6740   27.6180   41.4170 C   0  0  0  0  0  0  0  0  0  0  0  0
   38.2330   28.8390   41.7220 C   0  0  0  0  0  0  0  0  0  0  0  0
   38.1000   29.2980   43.0210 C   0  0  0  0  0  0  0  0  0  0  0  0
   37.4300   28.5650   43.9880 C   0  0  0  0  0  0  0  0  0  0  0  0
   36.8800   27.3530   43.6650 C   0  0  0  0  0  0  0  0  0  0  0  0
   37.0080   26.8830   42.3620 C   0  0  0  0  0  0  0  0  0  0  0  0
   38.5020   30.2420   43.3650 H   0  0  0  0  0  0  0  0  0  0  0  0
   37.3220   28.9180   45.0060 H   0  0  0  0  0  0  0  0  0  0  0  0
   36.3510   26.7570   44.3970 H   0  0  0  0  0  0  0  0  0  0  0  0
   36.5870   25.9310   42.0740 H   0  0  0  0  0  0  0  0  0  0  0  0
   37.8900   27.1220   39.7640 S   0  0  0  0  0  0  0  0  0  0  0  0
   36.7780   27.6410   38.8830 O   0  0  0  0  0  0  0  0  0  0  0  0
   37.7530   25.6050   39.7310 O   0  0  0  0  0  0  0  0  0  0  0  0
   39.0830   27.4700   39.2410 H   0  0  0  0  0  0  0  0  0  0  0  0
  1  2  2  0  0  0  0
  1  6  1  0  0  0  0
  2  3  1  0  0  0  0
  3  4  2  0  0  0  0
  3  9  1  0  0  0  0
  5  4  1  0  0  0  0
  5 25  1  0  0  0  0
  6  5  2  0  0  0  0
  7  1  1  0  0  0  0
  8  2  1  0  0  0  0
  9 11  1  0  0  0  0
 10  9  1  0  0  0  0
 12 15  1  0  0  0  0
 12  9  1  0  0  0  0
 13 12  1  0  0  0  0
 14 12  1  0  0  0  0
 15 16  1  0  0  0  0
 16 17  2  0  0  0  0
 17 18  1  0  0  0  0
 19 17  1  0  0  0  0
 19 20  2  0  0  0  0
 21 19  1  0  0  0  0
 22 15  1  0  0  0  0
 22 21  1  0  0  0  0
 23 22  2  0  0  0  0
 24 21  1  0  0  0  0
 25 27  1  0  0  0  0
 26 27  2  0  0  0  0
 26 31  1  0  0  0  0
 27 28  1  0  0  0  0
 28 32  1  0  0  0  0
 28 29  2  0  0  0  0
 29 33  1  0  0  0  0
 30 29  1  0  0  0  0
 30 34  1  0  0  0  0
 31 30  2  0  0  0  0
 35 31  1  0  0  0  0
 36 26  1  0  0  0  0
 37 36  2  0  0  0  0
 38 36  2  0  0  0  0
 39 36  1  0  0  0  0
M  END
>  <minimizedAffinity>
-5.95961094

$$$$

 OpenBabel03242517543D

 39 41  0  0  0  0  0  0  0  0999 V2000
   37.3230   31.2550   37.7800 C   0  0  0  0  0  0  0  0  0  0  0  0
   36.7860   30.0180   38.1930 C   0  0  0  0  0  0  0  0  0  0  0  0
   36.7380   29.7370   39.5560 C   0  0  0  0  0  0  0  0  0  0  0  0
   37.2100   30.6750   40.3940 N   0  0  0  0  0  0  0  0  0  0  0  0
   37.7120   31.8310   39.9980 C   0  0  0  0  0  0  0  0  0  0  0  0
   37.7670   32.1180   38.6770 N   0  0  0  0  0  0  0  0  0  0  0  0
   37.3380   31.4250   36.7020 H   0  0  0  0  0  0  0  0  0  0  0  0
   36.4010   29.2500   37.5490 H   0  0  0  0  0  0  0  0  0  0  0  0
   36.2000   28.4680   40.0890 C   0  0  0  0  0  0  0  0  0  0  0  0
   35.1480   28.4220   39.6760 H   0  0  0  0  0  0  0  0  0  0  0  0
   36.8130   27.6350   39.7360 H   0  0  0  0  0  0  0  0  0  0  0  0
   36.2080   28.4300   41.5850 C   0  0  0  0  0  0  0  0  0  0  0  0
   36.2000   29.4770   41.9350 H   0  0  0  0  0  0  0  0  0  0  0  0
   35.2400   27.9640   41.8890 H   0  0  0  0  0  0  0  0  0  0  0  0
   37.2590   27.6530   42.1560 N   0  0  0  0  0  0  0  0  0  0  0  0
   37.3980   26.3520   41.8440 C   0  0  0  0  0  3  0  0  0  0  0  0
   38.3670   25.5050   42.3280 C   0  0  0  0  0  0  0  0  0  0  0  0
   38.4270   24.4650   42.0380 H   0  0  0  0  0  0  0  0  0  0  0  0
   39.2450   26.1080   43.2090 C   0  0  0  0  0  0  0  0  0  0  0  0
   40.1800   25.4100   43.7150 O   0  0  0  0  0  0  0  0  0  0  0  0
   39.1630   27.4090   43.5650 N   0  0  0  0  0  0  0  0  0  0  0  0
   38.1620   28.1200   43.0130 C   0  0  0  0  0  0  0  0  0  0  0  0
   38.1110   29.3270   43.3640 O   0  0  0  0  0  0  0  0  0  0  0  0
   39.8600   27.7980   44.2380 H   0  0  0  0  0  0  0  0  0  0  0  0
   38.1980   32.7930   40.8550 O   0  0  0  0  0  0  0  0  0  0  0  0
   40.5620   33.5080   40.5180 C   0  0  0  0  0  0  0  0  0  0  0  0
   39.2010   33.7100   40.5730 C   0  0  0  0  0  0  0  0  0  0  0  0
   38.7320   34.9870   40.3160 C   0  0  0  0  0  0  0  0  0  0  0  0
   39.5930   36.0320   40.0150 C   0  0  0  0  0  0  0  0  0  0  0  0
   40.9430   35.8100   39.9660 C   0  0  0  0  0  0  0  0  0  0  0  0
   41.4230   34.5300   40.2230 C   0  0  0  0  0  0  0  0  0  0  0  0
   37.6840   35.2530   40.3320 H   0  0  0  0  0  0  0  0  0  0  0  0
   39.2330   37.0340   39.8120 H   0  0  0  0  0  0  0  0  0  0  0  0
   41.6400   36.6040   39.7330 H   0  0  0  0  0  0  0  0  0  0  0  0
   42.4820   34.3210   40.1910 H   0  0  0  0  0  0  0  0  0  0  0  0
   41.0590   31.8740   40.8540 S   0  0  0  0  0  0  0  0  0  0  0  0
   42.4380   31.8340   41.4680 O   0  0  0  0  0  0  0  0  0  0  0  0
   41.1950   31.1640   39.5140 O   0  0  0  0  0  0  0  0  0  0  0  0
   40.1940   31.1910   41.6320 H   0  0  0  0  0  0  0  0  0  0  0  0
  1  2  2  0  0  0  0
  1  6  1  0  0  0  0
  2  3  1  0  0  0  0
  3  9  1  0  0  0  0
  3  4  2  0  0  0  0
  5  4  1  0  0  0  0
  5 25  1  0  0  0  0
  6  5  2  0  0  0  0
  7  1  1  0  0  0  0
  8  2  1  0  0  0  0
  9 12  1  0  0  0  0
 10  9  1  0  0  0  0
 11  9  1  0  0  0  0
 12 14  1  0  0  0  0
 12 13  1  0  0  0  0
 12 15  1  0  0  0  0
 15 22  1  0  0  0  0
 16 15  1  0  0  0  0
 16 17  2  0  0  0  0
 17 19  1  0  0  0  0
 18 17  1  0  0  0  0
 19 21  1  0  0  0  0
 19 20  2  0  0  0  0
 21 24  1  0  0  0  0
 22 23  2  0  0  0  0
 22 21  1  0  0  0  0
 26 27  1  0  0  0  0
 26 36  1  0  0  0  0
 27 25  1  0  0  0  0
 28 32  1  0  0  0  0
 28 27  2  0  0  0  0
 29 28  1  0  0  0  0
 30 29  2  0  0  0  0
 30 31  1  0  0  0  0
 31 26  2  0  0  0  0
 33 29  1  0  0  0  0
 34 30  1  0  0  0  0
 35 31  1  0  0  0  0
 36 37  2  0  0  0  0
 36 39  1  0  0  0  0
 38 36  2  0  0  0  0
M  END
>  <minimizedAffinity>
-5.88327932

$$$$
