
 OpenBabel03252509283D

 22 23  0  0  0  0  0  0  0  0999 V2000
   46.8100   34.6740   43.1040 C   0  0  0  0  0  0  0  0  0  0  0  0
   47.6740   34.3900   42.4610 H   0  0  0  0  0  0  0  0  0  0  0  0
   46.9810   35.6670   43.5450 H   0  0  0  0  0  0  0  0  0  0  0  0
   45.6040   34.7920   42.2820 N   0  0  0  0  0  0  0  0  0  0  0  0
   44.4480   35.3710   42.7190 C   0  0  0  0  0  3  0  0  0  0  0  0
   43.3980   35.4110   41.8390 C   0  0  0  0  0  0  0  0  0  0  0  0
   42.4720   35.8750   42.1880 H   0  0  0  0  0  0  0  0  0  0  0  0
   43.4760   34.8960   40.5520 C   0  0  0  0  0  0  0  0  0  0  0  0
   42.4960   34.9580   39.7960 O   0  0  0  0  0  0  0  0  0  0  0  0
   44.6140   34.3280   40.1260 N   0  0  0  0  0  0  0  0  0  0  0  0
   45.6270   34.3030   41.0130 C   0  0  0  0  0  0  0  0  0  0  0  0
   46.7150   33.7670   40.6220 O   0  0  0  0  0  0  0  0  0  0  0  0
   44.7510   33.9190   39.1770 H   0  0  0  0  0  0  0  0  0  0  0  0
   47.0400   31.4630   44.9730 C   0  0  0  0  0  0  0  0  0  0  0  0
   47.1850   32.4150   43.9490 C   0  0  0  0  0  0  0  0  0  0  0  0
   46.6520   33.6930   44.1820 C   0  0  0  0  0  0  0  0  0  0  0  0
   46.0280   33.9460   45.3780 N   0  0  0  0  0  0  0  0  0  0  0  0
   45.9170   32.9920   46.3290 C   0  0  0  0  0  0  0  0  0  0  0  0
   46.4220   31.7550   46.1270 N   0  0  0  0  0  0  0  0  0  0  0  0
   47.4590   30.4890   44.7670 H   0  0  0  0  0  0  0  0  0  0  0  0
   47.6900   32.1430   43.0270 H   0  0  0  0  0  0  0  0  0  0  0  0
   45.4080   33.3710   47.1810 H   0  0  0  0  0  0  0  0  0  0  0  0
  1  3  1  0  0  0  0
  1 16  1  0  0  0  0
  2  1  1  0  0  0  0
  4  5  1  0  0  0  0
  4  1  1  0  0  0  0
  6  7  1  0  0  0  0
  6  5  2  0  0  0  0
  8  6  1  0  0  0  0
  9  8  2  0  0  0  0
 10  8  1  0  0  0  0
 10 11  1  0  0  0  0
 11  4  1  0  0  0  0
 12 11  2  0  0  0  0
 13 10  1  0  0  0  0
 14 19  1  0  0  0  0
 15 16  1  0  0  0  0
 15 14  2  0  0  0  0
 16 17  2  0  0  0  0
 17 18  1  0  0  0  0
 18 22  1  0  0  0  0
 19 18  2  0  0  0  0
 20 14  1  0  0  0  0
 21 15  1  0  0  0  0
M  END
>  <minimizedAffinity>
-4.06481218

>  <minimizedRMSD>
4.85249901

$$$$
