
 OpenBabel03252509283D

 22 23  0  0  0  0  0  0  0  0999 V2000
   45.1690   34.1380   41.4030 C   0  0  0  0  0  0  0  0  0  0  0  0
   44.7470   33.6370   42.3040 H   0  0  0  0  0  0  0  0  0  0  0  0
   45.3940   33.3910   40.6280 H   0  0  0  0  0  0  0  0  0  0  0  0
   44.1650   35.0370   40.8280 N   0  0  0  0  0  0  0  0  0  0  0  0
   44.4240   35.8960   39.8000 C   0  0  0  0  0  3  0  0  0  0  0  0
   43.3860   36.6780   39.3640 C   0  0  0  0  0  0  0  0  0  0  0  0
   43.5920   37.3660   38.5400 H   0  0  0  0  0  0  0  0  0  0  0  0
   42.1150   36.6210   39.9220 C   0  0  0  0  0  0  0  0  0  0  0  0
   41.2130   37.3510   39.4880 O   0  0  0  0  0  0  0  0  0  0  0  0
   41.8660   35.7750   40.9320 N   0  0  0  0  0  0  0  0  0  0  0  0
   42.9040   35.0210   41.3380 C   0  0  0  0  0  0  0  0  0  0  0  0
   42.6820   34.2120   42.2980 O   0  0  0  0  0  0  0  0  0  0  0  0
   40.9420   35.6740   41.4020 H   0  0  0  0  0  0  0  0  0  0  0  0
   47.6690   36.0040   43.4350 C   0  0  0  0  0  0  0  0  0  0  0  0
   46.4900   35.3250   43.0770 C   0  0  0  0  0  0  0  0  0  0  0  0
   46.4030   34.8440   41.7620 C   0  0  0  0  0  0  0  0  0  0  0  0
   47.4540   35.0560   40.9040 N   0  0  0  0  0  0  0  0  0  0  0  0
   48.5640   35.7160   41.3020 C   0  0  0  0  0  0  0  0  0  0  0  0
   48.6700   36.1870   42.5630 N   0  0  0  0  0  0  0  0  0  0  0  0
   47.7090   36.3620   44.4530 H   0  0  0  0  0  0  0  0  0  0  0  0
   45.6990   35.1950   43.8100 H   0  0  0  0  0  0  0  0  0  0  0  0
   49.2650   35.7810   40.5060 H   0  0  0  0  0  0  0  0  0  0  0  0
  1 16  1  0  0  0  0
  1  2  1  0  0  0  0
  3  1  1  0  0  0  0
  4 11  1  0  0  0  0
  4  1  1  0  0  0  0
  5  4  1  0  0  0  0
  6  5  2  0  0  0  0
  6  8  1  0  0  0  0
  7  6  1  0  0  0  0
  8 10  1  0  0  0  0
  9  8  2  0  0  0  0
 10 11  1  0  0  0  0
 10 13  1  0  0  0  0
 11 12  2  0  0  0  0
 14 20  1  0  0  0  0
 15 14  1  0  0  0  0
 15 21  1  0  0  0  0
 16 15  2  0  0  0  0
 17 18  2  0  0  0  0
 17 16  1  0  0  0  0
 18 19  1  0  0  0  0
 19 14  2  0  0  0  0
 22 18  1  0  0  0  0
M  END
>  <minimizedAffinity>
7.9885416

>  <minimizedRMSD>
5.95053196

$$$$
