
 OpenBabel03252507413D

 26 27  0  0  0  0  0  0  0  0999 V2000
   38.2840   28.2420   42.8030 C   0  0  0  0  0  0  0  0  0  0  0  0
   39.2590   28.6950   42.5710 H   0  0  0  0  0  0  0  0  0  0  0  0
   38.0960   28.4510   43.8970 H   0  0  0  0  0  0  0  0  0  0  0  0
   38.2910   26.7760   42.6640 C   0  0  0  0  0  0  0  0  0  0  0  0
   39.4770   26.1370   43.0570 C   0  0  0  0  0  0  0  0  0  0  0  0
   39.5490   24.7480   42.9500 C   0  0  0  0  0  0  0  0  0  0  0  0
   38.4600   24.0690   42.4670 N   0  0  0  0  0  0  0  0  0  0  0  0
   37.3460   24.7150   42.1030 C   0  0  0  0  0  0  0  0  0  0  0  0
   37.2480   26.0480   42.1940 N   0  0  0  0  0  0  0  0  0  0  0  0
   40.4460   24.2230   43.2440 H   0  0  0  0  0  0  0  0  0  0  0  0
   36.5420   24.1020   41.7350 H   0  0  0  0  0  0  0  0  0  0  0  0
   40.8640   27.0780   43.6780 S   0  0  0  0  0  0  0  0  0  0  0  0
   41.4380   26.3300   44.7320 H   0  0  0  0  0  0  0  0  0  0  0  0
   37.1390   28.8850   42.0670 C   0  0  0  0  0  0  0  0  0  0  0  0
   36.8390   28.2010   41.2480 H   0  0  0  0  0  0  0  0  0  0  0  0
   36.2870   28.9700   42.7630 H   0  0  0  0  0  0  0  0  0  0  0  0
   37.4910   30.1960   41.5790 N   0  0  0  0  0  0  0  0  0  0  0  0
   38.7720   30.5610   41.8150 C   0  0  0  0  0  3  0  0  0  0  0  0
   39.2000   31.8010   41.3850 C   0  0  0  0  0  0  0  0  0  0  0  0
   40.2380   32.1230   41.5640 H   0  0  0  0  0  0  0  0  0  0  0  0
   38.3090   32.6300   40.7270 C   0  0  0  0  0  0  0  0  0  0  0  0
   38.6540   33.7740   40.3150 O   0  0  0  0  0  0  0  0  0  0  0  0
   37.0420   32.2160   40.5190 N   0  0  0  0  0  0  0  0  0  0  0  0
   36.6430   31.0200   40.9380 C   0  0  0  0  0  0  0  0  0  0  0  0
   35.4830   30.5530   40.7870 O   0  0  0  0  0  0  0  0  0  0  0  0
   36.3450   32.8400   40.0160 H   0  0  0  0  0  0  0  0  0  0  0  0
  1  3  1  0  0  0  0
  2  1  1  0  0  0  0
  4  1  1  0  0  0  0
  4  5  1  0  0  0  0
  5 12  1  0  0  0  0
  6  5  2  0  0  0  0
  6 10  1  0  0  0  0
  7  6  1  0  0  0  0
  8  9  1  0  0  0  0
  8  7  2  0  0  0  0
  9  4  2  0  0  0  0
 11  8  1  0  0  0  0
 12 13  1  0  0  0  0
 14 16  1  0  0  0  0
 14  1  1  0  0  0  0
 15 14  1  0  0  0  0
 17 18  1  0  0  0  0
 17 14  1  0  0  0  0
 19 20  1  0  0  0  0
 19 18  2  0  0  0  0
 21 19  1  0  0  0  0
 22 21  2  0  0  0  0
 23 21  1  0  0  0  0
 23 24  1  0  0  0  0
 24 17  1  0  0  0  0
 25 24  2  0  0  0  0
 26 23  1  0  0  0  0
M  END
>  <minimizedAffinity>
-4.75281

$$$$

 OpenBabel03252507413D

 26 27  0  0  0  0  0  0  0  0999 V2000
   37.4030   28.3070   42.9650 C   0  0  0  0  0  0  0  0  0  0  0  0
   36.6620   27.8770   42.2740 H   0  0  0  0  0  0  0  0  0  0  0  0
   36.8230   28.6410   43.8750 H   0  0  0  0  0  0  0  0  0  0  0  0
   38.0470   29.5160   42.4260 C   0  0  0  0  0  0  0  0  0  0  0  0
   37.3650   30.1460   41.3720 C   0  0  0  0  0  0  0  0  0  0  0  0
   37.9230   31.2970   40.8160 C   0  0  0  0  0  0  0  0  0  0  0  0
   39.1090   31.7630   41.3220 N   0  0  0  0  0  0  0  0  0  0  0  0
   39.7290   31.1340   42.3290 C   0  0  0  0  0  0  0  0  0  0  0  0
   39.2180   30.0270   42.8820 N   0  0  0  0  0  0  0  0  0  0  0  0
   37.4260   31.8080   40.0050 H   0  0  0  0  0  0  0  0  0  0  0  0
   40.6540   31.5710   42.6610 H   0  0  0  0  0  0  0  0  0  0  0  0
   35.8220   29.4890   40.7560 S   0  0  0  0  0  0  0  0  0  0  0  0
   34.9870   30.5910   40.4610 H   0  0  0  0  0  0  0  0  0  0  0  0
   38.4010   27.2990   43.4690 C   0  0  0  0  0  0  0  0  0  0  0  0
   39.4110   27.7420   43.3600 H   0  0  0  0  0  0  0  0  0  0  0  0
   38.2170   27.1420   44.5470 H   0  0  0  0  0  0  0  0  0  0  0  0
   38.2810   26.0400   42.7750 N   0  0  0  0  0  0  0  0  0  0  0  0
   37.2000   25.9410   41.9680 C   0  0  0  0  0  3  0  0  0  0  0  0
   37.0010   24.7720   41.2630 C   0  0  0  0  0  0  0  0  0  0  0  0
   36.1290   24.6640   40.5990 H   0  0  0  0  0  0  0  0  0  0  0  0
   37.9110   23.7380   41.4020 C   0  0  0  0  0  0  0  0  0  0  0  0
   37.7720   22.6490   40.7780 O   0  0  0  0  0  0  0  0  0  0  0  0
   38.9720   23.8900   42.2220 N   0  0  0  0  0  0  0  0  0  0  0  0
   39.1510   25.0220   42.8950 C   0  0  0  0  0  0  0  0  0  0  0  0
   40.1100   25.2510   43.6790 O   0  0  0  0  0  0  0  0  0  0  0  0
   39.6800   23.1070   42.3400 H   0  0  0  0  0  0  0  0  0  0  0  0
  1 14  1  0  0  0  0
  1  3  1  0  0  0  0
  2  1  1  0  0  0  0
  4  9  1  0  0  0  0
  4  1  1  0  0  0  0
  5  4  2  0  0  0  0
  6  7  2  0  0  0  0
  6  5  1  0  0  0  0
  7  8  1  0  0  0  0
  8 11  1  0  0  0  0
  8  9  2  0  0  0  0
 10  6  1  0  0  0  0
 12  5  1  0  0  0  0
 13 12  1  0  0  0  0
 14 16  1  0  0  0  0
 15 14  1  0  0  0  0
 17 24  1  0  0  0  0
 17 14  1  0  0  0  0
 18 17  1  0  0  0  0
 19 21  1  0  0  0  0
 19 18  2  0  0  0  0
 20 19  1  0  0  0  0
 21 23  1  0  0  0  0
 22 21  2  0  0  0  0
 23 26  1  0  0  0  0
 23 24  1  0  0  0  0
 24 25  2  0  0  0  0
M  END
>  <minimizedAffinity>
-4.70042467

$$$$

 OpenBabel03252507413D

 26 27  0  0  0  0  0  0  0  0999 V2000
   38.0870   29.2440   39.7170 C   0  0  0  0  0  0  0  0  0  0  0  0
   37.5520   28.6400   38.9690 H   0  0  0  0  0  0  0  0  0  0  0  0
   39.1870   29.0820   39.5190 H   0  0  0  0  0  0  0  0  0  0  0  0
   37.8490   28.7830   41.0950 C   0  0  0  0  0  0  0  0  0  0  0  0
   37.2300   27.5290   41.2140 C   0  0  0  0  0  0  0  0  0  0  0  0
   36.9760   27.0330   42.4940 C   0  0  0  0  0  0  0  0  0  0  0  0
   37.3420   27.7920   43.5760 N   0  0  0  0  0  0  0  0  0  0  0  0
   37.9310   28.9840   43.4210 C   0  0  0  0  0  0  0  0  0  0  0  0
   38.1870   29.4850   42.2050 N   0  0  0  0  0  0  0  0  0  0  0  0
   36.5020   26.0720   42.6230 H   0  0  0  0  0  0  0  0  0  0  0  0
   38.1830   29.5080   44.3250 H   0  0  0  0  0  0  0  0  0  0  0  0
   36.7760   26.5880   39.7640 S   0  0  0  0  0  0  0  0  0  0  0  0
   37.0430   25.2290   40.0480 H   0  0  0  0  0  0  0  0  0  0  0  0
   37.8610   30.7240   39.5580 C   0  0  0  0  0  0  0  0  0  0  0  0
   36.8850   30.8630   39.0540 H   0  0  0  0  0  0  0  0  0  0  0  0
   37.7870   31.1700   40.5660 H   0  0  0  0  0  0  0  0  0  0  0  0
   38.9410   31.3510   38.8360 N   0  0  0  0  0  0  0  0  0  0  0  0
   40.0740   31.5280   39.5540 C   0  0  0  0  0  3  0  0  0  0  0  0
   41.1610   32.1210   38.9460 C   0  0  0  0  0  0  0  0  0  0  0  0
   42.0960   32.2770   39.5070 H   0  0  0  0  0  0  0  0  0  0  0  0
   41.0610   32.5160   37.6230 C   0  0  0  0  0  0  0  0  0  0  0  0
   42.0290   33.0630   37.0230 O   0  0  0  0  0  0  0  0  0  0  0  0
   39.9070   32.3160   36.9540 N   0  0  0  0  0  0  0  0  0  0  0  0
   38.8670   31.7440   37.5510 C   0  0  0  0  0  0  0  0  0  0  0  0
   37.7550   31.5180   37.0060 O   0  0  0  0  0  0  0  0  0  0  0  0
   39.8130   32.6130   35.9380 H   0  0  0  0  0  0  0  0  0  0  0  0
  1  4  1  0  0  0  0
  2  1  1  0  0  0  0
  3  1  1  0  0  0  0
  4  5  2  0  0  0  0
  4  9  1  0  0  0  0
  5  6  1  0  0  0  0
  6 10  1  0  0  0  0
  6  7  2  0  0  0  0
  8  7  1  0  0  0  0
  8 11  1  0  0  0  0
  9  8  2  0  0  0  0
 12 13  1  0  0  0  0
 12  5  1  0  0  0  0
 14  1  1  0  0  0  0
 14 16  1  0  0  0  0
 15 14  1  0  0  0  0
 17 18  1  0  0  0  0
 17 14  1  0  0  0  0
 19 20  1  0  0  0  0
 19 18  2  0  0  0  0
 21 19  1  0  0  0  0
 22 21  2  0  0  0  0
 23 24  1  0  0  0  0
 23 21  1  0  0  0  0
 24 17  1  0  0  0  0
 25 24  2  0  0  0  0
 26 23  1  0  0  0  0
M  END
>  <minimizedAffinity>
-4.46934843

$$$$

 OpenBabel03252507413D

 26 27  0  0  0  0  0  0  0  0999 V2000
   38.0410   28.2970   42.7650 C   0  0  0  0  0  0  0  0  0  0  0  0
   37.2990   28.4230   43.5680 H   0  0  0  0  0  0  0  0  0  0  0  0
   37.4630   28.3440   41.7970 H   0  0  0  0  0  0  0  0  0  0  0  0
   38.6860   26.9740   42.7910 C   0  0  0  0  0  0  0  0  0  0  0  0
   38.2470   26.0680   41.8130 C   0  0  0  0  0  0  0  0  0  0  0  0
   38.8180   24.7950   41.7820 C   0  0  0  0  0  0  0  0  0  0  0  0
   39.7830   24.4870   42.7070 N   0  0  0  0  0  0  0  0  0  0  0  0
   40.1760   25.3790   43.6250 C   0  0  0  0  0  0  0  0  0  0  0  0
   39.6450   26.6070   43.6780 N   0  0  0  0  0  0  0  0  0  0  0  0
   38.5050   24.0730   41.0440 H   0  0  0  0  0  0  0  0  0  0  0  0
   40.9370   25.0500   44.3090 H   0  0  0  0  0  0  0  0  0  0  0  0
   36.9850   26.5300   40.6350 S   0  0  0  0  0  0  0  0  0  0  0  0
   37.3440   25.9600   39.3920 H   0  0  0  0  0  0  0  0  0  0  0  0
   39.0380   29.4230   42.6950 C   0  0  0  0  0  0  0  0  0  0  0  0
   39.2290   29.7680   43.7310 H   0  0  0  0  0  0  0  0  0  0  0  0
   39.9850   29.0190   42.2950 H   0  0  0  0  0  0  0  0  0  0  0  0
   38.5750   30.4900   41.8420 N   0  0  0  0  0  0  0  0  0  0  0  0
   37.3060   30.3470   41.3970 C   0  0  0  0  0  3  0  0  0  0  0  0
   36.7760   31.3190   40.5740 C   0  0  0  0  0  0  0  0  0  0  0  0
   35.7460   31.2280   40.1970 H   0  0  0  0  0  0  0  0  0  0  0  0
   37.5570   32.4090   40.2290 C   0  0  0  0  0  0  0  0  0  0  0  0
   37.1170   33.3240   39.4790 O   0  0  0  0  0  0  0  0  0  0  0  0
   38.8170   32.5010   40.7010 N   0  0  0  0  0  0  0  0  0  0  0  0
   39.3150   31.5580   41.4930 C   0  0  0  0  0  0  0  0  0  0  0  0
   40.4770   31.5620   41.9790 O   0  0  0  0  0  0  0  0  0  0  0  0
   39.4310   33.3310   40.4470 H   0  0  0  0  0  0  0  0  0  0  0  0
  1  4  1  0  0  0  0
  1  2  1  0  0  0  0
  3  1  1  0  0  0  0
  4  9  1  0  0  0  0
  5  4  2  0  0  0  0
  6  5  1  0  0  0  0
  6  7  2  0  0  0  0
  7  8  1  0  0  0  0
  8  9  2  0  0  0  0
  8 11  1  0  0  0  0
 10  6  1  0  0  0  0
 12  5  1  0  0  0  0
 13 12  1  0  0  0  0
 14  1  1  0  0  0  0
 14 15  1  0  0  0  0
 16 14  1  0  0  0  0
 17 14  1  0  0  0  0
 18 17  1  0  0  0  0
 19 18  2  0  0  0  0
 20 19  1  0  0  0  0
 21 19  1  0  0  0  0
 21 23  1  0  0  0  0
 22 21  2  0  0  0  0
 23 24  1  0  0  0  0
 24 17  1  0  0  0  0
 24 25  2  0  0  0  0
 26 23  1  0  0  0  0
M  END
>  <minimizedAffinity>
-4.39684534

$$$$

 OpenBabel03252507413D

 26 27  0  0  0  0  0  0  0  0999 V2000
   38.6190   28.0290   41.4500 C   0  0  0  0  0  0  0  0  0  0  0  0
   38.9610   28.4200   40.4800 H   0  0  0  0  0  0  0  0  0  0  0  0
   39.5540   27.8160   42.0470 H   0  0  0  0  0  0  0  0  0  0  0  0
   37.9140   26.7420   41.3270 C   0  0  0  0  0  0  0  0  0  0  0  0
   37.3570   26.4760   40.0660 C   0  0  0  0  0  0  0  0  0  0  0  0
   36.6750   25.2730   39.8830 C   0  0  0  0  0  0  0  0  0  0  0  0
   36.5780   24.4050   40.9410 N   0  0  0  0  0  0  0  0  0  0  0  0
   37.1230   24.6960   42.1290 C   0  0  0  0  0  0  0  0  0  0  0  0
   37.7840   25.8420   42.3340 N   0  0  0  0  0  0  0  0  0  0  0  0
   36.2340   25.0340   38.9270 H   0  0  0  0  0  0  0  0  0  0  0  0
   36.9980   23.9560   42.9000 H   0  0  0  0  0  0  0  0  0  0  0  0
   37.5160   27.6480   38.7270 S   0  0  0  0  0  0  0  0  0  0  0  0
   37.7270   26.9040   37.5430 H   0  0  0  0  0  0  0  0  0  0  0  0
   37.8450   29.0350   42.2580 C   0  0  0  0  0  0  0  0  0  0  0  0
   36.8580   28.5900   42.4930 H   0  0  0  0  0  0  0  0  0  0  0  0
   38.3780   29.1950   43.2110 H   0  0  0  0  0  0  0  0  0  0  0  0
   37.7230   30.2930   41.5610 N   0  0  0  0  0  0  0  0  0  0  0  0
   38.8410   31.0550   41.5720 C   0  0  0  0  0  3  0  0  0  0  0  0
   38.8190   32.2770   40.9310 C   0  0  0  0  0  0  0  0  0  0  0  0
   39.7140   32.9170   40.9250 H   0  0  0  0  0  0  0  0  0  0  0  0
   37.6570   32.6850   40.2990 C   0  0  0  0  0  0  0  0  0  0  0  0
   37.5880   33.7950   39.6990 O   0  0  0  0  0  0  0  0  0  0  0  0
   36.5710   31.8860   40.3190 N   0  0  0  0  0  0  0  0  0  0  0  0
   36.6060   30.7110   40.9400 C   0  0  0  0  0  0  0  0  0  0  0  0
   35.6430   29.9030   41.0090 O   0  0  0  0  0  0  0  0  0  0  0  0
   35.6720   32.1830   39.8390 H   0  0  0  0  0  0  0  0  0  0  0  0
  1  3  1  0  0  0  0
  1 14  1  0  0  0  0
  2  1  1  0  0  0  0
  4  1  1  0  0  0  0
  4  9  1  0  0  0  0
  5  4  2  0  0  0  0
  6  5  1  0  0  0  0
  6  7  2  0  0  0  0
  7  8  1  0  0  0  0
  8  9  2  0  0  0  0
  8 11  1  0  0  0  0
 10  6  1  0  0  0  0
 12  5  1  0  0  0  0
 13 12  1  0  0  0  0
 14 15  1  0  0  0  0
 14 16  1  0  0  0  0
 17 18  1  0  0  0  0
 17 14  1  0  0  0  0
 19 18  2  0  0  0  0
 20 19  1  0  0  0  0
 21 23  1  0  0  0  0
 21 19  1  0  0  0  0
 22 21  2  0  0  0  0
 23 24  1  0  0  0  0
 24 25  2  0  0  0  0
 24 17  1  0  0  0  0
 26 23  1  0  0  0  0
M  END
>  <minimizedAffinity>
-4.37877798

$$$$

 OpenBabel03252507413D

 26 27  0  0  0  0  0  0  0  0999 V2000
   37.1990   27.9390   39.1310 C   0  0  0  0  0  0  0  0  0  0  0  0
   37.3930   27.5250   38.1310 H   0  0  0  0  0  0  0  0  0  0  0  0
   38.1020   28.5660   39.3890 H   0  0  0  0  0  0  0  0  0  0  0  0
   37.1160   26.8990   40.1700 C   0  0  0  0  0  0  0  0  0  0  0  0
   36.8120   25.6080   39.7100 C   0  0  0  0  0  0  0  0  0  0  0  0
   36.7180   24.5760   40.6450 C   0  0  0  0  0  0  0  0  0  0  0  0
   36.9280   24.8680   41.9680 N   0  0  0  0  0  0  0  0  0  0  0  0
   37.2160   26.1130   42.3670 C   0  0  0  0  0  0  0  0  0  0  0  0
   37.3120   27.1230   41.4940 N   0  0  0  0  0  0  0  0  0  0  0  0
   36.4860   23.5710   40.3270 H   0  0  0  0  0  0  0  0  0  0  0  0
   37.3650   26.2480   43.4240 H   0  0  0  0  0  0  0  0  0  0  0  0
   36.5490   25.2920   37.9720 S   0  0  0  0  0  0  0  0  0  0  0  0
   37.1340   24.0380   37.6810 H   0  0  0  0  0  0  0  0  0  0  0  0
   36.0270   28.8830   39.1670 C   0  0  0  0  0  0  0  0  0  0  0  0
   35.4580   28.7480   38.2270 H   0  0  0  0  0  0  0  0  0  0  0  0
   35.3720   28.5860   40.0040 H   0  0  0  0  0  0  0  0  0  0  0  0
   36.4520   30.2500   39.3550 N   0  0  0  0  0  0  0  0  0  0  0  0
   36.9450   30.8450   38.2450 C   0  0  0  0  0  3  0  0  0  0  0  0
   37.3770   32.1530   38.3290 C   0  0  0  0  0  0  0  0  0  0  0  0
   37.7830   32.6620   37.4410 H   0  0  0  0  0  0  0  0  0  0  0  0
   37.2920   32.8140   39.5420 C   0  0  0  0  0  0  0  0  0  0  0  0
   37.6750   34.0120   39.6680 O   0  0  0  0  0  0  0  0  0  0  0  0
   36.7930   32.1720   40.6180 N   0  0  0  0  0  0  0  0  0  0  0  0
   36.3800   30.9120   40.5230 C   0  0  0  0  0  0  0  0  0  0  0  0
   35.9010   30.2370   41.4720 O   0  0  0  0  0  0  0  0  0  0  0  0
   36.7200   32.6640   41.5560 H   0  0  0  0  0  0  0  0  0  0  0  0
  1 14  1  0  0  0  0
  1  3  1  0  0  0  0
  1  4  1  0  0  0  0
  2  1  1  0  0  0  0
  4  9  1  0  0  0  0
  5  4  2  0  0  0  0
  5  6  1  0  0  0  0
  6  7  2  0  0  0  0
  7  8  1  0  0  0  0
  8 11  1  0  0  0  0
  9  8  2  0  0  0  0
 10  6  1  0  0  0  0
 12  5  1  0  0  0  0
 13 12  1  0  0  0  0
 14 17  1  0  0  0  0
 14 16  1  0  0  0  0
 15 14  1  0  0  0  0
 17 24  1  0  0  0  0
 18 19  2  0  0  0  0
 18 17  1  0  0  0  0
 19 21  1  0  0  0  0
 20 19  1  0  0  0  0
 21 22  2  0  0  0  0
 21 23  1  0  0  0  0
 23 26  1  0  0  0  0
 24 23  1  0  0  0  0
 24 25  2  0  0  0  0
M  END
>  <minimizedAffinity>
-4.37406206

$$$$

 OpenBabel03252507413D

 26 27  0  0  0  0  0  0  0  0999 V2000
   38.3620   28.1240   40.9620 C   0  0  0  0  0  0  0  0  0  0  0  0
   39.4300   28.3880   40.9970 H   0  0  0  0  0  0  0  0  0  0  0  0
   37.9030   28.5600   41.8970 H   0  0  0  0  0  0  0  0  0  0  0  0
   38.1340   26.6720   41.0350 C   0  0  0  0  0  0  0  0  0  0  0  0
   37.3330   26.2380   42.1030 C   0  0  0  0  0  0  0  0  0  0  0  0
   37.0780   24.8730   42.2300 C   0  0  0  0  0  0  0  0  0  0  0  0
   37.6190   24.0150   41.3070 N   0  0  0  0  0  0  0  0  0  0  0  0
   38.3790   24.4680   40.3010 C   0  0  0  0  0  0  0  0  0  0  0  0
   38.6410   25.7730   40.1550 N   0  0  0  0  0  0  0  0  0  0  0  0
   36.4650   24.5040   43.0390 H   0  0  0  0  0  0  0  0  0  0  0  0
   38.7610   23.7230   39.6250 H   0  0  0  0  0  0  0  0  0  0  0  0
   36.6560   27.4060   43.2740 S   0  0  0  0  0  0  0  0  0  0  0  0
   35.3480   26.9710   43.5900 H   0  0  0  0  0  0  0  0  0  0  0  0
   37.6290   28.7650   39.8140 C   0  0  0  0  0  0  0  0  0  0  0  0
   38.0830   28.3930   38.8750 H   0  0  0  0  0  0  0  0  0  0  0  0
   36.5810   28.4210   39.8410 H   0  0  0  0  0  0  0  0  0  0  0  0
   37.6620   30.2050   39.9020 N   0  0  0  0  0  0  0  0  0  0  0  0
   38.7930   30.7750   39.4260 C   0  0  0  0  0  3  0  0  0  0  0  0
   38.9140   32.1490   39.4690 C   0  0  0  0  0  0  0  0  0  0  0  0
   39.8240   32.6380   39.0890 H   0  0  0  0  0  0  0  0  0  0  0  0
   37.8780   32.9010   39.9950 C   0  0  0  0  0  0  0  0  0  0  0  0
   37.9430   34.1610   40.0560 O   0  0  0  0  0  0  0  0  0  0  0  0
   36.7720   32.2810   40.4560 N   0  0  0  0  0  0  0  0  0  0  0  0
   36.6680   30.9570   40.4090 C   0  0  0  0  0  0  0  0  0  0  0  0
   35.6760   30.2960   40.8150 O   0  0  0  0  0  0  0  0  0  0  0  0
   35.9680   32.8420   40.8630 H   0  0  0  0  0  0  0  0  0  0  0  0
  1  2  1  0  0  0  0
  1  4  1  0  0  0  0
  1  3  1  0  0  0  0
  4  5  1  0  0  0  0
  5  6  2  0  0  0  0
  5 12  1  0  0  0  0
  6 10  1  0  0  0  0
  7  6  1  0  0  0  0
  8  7  2  0  0  0  0
  9  8  1  0  0  0  0
  9  4  2  0  0  0  0
 11  8  1  0  0  0  0
 12 13  1  0  0  0  0
 14 16  1  0  0  0  0
 14 17  1  0  0  0  0
 14  1  1  0  0  0  0
 15 14  1  0  0  0  0
 17 24  1  0  0  0  0
 18 19  2  0  0  0  0
 18 17  1  0  0  0  0
 19 21  1  0  0  0  0
 20 19  1  0  0  0  0
 21 22  2  0  0  0  0
 21 23  1  0  0  0  0
 23 26  1  0  0  0  0
 24 23  1  0  0  0  0
 24 25  2  0  0  0  0
M  END
>  <minimizedAffinity>
-4.36918211

$$$$

 OpenBabel03252507413D

 26 27  0  0  0  0  0  0  0  0999 V2000
   38.0490   28.0630   39.5290 C   0  0  0  0  0  0  0  0  0  0  0  0
   38.1620   27.1330   38.9520 H   0  0  0  0  0  0  0  0  0  0  0  0
   38.9830   28.6660   39.3330 H   0  0  0  0  0  0  0  0  0  0  0  0
   38.0120   27.8290   40.9820 C   0  0  0  0  0  0  0  0  0  0  0  0
   39.1440   28.2580   41.6930 C   0  0  0  0  0  0  0  0  0  0  0  0
   39.1720   28.0650   43.0740 C   0  0  0  0  0  0  0  0  0  0  0  0
   38.0950   27.4670   43.6760 N   0  0  0  0  0  0  0  0  0  0  0  0
   37.0330   27.0720   42.9630 C   0  0  0  0  0  0  0  0  0  0  0  0
   36.9780   27.2430   41.6360 N   0  0  0  0  0  0  0  0  0  0  0  0
   40.0260   28.3830   43.6530 H   0  0  0  0  0  0  0  0  0  0  0  0
   36.2350   26.6120   43.5180 H   0  0  0  0  0  0  0  0  0  0  0  0
   40.5170   29.0320   40.8510 S   0  0  0  0  0  0  0  0  0  0  0  0
   40.9890   30.0700   41.6870 H   0  0  0  0  0  0  0  0  0  0  0  0
   36.9070   28.9220   39.0550 C   0  0  0  0  0  0  0  0  0  0  0  0
   36.7650   28.7260   37.9740 H   0  0  0  0  0  0  0  0  0  0  0  0
   35.9920   28.5970   39.5800 H   0  0  0  0  0  0  0  0  0  0  0  0
   37.1450   30.3190   39.3280 N   0  0  0  0  0  0  0  0  0  0  0  0
   38.0870   30.8950   38.5470 C   0  0  0  0  0  3  0  0  0  0  0  0
   38.3820   32.2290   38.7360 C   0  0  0  0  0  0  0  0  0  0  0  0
   39.1450   32.7230   38.1140 H   0  0  0  0  0  0  0  0  0  0  0  0
   37.7080   32.9370   39.7160 C   0  0  0  0  0  0  0  0  0  0  0  0
   37.9440   34.1590   39.9270 O   0  0  0  0  0  0  0  0  0  0  0  0
   36.7780   32.3120   40.4680 N   0  0  0  0  0  0  0  0  0  0  0  0
   36.5030   31.0260   40.2750 C   0  0  0  0  0  0  0  0  0  0  0  0
   35.6530   30.3640   40.9270 O   0  0  0  0  0  0  0  0  0  0  0  0
   36.2510   32.8390   41.2240 H   0  0  0  0  0  0  0  0  0  0  0  0
  1  4  1  0  0  0  0
  2  1  1  0  0  0  0
  3  1  1  0  0  0  0
  4  9  2  0  0  0  0
  4  5  1  0  0  0  0
  5  6  2  0  0  0  0
  6 10  1  0  0  0  0
  6  7  1  0  0  0  0
  8 11  1  0  0  0  0
  8  7  2  0  0  0  0
  9  8  1  0  0  0  0
 12 13  1  0  0  0  0
 12  5  1  0  0  0  0
 14 17  1  0  0  0  0
 14  1  1  0  0  0  0
 14 16  1  0  0  0  0
 15 14  1  0  0  0  0
 17 24  1  0  0  0  0
 18 19  2  0  0  0  0
 18 17  1  0  0  0  0
 19 21  1  0  0  0  0
 20 19  1  0  0  0  0
 21 22  2  0  0  0  0
 21 23  1  0  0  0  0
 23 26  1  0  0  0  0
 24 23  1  0  0  0  0
 24 25  2  0  0  0  0
M  END
>  <minimizedAffinity>
-4.358284

$$$$

 OpenBabel03252507413D

 26 27  0  0  0  0  0  0  0  0999 V2000
   37.2810   31.3200   40.6260 C   0  0  0  0  0  0  0  0  0  0  0  0
   38.2430   31.4150   41.1520 H   0  0  0  0  0  0  0  0  0  0  0  0
   36.4970   31.7060   41.3400 H   0  0  0  0  0  0  0  0  0  0  0  0
   36.9230   29.9190   40.3460 C   0  0  0  0  0  0  0  0  0  0  0  0
   37.4380   28.9720   41.2440 C   0  0  0  0  0  0  0  0  0  0  0  0
   37.1360   27.6260   41.0350 C   0  0  0  0  0  0  0  0  0  0  0  0
   36.3500   27.2890   39.9640 N   0  0  0  0  0  0  0  0  0  0  0  0
   35.8770   28.2220   39.1290 C   0  0  0  0  0  0  0  0  0  0  0  0
   36.1510   29.5210   39.3040 N   0  0  0  0  0  0  0  0  0  0  0  0
   37.5150   26.8700   41.7060 H   0  0  0  0  0  0  0  0  0  0  0  0
   35.2690   27.8660   38.3160 H   0  0  0  0  0  0  0  0  0  0  0  0
   38.4590   29.4750   42.6220 S   0  0  0  0  0  0  0  0  0  0  0  0
   38.1010   28.6650   43.7250 H   0  0  0  0  0  0  0  0  0  0  0  0
   37.1830   32.1940   39.4050 C   0  0  0  0  0  0  0  0  0  0  0  0
   36.4030   31.7650   38.7450 H   0  0  0  0  0  0  0  0  0  0  0  0
   36.8400   33.1940   39.7240 H   0  0  0  0  0  0  0  0  0  0  0  0
   38.4550   32.3170   38.7350 N   0  0  0  0  0  0  0  0  0  0  0  0
   39.4430   32.8440   39.4940 C   0  0  0  0  0  3  0  0  0  0  0  0
   40.6970   33.0000   38.9380 C   0  0  0  0  0  0  0  0  0  0  0  0
   41.5190   33.4270   39.5320 H   0  0  0  0  0  0  0  0  0  0  0  0
   40.9040   32.6130   37.6250 C   0  0  0  0  0  0  0  0  0  0  0  0
   42.0330   32.7360   37.0720 O   0  0  0  0  0  0  0  0  0  0  0  0
   39.8830   32.0930   36.9140 N   0  0  0  0  0  0  0  0  0  0  0  0
   38.6810   31.9480   37.4620 C   0  0  0  0  0  0  0  0  0  0  0  0
   37.6730   31.4730   36.8750 O   0  0  0  0  0  0  0  0  0  0  0  0
   40.0240   31.7910   35.9060 H   0  0  0  0  0  0  0  0  0  0  0  0
  1  2  1  0  0  0  0
  1  3  1  0  0  0  0
  4  1  1  0  0  0  0
  4  5  1  0  0  0  0
  5 12  1  0  0  0  0
  6  5  2  0  0  0  0
  6 10  1  0  0  0  0
  7  6  1  0  0  0  0
  8  9  1  0  0  0  0
  8  7  2  0  0  0  0
  9  4  2  0  0  0  0
 11  8  1  0  0  0  0
 12 13  1  0  0  0  0
 14 16  1  0  0  0  0
 14  1  1  0  0  0  0
 15 14  1  0  0  0  0
 17 14  1  0  0  0  0
 17 18  1  0  0  0  0
 19 18  2  0  0  0  0
 19 20  1  0  0  0  0
 21 19  1  0  0  0  0
 22 21  2  0  0  0  0
 23 24  1  0  0  0  0
 23 21  1  0  0  0  0
 24 17  1  0  0  0  0
 25 24  2  0  0  0  0
 26 23  1  0  0  0  0
M  END
>  <minimizedAffinity>
-4.29406261

$$$$
