
 OpenBabel03252509293D

 22 23  0  0  0  0  0  0  0  0999 V2000
   47.5740   35.1720   41.7150 C   0  0  0  0  0  0  0  0  0  0  0  0
   47.9180   36.2310   41.7270 H   0  0  0  0  0  0  0  0  0  0  0  0
   47.0010   34.9740   40.7960 H   0  0  0  0  0  0  0  0  0  0  0  0
   48.7350   34.2800   41.6750 N   0  0  0  0  0  0  0  0  0  0  0  0
   49.7890   34.3770   42.5370 C   0  0  0  0  0  3  0  0  0  0  0  0
   50.8070   33.4720   42.3810 C   0  0  0  0  0  0  0  0  0  0  0  0
   51.6520   33.5480   43.0710 H   0  0  0  0  0  0  0  0  0  0  0  0
   50.7960   32.4900   41.4000 C   0  0  0  0  0  0  0  0  0  0  0  0
   51.7430   31.6970   41.3030 O   0  0  0  0  0  0  0  0  0  0  0  0
   49.7580   32.3980   40.5550 N   0  0  0  0  0  0  0  0  0  0  0  0
   48.7750   33.3000   40.7330 C   0  0  0  0  0  0  0  0  0  0  0  0
   47.7810   33.2250   39.9370 O   0  0  0  0  0  0  0  0  0  0  0  0
   49.6770   31.6910   39.7950 H   0  0  0  0  0  0  0  0  0  0  0  0
   46.2620   33.5710   44.8080 C   0  0  0  0  0  0  0  0  0  0  0  0
   47.0740   33.8280   43.6890 C   0  0  0  0  0  0  0  0  0  0  0  0
   46.7180   34.9160   42.8770 C   0  0  0  0  0  0  0  0  0  0  0  0
   45.6140   35.6620   43.2090 N   0  0  0  0  0  0  0  0  0  0  0  0
   44.8680   35.3690   44.2970 C   0  0  0  0  0  0  0  0  0  0  0  0
   45.1920   34.3270   45.0940 N   0  0  0  0  0  0  0  0  0  0  0  0
   46.5590   32.7280   45.4160 H   0  0  0  0  0  0  0  0  0  0  0  0
   47.9320   33.1940   43.4880 H   0  0  0  0  0  0  0  0  0  0  0  0
   44.0610   36.0530   44.3920 H   0  0  0  0  0  0  0  0  0  0  0  0
  1  2  1  0  0  0  0
  1 16  1  0  0  0  0
  3  1  1  0  0  0  0
  4  1  1  0  0  0  0
  4  5  1  0  0  0  0
  6  5  2  0  0  0  0
  6  7  1  0  0  0  0
  8  6  1  0  0  0  0
  9  8  2  0  0  0  0
 10 11  1  0  0  0  0
 10  8  1  0  0  0  0
 11  4  1  0  0  0  0
 12 11  2  0  0  0  0
 13 10  1  0  0  0  0
 14 19  1  0  0  0  0
 14 20  1  0  0  0  0
 15 14  2  0  0  0  0
 16 17  2  0  0  0  0
 16 15  1  0  0  0  0
 17 18  1  0  0  0  0
 18 22  1  0  0  0  0
 18 19  2  0  0  0  0
 21 15  1  0  0  0  0
M  END
>  <minimizedAffinity>
-4.44619465

>  <minimizedRMSD>
2.99542832

$$$$
