
 OpenBabel03252509293D

 22 23  0  0  0  0  0  0  0  0999 V2000
   46.6820   34.9190   41.6730 C   0  0  0  0  0  0  0  0  0  0  0  0
   46.7560   35.9590   41.2820 H   0  0  0  0  0  0  0  0  0  0  0  0
   46.0900   34.3000   40.9830 H   0  0  0  0  0  0  0  0  0  0  0  0
   48.0170   34.3180   41.7190 N   0  0  0  0  0  0  0  0  0  0  0  0
   49.0010   34.7320   42.5710 C   0  0  0  0  0  3  0  0  0  0  0  0
   50.2020   34.0760   42.5030 C   0  0  0  0  0  0  0  0  0  0  0  0
   50.9910   34.4070   43.1840 H   0  0  0  0  0  0  0  0  0  0  0  0
   50.4400   33.0320   41.6180 C   0  0  0  0  0  0  0  0  0  0  0  0
   51.5460   32.4740   41.5980 O   0  0  0  0  0  0  0  0  0  0  0  0
   49.4710   32.6290   40.7840 N   0  0  0  0  0  0  0  0  0  0  0  0
   48.3030   33.2920   40.8740 C   0  0  0  0  0  0  0  0  0  0  0  0
   47.3730   32.9190   40.0860 O   0  0  0  0  0  0  0  0  0  0  0  0
   49.5720   31.8550   40.0920 H   0  0  0  0  0  0  0  0  0  0  0  0
   44.6070   36.0670   44.5420 C   0  0  0  0  0  0  0  0  0  0  0  0
   45.2370   36.0450   43.2850 C   0  0  0  0  0  0  0  0  0  0  0  0
   46.0330   34.9280   42.9870 C   0  0  0  0  0  0  0  0  0  0  0  0
   46.1560   33.9300   43.9210 N   0  0  0  0  0  0  0  0  0  0  0  0
   45.5270   34.0030   45.1150 C   0  0  0  0  0  0  0  0  0  0  0  0
   44.7560   35.0680   45.4240 N   0  0  0  0  0  0  0  0  0  0  0  0
   44.0010   36.9380   44.7450 H   0  0  0  0  0  0  0  0  0  0  0  0
   45.0950   36.8720   42.5960 H   0  0  0  0  0  0  0  0  0  0  0  0
   45.7390   33.1430   45.7020 H   0  0  0  0  0  0  0  0  0  0  0  0
  1  4  1  0  0  0  0
  1 16  1  0  0  0  0
  2  1  1  0  0  0  0
  3  1  1  0  0  0  0
  4  5  1  0  0  0  0
  6  5  2  0  0  0  0
  6  7  1  0  0  0  0
  8  6  1  0  0  0  0
  9  8  2  0  0  0  0
 10 11  1  0  0  0  0
 10  8  1  0  0  0  0
 11  4  1  0  0  0  0
 12 11  2  0  0  0  0
 13 10  1  0  0  0  0
 14 20  1  0  0  0  0
 14 19  1  0  0  0  0
 15 14  2  0  0  0  0
 16 15  1  0  0  0  0
 16 17  2  0  0  0  0
 17 18  1  0  0  0  0
 18 19  2  0  0  0  0
 18 22  1  0  0  0  0
 21 15  1  0  0  0  0
M  END
>  <minimizedAffinity>
-4.48651218

>  <minimizedRMSD>
2.37085915

$$$$
