
 OpenBabel03252509283D

 22 23  0  0  0  0  0  0  0  0999 V2000
   45.6990   33.0860   39.6060 C   0  0  0  0  0  0  0  0  0  0  0  0
   45.1500   33.6910   38.8490 H   0  0  0  0  0  0  0  0  0  0  0  0
   46.2740   32.2920   39.1070 H   0  0  0  0  0  0  0  0  0  0  0  0
   46.6770   33.9320   40.2920 N   0  0  0  0  0  0  0  0  0  0  0  0
   46.5240   34.3740   41.5750 C   0  0  0  0  0  3  0  0  0  0  0  0
   47.5230   35.1590   42.0880 C   0  0  0  0  0  0  0  0  0  0  0  0
   47.4000   35.5140   43.1160 H   0  0  0  0  0  0  0  0  0  0  0  0
   48.6530   35.5090   41.3620 C   0  0  0  0  0  0  0  0  0  0  0  0
   49.5260   36.2230   41.8750 O   0  0  0  0  0  0  0  0  0  0  0  0
   48.7990   35.0730   40.1010 N   0  0  0  0  0  0  0  0  0  0  0  0
   47.8030   34.3030   39.6260 C   0  0  0  0  0  0  0  0  0  0  0  0
   47.9290   33.8820   38.4300 O   0  0  0  0  0  0  0  0  0  0  0  0
   49.6170   35.2910   39.4930 H   0  0  0  0  0  0  0  0  0  0  0  0
   42.5420   32.4740   41.4820 C   0  0  0  0  0  0  0  0  0  0  0  0
   43.4670   33.0500   40.5930 C   0  0  0  0  0  0  0  0  0  0  0  0
   44.7460   32.4740   40.5360 C   0  0  0  0  0  0  0  0  0  0  0  0
   45.0260   31.3940   41.3370 N   0  0  0  0  0  0  0  0  0  0  0  0
   44.0970   30.8800   42.1740 C   0  0  0  0  0  0  0  0  0  0  0  0
   42.8600   31.4180   42.2450 N   0  0  0  0  0  0  0  0  0  0  0  0
   41.5660   32.9370   41.5050 H   0  0  0  0  0  0  0  0  0  0  0  0
   43.1750   33.9050   39.9910 H   0  0  0  0  0  0  0  0  0  0  0  0
   44.4940   30.0520   42.7090 H   0  0  0  0  0  0  0  0  0  0  0  0
  1  4  1  0  0  0  0
  1 16  1  0  0  0  0
  2  1  1  0  0  0  0
  3  1  1  0  0  0  0
  4  5  1  0  0  0  0
  5  6  2  0  0  0  0
  6  7  1  0  0  0  0
  8  9  2  0  0  0  0
  8  6  1  0  0  0  0
 10  8  1  0  0  0  0
 11 10  1  0  0  0  0
 11  4  1  0  0  0  0
 12 11  2  0  0  0  0
 13 10  1  0  0  0  0
 14 20  1  0  0  0  0
 14 19  1  0  0  0  0
 15 14  2  0  0  0  0
 16 15  1  0  0  0  0
 16 17  2  0  0  0  0
 17 18  1  0  0  0  0
 18 19  2  0  0  0  0
 18 22  1  0  0  0  0
 21 15  1  0  0  0  0
M  END
>  <minimizedAffinity>
-3.74764276

>  <minimizedRMSD>
3.90460467

$$$$
