
 OpenBabel03252506453D

 37 39  0  0  1  0  0  0  0  0999 V2000
   49.4420   33.3750   41.4180 N   0  0  1  0  0  0  0  0  0  0  0  0
   50.6910   33.1010   42.0870 C   0  0  0  0  0  0  0  0  0  0  0  0
   51.3030   31.7760   41.7430 C   0  0  0  0  0  0  0  0  0  0  0  0
   50.3990   30.6680   42.2360 C   0  0  0  0  0  0  0  0  0  0  0  0
   48.9550   31.0610   42.1160 C   0  0  0  0  0  0  0  0  0  0  0  0
   48.8120   32.1530   41.0630 C   0  0  2  0  0  0  0  0  0  0  0  0
   50.4560   33.0560   43.1830 H   0  0  0  0  0  0  0  0  0  0  0  0
   51.4000   33.9380   41.9210 H   0  0  0  0  0  0  0  0  0  0  0  0
   51.6320   31.6670   40.7110 H   0  0  0  0  0  0  0  0  0  0  0  0
   52.2470   31.7200   42.3510 H   0  0  0  0  0  0  0  0  0  0  0  0
   50.5940   29.7990   41.5440 H   0  0  0  0  0  0  0  0  0  0  0  0
   50.6470   30.3550   43.2730 H   0  0  0  0  0  0  0  0  0  0  0  0
   48.3160   30.2310   41.7760 H   0  0  0  0  0  0  0  0  0  0  0  0
   48.6010   31.4770   43.0680 H   0  0  0  0  0  0  0  0  0  0  0  0
   47.6980   32.3260   41.0220 H   0  0  0  0  0  0  0  0  0  0  0  0
   47.2850   34.6640   41.9770 C   0  0  1  0  0  0  0  0  0  0  0  0
   48.4060   35.6020   41.7400 C   0  0  0  0  0  0  0  0  0  0  0  0
   48.6850   34.2400   42.2400 C   0  0  2  0  0  0  0  0  0  0  0  0
   46.7730   34.2310   41.0900 H   0  0  0  0  0  0  0  0  0  0  0  0
   48.6120   35.8720   40.6740 H   0  0  0  0  0  0  0  0  0  0  0  0
   48.4590   36.4880   42.4200 H   0  0  0  0  0  0  0  0  0  0  0  0
   48.9290   34.1840   43.3310 H   0  0  0  0  0  0  0  0  0  0  0  0
   45.5440   36.0450   43.1320 C   0  0  0  0  0  0  0  0  0  0  0  0
   46.3560   34.8990   43.1000 C   0  0  0  0  0  0  0  0  0  0  0  0
   46.2530   33.9810   44.1560 C   0  0  0  0  0  0  0  0  0  0  0  0
   45.3770   34.2460   45.1510 N   0  0  0  0  0  0  0  0  0  0  0  0
   44.6050   35.3540   45.1650 C   0  0  0  0  0  0  0  0  0  0  0  0
   44.6830   36.2600   44.1590 N   0  0  0  0  0  0  0  0  0  0  0  0
   45.6540   36.7270   42.3000 H   0  0  0  0  0  0  0  0  0  0  0  0
   46.8740   33.0800   44.1550 H   0  0  0  0  0  0  0  0  0  0  0  0
   43.9070   35.5460   45.9750 H   0  0  0  0  0  0  0  0  0  0  0  0
   49.1980   31.6190   39.7890 N   0  0  0  0  0  0  0  0  0  0  0  0
   50.1800   31.8900   39.5180 H   0  0  0  0  0  0  0  0  0  0  0  0
   48.0800   32.1950   38.5930 S   0  0  0  0  0  0  0  0  0  0  0  0
   46.4280   32.2890   39.1770 C   0  0  0  0  0  1  0  0  0  0  0  0
   48.5580   33.5700   38.1820 O   0  0  0  0  0  0  0  0  0  0  0  0
   48.1540   31.3100   37.3880 O   0  0  0  0  0  0  0  0  0  0  0  0
  1  2  1  1  0  0  0
  1 18  1  0  0  0  0
  2  7  1  0  0  0  0
  3  2  1  0  0  0  0
  3  4  1  0  0  0  0
  3 10  1  0  0  0  0
  4 12  1  0  0  0  0
  5  4  1  0  0  0  0
  5 14  1  0  0  0  0
  6 15  1  6  0  0  0
  6  1  1  0  0  0  0
  6  5  1  0  0  0  0
  8  2  1  0  0  0  0
  9  3  1  0  0  0  0
 11  4  1  0  0  0  0
 13  5  1  0  0  0  0
 16 19  1  6  0  0  0
 16 18  1  0  0  0  0
 16 24  1  0  0  0  0
 17 16  1  0  0  0  0
 17 18  1  0  0  0  0
 17 21  1  0  0  0  0
 18 22  1  1  0  0  0
 20 17  1  0  0  0  0
 23 28  1  0  0  0  0
 24 23  2  0  0  0  0
 24 25  1  0  0  0  0
 25 26  2  0  0  0  0
 26 27  1  0  0  0  0
 27 31  1  0  0  0  0
 28 27  2  0  0  0  0
 29 23  1  0  0  0  0
 30 25  1  0  0  0  0
 32  6  1  0  0  0  0
 33 32  1  0  0  0  0
 34 35  1  0  0  0  0
 34 32  1  0  0  0  0
 36 34  2  0  0  0  0
 37 34  2  0  0  0  0
M  END
>  <minimizedAffinity>
-4.65664911

>  <minimizedRMSD>
0.935809135

$$$$
