
 OpenBabel03252506453D

 37 39  0  0  1  0  0  0  0  0999 V2000
   49.4660   33.4120   41.3980 N   0  0  1  0  0  0  0  0  0  0  0  0
   50.6950   33.1030   42.0900 C   0  0  0  0  0  0  0  0  0  0  0  0
   51.2960   31.7780   41.7280 C   0  0  0  0  0  0  0  0  0  0  0  0
   50.3640   30.6720   42.1720 C   0  0  0  0  0  0  0  0  0  0  0  0
   48.9300   31.0890   42.0280 C   0  0  0  0  0  0  0  0  0  0  0  0
   48.8270   32.2080   40.9980 C   0  0  2  0  0  0  0  0  0  0  0  0
   50.4330   33.0350   43.1790 H   0  0  0  0  0  0  0  0  0  0  0  0
   51.4190   33.9330   41.9610 H   0  0  0  0  0  0  0  0  0  0  0  0
   51.6480   31.6890   40.7020 H   0  0  0  0  0  0  0  0  0  0  0  0
   52.2240   31.6930   42.3570 H   0  0  0  0  0  0  0  0  0  0  0  0
   50.5640   29.8170   41.4630 H   0  0  0  0  0  0  0  0  0  0  0  0
   50.5830   30.3300   43.2070 H   0  0  0  0  0  0  0  0  0  0  0  0
   48.2870   30.2780   41.6520 H   0  0  0  0  0  0  0  0  0  0  0  0
   48.5580   31.4870   42.9810 H   0  0  0  0  0  0  0  0  0  0  0  0
   47.7180   32.3990   40.9350 H   0  0  0  0  0  0  0  0  0  0  0  0
   47.2980   34.6800   41.9620 C   0  0  1  0  0  0  0  0  0  0  0  0
   48.4110   35.6290   41.7270 C   0  0  0  0  0  0  0  0  0  0  0  0
   48.7030   34.2670   42.2230 C   0  0  2  0  0  0  0  0  0  0  0  0
   46.7890   34.2450   41.0740 H   0  0  0  0  0  0  0  0  0  0  0  0
   48.6140   35.9040   40.6610 H   0  0  0  0  0  0  0  0  0  0  0  0
   48.4560   36.5130   42.4090 H   0  0  0  0  0  0  0  0  0  0  0  0
   48.9470   34.2110   43.3140 H   0  0  0  0  0  0  0  0  0  0  0  0
   45.5510   36.0460   43.1260 C   0  0  0  0  0  0  0  0  0  0  0  0
   46.3680   34.9040   43.0870 C   0  0  0  0  0  0  0  0  0  0  0  0
   46.2690   33.9790   44.1360 C   0  0  0  0  0  0  0  0  0  0  0  0
   45.3920   34.2330   45.1330 N   0  0  0  0  0  0  0  0  0  0  0  0
   44.6140   35.3380   45.1530 C   0  0  0  0  0  0  0  0  0  0  0  0
   44.6880   36.2500   44.1540 N   0  0  0  0  0  0  0  0  0  0  0  0
   45.6580   36.7340   42.2980 H   0  0  0  0  0  0  0  0  0  0  0  0
   46.8940   33.0800   44.1290 H   0  0  0  0  0  0  0  0  0  0  0  0
   43.9160   35.5210   45.9650 H   0  0  0  0  0  0  0  0  0  0  0  0
   49.2370   31.6990   39.7210 N   0  0  0  0  0  0  0  0  0  0  0  0
   50.2300   31.9600   39.4820 H   0  0  0  0  0  0  0  0  0  0  0  0
   48.1600   32.3250   38.5130 S   0  0  0  0  0  0  0  0  0  0  0  0
   48.0760   31.3250   37.0740 C   0  0  0  0  0  1  0  0  0  0  0  0
   46.7920   32.4110   39.1570 O   0  0  0  0  0  0  0  0  0  0  0  0
   48.5810   33.7150   38.1550 O   0  0  0  0  0  0  0  0  0  0  0  0
  1  2  1  1  0  0  0
  1 18  1  0  0  0  0
  2  7  1  0  0  0  0
  3  2  1  0  0  0  0
  3  4  1  0  0  0  0
  3 10  1  0  0  0  0
  4 12  1  0  0  0  0
  5  4  1  0  0  0  0
  5 14  1  0  0  0  0
  6 15  1  6  0  0  0
  6  1  1  0  0  0  0
  6  5  1  0  0  0  0
  8  2  1  0  0  0  0
  9  3  1  0  0  0  0
 11  4  1  0  0  0  0
 13  5  1  0  0  0  0
 16 19  1  6  0  0  0
 16 18  1  0  0  0  0
 16 24  1  0  0  0  0
 17 16  1  0  0  0  0
 17 18  1  0  0  0  0
 17 21  1  0  0  0  0
 18 22  1  1  0  0  0
 20 17  1  0  0  0  0
 23 28  1  0  0  0  0
 24 23  2  0  0  0  0
 24 25  1  0  0  0  0
 25 26  2  0  0  0  0
 26 27  1  0  0  0  0
 27 31  1  0  0  0  0
 28 27  2  0  0  0  0
 29 23  1  0  0  0  0
 30 25  1  0  0  0  0
 32  6  1  0  0  0  0
 33 32  1  0  0  0  0
 34 36  2  0  0  0  0
 34 32  1  0  0  0  0
 35 34  1  0  0  0  0
 37 34  2  0  0  0  0
M  END
>  <minimizedAffinity>
-4.68170738

>  <minimizedRMSD>
1.0275203

$$$$
