
 OpenBabel03252506473D

 37 39  0  0  1  0  0  0  0  0999 V2000
   37.2300   29.9440   40.6860 N   0  0  1  0  0  0  0  0  0  0  0  0
   37.5920   31.3040   41.0070 C   0  0  0  0  0  0  0  0  0  0  0  0
   37.3930   32.2810   39.8860 C   0  0  0  0  0  0  0  0  0  0  0  0
   38.3310   31.9330   38.7510 C   0  0  0  0  0  0  0  0  0  0  0  0
   38.5110   30.4480   38.6400 C   0  0  0  0  0  0  0  0  0  0  0  0
   37.3220   29.7420   39.2830 C   0  0  2  0  0  0  0  0  0  0  0  0
   38.6950   31.2940   41.2130 H   0  0  0  0  0  0  0  0  0  0  0  0
   37.0720   31.6250   41.9310 H   0  0  0  0  0  0  0  0  0  0  0  0
   36.3590   32.4430   39.5860 H   0  0  0  0  0  0  0  0  0  0  0  0
   37.7310   33.2720   40.2950 H   0  0  0  0  0  0  0  0  0  0  0  0
   37.8140   32.3050   37.8200 H   0  0  0  0  0  0  0  0  0  0  0  0
   39.3090   32.4520   38.8430 H   0  0  0  0  0  0  0  0  0  0  0  0
   38.5350   30.0990   37.5950 H   0  0  0  0  0  0  0  0  0  0  0  0
   39.4100   30.1380   39.1880 H   0  0  0  0  0  0  0  0  0  0  0  0
   37.5370   28.6520   39.0940 H   0  0  0  0  0  0  0  0  0  0  0  0
   37.4830   28.0610   42.4230 C   0  0  1  0  0  0  0  0  0  0  0  0
   38.0510   29.3270   42.9400 C   0  0  0  0  0  0  0  0  0  0  0  0
   38.0160   29.0820   41.4830 C   0  0  2  0  0  0  0  0  0  0  0  0
   36.3790   27.9290   42.4700 H   0  0  0  0  0  0  0  0  0  0  0  0
   37.3300   30.0380   43.4170 H   0  0  0  0  0  0  0  0  0  0  0  0
   39.0040   29.2390   43.5160 H   0  0  0  0  0  0  0  0  0  0  0  0
   39.0000   28.7930   41.0340 H   0  0  0  0  0  0  0  0  0  0  0  0
   39.3290   26.7370   43.4760 C   0  0  0  0  0  0  0  0  0  0  0  0
   38.2070   26.7920   42.6320 C   0  0  0  0  0  0  0  0  0  0  0  0
   37.7890   25.6110   42.0030 C   0  0  0  0  0  0  0  0  0  0  0  0
   38.4870   24.4770   42.2400 N   0  0  0  0  0  0  0  0  0  0  0  0
   39.5640   24.4440   43.0550 C   0  0  0  0  0  0  0  0  0  0  0  0
   39.9920   25.5700   43.6770 N   0  0  0  0  0  0  0  0  0  0  0  0
   39.6190   27.6690   43.9410 H   0  0  0  0  0  0  0  0  0  0  0  0
   36.9180   25.6260   41.3410 H   0  0  0  0  0  0  0  0  0  0  0  0
   40.1100   23.5210   43.2320 H   0  0  0  0  0  0  0  0  0  0  0  0
   36.1370   30.0680   38.5440 N   0  0  0  0  0  0  0  0  0  0  0  0
   35.7310   31.0010   38.8220 H   0  0  0  0  0  0  0  0  0  0  0  0
   34.9650   28.8170   38.8110 S   0  0  0  0  0  0  0  0  0  0  0  0
   33.8530   28.6110   37.4680 C   0  0  0  0  0  1  0  0  0  0  0  0
   35.7420   27.5380   39.0340 O   0  0  0  0  0  0  0  0  0  0  0  0
   34.2090   29.1140   40.0680 O   0  0  0  0  0  0  0  0  0  0  0  0
  1  2  1  6  0  0  0
  1 18  1  0  0  0  0
  2  7  1  0  0  0  0
  2  8  1  0  0  0  0
  3 10  1  0  0  0  0
  3  2  1  0  0  0  0
  4 12  1  0  0  0  0
  4  3  1  0  0  0  0
  5  4  1  0  0  0  0
  5 14  1  0  0  0  0
  5  6  1  0  0  0  0
  6 15  1  6  0  0  0
  6  1  1  0  0  0  0
  9  3  1  0  0  0  0
 11  4  1  0  0  0  0
 13  5  1  0  0  0  0
 16 19  1  1  0  0  0
 16 24  1  0  0  0  0
 16 17  1  0  0  0  0
 17 20  1  0  0  0  0
 17 21  1  0  0  0  0
 18 22  1  6  0  0  0
 18 16  1  0  0  0  0
 18 17  1  0  0  0  0
 23 28  1  0  0  0  0
 23 29  1  0  0  0  0
 24 23  2  0  0  0  0
 25 26  2  0  0  0  0
 25 24  1  0  0  0  0
 26 27  1  0  0  0  0
 27 31  1  0  0  0  0
 27 28  2  0  0  0  0
 30 25  1  0  0  0  0
 32 34  1  0  0  0  0
 32 33  1  0  0  0  0
 32  6  1  0  0  0  0
 34 36  2  0  0  0  0
 34 37  2  0  0  0  0
 35 34  1  0  0  0  0
M  END
>  <minimizedAffinity>
-4.78845644

$$$$

 OpenBabel03252506473D

 37 39  0  0  1  0  0  0  0  0999 V2000
   37.5610   28.6050   40.7080 N   0  0  1  0  0  0  0  0  0  0  0  0
   37.8930   29.6470   41.6510 C   0  0  0  0  0  0  0  0  0  0  0  0
   38.4760   29.1520   42.9420 C   0  0  0  0  0  0  0  0  0  0  0  0
   37.4340   28.3390   43.6790 C   0  0  0  0  0  0  0  0  0  0  0  0
   36.5750   27.5710   42.7170 C   0  0  0  0  0  0  0  0  0  0  0  0
   37.3220   27.3890   41.4010 C   0  0  2  0  0  0  0  0  0  0  0  0
   36.9240   30.1440   41.9230 H   0  0  0  0  0  0  0  0  0  0  0  0
   38.5440   30.4020   41.1670 H   0  0  0  0  0  0  0  0  0  0  0  0
   39.4500   28.6750   42.8620 H   0  0  0  0  0  0  0  0  0  0  0  0
   38.6590   30.0760   43.5550 H   0  0  0  0  0  0  0  0  0  0  0  0
   38.0220   27.6050   44.3020 H   0  0  0  0  0  0  0  0  0  0  0  0
   36.8180   28.9650   44.3590 H   0  0  0  0  0  0  0  0  0  0  0  0
   36.3430   26.5550   43.0720 H   0  0  0  0  0  0  0  0  0  0  0  0
   35.6610   28.1380   42.4980 H   0  0  0  0  0  0  0  0  0  0  0  0
   36.6130   26.7640   40.7870 H   0  0  0  0  0  0  0  0  0  0  0  0
   36.6060   29.3990   38.4530 C   0  0  1  0  0  0  0  0  0  0  0  0
   36.5300   30.4810   39.4610 C   0  0  0  0  0  0  0  0  0  0  0  0
   36.5000   29.0700   39.8990 C   0  0  2  0  0  0  0  0  0  0  0  0
   37.5830   29.2220   37.9530 H   0  0  0  0  0  0  0  0  0  0  0  0
   37.4520   31.1020   39.5960 H   0  0  0  0  0  0  0  0  0  0  0  0
   35.6000   31.1010   39.4490 H   0  0  0  0  0  0  0  0  0  0  0  0
   35.4870   28.6930   40.1900 H   0  0  0  0  0  0  0  0  0  0  0  0
   34.1820   28.9010   38.0670 C   0  0  0  0  0  0  0  0  0  0  0  0
   35.4630   29.1560   37.5500 C   0  0  0  0  0  0  0  0  0  0  0  0
   35.6260   29.1840   36.1570 C   0  0  0  0  0  0  0  0  0  0  0  0
   34.5400   28.9640   35.3820 N   0  0  0  0  0  0  0  0  0  0  0  0
   33.3150   28.7200   35.8970 C   0  0  0  0  0  0  0  0  0  0  0  0
   33.1280   28.6870   37.2390 N   0  0  0  0  0  0  0  0  0  0  0  0
   34.1000   28.8880   39.1450 H   0  0  0  0  0  0  0  0  0  0  0  0
   36.6130   29.3810   35.7290 H   0  0  0  0  0  0  0  0  0  0  0  0
   32.4570   28.5460   35.2550 H   0  0  0  0  0  0  0  0  0  0  0  0
   38.4880   26.5880   41.6390 N   0  0  0  0  0  0  0  0  0  0  0  0
   39.3380   26.9510   41.1330 H   0  0  0  0  0  0  0  0  0  0  0  0
   38.1490   24.9650   41.1260 S   0  0  0  0  0  0  0  0  0  0  0  0
   36.9390   24.8780   39.8570 C   0  0  0  0  0  1  0  0  0  0  0  0
   39.4560   24.3870   40.6290 O   0  0  0  0  0  0  0  0  0  0  0  0
   37.7170   24.1580   42.3100 O   0  0  0  0  0  0  0  0  0  0  0  0
  1  6  1  0  0  0  0
  1  2  1  1  0  0  0
  2  7  1  0  0  0  0
  2  3  1  0  0  0  0
  3 10  1  0  0  0  0
  3  4  1  0  0  0  0
  4 11  1  0  0  0  0
  4 12  1  0  0  0  0
  5 13  1  0  0  0  0
  5  4  1  0  0  0  0
  6 15  1  6  0  0  0
  6 32  1  0  0  0  0
  6  5  1  0  0  0  0
  8  2  1  0  0  0  0
  9  3  1  0  0  0  0
 14  5  1  0  0  0  0
 16 19  1  6  0  0  0
 16 17  1  0  0  0  0
 16 18  1  0  0  0  0
 17 20  1  0  0  0  0
 17 18  1  0  0  0  0
 18 22  1  1  0  0  0
 18  1  1  0  0  0  0
 21 17  1  0  0  0  0
 23 29  1  0  0  0  0
 24 23  1  0  0  0  0
 24 16  1  0  0  0  0
 25 24  2  0  0  0  0
 26 27  2  0  0  0  0
 26 25  1  0  0  0  0
 27 28  1  0  0  0  0
 28 23  2  0  0  0  0
 30 25  1  0  0  0  0
 31 27  1  0  0  0  0
 33 32  1  0  0  0  0
 34 32  1  0  0  0  0
 34 37  2  0  0  0  0
 35 34  1  0  0  0  0
 36 34  2  0  0  0  0
M  END
>  <minimizedAffinity>
-4.57356691

$$$$

 OpenBabel03252506473D

 37 39  0  0  1  0  0  0  0  0999 V2000
   36.6360   30.0190   39.8360 N   0  0  1  0  0  0  0  0  0  0  0  0
   35.8460   29.8170   38.6450 C   0  0  0  0  0  0  0  0  0  0  0  0
   35.2720   28.4380   38.5070 C   0  0  0  0  0  0  0  0  0  0  0  0
   36.4000   27.4430   38.3450 C   0  0  0  0  0  0  0  0  0  0  0  0
   37.5960   27.8520   39.1540 C   0  0  0  0  0  0  0  0  0  0  0  0
   37.1530   28.7740   40.2840 C   0  0  2  0  0  0  0  0  0  0  0  0
   36.5480   29.9450   37.7780 H   0  0  0  0  0  0  0  0  0  0  0  0
   35.0640   30.5980   38.5730 H   0  0  0  0  0  0  0  0  0  0  0  0
   34.5300   28.1640   39.2550 H   0  0  0  0  0  0  0  0  0  0  0  0
   34.7070   28.4500   37.5350 H   0  0  0  0  0  0  0  0  0  0  0  0
   35.9980   26.4740   38.7600 H   0  0  0  0  0  0  0  0  0  0  0  0
   36.6690   27.2850   37.2780 H   0  0  0  0  0  0  0  0  0  0  0  0
   38.0910   26.9980   39.6420 H   0  0  0  0  0  0  0  0  0  0  0  0
   38.2960   28.4180   38.5260 H   0  0  0  0  0  0  0  0  0  0  0  0
   38.1110   28.9690   40.8460 H   0  0  0  0  0  0  0  0  0  0  0  0
   38.0130   32.0890   40.5040 C   0  0  1  0  0  0  0  0  0  0  0  0
   37.1160   32.4040   39.3690 C   0  0  0  0  0  0  0  0  0  0  0  0
   37.5960   31.0190   39.5600 C   0  0  2  0  0  0  0  0  0  0  0  0
   37.5730   32.0760   41.5260 H   0  0  0  0  0  0  0  0  0  0  0  0
   36.0640   32.6850   39.6280 H   0  0  0  0  0  0  0  0  0  0  0  0
   37.5450   33.0570   38.5700 H   0  0  0  0  0  0  0  0  0  0  0  0
   38.4130   30.7070   38.8630 H   0  0  0  0  0  0  0  0  0  0  0  0
   39.7670   33.6990   39.7270 C   0  0  0  0  0  0  0  0  0  0  0  0
   39.4040   32.5830   40.5000 C   0  0  0  0  0  0  0  0  0  0  0  0
   40.3930   31.9590   41.2730 C   0  0  0  0  0  0  0  0  0  0  0  0
   41.6480   32.4630   41.2360 N   0  0  0  0  0  0  0  0  0  0  0  0
   41.9780   33.5370   40.4860 C   0  0  0  0  0  0  0  0  0  0  0  0
   41.0430   34.1610   39.7290 N   0  0  0  0  0  0  0  0  0  0  0  0
   38.9750   34.1500   39.1460 H   0  0  0  0  0  0  0  0  0  0  0  0
   40.1370   31.0880   41.8840 H   0  0  0  0  0  0  0  0  0  0  0  0
   42.9920   33.9260   40.4720 H   0  0  0  0  0  0  0  0  0  0  0  0
   36.2920   28.0420   41.1670 N   0  0  0  0  0  0  0  0  0  0  0  0
   35.4020   28.5620   41.3880 H   0  0  0  0  0  0  0  0  0  0  0  0
   37.1610   27.7190   42.6340 S   0  0  0  0  0  0  0  0  0  0  0  0
   38.0860   29.0960   43.2090 C   0  0  0  0  0  1  0  0  0  0  0  0
   36.1300   27.3260   43.6700 O   0  0  0  0  0  0  0  0  0  0  0  0
   38.0610   26.5430   42.4210 O   0  0  0  0  0  0  0  0  0  0  0  0
  1  2  1  6  0  0  0
  1  6  1  0  0  0  0
  3  2  1  0  0  0  0
  3  9  1  0  0  0  0
  4  3  1  0  0  0  0
  4 11  1  0  0  0  0
  4  5  1  0  0  0  0
  5 13  1  0  0  0  0
  5  6  1  0  0  0  0
  6 15  1  1  0  0  0
  6 32  1  0  0  0  0
  7  2  1  0  0  0  0
  8  2  1  0  0  0  0
 10  3  1  0  0  0  0
 12  4  1  0  0  0  0
 14  5  1  0  0  0  0
 16 19  1  1  0  0  0
 17 18  1  0  0  0  0
 17 20  1  0  0  0  0
 17 16  1  0  0  0  0
 18 22  1  6  0  0  0
 18  1  1  0  0  0  0
 18 16  1  0  0  0  0
 21 17  1  0  0  0  0
 23 28  2  0  0  0  0
 23 24  1  0  0  0  0
 24 16  1  0  0  0  0
 24 25  2  0  0  0  0
 25 30  1  0  0  0  0
 26 25  1  0  0  0  0
 27 26  2  0  0  0  0
 28 27  1  0  0  0  0
 29 23  1  0  0  0  0
 31 27  1  0  0  0  0
 32 33  1  0  0  0  0
 32 34  1  0  0  0  0
 34 35  1  0  0  0  0
 34 36  2  0  0  0  0
 37 34  2  0  0  0  0
M  END
>  <minimizedAffinity>
-4.54326296

$$$$

 OpenBabel03252506473D

 37 39  0  0  1  0  0  0  0  0999 V2000
   38.3560   26.3000   42.1310 N   0  0  1  0  0  0  0  0  0  0  0  0
   37.3390   25.2840   42.0040 C   0  0  0  0  0  0  0  0  0  0  0  0
   37.8690   23.8970   41.7970 C   0  0  0  0  0  0  0  0  0  0  0  0
   38.5880   23.8320   40.4660 C   0  0  0  0  0  0  0  0  0  0  0  0
   39.2890   25.1270   40.1730 C   0  0  0  0  0  0  0  0  0  0  0  0
   39.5420   25.8740   41.4770 C   0  0  2  0  0  0  0  0  0  0  0  0
   36.7610   25.5330   41.0750 H   0  0  0  0  0  0  0  0  0  0  0  0
   36.6440   25.3350   42.8660 H   0  0  0  0  0  0  0  0  0  0  0  0
   38.4270   23.4800   42.6330 H   0  0  0  0  0  0  0  0  0  0  0  0
   36.9590   23.2430   41.7060 H   0  0  0  0  0  0  0  0  0  0  0  0
   39.3630   23.0230   40.5910 H   0  0  0  0  0  0  0  0  0  0  0  0
   37.9070   23.5450   39.6360 H   0  0  0  0  0  0  0  0  0  0  0  0
   40.2800   24.9790   39.7160 H   0  0  0  0  0  0  0  0  0  0  0  0
   38.6500   25.7650   39.5500 H   0  0  0  0  0  0  0  0  0  0  0  0
   40.1120   26.7880   41.1430 H   0  0  0  0  0  0  0  0  0  0  0  0
   37.7420   28.7770   42.4750 C   0  0  1  0  0  0  0  0  0  0  0  0
   36.5240   27.9630   42.2570 C   0  0  0  0  0  0  0  0  0  0  0  0
   37.8110   27.5230   41.6780 C   0  0  2  0  0  0  0  0  0  0  0  0
   38.1980   28.7690   43.4900 H   0  0  0  0  0  0  0  0  0  0  0  0
   36.0980   27.4530   43.1570 H   0  0  0  0  0  0  0  0  0  0  0  0
   35.7330   28.4250   41.6170 H   0  0  0  0  0  0  0  0  0  0  0  0
   37.9160   27.7070   40.5800 H   0  0  0  0  0  0  0  0  0  0  0  0
   39.0980   30.7850   41.8400 C   0  0  0  0  0  0  0  0  0  0  0  0
   37.8780   30.0880   41.8100 C   0  0  0  0  0  0  0  0  0  0  0  0
   36.7990   30.6640   41.1240 C   0  0  0  0  0  0  0  0  0  0  0  0
   36.9880   31.8630   40.5260 N   0  0  0  0  0  0  0  0  0  0  0  0
   38.1680   32.5180   40.5670 C   0  0  0  0  0  0  0  0  0  0  0  0
   39.2290   31.9860   41.2220 N   0  0  0  0  0  0  0  0  0  0  0  0
   39.9040   30.3060   42.3800 H   0  0  0  0  0  0  0  0  0  0  0  0
   35.8390   30.1420   41.0850 H   0  0  0  0  0  0  0  0  0  0  0  0
   38.2970   33.4800   40.0780 H   0  0  0  0  0  0  0  0  0  0  0  0
   40.4360   25.0980   42.2870 N   0  0  0  0  0  0  0  0  0  0  0  0
   39.9850   24.7630   43.1790 H   0  0  0  0  0  0  0  0  0  0  0  0
   41.8210   26.0750   42.6620 S   0  0  0  0  0  0  0  0  0  0  0  0
   41.4400   27.4560   43.6760 C   0  0  0  0  0  1  0  0  0  0  0  0
   42.8060   25.1740   43.3730 O   0  0  0  0  0  0  0  0  0  0  0  0
   42.4590   26.5290   41.3870 O   0  0  0  0  0  0  0  0  0  0  0  0
  1  2  1  6  0  0  0
  2  8  1  0  0  0  0
  3  2  1  0  0  0  0
  3  9  1  0  0  0  0
  4 11  1  0  0  0  0
  4  3  1  0  0  0  0
  5  4  1  0  0  0  0
  5  6  1  0  0  0  0
  6 15  1  6  0  0  0
  6  1  1  0  0  0  0
  6 32  1  0  0  0  0
  7  2  1  0  0  0  0
 10  3  1  0  0  0  0
 12  4  1  0  0  0  0
 13  5  1  0  0  0  0
 14  5  1  0  0  0  0
 16 19  1  1  0  0  0
 17 16  1  0  0  0  0
 17 20  1  0  0  0  0
 18 22  1  6  0  0  0
 18  1  1  0  0  0  0
 18 17  1  0  0  0  0
 18 16  1  0  0  0  0
 21 17  1  0  0  0  0
 23 29  1  0  0  0  0
 24 23  1  0  0  0  0
 24 16  1  0  0  0  0
 25 24  2  0  0  0  0
 26 27  2  0  0  0  0
 26 25  1  0  0  0  0
 27 28  1  0  0  0  0
 28 23  2  0  0  0  0
 30 25  1  0  0  0  0
 31 27  1  0  0  0  0
 32 34  1  0  0  0  0
 32 33  1  0  0  0  0
 34 36  2  0  0  0  0
 34 35  1  0  0  0  0
 37 34  2  0  0  0  0
M  END
>  <minimizedAffinity>
-4.5369339

$$$$

 OpenBabel03252506473D

 37 39  0  0  1  0  0  0  0  0999 V2000
   37.9950   31.3500   39.6520 N   0  0  1  0  0  0  0  0  0  0  0  0
   37.0130   32.3830   39.8810 C   0  0  0  0  0  0  0  0  0  0  0  0
   37.4750   33.7670   39.5360 C   0  0  0  0  0  0  0  0  0  0  0  0
   38.6070   34.1580   40.4620 C   0  0  0  0  0  0  0  0  0  0  0  0
   39.4620   32.9700   40.7930 C   0  0  0  0  0  0  0  0  0  0  0  0
   39.2990   31.9090   39.7120 C   0  0  2  0  0  0  0  0  0  0  0  0
   36.8170   32.3910   40.9860 H   0  0  0  0  0  0  0  0  0  0  0  0
   36.0660   32.1250   39.3650 H   0  0  0  0  0  0  0  0  0  0  0  0
   37.6720   33.9460   38.4800 H   0  0  0  0  0  0  0  0  0  0  0  0
   36.6080   34.4380   39.7830 H   0  0  0  0  0  0  0  0  0  0  0  0
   39.2260   34.8950   39.8730 H   0  0  0  0  0  0  0  0  0  0  0  0
   38.2400   34.6610   41.3820 H   0  0  0  0  0  0  0  0  0  0  0  0
   40.5370   33.2130   40.8140 H   0  0  0  0  0  0  0  0  0  0  0  0
   39.1330   32.5250   41.7400 H   0  0  0  0  0  0  0  0  0  0  0  0
   40.0180   31.1020   40.0340 H   0  0  0  0  0  0  0  0  0  0  0  0
   36.7020   29.2440   40.3710 C   0  0  1  0  0  0  0  0  0  0  0  0
   36.4850   30.3440   41.3380 C   0  0  0  0  0  0  0  0  0  0  0  0
   37.7380   30.2950   40.5550 C   0  0  2  0  0  0  0  0  0  0  0  0
   36.1140   29.2580   39.4270 H   0  0  0  0  0  0  0  0  0  0  0  0
   35.6810   31.0800   41.0840 H   0  0  0  0  0  0  0  0  0  0  0  0
   36.4680   30.0540   42.4180 H   0  0  0  0  0  0  0  0  0  0  0  0
   38.6310   29.9340   41.1250 H   0  0  0  0  0  0  0  0  0  0  0  0
   36.8030   27.5630   42.2250 C   0  0  0  0  0  0  0  0  0  0  0  0
   36.9400   27.8720   40.8610 C   0  0  0  0  0  0  0  0  0  0  0  0
   37.2980   26.8420   39.9790 C   0  0  0  0  0  0  0  0  0  0  0  0
   37.4930   25.6040   40.4860 N   0  0  0  0  0  0  0  0  0  0  0  0
   37.3560   25.3260   41.8010 C   0  0  0  0  0  0  0  0  0  0  0  0
   37.0120   26.3010   42.6780 N   0  0  0  0  0  0  0  0  0  0  0  0
   36.5260   28.3850   42.8710 H   0  0  0  0  0  0  0  0  0  0  0  0
   37.4110   27.0560   38.9120 H   0  0  0  0  0  0  0  0  0  0  0  0
   37.5170   24.3230   42.1850 H   0  0  0  0  0  0  0  0  0  0  0  0
   39.7910   32.4350   38.4710 N   0  0  0  0  0  0  0  0  0  0  0  0
   39.0690   32.4040   37.7040 H   0  0  0  0  0  0  0  0  0  0  0  0
   41.1840   31.5130   38.0010 S   0  0  0  0  0  0  0  0  0  0  0  0
   40.8090   29.8450   37.6030 C   0  0  0  0  0  1  0  0  0  0  0  0
   41.7750   32.2070   36.7940 O   0  0  0  0  0  0  0  0  0  0  0  0
   42.2000   31.5670   39.0990 O   0  0  0  0  0  0  0  0  0  0  0  0
  1  6  1  0  0  0  0
  1  2  1  1  0  0  0
  1 18  1  0  0  0  0
  2  7  1  0  0  0  0
  3 10  1  0  0  0  0
  3  2  1  0  0  0  0
  3  4  1  0  0  0  0
  4  5  1  0  0  0  0
  4 12  1  0  0  0  0
  5 13  1  0  0  0  0
  5 14  1  0  0  0  0
  6 15  1  1  0  0  0
  6  5  1  0  0  0  0
  8  2  1  0  0  0  0
  9  3  1  0  0  0  0
 11  4  1  0  0  0  0
 16 19  1  6  0  0  0
 16 18  1  0  0  0  0
 16 24  1  0  0  0  0
 16 17  1  0  0  0  0
 17 21  1  0  0  0  0
 18 22  1  1  0  0  0
 18 17  1  0  0  0  0
 20 17  1  0  0  0  0
 23 28  1  0  0  0  0
 23 29  1  0  0  0  0
 24 23  2  0  0  0  0
 25 26  2  0  0  0  0
 25 24  1  0  0  0  0
 26 27  1  0  0  0  0
 27 31  1  0  0  0  0
 27 28  2  0  0  0  0
 30 25  1  0  0  0  0
 32  6  1  0  0  0  0
 33 32  1  0  0  0  0
 34 32  1  0  0  0  0
 34 37  2  0  0  0  0
 35 34  1  0  0  0  0
 36 34  2  0  0  0  0
M  END
>  <minimizedAffinity>
-4.5347333

$$$$

 OpenBabel03252506473D

 37 39  0  0  1  0  0  0  0  0999 V2000
   37.2490   29.0470   41.6270 N   0  0  1  0  0  0  0  0  0  0  0  0
   36.7740   28.1240   42.6310 C   0  0  0  0  0  0  0  0  0  0  0  0
   37.7880   27.7720   43.6790 C   0  0  0  0  0  0  0  0  0  0  0  0
   38.9310   27.0190   43.0320 C   0  0  0  0  0  0  0  0  0  0  0  0
   39.1960   27.5350   41.6470 C   0  0  0  0  0  0  0  0  0  0  0  0
   38.6620   28.9570   41.5230 C   0  0  2  0  0  0  0  0  0  0  0  0
   36.5430   27.1670   42.0930 H   0  0  0  0  0  0  0  0  0  0  0  0
   35.8340   28.5040   43.0790 H   0  0  0  0  0  0  0  0  0  0  0  0
   38.0950   28.5910   44.3270 H   0  0  0  0  0  0  0  0  0  0  0  0
   37.2670   27.0470   44.3610 H   0  0  0  0  0  0  0  0  0  0  0  0
   39.8290   27.2390   43.6770 H   0  0  0  0  0  0  0  0  0  0  0  0
   38.7590   25.9210   43.0280 H   0  0  0  0  0  0  0  0  0  0  0  0
   40.2710   27.5980   41.4160 H   0  0  0  0  0  0  0  0  0  0  0  0
   38.6620   26.9200   40.9110 H   0  0  0  0  0  0  0  0  0  0  0  0
   38.9610   29.2530   40.4770 H   0  0  0  0  0  0  0  0  0  0  0  0
   35.9090   29.8500   39.5800 C   0  0  1  0  0  0  0  0  0  0  0  0
   35.0650   29.0070   40.4570 C   0  0  0  0  0  0  0  0  0  0  0  0
   36.5290   28.8030   40.4350 C   0  0  2  0  0  0  0  0  0  0  0  0
   36.0630   30.9130   39.8720 H   0  0  0  0  0  0  0  0  0  0  0  0
   34.5730   29.5220   41.3200 H   0  0  0  0  0  0  0  0  0  0  0  0
   34.3770   28.2950   39.9400 H   0  0  0  0  0  0  0  0  0  0  0  0
   36.8670   27.9080   39.8560 H   0  0  0  0  0  0  0  0  0  0  0  0
   36.9080   30.1090   37.2980 C   0  0  0  0  0  0  0  0  0  0  0  0
   35.8510   29.6750   38.1150 C   0  0  0  0  0  0  0  0  0  0  0  0
   34.7470   29.0620   37.5060 C   0  0  0  0  0  0  0  0  0  0  0  0
   34.7550   28.9200   36.1610 N   0  0  0  0  0  0  0  0  0  0  0  0
   35.7810   29.3440   35.3910 C   0  0  0  0  0  0  0  0  0  0  0  0
   36.8620   29.9410   35.9520 N   0  0  0  0  0  0  0  0  0  0  0  0
   37.7390   30.5770   37.8080 H   0  0  0  0  0  0  0  0  0  0  0  0
   33.9110   28.7140   38.1190 H   0  0  0  0  0  0  0  0  0  0  0  0
   35.7670   29.2190   34.3120 H   0  0  0  0  0  0  0  0  0  0  0  0
   39.3910   29.8030   42.4230 N   0  0  0  0  0  0  0  0  0  0  0  0
   38.7770   30.2240   43.1700 H   0  0  0  0  0  0  0  0  0  0  0  0
   40.1370   31.0680   41.4980 S   0  0  0  0  0  0  0  0  0  0  0  0
   41.7220   31.5240   42.0990 C   0  0  0  0  0  1  0  0  0  0  0  0
   40.2550   30.5550   40.0790 O   0  0  0  0  0  0  0  0  0  0  0  0
   39.2290   32.2590   41.4760 O   0  0  0  0  0  0  0  0  0  0  0  0
  1  2  1  1  0  0  0
  2  8  1  0  0  0  0
  2  3  1  0  0  0  0
  3  9  1  0  0  0  0
  3 10  1  0  0  0  0
  4 11  1  0  0  0  0
  4  3  1  0  0  0  0
  5  4  1  0  0  0  0
  6 15  1  6  0  0  0
  6  1  1  0  0  0  0
  6  5  1  0  0  0  0
  6 32  1  0  0  0  0
  7  2  1  0  0  0  0
 12  4  1  0  0  0  0
 13  5  1  0  0  0  0
 14  5  1  0  0  0  0
 16 19  1  1  0  0  0
 16 18  1  0  0  0  0
 16 17  1  0  0  0  0
 17 20  1  0  0  0  0
 18 22  1  6  0  0  0
 18 17  1  0  0  0  0
 18  1  1  0  0  0  0
 21 17  1  0  0  0  0
 23 29  1  0  0  0  0
 23 24  1  0  0  0  0
 24 16  1  0  0  0  0
 25 24  2  0  0  0  0
 25 30  1  0  0  0  0
 26 25  1  0  0  0  0
 27 28  1  0  0  0  0
 27 26  2  0  0  0  0
 28 23  2  0  0  0  0
 31 27  1  0  0  0  0
 32 33  1  0  0  0  0
 34 35  1  0  0  0  0
 34 32  1  0  0  0  0
 36 34  2  0  0  0  0
 37 34  2  0  0  0  0
M  END
>  <minimizedAffinity>
-4.49571848

$$$$

 OpenBabel03252506473D

 37 39  0  0  1  0  0  0  0  0999 V2000
   37.3330   29.7530   41.2380 N   0  0  1  0  0  0  0  0  0  0  0  0
   37.1160   28.8930   42.3780 C   0  0  0  0  0  0  0  0  0  0  0  0
   38.2170   28.9210   43.3950 C   0  0  0  0  0  0  0  0  0  0  0  0
   39.4790   28.3600   42.7770 C   0  0  0  0  0  0  0  0  0  0  0  0
   39.5740   28.7280   41.3250 C   0  0  0  0  0  0  0  0  0  0  0  0
   38.7260   29.9660   41.0580 C   0  0  2  0  0  0  0  0  0  0  0  0
   37.0920   27.8450   41.9790 H   0  0  0  0  0  0  0  0  0  0  0  0
   36.1290   29.1120   42.8330 H   0  0  0  0  0  0  0  0  0  0  0  0
   38.3500   29.8680   43.9150 H   0  0  0  0  0  0  0  0  0  0  0  0
   37.8980   28.1980   44.1940 H   0  0  0  0  0  0  0  0  0  0  0  0
   40.3250   28.8590   43.3320 H   0  0  0  0  0  0  0  0  0  0  0  0
   39.5630   27.2610   42.9210 H   0  0  0  0  0  0  0  0  0  0  0  0
   40.5980   28.9970   41.0210 H   0  0  0  0  0  0  0  0  0  0  0  0
   39.1710   27.9160   40.7060 H   0  0  0  0  0  0  0  0  0  0  0  0
   38.9150   30.1770   39.9670 H   0  0  0  0  0  0  0  0  0  0  0  0
   35.8270   29.9630   39.1610 C   0  0  1  0  0  0  0  0  0  0  0  0
   35.1740   29.1300   40.1960 C   0  0  0  0  0  0  0  0  0  0  0  0
   36.6490   29.1970   40.1340 C   0  0  2  0  0  0  0  0  0  0  0  0
   35.7840   31.0690   39.2800 H   0  0  0  0  0  0  0  0  0  0  0  0
   34.6110   29.6770   40.9930 H   0  0  0  0  0  0  0  0  0  0  0  0
   34.6220   28.2310   39.8270 H   0  0  0  0  0  0  0  0  0  0  0  0
   37.1390   28.2980   39.6820 H   0  0  0  0  0  0  0  0  0  0  0  0
   34.6910   28.8020   37.2550 C   0  0  0  0  0  0  0  0  0  0  0  0
   35.7750   29.5500   37.7440 C   0  0  0  0  0  0  0  0  0  0  0  0
   36.7980   29.9020   36.8520 C   0  0  0  0  0  0  0  0  0  0  0  0
   36.6890   29.5030   35.5640 N   0  0  0  0  0  0  0  0  0  0  0  0
   35.6390   28.7840   35.1120 C   0  0  0  0  0  0  0  0  0  0  0  0
   34.6350   28.4290   35.9510 N   0  0  0  0  0  0  0  0  0  0  0  0
   33.9250   28.5520   37.9750 H   0  0  0  0  0  0  0  0  0  0  0  0
   37.6530   30.4850   37.2070 H   0  0  0  0  0  0  0  0  0  0  0  0
   35.5720   28.4750   34.0730 H   0  0  0  0  0  0  0  0  0  0  0  0
   39.2720   31.0680   41.7970 N   0  0  0  0  0  0  0  0  0  0  0  0
   38.6120   31.4230   42.5390 H   0  0  0  0  0  0  0  0  0  0  0  0
   39.6410   32.3440   40.6820 S   0  0  0  0  0  0  0  0  0  0  0  0
   39.3010   31.9250   39.0120 C   0  0  0  0  0  1  0  0  0  0  0  0
   38.8010   33.5340   41.0920 O   0  0  0  0  0  0  0  0  0  0  0  0
   41.0790   32.7290   40.8370 O   0  0  0  0  0  0  0  0  0  0  0  0
  1  2  1  1  0  0  0
  2  8  1  0  0  0  0
  2  3  1  0  0  0  0
  3  9  1  0  0  0  0
  3 10  1  0  0  0  0
  4 12  1  0  0  0  0
  4 11  1  0  0  0  0
  4  3  1  0  0  0  0
  5  4  1  0  0  0  0
  6 15  1  6  0  0  0
  6  1  1  0  0  0  0
  6  5  1  0  0  0  0
  6 32  1  0  0  0  0
  7  2  1  0  0  0  0
 13  5  1  0  0  0  0
 14  5  1  0  0  0  0
 16 19  1  1  0  0  0
 16 18  1  0  0  0  0
 16 17  1  0  0  0  0
 17 20  1  0  0  0  0
 18 22  1  6  0  0  0
 18 17  1  0  0  0  0
 18  1  1  0  0  0  0
 21 17  1  0  0  0  0
 23 24  1  0  0  0  0
 23 29  1  0  0  0  0
 24 16  1  0  0  0  0
 25 30  1  0  0  0  0
 25 24  2  0  0  0  0
 26 25  1  0  0  0  0
 27 26  2  0  0  0  0
 27 28  1  0  0  0  0
 28 23  2  0  0  0  0
 31 27  1  0  0  0  0
 32 33  1  0  0  0  0
 34 37  2  0  0  0  0
 34 36  2  0  0  0  0
 34 32  1  0  0  0  0
 35 34  1  0  0  0  0
M  END
>  <minimizedAffinity>
-4.39218569

$$$$

 OpenBabel03252506473D

 37 39  0  0  1  0  0  0  0  0999 V2000
   38.0800   26.6350   41.8570 N   0  0  1  0  0  0  0  0  0  0  0  0
   37.0100   25.8720   42.4560 C   0  0  0  0  0  0  0  0  0  0  0  0
   36.9630   24.4330   42.0340 C   0  0  0  0  0  0  0  0  0  0  0  0
   36.6530   24.3580   40.5550 C   0  0  0  0  0  0  0  0  0  0  0  0
   37.2870   25.5010   39.8170 C   0  0  0  0  0  0  0  0  0  0  0  0
   38.4610   26.0400   40.6250 C   0  0  2  0  0  0  0  0  0  0  0  0
   36.0540   26.3310   42.0890 H   0  0  0  0  0  0  0  0  0  0  0  0
   37.0420   25.9770   43.5590 H   0  0  0  0  0  0  0  0  0  0  0  0
   37.8080   23.8250   42.3520 H   0  0  0  0  0  0  0  0  0  0  0  0
   36.0780   23.9970   42.5730 H   0  0  0  0  0  0  0  0  0  0  0  0
   37.1260   23.3960   40.2050 H   0  0  0  0  0  0  0  0  0  0  0  0
   35.5610   24.3070   40.3580 H   0  0  0  0  0  0  0  0  0  0  0  0
   37.7080   25.1980   38.8450 H   0  0  0  0  0  0  0  0  0  0  0  0
   36.5650   26.3190   39.7040 H   0  0  0  0  0  0  0  0  0  0  0  0
   38.8840   26.8440   39.9580 H   0  0  0  0  0  0  0  0  0  0  0  0
   38.4060   29.1370   42.3660 C   0  0  1  0  0  0  0  0  0  0  0  0
   37.1830   28.6260   43.0270 C   0  0  0  0  0  0  0  0  0  0  0  0
   37.6670   27.9840   41.7860 C   0  0  2  0  0  0  0  0  0  0  0  0
   39.3850   28.9310   42.8530 H   0  0  0  0  0  0  0  0  0  0  0  0
   37.3240   28.1290   44.0190 H   0  0  0  0  0  0  0  0  0  0  0  0
   36.2970   29.3070   43.0150 H   0  0  0  0  0  0  0  0  0  0  0  0
   37.0900   28.2520   40.8660 H   0  0  0  0  0  0  0  0  0  0  0  0
   39.5410   31.2410   41.6190 C   0  0  0  0  0  0  0  0  0  0  0  0
   38.3820   30.4500   41.6920 C   0  0  0  0  0  0  0  0  0  0  0  0
   37.2080   30.9350   41.0980 C   0  0  0  0  0  0  0  0  0  0  0  0
   37.2500   32.1400   40.4860 N   0  0  0  0  0  0  0  0  0  0  0  0
   38.3750   32.8860   40.4270 C   0  0  0  0  0  0  0  0  0  0  0  0
   39.5250   32.4440   40.9910 N   0  0  0  0  0  0  0  0  0  0  0  0
   40.4250   30.8300   42.0890 H   0  0  0  0  0  0  0  0  0  0  0  0
   36.2910   30.3390   41.1400 H   0  0  0  0  0  0  0  0  0  0  0  0
   38.3860   33.8520   39.9290 H   0  0  0  0  0  0  0  0  0  0  0  0
   39.4590   25.0150   40.7290 N   0  0  0  0  0  0  0  0  0  0  0  0
   39.7080   24.7940   41.7290 H   0  0  0  0  0  0  0  0  0  0  0  0
   40.8750   25.5430   39.8760 S   0  0  0  0  0  0  0  0  0  0  0  0
   40.9260   24.9900   38.2110 C   0  0  0  0  0  1  0  0  0  0  0  0
   40.8640   27.0560   39.9140 O   0  0  0  0  0  0  0  0  0  0  0  0
   42.0920   25.0790   40.6140 O   0  0  0  0  0  0  0  0  0  0  0  0
  1  2  1  6  0  0  0
  2  8  1  0  0  0  0
  3  9  1  0  0  0  0
  3  2  1  0  0  0  0
  3 10  1  0  0  0  0
  4  3  1  0  0  0  0
  5  4  1  0  0  0  0
  5  6  1  0  0  0  0
  6 15  1  6  0  0  0
  6 32  1  0  0  0  0
  6  1  1  0  0  0  0
  7  2  1  0  0  0  0
 11  4  1  0  0  0  0
 12  4  1  0  0  0  0
 13  5  1  0  0  0  0
 14  5  1  0  0  0  0
 16 19  1  1  0  0  0
 16 17  1  0  0  0  0
 17 20  1  0  0  0  0
 18 22  1  6  0  0  0
 18  1  1  0  0  0  0
 18 16  1  0  0  0  0
 18 17  1  0  0  0  0
 21 17  1  0  0  0  0
 23 24  1  0  0  0  0
 23 29  1  0  0  0  0
 24 16  1  0  0  0  0
 25 30  1  0  0  0  0
 25 24  2  0  0  0  0
 26 25  1  0  0  0  0
 27 26  2  0  0  0  0
 27 28  1  0  0  0  0
 28 23  2  0  0  0  0
 31 27  1  0  0  0  0
 32 33  1  0  0  0  0
 34 36  2  0  0  0  0
 34 37  2  0  0  0  0
 34 32  1  0  0  0  0
 35 34  1  0  0  0  0
M  END
>  <minimizedAffinity>
-4.24916935

$$$$

 OpenBabel03252506473D

 37 39  0  0  1  0  0  0  0  0999 V2000
   39.1810   28.8800   42.5090 N   0  0  1  0  0  0  0  0  0  0  0  0
   37.8930   29.0760   43.1310 C   0  0  0  0  0  0  0  0  0  0  0  0
   37.2710   27.8270   43.6790 C   0  0  0  0  0  0  0  0  0  0  0  0
   36.9600   26.8840   42.5370 C   0  0  0  0  0  0  0  0  0  0  0  0
   38.0020   26.9840   41.4610 C   0  0  0  0  0  0  0  0  0  0  0  0
   39.2920   27.5390   42.0530 C   0  0  2  0  0  0  0  0  0  0  0  0
   37.2040   29.4330   42.3210 H   0  0  0  0  0  0  0  0  0  0  0  0
   37.9620   29.8730   43.8990 H   0  0  0  0  0  0  0  0  0  0  0  0
   37.7980   27.3690   44.5140 H   0  0  0  0  0  0  0  0  0  0  0  0
   36.2840   28.1520   44.1080 H   0  0  0  0  0  0  0  0  0  0  0  0
   37.0060   25.8510   42.9880 H   0  0  0  0  0  0  0  0  0  0  0  0
   35.9400   27.0450   42.1270 H   0  0  0  0  0  0  0  0  0  0  0  0
   38.2670   26.0040   41.0340 H   0  0  0  0  0  0  0  0  0  0  0  0
   37.6710   27.6850   40.6840 H   0  0  0  0  0  0  0  0  0  0  0  0
   40.0050   27.5190   41.1800 H   0  0  0  0  0  0  0  0  0  0  0  0
   39.5540   31.3260   41.7970 C   0  0  1  0  0  0  0  0  0  0  0  0
   38.2410   30.8370   41.3170 C   0  0  0  0  0  0  0  0  0  0  0  0
   39.3470   29.8790   41.5240 C   0  0  2  0  0  0  0  0  0  0  0  0
   39.6320   31.6440   42.8610 H   0  0  0  0  0  0  0  0  0  0  0  0
   37.3920   30.8950   42.0430 H   0  0  0  0  0  0  0  0  0  0  0  0
   37.9430   31.1600   40.2890 H   0  0  0  0  0  0  0  0  0  0  0  0
   39.8480   29.5350   40.5840 H   0  0  0  0  0  0  0  0  0  0  0  0
   41.7760   32.3010   41.1780 C   0  0  0  0  0  0  0  0  0  0  0  0
   40.4070   32.1360   40.9060 C   0  0  0  0  0  0  0  0  0  0  0  0
   39.8770   32.7510   39.7630 C   0  0  0  0  0  0  0  0  0  0  0  0
   40.7100   33.4720   38.9790 N   0  0  0  0  0  0  0  0  0  0  0  0
   42.0240   33.6200   39.2580 C   0  0  0  0  0  0  0  0  0  0  0  0
   42.5650   33.0380   40.3560 N   0  0  0  0  0  0  0  0  0  0  0  0
   42.1440   31.8120   42.0690 H   0  0  0  0  0  0  0  0  0  0  0  0
   38.8150   32.6380   39.5280 H   0  0  0  0  0  0  0  0  0  0  0  0
   42.6750   34.2040   38.6130 H   0  0  0  0  0  0  0  0  0  0  0  0
   39.7930   26.6090   43.0230 N   0  0  0  0  0  0  0  0  0  0  0  0
   39.6450   26.9380   44.0140 H   0  0  0  0  0  0  0  0  0  0  0  0
   41.4870   26.3740   42.7320 S   0  0  0  0  0  0  0  0  0  0  0  0
   41.9600   26.7220   41.0780 C   0  0  0  0  0  1  0  0  0  0  0  0
   42.2210   27.2970   43.6800 O   0  0  0  0  0  0  0  0  0  0  0  0
   41.8550   24.9680   43.0910 O   0  0  0  0  0  0  0  0  0  0  0  0
  1  2  1  6  0  0  0
  2  3  1  0  0  0  0
  2  8  1  0  0  0  0
  3 10  1  0  0  0  0
  3  9  1  0  0  0  0
  4 11  1  0  0  0  0
  4  3  1  0  0  0  0
  5  6  1  0  0  0  0
  5  4  1  0  0  0  0
  6 15  1  6  0  0  0
  6  1  1  0  0  0  0
  6 32  1  0  0  0  0
  7  2  1  0  0  0  0
 12  4  1  0  0  0  0
 13  5  1  0  0  0  0
 14  5  1  0  0  0  0
 16 19  1  1  0  0  0
 17 18  1  0  0  0  0
 17 16  1  0  0  0  0
 17 20  1  0  0  0  0
 18 22  1  6  0  0  0
 18 16  1  0  0  0  0
 18  1  1  0  0  0  0
 21 17  1  0  0  0  0
 23 29  1  0  0  0  0
 24 23  1  0  0  0  0
 24 16  1  0  0  0  0
 25 24  2  0  0  0  0
 26 27  2  0  0  0  0
 26 25  1  0  0  0  0
 27 28  1  0  0  0  0
 28 23  2  0  0  0  0
 30 25  1  0  0  0  0
 31 27  1  0  0  0  0
 32 33  1  0  0  0  0
 34 32  1  0  0  0  0
 34 37  2  0  0  0  0
 34 36  2  0  0  0  0
 35 34  1  0  0  0  0
M  END
>  <minimizedAffinity>
-4.22123241

$$$$
