
 OpenBabel03252506453D

 37 39  0  0  1  0  0  0  0  0999 V2000
   49.4640   33.4770   41.3100 N   0  0  1  0  0  0  0  0  0  0  0  0
   50.6480   33.0460   42.0160 C   0  0  0  0  0  0  0  0  0  0  0  0
   51.1950   31.7250   41.5630 C   0  0  0  0  0  0  0  0  0  0  0  0
   50.1920   30.6370   41.8790 C   0  0  0  0  0  0  0  0  0  0  0  0
   48.7870   31.1420   41.7210 C   0  0  0  0  0  0  0  0  0  0  0  0
   48.7820   32.3460   40.7880 C   0  0  2  0  0  0  0  0  0  0  0  0
   50.3410   32.9020   43.0850 H   0  0  0  0  0  0  0  0  0  0  0  0
   51.4180   33.8440   41.9830 H   0  0  0  0  0  0  0  0  0  0  0  0
   51.5820   31.7030   40.5460 H   0  0  0  0  0  0  0  0  0  0  0  0
   52.0920   31.5390   42.2140 H   0  0  0  0  0  0  0  0  0  0  0  0
   50.3760   29.8360   41.1080 H   0  0  0  0  0  0  0  0  0  0  0  0
   50.3520   30.2000   42.8880 H   0  0  0  0  0  0  0  0  0  0  0  0
   48.1190   30.4000   41.2560 H   0  0  0  0  0  0  0  0  0  0  0  0
   48.3990   31.4790   42.6910 H   0  0  0  0  0  0  0  0  0  0  0  0
   47.6860   32.6010   40.7030 H   0  0  0  0  0  0  0  0  0  0  0  0
   47.3190   34.7560   41.9340 C   0  0  1  0  0  0  0  0  0  0  0  0
   48.4520   35.6930   41.7570 C   0  0  0  0  0  0  0  0  0  0  0  0
   48.7130   34.3010   42.1780 C   0  0  2  0  0  0  0  0  0  0  0  0
   46.8060   34.3810   41.0200 H   0  0  0  0  0  0  0  0  0  0  0  0
   48.6660   36.0220   40.7090 H   0  0  0  0  0  0  0  0  0  0  0  0
   48.5100   36.5370   42.4870 H   0  0  0  0  0  0  0  0  0  0  0  0
   48.9500   34.1780   43.2650 H   0  0  0  0  0  0  0  0  0  0  0  0
   45.5420   36.0560   43.1270 C   0  0  0  0  0  0  0  0  0  0  0  0
   46.3870   34.9350   43.0650 C   0  0  0  0  0  0  0  0  0  0  0  0
   46.3150   33.9890   44.0970 C   0  0  0  0  0  0  0  0  0  0  0  0
   45.4340   34.2030   45.1010 N   0  0  0  0  0  0  0  0  0  0  0  0
   44.6300   35.2880   45.1430 C   0  0  0  0  0  0  0  0  0  0  0  0
   44.6770   36.2200   44.1600 N   0  0  0  0  0  0  0  0  0  0  0  0
   45.6300   36.7610   42.3120 H   0  0  0  0  0  0  0  0  0  0  0  0
   46.9610   33.1070   44.0720 H   0  0  0  0  0  0  0  0  0  0  0  0
   43.9290   35.4390   45.9600 H   0  0  0  0  0  0  0  0  0  0  0  0
   49.2140   31.9240   39.4870 N   0  0  0  0  0  0  0  0  0  0  0  0
   50.1820   32.2690   39.2510 H   0  0  0  0  0  0  0  0  0  0  0  0
   48.0800   32.5160   38.3150 S   0  0  0  0  0  0  0  0  0  0  0  0
   48.2700   34.2250   37.9670 C   0  0  0  0  0  1  0  0  0  0  0  0
   48.3000   31.7080   37.0540 O   0  0  0  0  0  0  0  0  0  0  0  0
   46.6900   32.2370   38.7960 O   0  0  0  0  0  0  0  0  0  0  0  0
  1  2  1  1  0  0  0
  1 18  1  0  0  0  0
  2  7  1  0  0  0  0
  3  4  1  0  0  0  0
  3  2  1  0  0  0  0
  3 10  1  0  0  0  0
  4 12  1  0  0  0  0
  5  4  1  0  0  0  0
  5 14  1  0  0  0  0
  6 15  1  6  0  0  0
  6  1  1  0  0  0  0
  6  5  1  0  0  0  0
  8  2  1  0  0  0  0
  9  3  1  0  0  0  0
 11  4  1  0  0  0  0
 13  5  1  0  0  0  0
 16 19  1  6  0  0  0
 16 18  1  0  0  0  0
 16 24  1  0  0  0  0
 17 16  1  0  0  0  0
 17 18  1  0  0  0  0
 17 21  1  0  0  0  0
 18 22  1  1  0  0  0
 20 17  1  0  0  0  0
 23 28  1  0  0  0  0
 24 23  2  0  0  0  0
 24 25  1  0  0  0  0
 25 26  2  0  0  0  0
 26 27  1  0  0  0  0
 27 31  1  0  0  0  0
 28 27  2  0  0  0  0
 29 23  1  0  0  0  0
 30 25  1  0  0  0  0
 32  6  1  0  0  0  0
 33 32  1  0  0  0  0
 34 37  2  0  0  0  0
 34 32  1  0  0  0  0
 35 34  1  0  0  0  0
 36 34  2  0  0  0  0
M  END
>  <minimizedAffinity>
-4.76853466

>  <minimizedRMSD>
1.16925514

$$$$
