
 OpenBabel03252506453D

 37 39  0  0  1  0  0  0  0  0999 V2000
   49.3360   33.2290   41.4970 N   0  0  1  0  0  0  0  0  0  0  0  0
   50.6620   33.1270   42.0580 C   0  0  0  0  0  0  0  0  0  0  0  0
   51.3400   31.8120   41.8140 C   0  0  0  0  0  0  0  0  0  0  0  0
   50.5780   30.7190   42.5320 C   0  0  0  0  0  0  0  0  0  0  0  0
   49.1030   30.9980   42.5200 C   0  0  0  0  0  0  0  0  0  0  0  0
   48.7720   31.9330   41.3630 C   0  0  2  0  0  0  0  0  0  0  0  0
   50.5390   33.2080   43.1700 H   0  0  0  0  0  0  0  0  0  0  0  0
   51.2830   33.9800   41.7170 H   0  0  0  0  0  0  0  0  0  0  0  0
   51.5740   31.5920   40.7740 H   0  0  0  0  0  0  0  0  0  0  0  0
   52.3400   31.8970   42.3210 H   0  0  0  0  0  0  0  0  0  0  0  0
   50.7730   29.7840   41.9340 H   0  0  0  0  0  0  0  0  0  0  0  0
   50.9500   30.5600   43.5670 H   0  0  0  0  0  0  0  0  0  0  0  0
   48.5010   30.0910   42.3530 H   0  0  0  0  0  0  0  0  0  0  0  0
   48.8120   31.5090   43.4460 H   0  0  0  0  0  0  0  0  0  0  0  0
   47.6500   32.0250   41.4200 H   0  0  0  0  0  0  0  0  0  0  0  0
   47.1920   34.5540   42.0250 C   0  0  1  0  0  0  0  0  0  0  0  0
   48.3100   35.4740   41.7140 C   0  0  0  0  0  0  0  0  0  0  0  0
   48.5970   34.1410   42.2850 C   0  0  2  0  0  0  0  0  0  0  0  0
   46.6620   34.0740   41.1740 H   0  0  0  0  0  0  0  0  0  0  0  0
   48.4960   35.6830   40.6310 H   0  0  0  0  0  0  0  0  0  0  0  0
   48.3780   36.3960   42.3420 H   0  0  0  0  0  0  0  0  0  0  0  0
   48.8610   34.1460   43.3720 H   0  0  0  0  0  0  0  0  0  0  0  0
   45.5150   36.0290   43.1590 C   0  0  0  0  0  0  0  0  0  0  0  0
   46.2860   34.8540   43.1520 C   0  0  0  0  0  0  0  0  0  0  0  0
   46.1640   33.9720   44.2350 C   0  0  0  0  0  0  0  0  0  0  0  0
   45.3110   34.2970   45.2320 N   0  0  0  0  0  0  0  0  0  0  0  0
   44.5780   35.4320   45.2210 C   0  0  0  0  0  0  0  0  0  0  0  0
   44.6750   36.3040   44.1880 N   0  0  0  0  0  0  0  0  0  0  0  0
   45.6390   36.6820   42.3060 H   0  0  0  0  0  0  0  0  0  0  0  0
   46.7530   33.0500   44.2530 H   0  0  0  0  0  0  0  0  0  0  0  0
   43.8970   35.6720   46.0330 H   0  0  0  0  0  0  0  0  0  0  0  0
   49.0740   31.2650   40.1290 N   0  0  0  0  0  0  0  0  0  0  0  0
   49.6440   31.8630   39.4750 H   0  0  0  0  0  0  0  0  0  0  0  0
   47.5780   30.8240   39.3670 S   0  0  0  0  0  0  0  0  0  0  0  0
   46.9950   29.2400   39.8500 C   0  0  0  0  0  1  0  0  0  0  0  0
   46.5670   31.8820   39.7550 O   0  0  0  0  0  0  0  0  0  0  0  0
   47.7500   30.8830   37.8820 O   0  0  0  0  0  0  0  0  0  0  0  0
  1  2  1  1  0  0  0
  1 18  1  0  0  0  0
  2  7  1  0  0  0  0
  3  2  1  0  0  0  0
  3 10  1  0  0  0  0
  3  4  1  0  0  0  0
  4 12  1  0  0  0  0
  5  4  1  0  0  0  0
  5 14  1  0  0  0  0
  6 15  1  1  0  0  0
  6  1  1  0  0  0  0
  6  5  1  0  0  0  0
  8  2  1  0  0  0  0
  9  3  1  0  0  0  0
 11  4  1  0  0  0  0
 13  5  1  0  0  0  0
 16 19  1  6  0  0  0
 16 18  1  0  0  0  0
 16 24  1  0  0  0  0
 17 16  1  0  0  0  0
 17 18  1  0  0  0  0
 17 21  1  0  0  0  0
 18 22  1  1  0  0  0
 20 17  1  0  0  0  0
 23 28  1  0  0  0  0
 24 23  2  0  0  0  0
 24 25  1  0  0  0  0
 25 30  1  0  0  0  0
 25 26  2  0  0  0  0
 27 26  1  0  0  0  0
 27 31  1  0  0  0  0
 28 27  2  0  0  0  0
 29 23  1  0  0  0  0
 32  6  1  0  0  0  0
 33 32  1  0  0  0  0
 34 36  2  0  0  0  0
 34 35  1  0  0  0  0
 34 32  1  0  0  0  0
 37 34  2  0  0  0  0
M  END
>  <minimizedAffinity>
-4.37914419

>  <minimizedRMSD>
0.0236379467

$$$$
