
 OpenBabel03252501203D

 21 21  0  0  0  0  0  0  0  0999 V2000
   44.8700   35.1770   45.4350 C   0  0  0  0  0  0  0  0  0  0  0  0
   45.2800   35.4870   44.1370 C   0  0  0  0  0  0  0  0  0  0  0  0
   46.0120   34.5020   43.4580 C   0  0  0  0  0  0  0  0  0  0  0  0
   46.2810   33.3250   44.0820 N   0  0  0  0  0  0  0  0  0  0  0  0
   45.8650   33.0730   45.3340 C   0  0  0  0  0  0  0  0  0  0  0  0
   45.1580   33.9970   46.0160 N   0  0  0  0  0  0  0  0  0  0  0  0
   44.3010   35.8820   46.0270 H   0  0  0  0  0  0  0  0  0  0  0  0
   46.1350   32.0950   45.7420 H   0  0  0  0  0  0  0  0  0  0  0  0
   46.4170   34.8590   42.0970 C   0  0  0  0  0  0  0  0  0  0  0  0
   47.0650   33.7630   41.5320 F   0  0  0  0  0  0  0  0  0  0  0  0
   47.3450   35.8590   42.2080 F   0  0  0  0  0  0  0  0  0  0  0  0
   45.3630   35.1430   41.2880 F   0  0  0  0  0  0  0  0  0  0  0  0
   44.9570   36.7810   43.5380 C   0  0  0  0  0  0  0  0  0  0  0  0
   44.0100   36.6840   43.0070 H   0  0  0  0  0  0  0  0  0  0  0  0
   45.7090   37.2570   42.9300 H   0  0  0  0  0  0  0  0  0  0  0  0
   44.8890   37.7960   44.5970 N   0  0  0  0  0  0  0  0  0  0  0  0
   45.3000   37.4700   45.4730 H   0  0  0  0  0  0  0  0  0  0  0  0
   45.4760   39.3190   44.0730 S   0  0  0  0  0  0  0  0  0  0  0  0
   47.2220   39.4420   44.1260 C   0  0  0  0  0  1  0  0  0  0  0  0
   44.9020   40.4130   44.9490 O   0  0  0  0  0  0  0  0  0  0  0  0
   45.0030   39.5500   42.6880 O   0  0  0  0  0  0  0  0  0  0  0  0
  1  6  1  0  0  0  0
  1  7  1  0  0  0  0
  2  1  2  0  0  0  0
  3  4  2  0  0  0  0
  3  2  1  0  0  0  0
  4  5  1  0  0  0  0
  5  8  1  0  0  0  0
  5  6  2  0  0  0  0
  9 11  1  0  0  0  0
  9  3  1  0  0  0  0
 10  9  1  0  0  0  0
 12  9  1  0  0  0  0
 13  2  1  0  0  0  0
 13 16  1  0  0  0  0
 14 13  1  0  0  0  0
 15 13  1  0  0  0  0
 16 17  1  0  0  0  0
 18 19  1  0  0  0  0
 18 16  1  0  0  0  0
 18 20  2  0  0  0  0
 21 18  2  0  0  0  0
M  END
>  <minimizedAffinity>
-2.01966214

>  <minimizedRMSD>
1.28966653

$$$$
