
 OpenBabel03242519243D

 40 43  0  0  0  0  0  0  0  0999 V2000
   47.8930   33.8000   42.8970 C   0  0  0  0  0  0  0  0  0  0  0  0
   48.5660   35.0210   42.6440 C   0  0  0  0  0  0  0  0  0  0  0  0
   49.9310   35.0200   42.3220 C   0  0  0  0  0  0  0  0  0  0  0  0
   50.5380   33.7910   42.2740 N   0  0  0  0  0  0  0  0  0  0  0  0
   49.8610   32.6270   42.5240 C   0  0  0  0  0  0  0  0  0  0  0  0
   48.5700   32.6530   42.8270 N   0  0  0  0  0  0  0  0  0  0  0  0
   48.1620   36.0230   42.6630 H   0  0  0  0  0  0  0  0  0  0  0  0
   50.4970   35.8940   42.1210 H   0  0  0  0  0  0  0  0  0  0  0  0
   46.4680   33.9300   43.2300 C   0  0  0  0  0  0  0  0  0  0  0  0
   45.7610   34.9370   42.4410 C   0  0  0  0  0  0  0  0  0  0  0  0
   45.3110   36.1210   43.2170 C   0  0  0  0  0  0  0  0  0  0  0  0
   44.5240   35.7600   44.4720 C   0  0  0  0  0  0  0  0  0  0  0  0
   44.9730   34.5010   45.1440 C   0  0  0  0  0  0  0  0  0  0  0  0
   46.3980   34.1690   44.7480 C   0  0  0  0  0  0  0  0  0  0  0  0
   45.9900   32.9130   43.1050 H   0  0  0  0  0  0  0  0  0  0  0  0
   46.4260   35.3050   41.6400 H   0  0  0  0  0  0  0  0  0  0  0  0
   44.8870   34.4890   41.9050 H   0  0  0  0  0  0  0  0  0  0  0  0
   44.5410   36.6340   42.5660 H   0  0  0  0  0  0  0  0  0  0  0  0
   46.0510   36.8940   43.4230 H   0  0  0  0  0  0  0  0  0  0  0  0
   44.6950   36.5860   45.2080 H   0  0  0  0  0  0  0  0  0  0  0  0
   43.4360   35.7160   44.3040 H   0  0  0  0  0  0  0  0  0  0  0  0
   44.3370   33.6750   44.7600 H   0  0  0  0  0  0  0  0  0  0  0  0
   44.8980   34.5220   46.2320 H   0  0  0  0  0  0  0  0  0  0  0  0
   46.6890   33.2110   45.2280 H   0  0  0  0  0  0  0  0  0  0  0  0
   47.1140   34.9380   45.0770 H   0  0  0  0  0  0  0  0  0  0  0  0
   50.6580   31.4150   42.4350 C   0  0  0  0  0  0  0  0  0  0  0  0
   51.5120   31.3060   41.3790 N   0  0  0  0  0  0  0  0  0  0  0  0
   52.1620   30.1220   41.4680 C   0  0  0  0  0  0  0  0  0  0  0  0
   51.6990   29.4930   42.5990 N   0  0  0  0  0  0  0  0  0  0  0  0
   50.7920   30.2870   43.1690 N   0  0  0  0  0  0  0  0  0  0  0  0
   52.9090   29.6900   40.8170 H   0  0  0  0  0  0  0  0  0  0  0  0
   53.9290   29.5630   44.7970 Br  0  0  0  0  0  0  0  0  0  0  0  0
   53.0000   28.0350   44.1360 C   0  0  0  0  0  0  0  0  0  0  0  0
   52.0460   28.2310   43.1570 C   0  0  0  0  0  0  0  0  0  0  0  0
   51.3810   27.0910   42.6910 C   0  0  0  0  0  0  0  0  0  0  0  0
   50.6110   27.1360   41.9220 H   0  0  0  0  0  0  0  0  0  0  0  0
   51.7110   25.8500   43.2300 C   0  0  0  0  0  0  0  0  0  0  0  0
   51.2010   24.9540   42.8770 H   0  0  0  0  0  0  0  0  0  0  0  0
   52.6560   25.6810   44.1950 C   0  0  0  0  0  3  0  0  0  0  0  0
   53.3080   26.7990   44.6510 C   0  0  0  0  0  3  0  0  0  0  0  0
  1  9  1  0  0  0  0
  2  7  1  0  0  0  0
  2  1  2  0  0  0  0
  3  2  1  0  0  0  0
  4  3  2  0  0  0  0
  4  5  1  0  0  0  0
  5  6  2  0  0  0  0
  6  1  1  0  0  0  0
  8  3  1  0  0  0  0
  9 14  1  0  0  0  0
 10 11  1  0  0  0  0
 10  9  1  0  0  0  0
 11 19  1  0  0  0  0
 11 12  1  0  0  0  0
 12 13  1  0  0  0  0
 12 20  1  0  0  0  0
 13 23  1  0  0  0  0
 14 25  1  0  0  0  0
 14 13  1  0  0  0  0
 14 24  1  0  0  0  0
 15  9  1  0  0  0  0
 16 10  1  0  0  0  0
 17 10  1  0  0  0  0
 18 11  1  0  0  0  0
 21 12  1  0  0  0  0
 22 13  1  0  0  0  0
 26  5  1  0  0  0  0
 26 30  2  0  0  0  0
 27 28  2  0  0  0  0
 27 26  1  0  0  0  0
 28 29  1  0  0  0  0
 29 34  1  0  0  0  0
 29 30  1  0  0  0  0
 31 28  1  0  0  0  0
 33 40  1  0  0  0  0
 33 32  1  0  0  0  0
 34 33  2  0  0  0  0
 35 34  1  0  0  0  0
 35 37  2  0  0  0  0
 36 35  1  0  0  0  0
 37 39  1  0  0  0  0
 38 37  1  0  0  0  0
 39 40  2  0  0  0  0
M  END
>  <minimizedAffinity>
-4.34144688

>  <minimizedRMSD>
0.652566493

$$$$
