
 OpenBabel03252504533D

 21 22  0  0  0  0  0  0  0  0999 V2000
   46.6090   34.9680   42.0090 C   0  0  0  0  0  0  0  0  0  0  0  0
   47.5450   34.3550   42.1050 H   0  0  0  0  0  0  0  0  0  0  0  0
   46.8430   36.0160   41.7380 H   0  0  0  0  0  0  0  0  0  0  0  0
   44.4970   35.9910   44.8930 C   0  0  0  0  0  0  0  0  0  0  0  0
   45.1150   36.0300   43.6280 C   0  0  0  0  0  0  0  0  0  0  0  0
   45.9540   34.9570   43.3200 C   0  0  0  0  0  0  0  0  0  0  0  0
   46.1300   33.9530   44.2330 N   0  0  0  0  0  0  0  0  0  0  0  0
   45.5070   33.9740   45.4330 C   0  0  0  0  0  0  0  0  0  0  0  0
   44.6970   34.9890   45.7560 N   0  0  0  0  0  0  0  0  0  0  0  0
   43.8380   36.8150   45.1580 H   0  0  0  0  0  0  0  0  0  0  0  0
   44.9460   36.8480   42.9340 H   0  0  0  0  0  0  0  0  0  0  0  0
   45.7780   33.0890   46.0050 H   0  0  0  0  0  0  0  0  0  0  0  0
   48.3400   33.3640   39.9190 Br  0  0  0  0  0  0  0  0  0  0  0  0
   46.4390   33.6210   39.9930 C   0  0  0  0  0  0  0  0  0  0  0  0
   45.7540   34.3560   40.9560 C   0  0  0  0  0  0  0  0  0  0  0  0
   44.3900   34.4560   40.8770 C   0  0  0  0  0  0  0  0  0  0  0  0
   43.8880   35.0360   41.6430 H   0  0  0  0  0  0  0  0  0  0  0  0
   43.7400   33.8150   39.8320 C   0  0  0  0  0  0  0  0  0  0  0  0
   42.6550   33.9100   39.7940 H   0  0  0  0  0  0  0  0  0  0  0  0
   44.3870   33.0840   38.8700 C   0  0  0  0  0  3  0  0  0  0  0  0
   45.7730   32.9820   38.9480 C   0  0  0  0  0  3  0  0  0  0  0  0
  1  2  1  0  0  0  0
  1  6  1  0  0  0  0
  3  1  1  0  0  0  0
  4 10  1  0  0  0  0
  4  9  1  0  0  0  0
  5  4  2  0  0  0  0
  6  5  1  0  0  0  0
  6  7  2  0  0  0  0
  7  8  1  0  0  0  0
  8  9  2  0  0  0  0
  8 12  1  0  0  0  0
 11  5  1  0  0  0  0
 13 14  1  0  0  0  0
 14 15  1  0  0  0  0
 15  1  1  0  0  0  0
 16 15  2  0  0  0  0
 16 17  1  0  0  0  0
 18 16  1  0  0  0  0
 19 18  1  0  0  0  0
 20 21  1  0  0  0  0
 20 18  2  0  0  0  0
 21 14  2  0  0  0  0
M  END
>  <minimizedAffinity>
-4.28219509

>  <minimizedRMSD>
0.705407619

$$$$
