
 OpenBabel03242523403D

 37 41  0  0  1  0  0  0  0  0999 V2000
   46.8000   32.6880   45.0430 C   0  0  2  0  0  0  0  0  0  0  0  0
   47.3930   31.5590   44.9480 N   0  0  2  0  0  4  0  0  0  0  0  0
   47.3880   30.3260   44.7120 C   0  0  0  0  0  0  0  0  0  0  0  0
   47.7510   30.1820   46.0220 N   0  0  0  0  0  0  0  0  0  0  0  0
   46.9740   30.9530   46.8490 C   0  0  2  0  0  3  0  0  0  0  0  0
   46.7360   30.4090   48.1440 C   0  0  0  0  0  0  0  0  0  0  0  0
   45.9400   31.1150   48.9580 C   0  0  0  0  0  0  0  0  0  0  0  0
   45.3570   32.2940   48.6320 C   0  0  0  0  0  0  0  0  0  0  0  0
   45.6780   32.7040   47.3400 C   0  0  0  0  0  0  0  0  0  0  0  0
   46.4660   32.1600   46.3250 C   0  0  1  0  0  0  0  0  0  0  0  0
   47.6820   33.4190   45.4100 H   0  0  0  0  0  0  0  0  0  0  0  0
   48.2450   31.8140   44.2840 H   0  0  0  0  0  0  0  0  0  0  0  0
   48.1010   29.7380   44.0510 H   0  0  0  0  0  0  0  0  0  0  0  0
   46.4200   29.8330   44.4750 H   0  0  0  0  0  0  0  0  0  0  0  0
   48.5440   29.5370   46.3460 H   0  0  0  0  0  0  0  0  0  0  0  0
   47.1620   29.4850   48.4790 H   0  0  0  0  0  0  0  0  0  0  0  0
   45.7620   30.6840   49.9610 H   0  0  0  0  0  0  0  0  0  0  0  0
   44.7430   32.7880   49.3250 H   0  0  0  0  0  0  0  0  0  0  0  0
   45.1490   33.6560   47.2350 H   0  0  0  0  0  0  0  0  0  0  0  0
   44.5060   35.5970   45.0200 C   0  0  0  0  0  0  0  0  0  0  0  0
   44.1650   35.5150   43.6620 C   0  0  0  0  0  0  0  0  0  0  0  0
   44.7310   34.4870   42.9290 C   0  0  0  0  0  0  0  0  0  0  0  0
   45.5680   33.6510   43.5920 N   0  0  0  0  0  0  0  0  0  0  0  0
   45.8890   33.7450   44.9060 C   0  0  0  0  0  0  0  0  0  0  0  0
   45.3230   34.7110   45.4870 N   0  0  0  0  0  0  0  0  0  0  0  0
   44.1160   36.3640   45.6780 H   0  0  0  0  0  0  0  0  0  0  0  0
   43.4880   36.2350   43.2400 H   0  0  0  0  0  0  0  0  0  0  0  0
   44.3150   34.3630   41.2170 S   0  0  0  0  0  0  0  0  0  0  0  0
   42.7740   31.6310   41.7200 Br  0  0  0  0  0  0  0  0  0  0  0  0
   41.8520   33.2610   41.2960 C   0  0  0  0  0  0  0  0  0  0  0  0
   42.5370   34.4600   41.0750 C   0  0  0  0  0  0  0  0  0  0  0  0
   41.7870   35.5990   40.7720 C   0  0  0  0  0  0  0  0  0  0  0  0
   42.3740   36.4710   40.6180 H   0  0  0  0  0  0  0  0  0  0  0  0
   40.4240   35.4810   40.7070 C   0  0  0  0  0  0  0  0  0  0  0  0
   39.8790   36.3970   40.4670 H   0  0  0  0  0  0  0  0  0  0  0  0
   39.7520   34.2970   40.9250 C   0  0  0  0  0  3  0  0  0  0  0  0
   40.4890   33.1780   41.2230 C   0  0  0  0  0  3  0  0  0  0  0  0
  1 11  1  1  0  0  0
  1 10  1  0  0  0  0
  2 12  1  1  0  0  0
  2  1  1  0  0  0  0
  2 10  1  0  0  0  0
  3  2  1  0  0  0  0
  3  4  1  0  0  0  0
  4 15  1  0  0  0  0
  4  5  1  0  0  0  0
  5  6  1  6  0  0  0
  6 16  1  0  0  0  0
  6  7  2  0  0  0  0
  7 17  1  0  0  0  0
  8  7  1  0  0  0  0
  8 18  1  0  0  0  0
  9  8  2  0  0  0  0
 10  5  1  0  0  0  0
 10  9  1  6  0  0  0
 13  3  1  0  0  0  0
 14  3  1  0  0  0  0
 19  9  1  0  0  0  0
 20 25  1  0  0  0  0
 20 26  1  0  0  0  0
 21 20  2  0  0  0  0
 22 23  2  0  0  0  0
 22 21  1  0  0  0  0
 23 24  1  0  0  0  0
 24  1  1  0  0  0  0
 24 25  2  0  0  0  0
 27 21  1  0  0  0  0
 28 22  1  0  0  0  0
 30 29  1  0  0  0  0
 31 28  1  0  0  0  0
 31 30  2  0  0  0  0
 32 31  1  0  0  0  0
 33 32  1  0  0  0  0
 34 32  2  0  0  0  0
 34 36  1  0  0  0  0
 35 34  1  0  0  0  0
 36 37  2  0  0  0  0
 37 30  1  0  0  0  0
M  END
>  <minimizedAffinity>
-6.30979252

>  <minimizedRMSD>
1.84535134

$$$$
