
 OpenBabel03242519243D

 40 43  0  0  0  0  0  0  0  0999 V2000
   47.8830   33.7330   42.8680 C   0  0  0  0  0  0  0  0  0  0  0  0
   48.5970   34.9480   42.7190 C   0  0  0  0  0  0  0  0  0  0  0  0
   49.9610   34.9280   42.3970 C   0  0  0  0  0  0  0  0  0  0  0  0
   50.5270   33.6880   42.2440 N   0  0  0  0  0  0  0  0  0  0  0  0
   49.8110   32.5310   42.3950 C   0  0  0  0  0  0  0  0  0  0  0  0
   48.5210   32.5740   42.7000 N   0  0  0  0  0  0  0  0  0  0  0  0
   48.2260   35.9580   42.8230 H   0  0  0  0  0  0  0  0  0  0  0  0
   50.5570   35.7970   42.2700 H   0  0  0  0  0  0  0  0  0  0  0  0
   46.4620   33.8810   43.2120 C   0  0  0  0  0  0  0  0  0  0  0  0
   45.7580   34.8840   42.4160 C   0  0  0  0  0  0  0  0  0  0  0  0
   45.3270   36.0840   43.1790 C   0  0  0  0  0  0  0  0  0  0  0  0
   44.5480   35.7490   44.4460 C   0  0  0  0  0  0  0  0  0  0  0  0
   44.9910   34.4950   45.1310 C   0  0  0  0  0  0  0  0  0  0  0  0
   46.4090   34.1430   44.7270 C   0  0  0  0  0  0  0  0  0  0  0  0
   45.9720   32.8680   43.1060 H   0  0  0  0  0  0  0  0  0  0  0  0
   46.4190   35.2350   41.6030 H   0  0  0  0  0  0  0  0  0  0  0  0
   44.8750   34.4390   41.8940 H   0  0  0  0  0  0  0  0  0  0  0  0
   44.5560   36.5950   42.5280 H   0  0  0  0  0  0  0  0  0  0  0  0
   46.0770   36.8520   43.3680 H   0  0  0  0  0  0  0  0  0  0  0  0
   44.7340   36.5830   45.1690 H   0  0  0  0  0  0  0  0  0  0  0  0
   43.4580   35.7130   44.2880 H   0  0  0  0  0  0  0  0  0  0  0  0
   44.3430   33.6700   44.7650 H   0  0  0  0  0  0  0  0  0  0  0  0
   44.9260   34.5310   46.2200 H   0  0  0  0  0  0  0  0  0  0  0  0
   46.6940   33.1880   45.2180 H   0  0  0  0  0  0  0  0  0  0  0  0
   47.1360   34.9090   45.0390 H   0  0  0  0  0  0  0  0  0  0  0  0
   50.5670   31.3040   42.2040 C   0  0  0  0  0  0  0  0  0  0  0  0
   51.5980   31.3400   41.3130 N   0  0  0  0  0  0  0  0  0  0  0  0
   52.1780   30.1180   41.2720 C   0  0  0  0  0  0  0  0  0  0  0  0
   51.4920   29.3170   42.1540 N   0  0  0  0  0  0  0  0  0  0  0  0
   50.5230   30.0490   42.7060 N   0  0  0  0  0  0  0  0  0  0  0  0
   53.0170   29.7670   40.6880 H   0  0  0  0  0  0  0  0  0  0  0  0
   49.8370   27.2610   40.4670 Br  0  0  0  0  0  0  0  0  0  0  0  0
   51.0560   26.8850   41.8830 C   0  0  0  0  0  0  0  0  0  0  0  0
   51.6840   27.9500   42.4960 C   0  0  0  0  0  0  0  0  0  0  0  0
   52.5740   27.6430   43.5330 C   0  0  0  0  0  0  0  0  0  0  0  0
   53.1200   28.4090   44.0820 H   0  0  0  0  0  0  0  0  0  0  0  0
   52.7710   26.3080   43.8780 C   0  0  0  0  0  0  0  0  0  0  0  0
   53.4610   26.0550   44.6830 H   0  0  0  0  0  0  0  0  0  0  0  0
   52.1410   25.2740   43.2590 C   0  0  0  0  0  3  0  0  0  0  0  0
   51.2690   25.5760   42.2440 C   0  0  0  0  0  3  0  0  0  0  0  0
  1  9  1  0  0  0  0
  2  7  1  0  0  0  0
  2  1  1  0  0  0  0
  3  2  2  0  0  0  0
  4  5  2  0  0  0  0
  4  3  1  0  0  0  0
  5  6  1  0  0  0  0
  6  1  2  0  0  0  0
  8  3  1  0  0  0  0
  9 14  1  0  0  0  0
 10 11  1  0  0  0  0
 10  9  1  0  0  0  0
 11 19  1  0  0  0  0
 11 12  1  0  0  0  0
 12 13  1  0  0  0  0
 12 20  1  0  0  0  0
 13 23  1  0  0  0  0
 14 25  1  0  0  0  0
 14 13  1  0  0  0  0
 14 24  1  0  0  0  0
 15  9  1  0  0  0  0
 16 10  1  0  0  0  0
 17 10  1  0  0  0  0
 18 11  1  0  0  0  0
 21 12  1  0  0  0  0
 22 13  1  0  0  0  0
 26  5  1  0  0  0  0
 26 30  2  0  0  0  0
 27 26  1  0  0  0  0
 28 27  2  0  0  0  0
 28 29  1  0  0  0  0
 29 34  1  0  0  0  0
 29 30  1  0  0  0  0
 31 28  1  0  0  0  0
 32 33  1  0  0  0  0
 33 40  2  0  0  0  0
 33 34  1  0  0  0  0
 34 35  2  0  0  0  0
 35 37  1  0  0  0  0
 35 36  1  0  0  0  0
 37 38  1  0  0  0  0
 39 37  2  0  0  0  0
 40 39  1  0  0  0  0
M  END
>  <minimizedAffinity>
-4.16903877

>  <minimizedRMSD>
0.142600402

$$$$
