
 OpenBabel03242515093D

 36 38  0  0  0  0  0  0  0  0999 V2000
   46.0220   33.9310   44.7370 C   0  0  0  0  0  0  0  0  0  0  0  0
   45.0030   34.7880   45.0620 C   0  0  0  0  0  0  0  0  0  0  0  0
   44.6100   35.8630   44.3020 C   0  0  0  0  0  0  0  0  0  0  0  0
   45.2830   36.1010   43.1270 C   0  0  0  0  0  0  0  0  0  0  0  0
   46.3120   35.2650   42.7600 C   0  0  0  0  0  0  0  0  0  0  0  0
   46.6720   34.1910   43.5650 C   0  0  0  0  0  0  0  0  0  0  0  0
   44.4550   34.6280   45.9830 H   0  0  0  0  0  0  0  0  0  0  0  0
   43.8070   36.5380   44.5600 H   0  0  0  0  0  0  0  0  0  0  0  0
   44.9980   36.9440   42.4960 H   0  0  0  0  0  0  0  0  0  0  0  0
   46.8050   35.5020   41.8250 H   0  0  0  0  0  0  0  0  0  0  0  0
   46.5440   30.4790   45.8300 C   0  0  0  0  0  0  0  0  0  0  0  0
   47.0350   30.6200   47.1270 C   0  0  0  0  0  0  0  0  0  0  0  0
   47.1900   31.9150   47.6360 C   0  0  0  0  0  0  0  0  0  0  0  0
   46.8620   32.9920   46.8630 N   0  0  0  0  0  0  0  0  0  0  0  0
   46.3810   32.8150   45.5920 C   0  0  0  0  0  0  0  0  0  0  0  0
   46.2390   31.5640   45.1170 N   0  0  0  0  0  0  0  0  0  0  0  0
   46.4060   29.4990   45.3880 H   0  0  0  0  0  0  0  0  0  0  0  0
   47.2900   29.7490   47.7250 H   0  0  0  0  0  0  0  0  0  0  0  0
   47.5680   32.0740   48.6400 H   0  0  0  0  0  0  0  0  0  0  0  0
   47.7410   33.4290   43.0580 N   0  0  0  0  0  0  0  0  0  0  0  0
   47.4940   32.4080   43.0060 H   0  0  0  0  0  0  0  0  0  0  0  0
   49.3120   33.8280   42.5270 S   0  0  0  0  0  0  0  0  0  0  0  0
   49.2550   34.1370   41.0390 O   0  0  0  0  0  0  0  0  0  0  0  0
   49.9020   34.6490   40.5190 H   0  0  0  0  0  0  0  0  0  0  0  0
   49.9140   35.0060   43.2180 O   0  0  0  0  0  0  0  0  0  0  0  0
   49.4690   35.3290   44.0670 H   0  0  0  0  0  0  0  0  0  0  0  0
   50.2650   32.4470   42.6770 O   0  0  0  0  0  0  0  0  0  0  0  0
   48.2190   30.1680   42.0830 Br  0  0  0  0  0  0  0  0  0  0  0  0
   49.7970   30.5590   41.1030 C   0  0  0  0  0  0  0  0  0  0  0  0
   50.5190   31.6280   41.5920 C   0  0  0  0  0  0  0  0  0  0  0  0
   51.6990   32.0180   40.9620 C   0  0  0  0  0  0  0  0  0  0  0  0
   52.3570   32.8280   41.2340 H   0  0  0  0  0  0  0  0  0  0  0  0
   52.1710   31.3390   39.8330 C   0  0  0  0  0  0  0  0  0  0  0  0
   53.0680   31.5830   39.2980 H   0  0  0  0  0  0  0  0  0  0  0  0
   51.4270   30.2650   39.3590 C   0  0  0  0  0  0  0  0  0  0  0  0
   50.2610   29.8880   39.9900 C   0  0  0  0  0  0  0  0  0  0  0  0
  1  2  1  0  0  0  0
  1 15  1  0  0  0  0
  2  7  1  0  0  0  0
  3  8  1  0  0  0  0
  3  2  2  0  0  0  0
  4  3  1  0  0  0  0
  5  4  2  0  0  0  0
  5  6  1  0  0  0  0
  6  1  2  0  0  0  0
  9  4  1  0  0  0  0
 10  5  1  0  0  0  0
 11 12  1  0  0  0  0
 12 13  2  0  0  0  0
 12 18  1  0  0  0  0
 13 19  1  0  0  0  0
 14 13  1  0  0  0  0
 15 14  2  0  0  0  0
 16 15  1  0  0  0  0
 16 11  2  0  0  0  0
 17 11  1  0  0  0  0
 20  6  1  0  0  0  0
 21 20  1  0  0  0  0
 22 27  1  0  0  0  0
 22 20  1  0  0  0  0
 22 25  1  0  0  0  0
 23 22  1  0  0  0  0
 24 23  1  0  0  0  0
 25 26  1  0  0  0  0
 29 30  1  0  0  0  0
 29 28  1  0  0  0  0
 30 27  1  0  0  0  0
 31 32  1  0  0  0  0
 31 30  2  0  0  0  0
 33 31  1  0  0  0  0
 34 33  1  0  0  0  0
 35 33  2  0  0  0  0
 35 36  1  0  0  0  0
 36 29  2  0  0  0  0
M  END
>  <minimizedAffinity>
-5.79466724

>  <minimizedRMSD>
2.04108024

$$$$
