
 OpenBabel03242515463D

 41 44  0  0  1  0  0  0  0  0999 V2000
   40.6920   35.4140   40.3460 C   0  0  0  0  0  0  0  0  0  0  0  0
   41.6460   34.6330   41.0010 C   0  0  0  0  0  0  0  0  0  0  0  0
   41.4680   33.2750   41.1680 C   0  0  0  0  0  0  0  0  0  0  0  0
   40.3390   32.6610   40.6860 C   0  0  0  0  0  0  0  0  0  0  0  0
   39.3840   33.4140   40.0350 C   0  0  0  0  0  0  0  0  0  0  0  0
   39.5320   34.7650   39.8550 C   0  0  0  0  0  0  0  0  0  0  0  0
   38.3610   32.5170   39.6640 O   0  0  0  0  0  0  0  0  0  0  0  0
   38.5590   31.3380   40.3350 C   0  0  2  0  0  0  0  0  0  0  0  0
   39.9170   31.3280   40.7170 O   0  0  0  0  0  0  0  0  0  0  0  0
   40.7560   36.4800   40.1760 H   0  0  0  0  0  0  0  0  0  0  0  0
   42.2640   32.7630   41.6890 H   0  0  0  0  0  0  0  0  0  0  0  0
   38.7830   35.3570   39.3440 H   0  0  0  0  0  0  0  0  0  0  0  0
   37.9890   31.4060   41.3070 H   0  0  0  0  0  0  0  0  0  0  0  0
   37.4450   29.1330   42.2710 Br  0  0  0  0  0  0  0  0  0  0  0  0
   37.6150   29.0310   40.3630 C   0  0  0  0  0  0  0  0  0  0  0  0
   38.1350   30.1120   39.6460 C   0  0  0  0  0  0  0  0  0  0  0  0
   38.2290   29.9700   38.2770 C   0  0  0  0  0  0  0  0  0  0  0  0
   38.6180   30.7570   37.6530 H   0  0  0  0  0  0  0  0  0  0  0  0
   37.8240   28.8030   37.6290 C   0  0  0  0  0  0  0  0  0  0  0  0
   37.9040   28.7080   36.5500 H   0  0  0  0  0  0  0  0  0  0  0  0
   37.3130   27.7430   38.3350 C   0  0  0  0  0  3  0  0  0  0  0  0
   37.2210   27.8890   39.7030 C   0  0  0  0  0  3  0  0  0  0  0  0
   43.0570   35.5960   41.5410 S   0  0  0  0  0  0  0  0  0  0  0  0
   44.5990   34.7160   41.1130 C   0  0  0  0  0  0  0  0  0  0  0  0
   44.5810   34.0350   39.9510 C   0  0  0  0  0  0  0  0  0  0  0  0
   45.7570   33.3530   39.6440 C   0  0  0  0  0  0  0  0  0  0  0  0
   46.8250   33.3850   40.4630 N   0  0  0  0  0  0  0  0  0  0  0  0
   46.7920   34.0840   41.6160 C   0  0  0  0  0  0  0  0  0  0  0  0
   45.6640   34.7340   41.9030 N   0  0  0  0  0  0  0  0  0  0  0  0
   45.8490   32.5720   38.4340 N   0  0  0  0  0  0  0  0  0  0  0  0
   45.7790   32.9280   37.4350 H   0  0  0  0  0  0  0  0  0  0  0  0
   45.9980   31.5550   38.5700 H   0  0  0  0  0  0  0  0  0  0  0  0
   43.5780   33.8430   38.8570 C   0  0  0  0  0  0  0  0  0  0  0  0
   42.8850   34.7050   38.9490 H   0  0  0  0  0  0  0  0  0  0  0  0
   43.0780   32.8850   39.0270 H   0  0  0  0  0  0  0  0  0  0  0  0
   44.0440   33.9600   37.8550 H   0  0  0  0  0  0  0  0  0  0  0  0
   47.8330   34.1780   42.5160 O   0  0  0  0  0  0  0  0  0  0  0  0
   49.0630   34.7020   42.0440 C   0  0  0  0  0  0  0  0  0  0  0  0
   49.8180   33.7410   41.4430 F   0  0  0  0  0  0  0  0  0  0  0  0
   48.7410   35.7410   41.1550 F   0  0  0  0  0  0  0  0  0  0  0  0
   49.7730   35.1800   43.1250 F   0  0  0  0  0  0  0  0  0  0  0  0
  1  2  1  0  0  0  0
  2  3  2  0  0  0  0
  2 23  1  0  0  0  0
  3 11  1  0  0  0  0
  4  9  1  0  0  0  0
  4  3  1  0  0  0  0
  5  4  2  0  0  0  0
  6  5  1  0  0  0  0
  6  1  2  0  0  0  0
  7  5  1  0  0  0  0
  7  8  1  0  0  0  0
  8  9  1  0  0  0  0
  8 13  1  1  0  0  0
 10  1  1  0  0  0  0
 12  6  1  0  0  0  0
 15 14  1  0  0  0  0
 16  8  1  0  0  0  0
 16 15  2  0  0  0  0
 17 16  1  0  0  0  0
 18 17  1  0  0  0  0
 19 17  2  0  0  0  0
 19 21  1  0  0  0  0
 20 19  1  0  0  0  0
 21 22  2  0  0  0  0
 22 15  1  0  0  0  0
 24 23  1  0  0  0  0
 24 29  1  0  0  0  0
 25 24  2  0  0  0  0
 26 25  1  0  0  0  0
 26 27  2  0  0  0  0
 27 28  1  0  0  0  0
 28 29  2  0  0  0  0
 28 37  1  0  0  0  0
 30 32  1  0  0  0  0
 30 26  1  0  0  0  0
 31 30  1  0  0  0  0
 33 34  1  0  0  0  0
 33 35  1  0  0  0  0
 33 25  1  0  0  0  0
 36 33  1  0  0  0  0
 38 37  1  0  0  0  0
 38 41  1  0  0  0  0
 39 38  1  0  0  0  0
 40 38  1  0  0  0  0
M  END
>  <minimizedAffinity>
-6.12425089

>  <minimizedRMSD>
1.65203881

$$$$
