
 OpenBabel03252508033D

 42 45  0  0  1  0  0  0  0  0999 V2000
   42.0380   33.2760   41.1260 C   0  0  0  0  0  0  0  0  0  0  0  0
   42.7990   34.3960   41.3100 C   0  0  0  0  0  0  0  0  0  0  0  0
   42.1480   35.6450   41.2700 C   0  0  0  0  0  0  0  0  0  0  0  0
   40.7980   35.7910   41.0580 C   0  0  0  0  0  0  0  0  0  0  0  0
   40.0420   34.6620   40.8760 C   0  0  0  0  0  0  0  0  0  0  0  0
   40.6660   33.4500   40.9140 C   0  0  0  0  0  0  0  0  0  0  0  0
   42.6680   36.5880   41.3960 H   0  0  0  0  0  0  0  0  0  0  0  0
   40.3150   36.7480   41.0300 H   0  0  0  0  0  0  0  0  0  0  0  0
   38.9770   34.6760   40.7040 H   0  0  0  0  0  0  0  0  0  0  0  0
   40.0540   32.5450   40.7670 H   0  0  0  0  0  0  0  0  0  0  0  0
   42.6700   31.7210   41.2410 S   0  0  0  0  0  0  0  0  0  0  0  0
   41.5270   30.9020   40.5610 O   0  0  0  0  0  0  0  0  0  0  0  0
   42.7790   31.2390   42.6400 O   0  0  0  0  0  0  0  0  0  0  0  0
   43.1260   28.7750   42.1810 Br  0  0  0  0  0  0  0  0  0  0  0  0
   43.9530   29.5370   40.6080 C   0  0  0  0  0  0  0  0  0  0  0  0
   43.7400   30.8960   40.2370 C   0  0  0  0  0  0  0  0  0  0  0  0
   44.4420   31.1880   39.0740 C   0  0  0  0  0  0  0  0  0  0  0  0
   44.2200   32.2320   38.7790 H   0  0  0  0  0  0  0  0  0  0  0  0
   45.2620   30.4390   38.2650 C   0  0  0  0  0  0  0  0  0  0  0  0
   45.7030   30.8760   37.4090 H   0  0  0  0  0  0  0  0  0  0  0  0
   45.3410   29.1770   38.7810 C   0  0  0  0  0  3  0  0  0  0  0  0
   44.7430   28.6670   39.8990 C   0  0  0  0  0  3  0  0  0  0  0  0
   44.2300   34.3530   41.5420 C   0  0  0  0  0  0  0  0  0  0  0  0
   45.1030   34.2490   40.6280 O   0  0  0  0  0  0  0  0  0  0  0  0
   44.5820   34.4420   42.9390 C   0  0  0  0  0  0  0  0  0  0  0  0
   44.3050   35.7050   43.5680 C   0  0  0  0  0  0  0  0  0  0  0  0
   44.6310   35.8140   44.9080 C   0  0  0  0  0  0  0  0  0  0  0  0
   45.1800   34.7420   45.5320 N   0  0  0  0  0  0  0  0  0  0  0  0
   45.4240   33.5560   44.8850 C   0  0  0  0  0  0  0  0  0  0  0  0
   45.1240   33.4460   43.6370 N   0  0  0  0  0  0  0  0  0  0  0  0
   43.8840   36.5790   43.1520 H   0  0  0  0  0  0  0  0  0  0  0  0
   44.4770   36.7040   45.4990 H   0  0  0  0  0  0  0  0  0  0  0  0
   46.0150   32.4410   45.6490 C   0  0  1  0  0  0  0  0  0  0  0  0
   46.9670   32.7490   46.7840 C   0  0  0  0  0  0  0  0  0  0  0  0
   45.5520   32.3330   47.0510 C   0  0  1  0  0  0  0  0  0  0  0  0
   46.1440   31.4930   45.1010 H   0  0  0  0  0  0  0  0  0  0  0  0
   47.2720   33.8060   46.8550 H   0  0  0  0  0  0  0  0  0  0  0  0
   47.7220   31.9530   46.9700 H   0  0  0  0  0  0  0  0  0  0  0  0
   45.3530   31.3380   47.4770 H   0  0  0  0  0  0  0  0  0  0  0  0
   44.7650   33.4020   47.6460 N   0  0  0  0  0  0  0  0  0  0  0  0
   45.2130   33.8110   48.4720 H   0  0  0  0  0  0  0  0  0  0  0  0
   43.7720   33.1130   47.7770 H   0  0  0  0  0  0  0  0  0  0  0  0
  1 11  1  0  0  0  0
  1  2  1  0  0  0  0
  2 23  1  0  0  0  0
  3  2  2  0  0  0  0
  3  7  1  0  0  0  0
  4  3  1  0  0  0  0
  5  6  1  0  0  0  0
  5  4  2  0  0  0  0
  6  1  2  0  0  0  0
  8  4  1  0  0  0  0
  9  5  1  0  0  0  0
 10  6  1  0  0  0  0
 11 13  2  0  0  0  0
 12 11  2  0  0  0  0
 15 14  1  0  0  0  0
 16 15  1  0  0  0  0
 16 11  1  0  0  0  0
 17 16  2  0  0  0  0
 18 17  1  0  0  0  0
 19 21  2  0  0  0  0
 19 17  1  0  0  0  0
 20 19  1  0  0  0  0
 21 22  1  0  0  0  0
 22 15  2  0  0  0  0
 23 25  1  0  0  0  0
 24 23  2  0  0  0  0
 25 26  2  0  0  0  0
 25 30  1  0  0  0  0
 26 27  1  0  0  0  0
 27 32  1  0  0  0  0
 27 28  2  0  0  0  0
 29 28  1  0  0  0  0
 29 33  1  0  0  0  0
 30 29  2  0  0  0  0
 31 26  1  0  0  0  0
 33 36  1  6  0  0  0
 33 34  1  0  0  0  0
 33 35  1  0  0  0  0
 34 37  1  0  0  0  0
 34 38  1  0  0  0  0
 34 35  1  0  0  0  0
 35 39  1  1  0  0  0
 35 40  1  0  0  0  0
 40 42  1  0  0  0  0
 40 41  1  0  0  0  0
M  END
>  <minimizedAffinity>
-5.72993565

>  <minimizedRMSD>
1.23072028

$$$$
