
 OpenBabel03242515463D

 41 44  0  0  1  0  0  0  0  0999 V2000
   40.0350   34.1180   40.6490 C   0  0  0  0  0  0  0  0  0  0  0  0
   41.3240   33.7810   41.0650 C   0  0  0  0  0  0  0  0  0  0  0  0
   41.6170   32.5170   41.5360 C   0  0  0  0  0  0  0  0  0  0  0  0
   40.6370   31.5590   41.6040 C   0  0  0  0  0  0  0  0  0  0  0  0
   39.3560   31.8710   41.1970 C   0  0  0  0  0  0  0  0  0  0  0  0
   39.0340   33.1180   40.7240 C   0  0  0  0  0  0  0  0  0  0  0  0
   38.5880   30.7030   41.3810 O   0  0  0  0  0  0  0  0  0  0  0  0
   39.3130   29.8290   42.1510 C   0  0  2  0  0  0  0  0  0  0  0  0
   40.6610   30.2280   42.0300 O   0  0  0  0  0  0  0  0  0  0  0  0
   39.7240   35.0820   40.2690 H   0  0  0  0  0  0  0  0  0  0  0  0
   42.6430   32.3600   41.8340 H   0  0  0  0  0  0  0  0  0  0  0  0
   38.0290   33.3640   40.4050 H   0  0  0  0  0  0  0  0  0  0  0  0
   39.0490   30.0350   43.2290 H   0  0  0  0  0  0  0  0  0  0  0  0
   36.7210   29.2270   40.4890 Br  0  0  0  0  0  0  0  0  0  0  0  0
   37.9890   27.9600   41.1700 C   0  0  0  0  0  0  0  0  0  0  0  0
   39.0990   28.3990   41.8970 C   0  0  0  0  0  0  0  0  0  0  0  0
   39.9710   27.4330   42.3560 C   0  0  0  0  0  0  0  0  0  0  0  0
   40.8500   27.6900   42.9240 H   0  0  0  0  0  0  0  0  0  0  0  0
   39.7620   26.0760   42.1100 C   0  0  0  0  0  0  0  0  0  0  0  0
   40.4580   25.3290   42.4790 H   0  0  0  0  0  0  0  0  0  0  0  0
   38.6720   25.6460   41.3960 C   0  0  0  0  0  3  0  0  0  0  0  0
   37.8020   26.6150   40.9380 C   0  0  0  0  0  3  0  0  0  0  0  0
   42.4730   35.1440   40.8880 S   0  0  0  0  0  0  0  0  0  0  0  0
   44.1430   34.4950   40.5390 C   0  0  0  0  0  0  0  0  0  0  0  0
   44.2420   33.6680   39.4820 C   0  0  0  0  0  0  0  0  0  0  0  0
   45.5180   33.1640   39.2370 C   0  0  0  0  0  0  0  0  0  0  0  0
   46.5670   33.4940   40.0140 N   0  0  0  0  0  0  0  0  0  0  0  0
   46.4160   34.3290   41.0620 C   0  0  0  0  0  0  0  0  0  0  0  0
   45.1920   34.8060   41.2900 N   0  0  0  0  0  0  0  0  0  0  0  0
   45.7410   32.2510   38.1420 N   0  0  0  0  0  0  0  0  0  0  0  0
   45.6060   32.4490   37.1050 H   0  0  0  0  0  0  0  0  0  0  0  0
   46.0670   31.3050   38.4090 H   0  0  0  0  0  0  0  0  0  0  0  0
   43.2840   33.1550   38.4520 C   0  0  0  0  0  0  0  0  0  0  0  0
   42.4500   33.8870   38.4460 H   0  0  0  0  0  0  0  0  0  0  0  0
   42.9610   32.1570   38.7630 H   0  0  0  0  0  0  0  0  0  0  0  0
   43.7180   33.2110   37.4300 H   0  0  0  0  0  0  0  0  0  0  0  0
   47.4270   34.7260   41.9110 O   0  0  0  0  0  0  0  0  0  0  0  0
   48.6390   35.1710   41.3260 C   0  0  0  0  0  0  0  0  0  0  0  0
   49.6500   34.2820   41.5320 F   0  0  0  0  0  0  0  0  0  0  0  0
   48.3790   35.3530   39.9570 F   0  0  0  0  0  0  0  0  0  0  0  0
   48.9980   36.3610   41.9220 F   0  0  0  0  0  0  0  0  0  0  0  0
  1  6  2  0  0  0  0
  1  2  1  0  0  0  0
  2  3  2  0  0  0  0
  3  4  1  0  0  0  0
  3 11  1  0  0  0  0
  4  9  1  0  0  0  0
  5  7  1  0  0  0  0
  5  4  2  0  0  0  0
  6  5  1  0  0  0  0
  7  8  1  0  0  0  0
  8 13  1  1  0  0  0
  9  8  1  0  0  0  0
 10  1  1  0  0  0  0
 12  6  1  0  0  0  0
 14 15  1  0  0  0  0
 15 16  1  0  0  0  0
 16  8  1  0  0  0  0
 16 17  2  0  0  0  0
 17 18  1  0  0  0  0
 19 17  1  0  0  0  0
 19 20  1  0  0  0  0
 21 19  2  0  0  0  0
 22 15  2  0  0  0  0
 22 21  1  0  0  0  0
 23  2  1  0  0  0  0
 24 23  1  0  0  0  0
 24 29  1  0  0  0  0
 25 24  2  0  0  0  0
 26 25  1  0  0  0  0
 26 27  2  0  0  0  0
 27 28  1  0  0  0  0
 28 29  2  0  0  0  0
 28 37  1  0  0  0  0
 30 32  1  0  0  0  0
 30 26  1  0  0  0  0
 31 30  1  0  0  0  0
 33 35  1  0  0  0  0
 33 25  1  0  0  0  0
 34 33  1  0  0  0  0
 36 33  1  0  0  0  0
 38 39  1  0  0  0  0
 38 37  1  0  0  0  0
 38 41  1  0  0  0  0
 40 38  1  0  0  0  0
M  END
>  <minimizedAffinity>
-6.18209219

>  <minimizedRMSD>
0.941790998

$$$$
