
 OpenBabel03242519253D

 40 43  0  0  0  0  0  0  0  0999 V2000
   47.8950   33.7990   42.8970 C   0  0  0  0  0  0  0  0  0  0  0  0
   48.5670   35.0210   42.6440 C   0  0  0  0  0  0  0  0  0  0  0  0
   49.9320   35.0200   42.3220 C   0  0  0  0  0  0  0  0  0  0  0  0
   50.5390   33.7910   42.2740 N   0  0  0  0  0  0  0  0  0  0  0  0
   49.8620   32.6270   42.5240 C   0  0  0  0  0  0  0  0  0  0  0  0
   48.5710   32.6530   42.8270 N   0  0  0  0  0  0  0  0  0  0  0  0
   48.1630   36.0220   42.6630 H   0  0  0  0  0  0  0  0  0  0  0  0
   50.4980   35.8930   42.1210 H   0  0  0  0  0  0  0  0  0  0  0  0
   46.4700   33.9290   43.2290 C   0  0  0  0  0  0  0  0  0  0  0  0
   45.7620   34.9360   42.4410 C   0  0  0  0  0  0  0  0  0  0  0  0
   45.3130   36.1200   43.2170 C   0  0  0  0  0  0  0  0  0  0  0  0
   44.5250   35.7590   44.4720 C   0  0  0  0  0  0  0  0  0  0  0  0
   44.9740   34.4990   45.1430 C   0  0  0  0  0  0  0  0  0  0  0  0
   46.3990   34.1680   44.7480 C   0  0  0  0  0  0  0  0  0  0  0  0
   45.9910   32.9120   43.1050 H   0  0  0  0  0  0  0  0  0  0  0  0
   46.4270   35.3040   41.6400 H   0  0  0  0  0  0  0  0  0  0  0  0
   44.8890   34.4890   41.9050 H   0  0  0  0  0  0  0  0  0  0  0  0
   44.5420   36.6330   42.5660 H   0  0  0  0  0  0  0  0  0  0  0  0
   46.0520   36.8930   43.4240 H   0  0  0  0  0  0  0  0  0  0  0  0
   44.6960   36.5840   45.2090 H   0  0  0  0  0  0  0  0  0  0  0  0
   43.4370   35.7150   44.3030 H   0  0  0  0  0  0  0  0  0  0  0  0
   44.3380   33.6730   44.7590 H   0  0  0  0  0  0  0  0  0  0  0  0
   44.8980   34.5200   46.2320 H   0  0  0  0  0  0  0  0  0  0  0  0
   46.6890   33.2090   45.2280 H   0  0  0  0  0  0  0  0  0  0  0  0
   47.1150   34.9370   45.0770 H   0  0  0  0  0  0  0  0  0  0  0  0
   50.6600   31.4140   42.4360 C   0  0  0  0  0  0  0  0  0  0  0  0
   51.5130   31.3060   41.3800 N   0  0  0  0  0  0  0  0  0  0  0  0
   52.1640   30.1220   41.4690 C   0  0  0  0  0  0  0  0  0  0  0  0
   51.7010   29.4930   42.6000 N   0  0  0  0  0  0  0  0  0  0  0  0
   50.7940   30.2870   43.1700 N   0  0  0  0  0  0  0  0  0  0  0  0
   52.9110   29.6900   40.8180 H   0  0  0  0  0  0  0  0  0  0  0  0
   53.9330   29.5620   44.7960 Br  0  0  0  0  0  0  0  0  0  0  0  0
   53.0030   28.0350   44.1360 C   0  0  0  0  0  0  0  0  0  0  0  0
   52.0490   28.2310   43.1590 C   0  0  0  0  0  0  0  0  0  0  0  0
   51.3820   27.0910   42.6930 C   0  0  0  0  0  0  0  0  0  0  0  0
   50.6120   27.1360   41.9240 H   0  0  0  0  0  0  0  0  0  0  0  0
   51.7120   25.8500   43.2320 C   0  0  0  0  0  0  0  0  0  0  0  0
   51.2010   24.9540   42.8790 H   0  0  0  0  0  0  0  0  0  0  0  0
   52.6560   25.6810   44.1960 C   0  0  0  0  0  3  0  0  0  0  0  0
   53.3100   26.7980   44.6510 C   0  0  0  0  0  3  0  0  0  0  0  0
  1  9  1  0  0  0  0
  2  7  1  0  0  0  0
  2  1  2  0  0  0  0
  3  2  1  0  0  0  0
  4  3  2  0  0  0  0
  4  5  1  0  0  0  0
  5  6  2  0  0  0  0
  6  1  1  0  0  0  0
  8  3  1  0  0  0  0
  9 14  1  0  0  0  0
 10 11  1  0  0  0  0
 10  9  1  0  0  0  0
 11 19  1  0  0  0  0
 11 12  1  0  0  0  0
 12 13  1  0  0  0  0
 12 20  1  0  0  0  0
 13 23  1  0  0  0  0
 14 25  1  0  0  0  0
 14 13  1  0  0  0  0
 14 24  1  0  0  0  0
 15  9  1  0  0  0  0
 16 10  1  0  0  0  0
 17 10  1  0  0  0  0
 18 11  1  0  0  0  0
 21 12  1  0  0  0  0
 22 13  1  0  0  0  0
 26  5  1  0  0  0  0
 26 30  2  0  0  0  0
 27 28  2  0  0  0  0
 27 26  1  0  0  0  0
 28 29  1  0  0  0  0
 29 34  1  0  0  0  0
 29 30  1  0  0  0  0
 31 28  1  0  0  0  0
 33 40  1  0  0  0  0
 33 32  1  0  0  0  0
 34 33  2  0  0  0  0
 35 34  1  0  0  0  0
 35 37  2  0  0  0  0
 36 35  1  0  0  0  0
 37 39  1  0  0  0  0
 38 37  1  0  0  0  0
 39 40  2  0  0  0  0
M  END
>  <minimizedAffinity>
-4.33889532

>  <minimizedRMSD>
1.18126845

$$$$
