
 OpenBabel03242519253D

 40 43  0  0  0  0  0  0  0  0999 V2000
   47.9020   33.7900   42.8910 C   0  0  0  0  0  0  0  0  0  0  0  0
   48.5790   35.0130   42.6560 C   0  0  0  0  0  0  0  0  0  0  0  0
   49.9450   35.0120   42.3370 C   0  0  0  0  0  0  0  0  0  0  0  0
   50.5480   33.7820   42.2740 N   0  0  0  0  0  0  0  0  0  0  0  0
   49.8670   32.6170   42.5060 C   0  0  0  0  0  0  0  0  0  0  0  0
   48.5760   32.6430   42.8060 N   0  0  0  0  0  0  0  0  0  0  0  0
   48.1780   36.0150   42.6870 H   0  0  0  0  0  0  0  0  0  0  0  0
   50.5140   35.8870   42.1490 H   0  0  0  0  0  0  0  0  0  0  0  0
   46.4770   33.9190   43.2220 C   0  0  0  0  0  0  0  0  0  0  0  0
   45.7690   34.9240   42.4300 C   0  0  0  0  0  0  0  0  0  0  0  0
   45.3180   36.1100   43.2020 C   0  0  0  0  0  0  0  0  0  0  0  0
   44.5300   35.7520   44.4570 C   0  0  0  0  0  0  0  0  0  0  0  0
   44.9800   34.4950   45.1330 C   0  0  0  0  0  0  0  0  0  0  0  0
   46.4050   34.1640   44.7390 C   0  0  0  0  0  0  0  0  0  0  0  0
   45.9990   32.9020   43.1000 H   0  0  0  0  0  0  0  0  0  0  0  0
   46.4340   35.2900   41.6280 H   0  0  0  0  0  0  0  0  0  0  0  0
   44.8960   34.4740   41.8950 H   0  0  0  0  0  0  0  0  0  0  0  0
   44.5470   36.6200   42.5490 H   0  0  0  0  0  0  0  0  0  0  0  0
   46.0570   36.8840   43.4070 H   0  0  0  0  0  0  0  0  0  0  0  0
   44.7000   36.5800   45.1920 H   0  0  0  0  0  0  0  0  0  0  0  0
   43.4410   35.7060   44.2880 H   0  0  0  0  0  0  0  0  0  0  0  0
   44.3440   33.6670   44.7510 H   0  0  0  0  0  0  0  0  0  0  0  0
   44.9030   34.5190   46.2210 H   0  0  0  0  0  0  0  0  0  0  0  0
   46.6960   33.2070   45.2230 H   0  0  0  0  0  0  0  0  0  0  0  0
   47.1200   34.9340   45.0670 H   0  0  0  0  0  0  0  0  0  0  0  0
   50.6610   31.4030   42.4030 C   0  0  0  0  0  0  0  0  0  0  0  0
   51.5140   31.3050   41.3460 N   0  0  0  0  0  0  0  0  0  0  0  0
   52.1610   30.1180   41.4200 C   0  0  0  0  0  0  0  0  0  0  0  0
   51.6970   29.4770   42.5430 N   0  0  0  0  0  0  0  0  0  0  0  0
   50.7920   30.2660   43.1230 N   0  0  0  0  0  0  0  0  0  0  0  0
   52.9080   29.6920   40.7640 H   0  0  0  0  0  0  0  0  0  0  0  0
   49.9630   27.0700   41.5380 Br  0  0  0  0  0  0  0  0  0  0  0  0
   51.4070   27.0190   42.7810 C   0  0  0  0  0  0  0  0  0  0  0  0
   52.0400   28.2070   43.0860 C   0  0  0  0  0  0  0  0  0  0  0  0
   53.0970   28.1390   44.0010 C   0  0  0  0  0  0  0  0  0  0  0  0
   53.6620   29.0170   44.3110 H   0  0  0  0  0  0  0  0  0  0  0  0
   53.4430   26.9020   44.5410 C   0  0  0  0  0  0  0  0  0  0  0  0
   54.2640   26.8340   45.2540 H   0  0  0  0  0  0  0  0  0  0  0  0
   52.8050   25.7440   44.2250 C   0  0  0  0  0  3  0  0  0  0  0  0
   51.7690   25.8120   43.3270 C   0  0  0  0  0  3  0  0  0  0  0  0
  1  9  1  0  0  0  0
  2  7  1  0  0  0  0
  2  1  2  0  0  0  0
  3  2  1  0  0  0  0
  4  3  2  0  0  0  0
  4  5  1  0  0  0  0
  5  6  2  0  0  0  0
  6  1  1  0  0  0  0
  8  3  1  0  0  0  0
  9 14  1  0  0  0  0
 10 11  1  0  0  0  0
 10  9  1  0  0  0  0
 11 19  1  0  0  0  0
 11 12  1  0  0  0  0
 12 13  1  0  0  0  0
 12 20  1  0  0  0  0
 13 23  1  0  0  0  0
 14 25  1  0  0  0  0
 14 13  1  0  0  0  0
 14 24  1  0  0  0  0
 15  9  1  0  0  0  0
 16 10  1  0  0  0  0
 17 10  1  0  0  0  0
 18 11  1  0  0  0  0
 21 12  1  0  0  0  0
 22 13  1  0  0  0  0
 26  5  1  0  0  0  0
 26 30  2  0  0  0  0
 27 28  2  0  0  0  0
 27 26  1  0  0  0  0
 28 29  1  0  0  0  0
 29 34  1  0  0  0  0
 29 30  1  0  0  0  0
 31 28  1  0  0  0  0
 32 33  1  0  0  0  0
 33 34  2  0  0  0  0
 33 40  1  0  0  0  0
 34 35  1  0  0  0  0
 35 36  1  0  0  0  0
 35 37  2  0  0  0  0
 37 38  1  0  0  0  0
 39 37  1  0  0  0  0
 40 39  2  0  0  0  0
M  END
>  <minimizedAffinity>
-4.20741892

>  <minimizedRMSD>
0.658943236

$$$$
