
 OpenBabel03252503163D

 36 39  0  0  0  0  0  0  0  0999 V2000
   46.8310   34.6830   41.8440 C   0  0  0  0  0  0  0  0  0  0  0  0
   47.8630   35.4150   41.6710 O   0  0  0  0  0  0  0  0  0  0  0  0
   46.4270   33.5820   40.9120 C   0  0  0  0  0  0  0  0  0  0  0  0
   45.1850   33.4350   40.3310 C   0  0  0  0  0  0  0  0  0  0  0  0
   45.2780   32.3200   39.5810 N   0  0  0  0  0  0  0  0  0  0  0  0
   46.5200   31.8120   39.7000 C   0  0  0  0  0  0  0  0  0  0  0  0
   47.2380   32.5900   40.5230 N   0  0  0  0  0  0  0  0  0  0  0  0
   47.1150   30.6510   39.1090 N   0  0  0  0  0  0  0  0  0  0  0  0
   44.3220   34.0550   40.4360 H   0  0  0  0  0  0  0  0  0  0  0  0
   47.6720   30.0050   39.7170 H   0  0  0  0  0  0  0  0  0  0  0  0
   46.9370   30.5370   38.0720 H   0  0  0  0  0  0  0  0  0  0  0  0
   45.5210   32.9280   36.5430 Br  0  0  0  0  0  0  0  0  0  0  0  0
   44.2070   31.8370   37.3800 C   0  0  0  0  0  0  0  0  0  0  0  0
   44.2860   31.7000   38.7620 C   0  0  0  0  0  0  0  0  0  0  0  0
   43.3630   30.9230   39.4330 C   0  0  0  0  0  0  0  0  0  0  0  0
   43.3720   30.7780   40.5050 H   0  0  0  0  0  0  0  0  0  0  0  0
   42.3710   30.2900   38.7140 C   0  0  0  0  0  0  0  0  0  0  0  0
   41.6110   29.6610   39.1730 H   0  0  0  0  0  0  0  0  0  0  0  0
   42.2580   30.4010   37.3300 C   0  0  0  0  0  3  0  0  0  0  0  0
   43.2060   31.1950   36.6760 C   0  0  0  0  0  3  0  0  0  0  0  0
   45.4460   36.2280   43.1400 C   0  0  0  0  0  0  0  0  0  0  0  0
   46.0630   34.9720   42.9980 C   0  0  0  0  0  0  0  0  0  0  0  0
   45.8510   34.1020   44.0410 C   0  0  0  0  0  0  0  0  0  0  0  0
   45.1080   34.4340   45.1160 N   0  0  0  0  0  0  0  0  0  0  0  0
   44.5350   35.6580   45.2030 C   0  0  0  0  0  0  0  0  0  0  0  0
   44.7080   36.5470   44.2150 N   0  0  0  0  0  0  0  0  0  0  0  0
   45.5440   36.9940   42.3780 H   0  0  0  0  0  0  0  0  0  0  0  0
   43.9520   35.8670   46.0870 H   0  0  0  0  0  0  0  0  0  0  0  0
   46.4360   32.8130   43.9860 C   0  0  0  0  0  0  0  0  0  0  0  0
   47.6930   32.3180   44.1410 C   0  0  0  0  0  0  0  0  0  0  0  0
   47.9510   31.0320   44.0300 C   0  0  0  0  0  0  0  0  0  0  0  0
   46.9170   30.2080   43.7530 C   0  0  0  0  0  0  0  0  0  0  0  0
   45.4930   31.3420   43.6460 S   0  0  0  0  0  0  0  0  0  0  0  0
   48.4590   33.0870   44.3650 H   0  0  0  0  0  0  0  0  0  0  0  0
   48.9190   30.5610   44.1380 H   0  0  0  0  0  0  0  0  0  0  0  0
   46.8440   29.1130   43.6070 H   0  0  0  0  0  0  0  0  0  0  0  0
  1 22  1  0  0  0  0
  2  1  2  0  0  0  0
  3  1  1  0  0  0  0
  4  9  1  0  0  0  0
  4  3  2  0  0  0  0
  5  6  1  0  0  0  0
  5  4  1  0  0  0  0
  6  7  2  0  0  0  0
  7  3  1  0  0  0  0
  8  6  1  0  0  0  0
  8 10  1  0  0  0  0
 11  8  1  0  0  0  0
 12 13  1  0  0  0  0
 13 14  1  0  0  0  0
 14 15  2  0  0  0  0
 14  5  1  0  0  0  0
 15 16  1  0  0  0  0
 17 18  1  0  0  0  0
 17 15  1  0  0  0  0
 19 17  2  0  0  0  0
 20 19  1  0  0  0  0
 20 13  2  0  0  0  0
 21 26  1  0  0  0  0
 22 21  2  0  0  0  0
 22 23  1  0  0  0  0
 23 24  2  0  0  0  0
 24 25  1  0  0  0  0
 25 28  1  0  0  0  0
 26 25  2  0  0  0  0
 27 21  1  0  0  0  0
 29 23  1  0  0  0  0
 29 30  2  0  0  0  0
 30 34  1  0  0  0  0
 31 35  1  0  0  0  0
 31 30  1  0  0  0  0
 32 31  2  0  0  0  0
 33 32  1  0  0  0  0
 33 29  1  0  0  0  0
 36 32  1  0  0  0  0
M  END
>  <minimizedAffinity>
-4.55155802

>  <minimizedRMSD>
1.54949534

$$$$
