
 OpenBabel03252509303D

 21 22  0  0  0  0  0  0  0  0999 V2000
   38.0540   28.2230   43.6790 C   0  0  0  0  0  0  0  0  0  0  0  0
   37.1330   28.3490   44.3110 H   0  0  0  0  0  0  0  0  0  0  0  0
   38.9730   28.3230   44.2890 H   0  0  0  0  0  0  0  0  0  0  0  0
   39.1740   31.0280   41.5110 C   0  0  0  0  0  0  0  0  0  0  0  0
   39.2190   30.0090   42.4820 C   0  0  0  0  0  0  0  0  0  0  0  0
   38.0360   29.2930   42.6780 C   0  0  0  0  0  0  0  0  0  0  0  0
   36.9270   29.6060   41.9410 N   0  0  0  0  0  0  0  0  0  0  0  0
   36.9470   30.5970   41.0220 C   0  0  0  0  0  0  0  0  0  0  0  0
   38.0660   31.3010   40.8120 N   0  0  0  0  0  0  0  0  0  0  0  0
   40.0810   31.6020   41.3390 H   0  0  0  0  0  0  0  0  0  0  0  0
   40.1230   29.7950   43.0440 H   0  0  0  0  0  0  0  0  0  0  0  0
   35.9710   30.6830   40.5490 H   0  0  0  0  0  0  0  0  0  0  0  0
   40.9010   26.8680   43.6790 Br  0  0  0  0  0  0  0  0  0  0  0  0
   39.2270   26.1990   43.0190 C   0  0  0  0  0  0  0  0  0  0  0  0
   38.0110   26.8740   43.0540 C   0  0  0  0  0  0  0  0  0  0  0  0
   36.8940   26.2700   42.5370 C   0  0  0  0  0  0  0  0  0  0  0  0
   35.9640   26.8230   42.5810 H   0  0  0  0  0  0  0  0  0  0  0  0
   37.0220   24.9990   41.9950 C   0  0  0  0  0  0  0  0  0  0  0  0
   36.1190   24.5410   41.5920 H   0  0  0  0  0  0  0  0  0  0  0  0
   38.2060   24.3090   41.9470 C   0  0  0  0  0  3  0  0  0  0  0  0
   39.3410   24.9230   42.4710 C   0  0  0  0  0  3  0  0  0  0  0  0
  1  3  1  0  0  0  0
  1  2  1  0  0  0  0
  4  5  1  0  0  0  0
  5  6  2  0  0  0  0
  5 11  1  0  0  0  0
  6  1  1  0  0  0  0
  7  6  1  0  0  0  0
  8  7  2  0  0  0  0
  9  8  1  0  0  0  0
  9  4  2  0  0  0  0
 10  4  1  0  0  0  0
 12  8  1  0  0  0  0
 14 15  1  0  0  0  0
 14 13  1  0  0  0  0
 15  1  1  0  0  0  0
 16 17  1  0  0  0  0
 16 15  2  0  0  0  0
 18 16  1  0  0  0  0
 19 18  1  0  0  0  0
 20 18  2  0  0  0  0
 20 21  1  0  0  0  0
 21 14  2  0  0  0  0
M  END
>  <minimizedAffinity>
-4.54040956

$$$$

 OpenBabel03252509303D

 21 22  0  0  0  0  0  0  0  0999 V2000
   36.6860   27.3180   42.7720 C   0  0  0  0  0  0  0  0  0  0  0  0
   36.0060   26.5010   42.4090 H   0  0  0  0  0  0  0  0  0  0  0  0
   36.3230   27.7470   43.7270 H   0  0  0  0  0  0  0  0  0  0  0  0
   36.3140   29.0300   39.4940 C   0  0  0  0  0  0  0  0  0  0  0  0
   36.3180   28.0000   40.4530 C   0  0  0  0  0  0  0  0  0  0  0  0
   36.6770   28.3690   41.7510 C   0  0  0  0  0  0  0  0  0  0  0  0
   36.9980   29.6720   42.0190 N   0  0  0  0  0  0  0  0  0  0  0  0
   36.9750   30.6160   41.0520 C   0  0  0  0  0  0  0  0  0  0  0  0
   36.6350   30.2930   39.7990 N   0  0  0  0  0  0  0  0  0  0  0  0
   36.0390   28.7700   38.4740 H   0  0  0  0  0  0  0  0  0  0  0  0
   36.0560   26.9780   40.1960 H   0  0  0  0  0  0  0  0  0  0  0  0
   37.2590   31.5800   41.4710 H   0  0  0  0  0  0  0  0  0  0  0  0
   36.8880   24.4190   41.5490 Br  0  0  0  0  0  0  0  0  0  0  0  0
   38.2250   25.4640   42.4470 C   0  0  0  0  0  0  0  0  0  0  0  0
   38.0450   26.7420   42.9660 C   0  0  0  0  0  0  0  0  0  0  0  0
   39.0940   27.3660   43.5900 C   0  0  0  0  0  0  0  0  0  0  0  0
   38.9190   28.3610   43.9810 H   0  0  0  0  0  0  0  0  0  0  0  0
   40.3040   26.6930   43.6790 C   0  0  0  0  0  0  0  0  0  0  0  0
   41.1220   27.2120   44.1780 H   0  0  0  0  0  0  0  0  0  0  0  0
   40.5110   25.4330   43.1780 C   0  0  0  0  0  3  0  0  0  0  0  0
   39.4450   24.7990   42.5450 C   0  0  0  0  0  3  0  0  0  0  0  0
  1 15  1  0  0  0  0
  1  3  1  0  0  0  0
  2  1  1  0  0  0  0
  4  9  2  0  0  0  0
  4  5  1  0  0  0  0
  5  6  2  0  0  0  0
  6  7  1  0  0  0  0
  6  1  1  0  0  0  0
  8 12  1  0  0  0  0
  8  7  2  0  0  0  0
  9  8  1  0  0  0  0
 10  4  1  0  0  0  0
 11  5  1  0  0  0  0
 13 14  1  0  0  0  0
 14 21  2  0  0  0  0
 14 15  1  0  0  0  0
 15 16  2  0  0  0  0
 16 18  1  0  0  0  0
 16 17  1  0  0  0  0
 18 19  1  0  0  0  0
 20 18  2  0  0  0  0
 21 20  1  0  0  0  0
M  END
>  <minimizedAffinity>
-4.53195381

$$$$

 OpenBabel03252509303D

 21 22  0  0  0  0  0  0  0  0999 V2000
   36.2900   30.6920   41.0330 C   0  0  0  0  0  0  0  0  0  0  0  0
   36.6820   31.6740   41.4110 H   0  0  0  0  0  0  0  0  0  0  0  0
   35.2020   30.5970   41.2190 H   0  0  0  0  0  0  0  0  0  0  0  0
   38.9350   28.8780   42.9130 C   0  0  0  0  0  0  0  0  0  0  0  0
   38.2900   29.9070   42.2000 C   0  0  0  0  0  0  0  0  0  0  0  0
   36.9870   29.6380   41.7750 C   0  0  0  0  0  0  0  0  0  0  0  0
   36.4190   28.4270   42.0630 N   0  0  0  0  0  0  0  0  0  0  0  0
   37.0910   27.4790   42.7530 C   0  0  0  0  0  0  0  0  0  0  0  0
   38.3410   27.7080   43.1740 N   0  0  0  0  0  0  0  0  0  0  0  0
   39.9510   29.0610   43.2550 H   0  0  0  0  0  0  0  0  0  0  0  0
   38.7800   30.8540   41.9940 H   0  0  0  0  0  0  0  0  0  0  0  0
   36.4640   26.5980   42.8760 H   0  0  0  0  0  0  0  0  0  0  0  0
   37.9260   33.1940   40.0310 Br  0  0  0  0  0  0  0  0  0  0  0  0
   37.2830   31.6770   39.0450 C   0  0  0  0  0  0  0  0  0  0  0  0
   36.5570   30.6130   39.5710 C   0  0  0  0  0  0  0  0  0  0  0  0
   36.1590   29.5980   38.7410 C   0  0  0  0  0  0  0  0  0  0  0  0
   35.5960   28.7850   39.1840 H   0  0  0  0  0  0  0  0  0  0  0  0
   36.4990   29.6710   37.3980 C   0  0  0  0  0  0  0  0  0  0  0  0
   36.1710   28.8510   36.7600 H   0  0  0  0  0  0  0  0  0  0  0  0
   37.2130   30.7060   36.8510 C   0  0  0  0  0  3  0  0  0  0  0  0
   37.6170   31.7380   37.6930 C   0  0  0  0  0  3  0  0  0  0  0  0
  1  3  1  0  0  0  0
  1  2  1  0  0  0  0
  1  6  1  0  0  0  0
  4  9  1  0  0  0  0
  4 10  1  0  0  0  0
  5  4  2  0  0  0  0
  6  7  2  0  0  0  0
  6  5  1  0  0  0  0
  7  8  1  0  0  0  0
  8 12  1  0  0  0  0
  8  9  2  0  0  0  0
 11  5  1  0  0  0  0
 14 15  1  0  0  0  0
 14 13  1  0  0  0  0
 15  1  1  0  0  0  0
 16 17  1  0  0  0  0
 16 15  2  0  0  0  0
 18 16  1  0  0  0  0
 19 18  1  0  0  0  0
 20 18  2  0  0  0  0
 20 21  1  0  0  0  0
 21 14  2  0  0  0  0
M  END
>  <minimizedAffinity>
-4.51029968

$$$$

 OpenBabel03252509303D

 21 22  0  0  0  0  0  0  0  0999 V2000
   35.6370   28.8800   40.8760 C   0  0  0  0  0  0  0  0  0  0  0  0
   35.2510   28.1970   40.0710 H   0  0  0  0  0  0  0  0  0  0  0  0
   34.8150   29.2340   41.5280 H   0  0  0  0  0  0  0  0  0  0  0  0
   37.0360   31.0630   38.2120 C   0  0  0  0  0  0  0  0  0  0  0  0
   36.4630   29.9350   38.8310 C   0  0  0  0  0  0  0  0  0  0  0  0
   36.2360   30.0370   40.2050 C   0  0  0  0  0  0  0  0  0  0  0  0
   36.5710   31.1890   40.8620 N   0  0  0  0  0  0  0  0  0  0  0  0
   37.1190   32.2380   40.2100 C   0  0  0  0  0  0  0  0  0  0  0  0
   37.3490   32.1710   38.8940 N   0  0  0  0  0  0  0  0  0  0  0  0
   37.2250   31.0100   37.1420 H   0  0  0  0  0  0  0  0  0  0  0  0
   36.2130   29.0400   38.2690 H   0  0  0  0  0  0  0  0  0  0  0  0
   37.3070   33.0500   40.9100 H   0  0  0  0  0  0  0  0  0  0  0  0
   36.5450   26.2360   39.4160 Br  0  0  0  0  0  0  0  0  0  0  0  0
   37.0960   26.9490   41.1120 C   0  0  0  0  0  0  0  0  0  0  0  0
   36.6330   28.1290   41.6870 C   0  0  0  0  0  0  0  0  0  0  0  0
   37.1150   28.5110   42.9120 C   0  0  0  0  0  0  0  0  0  0  0  0
   36.7340   29.4350   43.3300 H   0  0  0  0  0  0  0  0  0  0  0  0
   38.0520   27.7000   43.5350 C   0  0  0  0  0  0  0  0  0  0  0  0
   38.4200   28.0270   44.5070 H   0  0  0  0  0  0  0  0  0  0  0  0
   38.5260   26.5320   42.9940 C   0  0  0  0  0  3  0  0  0  0  0  0
   38.0370   26.1430   41.7500 C   0  0  0  0  0  3  0  0  0  0  0  0
  1  3  1  0  0  0  0
  1 15  1  0  0  0  0
  2  1  1  0  0  0  0
  4  5  2  0  0  0  0
  4  9  1  0  0  0  0
  5  6  1  0  0  0  0
  6  7  2  0  0  0  0
  6  1  1  0  0  0  0
  8  7  1  0  0  0  0
  8 12  1  0  0  0  0
  9  8  2  0  0  0  0
 10  4  1  0  0  0  0
 11  5  1  0  0  0  0
 13 14  1  0  0  0  0
 14 15  2  0  0  0  0
 14 21  1  0  0  0  0
 15 16  1  0  0  0  0
 16 17  1  0  0  0  0
 16 18  2  0  0  0  0
 18 19  1  0  0  0  0
 20 18  1  0  0  0  0
 21 20  2  0  0  0  0
M  END
>  <minimizedAffinity>
-4.50583506

$$$$

 OpenBabel03252509303D

 21 22  0  0  0  0  0  0  0  0999 V2000
   35.4900   29.0190   40.7090 C   0  0  0  0  0  0  0  0  0  0  0  0
   34.7490   29.3920   41.4670 H   0  0  0  0  0  0  0  0  0  0  0  0
   34.9870   28.4490   39.9050 H   0  0  0  0  0  0  0  0  0  0  0  0
   37.7390   26.1490   41.4330 C   0  0  0  0  0  0  0  0  0  0  0  0
   36.8520   26.9890   40.7320 C   0  0  0  0  0  0  0  0  0  0  0  0
   36.4100   28.1240   41.4150 C   0  0  0  0  0  0  0  0  0  0  0  0
   36.8450   28.3570   42.6910 N   0  0  0  0  0  0  0  0  0  0  0  0
   37.6980   27.5100   43.3110 C   0  0  0  0  0  0  0  0  0  0  0  0
   38.1390   26.4150   42.6820 N   0  0  0  0  0  0  0  0  0  0  0  0
   38.0980   25.2570   40.9240 H   0  0  0  0  0  0  0  0  0  0  0  0
   36.5330   26.7650   39.7180 H   0  0  0  0  0  0  0  0  0  0  0  0
   37.9180   27.8760   44.3120 H   0  0  0  0  0  0  0  0  0  0  0  0
   35.8200   28.7250   37.5870 Br  0  0  0  0  0  0  0  0  0  0  0  0
   36.3750   30.1510   38.7480 C   0  0  0  0  0  0  0  0  0  0  0  0
   36.1930   30.1940   40.1260 C   0  0  0  0  0  0  0  0  0  0  0  0
   36.6500   31.2800   40.8280 C   0  0  0  0  0  0  0  0  0  0  0  0
   36.4910   31.2810   41.9000 H   0  0  0  0  0  0  0  0  0  0  0  0
   37.2790   32.3000   40.1300 C   0  0  0  0  0  0  0  0  0  0  0  0
   37.6310   33.1520   40.7120 H   0  0  0  0  0  0  0  0  0  0  0  0
   37.4730   32.2850   38.7730 C   0  0  0  0  0  3  0  0  0  0  0  0
   37.0100   31.1830   38.0590 C   0  0  0  0  0  3  0  0  0  0  0  0
  1  6  1  0  0  0  0
  1  2  1  0  0  0  0
  3  1  1  0  0  0  0
  4  9  1  0  0  0  0
  5  6  1  0  0  0  0
  5  4  2  0  0  0  0
  6  7  2  0  0  0  0
  7  8  1  0  0  0  0
  8 12  1  0  0  0  0
  9  8  2  0  0  0  0
 10  4  1  0  0  0  0
 11  5  1  0  0  0  0
 13 14  1  0  0  0  0
 14 15  1  0  0  0  0
 15  1  1  0  0  0  0
 15 16  2  0  0  0  0
 16 17  1  0  0  0  0
 18 19  1  0  0  0  0
 18 16  1  0  0  0  0
 20 18  2  0  0  0  0
 21 14  2  0  0  0  0
 21 20  1  0  0  0  0
M  END
>  <minimizedAffinity>
-4.43077469

$$$$

 OpenBabel03252509303D

 21 22  0  0  0  0  0  0  0  0999 V2000
   36.4390   30.3280   41.3520 C   0  0  0  0  0  0  0  0  0  0  0  0
   35.5440   30.6270   41.9620 H   0  0  0  0  0  0  0  0  0  0  0  0
   37.1330   31.1790   41.2160 H   0  0  0  0  0  0  0  0  0  0  0  0
   36.2420   29.7810   37.6800 C   0  0  0  0  0  0  0  0  0  0  0  0
   36.7420   30.1950   38.9300 C   0  0  0  0  0  0  0  0  0  0  0  0
   35.9410   29.9120   40.0380 C   0  0  0  0  0  0  0  0  0  0  0  0
   34.7480   29.2670   39.8620 N   0  0  0  0  0  0  0  0  0  0  0  0
   34.3220   28.8950   38.6340 C   0  0  0  0  0  0  0  0  0  0  0  0
   35.0670   29.1520   37.5540 N   0  0  0  0  0  0  0  0  0  0  0  0
   36.8460   29.9900   36.8000 H   0  0  0  0  0  0  0  0  0  0  0  0
   37.6970   30.7040   39.0230 H   0  0  0  0  0  0  0  0  0  0  0  0
   33.3560   28.3990   38.7130 H   0  0  0  0  0  0  0  0  0  0  0  0
   39.4680   31.0300   41.8770 Br  0  0  0  0  0  0  0  0  0  0  0  0
   38.4800   29.4490   42.3390 C   0  0  0  0  0  0  0  0  0  0  0  0
   37.1360   29.2200   42.0590 C   0  0  0  0  0  0  0  0  0  0  0  0
   36.5650   28.0360   42.4480 C   0  0  0  0  0  0  0  0  0  0  0  0
   35.5160   27.8900   42.2150 H   0  0  0  0  0  0  0  0  0  0  0  0
   37.3540   27.1070   43.1090 C   0  0  0  0  0  0  0  0  0  0  0  0
   36.8750   26.1750   43.4080 H   0  0  0  0  0  0  0  0  0  0  0  0
   38.6800   27.3050   43.3980 C   0  0  0  0  0  3  0  0  0  0  0  0
   39.2620   28.5070   43.0040 C   0  0  0  0  0  3  0  0  0  0  0  0
  1  2  1  0  0  0  0
  1 15  1  0  0  0  0
  3  1  1  0  0  0  0
  4  5  1  0  0  0  0
  5 11  1  0  0  0  0
  5  6  2  0  0  0  0
  6  1  1  0  0  0  0
  7  6  1  0  0  0  0
  8 12  1  0  0  0  0
  8  7  2  0  0  0  0
  9  4  2  0  0  0  0
  9  8  1  0  0  0  0
 10  4  1  0  0  0  0
 13 14  1  0  0  0  0
 14 21  1  0  0  0  0
 15 14  2  0  0  0  0
 15 16  1  0  0  0  0
 16 18  2  0  0  0  0
 17 16  1  0  0  0  0
 18 20  1  0  0  0  0
 18 19  1  0  0  0  0
 21 20  2  0  0  0  0
M  END
>  <minimizedAffinity>
-4.37478352

$$$$

 OpenBabel03252509303D

 21 22  0  0  0  0  0  0  0  0999 V2000
   39.1990   29.7170   40.5530 C   0  0  0  0  0  0  0  0  0  0  0  0
   40.2440   29.8130   40.9550 H   0  0  0  0  0  0  0  0  0  0  0  0
   39.1900   29.1740   39.5880 H   0  0  0  0  0  0  0  0  0  0  0  0
   37.1500   32.5440   39.2770 C   0  0  0  0  0  0  0  0  0  0  0  0
   37.6120   31.2270   39.4670 C   0  0  0  0  0  0  0  0  0  0  0  0
   38.6980   31.0760   40.3330 C   0  0  0  0  0  0  0  0  0  0  0  0
   39.2420   32.1780   40.9340 N   0  0  0  0  0  0  0  0  0  0  0  0
   38.7510   33.4180   40.7090 C   0  0  0  0  0  0  0  0  0  0  0  0
   37.7120   33.5940   39.8850 N   0  0  0  0  0  0  0  0  0  0  0  0
   36.3050   32.6900   38.6060 H   0  0  0  0  0  0  0  0  0  0  0  0
   37.1500   30.3810   38.9690 H   0  0  0  0  0  0  0  0  0  0  0  0
   39.3200   34.1490   41.2800 H   0  0  0  0  0  0  0  0  0  0  0  0
   37.7740   27.2250   39.2490 Br  0  0  0  0  0  0  0  0  0  0  0  0
   37.7210   27.8550   41.0620 C   0  0  0  0  0  0  0  0  0  0  0  0
   38.3810   28.9770   41.5520 C   0  0  0  0  0  0  0  0  0  0  0  0
   38.2450   29.3090   42.8750 C   0  0  0  0  0  0  0  0  0  0  0  0
   38.7730   30.1890   43.2240 H   0  0  0  0  0  0  0  0  0  0  0  0
   37.4490   28.5070   43.6790 C   0  0  0  0  0  0  0  0  0  0  0  0
   37.3590   28.7920   44.7270 H   0  0  0  0  0  0  0  0  0  0  0  0
   36.7870   27.3950   43.2250 C   0  0  0  0  0  3  0  0  0  0  0  0
   36.9240   27.0570   41.8810 C   0  0  0  0  0  3  0  0  0  0  0  0
  1  2  1  0  0  0  0
  1 15  1  0  0  0  0
  3  1  1  0  0  0  0
  4  5  2  0  0  0  0
  4  9  1  0  0  0  0
  5  6  1  0  0  0  0
  6  1  1  0  0  0  0
  6  7  2  0  0  0  0
  8  7  1  0  0  0  0
  8 12  1  0  0  0  0
  9  8  2  0  0  0  0
 10  4  1  0  0  0  0
 11  5  1  0  0  0  0
 13 14  1  0  0  0  0
 14 15  2  0  0  0  0
 14 21  1  0  0  0  0
 15 16  1  0  0  0  0
 16 17  1  0  0  0  0
 16 18  2  0  0  0  0
 18 19  1  0  0  0  0
 20 18  1  0  0  0  0
 21 20  2  0  0  0  0
M  END
>  <minimizedAffinity>
-4.30001545

$$$$

 OpenBabel03252509303D

 21 22  0  0  0  0  0  0  0  0999 V2000
   37.1350   27.5620   42.8040 C   0  0  0  0  0  0  0  0  0  0  0  0
   37.9380   27.9790   43.4700 H   0  0  0  0  0  0  0  0  0  0  0  0
   36.2450   27.2630   43.3910 H   0  0  0  0  0  0  0  0  0  0  0  0
   37.4910   24.0730   41.5710 C   0  0  0  0  0  0  0  0  0  0  0  0
   36.9330   25.1990   42.2050 C   0  0  0  0  0  0  0  0  0  0  0  0
   37.6920   26.3710   42.1560 C   0  0  0  0  0  0  0  0  0  0  0  0
   38.9010   26.3670   41.5160 N   0  0  0  0  0  0  0  0  0  0  0  0
   39.3820   25.2500   40.9260 C   0  0  0  0  0  0  0  0  0  0  0  0
   38.6780   24.1130   40.9560 N   0  0  0  0  0  0  0  0  0  0  0  0
   36.9210   23.1460   41.5950 H   0  0  0  0  0  0  0  0  0  0  0  0
   35.9690   25.1580   42.7020 H   0  0  0  0  0  0  0  0  0  0  0  0
   40.3500   25.4590   40.4750 H   0  0  0  0  0  0  0  0  0  0  0  0
   39.2100   29.9360   42.7980 Br  0  0  0  0  0  0  0  0  0  0  0  0
   37.6260   29.6930   41.7410 C   0  0  0  0  0  0  0  0  0  0  0  0
   36.7570   28.6080   41.8160 C   0  0  0  0  0  0  0  0  0  0  0  0
   35.6570   28.5730   40.9980 C   0  0  0  0  0  0  0  0  0  0  0  0
   35.0030   27.7130   41.0820 H   0  0  0  0  0  0  0  0  0  0  0  0
   35.4520   29.6290   40.1220 C   0  0  0  0  0  0  0  0  0  0  0  0
   34.5720   29.5750   39.4820 H   0  0  0  0  0  0  0  0  0  0  0  0
   36.2900   30.7100   40.0260 C   0  0  0  0  0  3  0  0  0  0  0  0
   37.4070   30.7470   40.8560 C   0  0  0  0  0  3  0  0  0  0  0  0
  1  3  1  0  0  0  0
  1  2  1  0  0  0  0
  4 10  1  0  0  0  0
  4  5  1  0  0  0  0
  5 11  1  0  0  0  0
  6  5  2  0  0  0  0
  6  1  1  0  0  0  0
  7  6  1  0  0  0  0
  8  9  1  0  0  0  0
  8  7  2  0  0  0  0
  9  4  2  0  0  0  0
 12  8  1  0  0  0  0
 14 15  1  0  0  0  0
 14 13  1  0  0  0  0
 15  1  1  0  0  0  0
 16 17  1  0  0  0  0
 16 15  2  0  0  0  0
 18 16  1  0  0  0  0
 19 18  1  0  0  0  0
 20 18  2  0  0  0  0
 20 21  1  0  0  0  0
 21 14  2  0  0  0  0
M  END
>  <minimizedAffinity>
-4.27806044

$$$$

 OpenBabel03252509303D

 21 22  0  0  0  0  0  0  0  0999 V2000
   37.5080   28.2750   43.2100 C   0  0  0  0  0  0  0  0  0  0  0  0
   37.6630   28.4690   44.3060 H   0  0  0  0  0  0  0  0  0  0  0  0
   36.4340   28.1420   42.9760 H   0  0  0  0  0  0  0  0  0  0  0  0
   39.9790   25.5020   43.3520 C   0  0  0  0  0  0  0  0  0  0  0  0
   39.3200   26.7020   43.6800 C   0  0  0  0  0  0  0  0  0  0  0  0
   38.2160   27.0330   42.8900 C   0  0  0  0  0  0  0  0  0  0  0  0
   37.8420   26.2030   41.8700 N   0  0  0  0  0  0  0  0  0  0  0  0
   38.5180   25.0620   41.6050 C   0  0  0  0  0  0  0  0  0  0  0  0
   39.5790   24.7180   42.3440 N   0  0  0  0  0  0  0  0  0  0  0  0
   40.8430   25.2210   43.9510 H   0  0  0  0  0  0  0  0  0  0  0  0
   39.6520   27.3320   44.5000 H   0  0  0  0  0  0  0  0  0  0  0  0
   38.0600   24.5500   40.7610 H   0  0  0  0  0  0  0  0  0  0  0  0
   35.6500   29.0120   40.7710 Br  0  0  0  0  0  0  0  0  0  0  0  0
   37.2830   29.8350   41.3580 C   0  0  0  0  0  0  0  0  0  0  0  0
   38.0470   29.4360   42.4500 C   0  0  0  0  0  0  0  0  0  0  0  0
   39.1990   30.1180   42.7470 C   0  0  0  0  0  0  0  0  0  0  0  0
   39.7690   29.7810   43.6050 H   0  0  0  0  0  0  0  0  0  0  0  0
   39.5590   31.1880   41.9410 C   0  0  0  0  0  0  0  0  0  0  0  0
   40.4770   31.7140   42.2000 H   0  0  0  0  0  0  0  0  0  0  0  0
   38.8260   31.6040   40.8590 C   0  0  0  0  0  3  0  0  0  0  0  0
   37.6570   30.9110   40.5560 C   0  0  0  0  0  3  0  0  0  0  0  0
  1  2  1  0  0  0  0
  3  1  1  0  0  0  0
  4  5  1  0  0  0  0
  4 10  1  0  0  0  0
  5 11  1  0  0  0  0
  6  1  1  0  0  0  0
  6  5  2  0  0  0  0
  7  6  1  0  0  0  0
  8  7  2  0  0  0  0
  8  9  1  0  0  0  0
  9  4  2  0  0  0  0
 12  8  1  0  0  0  0
 13 14  1  0  0  0  0
 14 15  1  0  0  0  0
 15 16  2  0  0  0  0
 15  1  1  0  0  0  0
 16 17  1  0  0  0  0
 18 19  1  0  0  0  0
 18 16  1  0  0  0  0
 20 18  2  0  0  0  0
 21 20  1  0  0  0  0
 21 14  2  0  0  0  0
M  END
>  <minimizedAffinity>
-4.18532133

$$$$
