
 OpenBabel03242510573D

 36 38  0  0  0  0  0  0  0  0999 V2000
   45.7400   31.7100   47.0570 C   0  0  0  0  0  0  0  0  0  0  0  0
   45.6070   32.1640   48.3760 C   0  0  0  0  0  0  0  0  0  0  0  0
   45.4030   31.3250   49.4500 C   0  0  0  0  0  0  0  0  0  0  0  0
   45.3270   29.9740   49.1930 C   0  0  0  0  0  0  0  0  0  0  0  0
   45.4590   29.5180   47.8780 C   0  0  0  0  0  0  0  0  0  0  0  0
   45.6540   30.3910   46.8940 N   0  0  0  0  0  0  0  0  0  0  0  0
   45.6740   33.2370   48.5290 H   0  0  0  0  0  0  0  0  0  0  0  0
   45.3160   31.7740   50.4100 H   0  0  0  0  0  0  0  0  0  0  0  0
   45.1650   29.3480   50.0590 H   0  0  0  0  0  0  0  0  0  0  0  0
   44.7350   36.6930   43.7970 C   0  0  0  0  0  0  0  0  0  0  0  0
   45.6270   36.4140   42.7520 C   0  0  0  0  0  0  0  0  0  0  0  0
   46.3040   35.1930   42.7730 C   0  0  0  0  0  0  0  0  0  0  0  0
   46.0770   34.3230   43.7970 N   0  0  0  0  0  0  0  0  0  0  0  0
   45.2050   34.6350   44.7860 C   0  0  0  0  0  0  0  0  0  0  0  0
   44.5290   35.8250   44.7900 N   0  0  0  0  0  0  0  0  0  0  0  0
   45.9540   32.6630   45.9780 C   0  0  0  0  0  0  0  0  0  0  0  0
   46.9590   32.5190   45.2360 O   0  0  0  0  0  0  0  0  0  0  0  0
   44.9910   33.7120   45.8370 N   0  0  0  0  0  0  0  0  0  0  0  0
   44.2470   37.6620   43.7120 H   0  0  0  0  0  0  0  0  0  0  0  0
   45.8660   37.0340   41.9100 H   0  0  0  0  0  0  0  0  0  0  0  0
   47.0210   34.8860   42.0000 H   0  0  0  0  0  0  0  0  0  0  0  0
   44.1870   33.7660   46.4890 H   0  0  0  0  0  0  0  0  0  0  0  0
   45.3920   28.0970   47.6350 C   0  0  0  0  0  3  0  0  0  0  0  0
   44.2550   27.4500   47.7390 C   0  0  0  0  0  3  0  0  0  0  0  0
   43.9910   26.0020   47.5470 C   0  0  0  0  0  0  0  0  0  0  0  0
   43.0250   25.6790   47.9790 H   0  0  0  0  0  0  0  0  0  0  0  0
   44.0820   25.7460   46.4620 H   0  0  0  0  0  0  0  0  0  0  0  0
   43.6300   26.0820   50.6020 Br  0  0  0  0  0  0  0  0  0  0  0  0
   45.0470   25.2450   49.6180 C   0  0  0  0  0  0  0  0  0  0  0  0
   45.1000   25.2750   48.2220 C   0  0  0  0  0  0  0  0  0  0  0  0
   46.1750   24.6320   47.5910 C   0  0  0  0  0  0  0  0  0  0  0  0
   46.1610   24.6890   46.5110 H   0  0  0  0  0  0  0  0  0  0  0  0
   47.1240   24.0040   48.3720 C   0  0  0  0  0  0  0  0  0  0  0  0
   47.9520   23.5100   47.8370 H   0  0  0  0  0  0  0  0  0  0  0  0
   47.0500   23.9880   49.7490 C   0  0  0  0  0  3  0  0  0  0  0  0
   45.9930   24.6200   50.3990 C   0  0  0  0  0  3  0  0  0  0  0  0
  1  2  1  0  0  0  0
  2  7  1  0  0  0  0
  2  3  2  0  0  0  0
  3  8  1  0  0  0  0
  4  3  1  0  0  0  0
  4  9  1  0  0  0  0
  5  4  2  0  0  0  0
  6  1  2  0  0  0  0
  6  5  1  0  0  0  0
 10 15  1  0  0  0  0
 11 12  1  0  0  0  0
 11 10  2  0  0  0  0
 12 13  2  0  0  0  0
 13 14  1  0  0  0  0
 14 15  2  0  0  0  0
 14 18  1  0  0  0  0
 16  1  1  0  0  0  0
 17 16  2  0  0  0  0
 18 16  1  0  0  0  0
 18 22  1  0  0  0  0
 19 10  1  0  0  0  0
 20 11  1  0  0  0  0
 21 12  1  0  0  0  0
 23 24  2  0  0  0  0
 23  5  1  0  0  0  0
 25 24  1  0  0  0  0
 25 26  1  0  0  0  0
 25 30  1  0  0  0  0
 27 25  1  0  0  0  0
 29 36  1  0  0  0  0
 29 28  1  0  0  0  0
 30 29  2  0  0  0  0
 31 30  1  0  0  0  0
 31 33  2  0  0  0  0
 32 31  1  0  0  0  0
 33 35  1  0  0  0  0
 34 33  1  0  0  0  0
 35 36  2  0  0  0  0
M  END
>  <minimizedAffinity>
-5.81832075

>  <minimizedRMSD>
1.21340549

$$$$
