
 OpenBabel03252509263D

 30 32  0  0  1  0  0  0  0  0999 V2000
   46.5090   34.9690   41.9530 C   0  0  1  0  0  0  0  0  0  0  0  0
   48.0090   35.3690   41.9490 C   0  0  0  0  0  0  0  0  0  0  0  0
   47.4180   34.0270   41.4440 C   0  0  2  0  0  0  0  0  0  0  0  0
   45.8760   35.6190   41.3150 H   0  0  0  0  0  0  0  0  0  0  0  0
   48.2660   36.1060   41.1640 H   0  0  0  0  0  0  0  0  0  0  0  0
   48.5610   35.3620   42.8960 H   0  0  0  0  0  0  0  0  0  0  0  0
   47.7830   33.1560   42.0730 H   0  0  0  0  0  0  0  0  0  0  0  0
   44.6200   35.4840   45.1530 C   0  0  0  0  0  0  0  0  0  0  0  0
   45.0860   35.7320   43.8310 C   0  0  0  0  0  0  0  0  0  0  0  0
   46.0000   34.8440   43.3710 C   0  0  0  0  0  0  0  0  0  0  0  0
   46.4500   33.7730   44.1340 N   0  0  0  0  0  0  0  0  0  0  0  0
   45.9670   33.5920   45.3880 C   0  0  0  0  0  0  0  0  0  0  0  0
   45.0470   34.4570   45.8900 N   0  0  0  0  0  0  0  0  0  0  0  0
   43.8870   36.1640   45.5690 H   0  0  0  0  0  0  0  0  0  0  0  0
   46.4140   32.7200   45.8450 H   0  0  0  0  0  0  0  0  0  0  0  0
   44.6630   36.8340   43.0670 N   0  0  0  0  0  0  0  0  0  0  0  0
   44.0250   36.4870   42.3230 H   0  0  0  0  0  0  0  0  0  0  0  0
   44.9920   37.8150   43.2890 H   0  0  0  0  0  0  0  0  0  0  0  0
   47.4960   33.7030   39.9700 C   0  0  0  0  0  0  0  0  0  0  0  0
   46.5560   33.2140   39.6140 H   0  0  0  0  0  0  0  0  0  0  0  0
   47.6050   34.6500   39.4200 H   0  0  0  0  0  0  0  0  0  0  0  0
   47.8930   33.4780   36.9510 Br  0  0  0  0  0  0  0  0  0  0  0  0
   48.9510   32.6990   38.3260 C   0  0  0  0  0  0  0  0  0  0  0  0
   48.6740   32.8720   39.6790 C   0  0  0  0  0  0  0  0  0  0  0  0
   49.4850   32.2760   40.6130 C   0  0  0  0  0  0  0  0  0  0  0  0
   49.2000   32.4590   41.6460 H   0  0  0  0  0  0  0  0  0  0  0  0
   50.5840   31.4980   40.3230 C   0  0  0  0  0  0  0  0  0  0  0  0
   51.1920   31.0510   41.0720 H   0  0  0  0  0  0  0  0  0  0  0  0
   50.8410   31.3410   38.9630 C   0  0  0  0  0  3  0  0  0  0  0  0
   50.0560   31.9180   37.9940 C   0  0  0  0  0  3  0  0  0  0  0  0
  1  4  1  6  0  0  0
  1 10  1  0  0  0  0
  2  1  1  0  0  0  0
  2  6  1  0  0  0  0
  3  2  1  0  0  0  0
  3  1  1  0  0  0  0
  3  7  1  1  0  0  0
  5  2  1  0  0  0  0
  8 14  1  0  0  0  0
  8 13  1  0  0  0  0
  9  8  2  0  0  0  0
 10  9  1  0  0  0  0
 10 11  2  0  0  0  0
 11 12  1  0  0  0  0
 12 15  1  0  0  0  0
 12 13  2  0  0  0  0
 16 18  1  0  0  0  0
 16  9  1  0  0  0  0
 17 16  1  0  0  0  0
 19  3  1  0  0  0  0
 20 19  1  0  0  0  0
 21 19  1  0  0  0  0
 22 23  1  0  0  0  0
 23 24  1  0  0  0  0
 24 19  1  0  0  0  0
 24 25  2  0  0  0  0
 25 26  1  0  0  0  0
 27 25  1  0  0  0  0
 27 28  1  0  0  0  0
 29 27  2  0  0  0  0
 30 23  2  0  0  0  0
 30 29  1  0  0  0  0
M  END
>  <minimizedAffinity>
-5.12186289

>  <minimizedRMSD>
1.67679524

$$$$
