
 OpenBabel03252504533D

 21 22  0  0  0  0  0  0  0  0999 V2000
   46.1250   35.4970   42.2700 C   0  0  0  0  0  0  0  0  0  0  0  0
   47.1300   35.9980   42.3170 H   0  0  0  0  0  0  0  0  0  0  0  0
   45.3310   36.2190   41.9950 H   0  0  0  0  0  0  0  0  0  0  0  0
   44.6170   35.1100   45.6450 C   0  0  0  0  0  0  0  0  0  0  0  0
   44.8700   35.6350   44.3630 C   0  0  0  0  0  0  0  0  0  0  0  0
   45.8430   34.9750   43.6090 C   0  0  0  0  0  0  0  0  0  0  0  0
   46.4820   33.8870   44.1360 N   0  0  0  0  0  0  0  0  0  0  0  0
   46.1940   33.4310   45.3750 C   0  0  0  0  0  0  0  0  0  0  0  0
   45.2660   34.0420   46.1210 N   0  0  0  0  0  0  0  0  0  0  0  0
   43.8630   35.6060   46.2540 H   0  0  0  0  0  0  0  0  0  0  0  0
   44.3370   36.5020   43.9850 H   0  0  0  0  0  0  0  0  0  0  0  0
   46.8090   32.5620   45.6010 H   0  0  0  0  0  0  0  0  0  0  0  0
   43.3150   35.0180   40.9200 Br  0  0  0  0  0  0  0  0  0  0  0  0
   44.9920   34.1390   40.6010 C   0  0  0  0  0  0  0  0  0  0  0  0
   46.1910   34.4130   41.2520 C   0  0  0  0  0  0  0  0  0  0  0  0
   47.3120   33.6960   40.9220 C   0  0  0  0  0  0  0  0  0  0  0  0
   48.2270   33.9360   41.4490 H   0  0  0  0  0  0  0  0  0  0  0  0
   47.2060   32.7200   39.9410 C   0  0  0  0  0  0  0  0  0  0  0  0
   48.1120   32.1670   39.6970 H   0  0  0  0  0  0  0  0  0  0  0  0
   46.0390   32.4290   39.2820 C   0  0  0  0  0  3  0  0  0  0  0  0
   44.9000   33.1560   39.6180 C   0  0  0  0  0  3  0  0  0  0  0  0
  1  2  1  0  0  0  0
  1  6  1  0  0  0  0
  3  1  1  0  0  0  0
  4  9  1  0  0  0  0
  4 10  1  0  0  0  0
  5  4  2  0  0  0  0
  6  7  2  0  0  0  0
  6  5  1  0  0  0  0
  7  8  1  0  0  0  0
  8 12  1  0  0  0  0
  8  9  2  0  0  0  0
 11  5  1  0  0  0  0
 14 13  1  0  0  0  0
 14 15  1  0  0  0  0
 15  1  1  0  0  0  0
 16 15  2  0  0  0  0
 16 17  1  0  0  0  0
 18 16  1  0  0  0  0
 19 18  1  0  0  0  0
 20 21  1  0  0  0  0
 20 18  2  0  0  0  0
 21 14  2  0  0  0  0
M  END
>  <minimizedAffinity>
-3.90983725

>  <minimizedRMSD>
1.10403228

$$$$
