
 OpenBabel03252509293D

 21 22  0  0  0  0  0  0  0  0999 V2000
   46.8710   35.0720   41.9160 C   0  0  0  0  0  0  0  0  0  0  0  0
   47.8170   35.6470   42.1020 H   0  0  0  0  0  0  0  0  0  0  0  0
   46.2170   35.6000   41.1950 H   0  0  0  0  0  0  0  0  0  0  0  0
   44.5330   35.8060   44.7110 C   0  0  0  0  0  0  0  0  0  0  0  0
   45.1910   35.9290   43.4730 C   0  0  0  0  0  0  0  0  0  0  0  0
   46.1710   34.9720   43.2000 C   0  0  0  0  0  0  0  0  0  0  0  0
   46.4350   33.9940   44.1190 N   0  0  0  0  0  0  0  0  0  0  0  0
   45.7670   33.9300   45.2920 C   0  0  0  0  0  0  0  0  0  0  0  0
   44.8230   34.8330   45.5820 N   0  0  0  0  0  0  0  0  0  0  0  0
   43.7660   36.5400   44.9500 H   0  0  0  0  0  0  0  0  0  0  0  0
   44.9490   36.7220   42.7720 H   0  0  0  0  0  0  0  0  0  0  0  0
   46.1250   33.0840   45.8750 H   0  0  0  0  0  0  0  0  0  0  0  0
   44.4790   33.7940   40.3050 Br  0  0  0  0  0  0  0  0  0  0  0  0
   46.2370   33.0990   40.6420 C   0  0  0  0  0  0  0  0  0  0  0  0
   47.2360   33.7340   41.3750 C   0  0  0  0  0  0  0  0  0  0  0  0
   48.4450   33.1110   41.5380 C   0  0  0  0  0  0  0  0  0  0  0  0
   49.2000   33.6330   42.1150 H   0  0  0  0  0  0  0  0  0  0  0  0
   48.6280   31.8620   40.9610 C   0  0  0  0  0  0  0  0  0  0  0  0
   49.6000   31.3900   41.1050 H   0  0  0  0  0  0  0  0  0  0  0  0
   47.6640   31.2130   40.2330 C   0  0  0  0  0  3  0  0  0  0  0  0
   46.4350   31.8460   40.0670 C   0  0  0  0  0  3  0  0  0  0  0  0
  1  2  1  0  0  0  0
  1  6  1  0  0  0  0
  3  1  1  0  0  0  0
  4 10  1  0  0  0  0
  4  9  1  0  0  0  0
  5  4  2  0  0  0  0
  6  5  1  0  0  0  0
  6  7  2  0  0  0  0
  7  8  1  0  0  0  0
  8  9  2  0  0  0  0
  8 12  1  0  0  0  0
 11  5  1  0  0  0  0
 13 14  1  0  0  0  0
 14 15  1  0  0  0  0
 15 16  2  0  0  0  0
 15  1  1  0  0  0  0
 16 17  1  0  0  0  0
 18 19  1  0  0  0  0
 18 16  1  0  0  0  0
 20 18  2  0  0  0  0
 21 20  1  0  0  0  0
 21 14  2  0  0  0  0
M  END
>  <minimizedAffinity>
-3.76478767

>  <minimizedRMSD>
1.81393814

$$$$
