
 OpenBabel03252503163D

 36 39  0  0  0  0  0  0  0  0999 V2000
   46.0100   34.7840   42.0260 C   0  0  0  0  0  0  0  0  0  0  0  0
   47.2220   35.1320   41.8250 O   0  0  0  0  0  0  0  0  0  0  0  0
   45.0710   34.3730   40.9340 C   0  0  0  0  0  0  0  0  0  0  0  0
   43.7670   34.8000   40.7920 C   0  0  0  0  0  0  0  0  0  0  0  0
   43.3140   34.1810   39.6840 N   0  0  0  0  0  0  0  0  0  0  0  0
   44.2970   33.4120   39.1760 C   0  0  0  0  0  0  0  0  0  0  0  0
   45.3900   33.5270   39.9460 N   0  0  0  0  0  0  0  0  0  0  0  0
   44.3190   32.5650   38.0220 N   0  0  0  0  0  0  0  0  0  0  0  0
   43.2150   35.4740   41.4080 H   0  0  0  0  0  0  0  0  0  0  0  0
   44.7230   31.6030   38.1090 H   0  0  0  0  0  0  0  0  0  0  0  0
   43.9120   32.9960   37.1450 H   0  0  0  0  0  0  0  0  0  0  0  0
   41.3360   31.9270   40.4980 Br  0  0  0  0  0  0  0  0  0  0  0  0
   40.9930   33.3580   39.2920 C   0  0  0  0  0  0  0  0  0  0  0  0
   42.0270   34.2600   39.0710 C   0  0  0  0  0  0  0  0  0  0  0  0
   41.8440   35.3220   38.2070 C   0  0  0  0  0  0  0  0  0  0  0  0
   42.6100   36.0570   37.9940 H   0  0  0  0  0  0  0  0  0  0  0  0
   40.6270   35.4700   37.5740 C   0  0  0  0  0  0  0  0  0  0  0  0
   40.4120   36.2800   36.8820 H   0  0  0  0  0  0  0  0  0  0  0  0
   39.5680   34.5880   37.7690 C   0  0  0  0  0  3  0  0  0  0  0  0
   39.7790   33.5220   38.6480 C   0  0  0  0  0  3  0  0  0  0  0  0
   44.9290   35.9390   43.8930 C   0  0  0  0  0  0  0  0  0  0  0  0
   45.5840   34.8060   43.3760 C   0  0  0  0  0  0  0  0  0  0  0  0
   45.7550   33.7770   44.2730 C   0  0  0  0  0  0  0  0  0  0  0  0
   45.3260   33.8550   45.5480 N   0  0  0  0  0  0  0  0  0  0  0  0
   44.7000   34.9710   45.9960 C   0  0  0  0  0  0  0  0  0  0  0  0
   44.5060   36.0040   45.1650 N   0  0  0  0  0  0  0  0  0  0  0  0
   44.7390   36.8100   43.2760 H   0  0  0  0  0  0  0  0  0  0  0  0
   44.3790   34.9750   47.0260 H   0  0  0  0  0  0  0  0  0  0  0  0
   46.4070   32.5960   43.8420 C   0  0  0  0  0  0  0  0  0  0  0  0
   47.6980   32.1720   43.7900 C   0  0  0  0  0  0  0  0  0  0  0  0
   48.0200   30.9840   43.3240 C   0  0  0  0  0  0  0  0  0  0  0  0
   47.0170   30.1890   42.8900 C   0  0  0  0  0  0  0  0  0  0  0  0
   45.5280   31.2020   43.1690 S   0  0  0  0  0  0  0  0  0  0  0  0
   48.4330   32.9080   44.1720 H   0  0  0  0  0  0  0  0  0  0  0  0
   49.0190   30.5730   43.2500 H   0  0  0  0  0  0  0  0  0  0  0  0
   46.9960   29.1690   42.4600 H   0  0  0  0  0  0  0  0  0  0  0  0
  1 22  1  0  0  0  0
  2  1  2  0  0  0  0
  3  1  1  0  0  0  0
  4  3  2  0  0  0  0
  4  9  1  0  0  0  0
  5  4  1  0  0  0  0
  6  5  1  0  0  0  0
  6  7  2  0  0  0  0
  7  3  1  0  0  0  0
  8 10  1  0  0  0  0
  8  6  1  0  0  0  0
 11  8  1  0  0  0  0
 13 12  1  0  0  0  0
 14 13  1  0  0  0  0
 14  5  1  0  0  0  0
 15 14  2  0  0  0  0
 16 15  1  0  0  0  0
 17 19  2  0  0  0  0
 17 15  1  0  0  0  0
 18 17  1  0  0  0  0
 19 20  1  0  0  0  0
 20 13  2  0  0  0  0
 21 26  1  0  0  0  0
 22 21  2  0  0  0  0
 22 23  1  0  0  0  0
 23 24  2  0  0  0  0
 24 25  1  0  0  0  0
 25 28  1  0  0  0  0
 26 25  2  0  0  0  0
 27 21  1  0  0  0  0
 29 23  1  0  0  0  0
 30 29  2  0  0  0  0
 30 34  1  0  0  0  0
 31 30  1  0  0  0  0
 32 33  1  0  0  0  0
 32 31  2  0  0  0  0
 33 29  1  0  0  0  0
 35 31  1  0  0  0  0
 36 32  1  0  0  0  0
M  END
>  <minimizedAffinity>
-6.05032396

>  <minimizedRMSD>
1.39248705

$$$$
