
 OpenBabel03252503433D

 34 36  0  0  1  0  0  0  0  0999 V2000
   46.1120   33.5380   42.5470 C   0  0  0  0  0  0  0  0  0  0  0  0
   46.2940   34.9190   42.3530 C   0  0  0  0  0  0  0  0  0  0  0  0
   47.5770   35.3730   42.1410 C   0  0  0  0  0  0  0  0  0  0  0  0
   48.5820   34.4820   42.1300 N   0  0  0  0  0  0  0  0  0  0  0  0
   48.4010   33.1720   42.3170 C   0  0  0  0  0  0  0  0  0  0  0  0
   47.1530   32.6530   42.5320 N   0  0  0  0  0  0  0  0  0  0  0  0
   45.1510   33.0700   42.7200 H   0  0  0  0  0  0  0  0  0  0  0  0
   47.6750   36.4330   41.9880 H   0  0  0  0  0  0  0  0  0  0  0  0
   49.3100   30.9550   41.6020 C   0  0  2  0  0  0  0  0  0  0  0  0
   49.5910   32.3230   42.2630 C   0  0  1  0  0  0  0  0  0  0  0  0
   50.5910   32.7770   41.4460 O   0  0  0  0  0  0  0  0  0  0  0  0
   51.4660   31.7540   41.2440 C   0  0  0  0  0  0  0  0  0  0  0  0
   50.7640   30.4520   41.5830 C   0  0  2  0  0  0  0  0  0  0  0  0
   48.6650   30.3350   42.2210 H   0  0  0  0  0  0  0  0  0  0  0  0
   50.0020   32.1490   43.2810 H   0  0  0  0  0  0  0  0  0  0  0  0
   52.3310   31.9030   41.9240 H   0  0  0  0  0  0  0  0  0  0  0  0
   51.8650   31.6800   40.2180 H   0  0  0  0  0  0  0  0  0  0  0  0
   50.9880   30.1100   42.6050 H   0  0  0  0  0  0  0  0  0  0  0  0
   48.9520   31.1480   40.3080 O   0  0  0  0  0  0  0  0  0  0  0  0
   48.3760   30.4110   39.9840 H   0  0  0  0  0  0  0  0  0  0  0  0
   50.9590   29.4380   40.6840 O   0  0  0  0  0  0  0  0  0  0  0  0
   51.2740   28.6190   41.1300 H   0  0  0  0  0  0  0  0  0  0  0  0
   45.0250   35.6760   42.3970 C   0  0  0  0  0  0  0  0  0  0  0  0
   44.2200   34.9830   42.7090 H   0  0  0  0  0  0  0  0  0  0  0  0
   44.7690   36.0900   41.3730 H   0  0  0  0  0  0  0  0  0  0  0  0
   44.5500   35.2650   45.5630 Br  0  0  0  0  0  0  0  0  0  0  0  0
   44.9020   36.9010   44.6570 C   0  0  0  0  0  0  0  0  0  0  0  0
   45.0800   36.8140   43.2960 C   0  0  0  0  0  0  0  0  0  0  0  0
   45.3450   38.0730   42.7400 C   0  0  0  0  0  0  0  0  0  0  0  0
   45.5090   38.1350   41.6520 H   0  0  0  0  0  0  0  0  0  0  0  0
   45.4300   39.2740   43.3870 C   0  0  0  0  0  0  0  0  0  0  0  0
   45.6400   40.1930   42.8600 H   0  0  0  0  0  0  0  0  0  0  0  0
   45.2360   39.2610   44.7520 C   0  0  0  0  0  3  0  0  0  0  0  0
   44.9710   38.0690   45.3790 C   0  0  0  0  0  3  0  0  0  0  0  0
  1  7  1  0  0  0  0
  2 23  1  0  0  0  0
  2  1  2  0  0  0  0
  3  2  1  0  0  0  0
  4  3  2  0  0  0  0
  4  5  1  0  0  0  0
  5  6  2  0  0  0  0
  6  1  1  0  0  0  0
  8  3  1  0  0  0  0
  9 14  1  1  0  0  0
  9 10  1  0  0  0  0
 10  5  1  0  0  0  0
 10 15  1  1  0  0  0
 11 10  1  0  0  0  0
 12 11  1  0  0  0  0
 12 13  1  0  0  0  0
 12 16  1  0  0  0  0
 13  9  1  0  0  0  0
 13 18  1  1  0  0  0
 17 12  1  0  0  0  0
 19  9  1  0  0  0  0
 20 19  1  0  0  0  0
 21 22  1  0  0  0  0
 21 13  1  0  0  0  0
 23 24  1  0  0  0  0
 23 28  1  0  0  0  0
 25 23  1  0  0  0  0
 27 34  1  0  0  0  0
 27 26  1  0  0  0  0
 28 27  2  0  0  0  0
 29 28  1  0  0  0  0
 29 31  2  0  0  0  0
 30 29  1  0  0  0  0
 31 33  1  0  0  0  0
 32 31  1  0  0  0  0
 33 34  2  0  0  0  0
M  END
>  <minimizedAffinity>
-1.60010636

>  <minimizedRMSD>
5.324893

$$$$
