
 OpenBabel03242515463D

 41 44  0  0  1  0  0  0  0  0999 V2000
   40.2330   35.0140   40.3820 C   0  0  0  0  0  0  0  0  0  0  0  0
   41.3200   34.3600   40.9640 C   0  0  0  0  0  0  0  0  0  0  0  0
   41.2240   33.0510   41.3890 C   0  0  0  0  0  0  0  0  0  0  0  0
   40.0470   32.3600   41.2440 C   0  0  0  0  0  0  0  0  0  0  0  0
   38.9600   32.9880   40.6710 C   0  0  0  0  0  0  0  0  0  0  0  0
   39.0240   34.2890   40.2400 C   0  0  0  0  0  0  0  0  0  0  0  0
   37.9170   32.0390   40.6610 O   0  0  0  0  0  0  0  0  0  0  0  0
   38.2800   30.9930   41.4700 C   0  0  2  0  0  0  0  0  0  0  0  0
   39.6850   31.0520   41.5800 O   0  0  0  0  0  0  0  0  0  0  0  0
   40.2260   36.0360   40.0260 H   0  0  0  0  0  0  0  0  0  0  0  0
   42.1220   32.6380   41.8260 H   0  0  0  0  0  0  0  0  0  0  0  0
   38.1720   34.7820   39.7910 H   0  0  0  0  0  0  0  0  0  0  0  0
   37.9020   31.2270   42.5080 H   0  0  0  0  0  0  0  0  0  0  0  0
   39.6750   28.6410   43.0100 Br  0  0  0  0  0  0  0  0  0  0  0  0
   38.2930   28.5110   41.6850 C   0  0  0  0  0  0  0  0  0  0  0  0
   37.7760   29.6670   41.0920 C   0  0  0  0  0  0  0  0  0  0  0  0
   36.7850   29.4980   40.1490 C   0  0  0  0  0  0  0  0  0  0  0  0
   36.3350   30.3380   39.6460 H   0  0  0  0  0  0  0  0  0  0  0  0
   36.3120   28.2340   39.7950 C   0  0  0  0  0  0  0  0  0  0  0  0
   35.5310   28.1190   39.0500 H   0  0  0  0  0  0  0  0  0  0  0  0
   36.8200   27.1010   40.3780 C   0  0  0  0  0  3  0  0  0  0  0  0
   37.8120   27.2720   41.3220 C   0  0  0  0  0  3  0  0  0  0  0  0
   42.7740   35.4050   41.0520 S   0  0  0  0  0  0  0  0  0  0  0  0
   44.2330   34.4730   40.4730 C   0  0  0  0  0  0  0  0  0  0  0  0
   44.0700   33.7810   39.3290 C   0  0  0  0  0  0  0  0  0  0  0  0
   45.1850   33.0590   38.9070 C   0  0  0  0  0  0  0  0  0  0  0  0
   46.3350   33.0650   39.6070 N   0  0  0  0  0  0  0  0  0  0  0  0
   46.4470   33.7770   40.7470 C   0  0  0  0  0  0  0  0  0  0  0  0
   45.3770   34.4640   41.1450 N   0  0  0  0  0  0  0  0  0  0  0  0
   45.1230   32.2640   37.7050 N   0  0  0  0  0  0  0  0  0  0  0  0
   44.9570   32.6130   36.7140 H   0  0  0  0  0  0  0  0  0  0  0  0
   45.2550   31.2440   37.8370 H   0  0  0  0  0  0  0  0  0  0  0  0
   42.9510   33.6100   38.3510 C   0  0  0  0  0  0  0  0  0  0  0  0
   42.2970   34.4930   38.5060 H   0  0  0  0  0  0  0  0  0  0  0  0
   42.4430   32.6690   38.5860 H   0  0  0  0  0  0  0  0  0  0  0  0
   43.3090   33.7020   37.3030 H   0  0  0  0  0  0  0  0  0  0  0  0
   47.5810   33.8470   41.5290 O   0  0  0  0  0  0  0  0  0  0  0  0
   48.4410   34.9590   41.3410 C   0  0  0  0  0  0  0  0  0  0  0  0
   49.7010   34.6980   41.7860 F   0  0  0  0  0  0  0  0  0  0  0  0
   48.4250   35.2480   39.9660 F   0  0  0  0  0  0  0  0  0  0  0  0
   47.9460   36.0170   42.0730 F   0  0  0  0  0  0  0  0  0  0  0  0
  1  2  1  0  0  0  0
  2 23  1  0  0  0  0
  2  3  2  0  0  0  0
  3 11  1  0  0  0  0
  4  3  1  0  0  0  0
  4  9  1  0  0  0  0
  5  4  2  0  0  0  0
  6  1  2  0  0  0  0
  6  5  1  0  0  0  0
  7  5  1  0  0  0  0
  7  8  1  0  0  0  0
  8  9  1  0  0  0  0
  8 13  1  1  0  0  0
 10  1  1  0  0  0  0
 12  6  1  0  0  0  0
 15 14  1  0  0  0  0
 16  8  1  0  0  0  0
 16 15  2  0  0  0  0
 17 16  1  0  0  0  0
 18 17  1  0  0  0  0
 19 17  2  0  0  0  0
 19 21  1  0  0  0  0
 20 19  1  0  0  0  0
 21 22  2  0  0  0  0
 22 15  1  0  0  0  0
 24 23  1  0  0  0  0
 24 29  1  0  0  0  0
 25 24  2  0  0  0  0
 26 25  1  0  0  0  0
 26 27  2  0  0  0  0
 27 28  1  0  0  0  0
 28 29  2  0  0  0  0
 28 37  1  0  0  0  0
 30 32  1  0  0  0  0
 30 26  1  0  0  0  0
 31 30  1  0  0  0  0
 33 34  1  0  0  0  0
 33 35  1  0  0  0  0
 33 25  1  0  0  0  0
 36 33  1  0  0  0  0
 38 37  1  0  0  0  0
 38 39  1  0  0  0  0
 38 41  1  0  0  0  0
 40 38  1  0  0  0  0
M  END
>  <minimizedAffinity>
-6.43814659

>  <minimizedRMSD>
0.739245653

$$$$
