
 OpenBabel03242512173D

 33 35  0  0  0  0  0  0  0  0999 V2000
   48.3800   32.9610   41.4740 C   0  0  0  0  0  0  0  0  0  0  0  0
   48.0900   34.2530   41.8420 C   0  0  0  0  0  0  0  0  0  0  0  0
   49.0880   35.0230   42.4020 C   0  0  0  0  0  0  0  0  0  0  0  0
   50.3490   34.4830   42.5810 C   0  0  0  0  0  0  0  0  0  0  0  0
   50.5970   33.1840   42.1970 C   0  0  0  0  0  0  0  0  0  0  0  0
   49.6080   32.3840   41.6290 C   0  0  0  0  0  0  0  0  0  0  0  0
   48.8330   36.0160   42.6760 H   0  0  0  0  0  0  0  0  0  0  0  0
   51.0970   35.1210   43.0220 H   0  0  0  0  0  0  0  0  0  0  0  0
   51.6080   32.8390   42.3720 H   0  0  0  0  0  0  0  0  0  0  0  0
   46.7030   34.7090   41.5980 C   0  0  0  0  0  0  0  0  0  0  0  0
   46.1640   34.0780   40.9140 H   0  0  0  0  0  0  0  0  0  0  0  0
   46.7710   35.7190   41.1080 H   0  0  0  0  0  0  0  0  0  0  0  0
   45.9960   34.9060   42.9280 C   0  0  0  0  0  0  0  0  0  0  0  0
   46.0960   33.8900   43.8600 C   0  0  0  0  0  0  0  0  0  0  0  0
   45.4510   34.0820   45.0810 C   0  0  0  0  0  0  0  0  0  0  0  0
   44.7780   35.2250   45.2790 N   0  0  0  0  0  0  0  0  0  0  0  0
   44.6990   36.2050   44.3440 C   0  0  0  0  0  0  0  0  0  0  0  0
   45.3080   36.0450   43.1660 N   0  0  0  0  0  0  0  0  0  0  0  0
   46.6540   32.9920   43.6340 H   0  0  0  0  0  0  0  0  0  0  0  0
   45.5290   33.2920   45.8040 H   0  0  0  0  0  0  0  0  0  0  0  0
   44.1290   37.0820   44.6160 H   0  0  0  0  0  0  0  0  0  0  0  0
   47.4260   32.0920   40.8910 O   0  0  0  0  0  0  0  0  0  0  0  0
   46.7380   31.6180   41.4600 H   0  0  0  0  0  0  0  0  0  0  0  0
   49.9490   31.0830   41.2720 O   0  0  0  0  0  0  0  0  0  0  0  0
   48.3480   29.0230   39.5630 Br  0  0  0  0  0  0  0  0  0  0  0  0
   49.8630   30.0350   39.0460 C   0  0  0  0  0  0  0  0  0  0  0  0
   50.4120   30.8910   39.9760 C   0  0  0  0  0  0  0  0  0  0  0  0
   51.5210   31.6050   39.5350 C   0  0  0  0  0  0  0  0  0  0  0  0
   51.9800   32.2920   40.2460 H   0  0  0  0  0  0  0  0  0  0  0  0
   52.1030   31.5290   38.2790 C   0  0  0  0  0  0  0  0  0  0  0  0
   52.9680   32.1410   38.0630 H   0  0  0  0  0  0  0  0  0  0  0  0
   51.4990   30.6430   37.3860 C   0  0  0  0  0  3  0  0  0  0  0  0
   50.3860   29.9030   37.7740 C   0  0  0  0  0  3  0  0  0  0  0  0
  1  6  2  0  0  0  0
  1  2  1  0  0  0  0
  2  3  2  0  0  0  0
  3  4  1  0  0  0  0
  3  7  1  0  0  0  0
  4  8  1  0  0  0  0
  5  9  1  0  0  0  0
  5  4  2  0  0  0  0
  6  5  1  0  0  0  0
 10  2  1  0  0  0  0
 10 13  1  0  0  0  0
 11 10  1  0  0  0  0
 12 10  1  0  0  0  0
 13 18  2  0  0  0  0
 13 14  1  0  0  0  0
 14 15  2  0  0  0  0
 15 16  1  0  0  0  0
 15 20  1  0  0  0  0
 17 21  1  0  0  0  0
 17 16  2  0  0  0  0
 18 17  1  0  0  0  0
 19 14  1  0  0  0  0
 22 23  1  0  0  0  0
 22  1  1  0  0  0  0
 24  6  1  0  0  0  0
 26 25  1  0  0  0  0
 26 27  1  0  0  0  0
 27 24  1  0  0  0  0
 28 27  2  0  0  0  0
 28 29  1  0  0  0  0
 30 28  1  0  0  0  0
 31 30  1  0  0  0  0
 32 33  1  0  0  0  0
 32 30  2  0  0  0  0
 33 26  2  0  0  0  0
M  END
>  <minimizedAffinity>
-5.04467773

>  <minimizedRMSD>
0.886371374

$$$$
