
 OpenBabel03252503433D

 34 36  0  0  1  0  0  0  0  0999 V2000
   45.0560   34.9460   44.8520 C   0  0  0  0  0  0  0  0  0  0  0  0
   45.4210   34.4320   43.5950 C   0  0  0  0  0  0  0  0  0  0  0  0
   45.9020   33.1420   43.5450 C   0  0  0  0  0  0  0  0  0  0  0  0
   45.9990   32.4460   44.6900 N   0  0  0  0  0  0  0  0  0  0  0  0
   45.6520   32.9430   45.8800 C   0  0  0  0  0  0  0  0  0  0  0  0
   45.1660   34.2160   46.0010 N   0  0  0  0  0  0  0  0  0  0  0  0
   44.6660   35.9440   45.0100 H   0  0  0  0  0  0  0  0  0  0  0  0
   46.1620   32.7810   42.5660 H   0  0  0  0  0  0  0  0  0  0  0  0
   47.2610   31.9790   47.5340 C   0  0  2  0  0  0  0  0  0  0  0  0
   45.8000   32.0600   47.0360 C   0  0  1  0  0  0  0  0  0  0  0  0
   45.1860   32.4940   48.1800 O   0  0  0  0  0  0  0  0  0  0  0  0
   45.6730   31.7640   49.2220 C   0  0  0  0  0  0  0  0  0  0  0  0
   46.9860   31.1350   48.7910 C   0  0  2  0  0  0  0  0  0  0  0  0
   47.8990   31.4630   46.8210 H   0  0  0  0  0  0  0  0  0  0  0  0
   45.4470   31.0320   46.8000 H   0  0  0  0  0  0  0  0  0  0  0  0
   44.9350   30.9680   49.4570 H   0  0  0  0  0  0  0  0  0  0  0  0
   45.8450   32.3350   50.1490 H   0  0  0  0  0  0  0  0  0  0  0  0
   46.8600   30.0980   48.4480 H   0  0  0  0  0  0  0  0  0  0  0  0
   47.6540   33.2020   47.9670 O   0  0  0  0  0  0  0  0  0  0  0  0
   48.6340   33.3100   47.8880 H   0  0  0  0  0  0  0  0  0  0  0  0
   47.9960   31.2180   49.7120 O   0  0  0  0  0  0  0  0  0  0  0  0
   48.3910   30.3350   49.8900 H   0  0  0  0  0  0  0  0  0  0  0  0
   45.2030   35.3970   42.4960 C   0  0  0  0  0  0  0  0  0  0  0  0
   46.1640   35.5380   41.9660 H   0  0  0  0  0  0  0  0  0  0  0  0
   44.8640   36.3990   42.9030 H   0  0  0  0  0  0  0  0  0  0  0  0
   45.9890   33.5870   39.9420 Br  0  0  0  0  0  0  0  0  0  0  0  0
   44.2580   34.2160   40.4140 C   0  0  0  0  0  0  0  0  0  0  0  0
   44.1770   34.9660   41.5640 C   0  0  0  0  0  0  0  0  0  0  0  0
   42.8560   35.3620   41.8180 C   0  0  0  0  0  0  0  0  0  0  0  0
   42.6620   35.9690   42.7170 H   0  0  0  0  0  0  0  0  0  0  0  0
   41.7410   35.0860   41.0770 C   0  0  0  0  0  0  0  0  0  0  0  0
   40.7630   35.4430   41.3640 H   0  0  0  0  0  0  0  0  0  0  0  0
   41.9220   34.3280   39.9410 C   0  0  0  0  0  0  0  0  0  0  0  0
   43.1830   33.8970   39.6160 C   0  0  0  0  0  0  0  0  0  0  0  0
  1  7  1  0  0  0  0
  1  6  1  0  0  0  0
  2  1  2  0  0  0  0
  3  2  1  0  0  0  0
  3  4  2  0  0  0  0
  4  5  1  0  0  0  0
  5  6  2  0  0  0  0
  5 10  1  0  0  0  0
  8  3  1  0  0  0  0
  9 14  1  6  0  0  0
  9 19  1  0  0  0  0
  9 13  1  0  0  0  0
 10 15  1  6  0  0  0
 10  9  1  0  0  0  0
 10 11  1  0  0  0  0
 11 12  1  0  0  0  0
 12 16  1  0  0  0  0
 12 17  1  0  0  0  0
 13 18  1  6  0  0  0
 13 12  1  0  0  0  0
 13 21  1  0  0  0  0
 20 19  1  0  0  0  0
 21 22  1  0  0  0  0
 23 25  1  0  0  0  0
 23  2  1  0  0  0  0
 24 23  1  0  0  0  0
 26 27  1  0  0  0  0
 27 28  1  0  0  0  0
 28 29  2  0  0  0  0
 28 23  1  0  0  0  0
 29 30  1  0  0  0  0
 31 32  1  0  0  0  0
 31 29  1  0  0  0  0
 33 31  2  0  0  0  0
 34 33  1  0  0  0  0
 34 27  2  0  0  0  0
M  END
>  <minimizedAffinity>
-6.27896643

>  <minimizedRMSD>
3.59294295

$$$$
