
 OpenBabel03242523353D

 37 40  0  0  0  0  0  0  0  0999 V2000
   41.5120   32.2400   40.6700 C   0  0  0  0  0  0  0  0  0  0  0  0
   42.2240   33.1070   40.8120 H   0  0  0  0  0  0  0  0  0  0  0  0
   41.8710   31.6430   39.8220 H   0  0  0  0  0  0  0  0  0  0  0  0
   38.6330   34.5650   40.2110 C   0  0  0  0  0  0  0  0  0  0  0  0
   37.6270   33.6510   39.9320 C   0  0  0  0  0  0  0  0  0  0  0  0
   37.8940   32.2860   39.8960 C   0  0  0  0  0  0  0  0  0  0  0  0
   39.1910   31.8970   40.1470 N   0  0  0  0  0  0  0  0  0  0  0  0
   40.1610   32.8030   40.4170 C   0  0  0  0  0  0  0  0  0  0  0  0
   39.8530   34.1010   40.4410 N   0  0  0  0  0  0  0  0  0  0  0  0
   38.3830   35.6210   40.2300 H   0  0  0  0  0  0  0  0  0  0  0  0
   36.6490   33.9970   39.7240 H   0  0  0  0  0  0  0  0  0  0  0  0
   37.5260   31.2250   36.8460 Br  0  0  0  0  0  0  0  0  0  0  0  0
   36.6850   30.5980   38.4130 C   0  0  0  0  0  0  0  0  0  0  0  0
   36.9940   31.2110   39.5970 C   0  0  0  0  0  0  0  0  0  0  0  0
   36.2610   30.6670   40.6540 C   0  0  0  0  0  0  0  0  0  0  0  0
   36.3520   31.0110   41.6950 H   0  0  0  0  0  0  0  0  0  0  0  0
   35.3480   29.6460   40.5250 C   0  0  0  0  0  0  0  0  0  0  0  0
   34.8010   29.2500   41.3640 H   0  0  0  0  0  0  0  0  0  0  0  0
   35.1000   29.0860   39.2930 C   0  0  0  0  0  3  0  0  0  0  0  0
   35.7870   29.5800   38.2260 C   0  0  0  0  0  3  0  0  0  0  0  0
   41.4770   31.3690   42.2460 S   0  0  0  0  0  0  0  0  0  0  0  0
   40.4530   29.9190   42.1540 C   0  0  0  0  0  0  0  0  0  0  0  0
   40.8610   28.9090   41.3170 C   0  0  0  0  0  0  0  0  0  0  0  0
   40.0790   27.7780   41.2350 C   0  0  0  0  0  0  0  0  0  0  0  0
   38.9110   27.6250   41.9580 C   0  0  0  0  0  0  0  0  0  0  0  0
   38.1640   26.5180   41.8640 N   0  0  0  0  0  0  0  0  0  0  0  0
   37.0250   26.3620   42.5620 C   0  0  0  0  0  0  0  0  0  0  0  0
   36.6180   27.3760   43.4010 C   0  0  0  0  0  0  0  0  0  0  0  0
   37.3750   28.5340   43.5170 C   0  0  0  0  0  0  0  0  0  0  0  0
   38.5610   28.6910   42.7860 C   0  0  0  0  0  0  0  0  0  0  0  0
   39.3060   29.8450   42.9070 C   0  0  0  0  0  0  0  0  0  0  0  0
   41.7340   28.8700   40.6890 H   0  0  0  0  0  0  0  0  0  0  0  0
   40.3270   26.9300   40.5970 H   0  0  0  0  0  0  0  0  0  0  0  0
   36.5490   25.4110   42.3670 H   0  0  0  0  0  0  0  0  0  0  0  0
   35.7030   27.1820   43.9230 H   0  0  0  0  0  0  0  0  0  0  0  0
   37.0180   29.3040   44.1870 H   0  0  0  0  0  0  0  0  0  0  0  0
   38.9920   30.6300   43.5550 H   0  0  0  0  0  0  0  0  0  0  0  0
  1  2  1  0  0  0  0
  1 21  1  0  0  0  0
  3  1  1  0  0  0  0
  4 10  1  0  0  0  0
  4  9  1  0  0  0  0
  5  4  2  0  0  0  0
  6  5  1  0  0  0  0
  6  7  2  0  0  0  0
  7  8  1  0  0  0  0
  8  9  2  0  0  0  0
  8  1  1  0  0  0  0
 11  5  1  0  0  0  0
 12 13  1  0  0  0  0
 13 14  1  0  0  0  0
 14  6  1  0  0  0  0
 14 15  2  0  0  0  0
 15 16  1  0  0  0  0
 17 15  1  0  0  0  0
 17 18  1  0  0  0  0
 19 17  2  0  0  0  0
 20 13  2  0  0  0  0
 20 19  1  0  0  0  0
 22 21  1  0  0  0  0
 22 31  1  0  0  0  0
 23 22  2  0  0  0  0
 24 23  1  0  0  0  0
 24 25  2  0  0  0  0
 25 30  1  0  0  0  0
 26 25  1  0  0  0  0
 26 27  2  0  0  0  0
 27 28  1  0  0  0  0
 28 29  2  0  0  0  0
 28 35  1  0  0  0  0
 29 36  1  0  0  0  0
 30 31  2  0  0  0  0
 30 29  1  0  0  0  0
 31 37  1  0  0  0  0
 32 23  1  0  0  0  0
 33 24  1  0  0  0  0
 34 27  1  0  0  0  0
M  END
>  <minimizedAffinity>
-6.51459312

$$$$

 OpenBabel03242523353D

 37 40  0  0  0  0  0  0  0  0999 V2000
   38.7140   29.1600   43.0990 C   0  0  0  0  0  0  0  0  0  0  0  0
   38.8760   29.8130   44.0070 H   0  0  0  0  0  0  0  0  0  0  0  0
   39.6970   28.8110   42.7540 H   0  0  0  0  0  0  0  0  0  0  0  0
   36.2080   30.5190   40.6970 C   0  0  0  0  0  0  0  0  0  0  0  0
   36.9270   31.5850   40.1750 C   0  0  0  0  0  0  0  0  0  0  0  0
   38.2210   31.8510   40.6090 C   0  0  0  0  0  0  0  0  0  0  0  0
   38.7420   31.0150   41.5700 N   0  0  0  0  0  0  0  0  0  0  0  0
   38.0260   29.9790   42.0700 C   0  0  0  0  0  0  0  0  0  0  0  0
   36.7880   29.7650   41.6190 N   0  0  0  0  0  0  0  0  0  0  0  0
   35.2000   30.3450   40.3310 H   0  0  0  0  0  0  0  0  0  0  0  0
   36.4780   32.2140   39.4520 H   0  0  0  0  0  0  0  0  0  0  0  0
   40.6260   31.3210   38.4880 Br  0  0  0  0  0  0  0  0  0  0  0  0
   40.1480   32.9360   39.3360 C   0  0  0  0  0  0  0  0  0  0  0  0
   39.0930   32.9160   40.2070 C   0  0  0  0  0  0  0  0  0  0  0  0
   38.8920   34.1720   40.7850 C   0  0  0  0  0  0  0  0  0  0  0  0
   38.0960   34.3820   41.5150 H   0  0  0  0  0  0  0  0  0  0  0  0
   39.6530   35.2850   40.5160 C   0  0  0  0  0  0  0  0  0  0  0  0
   39.4680   36.2390   40.9800 H   0  0  0  0  0  0  0  0  0  0  0  0
   40.6970   35.2140   39.6230 C   0  0  0  0  0  3  0  0  0  0  0  0
   40.9400   34.0120   39.0300 C   0  0  0  0  0  3  0  0  0  0  0  0
   37.5930   27.8530   43.6270 S   0  0  0  0  0  0  0  0  0  0  0  0
   37.8690   26.3600   42.7030 C   0  0  0  0  0  0  0  0  0  0  0  0
   39.1050   25.7710   42.8100 C   0  0  0  0  0  0  0  0  0  0  0  0
   39.3340   24.6110   42.1010 C   0  0  0  0  0  0  0  0  0  0  0  0
   38.3740   24.0270   41.2950 C   0  0  0  0  0  0  0  0  0  0  0  0
   38.6180   22.9010   40.6140 N   0  0  0  0  0  0  0  0  0  0  0  0
   37.6900   22.3270   39.8260 C   0  0  0  0  0  0  0  0  0  0  0  0
   36.4510   22.9210   39.7220 C   0  0  0  0  0  0  0  0  0  0  0  0
   36.1740   24.0880   40.4190 C   0  0  0  0  0  0  0  0  0  0  0  0
   37.1440   24.6820   41.2380 C   0  0  0  0  0  0  0  0  0  0  0  0
   36.8600   25.8430   41.9250 C   0  0  0  0  0  0  0  0  0  0  0  0
   39.9550   26.0930   43.3850 H   0  0  0  0  0  0  0  0  0  0  0  0
   40.2840   24.0790   42.1260 H   0  0  0  0  0  0  0  0  0  0  0  0
   38.0530   21.4270   39.3510 H   0  0  0  0  0  0  0  0  0  0  0  0
   35.7650   22.4080   39.0780 H   0  0  0  0  0  0  0  0  0  0  0  0
   35.1880   24.5190   40.3080 H   0  0  0  0  0  0  0  0  0  0  0  0
   35.9030   26.3020   41.8460 H   0  0  0  0  0  0  0  0  0  0  0  0
  1 21  1  0  0  0  0
  1  2  1  0  0  0  0
  3  1  1  0  0  0  0
  4  9  1  0  0  0  0
  5  6  1  0  0  0  0
  5  4  2  0  0  0  0
  6  7  2  0  0  0  0
  7  8  1  0  0  0  0
  8  1  1  0  0  0  0
  9  8  2  0  0  0  0
 10  4  1  0  0  0  0
 11  5  1  0  0  0  0
 12 13  1  0  0  0  0
 13 14  1  0  0  0  0
 14  6  1  0  0  0  0
 14 15  2  0  0  0  0
 15 16  1  0  0  0  0
 17 15  1  0  0  0  0
 17 18  1  0  0  0  0
 19 17  2  0  0  0  0
 20 13  2  0  0  0  0
 20 19  1  0  0  0  0
 22 23  1  0  0  0  0
 22 21  1  0  0  0  0
 23 32  1  0  0  0  0
 24 33  1  0  0  0  0
 24 23  2  0  0  0  0
 25 24  1  0  0  0  0
 26 25  2  0  0  0  0
 27 26  1  0  0  0  0
 28 27  2  0  0  0  0
 28 29  1  0  0  0  0
 29 30  2  0  0  0  0
 30 25  1  0  0  0  0
 30 31  1  0  0  0  0
 31 22  2  0  0  0  0
 34 27  1  0  0  0  0
 35 28  1  0  0  0  0
 36 29  1  0  0  0  0
 37 31  1  0  0  0  0
M  END
>  <minimizedAffinity>
-6.470469

$$$$

 OpenBabel03242523353D

 37 40  0  0  0  0  0  0  0  0999 V2000
   40.3850   30.9700   41.1510 C   0  0  0  0  0  0  0  0  0  0  0  0
   41.1870   31.7440   41.3400 H   0  0  0  0  0  0  0  0  0  0  0  0
   40.8210   30.1770   40.5290 H   0  0  0  0  0  0  0  0  0  0  0  0
   37.9240   33.5110   39.9730 C   0  0  0  0  0  0  0  0  0  0  0  0
   37.1420   32.7220   39.1410 C   0  0  0  0  0  0  0  0  0  0  0  0
   37.4220   31.3710   38.9710 C   0  0  0  0  0  0  0  0  0  0  0  0
   38.5010   30.8650   39.6610 N   0  0  0  0  0  0  0  0  0  0  0  0
   39.2550   31.6490   40.4690 C   0  0  0  0  0  0  0  0  0  0  0  0
   38.9430   32.9410   40.5990 N   0  0  0  0  0  0  0  0  0  0  0  0
   37.6710   34.5620   40.0790 H   0  0  0  0  0  0  0  0  0  0  0  0
   36.3350   33.1580   38.6140 H   0  0  0  0  0  0  0  0  0  0  0  0
   35.2800   29.2770   40.2310 Br  0  0  0  0  0  0  0  0  0  0  0  0
   35.8150   29.4640   38.4340 C   0  0  0  0  0  0  0  0  0  0  0  0
   36.7480   30.4200   38.1370 C   0  0  0  0  0  0  0  0  0  0  0  0
   37.0710   30.4060   36.7780 C   0  0  0  0  0  0  0  0  0  0  0  0
   37.8000   31.0910   36.3220 H   0  0  0  0  0  0  0  0  0  0  0  0
   36.5240   29.5440   35.8550 C   0  0  0  0  0  0  0  0  0  0  0  0
   36.7970   29.5630   34.8140 H   0  0  0  0  0  0  0  0  0  0  0  0
   35.5890   28.6130   36.2430 C   0  0  0  0  0  3  0  0  0  0  0  0
   35.2370   28.5820   37.5580 C   0  0  0  0  0  3  0  0  0  0  0  0
   39.8260   30.4330   42.7760 S   0  0  0  0  0  0  0  0  0  0  0  0
   38.9240   28.9050   42.6710 C   0  0  0  0  0  0  0  0  0  0  0  0
   37.7990   28.7810   43.4500 C   0  0  0  0  0  0  0  0  0  0  0  0
   37.0880   27.6040   43.3790 C   0  0  0  0  0  0  0  0  0  0  0  0
   37.4610   26.5540   42.5600 C   0  0  0  0  0  0  0  0  0  0  0  0
   36.7570   25.4180   42.5070 N   0  0  0  0  0  0  0  0  0  0  0  0
   37.1140   24.3910   41.7140 C   0  0  0  0  0  0  0  0  0  0  0  0
   38.2430   24.5180   40.9340 C   0  0  0  0  0  0  0  0  0  0  0  0
   38.9900   25.6870   40.9710 C   0  0  0  0  0  0  0  0  0  0  0  0
   38.6120   26.7530   41.7990 C   0  0  0  0  0  0  0  0  0  0  0  0
   39.3630   27.9100   41.8300 C   0  0  0  0  0  0  0  0  0  0  0  0
   37.3760   29.4940   44.1360 H   0  0  0  0  0  0  0  0  0  0  0  0
   36.1850   27.4200   43.9620 H   0  0  0  0  0  0  0  0  0  0  0  0
   36.4360   23.5530   41.7940 H   0  0  0  0  0  0  0  0  0  0  0  0
   38.4650   23.6620   40.3300 H   0  0  0  0  0  0  0  0  0  0  0  0
   39.8680   25.7440   40.3420 H   0  0  0  0  0  0  0  0  0  0  0  0
   40.2340   28.0100   41.2280 H   0  0  0  0  0  0  0  0  0  0  0  0
  1  2  1  0  0  0  0
  1 21  1  0  0  0  0
  3  1  1  0  0  0  0
  4 10  1  0  0  0  0
  4  9  1  0  0  0  0
  5  4  2  0  0  0  0
  6  5  1  0  0  0  0
  6  7  2  0  0  0  0
  7  8  1  0  0  0  0
  8  9  2  0  0  0  0
  8  1  1  0  0  0  0
 11  5  1  0  0  0  0
 13 12  1  0  0  0  0
 14 13  1  0  0  0  0
 14  6  1  0  0  0  0
 15 14  2  0  0  0  0
 16 15  1  0  0  0  0
 17 19  2  0  0  0  0
 17 15  1  0  0  0  0
 18 17  1  0  0  0  0
 19 20  1  0  0  0  0
 20 13  2  0  0  0  0
 22 21  1  0  0  0  0
 22 23  1  0  0  0  0
 23 32  1  0  0  0  0
 24 23  2  0  0  0  0
 24 33  1  0  0  0  0
 25 24  1  0  0  0  0
 26 25  1  0  0  0  0
 27 34  1  0  0  0  0
 27 26  2  0  0  0  0
 28 29  2  0  0  0  0
 28 27  1  0  0  0  0
 29 30  1  0  0  0  0
 30 31  1  0  0  0  0
 30 25  2  0  0  0  0
 31 22  2  0  0  0  0
 35 28  1  0  0  0  0
 36 29  1  0  0  0  0
 37 31  1  0  0  0  0
M  END
>  <minimizedAffinity>
-6.20482159

$$$$

 OpenBabel03242523353D

 37 40  0  0  0  0  0  0  0  0999 V2000
   36.2350   26.1420   37.2550 C   0  0  0  0  0  0  0  0  0  0  0  0
   35.8660   25.4700   36.4250 H   0  0  0  0  0  0  0  0  0  0  0  0
   37.2280   26.5170   36.9720 H   0  0  0  0  0  0  0  0  0  0  0  0
   35.9440   23.3810   39.7430 C   0  0  0  0  0  0  0  0  0  0  0  0
   36.4430   24.0170   40.8700 C   0  0  0  0  0  0  0  0  0  0  0  0
   36.8700   25.3400   40.8110 C   0  0  0  0  0  0  0  0  0  0  0  0
   36.7730   25.9740   39.5920 N   0  0  0  0  0  0  0  0  0  0  0  0
   36.2840   25.3370   38.5010 C   0  0  0  0  0  0  0  0  0  0  0  0
   35.8860   24.0670   38.6110 N   0  0  0  0  0  0  0  0  0  0  0  0
   35.6210   22.3480   39.8320 H   0  0  0  0  0  0  0  0  0  0  0  0
   36.5190   23.4850   41.7810 H   0  0  0  0  0  0  0  0  0  0  0  0
   40.0380   25.1590   41.5130 Br  0  0  0  0  0  0  0  0  0  0  0  0
   38.7200   26.2400   42.3190 C   0  0  0  0  0  0  0  0  0  0  0  0
   37.4360   26.1400   41.8570 C   0  0  0  0  0  0  0  0  0  0  0  0
   36.5730   26.9660   42.5810 C   0  0  0  0  0  0  0  0  0  0  0  0
   35.4950   27.0420   42.3770 H   0  0  0  0  0  0  0  0  0  0  0  0
   36.9610   27.7770   43.6220 C   0  0  0  0  0  0  0  0  0  0  0  0
   36.2670   28.4030   44.1570 H   0  0  0  0  0  0  0  0  0  0  0  0
   38.2770   27.8160   44.0200 C   0  0  0  0  0  3  0  0  0  0  0  0
   39.1630   27.0290   43.3490 C   0  0  0  0  0  3  0  0  0  0  0  0
   34.9770   27.4160   37.4520 S   0  0  0  0  0  0  0  0  0  0  0  0
   35.5930   28.7840   38.4050 C   0  0  0  0  0  0  0  0  0  0  0  0
   35.1190   28.9250   39.6870 C   0  0  0  0  0  0  0  0  0  0  0  0
   35.5880   29.9800   40.4390 C   0  0  0  0  0  0  0  0  0  0  0  0
   36.5090   30.8910   39.9550 C   0  0  0  0  0  0  0  0  0  0  0  0
   36.9500   31.9090   40.7020 N   0  0  0  0  0  0  0  0  0  0  0  0
   37.8440   32.8020   40.2380 C   0  0  0  0  0  0  0  0  0  0  0  0
   38.3170   32.6570   38.9520 C   0  0  0  0  0  0  0  0  0  0  0  0
   37.8750   31.6090   38.1570 C   0  0  0  0  0  0  0  0  0  0  0  0
   36.9440   30.6830   38.6470 C   0  0  0  0  0  0  0  0  0  0  0  0
   36.5090   29.6450   37.8490 C   0  0  0  0  0  0  0  0  0  0  0  0
   34.4070   28.3120   40.2100 H   0  0  0  0  0  0  0  0  0  0  0  0
   35.2660   30.1670   41.4630 H   0  0  0  0  0  0  0  0  0  0  0  0
   38.0910   33.5570   40.9710 H   0  0  0  0  0  0  0  0  0  0  0  0
   39.0250   33.4040   38.6520 H   0  0  0  0  0  0  0  0  0  0  0  0
   38.2730   31.5340   37.1550 H   0  0  0  0  0  0  0  0  0  0  0  0
   36.8730   29.5320   36.8560 H   0  0  0  0  0  0  0  0  0  0  0  0
  1 21  1  0  0  0  0
  1  8  1  0  0  0  0
  2  1  1  0  0  0  0
  3  1  1  0  0  0  0
  4 10  1  0  0  0  0
  4  5  1  0  0  0  0
  5 11  1  0  0  0  0
  6  5  2  0  0  0  0
  6 14  1  0  0  0  0
  7  6  1  0  0  0  0
  8  9  1  0  0  0  0
  8  7  2  0  0  0  0
  9  4  2  0  0  0  0
 12 13  1  0  0  0  0
 13 20  1  0  0  0  0
 14 13  2  0  0  0  0
 14 15  1  0  0  0  0
 15 17  2  0  0  0  0
 16 15  1  0  0  0  0
 17 19  1  0  0  0  0
 17 18  1  0  0  0  0
 20 19  2  0  0  0  0
 21 22  1  0  0  0  0
 22 23  1  0  0  0  0
 23 32  1  0  0  0  0
 23 24  2  0  0  0  0
 24 33  1  0  0  0  0
 25 24  1  0  0  0  0
 25 26  1  0  0  0  0
 27 26  2  0  0  0  0
 27 34  1  0  0  0  0
 28 27  1  0  0  0  0
 29 30  1  0  0  0  0
 29 28  2  0  0  0  0
 30 25  2  0  0  0  0
 31 22  2  0  0  0  0
 31 30  1  0  0  0  0
 35 28  1  0  0  0  0
 36 29  1  0  0  0  0
 37 31  1  0  0  0  0
M  END
>  <minimizedAffinity>
-6.12328243

$$$$

 OpenBabel03242523353D

 37 40  0  0  0  0  0  0  0  0999 V2000
   35.6070   25.8090   37.2700 C   0  0  0  0  0  0  0  0  0  0  0  0
   34.9180   25.0520   36.7890 H   0  0  0  0  0  0  0  0  0  0  0  0
   36.4640   25.9580   36.6010 H   0  0  0  0  0  0  0  0  0  0  0  0
   36.3710   23.5320   40.1220 C   0  0  0  0  0  0  0  0  0  0  0  0
   36.8220   24.4550   41.0540 C   0  0  0  0  0  0  0  0  0  0  0  0
   36.8730   25.8110   40.7470 C   0  0  0  0  0  0  0  0  0  0  0  0
   36.4590   26.1820   39.4870 N   0  0  0  0  0  0  0  0  0  0  0  0
   36.0230   25.2670   38.5880 C   0  0  0  0  0  0  0  0  0  0  0  0
   35.9920   23.9770   38.9330 N   0  0  0  0  0  0  0  0  0  0  0  0
   36.3470   22.4830   40.4010 H   0  0  0  0  0  0  0  0  0  0  0  0
   37.1500   24.1230   42.0040 H   0  0  0  0  0  0  0  0  0  0  0  0
   39.2310   27.7940   39.7120 Br  0  0  0  0  0  0  0  0  0  0  0  0
   38.2900   27.8460   41.3450 C   0  0  0  0  0  0  0  0  0  0  0  0
   37.3340   26.8930   41.5670 C   0  0  0  0  0  0  0  0  0  0  0  0
   36.7600   27.0380   42.8320 C   0  0  0  0  0  0  0  0  0  0  0  0
   35.9690   26.3770   43.2170 H   0  0  0  0  0  0  0  0  0  0  0  0
   37.1070   28.0120   43.7390 C   0  0  0  0  0  0  0  0  0  0  0  0
   36.6410   28.0940   44.7060 H   0  0  0  0  0  0  0  0  0  0  0  0
   38.0810   28.9330   43.4300 C   0  0  0  0  0  3  0  0  0  0  0  0
   38.6760   28.8380   42.2090 C   0  0  0  0  0  3  0  0  0  0  0  0
   34.6040   27.2780   37.5520 S   0  0  0  0  0  0  0  0  0  0  0  0
   35.6240   28.7160   37.7770 C   0  0  0  0  0  0  0  0  0  0  0  0
   36.3500   29.1510   36.6950 C   0  0  0  0  0  0  0  0  0  0  0  0
   37.1440   30.2650   36.8530 C   0  0  0  0  0  0  0  0  0  0  0  0
   37.2350   30.9550   38.0480 C   0  0  0  0  0  0  0  0  0  0  0  0
   38.0140   32.0350   38.1800 N   0  0  0  0  0  0  0  0  0  0  0  0
   38.1100   32.7100   39.3400 C   0  0  0  0  0  0  0  0  0  0  0  0
   37.3790   32.2710   40.4230 C   0  0  0  0  0  0  0  0  0  0  0  0
   36.5640   31.1540   40.3120 C   0  0  0  0  0  0  0  0  0  0  0  0
   36.4690   30.4550   39.1000 C   0  0  0  0  0  0  0  0  0  0  0  0
   35.6570   29.3440   38.9990 C   0  0  0  0  0  0  0  0  0  0  0  0
   36.3950   28.7320   35.7050 H   0  0  0  0  0  0  0  0  0  0  0  0
   37.7540   30.6780   36.0490 H   0  0  0  0  0  0  0  0  0  0  0  0
   38.7810   33.5540   39.2710 H   0  0  0  0  0  0  0  0  0  0  0  0
   37.5060   32.8570   41.3120 H   0  0  0  0  0  0  0  0  0  0  0  0
   36.0090   30.8460   41.1860 H   0  0  0  0  0  0  0  0  0  0  0  0
   35.0920   29.0050   39.8350 H   0  0  0  0  0  0  0  0  0  0  0  0
  1 21  1  0  0  0  0
  1  8  1  0  0  0  0
  2  1  1  0  0  0  0
  3  1  1  0  0  0  0
  4 10  1  0  0  0  0
  4  5  1  0  0  0  0
  5 11  1  0  0  0  0
  6  5  2  0  0  0  0
  6 14  1  0  0  0  0
  7  6  1  0  0  0  0
  8  9  1  0  0  0  0
  8  7  2  0  0  0  0
  9  4  2  0  0  0  0
 12 13  1  0  0  0  0
 13 14  2  0  0  0  0
 13 20  1  0  0  0  0
 14 15  1  0  0  0  0
 15 16  1  0  0  0  0
 15 17  2  0  0  0  0
 17 18  1  0  0  0  0
 19 17  1  0  0  0  0
 20 19  2  0  0  0  0
 21 22  1  0  0  0  0
 22 31  1  0  0  0  0
 23 24  1  0  0  0  0
 23 22  2  0  0  0  0
 24 25  2  0  0  0  0
 25 26  1  0  0  0  0
 25 30  1  0  0  0  0
 26 27  2  0  0  0  0
 27 28  1  0  0  0  0
 28 35  1  0  0  0  0
 29 28  2  0  0  0  0
 29 36  1  0  0  0  0
 30 29  1  0  0  0  0
 31 30  2  0  0  0  0
 31 37  1  0  0  0  0
 32 23  1  0  0  0  0
 33 24  1  0  0  0  0
 34 27  1  0  0  0  0
M  END
>  <minimizedAffinity>
-6.09942532

$$$$

 OpenBabel03242523353D

 37 40  0  0  0  0  0  0  0  0999 V2000
   35.8730   29.4850   38.8280 C   0  0  0  0  0  0  0  0  0  0  0  0
   35.6110   28.4700   38.4060 H   0  0  0  0  0  0  0  0  0  0  0  0
   35.3190   30.2420   38.2550 H   0  0  0  0  0  0  0  0  0  0  0  0
   39.5020   28.9200   38.1860 C   0  0  0  0  0  0  0  0  0  0  0  0
   40.0060   30.1640   38.5370 C   0  0  0  0  0  0  0  0  0  0  0  0
   39.1600   31.1760   38.9800 C   0  0  0  0  0  0  0  0  0  0  0  0
   37.8170   30.8820   39.0490 N   0  0  0  0  0  0  0  0  0  0  0  0
   37.3410   29.6620   38.7010 C   0  0  0  0  0  0  0  0  0  0  0  0
   38.1950   28.7240   38.2830 N   0  0  0  0  0  0  0  0  0  0  0  0
   40.1950   28.1580   37.8440 H   0  0  0  0  0  0  0  0  0  0  0  0
   41.0430   30.3530   38.4480 H   0  0  0  0  0  0  0  0  0  0  0  0
   41.7580   32.6520   37.7020 Br  0  0  0  0  0  0  0  0  0  0  0  0
   40.5200   33.3350   38.9480 C   0  0  0  0  0  0  0  0  0  0  0  0
   39.4980   32.5180   39.3530 C   0  0  0  0  0  0  0  0  0  0  0  0
   38.6950   33.1490   40.3050 C   0  0  0  0  0  0  0  0  0  0  0  0
   37.8160   32.6730   40.7670 H   0  0  0  0  0  0  0  0  0  0  0  0
   38.9000   34.4250   40.7770 C   0  0  0  0  0  0  0  0  0  0  0  0
   38.2570   34.8800   41.5120 H   0  0  0  0  0  0  0  0  0  0  0  0
   39.9540   35.1760   40.3130 C   0  0  0  0  0  3  0  0  0  0  0  0
   40.7710   34.6100   39.3820 C   0  0  0  0  0  3  0  0  0  0  0  0
   35.4590   29.4120   40.5790 S   0  0  0  0  0  0  0  0  0  0  0  0
   36.7120   28.5510   41.4980 C   0  0  0  0  0  0  0  0  0  0  0  0
   37.4420   29.2790   42.4060 C   0  0  0  0  0  0  0  0  0  0  0  0
   38.4160   28.6250   43.1280 C   0  0  0  0  0  0  0  0  0  0  0  0
   38.6830   27.2770   42.9730 C   0  0  0  0  0  0  0  0  0  0  0  0
   39.6350   26.6610   43.6830 N   0  0  0  0  0  0  0  0  0  0  0  0
   39.9030   25.3510   43.5360 C   0  0  0  0  0  0  0  0  0  0  0  0
   39.1690   24.6240   42.6250 C   0  0  0  0  0  0  0  0  0  0  0  0
   38.1750   25.2390   41.8760 C   0  0  0  0  0  0  0  0  0  0  0  0
   37.9020   26.6050   42.0340 C   0  0  0  0  0  0  0  0  0  0  0  0
   36.9140   27.2080   41.2840 C   0  0  0  0  0  0  0  0  0  0  0  0
   37.3640   30.3250   42.6460 H   0  0  0  0  0  0  0  0  0  0  0  0
   39.0420   29.1240   43.8680 H   0  0  0  0  0  0  0  0  0  0  0  0
   40.7000   25.0170   44.1860 H   0  0  0  0  0  0  0  0  0  0  0  0
   39.4370   23.5880   42.5620 H   0  0  0  0  0  0  0  0  0  0  0  0
   37.6240   24.6300   41.1730 H   0  0  0  0  0  0  0  0  0  0  0  0
   36.3460   26.6470   40.5790 H   0  0  0  0  0  0  0  0  0  0  0  0
  1 21  1  0  0  0  0
  2  1  1  0  0  0  0
  3  1  1  0  0  0  0
  4  9  2  0  0  0  0
  4  5  1  0  0  0  0
  5  6  2  0  0  0  0
  6  7  1  0  0  0  0
  6 14  1  0  0  0  0
  8  1  1  0  0  0  0
  8  7  2  0  0  0  0
  9  8  1  0  0  0  0
 10  4  1  0  0  0  0
 11  5  1  0  0  0  0
 12 13  1  0  0  0  0
 13 14  2  0  0  0  0
 13 20  1  0  0  0  0
 14 15  1  0  0  0  0
 15 16  1  0  0  0  0
 15 17  2  0  0  0  0
 17 18  1  0  0  0  0
 19 17  1  0  0  0  0
 20 19  2  0  0  0  0
 21 22  1  0  0  0  0
 22 23  1  0  0  0  0
 23 32  1  0  0  0  0
 23 24  2  0  0  0  0
 24 33  1  0  0  0  0
 25 24  1  0  0  0  0
 25 26  1  0  0  0  0
 27 26  2  0  0  0  0
 27 34  1  0  0  0  0
 28 27  1  0  0  0  0
 29 30  1  0  0  0  0
 29 28  2  0  0  0  0
 30 25  2  0  0  0  0
 31 22  2  0  0  0  0
 31 30  1  0  0  0  0
 35 28  1  0  0  0  0
 36 29  1  0  0  0  0
 37 31  1  0  0  0  0
M  END
>  <minimizedAffinity>
-6.04639387

$$$$

 OpenBabel03242523353D

 37 40  0  0  0  0  0  0  0  0999 V2000
   38.8810   31.1960   40.3270 C   0  0  0  0  0  0  0  0  0  0  0  0
   39.6340   30.6310   39.7010 H   0  0  0  0  0  0  0  0  0  0  0  0
   37.8910   31.0580   39.8710 H   0  0  0  0  0  0  0  0  0  0  0  0
   38.8550   34.9220   40.4580 C   0  0  0  0  0  0  0  0  0  0  0  0
   40.2140   35.1770   40.3490 C   0  0  0  0  0  0  0  0  0  0  0  0
   41.1270   34.1340   40.2330 C   0  0  0  0  0  0  0  0  0  0  0  0
   40.6180   32.8550   40.2340 N   0  0  0  0  0  0  0  0  0  0  0  0
   39.2880   32.6230   40.3420 C   0  0  0  0  0  0  0  0  0  0  0  0
   38.4520   33.6590   40.4490 N   0  0  0  0  0  0  0  0  0  0  0  0
   38.1750   35.7640   40.5460 H   0  0  0  0  0  0  0  0  0  0  0  0
   40.5630   36.1760   40.3740 H   0  0  0  0  0  0  0  0  0  0  0  0
   42.6390   33.6740   37.3940 Br  0  0  0  0  0  0  0  0  0  0  0  0
   43.3990   34.0630   39.0740 C   0  0  0  0  0  0  0  0  0  0  0  0
   42.5560   34.2090   40.1420 C   0  0  0  0  0  0  0  0  0  0  0  0
   43.2690   34.4500   41.3190 C   0  0  0  0  0  0  0  0  0  0  0  0
   42.7890   34.5980   42.2980 H   0  0  0  0  0  0  0  0  0  0  0  0
   44.6400   34.5320   41.3970 C   0  0  0  0  0  0  0  0  0  0  0  0
   45.1560   34.7210   42.3240 H   0  0  0  0  0  0  0  0  0  0  0  0
   45.4110   34.3740   40.2700 C   0  0  0  0  0  3  0  0  0  0  0  0
   44.7680   34.1350   39.0930 C   0  0  0  0  0  3  0  0  0  0  0  0
   39.0400   30.5420   41.9970 S   0  0  0  0  0  0  0  0  0  0  0  0
   38.6070   28.8190   42.0550 C   0  0  0  0  0  0  0  0  0  0  0  0
   39.0020   28.1060   43.1610 C   0  0  0  0  0  0  0  0  0  0  0  0
   38.6720   26.7700   43.2220 C   0  0  0  0  0  0  0  0  0  0  0  0
   37.9670   26.1280   42.2210 C   0  0  0  0  0  0  0  0  0  0  0  0
   37.6590   24.8280   42.2990 N   0  0  0  0  0  0  0  0  0  0  0  0
   36.9750   24.1960   41.3280 C   0  0  0  0  0  0  0  0  0  0  0  0
   36.5800   24.9140   40.2200 C   0  0  0  0  0  0  0  0  0  0  0  0
   36.8870   26.2630   40.1160 C   0  0  0  0  0  0  0  0  0  0  0  0
   37.6010   26.9170   41.1310 C   0  0  0  0  0  0  0  0  0  0  0  0
   37.9030   28.2580   41.0170 C   0  0  0  0  0  0  0  0  0  0  0  0
   39.5530   28.4480   44.0190 H   0  0  0  0  0  0  0  0  0  0  0  0
   38.9460   26.1290   44.0600 H   0  0  0  0  0  0  0  0  0  0  0  0
   36.8120   23.1510   41.5520 H   0  0  0  0  0  0  0  0  0  0  0  0
   36.0410   24.3450   39.4900 H   0  0  0  0  0  0  0  0  0  0  0  0
   36.5580   26.7880   39.2300 H   0  0  0  0  0  0  0  0  0  0  0  0
   37.5990   28.8140   40.1620 H   0  0  0  0  0  0  0  0  0  0  0  0
  1  8  1  0  0  0  0
  1 21  1  0  0  0  0
  2  1  1  0  0  0  0
  3  1  1  0  0  0  0
  4 10  1  0  0  0  0
  5 11  1  0  0  0  0
  5  4  2  0  0  0  0
  6  7  2  0  0  0  0
  6  5  1  0  0  0  0
  7  8  1  0  0  0  0
  8  9  2  0  0  0  0
  9  4  1  0  0  0  0
 12 13  1  0  0  0  0
 13 20  2  0  0  0  0
 13 14  1  0  0  0  0
 14  6  1  0  0  0  0
 14 15  2  0  0  0  0
 15 17  1  0  0  0  0
 15 16  1  0  0  0  0
 17 18  1  0  0  0  0
 19 17  2  0  0  0  0
 20 19  1  0  0  0  0
 21 22  1  0  0  0  0
 22 23  1  0  0  0  0
 23 24  2  0  0  0  0
 23 32  1  0  0  0  0
 24 33  1  0  0  0  0
 25 26  1  0  0  0  0
 25 24  1  0  0  0  0
 27 34  1  0  0  0  0
 27 26  2  0  0  0  0
 28 27  1  0  0  0  0
 29 28  2  0  0  0  0
 29 30  1  0  0  0  0
 30 25  2  0  0  0  0
 31 30  1  0  0  0  0
 31 22  2  0  0  0  0
 35 28  1  0  0  0  0
 36 29  1  0  0  0  0
 37 31  1  0  0  0  0
M  END
>  <minimizedAffinity>
-6.02268934

$$$$

 OpenBabel03242523353D

 37 40  0  0  0  0  0  0  0  0999 V2000
   38.5710   33.1410   40.6370 C   0  0  0  0  0  0  0  0  0  0  0  0
   38.8600   33.4500   41.6850 H   0  0  0  0  0  0  0  0  0  0  0  0
   37.9270   33.9260   40.2180 H   0  0  0  0  0  0  0  0  0  0  0  0
   36.0840   30.3870   40.2780 C   0  0  0  0  0  0  0  0  0  0  0  0
   36.7200   29.3910   41.0050 C   0  0  0  0  0  0  0  0  0  0  0  0
   37.9530   29.6250   41.6060 C   0  0  0  0  0  0  0  0  0  0  0  0
   38.5000   30.8770   41.4420 N   0  0  0  0  0  0  0  0  0  0  0  0
   37.8660   31.8380   40.7280 C   0  0  0  0  0  0  0  0  0  0  0  0
   36.6830   31.5640   40.1730 N   0  0  0  0  0  0  0  0  0  0  0  0
   35.1230   30.1640   39.8250 H   0  0  0  0  0  0  0  0  0  0  0  0
   36.2720   28.4360   41.0870 H   0  0  0  0  0  0  0  0  0  0  0  0
   36.5890   27.4670   43.6180 Br  0  0  0  0  0  0  0  0  0  0  0  0
   38.4190   27.7280   43.2480 C   0  0  0  0  0  0  0  0  0  0  0  0
   38.7610   28.7130   42.3610 C   0  0  0  0  0  0  0  0  0  0  0  0
   40.1480   28.8120   42.2260 C   0  0  0  0  0  0  0  0  0  0  0  0
   40.6420   29.5380   41.5640 H   0  0  0  0  0  0  0  0  0  0  0  0
   41.0550   28.0220   42.8950 C   0  0  0  0  0  0  0  0  0  0  0  0
   42.1190   28.1260   42.7650 H   0  0  0  0  0  0  0  0  0  0  0  0
   40.6200   27.0530   43.7690 C   0  0  0  0  0  3  0  0  0  0  0  0
   39.2770   26.9130   43.9400 C   0  0  0  0  0  3  0  0  0  0  0  0
   40.1210   32.8870   39.7550 S   0  0  0  0  0  0  0  0  0  0  0  0
   41.5110   32.9990   40.8560 C   0  0  0  0  0  0  0  0  0  0  0  0
   42.2910   34.1270   40.7770 C   0  0  0  0  0  0  0  0  0  0  0  0
   43.3710   34.2290   41.6250 C   0  0  0  0  0  0  0  0  0  0  0  0
   43.6950   33.2480   42.5440 C   0  0  0  0  0  0  0  0  0  0  0  0
   44.7510   33.3660   43.3580 N   0  0  0  0  0  0  0  0  0  0  0  0
   45.0750   32.4150   44.2530 C   0  0  0  0  0  0  0  0  0  0  0  0
   44.2910   31.2850   44.3300 C   0  0  0  0  0  0  0  0  0  0  0  0
   43.1900   31.1380   43.4970 C   0  0  0  0  0  0  0  0  0  0  0  0
   42.8580   32.1330   42.5660 C   0  0  0  0  0  0  0  0  0  0  0  0
   41.7640   31.9780   41.7410 C   0  0  0  0  0  0  0  0  0  0  0  0
   42.1800   34.9740   40.1240 H   0  0  0  0  0  0  0  0  0  0  0  0
   44.0430   35.0880   41.6290 H   0  0  0  0  0  0  0  0  0  0  0  0
   45.9540   32.6720   44.8270 H   0  0  0  0  0  0  0  0  0  0  0  0
   44.6090   30.5720   45.0640 H   0  0  0  0  0  0  0  0  0  0  0  0
   42.6030   30.2360   43.5920 H   0  0  0  0  0  0  0  0  0  0  0  0
   41.1580   31.1050   41.8000 H   0  0  0  0  0  0  0  0  0  0  0  0
  1  8  1  0  0  0  0
  1  2  1  0  0  0  0
  3  1  1  0  0  0  0
  4  5  1  0  0  0  0
  5 11  1  0  0  0  0
  5  6  2  0  0  0  0
  6 14  1  0  0  0  0
  7  6  1  0  0  0  0
  8  7  2  0  0  0  0
  9  4  2  0  0  0  0
  9  8  1  0  0  0  0
 10  4  1  0  0  0  0
 13 12  1  0  0  0  0
 13 20  1  0  0  0  0
 14 13  2  0  0  0  0
 15 14  1  0  0  0  0
 15 17  2  0  0  0  0
 16 15  1  0  0  0  0
 17 19  1  0  0  0  0
 18 17  1  0  0  0  0
 19 20  2  0  0  0  0
 21  1  1  0  0  0  0
 21 22  1  0  0  0  0
 22 31  1  0  0  0  0
 23 22  2  0  0  0  0
 23 24  1  0  0  0  0
 24 33  1  0  0  0  0
 24 25  2  0  0  0  0
 25 30  1  0  0  0  0
 25 26  1  0  0  0  0
 26 27  2  0  0  0  0
 27 28  1  0  0  0  0
 27 34  1  0  0  0  0
 28 35  1  0  0  0  0
 29 36  1  0  0  0  0
 29 28  2  0  0  0  0
 30 29  1  0  0  0  0
 31 37  1  0  0  0  0
 31 30  2  0  0  0  0
 32 23  1  0  0  0  0
M  END
>  <minimizedAffinity>
-6.02084637

$$$$

 OpenBabel03242523353D

 37 40  0  0  0  0  0  0  0  0999 V2000
   35.3940   29.1700   36.6950 C   0  0  0  0  0  0  0  0  0  0  0  0
   36.2080   28.4430   36.4000 H   0  0  0  0  0  0  0  0  0  0  0  0
   35.4870   30.0590   36.0570 H   0  0  0  0  0  0  0  0  0  0  0  0
   35.1140   29.2490   40.4120 C   0  0  0  0  0  0  0  0  0  0  0  0
   36.0480   30.2320   40.7040 C   0  0  0  0  0  0  0  0  0  0  0  0
   36.7610   30.8610   39.6880 C   0  0  0  0  0  0  0  0  0  0  0  0
   36.4950   30.4610   38.3980 N   0  0  0  0  0  0  0  0  0  0  0  0
   35.5790   29.4980   38.1310 C   0  0  0  0  0  0  0  0  0  0  0  0
   34.9210   28.9260   39.1410 N   0  0  0  0  0  0  0  0  0  0  0  0
   34.5780   28.7820   41.2340 H   0  0  0  0  0  0  0  0  0  0  0  0
   36.2360   30.4920   41.7120 H   0  0  0  0  0  0  0  0  0  0  0  0
   39.8920   30.0370   39.9690 Br  0  0  0  0  0  0  0  0  0  0  0  0
   39.1360   31.7630   39.9230 C   0  0  0  0  0  0  0  0  0  0  0  0
   37.7760   31.8660   39.8050 C   0  0  0  0  0  0  0  0  0  0  0  0
   37.3670   33.2010   39.8290 C   0  0  0  0  0  0  0  0  0  0  0  0
   36.3150   33.5140   39.7490 H   0  0  0  0  0  0  0  0  0  0  0  0
   38.2180   34.2750   39.9540 C   0  0  0  0  0  0  0  0  0  0  0  0
   37.8660   35.2930   39.9670 H   0  0  0  0  0  0  0  0  0  0  0  0
   39.5740   34.0780   40.0660 C   0  0  0  0  0  3  0  0  0  0  0  0
   40.0290   32.7950   40.0490 C   0  0  0  0  0  3  0  0  0  0  0  0
   33.8440   28.2710   36.5150 S   0  0  0  0  0  0  0  0  0  0  0  0
   32.4710   29.3870   36.3420 C   0  0  0  0  0  0  0  0  0  0  0  0
   31.6420   29.5410   37.4260 C   0  0  0  0  0  0  0  0  0  0  0  0
   30.5750   30.4040   37.3080 C   0  0  0  0  0  0  0  0  0  0  0  0
   30.3120   31.1130   36.1500 C   0  0  0  0  0  0  0  0  0  0  0  0
   29.2680   31.9450   36.0560 N   0  0  0  0  0  0  0  0  0  0  0  0
   29.0030   32.6360   34.9320 C   0  0  0  0  0  0  0  0  0  0  0  0
   29.8370   32.4790   33.8470 C   0  0  0  0  0  0  0  0  0  0  0  0
   30.9260   31.6220   33.9190 C   0  0  0  0  0  0  0  0  0  0  0  0
   31.1970   30.9050   35.0930 C   0  0  0  0  0  0  0  0  0  0  0  0
   32.2810   30.0540   35.1550 C   0  0  0  0  0  0  0  0  0  0  0  0
   31.7030   29.0680   38.3900 H   0  0  0  0  0  0  0  0  0  0  0  0
   29.8670   30.5850   38.1170 H   0  0  0  0  0  0  0  0  0  0  0  0
   28.1250   33.2600   35.0290 H   0  0  0  0  0  0  0  0  0  0  0  0
   29.5650   33.0600   32.9890 H   0  0  0  0  0  0  0  0  0  0  0  0
   31.5540   31.5300   33.0440 H   0  0  0  0  0  0  0  0  0  0  0  0
   32.9250   29.9320   34.3170 H   0  0  0  0  0  0  0  0  0  0  0  0
  1  8  1  0  0  0  0
  2  1  1  0  0  0  0
  3  1  1  0  0  0  0
  4  5  1  0  0  0  0
  4 10  1  0  0  0  0
  5 11  1  0  0  0  0
  6 14  1  0  0  0  0
  6  5  2  0  0  0  0
  7  6  1  0  0  0  0
  8  7  2  0  0  0  0
  8  9  1  0  0  0  0
  9  4  2  0  0  0  0
 13 12  1  0  0  0  0
 13 20  1  0  0  0  0
 14 15  1  0  0  0  0
 14 13  2  0  0  0  0
 15 17  2  0  0  0  0
 16 15  1  0  0  0  0
 17 18  1  0  0  0  0
 17 19  1  0  0  0  0
 20 19  2  0  0  0  0
 21  1  1  0  0  0  0
 22 21  1  0  0  0  0
 22 23  1  0  0  0  0
 23 32  1  0  0  0  0
 24 23  2  0  0  0  0
 24 33  1  0  0  0  0
 25 24  1  0  0  0  0
 26 25  1  0  0  0  0
 27 34  1  0  0  0  0
 27 26  2  0  0  0  0
 28 29  2  0  0  0  0
 28 27  1  0  0  0  0
 29 30  1  0  0  0  0
 30 31  1  0  0  0  0
 30 25  2  0  0  0  0
 31 22  2  0  0  0  0
 35 28  1  0  0  0  0
 36 29  1  0  0  0  0
 37 31  1  0  0  0  0
M  END
>  <minimizedAffinity>
-6.01533651

$$$$
