
 OpenBabel03252503443D

 34 36  0  0  1  0  0  0  0  0999 V2000
   36.5730   27.7710   41.1590 C   0  0  0  0  0  0  0  0  0  0  0  0
   37.4490   27.2000   42.1000 C   0  0  0  0  0  0  0  0  0  0  0  0
   38.5960   27.8970   42.4140 C   0  0  0  0  0  0  0  0  0  0  0  0
   38.8180   29.0760   41.8090 N   0  0  0  0  0  0  0  0  0  0  0  0
   37.9810   29.6100   40.9160 C   0  0  0  0  0  0  0  0  0  0  0  0
   36.8250   28.9720   40.5590 N   0  0  0  0  0  0  0  0  0  0  0  0
   35.6450   27.3140   40.8390 H   0  0  0  0  0  0  0  0  0  0  0  0
   39.2360   27.4340   43.1420 H   0  0  0  0  0  0  0  0  0  0  0  0
   37.1330   31.6790   39.7970 C   0  0  2  0  0  0  0  0  0  0  0  0
   38.3510   30.9080   40.3540 C   0  0  1  0  0  0  0  0  0  0  0  0
   38.8120   31.8240   41.2620 O   0  0  0  0  0  0  0  0  0  0  0  0
   38.8010   33.0480   40.6670 C   0  0  0  0  0  0  0  0  0  0  0  0
   37.8710   32.9890   39.4690 C   0  0  2  0  0  0  0  0  0  0  0  0
   36.7270   31.1990   38.9100 H   0  0  0  0  0  0  0  0  0  0  0  0
   39.1010   30.7920   39.5420 H   0  0  0  0  0  0  0  0  0  0  0  0
   39.8350   33.2750   40.3290 H   0  0  0  0  0  0  0  0  0  0  0  0
   38.4810   33.8780   41.3190 H   0  0  0  0  0  0  0  0  0  0  0  0
   38.4130   32.8130   38.5280 H   0  0  0  0  0  0  0  0  0  0  0  0
   36.2790   31.9600   40.8120 O   0  0  0  0  0  0  0  0  0  0  0  0
   35.3500   32.0500   40.4830 H   0  0  0  0  0  0  0  0  0  0  0  0
   37.0210   34.0550   39.3430 O   0  0  0  0  0  0  0  0  0  0  0  0
   37.0790   34.4550   38.4460 H   0  0  0  0  0  0  0  0  0  0  0  0
   36.9640   25.9050   42.6240 C   0  0  0  0  0  0  0  0  0  0  0  0
   35.8680   25.9780   42.7610 H   0  0  0  0  0  0  0  0  0  0  0  0
   37.4400   25.6760   43.6280 H   0  0  0  0  0  0  0  0  0  0  0  0
   39.8220   24.4260   42.8740 Br  0  0  0  0  0  0  0  0  0  0  0  0
   38.4200   24.0180   41.6540 C   0  0  0  0  0  0  0  0  0  0  0  0
   37.2860   24.7900   41.7530 C   0  0  0  0  0  0  0  0  0  0  0  0
   36.3200   24.3920   40.8180 C   0  0  0  0  0  0  0  0  0  0  0  0
   35.3620   24.9370   40.8000 H   0  0  0  0  0  0  0  0  0  0  0  0
   36.4090   23.3860   39.8980 C   0  0  0  0  0  0  0  0  0  0  0  0
   35.6000   23.1600   39.2190 H   0  0  0  0  0  0  0  0  0  0  0  0
   37.5840   22.6670   39.8740 C   0  0  0  0  0  3  0  0  0  0  0  0
   38.5850   22.9890   40.7560 C   0  0  0  0  0  3  0  0  0  0  0  0
  1  2  1  0  0  0  0
  2  3  2  0  0  0  0
  2 23  1  0  0  0  0
  3  8  1  0  0  0  0
  4  3  1  0  0  0  0
  5  4  2  0  0  0  0
  6  5  1  0  0  0  0
  6  1  2  0  0  0  0
  7  1  1  0  0  0  0
  9 14  1  6  0  0  0
  9 10  1  0  0  0  0
  9 19  1  0  0  0  0
 10 15  1  6  0  0  0
 10  5  1  0  0  0  0
 10 11  1  0  0  0  0
 12 11  1  0  0  0  0
 12 17  1  0  0  0  0
 13 18  1  6  0  0  0
 13  9  1  0  0  0  0
 13 12  1  0  0  0  0
 16 12  1  0  0  0  0
 20 19  1  0  0  0  0
 21 13  1  0  0  0  0
 22 21  1  0  0  0  0
 23 24  1  0  0  0  0
 23 25  1  0  0  0  0
 27 28  1  0  0  0  0
 27 26  1  0  0  0  0
 28 23  1  0  0  0  0
 29 28  2  0  0  0  0
 30 29  1  0  0  0  0
 31 29  1  0  0  0  0
 32 31  1  0  0  0  0
 33 31  2  0  0  0  0
 33 34  1  0  0  0  0
 34 27  2  0  0  0  0
M  END
>  <minimizedAffinity>
-6.09995365

$$$$

 OpenBabel03252503443D

 34 36  0  0  1  0  0  0  0  0999 V2000
   37.5930   30.8220   40.8100 C   0  0  0  0  0  0  0  0  0  0  0  0
   37.5370   29.5490   40.2160 C   0  0  0  0  0  0  0  0  0  0  0  0
   38.5480   29.2020   39.3470 C   0  0  0  0  0  0  0  0  0  0  0  0
   39.5280   30.0900   39.1110 N   0  0  0  0  0  0  0  0  0  0  0  0
   39.5720   31.2980   39.6780 C   0  0  0  0  0  0  0  0  0  0  0  0
   38.6010   31.7070   40.5520 N   0  0  0  0  0  0  0  0  0  0  0  0
   36.8550   31.2000   41.5080 H   0  0  0  0  0  0  0  0  0  0  0  0
   38.4760   28.2180   38.9190 H   0  0  0  0  0  0  0  0  0  0  0  0
   41.0230   32.1360   37.8220 C   0  0  2  0  0  0  0  0  0  0  0  0
   40.7100   32.1510   39.3350 C   0  0  1  0  0  0  0  0  0  0  0  0
   40.5060   33.4920   39.5190 O   0  0  0  0  0  0  0  0  0  0  0  0
   41.4960   34.1610   38.8660 C   0  0  0  0  0  0  0  0  0  0  0  0
   42.1110   33.2240   37.8430 C   0  0  2  0  0  0  0  0  0  0  0  0
   41.4080   31.1710   37.5010 H   0  0  0  0  0  0  0  0  0  0  0  0
   41.6210   31.8410   39.8900 H   0  0  0  0  0  0  0  0  0  0  0  0
   42.2630   34.4550   39.6140 H   0  0  0  0  0  0  0  0  0  0  0  0
   41.1730   35.0800   38.3500 H   0  0  0  0  0  0  0  0  0  0  0  0
   43.0260   32.7410   38.2160 H   0  0  0  0  0  0  0  0  0  0  0  0
   39.9710   32.6560   37.1420 O   0  0  0  0  0  0  0  0  0  0  0  0
   39.9270   32.2950   36.2220 H   0  0  0  0  0  0  0  0  0  0  0  0
   42.3280   33.7760   36.6100 O   0  0  0  0  0  0  0  0  0  0  0  0
   43.2580   33.6430   36.3160 H   0  0  0  0  0  0  0  0  0  0  0  0
   36.3640   28.7620   40.6550 C   0  0  0  0  0  0  0  0  0  0  0  0
   35.5910   28.8270   39.8660 H   0  0  0  0  0  0  0  0  0  0  0  0
   35.9360   29.1840   41.6170 H   0  0  0  0  0  0  0  0  0  0  0  0
   37.2880   27.8570   43.6120 Br  0  0  0  0  0  0  0  0  0  0  0  0
   37.1120   26.7510   42.0750 C   0  0  0  0  0  0  0  0  0  0  0  0
   36.6880   27.3730   40.9250 C   0  0  0  0  0  0  0  0  0  0  0  0
   36.5820   26.4610   39.8650 C   0  0  0  0  0  0  0  0  0  0  0  0
   36.2490   26.8410   38.8860 H   0  0  0  0  0  0  0  0  0  0  0  0
   36.8460   25.1200   39.8840 C   0  0  0  0  0  0  0  0  0  0  0  0
   36.7320   24.5040   39.0050 H   0  0  0  0  0  0  0  0  0  0  0  0
   37.2660   24.5860   41.0830 C   0  0  0  0  0  3  0  0  0  0  0  0
   37.3970   25.4080   42.1740 C   0  0  0  0  0  3  0  0  0  0  0  0
  1  7  1  0  0  0  0
  2 23  1  0  0  0  0
  2  1  2  0  0  0  0
  3  2  1  0  0  0  0
  4  3  2  0  0  0  0
  4  5  1  0  0  0  0
  5  6  2  0  0  0  0
  6  1  1  0  0  0  0
  8  3  1  0  0  0  0
  9 14  1  6  0  0  0
  9 13  1  0  0  0  0
  9 10  1  0  0  0  0
 10 11  1  0  0  0  0
 10  5  1  0  0  0  0
 10 15  1  1  0  0  0
 12 11  1  0  0  0  0
 12 16  1  0  0  0  0
 13 18  1  1  0  0  0
 13 12  1  0  0  0  0
 17 12  1  0  0  0  0
 19  9  1  0  0  0  0
 20 19  1  0  0  0  0
 21 13  1  0  0  0  0
 22 21  1  0  0  0  0
 23 28  1  0  0  0  0
 23 25  1  0  0  0  0
 24 23  1  0  0  0  0
 27 34  1  0  0  0  0
 27 26  1  0  0  0  0
 28 27  2  0  0  0  0
 29 31  2  0  0  0  0
 29 28  1  0  0  0  0
 30 29  1  0  0  0  0
 31 33  1  0  0  0  0
 32 31  1  0  0  0  0
 33 34  2  0  0  0  0
M  END
>  <minimizedAffinity>
-6.08896112

$$$$

 OpenBabel03252503443D

 34 36  0  0  1  0  0  0  0  0999 V2000
   38.0100   29.5450   38.8610 C   0  0  0  0  0  0  0  0  0  0  0  0
   37.2820   29.7700   40.0420 C   0  0  0  0  0  0  0  0  0  0  0  0
   37.7120   30.7770   40.8790 C   0  0  0  0  0  0  0  0  0  0  0  0
   38.7970   31.4870   40.5270 N   0  0  0  0  0  0  0  0  0  0  0  0
   39.4830   31.2650   39.4030 C   0  0  0  0  0  0  0  0  0  0  0  0
   39.1110   30.2820   38.5280 N   0  0  0  0  0  0  0  0  0  0  0  0
   37.7630   28.7830   38.1310 H   0  0  0  0  0  0  0  0  0  0  0  0
   37.1260   30.9240   41.7680 H   0  0  0  0  0  0  0  0  0  0  0  0
   41.0690   32.1130   37.6650 C   0  0  2  0  0  0  0  0  0  0  0  0
   40.6350   32.1300   39.1480 C   0  0  1  0  0  0  0  0  0  0  0  0
   40.4010   33.4700   39.3080 O   0  0  0  0  0  0  0  0  0  0  0  0
   41.4320   34.1480   38.7330 C   0  0  0  0  0  0  0  0  0  0  0  0
   42.1380   33.2140   37.7670 C   0  0  2  0  0  0  0  0  0  0  0  0
   41.4900   31.1510   37.3810 H   0  0  0  0  0  0  0  0  0  0  0  0
   41.5030   31.8340   39.7760 H   0  0  0  0  0  0  0  0  0  0  0  0
   42.1320   34.4550   39.5390 H   0  0  0  0  0  0  0  0  0  0  0  0
   41.1400   35.0610   38.1870 H   0  0  0  0  0  0  0  0  0  0  0  0
   43.0260   32.7440   38.2150 H   0  0  0  0  0  0  0  0  0  0  0  0
   40.0680   32.6170   36.9000 O   0  0  0  0  0  0  0  0  0  0  0  0
   40.1030   32.2510   35.9810 H   0  0  0  0  0  0  0  0  0  0  0  0
   42.4470   33.7640   36.5520 O   0  0  0  0  0  0  0  0  0  0  0  0
   43.3990   33.6410   36.3350 H   0  0  0  0  0  0  0  0  0  0  0  0
   36.1240   28.8610   40.1850 C   0  0  0  0  0  0  0  0  0  0  0  0
   35.6040   28.8100   39.2090 H   0  0  0  0  0  0  0  0  0  0  0  0
   35.3980   29.2550   40.9620 H   0  0  0  0  0  0  0  0  0  0  0  0
   36.0590   26.3970   38.1010 Br  0  0  0  0  0  0  0  0  0  0  0  0
   36.5460   26.3340   39.9390 C   0  0  0  0  0  0  0  0  0  0  0  0
   36.5050   27.5290   40.6180 C   0  0  0  0  0  0  0  0  0  0  0  0
   36.8940   27.3640   41.9550 C   0  0  0  0  0  0  0  0  0  0  0  0
   36.9040   28.2540   42.6050 H   0  0  0  0  0  0  0  0  0  0  0  0
   37.2780   26.2110   42.5810 C   0  0  0  0  0  0  0  0  0  0  0  0
   37.5600   26.1940   43.6220 H   0  0  0  0  0  0  0  0  0  0  0  0
   37.2870   25.0640   41.8170 C   0  0  0  0  0  3  0  0  0  0  0  0
   36.9200   25.1340   40.4970 C   0  0  0  0  0  3  0  0  0  0  0  0
  1  2  1  0  0  0  0
  2 23  1  0  0  0  0
  2  3  2  0  0  0  0
  3  8  1  0  0  0  0
  4  3  1  0  0  0  0
  5  4  2  0  0  0  0
  6  1  2  0  0  0  0
  6  5  1  0  0  0  0
  7  1  1  0  0  0  0
  9 14  1  6  0  0  0
  9 13  1  0  0  0  0
  9 10  1  0  0  0  0
 10 11  1  0  0  0  0
 10  5  1  0  0  0  0
 10 15  1  1  0  0  0
 12 11  1  0  0  0  0
 12 16  1  0  0  0  0
 13 18  1  1  0  0  0
 13 12  1  0  0  0  0
 17 12  1  0  0  0  0
 19  9  1  0  0  0  0
 20 19  1  0  0  0  0
 21 13  1  0  0  0  0
 22 21  1  0  0  0  0
 23 28  1  0  0  0  0
 23 25  1  0  0  0  0
 24 23  1  0  0  0  0
 26 27  1  0  0  0  0
 27 34  2  0  0  0  0
 27 28  1  0  0  0  0
 28 29  2  0  0  0  0
 29 31  1  0  0  0  0
 29 30  1  0  0  0  0
 31 32  1  0  0  0  0
 33 31  2  0  0  0  0
 34 33  1  0  0  0  0
M  END
>  <minimizedAffinity>
-5.99169779

$$$$

 OpenBabel03252503443D

 34 36  0  0  1  0  0  0  0  0999 V2000
   35.2490   29.2120   37.0570 C   0  0  0  0  0  0  0  0  0  0  0  0
   34.1030   28.9420   37.8270 C   0  0  0  0  0  0  0  0  0  0  0  0
   34.1750   29.1670   39.1840 C   0  0  0  0  0  0  0  0  0  0  0  0
   35.3260   29.6300   39.7000 N   0  0  0  0  0  0  0  0  0  0  0  0
   36.4090   29.8820   38.9610 C   0  0  0  0  0  0  0  0  0  0  0  0
   36.4070   29.6810   37.6080 N   0  0  0  0  0  0  0  0  0  0  0  0
   35.3060   29.0720   35.9840 H   0  0  0  0  0  0  0  0  0  0  0  0
   33.2770   28.9580   39.7380 H   0  0  0  0  0  0  0  0  0  0  0  0
   37.5300   31.9290   39.8610 C   0  0  2  0  0  0  0  0  0  0  0  0
   37.5850   30.3970   39.6630 C   0  0  1  0  0  0  0  0  0  0  0  0
   37.7040   29.9960   40.9670 O   0  0  0  0  0  0  0  0  0  0  0  0
   38.6300   30.7930   41.5690 C   0  0  0  0  0  0  0  0  0  0  0  0
   38.7900   32.0520   40.7360 C   0  0  2  0  0  0  0  0  0  0  0  0
   37.6280   32.4590   38.9170 H   0  0  0  0  0  0  0  0  0  0  0  0
   38.5190   30.1420   39.1170 H   0  0  0  0  0  0  0  0  0  0  0  0
   39.5920   30.2380   41.6000 H   0  0  0  0  0  0  0  0  0  0  0  0
   38.3880   31.0860   42.6040 H   0  0  0  0  0  0  0  0  0  0  0  0
   39.6500   31.9940   40.0530 H   0  0  0  0  0  0  0  0  0  0  0  0
   36.4770   32.2400   40.6560 O   0  0  0  0  0  0  0  0  0  0  0  0
   36.1490   33.1560   40.4720 H   0  0  0  0  0  0  0  0  0  0  0  0
   38.8220   33.2180   41.4520 O   0  0  0  0  0  0  0  0  0  0  0  0
   39.6130   33.7580   41.2220 H   0  0  0  0  0  0  0  0  0  0  0  0
   32.9670   28.4550   37.0140 C   0  0  0  0  0  0  0  0  0  0  0  0
   32.3040   27.8600   37.6700 H   0  0  0  0  0  0  0  0  0  0  0  0
   33.3330   27.7910   36.1710 H   0  0  0  0  0  0  0  0  0  0  0  0
   30.5990   29.9330   38.6340 Br  0  0  0  0  0  0  0  0  0  0  0  0
   31.1750   30.2950   36.8580 C   0  0  0  0  0  0  0  0  0  0  0  0
   32.2200   29.5320   36.3910 C   0  0  0  0  0  0  0  0  0  0  0  0
   32.5660   29.8950   35.0820 C   0  0  0  0  0  0  0  0  0  0  0  0
   33.3940   29.3540   34.5960 H   0  0  0  0  0  0  0  0  0  0  0  0
   31.9960   30.8620   34.3010 C   0  0  0  0  0  0  0  0  0  0  0  0
   32.3410   31.0620   33.2980 H   0  0  0  0  0  0  0  0  0  0  0  0
   30.9550   31.5750   34.8560 C   0  0  0  0  0  3  0  0  0  0  0  0
   30.5510   31.2850   36.1340 C   0  0  0  0  0  3  0  0  0  0  0  0
  1  6  2  0  0  0  0
  1  2  1  0  0  0  0
  2  3  2  0  0  0  0
  3  4  1  0  0  0  0
  3  8  1  0  0  0  0
  5 10  1  0  0  0  0
  5  4  2  0  0  0  0
  6  5  1  0  0  0  0
  7  1  1  0  0  0  0
  9 14  1  6  0  0  0
  9 19  1  0  0  0  0
  9 13  1  0  0  0  0
 10 15  1  6  0  0  0
 10  9  1  0  0  0  0
 10 11  1  0  0  0  0
 11 12  1  0  0  0  0
 12 16  1  0  0  0  0
 12 17  1  0  0  0  0
 13 18  1  6  0  0  0
 13 21  1  0  0  0  0
 13 12  1  0  0  0  0
 20 19  1  0  0  0  0
 22 21  1  0  0  0  0
 23 24  1  0  0  0  0
 23  2  1  0  0  0  0
 25 23  1  0  0  0  0
 27 26  1  0  0  0  0
 28 27  1  0  0  0  0
 28 23  1  0  0  0  0
 29 28  2  0  0  0  0
 30 29  1  0  0  0  0
 31 33  2  0  0  0  0
 31 29  1  0  0  0  0
 32 31  1  0  0  0  0
 33 34  1  0  0  0  0
 34 27  2  0  0  0  0
M  END
>  <minimizedAffinity>
-5.5613246

$$$$

 OpenBabel03252503443D

 34 36  0  0  1  0  0  0  0  0999 V2000
   37.0590   30.2080   39.2800 C   0  0  0  0  0  0  0  0  0  0  0  0
   36.1080   29.8490   40.2520 C   0  0  0  0  0  0  0  0  0  0  0  0
   34.9450   29.2490   39.8190 C   0  0  0  0  0  0  0  0  0  0  0  0
   34.7790   29.0400   38.5030 N   0  0  0  0  0  0  0  0  0  0  0  0
   35.6880   29.3850   37.5870 C   0  0  0  0  0  0  0  0  0  0  0  0
   36.8650   29.9840   37.9470 N   0  0  0  0  0  0  0  0  0  0  0  0
   38.0060   30.6820   39.5050 H   0  0  0  0  0  0  0  0  0  0  0  0
   34.2460   28.9810   40.5910 H   0  0  0  0  0  0  0  0  0  0  0  0
   36.4500   29.6040   35.2150 C   0  0  2  0  0  0  0  0  0  0  0  0
   35.3720   29.0800   36.1920 C   0  0  1  0  0  0  0  0  0  0  0  0
   35.3920   27.7490   35.8710 O   0  0  0  0  0  0  0  0  0  0  0  0
   35.4090   27.6440   34.5130 C   0  0  0  0  0  0  0  0  0  0  0  0
   35.8710   28.9710   33.9370 C   0  0  2  0  0  0  0  0  0  0  0  0
   36.4570   30.6900   35.1720 H   0  0  0  0  0  0  0  0  0  0  0  0
   34.3890   29.5100   35.9020 H   0  0  0  0  0  0  0  0  0  0  0  0
   34.3730   27.4280   34.1730 H   0  0  0  0  0  0  0  0  0  0  0  0
   36.0570   26.8460   34.1170 H   0  0  0  0  0  0  0  0  0  0  0  0
   35.0290   29.6080   33.6290 H   0  0  0  0  0  0  0  0  0  0  0  0
   37.6230   28.9710   35.4620 O   0  0  0  0  0  0  0  0  0  0  0  0
   38.3940   29.5320   35.1950 H   0  0  0  0  0  0  0  0  0  0  0  0
   36.7950   28.8740   32.9320 O   0  0  0  0  0  0  0  0  0  0  0  0
   36.5120   29.3790   32.1360 H   0  0  0  0  0  0  0  0  0  0  0  0
   36.5410   30.1750   41.6270 C   0  0  0  0  0  0  0  0  0  0  0  0
   35.6360   30.3250   42.2470 H   0  0  0  0  0  0  0  0  0  0  0  0
   37.1500   31.1320   41.6390 H   0  0  0  0  0  0  0  0  0  0  0  0
   39.6400   30.7950   42.2830 Br  0  0  0  0  0  0  0  0  0  0  0  0
   38.7120   29.1580   42.5630 C   0  0  0  0  0  0  0  0  0  0  0  0
   37.3820   29.1470   42.2110 C   0  0  0  0  0  0  0  0  0  0  0  0
   36.8000   27.8980   42.4730 C   0  0  0  0  0  0  0  0  0  0  0  0
   35.7330   27.7640   42.2330 H   0  0  0  0  0  0  0  0  0  0  0  0
   37.3980   26.7890   43.0020 C   0  0  0  0  0  0  0  0  0  0  0  0
   36.8550   25.8710   43.1640 H   0  0  0  0  0  0  0  0  0  0  0  0
   38.7340   26.8970   43.3230 C   0  0  0  0  0  3  0  0  0  0  0  0
   39.3830   28.0850   43.1010 C   0  0  0  0  0  3  0  0  0  0  0  0
  1  7  1  0  0  0  0
  1  2  1  0  0  0  0
  2 23  1  0  0  0  0
  3  2  2  0  0  0  0
  3  8  1  0  0  0  0
  4  3  1  0  0  0  0
  5  6  1  0  0  0  0
  5  4  2  0  0  0  0
  6  1  2  0  0  0  0
  9 14  1  6  0  0  0
  9 19  1  0  0  0  0
  9 10  1  0  0  0  0
 10 15  1  6  0  0  0
 10  5  1  0  0  0  0
 11 10  1  0  0  0  0
 12 11  1  0  0  0  0
 13 18  1  6  0  0  0
 13 12  1  0  0  0  0
 13  9  1  0  0  0  0
 16 12  1  0  0  0  0
 17 12  1  0  0  0  0
 20 19  1  0  0  0  0
 21 13  1  0  0  0  0
 22 21  1  0  0  0  0
 23 25  1  0  0  0  0
 23 28  1  0  0  0  0
 23 24  1  0  0  0  0
 26 27  1  0  0  0  0
 27 34  1  0  0  0  0
 28 29  1  0  0  0  0
 28 27  2  0  0  0  0
 29 31  2  0  0  0  0
 30 29  1  0  0  0  0
 31 32  1  0  0  0  0
 31 33  1  0  0  0  0
 34 33  2  0  0  0  0
M  END
>  <minimizedAffinity>
-5.53185081

$$$$

 OpenBabel03252503443D

 34 36  0  0  1  0  0  0  0  0999 V2000
   38.3370   29.4590   40.3830 C   0  0  0  0  0  0  0  0  0  0  0  0
   37.0780   29.9630   40.0100 C   0  0  0  0  0  0  0  0  0  0  0  0
   37.0380   31.1950   39.3940 C   0  0  0  0  0  0  0  0  0  0  0  0
   38.1930   31.8470   39.1830 N   0  0  0  0  0  0  0  0  0  0  0  0
   39.3840   31.3610   39.5420 C   0  0  0  0  0  0  0  0  0  0  0  0
   39.4960   30.1430   40.1570 N   0  0  0  0  0  0  0  0  0  0  0  0
   38.4870   28.5030   40.8710 H   0  0  0  0  0  0  0  0  0  0  0  0
   36.0600   31.5440   39.1160 H   0  0  0  0  0  0  0  0  0  0  0  0
   40.9380   32.1210   37.7360 C   0  0  2  0  0  0  0  0  0  0  0  0
   40.5560   32.1800   39.2320 C   0  0  1  0  0  0  0  0  0  0  0  0
   40.3740   33.5290   39.3750 O   0  0  0  0  0  0  0  0  0  0  0  0
   41.4080   34.1610   38.7530 C   0  0  0  0  0  0  0  0  0  0  0  0
   42.0480   33.1860   37.7820 C   0  0  2  0  0  0  0  0  0  0  0  0
   41.3150   31.1410   37.4570 H   0  0  0  0  0  0  0  0  0  0  0  0
   41.4330   31.8640   39.8370 H   0  0  0  0  0  0  0  0  0  0  0  0
   42.1450   34.4570   39.5290 H   0  0  0  0  0  0  0  0  0  0  0  0
   41.1300   35.0730   38.2010 H   0  0  0  0  0  0  0  0  0  0  0  0
   42.9340   32.6920   38.2090 H   0  0  0  0  0  0  0  0  0  0  0  0
   39.9310   32.6470   36.9960 O   0  0  0  0  0  0  0  0  0  0  0  0
   39.9210   32.2640   36.0830 H   0  0  0  0  0  0  0  0  0  0  0  0
   42.3340   33.7030   36.5480 O   0  0  0  0  0  0  0  0  0  0  0  0
   43.2730   33.5420   36.3010 H   0  0  0  0  0  0  0  0  0  0  0  0
   35.9690   29.0430   40.3420 C   0  0  0  0  0  0  0  0  0  0  0  0
   35.1490   29.6380   40.7870 H   0  0  0  0  0  0  0  0  0  0  0  0
   36.3050   28.2670   41.0990 H   0  0  0  0  0  0  0  0  0  0  0  0
   37.1010   26.0860   39.7120 Br  0  0  0  0  0  0  0  0  0  0  0  0
   35.8140   27.0620   38.7070 C   0  0  0  0  0  0  0  0  0  0  0  0
   35.4840   28.3070   39.1890 C   0  0  0  0  0  0  0  0  0  0  0  0
   34.5210   28.9250   38.3780 C   0  0  0  0  0  0  0  0  0  0  0  0
   34.1730   29.9310   38.6630 H   0  0  0  0  0  0  0  0  0  0  0  0
   33.9370   28.4310   37.2460 C   0  0  0  0  0  0  0  0  0  0  0  0
   33.2010   28.9930   36.6920 H   0  0  0  0  0  0  0  0  0  0  0  0
   34.3320   27.1740   36.8400 C   0  0  0  0  0  3  0  0  0  0  0  0
   35.2710   26.4960   37.5760 C   0  0  0  0  0  3  0  0  0  0  0  0
  1  7  1  0  0  0  0
  2 23  1  0  0  0  0
  2  1  2  0  0  0  0
  3  2  1  0  0  0  0
  4  3  2  0  0  0  0
  4  5  1  0  0  0  0
  5  6  2  0  0  0  0
  6  1  1  0  0  0  0
  8  3  1  0  0  0  0
  9 14  1  6  0  0  0
  9 13  1  0  0  0  0
  9 10  1  0  0  0  0
 10 11  1  0  0  0  0
 10  5  1  0  0  0  0
 10 15  1  1  0  0  0
 12 11  1  0  0  0  0
 12 16  1  0  0  0  0
 13 18  1  1  0  0  0
 13 12  1  0  0  0  0
 17 12  1  0  0  0  0
 19  9  1  0  0  0  0
 20 19  1  0  0  0  0
 21 13  1  0  0  0  0
 22 21  1  0  0  0  0
 23 24  1  0  0  0  0
 23 25  1  0  0  0  0
 27 28  1  0  0  0  0
 27 26  1  0  0  0  0
 28 23  1  0  0  0  0
 29 30  1  0  0  0  0
 29 28  2  0  0  0  0
 31 29  1  0  0  0  0
 32 31  1  0  0  0  0
 33 31  2  0  0  0  0
 33 34  1  0  0  0  0
 34 27  2  0  0  0  0
M  END
>  <minimizedAffinity>
-5.39754295

$$$$

 OpenBabel03252503443D

 34 36  0  0  1  0  0  0  0  0999 V2000
   39.2200   30.2000   42.8690 C   0  0  0  0  0  0  0  0  0  0  0  0
   39.6090   28.8830   42.5670 C   0  0  0  0  0  0  0  0  0  0  0  0
   40.4870   28.6980   41.5210 C   0  0  0  0  0  0  0  0  0  0  0  0
   40.9240   29.7760   40.8490 N   0  0  0  0  0  0  0  0  0  0  0  0
   40.5470   31.0230   41.1420 C   0  0  0  0  0  0  0  0  0  0  0  0
   39.6780   31.2780   42.1680 N   0  0  0  0  0  0  0  0  0  0  0  0
   38.5370   30.4620   43.6680 H   0  0  0  0  0  0  0  0  0  0  0  0
   40.7690   27.6790   41.3250 H   0  0  0  0  0  0  0  0  0  0  0  0
   41.0940   31.7700   38.8190 C   0  0  2  0  0  0  0  0  0  0  0  0
   41.1180   32.0970   40.3300 C   0  0  1  0  0  0  0  0  0  0  0  0
   40.4050   33.2660   40.3280 O   0  0  0  0  0  0  0  0  0  0  0  0
   40.8610   34.0350   39.3010 C   0  0  0  0  0  0  0  0  0  0  0  0
   41.5950   33.1380   38.3220 C   0  0  2  0  0  0  0  0  0  0  0  0
   41.7800   30.9640   38.5720 H   0  0  0  0  0  0  0  0  0  0  0  0
   42.1660   32.3100   40.6310 H   0  0  0  0  0  0  0  0  0  0  0  0
   41.5620   34.7870   39.7220 H   0  0  0  0  0  0  0  0  0  0  0  0
   40.0800   34.5870   38.7530 H   0  0  0  0  0  0  0  0  0  0  0  0
   42.6830   33.1470   38.4820 H   0  0  0  0  0  0  0  0  0  0  0  0
   39.8070   31.6580   38.4060 O   0  0  0  0  0  0  0  0  0  0  0  0
   39.7360   31.0610   37.6200 H   0  0  0  0  0  0  0  0  0  0  0  0
   41.3010   33.3590   37.0030 O   0  0  0  0  0  0  0  0  0  0  0  0
   42.1180   33.4960   36.4720 H   0  0  0  0  0  0  0  0  0  0  0  0
   38.9970   27.8820   43.4670 C   0  0  0  0  0  0  0  0  0  0  0  0
   38.1550   28.3660   43.9980 H   0  0  0  0  0  0  0  0  0  0  0  0
   39.7490   27.5190   44.2340 H   0  0  0  0  0  0  0  0  0  0  0  0
   36.3300   28.0240   41.6550 Br  0  0  0  0  0  0  0  0  0  0  0  0
   37.4350   26.5050   41.9540 C   0  0  0  0  0  0  0  0  0  0  0  0
   38.5310   26.7020   42.7620 C   0  0  0  0  0  0  0  0  0  0  0  0
   39.2760   25.5220   42.9000 C   0  0  0  0  0  0  0  0  0  0  0  0
   40.1830   25.5530   43.5250 H   0  0  0  0  0  0  0  0  0  0  0  0
   39.0220   24.3000   42.3440 C   0  0  0  0  0  0  0  0  0  0  0  0
   39.6640   23.4500   42.5150 H   0  0  0  0  0  0  0  0  0  0  0  0
   37.9000   24.2000   41.5490 C   0  0  0  0  0  3  0  0  0  0  0  0
   37.1120   25.3070   41.3590 C   0  0  0  0  0  3  0  0  0  0  0  0
  1  7  1  0  0  0  0
  2  1  1  0  0  0  0
  2 23  1  0  0  0  0
  3  2  2  0  0  0  0
  4  5  2  0  0  0  0
  4  3  1  0  0  0  0
  5  6  1  0  0  0  0
  6  1  2  0  0  0  0
  8  3  1  0  0  0  0
  9 14  1  6  0  0  0
  9 10  1  0  0  0  0
 10 15  1  1  0  0  0
 10  5  1  0  0  0  0
 11 10  1  0  0  0  0
 12 16  1  0  0  0  0
 12 11  1  0  0  0  0
 13 18  1  1  0  0  0
 13  9  1  0  0  0  0
 13 12  1  0  0  0  0
 17 12  1  0  0  0  0
 19  9  1  0  0  0  0
 20 19  1  0  0  0  0
 21 13  1  0  0  0  0
 22 21  1  0  0  0  0
 23 24  1  0  0  0  0
 23 25  1  0  0  0  0
 26 27  1  0  0  0  0
 27 28  1  0  0  0  0
 28 29  2  0  0  0  0
 28 23  1  0  0  0  0
 29 30  1  0  0  0  0
 31 32  1  0  0  0  0
 31 29  1  0  0  0  0
 33 31  2  0  0  0  0
 34 33  1  0  0  0  0
 34 27  2  0  0  0  0
M  END
>  <minimizedAffinity>
-5.3049016

$$$$

 OpenBabel03252503443D

 34 36  0  0  1  0  0  0  0  0999 V2000
   38.1130   32.8870   40.7090 C   0  0  0  0  0  0  0  0  0  0  0  0
   37.8000   31.6350   40.1490 C   0  0  0  0  0  0  0  0  0  0  0  0
   38.6330   31.1470   39.1650 C   0  0  0  0  0  0  0  0  0  0  0  0
   39.6920   31.8840   38.7930 N   0  0  0  0  0  0  0  0  0  0  0  0
   39.9810   33.0720   39.3300 C   0  0  0  0  0  0  0  0  0  0  0  0
   39.1970   33.6160   40.3110 N   0  0  0  0  0  0  0  0  0  0  0  0
   37.5320   33.3660   41.4870 H   0  0  0  0  0  0  0  0  0  0  0  0
   38.3660   30.1840   38.7670 H   0  0  0  0  0  0  0  0  0  0  0  0
   42.4630   33.2820   39.5500 C   0  0  2  0  0  0  0  0  0  0  0  0
   41.1770   33.7510   38.8320 C   0  0  1  0  0  0  0  0  0  0  0  0
   41.5120   33.4610   37.5370 O   0  0  0  0  0  0  0  0  0  0  0  0
   42.7880   33.8900   37.3270 C   0  0  0  0  0  0  0  0  0  0  0  0
   43.4620   34.0610   38.6750 C   0  0  2  0  0  0  0  0  0  0  0  0
   42.4830   33.6040   40.5880 H   0  0  0  0  0  0  0  0  0  0  0  0
   41.0870   34.8530   38.9470 H   0  0  0  0  0  0  0  0  0  0  0  0
   42.7390   34.8690   36.8040 H   0  0  0  0  0  0  0  0  0  0  0  0
   43.4070   33.2190   36.7080 H   0  0  0  0  0  0  0  0  0  0  0  0
   43.4360   35.1030   39.0270 H   0  0  0  0  0  0  0  0  0  0  0  0
   42.6660   31.9670   39.2890 O   0  0  0  0  0  0  0  0  0  0  0  0
   43.1790   31.5350   40.0170 H   0  0  0  0  0  0  0  0  0  0  0  0
   44.7330   33.5590   38.7540 O   0  0  0  0  0  0  0  0  0  0  0  0
   45.3640   34.2350   39.0920 H   0  0  0  0  0  0  0  0  0  0  0  0
   36.5920   31.0260   40.7450 C   0  0  0  0  0  0  0  0  0  0  0  0
   35.8020   30.9990   39.9690 H   0  0  0  0  0  0  0  0  0  0  0  0
   36.2200   31.6460   41.6180 H   0  0  0  0  0  0  0  0  0  0  0  0
   35.5750   28.4420   39.0990 Br  0  0  0  0  0  0  0  0  0  0  0  0
   36.4910   28.4550   40.7660 C   0  0  0  0  0  0  0  0  0  0  0  0
   36.8310   29.6920   41.2620 C   0  0  0  0  0  0  0  0  0  0  0  0
   37.5100   29.5770   42.4840 C   0  0  0  0  0  0  0  0  0  0  0  0
   37.8380   30.5040   42.9820 H   0  0  0  0  0  0  0  0  0  0  0  0
   37.8320   28.4340   43.1600 C   0  0  0  0  0  0  0  0  0  0  0  0
   38.3610   28.4580   44.1010 H   0  0  0  0  0  0  0  0  0  0  0  0
   37.4490   27.2420   42.5840 C   0  0  0  0  0  3  0  0  0  0  0  0
   36.7790   27.2610   41.3870 C   0  0  0  0  0  3  0  0  0  0  0  0
  1  7  1  0  0  0  0
  2  1  2  0  0  0  0
  2 23  1  0  0  0  0
  3  2  1  0  0  0  0
  4  3  2  0  0  0  0
  4  5  1  0  0  0  0
  5  6  2  0  0  0  0
  6  1  1  0  0  0  0
  8  3  1  0  0  0  0
  9 14  1  1  0  0  0
 10 15  1  1  0  0  0
 10  5  1  0  0  0  0
 10  9  1  0  0  0  0
 11 10  1  0  0  0  0
 12 11  1  0  0  0  0
 12 13  1  0  0  0  0
 13 21  1  0  0  0  0
 13 18  1  1  0  0  0
 13  9  1  0  0  0  0
 16 12  1  0  0  0  0
 17 12  1  0  0  0  0
 19  9  1  0  0  0  0
 19 20  1  0  0  0  0
 21 22  1  0  0  0  0
 23 28  1  0  0  0  0
 23 25  1  0  0  0  0
 24 23  1  0  0  0  0
 26 27  1  0  0  0  0
 27 28  2  0  0  0  0
 27 34  1  0  0  0  0
 28 29  1  0  0  0  0
 29 30  1  0  0  0  0
 29 31  2  0  0  0  0
 31 32  1  0  0  0  0
 33 31  1  0  0  0  0
 34 33  2  0  0  0  0
M  END
>  <minimizedAffinity>
-5.26913118

$$$$

 OpenBabel03252503443D

 34 36  0  0  1  0  0  0  0  0999 V2000
   36.6550   30.0490   39.0700 C   0  0  0  0  0  0  0  0  0  0  0  0
   35.8240   29.8480   40.1860 C   0  0  0  0  0  0  0  0  0  0  0  0
   34.5860   29.2830   39.9710 C   0  0  0  0  0  0  0  0  0  0  0  0
   34.2380   28.9550   38.7150 N   0  0  0  0  0  0  0  0  0  0  0  0
   35.0330   29.1500   37.6610 C   0  0  0  0  0  0  0  0  0  0  0  0
   36.2750   29.7070   37.8040 N   0  0  0  0  0  0  0  0  0  0  0  0
   37.6460   30.4840   39.1220 H   0  0  0  0  0  0  0  0  0  0  0  0
   33.9820   29.1370   40.8490 H   0  0  0  0  0  0  0  0  0  0  0  0
   34.3520   27.1950   36.2580 C   0  0  2  0  0  0  0  0  0  0  0  0
   34.5220   28.7280   36.3570 C   0  0  1  0  0  0  0  0  0  0  0  0
   33.2410   29.1240   36.0800 O   0  0  0  0  0  0  0  0  0  0  0  0
   32.7990   28.4010   35.0140 C   0  0  0  0  0  0  0  0  0  0  0  0
   33.6730   27.1680   34.8770 C   0  0  2  0  0  0  0  0  0  0  0  0
   35.3120   26.6840   36.2580 H   0  0  0  0  0  0  0  0  0  0  0  0
   35.1930   29.0650   35.5380 H   0  0  0  0  0  0  0  0  0  0  0  0
   32.8960   29.0340   34.1070 H   0  0  0  0  0  0  0  0  0  0  0  0
   31.7460   28.0790   35.0770 H   0  0  0  0  0  0  0  0  0  0  0  0
   34.4740   27.3040   34.1350 H   0  0  0  0  0  0  0  0  0  0  0  0
   33.4190   26.7900   37.1550 O   0  0  0  0  0  0  0  0  0  0  0  0
   33.5730   25.8520   37.4310 H   0  0  0  0  0  0  0  0  0  0  0  0
   32.9960   26.0010   34.6460 O   0  0  0  0  0  0  0  0  0  0  0  0
   33.3510   25.5320   33.8580 H   0  0  0  0  0  0  0  0  0  0  0  0
   36.4500   30.2830   41.4540 C   0  0  0  0  0  0  0  0  0  0  0  0
   35.6460   30.6030   42.1430 H   0  0  0  0  0  0  0  0  0  0  0  0
   37.1470   31.1600   41.2770 H   0  0  0  0  0  0  0  0  0  0  0  0
   39.5540   30.8250   42.1520 Br  0  0  0  0  0  0  0  0  0  0  0  0
   38.5750   29.2210   42.4450 C   0  0  0  0  0  0  0  0  0  0  0  0
   37.2510   29.2410   42.0710 C   0  0  0  0  0  0  0  0  0  0  0  0
   36.6290   28.0150   42.3440 C   0  0  0  0  0  0  0  0  0  0  0  0
   35.5620   27.9070   42.0890 H   0  0  0  0  0  0  0  0  0  0  0  0
   37.1860   26.8990   42.9040 C   0  0  0  0  0  0  0  0  0  0  0  0
   36.6130   26.0000   43.0730 H   0  0  0  0  0  0  0  0  0  0  0  0
   38.5190   26.9740   43.2460 C   0  0  0  0  0  3  0  0  0  0  0  0
   39.2060   28.1390   43.0130 C   0  0  0  0  0  3  0  0  0  0  0  0
  1  7  1  0  0  0  0
  1  2  1  0  0  0  0
  2 23  1  0  0  0  0
  3  2  2  0  0  0  0
  3  8  1  0  0  0  0
  4  3  1  0  0  0  0
  5  6  1  0  0  0  0
  5  4  2  0  0  0  0
  6  1  2  0  0  0  0
  9 14  1  1  0  0  0
  9 10  1  0  0  0  0
  9 19  1  0  0  0  0
 10 15  1  6  0  0  0
 10  5  1  0  0  0  0
 11 10  1  0  0  0  0
 12 17  1  0  0  0  0
 12 11  1  0  0  0  0
 13 18  1  6  0  0  0
 13 12  1  0  0  0  0
 13  9  1  0  0  0  0
 16 12  1  0  0  0  0
 19 20  1  0  0  0  0
 21 13  1  0  0  0  0
 22 21  1  0  0  0  0
 23 28  1  0  0  0  0
 23 24  1  0  0  0  0
 25 23  1  0  0  0  0
 26 27  1  0  0  0  0
 27 34  1  0  0  0  0
 28 29  1  0  0  0  0
 28 27  2  0  0  0  0
 29 31  2  0  0  0  0
 30 29  1  0  0  0  0
 31 32  1  0  0  0  0
 31 33  1  0  0  0  0
 34 33  2  0  0  0  0
M  END
>  <minimizedAffinity>
-5.05457878

$$$$
