
 OpenBabel03242510573D

 36 38  0  0  0  0  0  0  0  0999 V2000
   45.6880   31.5160   47.0610 C   0  0  0  0  0  0  0  0  0  0  0  0
   45.7170   31.9050   48.4070 C   0  0  0  0  0  0  0  0  0  0  0  0
   45.4980   31.0330   49.4520 C   0  0  0  0  0  0  0  0  0  0  0  0
   45.2390   29.7180   49.1370 C   0  0  0  0  0  0  0  0  0  0  0  0
   45.2090   29.3280   47.7950 C   0  0  0  0  0  0  0  0  0  0  0  0
   45.4300   30.2280   46.8410 N   0  0  0  0  0  0  0  0  0  0  0  0
   45.9260   32.9510   48.6060 H   0  0  0  0  0  0  0  0  0  0  0  0
   45.5430   31.4320   50.4370 H   0  0  0  0  0  0  0  0  0  0  0  0
   45.0720   29.0650   49.9820 H   0  0  0  0  0  0  0  0  0  0  0  0
   44.7510   36.5780   43.9030 C   0  0  0  0  0  0  0  0  0  0  0  0
   45.6800   36.3340   42.8820 C   0  0  0  0  0  0  0  0  0  0  0  0
   46.3650   35.1180   42.8920 C   0  0  0  0  0  0  0  0  0  0  0  0
   46.1120   34.2190   43.8850 N   0  0  0  0  0  0  0  0  0  0  0  0
   45.2050   34.4970   44.8530 C   0  0  0  0  0  0  0  0  0  0  0  0
   44.5200   35.6820   44.8650 N   0  0  0  0  0  0  0  0  0  0  0  0
   45.9300   32.5000   46.0160 C   0  0  0  0  0  0  0  0  0  0  0  0
   46.9600   32.3830   45.3030 O   0  0  0  0  0  0  0  0  0  0  0  0
   44.9640   33.5460   45.8710 N   0  0  0  0  0  0  0  0  0  0  0  0
   44.2590   37.5460   43.8280 H   0  0  0  0  0  0  0  0  0  0  0  0
   45.9410   36.9780   42.0640 H   0  0  0  0  0  0  0  0  0  0  0  0
   47.1100   34.8370   42.1350 H   0  0  0  0  0  0  0  0  0  0  0  0
   44.1390   33.5760   46.4970 H   0  0  0  0  0  0  0  0  0  0  0  0
   44.9520   27.9410   47.4890 C   0  0  0  0  0  3  0  0  0  0  0  0
   44.3450   27.1640   48.3560 C   0  0  0  0  0  3  0  0  0  0  0  0
   44.0100   25.7240   48.2320 C   0  0  0  0  0  0  0  0  0  0  0  0
   43.0640   25.4560   48.7410 H   0  0  0  0  0  0  0  0  0  0  0  0
   44.0120   25.4290   47.1540 H   0  0  0  0  0  0  0  0  0  0  0  0
   45.7670   24.4220   46.0660 Br  0  0  0  0  0  0  0  0  0  0  0  0
   46.0010   24.3300   47.9660 C   0  0  0  0  0  0  0  0  0  0  0  0
   45.1330   24.9700   48.8540 C   0  0  0  0  0  0  0  0  0  0  0  0
   45.3880   24.8480   50.2270 C   0  0  0  0  0  0  0  0  0  0  0  0
   44.6820   25.3650   50.8640 H   0  0  0  0  0  0  0  0  0  0  0  0
   46.4780   24.1060   50.6380 C   0  0  0  0  0  0  0  0  0  0  0  0
   46.6420   24.0350   51.7250 H   0  0  0  0  0  0  0  0  0  0  0  0
   47.3210   23.4830   49.7430 C   0  0  0  0  0  3  0  0  0  0  0  0
   47.0880   23.5900   48.3740 C   0  0  0  0  0  3  0  0  0  0  0  0
  1  2  1  0  0  0  0
  2  7  1  0  0  0  0
  2  3  2  0  0  0  0
  3  8  1  0  0  0  0
  4  3  1  0  0  0  0
  4  9  1  0  0  0  0
  5  4  2  0  0  0  0
  6  1  2  0  0  0  0
  6  5  1  0  0  0  0
 10 15  1  0  0  0  0
 11 12  1  0  0  0  0
 11 10  2  0  0  0  0
 12 13  2  0  0  0  0
 13 14  1  0  0  0  0
 14 15  2  0  0  0  0
 14 18  1  0  0  0  0
 16  1  1  0  0  0  0
 17 16  2  0  0  0  0
 18 16  1  0  0  0  0
 18 22  1  0  0  0  0
 19 10  1  0  0  0  0
 20 11  1  0  0  0  0
 21 12  1  0  0  0  0
 23  5  1  0  0  0  0
 23 24  2  0  0  0  0
 25 24  1  0  0  0  0
 25 26  1  0  0  0  0
 25 30  1  0  0  0  0
 27 25  1  0  0  0  0
 28 29  1  0  0  0  0
 29 36  2  0  0  0  0
 29 30  1  0  0  0  0
 30 31  2  0  0  0  0
 31 33  1  0  0  0  0
 31 32  1  0  0  0  0
 33 34  1  0  0  0  0
 35 33  2  0  0  0  0
 36 35  1  0  0  0  0
M  END
>  <minimizedAffinity>
-5.60883427

>  <minimizedRMSD>
1.12122262

$$$$
