
 OpenBabel03242520023D

 25 27  0  0  0  0  0  0  0  0999 V2000
   48.6760   29.4540   43.5570 C   0  0  0  0  0  0  0  0  0  0  0  0
   48.2400   30.3560   44.5350 C   0  0  0  0  0  0  0  0  0  0  0  0
   47.6450   31.3990   43.8970 C   0  0  0  0  0  0  0  0  0  0  0  0
   47.7100   31.1530   42.5800 N   0  0  0  0  0  0  0  0  0  0  0  0
   48.3340   29.9760   42.3770 N   0  0  0  0  0  0  0  0  0  0  0  0
   48.3580   30.2380   45.6040 H   0  0  0  0  0  0  0  0  0  0  0  0
   47.1860   32.2880   44.2830 H   0  0  0  0  0  0  0  0  0  0  0  0
   50.2860   26.1950   43.0370 C   0  0  0  0  0  0  0  0  0  0  0  0
   50.6670   25.8290   44.3370 C   0  0  0  0  0  0  0  0  0  0  0  0
   50.3610   26.7190   45.3870 C   0  0  0  0  0  0  0  0  0  0  0  0
   49.7170   27.8830   45.0940 N   0  0  0  0  0  0  0  0  0  0  0  0
   49.3650   28.1990   43.8280 C   0  0  0  0  0  0  0  0  0  0  0  0
   49.6450   27.3650   42.7940 N   0  0  0  0  0  0  0  0  0  0  0  0
   50.4740   25.5850   42.1730 H   0  0  0  0  0  0  0  0  0  0  0  0
   51.1720   24.8970   44.4880 H   0  0  0  0  0  0  0  0  0  0  0  0
   50.6470   26.4550   46.3950 H   0  0  0  0  0  0  0  0  0  0  0  0
   48.5100   34.1120   42.7440 Br  0  0  0  0  0  0  0  0  0  0  0  0
   47.4960   33.2630   41.3530 C   0  0  0  0  0  0  0  0  0  0  0  0
   47.2460   31.9110   41.4760 C   0  0  0  0  0  0  0  0  0  0  0  0
   46.5200   31.2980   40.4800 C   0  0  0  0  0  0  0  0  0  0  0  0
   46.2860   30.2400   40.5110 H   0  0  0  0  0  0  0  0  0  0  0  0
   46.0700   32.0440   39.4050 C   0  0  0  0  0  0  0  0  0  0  0  0
   45.4970   31.5560   38.6220 H   0  0  0  0  0  0  0  0  0  0  0  0
   46.3080   33.3910   39.2630 C   0  0  0  0  0  3  0  0  0  0  0  0
   47.0430   33.9870   40.2800 C   0  0  0  0  0  3  0  0  0  0  0  0
  1 12  1  0  0  0  0
  1  2  1  0  0  0  0
  2  6  1  0  0  0  0
  3  7  1  0  0  0  0
  3  2  2  0  0  0  0
  4  3  1  0  0  0  0
  5  4  1  0  0  0  0
  5  1  2  0  0  0  0
  8  9  1  0  0  0  0
  9 15  1  0  0  0  0
  9 10  2  0  0  0  0
 10 16  1  0  0  0  0
 11 10  1  0  0  0  0
 12 11  2  0  0  0  0
 13  8  2  0  0  0  0
 13 12  1  0  0  0  0
 14  8  1  0  0  0  0
 18 19  1  0  0  0  0
 18 17  1  0  0  0  0
 19  4  1  0  0  0  0
 20 21  1  0  0  0  0
 20 19  2  0  0  0  0
 22 20  1  0  0  0  0
 23 22  1  0  0  0  0
 24 22  2  0  0  0  0
 24 25  1  0  0  0  0
 25 18  2  0  0  0  0
M  END
>  <minimizedAffinity>
-1.9818989

>  <minimizedRMSD>
9.23104286

$$$$
