
 OpenBabel03252508023D

 42 45  0  0  1  0  0  0  0  0999 V2000
   42.0960   33.2460   41.1550 C   0  0  0  0  0  0  0  0  0  0  0  0
   42.8220   34.3900   41.3280 C   0  0  0  0  0  0  0  0  0  0  0  0
   42.1340   35.6190   41.2680 C   0  0  0  0  0  0  0  0  0  0  0  0
   40.7810   35.7200   41.0480 C   0  0  0  0  0  0  0  0  0  0  0  0
   40.0610   34.5670   40.8770 C   0  0  0  0  0  0  0  0  0  0  0  0
   40.7210   33.3750   40.9340 C   0  0  0  0  0  0  0  0  0  0  0  0
   42.6250   36.5790   41.3840 H   0  0  0  0  0  0  0  0  0  0  0  0
   40.2700   36.6620   41.0050 H   0  0  0  0  0  0  0  0  0  0  0  0
   38.9970   34.5460   40.7000 H   0  0  0  0  0  0  0  0  0  0  0  0
   40.1370   32.4500   40.7960 H   0  0  0  0  0  0  0  0  0  0  0  0
   42.7750   31.7120   41.2930 S   0  0  0  0  0  0  0  0  0  0  0  0
   41.9230   30.9320   40.2410 O   0  0  0  0  0  0  0  0  0  0  0  0
   42.5230   31.0810   42.6130 O   0  0  0  0  0  0  0  0  0  0  0  0
   44.4080   29.9120   43.2610 Br  0  0  0  0  0  0  0  0  0  0  0  0
   44.8920   30.1890   41.4100 C   0  0  0  0  0  0  0  0  0  0  0  0
   44.1340   31.0450   40.5590 C   0  0  0  0  0  0  0  0  0  0  0  0
   44.6900   31.0660   39.2860 C   0  0  0  0  0  0  0  0  0  0  0  0
   44.0560   31.6940   38.6330 H   0  0  0  0  0  0  0  0  0  0  0  0
   45.7840   30.4420   38.7350 C   0  0  0  0  0  0  0  0  0  0  0  0
   46.0310   30.6080   37.7190 H   0  0  0  0  0  0  0  0  0  0  0  0
   46.3750   29.6730   39.6960 C   0  0  0  0  0  3  0  0  0  0  0  0
   46.0060   29.4980   41.0020 C   0  0  0  0  0  3  0  0  0  0  0  0
   44.2530   34.3940   41.5670 C   0  0  0  0  0  0  0  0  0  0  0  0
   45.1340   34.3380   40.6570 O   0  0  0  0  0  0  0  0  0  0  0  0
   44.5940   34.4690   42.9680 C   0  0  0  0  0  0  0  0  0  0  0  0
   44.3050   35.7230   43.6090 C   0  0  0  0  0  0  0  0  0  0  0  0
   44.6200   35.8190   44.9520 C   0  0  0  0  0  0  0  0  0  0  0  0
   45.1720   34.7430   45.5680 N   0  0  0  0  0  0  0  0  0  0  0  0
   45.4280   33.5670   44.9100 C   0  0  0  0  0  0  0  0  0  0  0  0
   45.1380   33.4690   43.6590 N   0  0  0  0  0  0  0  0  0  0  0  0
   43.8810   36.5990   43.2000 H   0  0  0  0  0  0  0  0  0  0  0  0
   44.4560   36.7010   45.5520 H   0  0  0  0  0  0  0  0  0  0  0  0
   46.0210   32.4460   45.6650 C   0  0  1  0  0  0  0  0  0  0  0  0
   46.9720   32.7480   46.8030 C   0  0  0  0  0  0  0  0  0  0  0  0
   45.5570   32.3260   47.0660 C   0  0  1  0  0  0  0  0  0  0  0  0
   46.1510   31.5030   45.1100 H   0  0  0  0  0  0  0  0  0  0  0  0
   47.2740   33.8050   46.8830 H   0  0  0  0  0  0  0  0  0  0  0  0
   47.7280   31.9510   46.9830 H   0  0  0  0  0  0  0  0  0  0  0  0
   45.3600   31.3280   47.4840 H   0  0  0  0  0  0  0  0  0  0  0  0
   44.7670   33.3890   47.6690 N   0  0  0  0  0  0  0  0  0  0  0  0
   45.2150   33.7930   48.4990 H   0  0  0  0  0  0  0  0  0  0  0  0
   43.7750   33.0970   47.7970 H   0  0  0  0  0  0  0  0  0  0  0  0
  1 11  1  0  0  0  0
  1  2  1  0  0  0  0
  2 23  1  0  0  0  0
  3  2  2  0  0  0  0
  3  7  1  0  0  0  0
  4  3  1  0  0  0  0
  5  6  1  0  0  0  0
  5  4  2  0  0  0  0
  6  1  2  0  0  0  0
  8  4  1  0  0  0  0
  9  5  1  0  0  0  0
 10  6  1  0  0  0  0
 11 13  2  0  0  0  0
 12 11  2  0  0  0  0
 15 14  1  0  0  0  0
 16 11  1  0  0  0  0
 16 15  2  0  0  0  0
 17 16  1  0  0  0  0
 18 17  1  0  0  0  0
 19 17  2  0  0  0  0
 19 21  1  0  0  0  0
 20 19  1  0  0  0  0
 21 22  2  0  0  0  0
 22 15  1  0  0  0  0
 23 25  1  0  0  0  0
 24 23  2  0  0  0  0
 25 26  2  0  0  0  0
 25 30  1  0  0  0  0
 26 27  1  0  0  0  0
 27 32  1  0  0  0  0
 27 28  2  0  0  0  0
 29 28  1  0  0  0  0
 29 33  1  0  0  0  0
 30 29  2  0  0  0  0
 31 26  1  0  0  0  0
 33 36  1  6  0  0  0
 33 34  1  0  0  0  0
 33 35  1  0  0  0  0
 34 37  1  0  0  0  0
 34 38  1  0  0  0  0
 34 35  1  0  0  0  0
 35 39  1  1  0  0  0
 35 40  1  0  0  0  0
 40 42  1  0  0  0  0
 40 41  1  0  0  0  0
M  END
>  <minimizedAffinity>
-5.76991415

>  <minimizedRMSD>
0.980471432

$$$$
