
 OpenBabel03252509293D

 21 22  0  0  0  0  0  0  0  0999 V2000
   45.5530   35.7640   42.6800 C   0  0  0  0  0  0  0  0  0  0  0  0
   46.4780   36.4010   42.6820 H   0  0  0  0  0  0  0  0  0  0  0  0
   44.6390   36.3850   42.6040 H   0  0  0  0  0  0  0  0  0  0  0  0
   44.6340   34.7860   46.1470 C   0  0  0  0  0  0  0  0  0  0  0  0
   44.6400   35.5000   44.9330 C   0  0  0  0  0  0  0  0  0  0  0  0
   45.5270   35.0430   43.9550 C   0  0  0  0  0  0  0  0  0  0  0  0
   46.3200   33.9590   44.2160 N   0  0  0  0  0  0  0  0  0  0  0  0
   46.2670   33.3150   45.4030 C   0  0  0  0  0  0  0  0  0  0  0  0
   45.4280   33.7300   46.3590 N   0  0  0  0  0  0  0  0  0  0  0  0
   43.9530   35.1210   46.9260 H   0  0  0  0  0  0  0  0  0  0  0  0
   43.9920   36.3560   44.7690 H   0  0  0  0  0  0  0  0  0  0  0  0
   46.9710   32.4860   45.4050 H   0  0  0  0  0  0  0  0  0  0  0  0
   42.6830   35.1150   41.5450 Br  0  0  0  0  0  0  0  0  0  0  0  0
   44.4020   34.5020   40.9490 C   0  0  0  0  0  0  0  0  0  0  0  0
   45.6270   34.8370   41.5180 C   0  0  0  0  0  0  0  0  0  0  0  0
   46.7770   34.3160   40.9850 C   0  0  0  0  0  0  0  0  0  0  0  0
   47.7140   34.5990   41.4540 H   0  0  0  0  0  0  0  0  0  0  0  0
   46.6750   33.4710   39.8910 C   0  0  0  0  0  0  0  0  0  0  0  0
   47.6040   33.0720   39.4860 H   0  0  0  0  0  0  0  0  0  0  0  0
   45.4830   33.1230   39.3080 C   0  0  0  0  0  3  0  0  0  0  0  0
   44.3140   33.6510   39.8490 C   0  0  0  0  0  3  0  0  0  0  0  0
  1  2  1  0  0  0  0
  1  6  1  0  0  0  0
  3  1  1  0  0  0  0
  4  9  1  0  0  0  0
  4 10  1  0  0  0  0
  5  4  2  0  0  0  0
  6  7  2  0  0  0  0
  6  5  1  0  0  0  0
  7  8  1  0  0  0  0
  8 12  1  0  0  0  0
  8  9  2  0  0  0  0
 11  5  1  0  0  0  0
 14 15  1  0  0  0  0
 14 13  1  0  0  0  0
 15  1  1  0  0  0  0
 16 17  1  0  0  0  0
 16 15  2  0  0  0  0
 18 16  1  0  0  0  0
 19 18  1  0  0  0  0
 20 21  1  0  0  0  0
 20 18  2  0  0  0  0
 21 14  2  0  0  0  0
M  END
>  <minimizedAffinity>
-4.11461115

>  <minimizedRMSD>
1.49508488

$$$$
