
 OpenBabel03252509293D

 21 22  0  0  0  0  0  0  0  0999 V2000
   46.9770   35.0140   41.8980 C   0  0  0  0  0  0  0  0  0  0  0  0
   48.0400   34.7810   42.1750 H   0  0  0  0  0  0  0  0  0  0  0  0
   46.8950   36.0160   41.4330 H   0  0  0  0  0  0  0  0  0  0  0  0
   44.5560   36.0160   44.5350 C   0  0  0  0  0  0  0  0  0  0  0  0
   45.2920   36.0510   43.3350 C   0  0  0  0  0  0  0  0  0  0  0  0
   46.1990   35.0070   43.1400 C   0  0  0  0  0  0  0  0  0  0  0  0
   46.3240   34.0330   44.0920 N   0  0  0  0  0  0  0  0  0  0  0  0
   45.5880   34.0570   45.2250 C   0  0  0  0  0  0  0  0  0  0  0  0
   44.7110   35.0440   45.4410 N   0  0  0  0  0  0  0  0  0  0  0  0
   43.8430   36.8180   44.7130 H   0  0  0  0  0  0  0  0  0  0  0  0
   45.1600   36.8440   42.6050 H   0  0  0  0  0  0  0  0  0  0  0  0
   45.8370   33.1980   45.8450 H   0  0  0  0  0  0  0  0  0  0  0  0
   49.2290   32.8870   41.3130 Br  0  0  0  0  0  0  0  0  0  0  0  0
   47.4380   32.9910   40.6300 C   0  0  0  0  0  0  0  0  0  0  0  0
   46.5060   33.9780   40.9400 C   0  0  0  0  0  0  0  0  0  0  0  0
   45.2610   33.9250   40.3690 C   0  0  0  0  0  0  0  0  0  0  0  0
   44.5600   34.7080   40.6330 H   0  0  0  0  0  0  0  0  0  0  0  0
   44.9760   32.8820   39.4990 C   0  0  0  0  0  0  0  0  0  0  0  0
   43.9790   32.8630   39.0610 H   0  0  0  0  0  0  0  0  0  0  0  0
   45.8740   31.8970   39.1760 C   0  0  0  0  0  3  0  0  0  0  0  0
   47.1380   31.9490   39.7550 C   0  0  0  0  0  3  0  0  0  0  0  0
  1  2  1  0  0  0  0
  1  6  1  0  0  0  0
  3  1  1  0  0  0  0
  4 10  1  0  0  0  0
  4  9  1  0  0  0  0
  5  4  2  0  0  0  0
  6  5  1  0  0  0  0
  6  7  2  0  0  0  0
  7  8  1  0  0  0  0
  8  9  2  0  0  0  0
  8 12  1  0  0  0  0
 11  5  1  0  0  0  0
 14 15  1  0  0  0  0
 14 13  1  0  0  0  0
 15  1  1  0  0  0  0
 16 17  1  0  0  0  0
 16 15  2  0  0  0  0
 18 16  1  0  0  0  0
 19 18  1  0  0  0  0
 20 18  2  0  0  0  0
 20 21  1  0  0  0  0
 21 14  2  0  0  0  0
M  END
>  <minimizedAffinity>
-3.95802116

>  <minimizedRMSD>
0.452759922

$$$$
