
 OpenBabel03252503003D

 22 23  0  0  0  0  0  0  0  0999 V2000
   36.8340   28.6850   40.7880 C   0  0  0  0  0  0  0  0  0  0  0  0
   36.0020   29.0250   40.1170 H   0  0  0  0  0  0  0  0  0  0  0  0
   36.5600   29.0610   41.8080 H   0  0  0  0  0  0  0  0  0  0  0  0
   37.1980   27.8510   43.6790 Br  0  0  0  0  0  0  0  0  0  0  0  0
   36.9860   26.7440   42.1180 C   0  0  0  0  0  0  0  0  0  0  0  0
   36.8230   27.2190   40.8120 C   0  0  0  0  0  0  0  0  0  0  0  0
   36.6840   26.2680   39.8200 C   0  0  0  0  0  0  0  0  0  0  0  0
   36.5630   26.7470   38.8490 H   0  0  0  0  0  0  0  0  0  0  0  0
   36.7060   24.9330   40.1070 C   0  0  0  0  0  0  0  0  0  0  0  0
   36.5890   24.2600   39.2560 H   0  0  0  0  0  0  0  0  0  0  0  0
   36.8640   24.4410   41.3790 C   0  0  0  0  0  3  0  0  0  0  0  0
   37.0040   25.3880   42.3820 C   0  0  0  0  0  3  0  0  0  0  0  0
   38.3730   29.4400   40.3090 S   0  0  0  0  0  0  0  0  0  0  0  0
   38.8700   32.0870   40.9530 C   0  0  0  0  0  0  0  0  0  0  0  0
   38.1400   31.2250   40.1500 C   0  0  0  0  0  0  0  0  0  0  0  0
   37.2410   31.7290   39.2330 C   0  0  0  0  0  0  0  0  0  0  0  0
   37.1080   33.0830   39.1570 N   0  0  0  0  0  0  0  0  0  0  0  0
   37.8190   33.8930   39.9370 C   0  0  0  0  0  0  0  0  0  0  0  0
   38.6860   33.4300   40.8230 N   0  0  0  0  0  0  0  0  0  0  0  0
   39.5710   31.6940   41.6660 H   0  0  0  0  0  0  0  0  0  0  0  0
   36.6490   31.1100   38.5820 H   0  0  0  0  0  0  0  0  0  0  0  0
   37.7340   34.9780   39.8970 H   0  0  0  0  0  0  0  0  0  0  0  0
  1  6  1  0  0  0  0
  1  3  1  0  0  0  0
  2  1  1  0  0  0  0
  5 12  1  0  0  0  0
  5  4  1  0  0  0  0
  6  5  2  0  0  0  0
  7  9  2  0  0  0  0
  7  6  1  0  0  0  0
  8  7  1  0  0  0  0
  9 11  1  0  0  0  0
 10  9  1  0  0  0  0
 11 12  2  0  0  0  0
 13  1  1  0  0  0  0
 14 20  1  0  0  0  0
 15 13  1  0  0  0  0
 15 14  2  0  0  0  0
 16 15  1  0  0  0  0
 17 16  2  0  0  0  0
 17 18  1  0  0  0  0
 18 19  2  0  0  0  0
 19 14  1  0  0  0  0
 21 16  1  0  0  0  0
 22 18  1  0  0  0  0
M  END
>  <minimizedAffinity>
-4.4036932

$$$$

 OpenBabel03252503003D

 22 23  0  0  0  0  0  0  0  0999 V2000
   36.5540   27.8130   41.8660 C   0  0  0  0  0  0  0  0  0  0  0  0
   35.6090   27.7600   42.4690 H   0  0  0  0  0  0  0  0  0  0  0  0
   37.1300   28.6710   42.2980 H   0  0  0  0  0  0  0  0  0  0  0  0
   39.3000   28.6370   42.8470 Br  0  0  0  0  0  0  0  0  0  0  0  0
   38.5980   26.8660   42.5620 C   0  0  0  0  0  0  0  0  0  0  0  0
   37.3090   26.5780   42.1030 C   0  0  0  0  0  0  0  0  0  0  0  0
   36.9860   25.2430   41.9610 C   0  0  0  0  0  0  0  0  0  0  0  0
   35.9630   25.1350   41.6010 H   0  0  0  0  0  0  0  0  0  0  0  0
   37.8850   24.2580   42.2570 C   0  0  0  0  0  0  0  0  0  0  0  0
   37.5370   23.2350   42.1120 H   0  0  0  0  0  0  0  0  0  0  0  0
   39.1560   24.5150   42.7090 C   0  0  0  0  0  3  0  0  0  0  0  0
   39.4900   25.8530   42.8540 C   0  0  0  0  0  3  0  0  0  0  0  0
   36.1900   28.1840   40.1630 S   0  0  0  0  0  0  0  0  0  0  0  0
   36.8400   30.3130   38.5170 C   0  0  0  0  0  0  0  0  0  0  0  0
   36.6180   29.9060   39.8220 C   0  0  0  0  0  0  0  0  0  0  0  0
   36.7230   30.8140   40.8560 C   0  0  0  0  0  0  0  0  0  0  0  0
   37.0480   32.0990   40.5390 N   0  0  0  0  0  0  0  0  0  0  0  0
   37.2560   32.4680   39.2780 C   0  0  0  0  0  0  0  0  0  0  0  0
   37.1600   31.6140   38.2730 N   0  0  0  0  0  0  0  0  0  0  0  0
   36.7560   29.6060   37.7120 H   0  0  0  0  0  0  0  0  0  0  0  0
   36.5600   30.5570   41.8890 H   0  0  0  0  0  0  0  0  0  0  0  0
   37.5150   33.4870   38.9950 H   0  0  0  0  0  0  0  0  0  0  0  0
  1  6  1  0  0  0  0
  1  3  1  0  0  0  0
  1  2  1  0  0  0  0
  5  4  1  0  0  0  0
  5 12  1  0  0  0  0
  6  5  2  0  0  0  0
  7  6  1  0  0  0  0
  7  9  2  0  0  0  0
  8  7  1  0  0  0  0
  9 11  1  0  0  0  0
 10  9  1  0  0  0  0
 11 12  2  0  0  0  0
 13  1  1  0  0  0  0
 14 15  1  0  0  0  0
 15 13  1  0  0  0  0
 15 16  2  0  0  0  0
 16 21  1  0  0  0  0
 17 16  1  0  0  0  0
 18 17  2  0  0  0  0
 19 14  2  0  0  0  0
 19 18  1  0  0  0  0
 20 14  1  0  0  0  0
 22 18  1  0  0  0  0
M  END
>  <minimizedAffinity>
-4.318717

$$$$

 OpenBabel03252503003D

 22 23  0  0  0  0  0  0  0  0999 V2000
   37.5420   31.0830   40.6700 C   0  0  0  0  0  0  0  0  0  0  0  0
   36.4520   31.2620   40.4770 H   0  0  0  0  0  0  0  0  0  0  0  0
   37.9040   32.0080   41.1880 H   0  0  0  0  0  0  0  0  0  0  0  0
   35.1590   29.2830   40.1570 Br  0  0  0  0  0  0  0  0  0  0  0  0
   36.5880   29.0650   41.4300 C   0  0  0  0  0  0  0  0  0  0  0  0
   37.6550   29.9540   41.5990 C   0  0  0  0  0  0  0  0  0  0  0  0
   38.5860   29.6270   42.5650 C   0  0  0  0  0  0  0  0  0  0  0  0
   39.3690   30.3820   42.6100 H   0  0  0  0  0  0  0  0  0  0  0  0
   38.4650   28.4910   43.3140 C   0  0  0  0  0  0  0  0  0  0  0  0
   39.2500   28.3190   44.0510 H   0  0  0  0  0  0  0  0  0  0  0  0
   37.4280   27.6030   43.1670 C   0  0  0  0  0  3  0  0  0  0  0  0
   36.4870   27.9230   42.2000 C   0  0  0  0  0  3  0  0  0  0  0  0
   38.4310   30.9160   39.1370 S   0  0  0  0  0  0  0  0  0  0  0  0
   40.4990   32.2900   37.9100 C   0  0  0  0  0  0  0  0  0  0  0  0
   39.6740   32.2230   39.0210 C   0  0  0  0  0  0  0  0  0  0  0  0
   39.8010   33.1520   40.0330 C   0  0  0  0  0  0  0  0  0  0  0  0
   40.7550   34.1150   39.8910 N   0  0  0  0  0  0  0  0  0  0  0  0
   41.5360   34.1610   38.8150 C   0  0  0  0  0  0  0  0  0  0  0  0
   41.4300   33.2800   37.8340 N   0  0  0  0  0  0  0  0  0  0  0  0
   40.3980   31.5670   37.1210 H   0  0  0  0  0  0  0  0  0  0  0  0
   39.1880   33.1520   40.9180 H   0  0  0  0  0  0  0  0  0  0  0  0
   42.3040   34.9190   38.6740 H   0  0  0  0  0  0  0  0  0  0  0  0
  1  3  1  0  0  0  0
  1  6  1  0  0  0  0
  2  1  1  0  0  0  0
  4  5  1  0  0  0  0
  5  6  2  0  0  0  0
  5 12  1  0  0  0  0
  6  7  1  0  0  0  0
  7  8  1  0  0  0  0
  7  9  2  0  0  0  0
  9 10  1  0  0  0  0
 11  9  1  0  0  0  0
 12 11  2  0  0  0  0
 13  1  1  0  0  0  0
 14 15  1  0  0  0  0
 15 13  1  0  0  0  0
 15 16  2  0  0  0  0
 16 21  1  0  0  0  0
 17 16  1  0  0  0  0
 18 17  2  0  0  0  0
 19 14  2  0  0  0  0
 19 18  1  0  0  0  0
 20 14  1  0  0  0  0
 22 18  1  0  0  0  0
M  END
>  <minimizedAffinity>
-4.3155632

$$$$

 OpenBabel03252503003D

 22 23  0  0  0  0  0  0  0  0999 V2000
   36.7790   28.7350   41.7560 C   0  0  0  0  0  0  0  0  0  0  0  0
   36.2690   29.1430   40.8430 H   0  0  0  0  0  0  0  0  0  0  0  0
   36.0950   28.9830   42.6080 H   0  0  0  0  0  0  0  0  0  0  0  0
   36.3220   28.1040   38.8260 Br  0  0  0  0  0  0  0  0  0  0  0  0
   36.6440   26.8930   40.2890 C   0  0  0  0  0  0  0  0  0  0  0  0
   36.8450   27.2750   41.6200 C   0  0  0  0  0  0  0  0  0  0  0  0
   37.0630   26.2610   42.5300 C   0  0  0  0  0  0  0  0  0  0  0  0
   37.2080   26.6700   43.5290 H   0  0  0  0  0  0  0  0  0  0  0  0
   37.0800   24.9500   42.1430 C   0  0  0  0  0  0  0  0  0  0  0  0
   37.2590   24.2220   42.9340 H   0  0  0  0  0  0  0  0  0  0  0  0
   36.8860   24.5490   40.8450 C   0  0  0  0  0  3  0  0  0  0  0  0
   36.6660   25.5610   39.9230 C   0  0  0  0  0  3  0  0  0  0  0  0
   38.3330   29.5580   42.0270 S   0  0  0  0  0  0  0  0  0  0  0  0
   37.1790   31.5670   40.5100 C   0  0  0  0  0  0  0  0  0  0  0  0
   38.3010   31.1760   41.2220 C   0  0  0  0  0  0  0  0  0  0  0  0
   39.3880   32.0210   41.3160 C   0  0  0  0  0  0  0  0  0  0  0  0
   39.3070   33.2280   40.6910 N   0  0  0  0  0  0  0  0  0  0  0  0
   38.2190   33.5840   40.0130 C   0  0  0  0  0  0  0  0  0  0  0  0
   37.1660   32.7890   39.9100 N   0  0  0  0  0  0  0  0  0  0  0  0
   36.3320   30.9100   40.4390 H   0  0  0  0  0  0  0  0  0  0  0  0
   40.2850   31.7730   41.8580 H   0  0  0  0  0  0  0  0  0  0  0  0
   38.1260   34.5420   39.5040 H   0  0  0  0  0  0  0  0  0  0  0  0
  1 13  1  0  0  0  0
  1  3  1  0  0  0  0
  2  1  1  0  0  0  0
  4  5  1  0  0  0  0
  5  6  1  0  0  0  0
  6  1  1  0  0  0  0
  6  7  2  0  0  0  0
  7  8  1  0  0  0  0
  9  7  1  0  0  0  0
  9 10  1  0  0  0  0
 11  9  2  0  0  0  0
 12  5  2  0  0  0  0
 12 11  1  0  0  0  0
 14 15  1  0  0  0  0
 15 16  2  0  0  0  0
 15 13  1  0  0  0  0
 16 21  1  0  0  0  0
 17 16  1  0  0  0  0
 18 17  2  0  0  0  0
 19 18  1  0  0  0  0
 19 14  2  0  0  0  0
 20 14  1  0  0  0  0
 22 18  1  0  0  0  0
M  END
>  <minimizedAffinity>
-4.28408384

$$$$

 OpenBabel03252503003D

 22 23  0  0  0  0  0  0  0  0999 V2000
   38.7390   27.1020   43.3500 C   0  0  0  0  0  0  0  0  0  0  0  0
   39.1390   26.7350   44.3320 H   0  0  0  0  0  0  0  0  0  0  0  0
   39.6270   27.5220   42.8110 H   0  0  0  0  0  0  0  0  0  0  0  0
   41.1270   25.3080   42.8350 Br  0  0  0  0  0  0  0  0  0  0  0  0
   39.2880   25.0530   42.3200 C   0  0  0  0  0  0  0  0  0  0  0  0
   38.2440   25.9410   42.6030 C   0  0  0  0  0  0  0  0  0  0  0  0
   36.9890   25.5850   42.1520 C   0  0  0  0  0  0  0  0  0  0  0  0
   36.2570   26.3420   42.4270 H   0  0  0  0  0  0  0  0  0  0  0  0
   36.7840   24.4220   41.4650 C   0  0  0  0  0  0  0  0  0  0  0  0
   35.7580   24.2280   41.1500 H   0  0  0  0  0  0  0  0  0  0  0  0
   37.7900   23.5340   41.1750 C   0  0  0  0  0  3  0  0  0  0  0  0
   39.0550   23.8830   41.6240 C   0  0  0  0  0  3  0  0  0  0  0  0
   37.5660   28.4170   43.6040 S   0  0  0  0  0  0  0  0  0  0  0  0
   36.8180   30.1370   41.5660 C   0  0  0  0  0  0  0  0  0  0  0  0
   37.8550   29.7190   42.3840 C   0  0  0  0  0  0  0  0  0  0  0  0
   39.1020   30.2980   42.2690 C   0  0  0  0  0  0  0  0  0  0  0  0
   39.2610   31.2760   41.3330 N   0  0  0  0  0  0  0  0  0  0  0  0
   38.2510   31.6610   40.5580 C   0  0  0  0  0  0  0  0  0  0  0  0
   37.0480   31.1190   40.6530 N   0  0  0  0  0  0  0  0  0  0  0  0
   35.8470   29.6860   41.6580 H   0  0  0  0  0  0  0  0  0  0  0  0
   39.9440   30.0180   42.8780 H   0  0  0  0  0  0  0  0  0  0  0  0
   38.3490   32.4400   39.8040 H   0  0  0  0  0  0  0  0  0  0  0  0
  1 13  1  0  0  0  0
  1  2  1  0  0  0  0
  3  1  1  0  0  0  0
  5  6  1  0  0  0  0
  5  4  1  0  0  0  0
  6  1  1  0  0  0  0
  7  8  1  0  0  0  0
  7  6  2  0  0  0  0
  9  7  1  0  0  0  0
 10  9  1  0  0  0  0
 11  9  2  0  0  0  0
 11 12  1  0  0  0  0
 12  5  2  0  0  0  0
 14 20  1  0  0  0  0
 14 15  1  0  0  0  0
 15 13  1  0  0  0  0
 16 15  2  0  0  0  0
 16 21  1  0  0  0  0
 17 16  1  0  0  0  0
 18 19  1  0  0  0  0
 18 17  2  0  0  0  0
 19 14  2  0  0  0  0
 22 18  1  0  0  0  0
M  END
>  <minimizedAffinity>
-4.28060579

$$$$

 OpenBabel03252503003D

 22 23  0  0  0  0  0  0  0  0999 V2000
   39.9020   30.1910   42.5560 C   0  0  0  0  0  0  0  0  0  0  0  0
   39.5720   31.0630   43.1800 H   0  0  0  0  0  0  0  0  0  0  0  0
   40.8330   29.8120   43.0520 H   0  0  0  0  0  0  0  0  0  0  0  0
   41.3010   27.6260   43.3600 Br  0  0  0  0  0  0  0  0  0  0  0  0
   39.4300   27.9270   43.0170 C   0  0  0  0  0  0  0  0  0  0  0  0
   38.8690   29.1540   42.6480 C   0  0  0  0  0  0  0  0  0  0  0  0
   37.5030   29.1750   42.4470 C   0  0  0  0  0  0  0  0  0  0  0  0
   37.1750   30.1750   42.1660 H   0  0  0  0  0  0  0  0  0  0  0  0
   36.7440   28.0500   42.6020 C   0  0  0  0  0  0  0  0  0  0  0  0
   35.6750   28.1660   42.4200 H   0  0  0  0  0  0  0  0  0  0  0  0
   37.2710   26.8340   42.9630 C   0  0  0  0  0  3  0  0  0  0  0  0
   38.6420   26.8030   43.1680 C   0  0  0  0  0  3  0  0  0  0  0  0
   40.3220   30.7230   40.9100 S   0  0  0  0  0  0  0  0  0  0  0  0
   38.0390   31.5150   39.5580 C   0  0  0  0  0  0  0  0  0  0  0  0
   39.1020   31.9300   40.3420 C   0  0  0  0  0  0  0  0  0  0  0  0
   39.2280   33.2600   40.6890 C   0  0  0  0  0  0  0  0  0  0  0  0
   38.2790   34.1240   40.2330 N   0  0  0  0  0  0  0  0  0  0  0  0
   37.2650   33.7040   39.4820 C   0  0  0  0  0  0  0  0  0  0  0  0
   37.1260   32.4340   39.1380 N   0  0  0  0  0  0  0  0  0  0  0  0
   37.9400   30.4790   39.2900 H   0  0  0  0  0  0  0  0  0  0  0  0
   40.0310   33.6400   41.2980 H   0  0  0  0  0  0  0  0  0  0  0  0
   36.4920   34.3710   39.1050 H   0  0  0  0  0  0  0  0  0  0  0  0
  1  6  1  0  0  0  0
  1  3  1  0  0  0  0
  1  2  1  0  0  0  0
  5 12  1  0  0  0  0
  5  4  1  0  0  0  0
  6  5  2  0  0  0  0
  7  9  2  0  0  0  0
  7  6  1  0  0  0  0
  8  7  1  0  0  0  0
  9 11  1  0  0  0  0
 10  9  1  0  0  0  0
 11 12  2  0  0  0  0
 13  1  1  0  0  0  0
 14 15  1  0  0  0  0
 15 16  2  0  0  0  0
 15 13  1  0  0  0  0
 16 21  1  0  0  0  0
 17 16  1  0  0  0  0
 18 17  2  0  0  0  0
 19 18  1  0  0  0  0
 19 14  2  0  0  0  0
 20 14  1  0  0  0  0
 22 18  1  0  0  0  0
M  END
>  <minimizedAffinity>
-4.2595973

$$$$

 OpenBabel03252503003D

 22 23  0  0  0  0  0  0  0  0999 V2000
   37.8140   29.0210   42.7070 C   0  0  0  0  0  0  0  0  0  0  0  0
   37.3840   29.2510   43.7170 H   0  0  0  0  0  0  0  0  0  0  0  0
   38.8630   29.4130   42.7380 H   0  0  0  0  0  0  0  0  0  0  0  0
   40.7350   28.2260   42.8540 Br  0  0  0  0  0  0  0  0  0  0  0  0
   39.1860   27.1050   42.6180 C   0  0  0  0  0  0  0  0  0  0  0  0
   37.8650   27.5620   42.5610 C   0  0  0  0  0  0  0  0  0  0  0  0
   36.8850   26.6050   42.3880 C   0  0  0  0  0  0  0  0  0  0  0  0
   35.9000   27.0690   42.3600 H   0  0  0  0  0  0  0  0  0  0  0  0
   37.1980   25.2800   42.2790 C   0  0  0  0  0  0  0  0  0  0  0  0
   36.3550   24.6000   42.1440 H   0  0  0  0  0  0  0  0  0  0  0  0
   38.4850   24.8050   42.3320 C   0  0  0  0  0  3  0  0  0  0  0  0
   39.4770   25.7600   42.5050 C   0  0  0  0  0  3  0  0  0  0  0  0
   36.9270   29.8950   41.4340 S   0  0  0  0  0  0  0  0  0  0  0  0
   37.2580   32.3460   40.1890 C   0  0  0  0  0  0  0  0  0  0  0  0
   37.8650   31.3640   40.9540 C   0  0  0  0  0  0  0  0  0  0  0  0
   39.1790   31.5080   41.3480 C   0  0  0  0  0  0  0  0  0  0  0  0
   39.8360   32.6370   40.9570 N   0  0  0  0  0  0  0  0  0  0  0  0
   39.2330   33.5680   40.2220 C   0  0  0  0  0  0  0  0  0  0  0  0
   37.9740   33.4480   39.8340 N   0  0  0  0  0  0  0  0  0  0  0  0
   36.2330   32.2340   39.8840 H   0  0  0  0  0  0  0  0  0  0  0  0
   39.7020   30.7810   41.9450 H   0  0  0  0  0  0  0  0  0  0  0  0
   39.7320   34.4790   39.8970 H   0  0  0  0  0  0  0  0  0  0  0  0
  1  3  1  0  0  0  0
  1  2  1  0  0  0  0
  5  4  1  0  0  0  0
  6  5  1  0  0  0  0
  6  1  1  0  0  0  0
  7  6  2  0  0  0  0
  8  7  1  0  0  0  0
  9 11  2  0  0  0  0
  9  7  1  0  0  0  0
 10  9  1  0  0  0  0
 11 12  1  0  0  0  0
 12  5  2  0  0  0  0
 13  1  1  0  0  0  0
 14 15  1  0  0  0  0
 15 16  2  0  0  0  0
 15 13  1  0  0  0  0
 16 21  1  0  0  0  0
 17 16  1  0  0  0  0
 18 17  2  0  0  0  0
 19 14  2  0  0  0  0
 19 18  1  0  0  0  0
 20 14  1  0  0  0  0
 22 18  1  0  0  0  0
M  END
>  <minimizedAffinity>
-4.193151

$$$$

 OpenBabel03252503003D

 22 23  0  0  0  0  0  0  0  0999 V2000
   37.4620   29.1200   42.7430 C   0  0  0  0  0  0  0  0  0  0  0  0
   36.7700   29.1220   43.6260 H   0  0  0  0  0  0  0  0  0  0  0  0
   37.8660   30.1640   42.6850 H   0  0  0  0  0  0  0  0  0  0  0  0
   40.0260   30.6600   42.2530 Br  0  0  0  0  0  0  0  0  0  0  0  0
   39.8010   28.8400   42.8400 C   0  0  0  0  0  0  0  0  0  0  0  0
   38.5700   28.2070   43.0410 C   0  0  0  0  0  0  0  0  0  0  0  0
   38.6110   26.8940   43.4670 C   0  0  0  0  0  0  0  0  0  0  0  0
   37.6020   26.5030   43.5910 H   0  0  0  0  0  0  0  0  0  0  0  0
   39.7980   26.2520   43.6790 C   0  0  0  0  0  0  0  0  0  0  0  0
   39.7270   25.2170   44.0140 H   0  0  0  0  0  0  0  0  0  0  0  0
   41.0190   26.8510   43.4900 C   0  0  0  0  0  3  0  0  0  0  0  0
   40.9880   28.1690   43.0620 C   0  0  0  0  0  3  0  0  0  0  0  0
   36.5620   28.7840   41.2440 S   0  0  0  0  0  0  0  0  0  0  0  0
   36.7530   31.4060   40.3740 C   0  0  0  0  0  0  0  0  0  0  0  0
   36.9190   30.0740   40.0300 C   0  0  0  0  0  0  0  0  0  0  0  0
   37.3570   29.7370   38.7660 C   0  0  0  0  0  0  0  0  0  0  0  0
   37.6120   30.7510   37.8930 N   0  0  0  0  0  0  0  0  0  0  0  0
   37.4460   32.0230   38.2450 C   0  0  0  0  0  0  0  0  0  0  0  0
   37.0270   32.3680   39.4510 N   0  0  0  0  0  0  0  0  0  0  0  0
   36.4140   31.6680   41.3590 H   0  0  0  0  0  0  0  0  0  0  0  0
   37.5080   28.7210   38.4430 H   0  0  0  0  0  0  0  0  0  0  0  0
   37.6430   32.8540   37.5690 H   0  0  0  0  0  0  0  0  0  0  0  0
  1  6  1  0  0  0  0
  1  2  1  0  0  0  0
  3  1  1  0  0  0  0
  4  5  1  0  0  0  0
  5  6  2  0  0  0  0
  5 12  1  0  0  0  0
  6  7  1  0  0  0  0
  7  8  1  0  0  0  0
  7  9  2  0  0  0  0
  9 10  1  0  0  0  0
 11  9  1  0  0  0  0
 12 11  2  0  0  0  0
 13  1  1  0  0  0  0
 14 20  1  0  0  0  0
 15 14  1  0  0  0  0
 15 13  1  0  0  0  0
 16 15  2  0  0  0  0
 17 18  2  0  0  0  0
 17 16  1  0  0  0  0
 18 19  1  0  0  0  0
 19 14  2  0  0  0  0
 21 16  1  0  0  0  0
 22 18  1  0  0  0  0
M  END
>  <minimizedAffinity>
-4.13916159

$$$$

 OpenBabel03252503003D

 22 23  0  0  0  0  0  0  0  0999 V2000
   36.6160   27.0150   38.6700 C   0  0  0  0  0  0  0  0  0  0  0  0
   37.6170   27.4230   38.3680 H   0  0  0  0  0  0  0  0  0  0  0  0
   36.3650   26.2490   37.8910 H   0  0  0  0  0  0  0  0  0  0  0  0
   35.8700   24.1110   38.2280 Br  0  0  0  0  0  0  0  0  0  0  0  0
   36.4530   24.9780   39.8470 C   0  0  0  0  0  0  0  0  0  0  0  0
   36.7780   26.3340   39.9590 C   0  0  0  0  0  0  0  0  0  0  0  0
   37.1780   26.7740   41.2050 C   0  0  0  0  0  0  0  0  0  0  0  0
   37.4060   27.8390   41.1780 H   0  0  0  0  0  0  0  0  0  0  0  0
   37.2500   25.9220   42.2700 C   0  0  0  0  0  0  0  0  0  0  0  0
   37.5760   26.3630   43.2130 H   0  0  0  0  0  0  0  0  0  0  0  0
   36.9360   24.5880   42.1870 C   0  0  0  0  0  3  0  0  0  0  0  0
   36.5340   24.1360   40.9390 C   0  0  0  0  0  3  0  0  0  0  0  0
   35.3770   28.2920   38.6180 S   0  0  0  0  0  0  0  0  0  0  0  0
   36.7760   30.6560   38.2670 C   0  0  0  0  0  0  0  0  0  0  0  0
   36.1030   29.8520   39.1720 C   0  0  0  0  0  0  0  0  0  0  0  0
   35.9870   30.2430   40.4900 C   0  0  0  0  0  0  0  0  0  0  0  0
   36.5530   31.4290   40.8500 N   0  0  0  0  0  0  0  0  0  0  0  0
   37.1940   32.1860   39.9640 C   0  0  0  0  0  0  0  0  0  0  0  0
   37.3170   31.8290   38.6960 N   0  0  0  0  0  0  0  0  0  0  0  0
   36.8650   30.3520   37.2400 H   0  0  0  0  0  0  0  0  0  0  0  0
   35.4740   29.6620   41.2380 H   0  0  0  0  0  0  0  0  0  0  0  0
   37.6550   33.1380   40.2230 H   0  0  0  0  0  0  0  0  0  0  0  0
  1  6  1  0  0  0  0
  2  1  1  0  0  0  0
  3  1  1  0  0  0  0
  4  5  1  0  0  0  0
  5  6  2  0  0  0  0
  5 12  1  0  0  0  0
  6  7  1  0  0  0  0
  7  9  2  0  0  0  0
  8  7  1  0  0  0  0
  9 10  1  0  0  0  0
 11  9  1  0  0  0  0
 12 11  2  0  0  0  0
 13  1  1  0  0  0  0
 13 15  1  0  0  0  0
 14 19  2  0  0  0  0
 14 15  1  0  0  0  0
 15 16  2  0  0  0  0
 16 17  1  0  0  0  0
 16 21  1  0  0  0  0
 18 22  1  0  0  0  0
 18 17  2  0  0  0  0
 19 18  1  0  0  0  0
 20 14  1  0  0  0  0
M  END
>  <minimizedAffinity>
-4.06697845

$$$$
