
 OpenBabel03252503163D

 36 39  0  0  0  0  0  0  0  0999 V2000
   45.5070   34.6090   41.8050 C   0  0  0  0  0  0  0  0  0  0  0  0
   46.6890   34.9050   41.4230 O   0  0  0  0  0  0  0  0  0  0  0  0
   44.4120   34.1900   40.8730 C   0  0  0  0  0  0  0  0  0  0  0  0
   43.0600   34.2610   41.1380 C   0  0  0  0  0  0  0  0  0  0  0  0
   42.4610   33.7830   40.0300 N   0  0  0  0  0  0  0  0  0  0  0  0
   43.4050   33.4370   39.1330 C   0  0  0  0  0  0  0  0  0  0  0  0
   44.6170   33.6870   39.6490 N   0  0  0  0  0  0  0  0  0  0  0  0
   43.2860   32.8860   37.8170 N   0  0  0  0  0  0  0  0  0  0  0  0
   42.5700   34.6140   42.0180 H   0  0  0  0  0  0  0  0  0  0  0  0
   43.8940   32.0750   37.5520 H   0  0  0  0  0  0  0  0  0  0  0  0
   42.5680   33.3590   37.1980 H   0  0  0  0  0  0  0  0  0  0  0  0
   41.1950   31.1600   41.1130 Br  0  0  0  0  0  0  0  0  0  0  0  0
   40.3040   32.5340   40.1460 C   0  0  0  0  0  0  0  0  0  0  0  0
   41.0680   33.6290   39.7550 C   0  0  0  0  0  0  0  0  0  0  0  0
   40.4830   34.6630   39.0500 C   0  0  0  0  0  0  0  0  0  0  0  0
   41.0240   35.5390   38.7180 H   0  0  0  0  0  0  0  0  0  0  0  0
   39.1410   34.5900   38.7440 C   0  0  0  0  0  0  0  0  0  0  0  0
   38.6120   35.3650   38.1930 H   0  0  0  0  0  0  0  0  0  0  0  0
   38.3420   33.5120   39.1180 C   0  0  0  0  0  3  0  0  0  0  0  0
   38.9590   32.4790   39.8310 C   0  0  0  0  0  3  0  0  0  0  0  0
   44.6950   35.8570   43.7470 C   0  0  0  0  0  0  0  0  0  0  0  0
   45.2750   34.6980   43.2000 C   0  0  0  0  0  0  0  0  0  0  0  0
   45.5760   33.7150   44.1130 C   0  0  0  0  0  0  0  0  0  0  0  0
   45.3310   33.8560   45.4300 N   0  0  0  0  0  0  0  0  0  0  0  0
   44.7700   34.9940   45.9060 C   0  0  0  0  0  0  0  0  0  0  0  0
   44.4560   35.9860   45.0620 N   0  0  0  0  0  0  0  0  0  0  0  0
   44.4160   36.6970   43.1210 H   0  0  0  0  0  0  0  0  0  0  0  0
   44.5980   35.0500   46.9700 H   0  0  0  0  0  0  0  0  0  0  0  0
   46.1660   32.5120   43.6520 C   0  0  0  0  0  0  0  0  0  0  0  0
   47.4390   32.0630   43.4930 C   0  0  0  0  0  0  0  0  0  0  0  0
   47.6970   30.8590   43.0280 C   0  0  0  0  0  0  0  0  0  0  0  0
   46.6460   30.0730   42.7080 C   0  0  0  0  0  0  0  0  0  0  0  0
   45.2050   31.1190   43.0970 S   0  0  0  0  0  0  0  0  0  0  0  0
   48.2180   32.7940   43.7870 H   0  0  0  0  0  0  0  0  0  0  0  0
   48.6780   30.4280   42.8720 H   0  0  0  0  0  0  0  0  0  0  0  0
   46.5690   29.0440   42.3060 H   0  0  0  0  0  0  0  0  0  0  0  0
  1 22  1  0  0  0  0
  2  1  2  0  0  0  0
  3  4  2  0  0  0  0
  3  1  1  0  0  0  0
  4  9  1  0  0  0  0
  5  4  1  0  0  0  0
  6  7  2  0  0  0  0
  6  5  1  0  0  0  0
  7  3  1  0  0  0  0
  8  6  1  0  0  0  0
 10  8  1  0  0  0  0
 11  8  1  0  0  0  0
 13 12  1  0  0  0  0
 14  5  1  0  0  0  0
 14 13  2  0  0  0  0
 15 14  1  0  0  0  0
 16 15  1  0  0  0  0
 17 15  2  0  0  0  0
 17 19  1  0  0  0  0
 18 17  1  0  0  0  0
 19 20  2  0  0  0  0
 20 13  1  0  0  0  0
 21 26  1  0  0  0  0
 22 21  2  0  0  0  0
 22 23  1  0  0  0  0
 23 24  2  0  0  0  0
 24 25  1  0  0  0  0
 25 28  1  0  0  0  0
 26 25  2  0  0  0  0
 27 21  1  0  0  0  0
 29 23  1  0  0  0  0
 30 29  2  0  0  0  0
 30 34  1  0  0  0  0
 31 30  1  0  0  0  0
 32 31  2  0  0  0  0
 32 33  1  0  0  0  0
 33 29  1  0  0  0  0
 35 31  1  0  0  0  0
 36 32  1  0  0  0  0
M  END
>  <minimizedAffinity>
-5.89752102

>  <minimizedRMSD>
1.77909315

$$$$
