
 OpenBabel03252503433D

 34 36  0  0  1  0  0  0  0  0999 V2000
   44.9050   33.5960   43.1050 C   0  0  0  0  0  0  0  0  0  0  0  0
   45.6680   34.7600   42.9040 C   0  0  0  0  0  0  0  0  0  0  0  0
   47.0290   34.6760   43.1020 C   0  0  0  0  0  0  0  0  0  0  0  0
   47.5540   33.4970   43.4740 N   0  0  0  0  0  0  0  0  0  0  0  0
   46.8210   32.3970   43.6630 C   0  0  0  0  0  0  0  0  0  0  0  0
   45.4650   32.4090   43.4840 N   0  0  0  0  0  0  0  0  0  0  0  0
   43.8300   33.5450   42.9770 H   0  0  0  0  0  0  0  0  0  0  0  0
   47.5790   35.5840   42.9310 H   0  0  0  0  0  0  0  0  0  0  0  0
   47.4460   30.9060   45.5710 C   0  0  2  0  0  0  0  0  0  0  0  0
   47.5370   31.1830   44.0530 C   0  0  1  0  0  0  0  0  0  0  0  0
   47.0070   30.0160   43.5700 O   0  0  0  0  0  0  0  0  0  0  0  0
   47.5610   28.9840   44.2640 C   0  0  0  0  0  0  0  0  0  0  0  0
   48.1410   29.5330   45.5550 C   0  0  2  0  0  0  0  0  0  0  0  0
   48.0000   31.6430   46.1470 H   0  0  0  0  0  0  0  0  0  0  0  0
   48.6090   31.2420   43.7660 H   0  0  0  0  0  0  0  0  0  0  0  0
   48.3720   28.5490   43.6430 H   0  0  0  0  0  0  0  0  0  0  0  0
   46.8650   28.1650   44.5130 H   0  0  0  0  0  0  0  0  0  0  0  0
   49.2200   29.7310   45.4770 H   0  0  0  0  0  0  0  0  0  0  0  0
   46.1530   30.6800   45.9080 O   0  0  0  0  0  0  0  0  0  0  0  0
   45.9830   30.9190   46.8540 H   0  0  0  0  0  0  0  0  0  0  0  0
   47.8670   28.7910   46.6730 O   0  0  0  0  0  0  0  0  0  0  0  0
   48.6890   28.5740   47.1690 H   0  0  0  0  0  0  0  0  0  0  0  0
   44.8490   35.9180   42.4840 C   0  0  0  0  0  0  0  0  0  0  0  0
   43.7910   35.5950   42.4460 H   0  0  0  0  0  0  0  0  0  0  0  0
   45.1570   36.2730   41.4520 H   0  0  0  0  0  0  0  0  0  0  0  0
   44.4170   35.5670   45.6630 Br  0  0  0  0  0  0  0  0  0  0  0  0
   44.8470   37.1690   44.7330 C   0  0  0  0  0  0  0  0  0  0  0  0
   44.9930   37.0590   43.3700 C   0  0  0  0  0  0  0  0  0  0  0  0
   45.3220   38.2940   42.7940 C   0  0  0  0  0  0  0  0  0  0  0  0
   45.4670   38.3360   41.7030 H   0  0  0  0  0  0  0  0  0  0  0  0
   45.4950   39.4940   43.4260 C   0  0  0  0  0  0  0  0  0  0  0  0
   45.7490   40.3920   42.8850 H   0  0  0  0  0  0  0  0  0  0  0  0
   45.3280   39.5050   44.7950 C   0  0  0  0  0  3  0  0  0  0  0  0
   45.0040   38.3390   45.4400 C   0  0  0  0  0  3  0  0  0  0  0  0
  1  6  1  0  0  0  0
  2  3  1  0  0  0  0
  2  1  2  0  0  0  0
  3  4  2  0  0  0  0
  4  5  1  0  0  0  0
  5 10  1  0  0  0  0
  6  5  2  0  0  0  0
  7  1  1  0  0  0  0
  8  3  1  0  0  0  0
  9 19  1  0  0  0  0
  9 14  1  1  0  0  0
 10 15  1  6  0  0  0
 10  9  1  0  0  0  0
 11 10  1  0  0  0  0
 11 12  1  0  0  0  0
 12 17  1  0  0  0  0
 12 13  1  0  0  0  0
 13 18  1  6  0  0  0
 13  9  1  0  0  0  0
 13 21  1  0  0  0  0
 16 12  1  0  0  0  0
 19 20  1  0  0  0  0
 21 22  1  0  0  0  0
 23  2  1  0  0  0  0
 23 28  1  0  0  0  0
 24 23  1  0  0  0  0
 25 23  1  0  0  0  0
 27 34  1  0  0  0  0
 27 26  1  0  0  0  0
 28 27  2  0  0  0  0
 29 28  1  0  0  0  0
 29 31  2  0  0  0  0
 30 29  1  0  0  0  0
 31 33  1  0  0  0  0
 32 31  1  0  0  0  0
 33 34  2  0  0  0  0
M  END
>  <minimizedAffinity>
-1.49491167

>  <minimizedRMSD>
3.03556561

$$$$
