
 OpenBabel03252500393D

 21 22  0  0  0  0  0  0  0  0999 V2000
   45.3460   35.7640   42.7290 C   0  0  0  0  0  0  0  0  0  0  0  0
   45.1530   36.8390   42.9340 H   0  0  0  0  0  0  0  0  0  0  0  0
   46.3730   35.6880   42.3220 H   0  0  0  0  0  0  0  0  0  0  0  0
   45.3440   35.0680   44.0460 C   0  0  0  0  0  0  0  0  0  0  0  0
   46.1730   33.9470   44.1910 C   0  0  0  0  0  0  0  0  0  0  0  0
   46.1930   33.2660   45.4110 C   0  0  0  0  0  0  0  0  0  0  0  0
   45.3950   33.7400   46.3960 N   0  0  0  0  0  0  0  0  0  0  0  0
   44.5930   34.8330   46.2410 C   0  0  0  0  0  0  0  0  0  0  0  0
   44.5780   35.4830   45.0660 N   0  0  0  0  0  0  0  0  0  0  0  0
   46.7990   33.6140   43.3480 H   0  0  0  0  0  0  0  0  0  0  0  0
   46.8270   32.3940   45.5550 H   0  0  0  0  0  0  0  0  0  0  0  0
   43.9560   35.1990   47.0480 H   0  0  0  0  0  0  0  0  0  0  0  0
   46.7870   34.0110   40.5220 Br  0  0  0  0  0  0  0  0  0  0  0  0
   44.9200   34.3700   40.7720 C   0  0  0  0  0  0  0  0  0  0  0  0
   44.3920   35.1530   41.7770 C   0  0  0  0  0  0  0  0  0  0  0  0
   43.0040   35.3210   41.8290 C   0  0  0  0  0  0  0  0  0  0  0  0
   42.6300   35.9520   42.6460 H   0  0  0  0  0  0  0  0  0  0  0  0
   42.1460   34.7380   40.9240 C   0  0  0  0  0  0  0  0  0  0  0  0
   41.0630   34.8920   40.9960 H   0  0  0  0  0  0  0  0  0  0  0  0
   42.7240   33.9560   39.9260 C   0  0  0  0  0  3  0  0  0  0  0  0
   44.0880   33.7630   39.8360 C   0  0  0  0  0  3  0  0  0  0  0  0
  1  2  1  0  0  0  0
  1  4  1  0  0  0  0
  3  1  1  0  0  0  0
  4  5  2  0  0  0  0
  4  9  1  0  0  0  0
  5  6  1  0  0  0  0
  6 11  1  0  0  0  0
  6  7  2  0  0  0  0
  8  7  1  0  0  0  0
  8 12  1  0  0  0  0
  9  8  2  0  0  0  0
 10  5  1  0  0  0  0
 13 14  1  0  0  0  0
 14 15  1  0  0  0  0
 15 16  2  0  0  0  0
 15  1  1  0  0  0  0
 16 17  1  0  0  0  0
 18 19  1  0  0  0  0
 18 16  1  0  0  0  0
 20 18  2  0  0  0  0
 21 20  1  0  0  0  0
 21 14  2  0  0  0  0
M  END
>  <minimizedAffinity>
-4.21047497

>  <minimizedRMSD>
1.23314798

$$$$
