
 OpenBabel03252500393D

 21 22  0  0  0  0  0  0  0  0999 V2000
   45.3190   35.7590   42.7310 C   0  0  0  0  0  0  0  0  0  0  0  0
   45.1840   36.8410   42.9440 H   0  0  0  0  0  0  0  0  0  0  0  0
   46.3250   35.6370   42.2860 H   0  0  0  0  0  0  0  0  0  0  0  0
   45.3330   35.0590   44.0460 C   0  0  0  0  0  0  0  0  0  0  0  0
   46.1650   33.9390   44.1780 C   0  0  0  0  0  0  0  0  0  0  0  0
   46.2010   33.2550   45.3960 C   0  0  0  0  0  0  0  0  0  0  0  0
   45.4140   33.7250   46.3910 N   0  0  0  0  0  0  0  0  0  0  0  0
   44.6070   34.8170   46.2490 C   0  0  0  0  0  0  0  0  0  0  0  0
   44.5780   35.4710   45.0760 N   0  0  0  0  0  0  0  0  0  0  0  0
   46.7820   33.6090   43.3270 H   0  0  0  0  0  0  0  0  0  0  0  0
   46.8370   32.3830   45.5300 H   0  0  0  0  0  0  0  0  0  0  0  0
   43.9800   35.1800   47.0640 H   0  0  0  0  0  0  0  0  0  0  0  0
   46.5940   33.9440   40.4740 Br  0  0  0  0  0  0  0  0  0  0  0  0
   44.7570   34.3910   40.7900 C   0  0  0  0  0  0  0  0  0  0  0  0
   44.3030   35.1960   41.8140 C   0  0  0  0  0  0  0  0  0  0  0  0
   42.9270   35.4290   41.9150 C   0  0  0  0  0  0  0  0  0  0  0  0
   42.6130   36.0750   42.7460 H   0  0  0  0  0  0  0  0  0  0  0  0
   42.0110   34.8910   41.0420 C   0  0  0  0  0  0  0  0  0  0  0  0
   40.9390   35.0950   41.1530 H   0  0  0  0  0  0  0  0  0  0  0  0
   42.5140   34.0830   40.0230 C   0  0  0  0  0  3  0  0  0  0  0  0
   43.8640   33.8270   39.8830 C   0  0  0  0  0  3  0  0  0  0  0  0
  1  2  1  0  0  0  0
  1  4  1  0  0  0  0
  3  1  1  0  0  0  0
  4  5  2  0  0  0  0
  4  9  1  0  0  0  0
  5  6  1  0  0  0  0
  6 11  1  0  0  0  0
  6  7  2  0  0  0  0
  8  7  1  0  0  0  0
  8 12  1  0  0  0  0
  9  8  2  0  0  0  0
 10  5  1  0  0  0  0
 13 14  1  0  0  0  0
 14 15  1  0  0  0  0
 15 16  2  0  0  0  0
 15  1  1  0  0  0  0
 16 17  1  0  0  0  0
 18 19  1  0  0  0  0
 18 16  1  0  0  0  0
 20 18  2  0  0  0  0
 21 20  1  0  0  0  0
 21 14  2  0  0  0  0
M  END
>  <minimizedAffinity>
-4.20941305

>  <minimizedRMSD>
1.0113169

$$$$
