
 OpenBabel03252508033D

 42 45  0  0  1  0  0  0  0  0999 V2000
   42.0190   33.3120   41.0970 C   0  0  0  0  0  0  0  0  0  0  0  0
   42.7850   34.4230   41.3070 C   0  0  0  0  0  0  0  0  0  0  0  0
   42.1390   35.6760   41.3000 C   0  0  0  0  0  0  0  0  0  0  0  0
   40.7900   35.8320   41.0950 C   0  0  0  0  0  0  0  0  0  0  0  0
   40.0290   34.7110   40.8860 C   0  0  0  0  0  0  0  0  0  0  0  0
   40.6480   33.4960   40.8920 C   0  0  0  0  0  0  0  0  0  0  0  0
   42.6640   36.6130   41.4480 H   0  0  0  0  0  0  0  0  0  0  0  0
   40.3100   36.7920   41.0910 H   0  0  0  0  0  0  0  0  0  0  0  0
   38.9630   34.7330   40.7170 H   0  0  0  0  0  0  0  0  0  0  0  0
   40.0320   32.5970   40.7240 H   0  0  0  0  0  0  0  0  0  0  0  0
   42.6450   31.7510   41.1710 S   0  0  0  0  0  0  0  0  0  0  0  0
   41.4820   30.9500   40.5040 O   0  0  0  0  0  0  0  0  0  0  0  0
   42.7840   31.2450   42.5590 O   0  0  0  0  0  0  0  0  0  0  0  0
   43.2440   28.8410   42.1450 Br  0  0  0  0  0  0  0  0  0  0  0  0
   43.9620   29.5940   40.5150 C   0  0  0  0  0  0  0  0  0  0  0  0
   43.6880   30.9380   40.1290 C   0  0  0  0  0  0  0  0  0  0  0  0
   44.3180   31.2260   38.9250 C   0  0  0  0  0  0  0  0  0  0  0  0
   44.0480   32.2550   38.6200 H   0  0  0  0  0  0  0  0  0  0  0  0
   45.1190   30.4840   38.0890 C   0  0  0  0  0  0  0  0  0  0  0  0
   45.5010   30.9170   37.2030 H   0  0  0  0  0  0  0  0  0  0  0  0
   45.2650   29.2370   38.6260 C   0  0  0  0  0  3  0  0  0  0  0  0
   44.7420   28.7330   39.7850 C   0  0  0  0  0  3  0  0  0  0  0  0
   44.2170   34.3680   41.5340 C   0  0  0  0  0  0  0  0  0  0  0  0
   45.0860   34.2590   40.6180 O   0  0  0  0  0  0  0  0  0  0  0  0
   44.5730   34.4530   42.9310 C   0  0  0  0  0  0  0  0  0  0  0  0
   44.3020   35.7150   43.5630 C   0  0  0  0  0  0  0  0  0  0  0  0
   44.6320   35.8200   44.9030 C   0  0  0  0  0  0  0  0  0  0  0  0
   45.1810   34.7450   45.5220 N   0  0  0  0  0  0  0  0  0  0  0  0
   45.4200   33.5610   44.8710 C   0  0  0  0  0  0  0  0  0  0  0  0
   45.1160   33.4550   43.6240 N   0  0  0  0  0  0  0  0  0  0  0  0
   43.8810   36.5910   43.1510 H   0  0  0  0  0  0  0  0  0  0  0  0
   44.4830   36.7080   45.4960 H   0  0  0  0  0  0  0  0  0  0  0  0
   46.0120   32.4420   45.6300 C   0  0  1  0  0  0  0  0  0  0  0  0
   46.9670   32.7460   46.7640 C   0  0  0  0  0  0  0  0  0  0  0  0
   45.5520   32.3300   47.0330 C   0  0  1  0  0  0  0  0  0  0  0  0
   46.1380   31.4960   45.0790 H   0  0  0  0  0  0  0  0  0  0  0  0
   47.2730   33.8020   46.8380 H   0  0  0  0  0  0  0  0  0  0  0  0
   47.7210   31.9470   46.9460 H   0  0  0  0  0  0  0  0  0  0  0  0
   45.3530   31.3340   47.4560 H   0  0  0  0  0  0  0  0  0  0  0  0
   44.7670   33.3980   47.6330 N   0  0  0  0  0  0  0  0  0  0  0  0
   45.2180   33.8040   48.4600 H   0  0  0  0  0  0  0  0  0  0  0  0
   43.7740   33.1100   47.7650 H   0  0  0  0  0  0  0  0  0  0  0  0
  1 11  1  0  0  0  0
  1  2  1  0  0  0  0
  2 23  1  0  0  0  0
  3  2  2  0  0  0  0
  3  7  1  0  0  0  0
  4  3  1  0  0  0  0
  5  6  1  0  0  0  0
  5  4  2  0  0  0  0
  6  1  2  0  0  0  0
  8  4  1  0  0  0  0
  9  5  1  0  0  0  0
 10  6  1  0  0  0  0
 11 13  2  0  0  0  0
 12 11  2  0  0  0  0
 15 14  1  0  0  0  0
 16 15  1  0  0  0  0
 16 11  1  0  0  0  0
 17 16  2  0  0  0  0
 18 17  1  0  0  0  0
 19 21  2  0  0  0  0
 19 17  1  0  0  0  0
 20 19  1  0  0  0  0
 21 22  1  0  0  0  0
 22 15  2  0  0  0  0
 23 25  1  0  0  0  0
 24 23  2  0  0  0  0
 25 26  2  0  0  0  0
 25 30  1  0  0  0  0
 26 27  1  0  0  0  0
 27 32  1  0  0  0  0
 27 28  2  0  0  0  0
 29 28  1  0  0  0  0
 29 33  1  0  0  0  0
 30 29  2  0  0  0  0
 31 26  1  0  0  0  0
 33 36  1  6  0  0  0
 33 34  1  0  0  0  0
 33 35  1  0  0  0  0
 34 37  1  0  0  0  0
 34 38  1  0  0  0  0
 34 35  1  0  0  0  0
 35 39  1  1  0  0  0
 35 40  1  0  0  0  0
 40 42  1  0  0  0  0
 40 41  1  0  0  0  0
M  END
>  <minimizedAffinity>
-5.74828148

>  <minimizedRMSD>
1.32038438

$$$$
