
 OpenBabel03242520533D

 27 28  0  0  0  0  0  0  0  0999 V2000
   45.8610   32.8940   46.3320 C   0  0  0  0  0  3  0  0  0  0  0  0
   45.3080   32.9110   47.5020 C   0  0  0  0  0  3  0  0  0  0  0  0
   44.5010   35.9310   44.7640 C   0  0  0  0  0  0  0  0  0  0  0  0
   45.2200   35.9810   43.5660 C   0  0  0  0  0  0  0  0  0  0  0  0
   46.1600   34.9850   43.2980 C   0  0  0  0  0  0  0  0  0  0  0  0
   46.3320   34.0040   44.2240 N   0  0  0  0  0  0  0  0  0  0  0  0
   45.6230   33.9870   45.3670 C   0  0  0  0  0  0  0  0  0  0  0  0
   44.7180   34.9390   45.6340 N   0  0  0  0  0  0  0  0  0  0  0  0
   43.7860   36.6990   44.9540 H   0  0  0  0  0  0  0  0  0  0  0  0
   45.1150   36.7260   42.8200 H   0  0  0  0  0  0  0  0  0  0  0  0
   46.9460   34.8950   42.1670 O   0  0  0  0  0  0  0  0  0  0  0  0
   46.3960   34.2060   41.0490 C   0  0  0  0  0  0  0  0  0  0  0  0
   45.1380   34.7430   40.7700 F   0  0  0  0  0  0  0  0  0  0  0  0
   47.2490   34.4550   39.9600 F   0  0  0  0  0  0  0  0  0  0  0  0
   46.3250   32.8440   41.2740 F   0  0  0  0  0  0  0  0  0  0  0  0
   45.4830   31.8750   48.5480 C   0  0  0  0  0  0  0  0  0  0  0  0
   44.6710   31.1270   48.4910 H   0  0  0  0  0  0  0  0  0  0  0  0
   45.3950   32.4020   49.5320 H   0  0  0  0  0  0  0  0  0  0  0  0
   45.0790   29.1600   47.2630 Br  0  0  0  0  0  0  0  0  0  0  0  0
   46.7040   29.9710   47.8810 C   0  0  0  0  0  0  0  0  0  0  0  0
   46.8140   31.2230   48.4630 C   0  0  0  0  0  0  0  0  0  0  0  0
   48.0480   31.6900   48.8650 C   0  0  0  0  0  0  0  0  0  0  0  0
   47.9920   32.6870   49.3050 H   0  0  0  0  0  0  0  0  0  0  0  0
   49.1650   30.8960   48.6800 C   0  0  0  0  0  0  0  0  0  0  0  0
   50.0910   31.3270   49.0170 H   0  0  0  0  0  0  0  0  0  0  0  0
   49.0540   29.6510   48.1010 C   0  0  0  0  0  3  0  0  0  0  0  0
   47.8160   29.1520   47.6850 C   0  0  0  0  0  3  0  0  0  0  0  0
  1  2  2  0  0  0  0
  2 16  1  0  0  0  0
  3  9  1  0  0  0  0
  3  8  1  0  0  0  0
  4  3  2  0  0  0  0
  5  4  1  0  0  0  0
  5  6  2  0  0  0  0
  6  7  1  0  0  0  0
  7  8  2  0  0  0  0
  7  1  1  0  0  0  0
 10  4  1  0  0  0  0
 11  5  1  0  0  0  0
 12 15  1  0  0  0  0
 12 11  1  0  0  0  0
 13 12  1  0  0  0  0
 14 12  1  0  0  0  0
 16 18  1  0  0  0  0
 17 16  1  0  0  0  0
 19 20  1  0  0  0  0
 20 21  1  0  0  0  0
 21 16  1  0  0  0  0
 21 22  2  0  0  0  0
 22 23  1  0  0  0  0
 24 22  1  0  0  0  0
 24 25  1  0  0  0  0
 26 24  2  0  0  0  0
 27 20  2  0  0  0  0
 27 26  1  0  0  0  0
M  END
>  <minimizedAffinity>
-5.63314152

>  <minimizedRMSD>
0.628509998

$$$$
