
 OpenBabel03252500403D

 21 22  0  0  0  0  0  0  0  0999 V2000
   36.2090   30.6520   40.9380 C   0  0  0  0  0  0  0  0  0  0  0  0
   35.1270   30.5280   41.1590 H   0  0  0  0  0  0  0  0  0  0  0  0
   36.5160   31.6310   41.3550 H   0  0  0  0  0  0  0  0  0  0  0  0
   36.9290   29.6020   41.7100 C   0  0  0  0  0  0  0  0  0  0  0  0
   38.2190   29.9010   42.1700 C   0  0  0  0  0  0  0  0  0  0  0  0
   38.9260   28.9380   42.8940 C   0  0  0  0  0  0  0  0  0  0  0  0
   38.3110   27.7530   43.1100 N   0  0  0  0  0  0  0  0  0  0  0  0
   37.0530   27.4740   42.6570 C   0  0  0  0  0  0  0  0  0  0  0  0
   36.3790   28.4050   41.9620 N   0  0  0  0  0  0  0  0  0  0  0  0
   38.6620   30.8870   41.9590 H   0  0  0  0  0  0  0  0  0  0  0  0
   39.9290   29.1400   43.2650 H   0  0  0  0  0  0  0  0  0  0  0  0
   36.5740   26.5120   42.8420 H   0  0  0  0  0  0  0  0  0  0  0  0
   37.8700   33.1720   39.9870 Br  0  0  0  0  0  0  0  0  0  0  0  0
   37.2600   31.6600   38.9800 C   0  0  0  0  0  0  0  0  0  0  0  0
   36.5370   30.6050   39.4960 C   0  0  0  0  0  0  0  0  0  0  0  0
   36.1630   29.5700   38.6330 C   0  0  0  0  0  0  0  0  0  0  0  0
   35.5900   28.7510   39.0880 H   0  0  0  0  0  0  0  0  0  0  0  0
   36.4850   29.5600   37.2940 C   0  0  0  0  0  0  0  0  0  0  0  0
   36.1740   28.7310   36.6470 H   0  0  0  0  0  0  0  0  0  0  0  0
   37.2150   30.6460   36.8170 C   0  0  0  0  0  3  0  0  0  0  0  0
   37.6050   31.6890   37.6320 C   0  0  0  0  0  3  0  0  0  0  0  0
  1  2  1  0  0  0  0
  1  3  1  0  0  0  0
  1  4  1  0  0  0  0
  4  9  2  0  0  0  0
  4  5  1  0  0  0  0
  5  6  2  0  0  0  0
  6  7  1  0  0  0  0
  6 11  1  0  0  0  0
  8 12  1  0  0  0  0
  8  7  2  0  0  0  0
  9  8  1  0  0  0  0
 10  5  1  0  0  0  0
 14 15  1  0  0  0  0
 14 13  1  0  0  0  0
 15  1  1  0  0  0  0
 16 17  1  0  0  0  0
 16 15  2  0  0  0  0
 18 16  1  0  0  0  0
 19 18  1  0  0  0  0
 20 18  2  0  0  0  0
 20 21  1  0  0  0  0
 21 14  2  0  0  0  0
M  END
>  <minimizedAffinity>
-4.49556971

$$$$

 OpenBabel03252500403D

 21 22  0  0  0  0  0  0  0  0999 V2000
   35.5300   28.9220   40.7390 C   0  0  0  0  0  0  0  0  0  0  0  0
   34.6950   29.3090   41.3610 H   0  0  0  0  0  0  0  0  0  0  0  0
   35.0790   28.3420   39.9110 H   0  0  0  0  0  0  0  0  0  0  0  0
   36.1990   30.1060   40.1310 C   0  0  0  0  0  0  0  0  0  0  0  0
   36.4660   30.0680   38.7560 C   0  0  0  0  0  0  0  0  0  0  0  0
   37.0970   31.1580   38.1520 C   0  0  0  0  0  0  0  0  0  0  0  0
   37.4170   32.2050   38.9480 N   0  0  0  0  0  0  0  0  0  0  0  0
   37.1510   32.2290   40.2870 C   0  0  0  0  0  0  0  0  0  0  0  0
   36.5440   31.1780   40.8610 N   0  0  0  0  0  0  0  0  0  0  0  0
   36.1790   29.1840   38.1650 H   0  0  0  0  0  0  0  0  0  0  0  0
   37.3160   31.1600   37.0870 H   0  0  0  0  0  0  0  0  0  0  0  0
   37.4180   33.0830   40.9120 H   0  0  0  0  0  0  0  0  0  0  0  0
   36.4140   26.3750   39.0820 Br  0  0  0  0  0  0  0  0  0  0  0  0
   36.9300   26.9260   40.8440 C   0  0  0  0  0  0  0  0  0  0  0  0
   36.4830   28.0660   41.4790 C   0  0  0  0  0  0  0  0  0  0  0  0
   36.9520   28.3340   42.7690 C   0  0  0  0  0  0  0  0  0  0  0  0
   36.5700   29.2520   43.2350 H   0  0  0  0  0  0  0  0  0  0  0  0
   37.8380   27.5120   43.4290 C   0  0  0  0  0  0  0  0  0  0  0  0
   38.1840   27.7550   44.4410 H   0  0  0  0  0  0  0  0  0  0  0  0
   38.2620   26.3730   42.7490 C   0  0  0  0  0  3  0  0  0  0  0  0
   37.8250   26.0680   41.4750 C   0  0  0  0  0  3  0  0  0  0  0  0
  1  2  1  0  0  0  0
  1 15  1  0  0  0  0
  3  1  1  0  0  0  0
  4  1  1  0  0  0  0
  4  9  1  0  0  0  0
  5  4  2  0  0  0  0
  6  5  1  0  0  0  0
  6  7  2  0  0  0  0
  7  8  1  0  0  0  0
  8  9  2  0  0  0  0
  8 12  1  0  0  0  0
 10  5  1  0  0  0  0
 11  6  1  0  0  0  0
 13 14  1  0  0  0  0
 14 21  2  0  0  0  0
 14 15  1  0  0  0  0
 15 16  2  0  0  0  0
 16 17  1  0  0  0  0
 16 18  1  0  0  0  0
 18 19  1  0  0  0  0
 20 18  2  0  0  0  0
 21 20  1  0  0  0  0
M  END
>  <minimizedAffinity>
-4.48860502

$$$$

 OpenBabel03252500403D

 21 22  0  0  0  0  0  0  0  0999 V2000
   37.0360   27.3090   43.1710 C   0  0  0  0  0  0  0  0  0  0  0  0
   37.6800   27.7040   43.9860 H   0  0  0  0  0  0  0  0  0  0  0  0
   36.0430   27.0980   43.6120 H   0  0  0  0  0  0  0  0  0  0  0  0
   36.8540   28.4170   42.1910 C   0  0  0  0  0  0  0  0  0  0  0  0
   37.8150   29.4370   42.1760 C   0  0  0  0  0  0  0  0  0  0  0  0
   37.6740   30.4940   41.2740 C   0  0  0  0  0  0  0  0  0  0  0  0
   36.5970   30.4680   40.4550 N   0  0  0  0  0  0  0  0  0  0  0  0
   35.6680   29.4680   40.4800 C   0  0  0  0  0  0  0  0  0  0  0  0
   35.8100   28.4540   41.3500 N   0  0  0  0  0  0  0  0  0  0  0  0
   38.6690   29.3980   42.8700 H   0  0  0  0  0  0  0  0  0  0  0  0
   38.4030   31.3000   41.2370 H   0  0  0  0  0  0  0  0  0  0  0  0
   34.8060   29.4650   39.8120 H   0  0  0  0  0  0  0  0  0  0  0  0
   40.1340   26.9080   43.6770 Br  0  0  0  0  0  0  0  0  0  0  0  0
   38.9060   25.8180   42.6890 C   0  0  0  0  0  0  0  0  0  0  0  0
   37.5620   26.0840   42.5300 C   0  0  0  0  0  0  0  0  0  0  0  0
   36.7920   25.1890   41.7800 C   0  0  0  0  0  0  0  0  0  0  0  0
   35.7280   25.4410   41.6810 H   0  0  0  0  0  0  0  0  0  0  0  0
   37.3160   24.0580   41.1950 C   0  0  0  0  0  0  0  0  0  0  0  0
   36.6820   23.3800   40.6140 H   0  0  0  0  0  0  0  0  0  0  0  0
   38.6780   23.8300   41.3830 C   0  0  0  0  0  3  0  0  0  0  0  0
   39.4760   24.6860   42.1150 C   0  0  0  0  0  3  0  0  0  0  0  0
  1  3  1  0  0  0  0
  1  2  1  0  0  0  0
  4  1  1  0  0  0  0
  5  4  1  0  0  0  0
  5 10  1  0  0  0  0
  6  5  2  0  0  0  0
  7  8  2  0  0  0  0
  7  6  1  0  0  0  0
  8  9  1  0  0  0  0
  9  4  2  0  0  0  0
 11  6  1  0  0  0  0
 12  8  1  0  0  0  0
 14 13  1  0  0  0  0
 15 14  1  0  0  0  0
 15  1  1  0  0  0  0
 16 15  2  0  0  0  0
 17 16  1  0  0  0  0
 18 20  2  0  0  0  0
 18 16  1  0  0  0  0
 19 18  1  0  0  0  0
 20 21  1  0  0  0  0
 21 14  2  0  0  0  0
M  END
>  <minimizedAffinity>
-4.45899677

$$$$

 OpenBabel03252500403D

 21 22  0  0  0  0  0  0  0  0999 V2000
   36.3100   30.4170   41.3010 C   0  0  0  0  0  0  0  0  0  0  0  0
   35.4860   30.6810   41.9990 H   0  0  0  0  0  0  0  0  0  0  0  0
   36.9350   31.3220   41.1780 H   0  0  0  0  0  0  0  0  0  0  0  0
   37.1470   29.3960   41.9920 C   0  0  0  0  0  0  0  0  0  0  0  0
   36.5660   28.1470   42.2540 C   0  0  0  0  0  0  0  0  0  0  0  0
   37.3200   27.1670   42.9040 C   0  0  0  0  0  0  0  0  0  0  0  0
   38.5890   27.4900   43.2470 N   0  0  0  0  0  0  0  0  0  0  0  0
   39.1420   28.7100   42.9850 C   0  0  0  0  0  0  0  0  0  0  0  0
   38.4120   29.6480   42.3590 N   0  0  0  0  0  0  0  0  0  0  0  0
   35.5270   27.9490   41.9480 H   0  0  0  0  0  0  0  0  0  0  0  0
   36.8990   26.1880   43.1210 H   0  0  0  0  0  0  0  0  0  0  0  0
   40.1670   28.9510   43.2700 H   0  0  0  0  0  0  0  0  0  0  0  0
   38.2630   31.2770   38.9650 Br  0  0  0  0  0  0  0  0  0  0  0  0
   36.6300   30.2770   38.8860 C   0  0  0  0  0  0  0  0  0  0  0  0
   35.8480   29.9510   39.9750 C   0  0  0  0  0  0  0  0  0  0  0  0
   34.6810   29.2120   39.7570 C   0  0  0  0  0  0  0  0  0  0  0  0
   34.0910   28.9760   40.6530 H   0  0  0  0  0  0  0  0  0  0  0  0
   34.2800   28.7970   38.5070 C   0  0  0  0  0  0  0  0  0  0  0  0
   33.3590   28.2190   38.3750 H   0  0  0  0  0  0  0  0  0  0  0  0
   35.1010   29.1480   37.4380 C   0  0  0  0  0  3  0  0  0  0  0  0
   36.2610   29.8770   37.6060 C   0  0  0  0  0  3  0  0  0  0  0  0
  1  4  1  0  0  0  0
  1  2  1  0  0  0  0
  3  1  1  0  0  0  0
  4  5  2  0  0  0  0
  4  9  1  0  0  0  0
  5  6  1  0  0  0  0
  6 11  1  0  0  0  0
  6  7  2  0  0  0  0
  8  7  1  0  0  0  0
  8 12  1  0  0  0  0
  9  8  2  0  0  0  0
 10  5  1  0  0  0  0
 14 13  1  0  0  0  0
 14 15  1  0  0  0  0
 15  1  1  0  0  0  0
 16 15  2  0  0  0  0
 16 17  1  0  0  0  0
 18 16  1  0  0  0  0
 19 18  1  0  0  0  0
 20 21  1  0  0  0  0
 20 18  2  0  0  0  0
 21 14  2  0  0  0  0
M  END
>  <minimizedAffinity>
-4.44242334

$$$$

 OpenBabel03252500403D

 21 22  0  0  0  0  0  0  0  0999 V2000
   35.5300   28.9420   40.8060 C   0  0  0  0  0  0  0  0  0  0  0  0
   34.9750   28.2700   40.1170 H   0  0  0  0  0  0  0  0  0  0  0  0
   34.8020   29.3200   41.5500 H   0  0  0  0  0  0  0  0  0  0  0  0
   36.5080   28.0930   41.5430 C   0  0  0  0  0  0  0  0  0  0  0  0
   36.9710   26.9330   40.9070 C   0  0  0  0  0  0  0  0  0  0  0  0
   37.8850   26.1110   41.5690 C   0  0  0  0  0  0  0  0  0  0  0  0
   38.2740   26.4920   42.8080 N   0  0  0  0  0  0  0  0  0  0  0  0
   37.8150   27.6250   43.4160 C   0  0  0  0  0  0  0  0  0  0  0  0
   36.9370   28.4120   42.7730 N   0  0  0  0  0  0  0  0  0  0  0  0
   36.6140   26.6810   39.8960 H   0  0  0  0  0  0  0  0  0  0  0  0
   38.2650   25.2050   41.1020 H   0  0  0  0  0  0  0  0  0  0  0  0
   38.1410   27.9150   44.4160 H   0  0  0  0  0  0  0  0  0  0  0  0
   35.7920   28.5210   37.6810 Br  0  0  0  0  0  0  0  0  0  0  0  0
   36.3490   29.9990   38.7650 C   0  0  0  0  0  0  0  0  0  0  0  0
   36.1840   30.0850   40.1320 C   0  0  0  0  0  0  0  0  0  0  0  0
   36.6440   31.2330   40.7860 C   0  0  0  0  0  0  0  0  0  0  0  0
   36.4910   31.2570   41.8730 H   0  0  0  0  0  0  0  0  0  0  0  0
   37.2520   32.2770   40.1260 C   0  0  0  0  0  0  0  0  0  0  0  0
   37.6000   33.1620   40.6730 H   0  0  0  0  0  0  0  0  0  0  0  0
   37.3970   32.1480   38.7470 C   0  0  0  0  0  3  0  0  0  0  0  0
   36.9590   31.0330   38.0600 C   0  0  0  0  0  3  0  0  0  0  0  0
  1  4  1  0  0  0  0
  1  3  1  0  0  0  0
  2  1  1  0  0  0  0
  4  9  1  0  0  0  0
  5  4  2  0  0  0  0
  5  6  1  0  0  0  0
  6  7  2  0  0  0  0
  7  8  1  0  0  0  0
  8 12  1  0  0  0  0
  9  8  2  0  0  0  0
 10  5  1  0  0  0  0
 11  6  1  0  0  0  0
 13 14  1  0  0  0  0
 14 15  1  0  0  0  0
 15 16  2  0  0  0  0
 15  1  1  0  0  0  0
 16 17  1  0  0  0  0
 18 19  1  0  0  0  0
 18 16  1  0  0  0  0
 20 18  2  0  0  0  0
 21 20  1  0  0  0  0
 21 14  2  0  0  0  0
M  END
>  <minimizedAffinity>
-4.41896343

$$$$

 OpenBabel03252500403D

 21 22  0  0  0  0  0  0  0  0999 V2000
   36.6650   27.4260   42.4650 C   0  0  0  0  0  0  0  0  0  0  0  0
   36.1310   27.8370   43.3480 H   0  0  0  0  0  0  0  0  0  0  0  0
   36.0200   26.6380   42.0320 H   0  0  0  0  0  0  0  0  0  0  0  0
   36.7470   28.5250   41.4620 C   0  0  0  0  0  0  0  0  0  0  0  0
   37.0080   28.1730   40.1300 C   0  0  0  0  0  0  0  0  0  0  0  0
   37.0950   29.1770   39.1630 C   0  0  0  0  0  0  0  0  0  0  0  0
   36.9200   30.4530   39.5800 N   0  0  0  0  0  0  0  0  0  0  0  0
   36.6660   30.7820   40.8800 C   0  0  0  0  0  0  0  0  0  0  0  0
   36.5820   29.8120   41.8050 N   0  0  0  0  0  0  0  0  0  0  0  0
   37.1400   27.1140   39.8580 H   0  0  0  0  0  0  0  0  0  0  0  0
   37.2960   28.9360   38.1220 H   0  0  0  0  0  0  0  0  0  0  0  0
   36.5280   31.8170   41.1960 H   0  0  0  0  0  0  0  0  0  0  0  0
   36.9420   24.4070   41.5590 Br  0  0  0  0  0  0  0  0  0  0  0  0
   38.2180   25.5450   42.4230 C   0  0  0  0  0  0  0  0  0  0  0  0
   37.9950   26.8600   42.7760 C   0  0  0  0  0  0  0  0  0  0  0  0
   39.0290   27.5640   43.4020 C   0  0  0  0  0  0  0  0  0  0  0  0
   38.8060   28.6070   43.6640 H   0  0  0  0  0  0  0  0  0  0  0  0
   40.2560   27.0030   43.6800 C   0  0  0  0  0  0  0  0  0  0  0  0
   41.0420   27.5860   44.1720 H   0  0  0  0  0  0  0  0  0  0  0  0
   40.4360   25.6740   43.3050 C   0  0  0  0  0  3  0  0  0  0  0  0
   39.4430   24.9400   42.6860 C   0  0  0  0  0  3  0  0  0  0  0  0
  1 15  1  0  0  0  0
  1  2  1  0  0  0  0
  3  1  1  0  0  0  0
  4  9  1  0  0  0  0
  4  1  1  0  0  0  0
  5  4  2  0  0  0  0
  6  7  2  0  0  0  0
  6  5  1  0  0  0  0
  7  8  1  0  0  0  0
  8 12  1  0  0  0  0
  8  9  2  0  0  0  0
 10  5  1  0  0  0  0
 11  6  1  0  0  0  0
 13 14  1  0  0  0  0
 14 21  2  0  0  0  0
 14 15  1  0  0  0  0
 15 16  2  0  0  0  0
 16 17  1  0  0  0  0
 16 18  1  0  0  0  0
 18 19  1  0  0  0  0
 20 18  2  0  0  0  0
 21 20  1  0  0  0  0
M  END
>  <minimizedAffinity>
-4.39413595

$$$$

 OpenBabel03252500403D

 21 22  0  0  0  0  0  0  0  0999 V2000
   36.3350   30.3770   41.3330 C   0  0  0  0  0  0  0  0  0  0  0  0
   36.7990   31.3830   41.2460 H   0  0  0  0  0  0  0  0  0  0  0  0
   35.3890   30.5020   41.8950 H   0  0  0  0  0  0  0  0  0  0  0  0
   35.9730   29.9480   39.9530 C   0  0  0  0  0  0  0  0  0  0  0  0
   34.7760   29.2360   39.7860 C   0  0  0  0  0  0  0  0  0  0  0  0
   34.4070   28.8140   38.5070 C   0  0  0  0  0  0  0  0  0  0  0  0
   35.2430   29.1240   37.4890 N   0  0  0  0  0  0  0  0  0  0  0  0
   36.4050   29.8180   37.6660 C   0  0  0  0  0  0  0  0  0  0  0  0
   36.7540   30.2210   38.8980 N   0  0  0  0  0  0  0  0  0  0  0  0
   34.1410   29.0170   40.6590 H   0  0  0  0  0  0  0  0  0  0  0  0
   33.4840   28.2610   38.3440 H   0  0  0  0  0  0  0  0  0  0  0  0
   37.0650   30.0580   36.8310 H   0  0  0  0  0  0  0  0  0  0  0  0
   39.3560   31.2980   41.5390 Br  0  0  0  0  0  0  0  0  0  0  0  0
   38.5250   29.6850   42.1580 C   0  0  0  0  0  0  0  0  0  0  0  0
   37.1870   29.3800   42.0180 C   0  0  0  0  0  0  0  0  0  0  0  0
   36.7280   28.1600   42.5250 C   0  0  0  0  0  0  0  0  0  0  0  0
   35.6570   27.9600   42.3910 H   0  0  0  0  0  0  0  0  0  0  0  0
   37.5510   27.2540   43.1550 C   0  0  0  0  0  0  0  0  0  0  0  0
   37.1560   26.3070   43.5390 H   0  0  0  0  0  0  0  0  0  0  0  0
   38.8940   27.6050   43.2740 C   0  0  0  0  0  3  0  0  0  0  0  0
   39.3920   28.7970   42.7880 C   0  0  0  0  0  3  0  0  0  0  0  0
  1  3  1  0  0  0  0
  1 15  1  0  0  0  0
  2  1  1  0  0  0  0
  4  1  1  0  0  0  0
  5  4  1  0  0  0  0
  5 10  1  0  0  0  0
  6  5  2  0  0  0  0
  7  8  2  0  0  0  0
  7  6  1  0  0  0  0
  8  9  1  0  0  0  0
  9  4  2  0  0  0  0
 11  6  1  0  0  0  0
 12  8  1  0  0  0  0
 13 14  1  0  0  0  0
 14 21  1  0  0  0  0
 15 14  2  0  0  0  0
 15 16  1  0  0  0  0
 16 18  2  0  0  0  0
 17 16  1  0  0  0  0
 18 20  1  0  0  0  0
 18 19  1  0  0  0  0
 21 20  2  0  0  0  0
M  END
>  <minimizedAffinity>
-4.29046822

$$$$

 OpenBabel03252500403D

 21 22  0  0  0  0  0  0  0  0999 V2000
   37.6470   28.6410   43.3690 C   0  0  0  0  0  0  0  0  0  0  0  0
   36.7760   28.4810   44.0400 H   0  0  0  0  0  0  0  0  0  0  0  0
   38.3980   29.2200   43.9410 H   0  0  0  0  0  0  0  0  0  0  0  0
   38.2390   27.2990   43.1040 C   0  0  0  0  0  0  0  0  0  0  0  0
   39.4840   27.0110   43.6800 C   0  0  0  0  0  0  0  0  0  0  0  0
   40.0710   25.7650   43.4490 C   0  0  0  0  0  0  0  0  0  0  0  0
   39.3880   24.8950   42.6690 N   0  0  0  0  0  0  0  0  0  0  0  0
   38.1750   25.1890   42.1140 C   0  0  0  0  0  0  0  0  0  0  0  0
   37.6160   26.3890   42.3400 N   0  0  0  0  0  0  0  0  0  0  0  0
   39.9870   27.7650   44.3060 H   0  0  0  0  0  0  0  0  0  0  0  0
   41.0350   25.5110   43.8830 H   0  0  0  0  0  0  0  0  0  0  0  0
   37.6410   24.4740   41.4870 H   0  0  0  0  0  0  0  0  0  0  0  0
   39.8760   30.7310   42.5460 Br  0  0  0  0  0  0  0  0  0  0  0  0
   38.2270   30.2960   41.6720 C   0  0  0  0  0  0  0  0  0  0  0  0
   37.3180   29.3590   42.1180 C   0  0  0  0  0  0  0  0  0  0  0  0
   36.1560   29.1510   41.3680 C   0  0  0  0  0  0  0  0  0  0  0  0
   35.4630   28.3960   41.7610 H   0  0  0  0  0  0  0  0  0  0  0  0
   35.8800   29.8400   40.2080 C   0  0  0  0  0  0  0  0  0  0  0  0
   34.9580   29.6510   39.6470 H   0  0  0  0  0  0  0  0  0  0  0  0
   36.8260   30.7770   39.7960 C   0  0  0  0  0  3  0  0  0  0  0  0
   37.9870   31.0150   40.5050 C   0  0  0  0  0  3  0  0  0  0  0  0
  1  3  1  0  0  0  0
  1  2  1  0  0  0  0
  4  1  1  0  0  0  0
  4  5  1  0  0  0  0
  5 10  1  0  0  0  0
  6  5  2  0  0  0  0
  6 11  1  0  0  0  0
  7  6  1  0  0  0  0
  8  9  1  0  0  0  0
  8  7  2  0  0  0  0
  9  4  2  0  0  0  0
 12  8  1  0  0  0  0
 14 15  1  0  0  0  0
 14 13  1  0  0  0  0
 15  1  1  0  0  0  0
 16 17  1  0  0  0  0
 16 15  2  0  0  0  0
 18 16  1  0  0  0  0
 19 18  1  0  0  0  0
 20 18  2  0  0  0  0
 20 21  1  0  0  0  0
 21 14  2  0  0  0  0
M  END
>  <minimizedAffinity>
-4.25555086

$$$$

 OpenBabel03252500403D

 21 22  0  0  0  0  0  0  0  0999 V2000
   39.0420   29.7190   40.2880 C   0  0  0  0  0  0  0  0  0  0  0  0
   38.8950   29.2920   39.2730 H   0  0  0  0  0  0  0  0  0  0  0  0
   40.1250   29.6630   40.5120 H   0  0  0  0  0  0  0  0  0  0  0  0
   38.6860   31.1630   40.2040 C   0  0  0  0  0  0  0  0  0  0  0  0
   37.5350   31.5090   39.4820 C   0  0  0  0  0  0  0  0  0  0  0  0
   37.1740   32.8540   39.3780 C   0  0  0  0  0  0  0  0  0  0  0  0
   37.9710   33.7580   39.9930 N   0  0  0  0  0  0  0  0  0  0  0  0
   39.0890   33.4070   40.6940 C   0  0  0  0  0  0  0  0  0  0  0  0
   39.4310   32.1120   40.7900 N   0  0  0  0  0  0  0  0  0  0  0  0
   36.9290   30.7230   39.0050 H   0  0  0  0  0  0  0  0  0  0  0  0
   36.2860   33.1550   38.8260 H   0  0  0  0  0  0  0  0  0  0  0  0
   39.7200   34.1510   41.1830 H   0  0  0  0  0  0  0  0  0  0  0  0
   36.9880   27.6120   39.1250 Br  0  0  0  0  0  0  0  0  0  0  0  0
   37.3560   28.0810   40.9460 C   0  0  0  0  0  0  0  0  0  0  0  0
   38.2820   29.0210   41.3490 C   0  0  0  0  0  0  0  0  0  0  0  0
   38.4390   29.2540   42.7190 C   0  0  0  0  0  0  0  0  0  0  0  0
   39.1870   30.0090   42.9930 H   0  0  0  0  0  0  0  0  0  0  0  0
   37.7120   28.5860   43.6800 C   0  0  0  0  0  0  0  0  0  0  0  0
   37.8630   28.7950   44.7450 H   0  0  0  0  0  0  0  0  0  0  0  0
   36.7900   27.6460   43.2260 C   0  0  0  0  0  3  0  0  0  0  0  0
   36.6000   27.3850   41.8840 C   0  0  0  0  0  3  0  0  0  0  0  0
  1  3  1  0  0  0  0
  1 15  1  0  0  0  0
  2  1  1  0  0  0  0
  4  1  1  0  0  0  0
  4  9  1  0  0  0  0
  5  4  2  0  0  0  0
  6  5  1  0  0  0  0
  6  7  2  0  0  0  0
  7  8  1  0  0  0  0
  8  9  2  0  0  0  0
  8 12  1  0  0  0  0
 10  5  1  0  0  0  0
 11  6  1  0  0  0  0
 13 14  1  0  0  0  0
 14 15  2  0  0  0  0
 14 21  1  0  0  0  0
 15 16  1  0  0  0  0
 16 17  1  0  0  0  0
 16 18  2  0  0  0  0
 18 19  1  0  0  0  0
 20 18  1  0  0  0  0
 21 20  2  0  0  0  0
M  END
>  <minimizedAffinity>
-4.14867306

$$$$
