
 OpenBabel03252504533D

 21 22  0  0  0  0  0  0  0  0999 V2000
   47.5680   33.5040   43.4220 C   0  0  0  0  0  0  0  0  0  0  0  0
   48.6490   33.3890   43.7040 H   0  0  0  0  0  0  0  0  0  0  0  0
   47.3750   34.4980   42.9740 H   0  0  0  0  0  0  0  0  0  0  0  0
   46.3320   32.2350   46.6900 C   0  0  0  0  0  0  0  0  0  0  0  0
   47.0940   32.3220   45.5090 C   0  0  0  0  0  0  0  0  0  0  0  0
   46.7880   33.3860   44.6570 C   0  0  0  0  0  0  0  0  0  0  0  0
   45.7960   34.2620   44.9990 N   0  0  0  0  0  0  0  0  0  0  0  0
   45.0990   34.1240   46.1490 C   0  0  0  0  0  0  0  0  0  0  0  0
   45.3690   33.1160   46.9860 N   0  0  0  0  0  0  0  0  0  0  0  0
   46.5480   31.4160   47.3710 H   0  0  0  0  0  0  0  0  0  0  0  0
   47.8740   31.6030   45.2770 H   0  0  0  0  0  0  0  0  0  0  0  0
   44.3620   34.9210   46.2320 H   0  0  0  0  0  0  0  0  0  0  0  0
   45.3810   34.4890   41.3740 Br  0  0  0  0  0  0  0  0  0  0  0  0
   46.2680   32.7900   41.4940 C   0  0  0  0  0  0  0  0  0  0  0  0
   47.2240   32.4370   42.4420 C   0  0  0  0  0  0  0  0  0  0  0  0
   47.7690   31.1800   42.4080 C   0  0  0  0  0  0  0  0  0  0  0  0
   48.5110   30.9400   43.1600 H   0  0  0  0  0  0  0  0  0  0  0  0
   47.3440   30.3030   41.4200 C   0  0  0  0  0  0  0  0  0  0  0  0
   47.7960   29.3120   41.4150 H   0  0  0  0  0  0  0  0  0  0  0  0
   46.4050   30.6230   40.4730 C   0  0  0  0  0  3  0  0  0  0  0  0
   45.8510   31.8980   40.5080 C   0  0  0  0  0  3  0  0  0  0  0  0
  1  2  1  0  0  0  0
  1  6  1  0  0  0  0
  3  1  1  0  0  0  0
  4  9  1  0  0  0  0
  4 10  1  0  0  0  0
  5  4  2  0  0  0  0
  6  7  2  0  0  0  0
  6  5  1  0  0  0  0
  7  8  1  0  0  0  0
  8 12  1  0  0  0  0
  8  9  2  0  0  0  0
 11  5  1  0  0  0  0
 13 14  1  0  0  0  0
 14 15  1  0  0  0  0
 15  1  1  0  0  0  0
 16 15  2  0  0  0  0
 16 17  1  0  0  0  0
 18 16  1  0  0  0  0
 19 18  1  0  0  0  0
 20 21  1  0  0  0  0
 20 18  2  0  0  0  0
 21 14  2  0  0  0  0
M  END
>  <minimizedAffinity>
-2.75794315

>  <minimizedRMSD>
2.93899703

$$$$
