
 OpenBabel03242515193D

 37 39  0  0  0  0  0  0  0  0999 V2000
   36.2300   28.8790   39.7720 C   0  0  0  0  0  0  0  0  0  0  0  0
   36.5760   27.5770   39.4920 C   0  0  0  0  0  0  0  0  0  0  0  0
   36.8930   26.9720   40.6970 C   0  0  0  0  0  0  0  0  0  0  0  0
   36.7430   27.8750   41.6550 N   0  0  0  0  0  0  0  0  0  0  0  0
   36.3430   29.0170   41.0840 N   0  0  0  0  0  0  0  0  0  0  0  0
   36.5650   27.2080   38.4760 H   0  0  0  0  0  0  0  0  0  0  0  0
   39.8860   26.8720   40.3420 Br  0  0  0  0  0  0  0  0  0  0  0  0
   38.6980   25.3600   40.4780 C   0  0  0  0  0  0  0  0  0  0  0  0
   37.3230   25.5910   40.6550 C   0  0  0  0  0  0  0  0  0  0  0  0
   36.6350   24.4050   40.7310 C   0  0  0  0  0  0  0  0  0  0  0  0
   35.5680   24.4760   40.8480 H   0  0  0  0  0  0  0  0  0  0  0  0
   37.1950   23.1550   40.6500 C   0  0  0  0  0  0  0  0  0  0  0  0
   36.5420   22.2970   40.7250 H   0  0  0  0  0  0  0  0  0  0  0  0
   38.5410   23.0130   40.4780 C   0  0  0  0  0  3  0  0  0  0  0  0
   39.3170   24.1450   40.3890 C   0  0  0  0  0  3  0  0  0  0  0  0
   36.9860   27.6880   43.0840 C   0  0  0  0  0  0  0  0  0  0  0  0
   37.2340   28.9460   43.6780 F   0  0  0  0  0  0  0  0  0  0  0  0
   38.0320   26.8330   43.2950 F   0  0  0  0  0  0  0  0  0  0  0  0
   35.8530   27.2150   43.6760 F   0  0  0  0  0  0  0  0  0  0  0  0
   35.8110   29.9510   38.8610 C   0  0  0  0  0  0  0  0  0  0  0  0
   35.2140   29.4990   38.0510 H   0  0  0  0  0  0  0  0  0  0  0  0
   35.1310   30.6670   39.3750 H   0  0  0  0  0  0  0  0  0  0  0  0
   36.9960   30.6200   38.2040 C   0  0  0  0  0  0  0  0  0  0  0  0
   37.7600   29.8060   38.0460 H   0  0  0  0  0  0  0  0  0  0  0  0
   36.6720   30.9250   37.2200 H   0  0  0  0  0  0  0  0  0  0  0  0
   37.7750   33.8280   39.9310 C   0  0  0  0  0  0  0  0  0  0  0  0
   38.8980   33.4390   40.7080 C   0  0  0  0  0  0  0  0  0  0  0  0
   39.3130   32.1260   40.5960 C   0  0  0  0  0  0  0  0  0  0  0  0
   38.6110   31.3450   39.7600 N   0  0  0  0  0  0  0  0  0  0  0  0
   37.5590   31.7150   39.0340 C   0  0  0  0  0  0  0  0  0  0  0  0
   37.1510   32.9680   39.1310 N   0  0  0  0  0  0  0  0  0  0  0  0
   37.4260   34.8670   40.0020 H   0  0  0  0  0  0  0  0  0  0  0  0
   39.3360   34.2030   41.3240 H   0  0  0  0  0  0  0  0  0  0  0  0
   40.4630   31.7410   41.4020 C   0  0  0  0  0  0  0  0  0  0  0  0
   40.9830   30.5410   40.9140 F   0  0  0  0  0  0  0  0  0  0  0  0
   39.9630   31.4230   42.6680 F   0  0  0  0  0  0  0  0  0  0  0  0
   41.4450   32.6850   41.4280 F   0  0  0  0  0  0  0  0  0  0  0  0
  1  5  2  0  0  0  0
  2  1  1  0  0  0  0
  2  3  2  0  0  0  0
  3  4  1  0  0  0  0
  4 16  1  0  0  0  0
  5  4  1  0  0  0  0
  6  2  1  0  0  0  0
  7  8  1  0  0  0  0
  8  9  1  0  0  0  0
  9  3  1  0  0  0  0
  9 10  2  0  0  0  0
 10 11  1  0  0  0  0
 12 13  1  0  0  0  0
 12 10  1  0  0  0  0
 14 12  2  0  0  0  0
 15 14  1  0  0  0  0
 15  8  2  0  0  0  0
 16 18  1  0  0  0  0
 16 19  1  0  0  0  0
 16 17  1  0  0  0  0
 20 22  1  0  0  0  0
 20  1  1  0  0  0  0
 21 20  1  0  0  0  0
 23 20  1  0  0  0  0
 23 30  1  0  0  0  0
 24 23  1  0  0  0  0
 25 23  1  0  0  0  0
 26 32  1  0  0  0  0
 26 27  1  0  0  0  0
 27 33  1  0  0  0  0
 28 27  2  0  0  0  0
 28 34  1  0  0  0  0
 29 28  1  0  0  0  0
 30 31  1  0  0  0  0
 30 29  2  0  0  0  0
 31 26  2  0  0  0  0
 34 37  1  0  0  0  0
 34 36  1  0  0  0  0
 35 34  1  0  0  0  0
M  END
>  <minimizedAffinity>
-6.20292234

$$$$

 OpenBabel03242515193D

 37 39  0  0  0  0  0  0  0  0999 V2000
   39.5770   29.3820   39.8650 C   0  0  0  0  0  0  0  0  0  0  0  0
   38.5840   28.8490   39.0750 C   0  0  0  0  0  0  0  0  0  0  0  0
   37.7600   29.8960   38.6940 C   0  0  0  0  0  0  0  0  0  0  0  0
   38.2410   31.0060   39.2360 N   0  0  0  0  0  0  0  0  0  0  0  0
   39.3340   30.6820   39.9360 N   0  0  0  0  0  0  0  0  0  0  0  0
   38.5560   27.7900   38.8600 H   0  0  0  0  0  0  0  0  0  0  0  0
   35.4210   29.2250   40.4760 Br  0  0  0  0  0  0  0  0  0  0  0  0
   35.4310   29.2220   38.5480 C   0  0  0  0  0  0  0  0  0  0  0  0
   36.6120   29.5750   37.8740 C   0  0  0  0  0  0  0  0  0  0  0  0
   36.4340   29.5170   36.5140 C   0  0  0  0  0  0  0  0  0  0  0  0
   37.2910   29.7530   35.9080 H   0  0  0  0  0  0  0  0  0  0  0  0
   35.2690   29.1660   35.8790 C   0  0  0  0  0  0  0  0  0  0  0  0
   35.2580   29.1600   34.7980 H   0  0  0  0  0  0  0  0  0  0  0  0
   34.1620   28.8370   36.6040 C   0  0  0  0  0  3  0  0  0  0  0  0
   34.2410   28.8630   37.9780 C   0  0  0  0  0  3  0  0  0  0  0  0
   37.6820   32.3520   39.1210 C   0  0  0  0  0  0  0  0  0  0  0  0
   37.2360   32.5540   37.7960 F   0  0  0  0  0  0  0  0  0  0  0  0
   38.6040   33.2970   39.4770 F   0  0  0  0  0  0  0  0  0  0  0  0
   36.5700   32.4460   39.9050 F   0  0  0  0  0  0  0  0  0  0  0  0
   40.7040   28.7150   40.5250 C   0  0  0  0  0  0  0  0  0  0  0  0
   40.6650   27.6420   40.2710 H   0  0  0  0  0  0  0  0  0  0  0  0
   41.6760   29.0850   40.1270 H   0  0  0  0  0  0  0  0  0  0  0  0
   40.6030   28.8070   42.0310 C   0  0  0  0  0  0  0  0  0  0  0  0
   41.4490   28.1810   42.4350 H   0  0  0  0  0  0  0  0  0  0  0  0
   40.8310   29.8290   42.2940 H   0  0  0  0  0  0  0  0  0  0  0  0
   37.2770   28.3650   43.6490 C   0  0  0  0  0  0  0  0  0  0  0  0
   36.9810   27.0280   43.2760 C   0  0  0  0  0  0  0  0  0  0  0  0
   37.9210   26.3690   42.5060 C   0  0  0  0  0  0  0  0  0  0  0  0
   39.0250   27.0630   42.1870 N   0  0  0  0  0  0  0  0  0  0  0  0
   39.2960   28.3160   42.5400 C   0  0  0  0  0  0  0  0  0  0  0  0
   38.4070   28.9580   43.2760 N   0  0  0  0  0  0  0  0  0  0  0  0
   36.5450   28.9090   44.2620 H   0  0  0  0  0  0  0  0  0  0  0  0
   36.0430   26.6340   43.6240 H   0  0  0  0  0  0  0  0  0  0  0  0
   37.6020   25.0000   42.1270 C   0  0  0  0  0  0  0  0  0  0  0  0
   37.4510   24.9320   40.7410 F   0  0  0  0  0  0  0  0  0  0  0  0
   36.3270   24.7420   42.6370 F   0  0  0  0  0  0  0  0  0  0  0  0
   38.5400   24.0960   42.5270 F   0  0  0  0  0  0  0  0  0  0  0  0
  1  5  2  0  0  0  0
  1 20  1  0  0  0  0
  2  1  1  0  0  0  0
  3  2  2  0  0  0  0
  3  4  1  0  0  0  0
  4  5  1  0  0  0  0
  6  2  1  0  0  0  0
  8  7  1  0  0  0  0
  9  8  2  0  0  0  0
  9  3  1  0  0  0  0
 10  9  1  0  0  0  0
 11 10  1  0  0  0  0
 12 10  2  0  0  0  0
 12 14  1  0  0  0  0
 13 12  1  0  0  0  0
 14 15  2  0  0  0  0
 15  8  1  0  0  0  0
 16  4  1  0  0  0  0
 16 18  1  0  0  0  0
 16 19  1  0  0  0  0
 17 16  1  0  0  0  0
 20 23  1  0  0  0  0
 21 20  1  0  0  0  0
 22 20  1  0  0  0  0
 23 25  1  0  0  0  0
 23 24  1  0  0  0  0
 23 30  1  0  0  0  0
 26 32  1  0  0  0  0
 27 33  1  0  0  0  0
 27 26  1  0  0  0  0
 28 27  2  0  0  0  0
 29 28  1  0  0  0  0
 29 30  2  0  0  0  0
 30 31  1  0  0  0  0
 31 26  2  0  0  0  0
 34 28  1  0  0  0  0
 34 37  1  0  0  0  0
 34 36  1  0  0  0  0
 35 34  1  0  0  0  0
M  END
>  <minimizedAffinity>
-6.1504221

$$$$

 OpenBabel03242515193D

 37 39  0  0  0  0  0  0  0  0999 V2000
   38.5620   30.0100   41.9360 C   0  0  0  0  0  0  0  0  0  0  0  0
   39.6440   30.4630   41.2160 C   0  0  0  0  0  0  0  0  0  0  0  0
   39.1700   30.8560   39.9750 C   0  0  0  0  0  0  0  0  0  0  0  0
   37.8630   30.6450   39.9550 N   0  0  0  0  0  0  0  0  0  0  0  0
   37.5100   30.1370   41.1410 N   0  0  0  0  0  0  0  0  0  0  0  0
   40.6350   30.4630   41.6480 H   0  0  0  0  0  0  0  0  0  0  0  0
   39.4080   33.8500   40.2470 Br  0  0  0  0  0  0  0  0  0  0  0  0
   40.3660   32.7340   39.0000 C   0  0  0  0  0  0  0  0  0  0  0  0
   40.1400   31.3460   39.0190 C   0  0  0  0  0  0  0  0  0  0  0  0
   40.9040   30.7150   38.0690 C   0  0  0  0  0  0  0  0  0  0  0  0
   40.7880   29.6480   37.9910 H   0  0  0  0  0  0  0  0  0  0  0  0
   41.7750   31.3350   37.2090 C   0  0  0  0  0  0  0  0  0  0  0  0
   42.3200   30.7230   36.5030 H   0  0  0  0  0  0  0  0  0  0  0  0
   41.9400   32.6880   37.2520 C   0  0  0  0  0  3  0  0  0  0  0  0
   41.2160   33.4110   38.1720 C   0  0  0  0  0  3  0  0  0  0  0  0
   36.9500   30.8940   38.8400 C   0  0  0  0  0  0  0  0  0  0  0  0
   36.8720   32.2860   38.6110 F   0  0  0  0  0  0  0  0  0  0  0  0
   35.7130   30.3690   39.0940 F   0  0  0  0  0  0  0  0  0  0  0  0
   37.4750   30.3600   37.7010 F   0  0  0  0  0  0  0  0  0  0  0  0
   38.5050   29.4820   43.3040 C   0  0  0  0  0  0  0  0  0  0  0  0
   39.5150   29.1350   43.5800 H   0  0  0  0  0  0  0  0  0  0  0  0
   38.2510   30.2850   44.0310 H   0  0  0  0  0  0  0  0  0  0  0  0
   37.5930   28.2800   43.4000 C   0  0  0  0  0  0  0  0  0  0  0  0
   37.1480   28.3140   44.4360 H   0  0  0  0  0  0  0  0  0  0  0  0
   36.7770   28.4550   42.7150 H   0  0  0  0  0  0  0  0  0  0  0  0
   39.9900   25.4280   43.3770 C   0  0  0  0  0  0  0  0  0  0  0  0
   39.3130   24.5260   42.5150 C   0  0  0  0  0  0  0  0  0  0  0  0
   38.0980   24.9400   42.0030 C   0  0  0  0  0  0  0  0  0  0  0  0
   37.6780   26.1600   42.3730 N   0  0  0  0  0  0  0  0  0  0  0  0
   38.3170   27.0010   43.1810 C   0  0  0  0  0  0  0  0  0  0  0  0
   39.4790   26.6180   43.6780 N   0  0  0  0  0  0  0  0  0  0  0  0
   40.9580   25.1210   43.7960 H   0  0  0  0  0  0  0  0  0  0  0  0
   39.8030   23.5870   42.3300 H   0  0  0  0  0  0  0  0  0  0  0  0
   37.4130   24.0030   41.1240 C   0  0  0  0  0  0  0  0  0  0  0  0
   37.3990   24.5180   39.8270 F   0  0  0  0  0  0  0  0  0  0  0  0
   36.0730   24.0040   41.5220 F   0  0  0  0  0  0  0  0  0  0  0  0
   37.9750   22.7620   41.1150 F   0  0  0  0  0  0  0  0  0  0  0  0
  1 20  1  0  0  0  0
  2  6  1  0  0  0  0
  2  1  1  0  0  0  0
  3  2  2  0  0  0  0
  4  3  1  0  0  0  0
  4  5  1  0  0  0  0
  5  1  2  0  0  0  0
  8  9  1  0  0  0  0
  8  7  1  0  0  0  0
  9  3  1  0  0  0  0
 10  9  2  0  0  0  0
 11 10  1  0  0  0  0
 12 14  2  0  0  0  0
 12 10  1  0  0  0  0
 13 12  1  0  0  0  0
 14 15  1  0  0  0  0
 15  8  2  0  0  0  0
 16 18  1  0  0  0  0
 16  4  1  0  0  0  0
 17 16  1  0  0  0  0
 19 16  1  0  0  0  0
 20 23  1  0  0  0  0
 20 21  1  0  0  0  0
 20 22  1  0  0  0  0
 23 24  1  0  0  0  0
 25 23  1  0  0  0  0
 26 31  1  0  0  0  0
 26 32  1  0  0  0  0
 27 26  2  0  0  0  0
 28 29  2  0  0  0  0
 28 27  1  0  0  0  0
 29 30  1  0  0  0  0
 30 23  1  0  0  0  0
 30 31  2  0  0  0  0
 33 27  1  0  0  0  0
 34 36  1  0  0  0  0
 34 28  1  0  0  0  0
 35 34  1  0  0  0  0
 37 34  1  0  0  0  0
M  END
>  <minimizedAffinity>
-6.08045197

$$$$

 OpenBabel03242515193D

 37 39  0  0  0  0  0  0  0  0999 V2000
   36.0480   29.0170   37.6750 C   0  0  0  0  0  0  0  0  0  0  0  0
   36.3540   28.2080   38.7460 C   0  0  0  0  0  0  0  0  0  0  0  0
   36.7100   29.0410   39.7950 C   0  0  0  0  0  0  0  0  0  0  0  0
   36.6190   30.2920   39.3680 N   0  0  0  0  0  0  0  0  0  0  0  0
   36.2190   30.2620   38.0910 N   0  0  0  0  0  0  0  0  0  0  0  0
   36.2930   27.1320   38.6630 H   0  0  0  0  0  0  0  0  0  0  0  0
   39.6810   28.5230   39.7390 Br  0  0  0  0  0  0  0  0  0  0  0  0
   38.4690   28.0870   41.1730 C   0  0  0  0  0  0  0  0  0  0  0  0
   37.1080   28.4120   41.0370 C   0  0  0  0  0  0  0  0  0  0  0  0
   36.4010   28.0290   42.1490 C   0  0  0  0  0  0  0  0  0  0  0  0
   35.3420   28.2200   42.1320 H   0  0  0  0  0  0  0  0  0  0  0  0
   36.9300   27.4130   43.2540 C   0  0  0  0  0  0  0  0  0  0  0  0
   36.2640   27.1610   44.0670 H   0  0  0  0  0  0  0  0  0  0  0  0
   38.2630   27.1290   43.3130 C   0  0  0  0  0  3  0  0  0  0  0  0
   39.0580   27.4740   42.2440 C   0  0  0  0  0  3  0  0  0  0  0  0
   36.9200   31.5030   40.1290 C   0  0  0  0  0  0  0  0  0  0  0  0
   38.3050   31.5410   40.4070 F   0  0  0  0  0  0  0  0  0  0  0  0
   36.1880   31.5500   41.2830 F   0  0  0  0  0  0  0  0  0  0  0  0
   36.6670   32.5960   39.3540 F   0  0  0  0  0  0  0  0  0  0  0  0
   35.6130   28.6500   36.3230 C   0  0  0  0  0  0  0  0  0  0  0  0
   35.5030   29.5760   35.7340 H   0  0  0  0  0  0  0  0  0  0  0  0
   36.3930   28.0510   35.8020 H   0  0  0  0  0  0  0  0  0  0  0  0
   34.2560   27.9820   36.3350 C   0  0  0  0  0  0  0  0  0  0  0  0
   34.3100   27.1630   35.5620 H   0  0  0  0  0  0  0  0  0  0  0  0
   34.1640   27.4890   37.2910 H   0  0  0  0  0  0  0  0  0  0  0  0
   31.8530   30.3580   34.7670 C   0  0  0  0  0  0  0  0  0  0  0  0
   31.0000   30.6300   35.8690 C   0  0  0  0  0  0  0  0  0  0  0  0
   31.2940   29.9960   37.0610 C   0  0  0  0  0  0  0  0  0  0  0  0
   32.3610   29.1810   37.0580 N   0  0  0  0  0  0  0  0  0  0  0  0
   33.1560   28.9300   36.0220 C   0  0  0  0  0  0  0  0  0  0  0  0
   32.8880   29.5290   34.8760 N   0  0  0  0  0  0  0  0  0  0  0  0
   31.6410   30.8510   33.8090 H   0  0  0  0  0  0  0  0  0  0  0  0
   30.1900   31.3120   35.6850 H   0  0  0  0  0  0  0  0  0  0  0  0
   30.4080   30.2810   38.1800 C   0  0  0  0  0  0  0  0  0  0  0  0
   30.9990   29.8250   39.3600 F   0  0  0  0  0  0  0  0  0  0  0  0
   29.2860   29.4660   38.0070 F   0  0  0  0  0  0  0  0  0  0  0  0
   30.1040   31.6040   38.3050 F   0  0  0  0  0  0  0  0  0  0  0  0
  1  5  2  0  0  0  0
  1  2  1  0  0  0  0
  2  3  2  0  0  0  0
  3  9  1  0  0  0  0
  4  3  1  0  0  0  0
  4 16  1  0  0  0  0
  5  4  1  0  0  0  0
  6  2  1  0  0  0  0
  7  8  1  0  0  0  0
  8 15  1  0  0  0  0
  9  8  2  0  0  0  0
  9 10  1  0  0  0  0
 10 12  2  0  0  0  0
 11 10  1  0  0  0  0
 12 14  1  0  0  0  0
 12 13  1  0  0  0  0
 15 14  2  0  0  0  0
 16 17  1  0  0  0  0
 16 18  1  0  0  0  0
 19 16  1  0  0  0  0
 20 23  1  0  0  0  0
 20  1  1  0  0  0  0
 21 20  1  0  0  0  0
 22 20  1  0  0  0  0
 23 25  1  0  0  0  0
 24 23  1  0  0  0  0
 26 31  2  0  0  0  0
 26 27  1  0  0  0  0
 27 28  2  0  0  0  0
 28 34  1  0  0  0  0
 29 28  1  0  0  0  0
 30 23  1  0  0  0  0
 30 29  2  0  0  0  0
 31 30  1  0  0  0  0
 32 26  1  0  0  0  0
 33 27  1  0  0  0  0
 34 37  1  0  0  0  0
 34 35  1  0  0  0  0
 36 34  1  0  0  0  0
M  END
>  <minimizedAffinity>
-6.03757763

$$$$

 OpenBabel03242515193D

 37 39  0  0  0  0  0  0  0  0999 V2000
   36.9460   26.4810   38.3930 C   0  0  0  0  0  0  0  0  0  0  0  0
   37.9580   26.7990   39.2700 C   0  0  0  0  0  0  0  0  0  0  0  0
   37.8800   25.9020   40.3230 C   0  0  0  0  0  0  0  0  0  0  0  0
   36.8640   25.0850   40.0840 N   0  0  0  0  0  0  0  0  0  0  0  0
   36.3130   25.4450   38.9200 N   0  0  0  0  0  0  0  0  0  0  0  0
   38.6290   27.6220   39.0660 H   0  0  0  0  0  0  0  0  0  0  0  0
   36.8100   27.8930   42.3200 Br  0  0  0  0  0  0  0  0  0  0  0  0
   38.4970   26.9660   42.4180 C   0  0  0  0  0  0  0  0  0  0  0  0
   38.8340   26.0580   41.4000 C   0  0  0  0  0  0  0  0  0  0  0  0
   40.0640   25.4950   41.6350 C   0  0  0  0  0  0  0  0  0  0  0  0
   40.4200   24.7970   40.8990 H   0  0  0  0  0  0  0  0  0  0  0  0
   40.8700   25.7690   42.7110 C   0  0  0  0  0  0  0  0  0  0  0  0
   41.8200   25.2570   42.7810 H   0  0  0  0  0  0  0  0  0  0  0  0
   40.4730   26.6640   43.6600 C   0  0  0  0  0  3  0  0  0  0  0  0
   39.2530   27.2830   43.5130 C   0  0  0  0  0  3  0  0  0  0  0  0
   36.3970   23.9930   40.9370 C   0  0  0  0  0  0  0  0  0  0  0  0
   35.1740   23.5020   40.4270 F   0  0  0  0  0  0  0  0  0  0  0  0
   36.2550   24.4100   42.2310 F   0  0  0  0  0  0  0  0  0  0  0  0
   37.2750   22.9540   40.8600 F   0  0  0  0  0  0  0  0  0  0  0  0
   36.5830   27.1120   37.1190 C   0  0  0  0  0  0  0  0  0  0  0  0
   37.5020   27.5100   36.6580 H   0  0  0  0  0  0  0  0  0  0  0  0
   36.1860   26.3590   36.4010 H   0  0  0  0  0  0  0  0  0  0  0  0
   35.6560   28.2880   37.3230 C   0  0  0  0  0  0  0  0  0  0  0  0
   35.0150   28.3400   36.3960 H   0  0  0  0  0  0  0  0  0  0  0  0
   34.9930   28.0230   38.1340 H   0  0  0  0  0  0  0  0  0  0  0  0
   37.6250   31.4310   36.9740 C   0  0  0  0  0  0  0  0  0  0  0  0
   37.6570   31.8700   38.3240 C   0  0  0  0  0  0  0  0  0  0  0  0
   37.0140   31.0770   39.2560 C   0  0  0  0  0  0  0  0  0  0  0  0
   36.4210   29.9670   38.7890 N   0  0  0  0  0  0  0  0  0  0  0  0
   36.3940   29.5620   37.5230 C   0  0  0  0  0  0  0  0  0  0  0  0
   37.0040   30.3090   36.6210 N   0  0  0  0  0  0  0  0  0  0  0  0
   38.1300   32.0450   36.2150 H   0  0  0  0  0  0  0  0  0  0  0  0
   38.1820   32.7890   38.5130 H   0  0  0  0  0  0  0  0  0  0  0  0
   37.0520   31.5420   40.6350 C   0  0  0  0  0  0  0  0  0  0  0  0
   37.2930   32.9160   40.6490 F   0  0  0  0  0  0  0  0  0  0  0  0
   38.1940   30.9740   41.2060 F   0  0  0  0  0  0  0  0  0  0  0  0
   35.9090   31.2730   41.3270 F   0  0  0  0  0  0  0  0  0  0  0  0
  1  5  2  0  0  0  0
  1  2  1  0  0  0  0
  2  3  2  0  0  0  0
  3  9  1  0  0  0  0
  4  3  1  0  0  0  0
  4 16  1  0  0  0  0
  5  4  1  0  0  0  0
  6  2  1  0  0  0  0
  7  8  1  0  0  0  0
  8 15  1  0  0  0  0
  9 10  1  0  0  0  0
  9  8  2  0  0  0  0
 10 12  2  0  0  0  0
 11 10  1  0  0  0  0
 12 13  1  0  0  0  0
 12 14  1  0  0  0  0
 15 14  2  0  0  0  0
 16 18  1  0  0  0  0
 17 16  1  0  0  0  0
 19 16  1  0  0  0  0
 20 23  1  0  0  0  0
 20  1  1  0  0  0  0
 21 20  1  0  0  0  0
 22 20  1  0  0  0  0
 23 30  1  0  0  0  0
 23 25  1  0  0  0  0
 24 23  1  0  0  0  0
 26 27  1  0  0  0  0
 27 33  1  0  0  0  0
 27 28  2  0  0  0  0
 28 34  1  0  0  0  0
 29 28  1  0  0  0  0
 30 29  2  0  0  0  0
 31 26  2  0  0  0  0
 31 30  1  0  0  0  0
 32 26  1  0  0  0  0
 34 35  1  0  0  0  0
 34 36  1  0  0  0  0
 34 37  1  0  0  0  0
M  END
>  <minimizedAffinity>
-6.0017705

$$$$

 OpenBabel03242515193D

 37 39  0  0  0  0  0  0  0  0999 V2000
   40.3660   31.3750   40.3350 C   0  0  0  0  0  0  0  0  0  0  0  0
   40.0480   30.2740   41.0970 C   0  0  0  0  0  0  0  0  0  0  0  0
   38.6720   30.1220   41.0370 C   0  0  0  0  0  0  0  0  0  0  0  0
   38.1910   31.0920   40.2740 N   0  0  0  0  0  0  0  0  0  0  0  0
   39.2210   31.8370   39.8570 N   0  0  0  0  0  0  0  0  0  0  0  0
   40.8190   29.7100   41.6040 H   0  0  0  0  0  0  0  0  0  0  0  0
   38.3190   27.7300   39.2340 Br  0  0  0  0  0  0  0  0  0  0  0  0
   37.8430   27.8390   41.0990 C   0  0  0  0  0  0  0  0  0  0  0  0
   38.0900   29.0350   41.7950 C   0  0  0  0  0  0  0  0  0  0  0  0
   37.6900   28.9300   43.1040 C   0  0  0  0  0  0  0  0  0  0  0  0
   37.8210   29.8040   43.7170 H   0  0  0  0  0  0  0  0  0  0  0  0
   37.1250   27.8180   43.6750 C   0  0  0  0  0  0  0  0  0  0  0  0
   36.8520   27.8620   44.7200 H   0  0  0  0  0  0  0  0  0  0  0  0
   36.9170   26.6920   42.9330 C   0  0  0  0  0  3  0  0  0  0  0  0
   37.2850   26.6990   41.6080 C   0  0  0  0  0  3  0  0  0  0  0  0
   36.7870   31.3380   39.9470 C   0  0  0  0  0  0  0  0  0  0  0  0
   36.0260   31.3120   41.1380 F   0  0  0  0  0  0  0  0  0  0  0  0
   36.3240   30.4140   39.0510 F   0  0  0  0  0  0  0  0  0  0  0  0
   36.6540   32.6000   39.4500 F   0  0  0  0  0  0  0  0  0  0  0  0
   41.6770   31.9740   40.0610 C   0  0  0  0  0  0  0  0  0  0  0  0
   41.8560   32.7660   40.8070 H   0  0  0  0  0  0  0  0  0  0  0  0
   42.4930   31.2310   40.2070 H   0  0  0  0  0  0  0  0  0  0  0  0
   41.7130   32.6410   38.7040 C   0  0  0  0  0  0  0  0  0  0  0  0
   40.9370   32.1110   38.0810 H   0  0  0  0  0  0  0  0  0  0  0  0
   41.3510   33.6480   38.8460 H   0  0  0  0  0  0  0  0  0  0  0  0
   45.2430   33.0950   37.6010 C   0  0  0  0  0  0  0  0  0  0  0  0
   45.3600   32.0370   36.6630 C   0  0  0  0  0  0  0  0  0  0  0  0
   44.2450   31.2450   36.4670 C   0  0  0  0  0  0  0  0  0  0  0  0
   43.1560   31.5580   37.1880 N   0  0  0  0  0  0  0  0  0  0  0  0
   43.0520   32.5510   38.0660 C   0  0  0  0  0  0  0  0  0  0  0  0
   44.1100   33.3160   38.2630 N   0  0  0  0  0  0  0  0  0  0  0  0
   46.1160   33.7390   37.7740 H   0  0  0  0  0  0  0  0  0  0  0  0
   46.3140   31.9360   36.1770 H   0  0  0  0  0  0  0  0  0  0  0  0
   44.3810   30.1610   35.5050 C   0  0  0  0  0  0  0  0  0  0  0  0
   45.1450   30.6030   34.4230 F   0  0  0  0  0  0  0  0  0  0  0  0
   43.1060   29.9470   34.9750 F   0  0  0  0  0  0  0  0  0  0  0  0
   44.9460   29.0390   36.0320 F   0  0  0  0  0  0  0  0  0  0  0  0
  1  2  1  0  0  0  0
  2  6  1  0  0  0  0
  3  2  2  0  0  0  0
  3  9  1  0  0  0  0
  4  3  1  0  0  0  0
  5  4  1  0  0  0  0
  5  1  2  0  0  0  0
  7  8  1  0  0  0  0
  8 15  2  0  0  0  0
  8  9  1  0  0  0  0
  9 10  2  0  0  0  0
 10 12  1  0  0  0  0
 10 11  1  0  0  0  0
 12 13  1  0  0  0  0
 14 12  2  0  0  0  0
 15 14  1  0  0  0  0
 16  4  1  0  0  0  0
 16 17  1  0  0  0  0
 18 16  1  0  0  0  0
 19 16  1  0  0  0  0
 20 22  1  0  0  0  0
 20  1  1  0  0  0  0
 20 21  1  0  0  0  0
 23 25  1  0  0  0  0
 23 20  1  0  0  0  0
 24 23  1  0  0  0  0
 26 32  1  0  0  0  0
 26 31  1  0  0  0  0
 27 26  2  0  0  0  0
 28 27  1  0  0  0  0
 28 29  2  0  0  0  0
 29 30  1  0  0  0  0
 30 31  2  0  0  0  0
 30 23  1  0  0  0  0
 33 27  1  0  0  0  0
 34 37  1  0  0  0  0
 34 28  1  0  0  0  0
 35 34  1  0  0  0  0
 36 34  1  0  0  0  0
M  END
>  <minimizedAffinity>
-5.95078754

$$$$

 OpenBabel03242515193D

 37 39  0  0  0  0  0  0  0  0999 V2000
   37.1070   26.7010   38.7010 C   0  0  0  0  0  0  0  0  0  0  0  0
   38.2190   26.8290   39.5000 C   0  0  0  0  0  0  0  0  0  0  0  0
   38.1550   25.8210   40.4500 C   0  0  0  0  0  0  0  0  0  0  0  0
   37.0510   25.1240   40.2260 N   0  0  0  0  0  0  0  0  0  0  0  0
   36.4310   25.6640   39.1700 N   0  0  0  0  0  0  0  0  0  0  0  0
   38.9420   27.6130   39.3230 H   0  0  0  0  0  0  0  0  0  0  0  0
   37.3430   27.4260   42.8700 Br  0  0  0  0  0  0  0  0  0  0  0  0
   39.0050   26.4800   42.6290 C   0  0  0  0  0  0  0  0  0  0  0  0
   39.2140   25.7680   41.4350 C   0  0  0  0  0  0  0  0  0  0  0  0
   40.4450   25.1600   41.4390 C   0  0  0  0  0  0  0  0  0  0  0  0
   40.7080   24.6040   40.5560 H   0  0  0  0  0  0  0  0  0  0  0  0
   41.3600   25.2250   42.4590 C   0  0  0  0  0  0  0  0  0  0  0  0
   42.2980   24.7000   42.3390 H   0  0  0  0  0  0  0  0  0  0  0  0
   41.0830   25.9370   43.5890 C   0  0  0  0  0  3  0  0  0  0  0  0
   39.8730   26.5850   43.6800 C   0  0  0  0  0  3  0  0  0  0  0  0
   36.5650   23.9790   40.9940 C   0  0  0  0  0  0  0  0  0  0  0  0
   36.2350   24.4080   42.3000 F   0  0  0  0  0  0  0  0  0  0  0  0
   37.4990   22.9810   41.0290 F   0  0  0  0  0  0  0  0  0  0  0  0
   35.4010   23.5300   40.4460 F   0  0  0  0  0  0  0  0  0  0  0  0
   36.6880   27.5070   37.5480 C   0  0  0  0  0  0  0  0  0  0  0  0
   37.5190   28.1800   37.2800 H   0  0  0  0  0  0  0  0  0  0  0  0
   36.5160   26.8660   36.6550 H   0  0  0  0  0  0  0  0  0  0  0  0
   35.5070   28.3900   37.8850 C   0  0  0  0  0  0  0  0  0  0  0  0
   35.2490   28.9340   36.9320 H   0  0  0  0  0  0  0  0  0  0  0  0
   34.6770   27.7300   38.0900 H   0  0  0  0  0  0  0  0  0  0  0  0
   35.8020   30.2640   41.0910 C   0  0  0  0  0  0  0  0  0  0  0  0
   36.6080   31.3580   40.6800 C   0  0  0  0  0  0  0  0  0  0  0  0
   36.9960   31.3870   39.3540 C   0  0  0  0  0  0  0  0  0  0  0  0
   36.5690   30.3740   38.5830 N   0  0  0  0  0  0  0  0  0  0  0  0
   35.8130   29.3520   38.9740 C   0  0  0  0  0  0  0  0  0  0  0  0
   35.4350   29.3110   40.2390 N   0  0  0  0  0  0  0  0  0  0  0  0
   35.4800   30.2190   42.1400 H   0  0  0  0  0  0  0  0  0  0  0  0
   36.8540   32.0790   41.4390 H   0  0  0  0  0  0  0  0  0  0  0  0
   37.8260   32.5120   38.9480 C   0  0  0  0  0  0  0  0  0  0  0  0
   38.7060   32.8290   39.9840 F   0  0  0  0  0  0  0  0  0  0  0  0
   36.9720   33.6140   38.8570 F   0  0  0  0  0  0  0  0  0  0  0  0
   38.5330   32.2780   37.8070 F   0  0  0  0  0  0  0  0  0  0  0  0
  1  5  2  0  0  0  0
  1  2  1  0  0  0  0
  2  3  2  0  0  0  0
  3  9  1  0  0  0  0
  4  3  1  0  0  0  0
  4 16  1  0  0  0  0
  5  4  1  0  0  0  0
  6  2  1  0  0  0  0
  8  7  1  0  0  0  0
  8 15  1  0  0  0  0
  9 10  1  0  0  0  0
  9  8  2  0  0  0  0
 10 12  2  0  0  0  0
 11 10  1  0  0  0  0
 12 14  1  0  0  0  0
 13 12  1  0  0  0  0
 14 15  2  0  0  0  0
 16 18  1  0  0  0  0
 16 17  1  0  0  0  0
 19 16  1  0  0  0  0
 20 23  1  0  0  0  0
 20  1  1  0  0  0  0
 21 20  1  0  0  0  0
 22 20  1  0  0  0  0
 23 25  1  0  0  0  0
 23 30  1  0  0  0  0
 24 23  1  0  0  0  0
 26 32  1  0  0  0  0
 27 26  1  0  0  0  0
 27 33  1  0  0  0  0
 28 27  2  0  0  0  0
 29 30  2  0  0  0  0
 29 28  1  0  0  0  0
 30 31  1  0  0  0  0
 31 26  2  0  0  0  0
 34 28  1  0  0  0  0
 34 35  1  0  0  0  0
 36 34  1  0  0  0  0
 37 34  1  0  0  0  0
M  END
>  <minimizedAffinity>
-5.89963388

$$$$

 OpenBabel03242515193D

 37 39  0  0  0  0  0  0  0  0999 V2000
   40.0580   28.2760   40.9770 C   0  0  0  0  0  0  0  0  0  0  0  0
   39.5280   27.1800   40.3360 C   0  0  0  0  0  0  0  0  0  0  0  0
   38.2870   26.9390   40.9040 C   0  0  0  0  0  0  0  0  0  0  0  0
   38.0870   27.8510   41.8430 N   0  0  0  0  0  0  0  0  0  0  0  0
   39.1600   28.6500   41.8750 N   0  0  0  0  0  0  0  0  0  0  0  0
   40.0750   26.6810   39.5480 H   0  0  0  0  0  0  0  0  0  0  0  0
   36.5640   27.8120   38.5860 Br  0  0  0  0  0  0  0  0  0  0  0  0
   36.6700   26.0360   39.3300 C   0  0  0  0  0  0  0  0  0  0  0  0
   37.5400   25.8020   40.4090 C   0  0  0  0  0  0  0  0  0  0  0  0
   37.4840   24.4890   40.8040 C   0  0  0  0  0  0  0  0  0  0  0  0
   38.1030   24.2130   41.6400 H   0  0  0  0  0  0  0  0  0  0  0  0
   36.6940   23.5210   40.2380 C   0  0  0  0  0  0  0  0  0  0  0  0
   36.7420   22.5200   40.6430 H   0  0  0  0  0  0  0  0  0  0  0  0
   35.8750   23.8260   39.1910 C   0  0  0  0  0  3  0  0  0  0  0  0
   35.8590   25.1190   38.7220 C   0  0  0  0  0  3  0  0  0  0  0  0
   36.9200   27.9710   42.7160 C   0  0  0  0  0  0  0  0  0  0  0  0
   35.7880   28.2820   41.9310 F   0  0  0  0  0  0  0  0  0  0  0  0
   37.1250   28.9220   43.6780 F   0  0  0  0  0  0  0  0  0  0  0  0
   36.6570   26.7610   43.2840 F   0  0  0  0  0  0  0  0  0  0  0  0
   41.3440   28.9510   40.7650 C   0  0  0  0  0  0  0  0  0  0  0  0
   41.5220   29.6270   41.6180 H   0  0  0  0  0  0  0  0  0  0  0  0
   42.1840   28.2200   40.7770 H   0  0  0  0  0  0  0  0  0  0  0  0
   41.3230   29.8150   39.5240 C   0  0  0  0  0  0  0  0  0  0  0  0
   42.4000   29.9300   39.2120 H   0  0  0  0  0  0  0  0  0  0  0  0
   40.8440   29.2330   38.7510 H   0  0  0  0  0  0  0  0  0  0  0  0
   40.5300   33.3240   40.4920 C   0  0  0  0  0  0  0  0  0  0  0  0
   39.1920   33.4250   40.0300 C   0  0  0  0  0  0  0  0  0  0  0  0
   38.6510   32.3070   39.4250 C   0  0  0  0  0  0  0  0  0  0  0  0
   39.4480   31.2310   39.3350 N   0  0  0  0  0  0  0  0  0  0  0  0
   40.7020   31.1420   39.7710 C   0  0  0  0  0  0  0  0  0  0  0  0
   41.2320   32.2040   40.3510 N   0  0  0  0  0  0  0  0  0  0  0  0
   40.9820   34.2000   40.9770 H   0  0  0  0  0  0  0  0  0  0  0  0
   38.7050   34.3710   40.1890 H   0  0  0  0  0  0  0  0  0  0  0  0
   37.2790   32.4270   38.9530 C   0  0  0  0  0  0  0  0  0  0  0  0
   37.2580   32.2790   37.5640 F   0  0  0  0  0  0  0  0  0  0  0  0
   36.9060   33.7550   39.1740 F   0  0  0  0  0  0  0  0  0  0  0  0
   36.4310   31.5230   39.5190 F   0  0  0  0  0  0  0  0  0  0  0  0
  1  5  2  0  0  0  0
  2  3  2  0  0  0  0
  2  1  1  0  0  0  0
  3  4  1  0  0  0  0
  4  5  1  0  0  0  0
  4 16  1  0  0  0  0
  6  2  1  0  0  0  0
  7  8  1  0  0  0  0
  8  9  1  0  0  0  0
  9 10  2  0  0  0  0
  9  3  1  0  0  0  0
 10 11  1  0  0  0  0
 12 13  1  0  0  0  0
 12 10  1  0  0  0  0
 14 12  2  0  0  0  0
 15 14  1  0  0  0  0
 15  8  2  0  0  0  0
 16 19  1  0  0  0  0
 16 18  1  0  0  0  0
 17 16  1  0  0  0  0
 20 22  1  0  0  0  0
 20  1  1  0  0  0  0
 20 21  1  0  0  0  0
 23 30  1  0  0  0  0
 23 20  1  0  0  0  0
 24 23  1  0  0  0  0
 25 23  1  0  0  0  0
 26 32  1  0  0  0  0
 27 33  1  0  0  0  0
 27 26  2  0  0  0  0
 28 27  1  0  0  0  0
 29 28  2  0  0  0  0
 29 30  1  0  0  0  0
 30 31  2  0  0  0  0
 31 26  1  0  0  0  0
 34 36  1  0  0  0  0
 34 28  1  0  0  0  0
 34 37  1  0  0  0  0
 35 34  1  0  0  0  0
M  END
>  <minimizedAffinity>
-5.83649158

$$$$

 OpenBabel03242515193D

 37 39  0  0  0  0  0  0  0  0999 V2000
   37.8950   28.9280   42.6010 C   0  0  0  0  0  0  0  0  0  0  0  0
   38.7440   29.9750   42.3250 C   0  0  0  0  0  0  0  0  0  0  0  0
   38.2470   30.6160   41.2010 C   0  0  0  0  0  0  0  0  0  0  0  0
   37.1490   29.9770   40.8230 N   0  0  0  0  0  0  0  0  0  0  0  0
   36.9490   28.9650   41.6750 N   0  0  0  0  0  0  0  0  0  0  0  0
   39.6100   30.1640   42.9440 H   0  0  0  0  0  0  0  0  0  0  0  0
   40.2450   29.6470   39.1600 Br  0  0  0  0  0  0  0  0  0  0  0  0
   39.9890   31.4680   39.7360 C   0  0  0  0  0  0  0  0  0  0  0  0
   38.9970   31.7450   40.6940 C   0  0  0  0  0  0  0  0  0  0  0  0
   38.9570   33.0870   40.9810 C   0  0  0  0  0  0  0  0  0  0  0  0
   38.2400   33.3980   41.7200 H   0  0  0  0  0  0  0  0  0  0  0  0
   39.7650   34.0440   40.4210 C   0  0  0  0  0  0  0  0  0  0  0  0
   39.6340   35.0710   40.7330 H   0  0  0  0  0  0  0  0  0  0  0  0
   40.7060   33.6970   39.4960 C   0  0  0  0  0  3  0  0  0  0  0  0
   40.8240   32.3720   39.1420 C   0  0  0  0  0  3  0  0  0  0  0  0
   36.3040   30.2900   39.6720 C   0  0  0  0  0  0  0  0  0  0  0  0
   34.9890   29.8420   39.9310 F   0  0  0  0  0  0  0  0  0  0  0  0
   36.7990   29.7200   38.5320 F   0  0  0  0  0  0  0  0  0  0  0  0
   36.2140   31.6430   39.5340 F   0  0  0  0  0  0  0  0  0  0  0  0
   37.9570   27.9350   43.6800 C   0  0  0  0  0  0  0  0  0  0  0  0
   37.9500   28.4740   44.6420 H   0  0  0  0  0  0  0  0  0  0  0  0
   37.0460   27.2950   43.6850 H   0  0  0  0  0  0  0  0  0  0  0  0
   39.2440   27.1430   43.6350 C   0  0  0  0  0  0  0  0  0  0  0  0
   40.0730   27.8980   43.7560 H   0  0  0  0  0  0  0  0  0  0  0  0
   39.2600   26.5310   44.5250 H   0  0  0  0  0  0  0  0  0  0  0  0
   40.3540   25.7180   40.3770 C   0  0  0  0  0  0  0  0  0  0  0  0
   39.3060   24.7940   40.1270 C   0  0  0  0  0  0  0  0  0  0  0  0
   38.3000   24.7160   41.0710 C   0  0  0  0  0  0  0  0  0  0  0  0
   38.4150   25.5250   42.1360 N   0  0  0  0  0  0  0  0  0  0  0  0
   39.4000   26.3890   42.3650 C   0  0  0  0  0  0  0  0  0  0  0  0
   40.3680   26.4750   41.4710 N   0  0  0  0  0  0  0  0  0  0  0  0
   41.1650   25.8000   39.6400 H   0  0  0  0  0  0  0  0  0  0  0  0
   39.3810   24.2270   39.2170 H   0  0  0  0  0  0  0  0  0  0  0  0
   37.2350   23.7610   40.8030 C   0  0  0  0  0  0  0  0  0  0  0  0
   36.7050   24.0090   39.5350 F   0  0  0  0  0  0  0  0  0  0  0  0
   36.1990   24.0730   41.6880 F   0  0  0  0  0  0  0  0  0  0  0  0
   37.6410   22.4620   40.8800 F   0  0  0  0  0  0  0  0  0  0  0  0
  1 20  1  0  0  0  0
  2  1  1  0  0  0  0
  2  6  1  0  0  0  0
  3  2  2  0  0  0  0
  4  3  1  0  0  0  0
  4  5  1  0  0  0  0
  5  1  2  0  0  0  0
  7  8  1  0  0  0  0
  8  9  1  0  0  0  0
  9 10  2  0  0  0  0
  9  3  1  0  0  0  0
 10 11  1  0  0  0  0
 12 13  1  0  0  0  0
 12 10  1  0  0  0  0
 14 12  2  0  0  0  0
 15 14  1  0  0  0  0
 15  8  2  0  0  0  0
 16 17  1  0  0  0  0
 16  4  1  0  0  0  0
 18 16  1  0  0  0  0
 19 16  1  0  0  0  0
 20 22  1  0  0  0  0
 20 21  1  0  0  0  0
 23 20  1  0  0  0  0
 23 24  1  0  0  0  0
 23 25  1  0  0  0  0
 26 31  1  0  0  0  0
 27 26  2  0  0  0  0
 27 28  1  0  0  0  0
 28 29  2  0  0  0  0
 29 30  1  0  0  0  0
 30 23  1  0  0  0  0
 31 30  2  0  0  0  0
 32 26  1  0  0  0  0
 33 27  1  0  0  0  0
 34 37  1  0  0  0  0
 34 28  1  0  0  0  0
 34 36  1  0  0  0  0
 35 34  1  0  0  0  0
M  END
>  <minimizedAffinity>
-5.7886157

$$$$
