
 OpenBabel03252509263D

 30 32  0  0  1  0  0  0  0  0999 V2000
   46.4900   34.9900   41.9670 C   0  0  1  0  0  0  0  0  0  0  0  0
   48.0120   35.2950   41.9650 C   0  0  0  0  0  0  0  0  0  0  0  0
   47.3360   34.0050   41.4310 C   0  0  2  0  0  0  0  0  0  0  0  0
   45.8960   35.6950   41.3490 H   0  0  0  0  0  0  0  0  0  0  0  0
   48.3110   36.0340   41.1960 H   0  0  0  0  0  0  0  0  0  0  0  0
   48.5670   35.2300   42.9080 H   0  0  0  0  0  0  0  0  0  0  0  0
   47.6480   33.0980   42.0360 H   0  0  0  0  0  0  0  0  0  0  0  0
   44.6140   35.5120   45.1740 C   0  0  0  0  0  0  0  0  0  0  0  0
   45.0840   35.7640   43.8540 C   0  0  0  0  0  0  0  0  0  0  0  0
   45.9800   34.8610   43.3850 C   0  0  0  0  0  0  0  0  0  0  0  0
   46.4090   33.7750   44.1370 N   0  0  0  0  0  0  0  0  0  0  0  0
   45.9240   33.5920   45.3900 C   0  0  0  0  0  0  0  0  0  0  0  0
   45.0220   34.4710   45.9010 N   0  0  0  0  0  0  0  0  0  0  0  0
   43.8950   36.2030   45.5980 H   0  0  0  0  0  0  0  0  0  0  0  0
   46.3540   32.7070   45.8390 H   0  0  0  0  0  0  0  0  0  0  0  0
   44.6820   36.8800   43.1010 N   0  0  0  0  0  0  0  0  0  0  0  0
   44.0370   36.5540   42.3540 H   0  0  0  0  0  0  0  0  0  0  0  0
   45.0310   37.8530   43.3320 H   0  0  0  0  0  0  0  0  0  0  0  0
   47.3870   33.7140   39.9490 C   0  0  0  0  0  0  0  0  0  0  0  0
   46.3990   33.3510   39.5740 H   0  0  0  0  0  0  0  0  0  0  0  0
   47.6130   34.6560   39.4260 H   0  0  0  0  0  0  0  0  0  0  0  0
   48.2790   34.0450   37.0470 Br  0  0  0  0  0  0  0  0  0  0  0  0
   48.9470   32.8180   38.3380 C   0  0  0  0  0  0  0  0  0  0  0  0
   48.4600   32.7560   39.6410 C   0  0  0  0  0  0  0  0  0  0  0  0
   48.9930   31.8420   40.5150 C   0  0  0  0  0  0  0  0  0  0  0  0
   48.5590   31.8590   41.5120 H   0  0  0  0  0  0  0  0  0  0  0  0
   49.9980   30.9510   40.2080 C   0  0  0  0  0  0  0  0  0  0  0  0
   50.3890   30.2530   40.9110 H   0  0  0  0  0  0  0  0  0  0  0  0
   50.4670   31.0320   38.8990 C   0  0  0  0  0  3  0  0  0  0  0  0
   49.9620   31.9310   37.9920 C   0  0  0  0  0  3  0  0  0  0  0  0
  1  4  1  6  0  0  0
  1 10  1  0  0  0  0
  2  1  1  0  0  0  0
  2  6  1  0  0  0  0
  3  2  1  0  0  0  0
  3  1  1  0  0  0  0
  3  7  1  1  0  0  0
  5  2  1  0  0  0  0
  8 14  1  0  0  0  0
  8 13  1  0  0  0  0
  9  8  2  0  0  0  0
 10  9  1  0  0  0  0
 10 11  2  0  0  0  0
 11 12  1  0  0  0  0
 12 15  1  0  0  0  0
 12 13  2  0  0  0  0
 16 18  1  0  0  0  0
 16  9  1  0  0  0  0
 17 16  1  0  0  0  0
 19  3  1  0  0  0  0
 20 19  1  0  0  0  0
 21 19  1  0  0  0  0
 22 23  1  0  0  0  0
 23 24  1  0  0  0  0
 24 19  1  0  0  0  0
 24 25  2  0  0  0  0
 25 26  1  0  0  0  0
 27 25  1  0  0  0  0
 27 28  1  0  0  0  0
 29 27  2  0  0  0  0
 30 23  2  0  0  0  0
 30 29  1  0  0  0  0
M  END
>  <minimizedAffinity>
-5.08247328

>  <minimizedRMSD>
0.336510152

$$$$
