
 OpenBabel03242522333D

 21 22  0  0  0  0  0  0  0  0999 V2000
   46.8510   32.6530   46.2490 C   0  0  0  0  0  0  0  0  0  0  0  0
   47.0600   33.1320   47.2520 H   0  0  0  0  0  0  0  0  0  0  0  0
   47.8430   32.4320   45.8300 H   0  0  0  0  0  0  0  0  0  0  0  0
   44.5610   35.3710   45.0980 C   0  0  0  0  0  0  0  0  0  0  0  0
   45.0170   35.5960   43.7960 C   0  0  0  0  0  0  0  0  0  0  0  0
   46.0810   34.8280   43.3430 C   0  0  0  0  0  0  0  0  0  0  0  0
   46.6360   33.8980   44.1650 N   0  0  0  0  0  0  0  0  0  0  0  0
   46.1630   33.7030   45.4390 C   0  0  0  0  0  0  0  0  0  0  0  0
   45.1330   34.4510   45.8700 N   0  0  0  0  0  0  0  0  0  0  0  0
   43.7290   35.9290   45.5370 H   0  0  0  0  0  0  0  0  0  0  0  0
   44.5210   36.3550   43.2040 H   0  0  0  0  0  0  0  0  0  0  0  0
   46.4490   34.9840   42.3450 H   0  0  0  0  0  0  0  0  0  0  0  0
   45.7950   31.8900   49.1280 Br  0  0  0  0  0  0  0  0  0  0  0  0
   45.5160   30.8890   47.5050 C   0  0  0  0  0  0  0  0  0  0  0  0
   46.0730   31.4180   46.3610 C   0  0  0  0  0  0  0  0  0  0  0  0
   45.8440   30.6560   45.2100 C   0  0  0  0  0  0  0  0  0  0  0  0
   46.2670   31.0350   44.2680 H   0  0  0  0  0  0  0  0  0  0  0  0
   45.1240   29.4800   45.1990 C   0  0  0  0  0  0  0  0  0  0  0  0
   45.0130   28.9790   44.2470 H   0  0  0  0  0  0  0  0  0  0  0  0
   44.6000   29.0200   46.3820 C   0  0  0  0  0  3  0  0  0  0  0  0
   44.7870   29.7200   47.5640 C   0  0  0  0  0  3  0  0  0  0  0  0
  1 15  1  0  0  0  0
  1  2  1  0  0  0  0
  3  1  1  0  0  0  0
  4 10  1  0  0  0  0
  4  9  1  0  0  0  0
  5  4  2  0  0  0  0
  6  5  1  0  0  0  0
  6  7  2  0  0  0  0
  7  8  1  0  0  0  0
  8  9  2  0  0  0  0
  8  1  1  0  0  0  0
 11  5  1  0  0  0  0
 12  6  1  0  0  0  0
 14 21  1  0  0  0  0
 14 13  1  0  0  0  0
 15 14  2  0  0  0  0
 16 15  1  0  0  0  0
 17 16  1  0  0  0  0
 18 16  2  0  0  0  0
 18 20  1  0  0  0  0
 19 18  1  0  0  0  0
 20 21  2  0  0  0  0
M  END
>  <minimizedAffinity>
-4.38994408

>  <minimizedRMSD>
1.26539028

$$$$
