
 OpenBabel03242520533D

 27 28  0  0  0  0  0  0  0  0999 V2000
   45.9340   33.0450   46.3530 C   0  0  0  0  0  3  0  0  0  0  0  0
   45.2620   32.9570   47.4550 C   0  0  0  0  0  3  0  0  0  0  0  0
   44.4310   35.9890   44.7410 C   0  0  0  0  0  0  0  0  0  0  0  0
   45.1080   36.0230   43.5190 C   0  0  0  0  0  0  0  0  0  0  0  0
   46.0690   35.0470   43.2480 C   0  0  0  0  0  0  0  0  0  0  0  0
   46.3010   34.1010   44.1980 N   0  0  0  0  0  0  0  0  0  0  0  0
   45.6320   34.0990   45.3640 C   0  0  0  0  0  0  0  0  0  0  0  0
   44.7070   35.0320   45.6330 N   0  0  0  0  0  0  0  0  0  0  0  0
   43.7000   36.7410   44.9320 H   0  0  0  0  0  0  0  0  0  0  0  0
   44.9550   36.7410   42.7540 H   0  0  0  0  0  0  0  0  0  0  0  0
   46.8180   34.9450   42.0950 O   0  0  0  0  0  0  0  0  0  0  0  0
   46.2620   34.1880   41.0250 C   0  0  0  0  0  0  0  0  0  0  0  0
   45.0010   34.7050   40.7230 F   0  0  0  0  0  0  0  0  0  0  0  0
   47.1080   34.3710   39.9170 F   0  0  0  0  0  0  0  0  0  0  0  0
   46.1950   32.8430   41.3330 F   0  0  0  0  0  0  0  0  0  0  0  0
   45.4860   31.9470   48.5170 C   0  0  0  0  0  0  0  0  0  0  0  0
   44.6450   31.9470   49.2350 H   0  0  0  0  0  0  0  0  0  0  0  0
   46.4060   32.2680   49.0690 H   0  0  0  0  0  0  0  0  0  0  0  0
   48.4220   31.2820   48.8770 Br  0  0  0  0  0  0  0  0  0  0  0  0
   47.0330   30.2200   48.0870 C   0  0  0  0  0  0  0  0  0  0  0  0
   45.7050   30.5910   47.9550 C   0  0  0  0  0  0  0  0  0  0  0  0
   44.8050   29.7300   47.3650 C   0  0  0  0  0  0  0  0  0  0  0  0
   43.7960   30.1440   47.3250 H   0  0  0  0  0  0  0  0  0  0  0  0
   45.2430   28.4980   46.9110 C   0  0  0  0  0  0  0  0  0  0  0  0
   44.4840   27.8810   46.4640 H   0  0  0  0  0  0  0  0  0  0  0  0
   46.5640   28.1320   47.0440 C   0  0  0  0  0  3  0  0  0  0  0  0
   47.4980   28.9840   47.6370 C   0  0  0  0  0  3  0  0  0  0  0  0
  1  2  2  0  0  0  0
  2 16  1  0  0  0  0
  3  9  1  0  0  0  0
  3  8  1  0  0  0  0
  4  3  2  0  0  0  0
  5  4  1  0  0  0  0
  5  6  2  0  0  0  0
  6  7  1  0  0  0  0
  7  8  2  0  0  0  0
  7  1  1  0  0  0  0
 10  4  1  0  0  0  0
 11  5  1  0  0  0  0
 12 15  1  0  0  0  0
 12 11  1  0  0  0  0
 13 12  1  0  0  0  0
 14 12  1  0  0  0  0
 16 18  1  0  0  0  0
 16 17  1  0  0  0  0
 20 19  1  0  0  0  0
 21 20  1  0  0  0  0
 21 16  1  0  0  0  0
 22 21  2  0  0  0  0
 23 22  1  0  0  0  0
 24 26  2  0  0  0  0
 24 22  1  0  0  0  0
 25 24  1  0  0  0  0
 26 27  1  0  0  0  0
 27 20  2  0  0  0  0
M  END
>  <minimizedAffinity>
-5.60303545

>  <minimizedRMSD>
1.20475066

$$$$
