
 OpenBabel03242515463D

 41 44  0  0  1  0  0  0  0  0999 V2000
   39.7830   34.5940   40.4870 C   0  0  0  0  0  0  0  0  0  0  0  0
   40.8990   33.8800   40.9240 C   0  0  0  0  0  0  0  0  0  0  0  0
   40.9470   32.5030   40.8390 C   0  0  0  0  0  0  0  0  0  0  0  0
   39.8880   31.8050   40.3160 C   0  0  0  0  0  0  0  0  0  0  0  0
   38.7740   32.4920   39.8770 C   0  0  0  0  0  0  0  0  0  0  0  0
   38.6970   33.8590   39.9500 C   0  0  0  0  0  0  0  0  0  0  0  0
   37.8730   31.5180   39.4020 O   0  0  0  0  0  0  0  0  0  0  0  0
   38.3080   30.2870   39.8230 C   0  0  2  0  0  0  0  0  0  0  0  0
   39.6800   30.4370   40.1160 O   0  0  0  0  0  0  0  0  0  0  0  0
   39.6670   35.6690   40.5200 H   0  0  0  0  0  0  0  0  0  0  0  0
   41.8550   32.0470   41.2050 H   0  0  0  0  0  0  0  0  0  0  0  0
   37.8240   34.3990   39.6060 H   0  0  0  0  0  0  0  0  0  0  0  0
   37.8230   30.0840   40.8220 H   0  0  0  0  0  0  0  0  0  0  0  0
   37.4820   27.6800   41.3620 Br  0  0  0  0  0  0  0  0  0  0  0  0
   37.6350   27.9140   39.4650 C   0  0  0  0  0  0  0  0  0  0  0  0
   38.0180   29.1510   38.9380 C   0  0  0  0  0  0  0  0  0  0  0  0
   38.1080   29.2480   37.5650 C   0  0  0  0  0  0  0  0  0  0  0  0
   38.3960   30.1670   37.0820 H   0  0  0  0  0  0  0  0  0  0  0  0
   37.8310   28.1650   36.7310 C   0  0  0  0  0  0  0  0  0  0  0  0
   37.9070   28.2590   35.6520 H   0  0  0  0  0  0  0  0  0  0  0  0
   37.4560   26.9510   37.2490 C   0  0  0  0  0  3  0  0  0  0  0  0
   37.3660   26.8580   38.6230 C   0  0  0  0  0  3  0  0  0  0  0  0
   42.1880   34.9530   41.5550 S   0  0  0  0  0  0  0  0  0  0  0  0
   43.8110   34.3860   40.9410 C   0  0  0  0  0  0  0  0  0  0  0  0
   43.8830   34.1320   39.6210 C   0  0  0  0  0  0  0  0  0  0  0  0
   45.1220   33.6810   39.1680 C   0  0  0  0  0  0  0  0  0  0  0  0
   46.1620   33.5190   40.0070 N   0  0  0  0  0  0  0  0  0  0  0  0
   46.0390   33.7900   41.3220 C   0  0  0  0  0  0  0  0  0  0  0  0
   44.8520   34.2190   41.7480 N   0  0  0  0  0  0  0  0  0  0  0  0
   45.3120   33.3580   37.7750 N   0  0  0  0  0  0  0  0  0  0  0  0
   45.2350   34.0210   36.9470 H   0  0  0  0  0  0  0  0  0  0  0  0
   45.5470   32.3680   37.5750 H   0  0  0  0  0  0  0  0  0  0  0  0
   42.9280   34.2400   38.4740 C   0  0  0  0  0  0  0  0  0  0  0  0
   42.1580   34.9670   38.8090 H   0  0  0  0  0  0  0  0  0  0  0  0
   42.5110   33.2450   38.2910 H   0  0  0  0  0  0  0  0  0  0  0  0
   43.4050   34.7190   37.5920 H   0  0  0  0  0  0  0  0  0  0  0  0
   47.0460   33.6570   42.2560 O   0  0  0  0  0  0  0  0  0  0  0  0
   48.1660   34.5180   42.1410 C   0  0  0  0  0  0  0  0  0  0  0  0
   48.9840   34.1410   41.1200 F   0  0  0  0  0  0  0  0  0  0  0  0
   47.6560   35.8130   41.9480 F   0  0  0  0  0  0  0  0  0  0  0  0
   48.8910   34.4440   43.3110 F   0  0  0  0  0  0  0  0  0  0  0  0
  1 10  1  0  0  0  0
  1  2  1  0  0  0  0
  2 23  1  0  0  0  0
  3  2  2  0  0  0  0
  3 11  1  0  0  0  0
  4  3  1  0  0  0  0
  5  6  1  0  0  0  0
  5  4  2  0  0  0  0
  6  1  2  0  0  0  0
  7  8  1  0  0  0  0
  7  5  1  0  0  0  0
  8  9  1  0  0  0  0
  8 13  1  1  0  0  0
  9  4  1  0  0  0  0
 12  6  1  0  0  0  0
 15 14  1  0  0  0  0
 16 15  1  0  0  0  0
 16  8  1  0  0  0  0
 17 16  2  0  0  0  0
 18 17  1  0  0  0  0
 19 21  2  0  0  0  0
 19 17  1  0  0  0  0
 20 19  1  0  0  0  0
 21 22  1  0  0  0  0
 22 15  2  0  0  0  0
 24 23  1  0  0  0  0
 24 29  1  0  0  0  0
 25 24  2  0  0  0  0
 26 25  1  0  0  0  0
 26 27  2  0  0  0  0
 27 28  1  0  0  0  0
 28 29  2  0  0  0  0
 28 37  1  0  0  0  0
 30 26  1  0  0  0  0
 31 30  1  0  0  0  0
 32 30  1  0  0  0  0
 33 34  1  0  0  0  0
 33 25  1  0  0  0  0
 35 33  1  0  0  0  0
 36 33  1  0  0  0  0
 38 37  1  0  0  0  0
 38 41  1  0  0  0  0
 39 38  1  0  0  0  0
 40 38  1  0  0  0  0
M  END
>  <minimizedAffinity>
-5.35115194

>  <minimizedRMSD>
1.88195944

$$$$
