
 OpenBabel03252503153D

 36 39  0  0  0  0  0  0  0  0999 V2000
   45.5500   34.4700   41.3720 C   0  0  0  0  0  0  0  0  0  0  0  0
   46.7560   34.6590   40.9970 O   0  0  0  0  0  0  0  0  0  0  0  0
   44.4490   34.0430   40.4500 C   0  0  0  0  0  0  0  0  0  0  0  0
   43.1030   34.2690   40.6460 C   0  0  0  0  0  0  0  0  0  0  0  0
   42.4960   33.7170   39.5770 N   0  0  0  0  0  0  0  0  0  0  0  0
   43.4290   33.1810   38.7690 C   0  0  0  0  0  0  0  0  0  0  0  0
   44.6440   33.3800   39.3030 N   0  0  0  0  0  0  0  0  0  0  0  0
   43.3000   32.4880   37.5220 N   0  0  0  0  0  0  0  0  0  0  0  0
   42.6220   34.7690   41.4570 H   0  0  0  0  0  0  0  0  0  0  0  0
   43.8350   31.5990   37.3800 H   0  0  0  0  0  0  0  0  0  0  0  0
   42.6510   32.9460   36.8230 H   0  0  0  0  0  0  0  0  0  0  0  0
   41.4740   35.9980   37.7310 Br  0  0  0  0  0  0  0  0  0  0  0  0
   40.4390   34.5770   38.4570 C   0  0  0  0  0  0  0  0  0  0  0  0
   41.1040   33.6590   39.2640 C   0  0  0  0  0  0  0  0  0  0  0  0
   40.4130   32.6030   39.8230 C   0  0  0  0  0  0  0  0  0  0  0  0
   40.8720   31.8580   40.4590 H   0  0  0  0  0  0  0  0  0  0  0  0
   39.0620   32.4760   39.5680 C   0  0  0  0  0  0  0  0  0  0  0  0
   38.4530   31.6710   39.9730 H   0  0  0  0  0  0  0  0  0  0  0  0
   38.3610   33.3730   38.7660 C   0  0  0  0  0  3  0  0  0  0  0  0
   39.0850   34.4330   38.2120 C   0  0  0  0  0  3  0  0  0  0  0  0
   44.8790   35.9580   43.1960 C   0  0  0  0  0  0  0  0  0  0  0  0
   45.2960   34.6910   42.7480 C   0  0  0  0  0  0  0  0  0  0  0  0
   45.4220   33.7410   43.7350 C   0  0  0  0  0  0  0  0  0  0  0  0
   45.1640   34.0100   45.0300 N   0  0  0  0  0  0  0  0  0  0  0  0
   44.7660   35.2490   45.4080 C   0  0  0  0  0  0  0  0  0  0  0  0
   44.6260   36.2130   44.4890 N   0  0  0  0  0  0  0  0  0  0  0  0
   44.7450   36.7830   42.5050 H   0  0  0  0  0  0  0  0  0  0  0  0
   44.5750   35.4040   46.4590 H   0  0  0  0  0  0  0  0  0  0  0  0
   45.8390   32.4360   43.3770 C   0  0  0  0  0  0  0  0  0  0  0  0
   47.0380   31.8020   43.2700 C   0  0  0  0  0  0  0  0  0  0  0  0
   47.1260   30.5410   42.9030 C   0  0  0  0  0  0  0  0  0  0  0  0
   45.9760   29.8870   42.6320 C   0  0  0  0  0  0  0  0  0  0  0  0
   44.6950   31.1510   42.9190 S   0  0  0  0  0  0  0  0  0  0  0  0
   47.9110   32.4390   43.5170 H   0  0  0  0  0  0  0  0  0  0  0  0
   48.0380   29.9680   42.7950 H   0  0  0  0  0  0  0  0  0  0  0  0
   45.7570   28.8500   42.3100 H   0  0  0  0  0  0  0  0  0  0  0  0
  1 22  1  0  0  0  0
  2  1  2  0  0  0  0
  3  4  2  0  0  0  0
  3  1  1  0  0  0  0
  4  9  1  0  0  0  0
  5  4  1  0  0  0  0
  6  7  2  0  0  0  0
  6  5  1  0  0  0  0
  7  3  1  0  0  0  0
  8  6  1  0  0  0  0
 10  8  1  0  0  0  0
 11  8  1  0  0  0  0
 12 13  1  0  0  0  0
 13 14  1  0  0  0  0
 14  5  1  0  0  0  0
 14 15  2  0  0  0  0
 15 16  1  0  0  0  0
 17 15  1  0  0  0  0
 17 18  1  0  0  0  0
 19 17  2  0  0  0  0
 20 13  2  0  0  0  0
 20 19  1  0  0  0  0
 21 26  1  0  0  0  0
 22 21  2  0  0  0  0
 22 23  1  0  0  0  0
 23 24  2  0  0  0  0
 24 25  1  0  0  0  0
 25 28  1  0  0  0  0
 26 25  2  0  0  0  0
 27 21  1  0  0  0  0
 29 23  1  0  0  0  0
 30 29  2  0  0  0  0
 30 34  1  0  0  0  0
 31 30  1  0  0  0  0
 32 31  2  0  0  0  0
 32 33  1  0  0  0  0
 33 29  1  0  0  0  0
 35 31  1  0  0  0  0
 36 32  1  0  0  0  0
M  END
>  <minimizedAffinity>
-6.14698362

>  <minimizedRMSD>
1.74999261

$$$$
