
 OpenBabel03252504543D

 21 22  0  0  0  0  0  0  0  0999 V2000
   46.6790   35.0410   41.9880 C   0  0  0  0  0  0  0  0  0  0  0  0
   47.6780   35.5310   42.1470 H   0  0  0  0  0  0  0  0  0  0  0  0
   46.0460   35.6370   41.3020 H   0  0  0  0  0  0  0  0  0  0  0  0
   44.4820   35.8890   44.8640 C   0  0  0  0  0  0  0  0  0  0  0  0
   45.1010   35.9800   43.6030 C   0  0  0  0  0  0  0  0  0  0  0  0
   46.0220   34.9760   43.2960 C   0  0  0  0  0  0  0  0  0  0  0  0
   46.2710   33.9860   44.2070 N   0  0  0  0  0  0  0  0  0  0  0  0
   45.6430   33.9550   45.4030 C   0  0  0  0  0  0  0  0  0  0  0  0
   44.7550   34.9020   45.7260 N   0  0  0  0  0  0  0  0  0  0  0  0
   43.7610   36.6590   45.1290 H   0  0  0  0  0  0  0  0  0  0  0  0
   44.8720   36.7840   42.9100 H   0  0  0  0  0  0  0  0  0  0  0  0
   45.9790   33.0910   45.9740 H   0  0  0  0  0  0  0  0  0  0  0  0
   44.1330   34.0080   40.4400 Br  0  0  0  0  0  0  0  0  0  0  0  0
   45.8340   33.1570   40.7030 C   0  0  0  0  0  0  0  0  0  0  0  0
   46.9080   33.6890   41.4110 C   0  0  0  0  0  0  0  0  0  0  0  0
   48.0640   32.9610   41.5210 C   0  0  0  0  0  0  0  0  0  0  0  0
   48.8800   33.4040   42.0790 H   0  0  0  0  0  0  0  0  0  0  0  0
   48.1190   31.7140   40.9150 C   0  0  0  0  0  0  0  0  0  0  0  0
   49.0500   31.1580   41.0150 H   0  0  0  0  0  0  0  0  0  0  0  0
   47.0780   31.1650   40.2110 C   0  0  0  0  0  3  0  0  0  0  0  0
   45.9040   31.9040   40.1000 C   0  0  0  0  0  3  0  0  0  0  0  0
  1  2  1  0  0  0  0
  1  6  1  0  0  0  0
  3  1  1  0  0  0  0
  4 10  1  0  0  0  0
  4  9  1  0  0  0  0
  5  4  2  0  0  0  0
  6  5  1  0  0  0  0
  6  7  2  0  0  0  0
  7  8  1  0  0  0  0
  8  9  2  0  0  0  0
  8 12  1  0  0  0  0
 11  5  1  0  0  0  0
 13 14  1  0  0  0  0
 14 15  1  0  0  0  0
 15 16  2  0  0  0  0
 15  1  1  0  0  0  0
 16 17  1  0  0  0  0
 18 19  1  0  0  0  0
 18 16  1  0  0  0  0
 20 18  2  0  0  0  0
 21 20  1  0  0  0  0
 21 14  2  0  0  0  0
M  END
>  <minimizedAffinity>
-3.7461772

>  <minimizedRMSD>
1.54287302

$$$$
