
 OpenBabel03252506203D

 33 35  0  0  0  0  0  0  0  0999 V2000
   44.9260   36.0130   43.1120 C   0  0  0  0  0  0  0  0  0  0  0  0
   44.3620   35.2700   42.0690 C   0  0  0  0  0  0  0  0  0  0  0  0
   44.2700   33.8870   42.2630 C   0  0  0  0  0  0  0  0  0  0  0  0
   44.7170   33.3530   43.4150 N   0  0  0  0  0  0  0  0  0  0  0  0
   45.2560   34.1010   44.4000 C   0  0  0  0  0  0  0  0  0  0  0  0
   45.3570   35.4420   44.2410 N   0  0  0  0  0  0  0  0  0  0  0  0
   44.0120   35.7050   41.1670 H   0  0  0  0  0  0  0  0  0  0  0  0
   43.8370   33.2330   41.4910 H   0  0  0  0  0  0  0  0  0  0  0  0
   47.7230   32.3920   44.0380 Cl  0  0  0  0  0  0  0  0  0  0  0  0
   46.8540   32.6190   45.5120 C   0  0  0  0  0  0  0  0  0  0  0  0
   45.7100   33.4280   45.6120 C   0  0  0  0  0  0  0  0  0  0  0  0
   45.0120   33.6190   46.7690 C   0  0  0  0  0  0  0  0  0  0  0  0
   45.4690   32.9740   47.8920 C   0  0  0  0  0  0  0  0  0  0  0  0
   46.5870   32.1490   47.9160 C   0  0  0  0  0  0  0  0  0  0  0  0
   47.2370   32.0090   46.7030 C   0  0  0  0  0  0  0  0  0  0  0  0
   44.1360   34.2500   46.8130 H   0  0  0  0  0  0  0  0  0  0  0  0
   44.9530   33.0910   48.8430 H   0  0  0  0  0  0  0  0  0  0  0  0
   46.9570   31.6400   48.7800 H   0  0  0  0  0  0  0  0  0  0  0  0
   48.1350   31.3750   46.6160 H   0  0  0  0  0  0  0  0  0  0  0  0
   45.0370   37.4800   42.9240 C   0  0  0  0  0  3  0  0  0  0  0  0
   45.3830   38.2120   43.9610 C   0  0  0  0  0  3  0  0  0  0  0  0
   45.5060   39.6900   43.7840 C   0  0  0  0  0  0  0  0  0  0  0  0
   44.8380   39.9720   42.9490 H   0  0  0  0  0  0  0  0  0  0  0  0
   46.5340   39.9860   43.5250 H   0  0  0  0  0  0  0  0  0  0  0  0
   44.6290   42.6400   43.2900 Br  0  0  0  0  0  0  0  0  0  0  0  0
   44.6250   41.7550   44.9820 C   0  0  0  0  0  0  0  0  0  0  0  0
   45.0620   40.4350   44.9670 C   0  0  0  0  0  0  0  0  0  0  0  0
   45.0680   39.7680   46.1970 C   0  0  0  0  0  0  0  0  0  0  0  0
   45.4050   38.7240   46.2290 H   0  0  0  0  0  0  0  0  0  0  0  0
   44.6620   40.3810   47.3630 C   0  0  0  0  0  0  0  0  0  0  0  0
   44.6940   39.7990   48.2860 H   0  0  0  0  0  0  0  0  0  0  0  0
   44.2360   41.6970   47.3270 C   0  0  0  0  0  3  0  0  0  0  0  0
   44.2080   42.4150   46.1240 C   0  0  0  0  0  3  0  0  0  0  0  0
  1  6  1  0  0  0  0
  2  3  1  0  0  0  0
  2  1  2  0  0  0  0
  3  4  2  0  0  0  0
  4  5  1  0  0  0  0
  5 11  1  0  0  0  0
  6  5  2  0  0  0  0
  7  2  1  0  0  0  0
  8  3  1  0  0  0  0
  9 10  1  0  0  0  0
 10 11  2  0  0  0  0
 10 15  1  0  0  0  0
 11 12  1  0  0  0  0
 12 16  1  0  0  0  0
 12 13  2  0  0  0  0
 13 14  1  0  0  0  0
 13 17  1  0  0  0  0
 14 18  1  0  0  0  0
 15 14  2  0  0  0  0
 19 15  1  0  0  0  0
 20  1  1  0  0  0  0
 20 21  2  0  0  0  0
 22 21  1  0  0  0  0
 22 27  1  0  0  0  0
 23 22  1  0  0  0  0
 24 22  1  0  0  0  0
 25 26  1  0  0  0  0
 26 33  1  0  0  0  0
 27 26  2  0  0  0  0
 27 28  1  0  0  0  0
 28 29  1  0  0  0  0
 28 30  2  0  0  0  0
 30 31  1  0  0  0  0
 32 30  1  0  0  0  0
 33 32  2  0  0  0  0
M  END
>  <minimizedAffinity>
-1.84961176

>  <minimizedRMSD>
3.42080498

$$$$
