
 OpenBabel03242515143D

 34 36  0  0  0  0  0  0  0  0999 V2000
   45.2830   31.2400   43.6410 C   0  0  0  0  0  0  0  0  0  0  0  0
   44.1660   31.3380   43.6020 H   0  0  0  0  0  0  0  0  0  0  0  0
   45.5820   30.6880   42.7160 H   0  0  0  0  0  0  0  0  0  0  0  0
   45.7000   30.5180   44.8630 C   0  0  0  0  0  0  0  0  0  0  0  0
   45.0870   29.4990   45.5400 C   0  0  0  0  0  0  0  0  0  0  0  0
   45.8770   29.1800   46.6080 C   0  0  0  0  0  0  0  0  0  0  0  0
   46.9490   29.9820   46.5900 N   0  0  0  0  0  0  0  0  0  0  0  0
   46.8200   30.7870   45.5200 N   0  0  0  0  0  0  0  0  0  0  0  0
   44.1610   29.0410   45.2750 H   0  0  0  0  0  0  0  0  0  0  0  0
   45.7490   28.4350   47.3830 H   0  0  0  0  0  0  0  0  0  0  0  0
   46.2850   32.0590   48.6710 Br  0  0  0  0  0  0  0  0  0  0  0  0
   47.9010   31.0560   48.4330 C   0  0  0  0  0  0  0  0  0  0  0  0
   48.0910   30.1170   47.4260 C   0  0  0  0  0  0  0  0  0  0  0  0
   49.2890   29.4400   47.3290 C   0  0  0  0  0  0  0  0  0  0  0  0
   49.3430   28.7240   46.5080 H   0  0  0  0  0  0  0  0  0  0  0  0
   50.3010   29.7020   48.2400 C   0  0  0  0  0  0  0  0  0  0  0  0
   51.2150   29.1410   48.1130 H   0  0  0  0  0  0  0  0  0  0  0  0
   50.0990   30.6400   49.2380 C   0  0  0  0  0  3  0  0  0  0  0  0
   48.9030   31.3260   49.3480 C   0  0  0  0  0  3  0  0  0  0  0  0
   45.7910   32.6530   43.6520 C   0  0  0  0  0  0  0  0  0  0  0  0
   45.0620   33.4020   43.9880 H   0  0  0  0  0  0  0  0  0  0  0  0
   46.6420   32.6770   44.3750 H   0  0  0  0  0  0  0  0  0  0  0  0
   46.3850   33.1950   39.9800 C   0  0  0  0  0  0  0  0  0  0  0  0
   47.4020   34.1790   40.0400 C   0  0  0  0  0  0  0  0  0  0  0  0
   47.8120   34.5880   41.3100 C   0  0  0  0  0  0  0  0  0  0  0  0
   47.2100   34.0150   42.3810 N   0  0  0  0  0  0  0  0  0  0  0  0
   46.2470   33.0810   42.2880 C   0  0  0  0  0  0  0  0  0  0  0  0
   45.8360   32.6740   41.0760 N   0  0  0  0  0  0  0  0  0  0  0  0
   46.0220   32.8350   39.0470 H   0  0  0  0  0  0  0  0  0  0  0  0
   47.7550   34.5120   39.0900 H   0  0  0  0  0  0  0  0  0  0  0  0
   48.8560   35.5990   41.3550 C   0  0  0  0  0  0  0  0  0  0  0  0
   50.0120   35.0480   41.9110 F   0  0  0  0  0  0  0  0  0  0  0  0
   48.4420   36.5570   42.2710 F   0  0  0  0  0  0  0  0  0  0  0  0
   49.1540   36.1260   40.1270 F   0  0  0  0  0  0  0  0  0  0  0  0
  1 20  1  0  0  0  0
  1  4  1  0  0  0  0
  2  1  1  0  0  0  0
  3  1  1  0  0  0  0
  4  8  2  0  0  0  0
  4  5  1  0  0  0  0
  5  6  2  0  0  0  0
  6 10  1  0  0  0  0
  7  6  1  0  0  0  0
  7 13  1  0  0  0  0
  8  7  1  0  0  0  0
  9  5  1  0  0  0  0
 12 11  1  0  0  0  0
 12 19  1  0  0  0  0
 13 12  2  0  0  0  0
 14 13  1  0  0  0  0
 14 16  2  0  0  0  0
 15 14  1  0  0  0  0
 16 18  1  0  0  0  0
 17 16  1  0  0  0  0
 18 19  2  0  0  0  0
 20 21  1  0  0  0  0
 20 22  1  0  0  0  0
 23 24  2  0  0  0  0
 23 28  1  0  0  0  0
 24 25  1  0  0  0  0
 25 31  1  0  0  0  0
 25 26  2  0  0  0  0
 27 26  1  0  0  0  0
 27 20  1  0  0  0  0
 28 27  2  0  0  0  0
 29 23  1  0  0  0  0
 30 24  1  0  0  0  0
 31 32  1  0  0  0  0
 31 33  1  0  0  0  0
 34 31  1  0  0  0  0
M  END
>  <minimizedAffinity>
-4.98662043

>  <minimizedRMSD>
4.3392477

$$$$
