
 OpenBabel03252503163D

 36 39  0  0  0  0  0  0  0  0999 V2000
   45.5480   34.4760   41.4490 C   0  0  0  0  0  0  0  0  0  0  0  0
   46.7580   34.6470   41.0800 O   0  0  0  0  0  0  0  0  0  0  0  0
   44.4480   34.0540   40.5250 C   0  0  0  0  0  0  0  0  0  0  0  0
   43.1010   34.2750   40.7240 C   0  0  0  0  0  0  0  0  0  0  0  0
   42.4940   33.7310   39.6520 N   0  0  0  0  0  0  0  0  0  0  0  0
   43.4280   33.2030   38.8380 C   0  0  0  0  0  0  0  0  0  0  0  0
   44.6420   33.4000   39.3730 N   0  0  0  0  0  0  0  0  0  0  0  0
   43.2980   32.5200   37.5860 N   0  0  0  0  0  0  0  0  0  0  0  0
   42.6200   34.7680   41.5400 H   0  0  0  0  0  0  0  0  0  0  0  0
   43.8350   31.6340   37.4360 H   0  0  0  0  0  0  0  0  0  0  0  0
   42.6480   32.9830   36.8910 H   0  0  0  0  0  0  0  0  0  0  0  0
   41.4870   35.9690   37.7440 Br  0  0  0  0  0  0  0  0  0  0  0  0
   40.4440   34.5720   38.5070 C   0  0  0  0  0  0  0  0  0  0  0  0
   41.1020   33.6730   39.3390 C   0  0  0  0  0  0  0  0  0  0  0  0
   40.4040   32.6350   39.9250 C   0  0  0  0  0  0  0  0  0  0  0  0
   40.8590   31.9050   40.5800 H   0  0  0  0  0  0  0  0  0  0  0  0
   39.0530   32.5100   39.6720 C   0  0  0  0  0  0  0  0  0  0  0  0
   38.4390   31.7190   40.0990 H   0  0  0  0  0  0  0  0  0  0  0  0
   38.3580   33.3900   38.8460 C   0  0  0  0  0  0  0  0  0  0  0  0
   39.0890   34.4300   38.2650 C   0  0  0  0  0  0  0  0  0  0  0  0
   44.8260   35.9680   43.2490 C   0  0  0  0  0  0  0  0  0  0  0  0
   45.2890   34.7100   42.8220 C   0  0  0  0  0  0  0  0  0  0  0  0
   45.4540   33.7840   43.8250 C   0  0  0  0  0  0  0  0  0  0  0  0
   45.1900   34.0650   45.1160 N   0  0  0  0  0  0  0  0  0  0  0  0
   44.7450   35.2940   45.4740 C   0  0  0  0  0  0  0  0  0  0  0  0
   44.5660   36.2360   44.5380 N   0  0  0  0  0  0  0  0  0  0  0  0
   44.6580   36.7750   42.5450 H   0  0  0  0  0  0  0  0  0  0  0  0
   44.5510   35.4610   46.5220 H   0  0  0  0  0  0  0  0  0  0  0  0
   45.9200   32.4890   43.4890 C   0  0  0  0  0  0  0  0  0  0  0  0
   47.1400   31.8920   43.4170 C   0  0  0  0  0  0  0  0  0  0  0  0
   47.2760   30.6320   43.0630 C   0  0  0  0  0  0  0  0  0  0  0  0
   46.1540   29.9400   42.7680 C   0  0  0  0  0  0  0  0  0  0  0  0
   44.8280   31.1660   43.0130 S   0  0  0  0  0  0  0  0  0  0  0  0
   47.9870   32.5570   43.6800 H   0  0  0  0  0  0  0  0  0  0  0  0
   48.2070   30.0860   42.9830 H   0  0  0  0  0  0  0  0  0  0  0  0
   45.9750   28.8940   42.4500 H   0  0  0  0  0  0  0  0  0  0  0  0
  1 22  1  0  0  0  0
  2  1  2  0  0  0  0
  3  4  2  0  0  0  0
  3  1  1  0  0  0  0
  4  9  1  0  0  0  0
  5  4  1  0  0  0  0
  6  7  2  0  0  0  0
  6  5  1  0  0  0  0
  7  3  1  0  0  0  0
  8  6  1  0  0  0  0
 10  8  1  0  0  0  0
 11  8  1  0  0  0  0
 12 13  1  0  0  0  0
 13 14  1  0  0  0  0
 14  5  1  0  0  0  0
 14 15  2  0  0  0  0
 15 16  1  0  0  0  0
 17 15  1  0  0  0  0
 17 18  1  0  0  0  0
 19 17  2  0  0  0  0
 20 13  2  0  0  0  0
 20 19  1  0  0  0  0
 21 26  1  0  0  0  0
 22 21  2  0  0  0  0
 22 23  1  0  0  0  0
 23 24  2  0  0  0  0
 24 25  1  0  0  0  0
 25 28  1  0  0  0  0
 26 25  2  0  0  0  0
 27 21  1  0  0  0  0
 29 23  1  0  0  0  0
 30 29  2  0  0  0  0
 30 34  1  0  0  0  0
 31 30  1  0  0  0  0
 32 33  1  0  0  0  0
 32 31  2  0  0  0  0
 33 29  1  0  0  0  0
 35 31  1  0  0  0  0
 36 32  1  0  0  0  0
M  END
>  <minimizedAffinity>
-6.17829847

>  <minimizedRMSD>
1.80290079

$$$$
