
 OpenBabel03242522333D

 21 22  0  0  0  0  0  0  0  0999 V2000
   46.9980   33.1150   46.0820 C   0  0  0  0  0  0  0  0  0  0  0  0
   46.8700   34.1270   46.5700 H   0  0  0  0  0  0  0  0  0  0  0  0
   48.0850   32.9550   46.0460 H   0  0  0  0  0  0  0  0  0  0  0  0
   44.8050   32.9800   43.0610 C   0  0  0  0  0  0  0  0  0  0  0  0
   45.5930   33.6280   42.1060 C   0  0  0  0  0  0  0  0  0  0  0  0
   46.8390   34.0930   42.5060 C   0  0  0  0  0  0  0  0  0  0  0  0
   47.2460   33.9050   43.7890 N   0  0  0  0  0  0  0  0  0  0  0  0
   46.4450   33.2630   44.7020 C   0  0  0  0  0  0  0  0  0  0  0  0
   45.2400   32.8170   44.3070 N   0  0  0  0  0  0  0  0  0  0  0  0
   43.8110   32.5820   42.8340 H   0  0  0  0  0  0  0  0  0  0  0  0
   45.1980   33.7370   41.1050 H   0  0  0  0  0  0  0  0  0  0  0  0
   47.4630   34.5950   41.7890 H   0  0  0  0  0  0  0  0  0  0  0  0
   47.8610   30.1650   45.3520 Br  0  0  0  0  0  0  0  0  0  0  0  0
   46.5800   30.6820   46.6960 C   0  0  0  0  0  0  0  0  0  0  0  0
   46.3620   32.0350   46.8380 C   0  0  0  0  0  0  0  0  0  0  0  0
   45.4250   32.3620   47.8260 C   0  0  0  0  0  0  0  0  0  0  0  0
   45.2140   33.4300   47.9810 H   0  0  0  0  0  0  0  0  0  0  0  0
   44.7680   31.4270   48.5980 C   0  0  0  0  0  0  0  0  0  0  0  0
   44.0640   31.7990   49.3310 H   0  0  0  0  0  0  0  0  0  0  0  0
   45.0410   30.0970   48.3940 C   0  0  0  0  0  3  0  0  0  0  0  0
   45.9580   29.6980   47.4340 C   0  0  0  0  0  3  0  0  0  0  0  0
  1  2  1  0  0  0  0
  1 15  1  0  0  0  0
  3  1  1  0  0  0  0
  4  9  1  0  0  0  0
  5  6  1  0  0  0  0
  5  4  2  0  0  0  0
  6  7  2  0  0  0  0
  7  8  1  0  0  0  0
  8  1  1  0  0  0  0
  9  8  2  0  0  0  0
 10  4  1  0  0  0  0
 11  5  1  0  0  0  0
 12  6  1  0  0  0  0
 13 14  1  0  0  0  0
 14 15  2  0  0  0  0
 14 21  1  0  0  0  0
 15 16  1  0  0  0  0
 16 17  1  0  0  0  0
 16 18  2  0  0  0  0
 18 19  1  0  0  0  0
 20 18  1  0  0  0  0
 21 20  2  0  0  0  0
M  END
>  <minimizedAffinity>
-3.61608481

>  <minimizedRMSD>
2.5716958

$$$$
