
 OpenBabel03252508023D

 42 45  0  0  1  0  0  0  0  0999 V2000
   42.0720   33.2490   41.1500 C   0  0  0  0  0  0  0  0  0  0  0  0
   42.8110   34.3860   41.3180 C   0  0  0  0  0  0  0  0  0  0  0  0
   42.1360   35.6210   41.2590 C   0  0  0  0  0  0  0  0  0  0  0  0
   40.7840   35.7380   41.0420 C   0  0  0  0  0  0  0  0  0  0  0  0
   40.0510   34.5920   40.8750 C   0  0  0  0  0  0  0  0  0  0  0  0
   40.6980   33.3930   40.9320 C   0  0  0  0  0  0  0  0  0  0  0  0
   42.6380   36.5760   41.3720 H   0  0  0  0  0  0  0  0  0  0  0  0
   40.2830   36.6850   40.9980 H   0  0  0  0  0  0  0  0  0  0  0  0
   38.9860   34.5830   40.7000 H   0  0  0  0  0  0  0  0  0  0  0  0
   40.1030   32.4740   40.7980 H   0  0  0  0  0  0  0  0  0  0  0  0
   42.7340   31.7080   41.2890 S   0  0  0  0  0  0  0  0  0  0  0  0
   41.6440   30.8660   40.5490 O   0  0  0  0  0  0  0  0  0  0  0  0
   42.7850   31.2210   42.6890 O   0  0  0  0  0  0  0  0  0  0  0  0
   43.5470   28.9390   42.4930 Br  0  0  0  0  0  0  0  0  0  0  0  0
   44.2460   29.6300   40.8280 C   0  0  0  0  0  0  0  0  0  0  0  0
   43.8710   30.9130   40.3350 C   0  0  0  0  0  0  0  0  0  0  0  0
   44.5090   31.1650   39.1270 C   0  0  0  0  0  0  0  0  0  0  0  0
   44.1620   32.1420   38.7400 H   0  0  0  0  0  0  0  0  0  0  0  0
   45.3930   30.4370   38.3680 C   0  0  0  0  0  0  0  0  0  0  0  0
   45.7630   30.8350   37.4600 H   0  0  0  0  0  0  0  0  0  0  0  0
   45.6280   29.2500   39.0010 C   0  0  0  0  0  3  0  0  0  0  0  0
   45.1170   28.7880   40.1810 C   0  0  0  0  0  3  0  0  0  0  0  0
   44.2420   34.3730   41.5540 C   0  0  0  0  0  0  0  0  0  0  0  0
   45.1200   34.3000   40.6420 O   0  0  0  0  0  0  0  0  0  0  0  0
   44.5880   34.4550   42.9530 C   0  0  0  0  0  0  0  0  0  0  0  0
   44.3080   35.7150   43.5870 C   0  0  0  0  0  0  0  0  0  0  0  0
   44.6280   35.8180   44.9290 C   0  0  0  0  0  0  0  0  0  0  0  0
   45.1760   34.7420   45.5500 N   0  0  0  0  0  0  0  0  0  0  0  0
   45.4230   33.5610   44.8980 C   0  0  0  0  0  0  0  0  0  0  0  0
   45.1290   33.4570   43.6480 N   0  0  0  0  0  0  0  0  0  0  0  0
   43.8870   36.5910   43.1740 H   0  0  0  0  0  0  0  0  0  0  0  0
   44.4700   36.7040   45.5240 H   0  0  0  0  0  0  0  0  0  0  0  0
   46.0130   32.4420   45.6580 C   0  0  1  0  0  0  0  0  0  0  0  0
   46.9690   32.7460   46.7910 C   0  0  0  0  0  0  0  0  0  0  0  0
   45.5530   32.3330   47.0610 C   0  0  1  0  0  0  0  0  0  0  0  0
   46.1370   31.4950   45.1080 H   0  0  0  0  0  0  0  0  0  0  0  0
   47.2770   33.8010   46.8630 H   0  0  0  0  0  0  0  0  0  0  0  0
   47.7220   31.9460   46.9740 H   0  0  0  0  0  0  0  0  0  0  0  0
   45.3520   31.3380   47.4860 H   0  0  0  0  0  0  0  0  0  0  0  0
   44.7710   33.4040   47.6600 N   0  0  0  0  0  0  0  0  0  0  0  0
   45.2230   33.8100   48.4860 H   0  0  0  0  0  0  0  0  0  0  0  0
   43.7770   33.1180   47.7930 H   0  0  0  0  0  0  0  0  0  0  0  0
  1 11  1  0  0  0  0
  1  2  1  0  0  0  0
  2 23  1  0  0  0  0
  3  2  2  0  0  0  0
  3  7  1  0  0  0  0
  4  3  1  0  0  0  0
  5  6  1  0  0  0  0
  5  4  2  0  0  0  0
  6  1  2  0  0  0  0
  8  4  1  0  0  0  0
  9  5  1  0  0  0  0
 10  6  1  0  0  0  0
 11 13  2  0  0  0  0
 12 11  2  0  0  0  0
 15 14  1  0  0  0  0
 16 15  1  0  0  0  0
 16 11  1  0  0  0  0
 17 16  2  0  0  0  0
 18 17  1  0  0  0  0
 19 21  2  0  0  0  0
 19 17  1  0  0  0  0
 20 19  1  0  0  0  0
 21 22  1  0  0  0  0
 22 15  2  0  0  0  0
 23 25  1  0  0  0  0
 24 23  2  0  0  0  0
 25 26  2  0  0  0  0
 25 30  1  0  0  0  0
 26 27  1  0  0  0  0
 27 32  1  0  0  0  0
 27 28  2  0  0  0  0
 29 28  1  0  0  0  0
 29 33  1  0  0  0  0
 30 29  2  0  0  0  0
 31 26  1  0  0  0  0
 33 36  1  6  0  0  0
 33 34  1  0  0  0  0
 33 35  1  0  0  0  0
 34 37  1  0  0  0  0
 34 38  1  0  0  0  0
 34 35  1  0  0  0  0
 35 39  1  1  0  0  0
 35 40  1  0  0  0  0
 40 42  1  0  0  0  0
 40 41  1  0  0  0  0
M  END
>  <minimizedAffinity>
-5.69989872

>  <minimizedRMSD>
1.1539278

$$$$
