
 OpenBabel03252504543D

 21 22  0  0  0  0  0  0  0  0999 V2000
   37.9940   28.1900   43.6790 C   0  0  0  0  0  0  0  0  0  0  0  0
   37.0610   28.2930   44.2980 H   0  0  0  0  0  0  0  0  0  0  0  0
   38.9020   28.3010   44.3040 H   0  0  0  0  0  0  0  0  0  0  0  0
   39.1040   31.0080   41.5250 C   0  0  0  0  0  0  0  0  0  0  0  0
   39.1540   29.9820   42.4870 C   0  0  0  0  0  0  0  0  0  0  0  0
   37.9710   29.2670   42.6870 C   0  0  0  0  0  0  0  0  0  0  0  0
   36.8570   29.5900   41.9620 N   0  0  0  0  0  0  0  0  0  0  0  0
   36.8730   30.5890   41.0510 C   0  0  0  0  0  0  0  0  0  0  0  0
   37.9920   31.2900   40.8380 N   0  0  0  0  0  0  0  0  0  0  0  0
   40.0120   31.5810   41.3500 H   0  0  0  0  0  0  0  0  0  0  0  0
   40.0620   29.7590   43.0400 H   0  0  0  0  0  0  0  0  0  0  0  0
   35.8930   30.6810   40.5870 H   0  0  0  0  0  0  0  0  0  0  0  0
   40.8720   26.9020   43.6800 Br  0  0  0  0  0  0  0  0  0  0  0  0
   39.2170   26.1990   43.0060 C   0  0  0  0  0  0  0  0  0  0  0  0
   37.9850   26.8450   43.0420 C   0  0  0  0  0  0  0  0  0  0  0  0
   36.8850   26.2190   42.5150 C   0  0  0  0  0  0  0  0  0  0  0  0
   35.9420   26.7500   42.5600 H   0  0  0  0  0  0  0  0  0  0  0  0
   37.0450   24.9570   41.9630 C   0  0  0  0  0  0  0  0  0  0  0  0
   36.1550   24.4810   41.5520 H   0  0  0  0  0  0  0  0  0  0  0  0
   38.2460   24.2960   41.9130 C   0  0  0  0  0  3  0  0  0  0  0  0
   39.3640   24.9310   42.4480 C   0  0  0  0  0  3  0  0  0  0  0  0
  1  2  1  0  0  0  0
  1  3  1  0  0  0  0
  4  5  1  0  0  0  0
  5  6  2  0  0  0  0
  5 11  1  0  0  0  0
  6  1  1  0  0  0  0
  7  6  1  0  0  0  0
  8  7  2  0  0  0  0
  9  8  1  0  0  0  0
  9  4  2  0  0  0  0
 10  4  1  0  0  0  0
 12  8  1  0  0  0  0
 14 15  1  0  0  0  0
 14 13  1  0  0  0  0
 15  1  1  0  0  0  0
 16 17  1  0  0  0  0
 16 15  2  0  0  0  0
 18 16  1  0  0  0  0
 19 18  1  0  0  0  0
 20 18  2  0  0  0  0
 20 21  1  0  0  0  0
 21 14  2  0  0  0  0
M  END
>  <minimizedAffinity>
-4.57088614

$$$$

 OpenBabel03252504543D

 21 22  0  0  0  0  0  0  0  0999 V2000
   36.2630   30.6580   41.0090 C   0  0  0  0  0  0  0  0  0  0  0  0
   36.6390   31.6480   41.3850 H   0  0  0  0  0  0  0  0  0  0  0  0
   35.1760   30.5480   41.1910 H   0  0  0  0  0  0  0  0  0  0  0  0
   38.9210   28.8950   42.9180 C   0  0  0  0  0  0  0  0  0  0  0  0
   38.2650   29.9120   42.1980 C   0  0  0  0  0  0  0  0  0  0  0  0
   36.9730   29.6170   41.7580 C   0  0  0  0  0  0  0  0  0  0  0  0
   36.4250   28.3950   42.0380 N   0  0  0  0  0  0  0  0  0  0  0  0
   37.1080   27.4600   42.7350 C   0  0  0  0  0  0  0  0  0  0  0  0
   38.3480   27.7130   43.1700 N   0  0  0  0  0  0  0  0  0  0  0  0
   39.9300   29.0980   43.2720 H   0  0  0  0  0  0  0  0  0  0  0  0
   38.7380   30.8690   41.9990 H   0  0  0  0  0  0  0  0  0  0  0  0
   36.4980   26.5660   42.8500 H   0  0  0  0  0  0  0  0  0  0  0  0
   37.9000   33.1620   40.0120 Br  0  0  0  0  0  0  0  0  0  0  0  0
   37.2650   31.6420   39.0250 C   0  0  0  0  0  0  0  0  0  0  0  0
   36.5380   30.5780   39.5490 C   0  0  0  0  0  0  0  0  0  0  0  0
   36.1460   29.5610   38.7170 C   0  0  0  0  0  0  0  0  0  0  0  0
   35.5820   28.7480   39.1590 H   0  0  0  0  0  0  0  0  0  0  0  0
   36.4920   29.6340   37.3760 C   0  0  0  0  0  0  0  0  0  0  0  0
   36.1700   28.8120   36.7380 H   0  0  0  0  0  0  0  0  0  0  0  0
   37.2080   30.6690   36.8310 C   0  0  0  0  0  3  0  0  0  0  0  0
   37.6060   31.7030   37.6750 C   0  0  0  0  0  3  0  0  0  0  0  0
  1  3  1  0  0  0  0
  1  2  1  0  0  0  0
  1  6  1  0  0  0  0
  4  9  1  0  0  0  0
  4 10  1  0  0  0  0
  5  4  2  0  0  0  0
  6  7  2  0  0  0  0
  6  5  1  0  0  0  0
  7  8  1  0  0  0  0
  8 12  1  0  0  0  0
  8  9  2  0  0  0  0
 11  5  1  0  0  0  0
 14 15  1  0  0  0  0
 14 13  1  0  0  0  0
 15  1  1  0  0  0  0
 16 17  1  0  0  0  0
 16 15  2  0  0  0  0
 18 16  1  0  0  0  0
 19 18  1  0  0  0  0
 20 18  2  0  0  0  0
 20 21  1  0  0  0  0
 21 14  2  0  0  0  0
M  END
>  <minimizedAffinity>
-4.50214672

$$$$

 OpenBabel03252504543D

 21 22  0  0  0  0  0  0  0  0999 V2000
   35.6180   28.8790   40.8580 C   0  0  0  0  0  0  0  0  0  0  0  0
   35.2280   28.2040   40.0490 H   0  0  0  0  0  0  0  0  0  0  0  0
   34.7980   29.2340   41.5130 H   0  0  0  0  0  0  0  0  0  0  0  0
   37.0220   31.0740   38.2070 C   0  0  0  0  0  0  0  0  0  0  0  0
   36.4420   29.9460   38.8190 C   0  0  0  0  0  0  0  0  0  0  0  0
   36.2240   30.0370   40.1950 C   0  0  0  0  0  0  0  0  0  0  0  0
   36.5730   31.1800   40.8610 N   0  0  0  0  0  0  0  0  0  0  0  0
   37.1280   32.2300   40.2160 C   0  0  0  0  0  0  0  0  0  0  0  0
   37.3490   32.1730   38.8970 N   0  0  0  0  0  0  0  0  0  0  0  0
   37.2040   31.0300   37.1360 H   0  0  0  0  0  0  0  0  0  0  0  0
   36.1800   29.0590   38.2500 H   0  0  0  0  0  0  0  0  0  0  0  0
   37.3280   33.0330   40.9220 H   0  0  0  0  0  0  0  0  0  0  0  0
   36.5220   26.2470   39.3760 Br  0  0  0  0  0  0  0  0  0  0  0  0
   37.0700   26.9420   41.0800 C   0  0  0  0  0  0  0  0  0  0  0  0
   36.6090   28.1180   41.6650 C   0  0  0  0  0  0  0  0  0  0  0  0
   37.0890   28.4860   42.8960 C   0  0  0  0  0  0  0  0  0  0  0  0
   36.7100   29.4080   43.3210 H   0  0  0  0  0  0  0  0  0  0  0  0
   38.0220   27.6660   43.5140 C   0  0  0  0  0  0  0  0  0  0  0  0
   38.3870   27.9830   44.4900 H   0  0  0  0  0  0  0  0  0  0  0  0
   38.4940   26.5030   42.9620 C   0  0  0  0  0  3  0  0  0  0  0  0
   38.0070   26.1270   41.7130 C   0  0  0  0  0  3  0  0  0  0  0  0
  1  3  1  0  0  0  0
  1 15  1  0  0  0  0
  2  1  1  0  0  0  0
  4  5  2  0  0  0  0
  4  9  1  0  0  0  0
  5  6  1  0  0  0  0
  6  1  1  0  0  0  0
  6  7  2  0  0  0  0
  8  7  1  0  0  0  0
  8 12  1  0  0  0  0
  9  8  2  0  0  0  0
 10  4  1  0  0  0  0
 11  5  1  0  0  0  0
 13 14  1  0  0  0  0
 14 15  2  0  0  0  0
 14 21  1  0  0  0  0
 15 16  1  0  0  0  0
 16 17  1  0  0  0  0
 16 18  2  0  0  0  0
 18 19  1  0  0  0  0
 20 18  1  0  0  0  0
 21 20  2  0  0  0  0
M  END
>  <minimizedAffinity>
-4.50183344

$$$$

 OpenBabel03252504543D

 21 22  0  0  0  0  0  0  0  0999 V2000
   35.5780   28.8990   40.8750 C   0  0  0  0  0  0  0  0  0  0  0  0
   34.8240   29.3030   41.6040 H   0  0  0  0  0  0  0  0  0  0  0  0
   35.1010   28.2220   40.1410 H   0  0  0  0  0  0  0  0  0  0  0  0
   37.9520   26.2190   41.8750 C   0  0  0  0  0  0  0  0  0  0  0  0
   37.0080   26.9300   41.1090 C   0  0  0  0  0  0  0  0  0  0  0  0
   36.5570   28.1350   41.6520 C   0  0  0  0  0  0  0  0  0  0  0  0
   37.0380   28.5520   42.8630 N   0  0  0  0  0  0  0  0  0  0  0  0
   37.9440   27.8220   43.5510 C   0  0  0  0  0  0  0  0  0  0  0  0
   38.3950   26.6640   43.0560 N   0  0  0  0  0  0  0  0  0  0  0  0
   38.3200   25.2760   41.4750 H   0  0  0  0  0  0  0  0  0  0  0  0
   36.6550   26.5610   40.1510 H   0  0  0  0  0  0  0  0  0  0  0  0
   38.1940   28.3270   44.4820 H   0  0  0  0  0  0  0  0  0  0  0  0
   35.8720   28.3180   37.7900 Br  0  0  0  0  0  0  0  0  0  0  0  0
   36.3650   29.8790   38.7940 C   0  0  0  0  0  0  0  0  0  0  0  0
   36.2040   30.0470   40.1660 C   0  0  0  0  0  0  0  0  0  0  0  0
   36.6090   31.2200   40.7490 C   0  0  0  0  0  0  0  0  0  0  0  0
   36.4680   31.3180   41.8180 H   0  0  0  0  0  0  0  0  0  0  0  0
   37.1690   32.2000   39.9410 C   0  0  0  0  0  0  0  0  0  0  0  0
   37.4810   33.1220   40.4300 H   0  0  0  0  0  0  0  0  0  0  0  0
   37.3400   32.0620   38.5880 C   0  0  0  0  0  3  0  0  0  0  0  0
   36.9290   30.8710   37.9950 C   0  0  0  0  0  3  0  0  0  0  0  0
  1  2  1  0  0  0  0
  1  6  1  0  0  0  0
  3  1  1  0  0  0  0
  4  9  1  0  0  0  0
  5  6  1  0  0  0  0
  5  4  2  0  0  0  0
  6  7  2  0  0  0  0
  7  8  1  0  0  0  0
  8 12  1  0  0  0  0
  9  8  2  0  0  0  0
 10  4  1  0  0  0  0
 11  5  1  0  0  0  0
 13 14  1  0  0  0  0
 14 15  1  0  0  0  0
 15 16  2  0  0  0  0
 15  1  1  0  0  0  0
 16 17  1  0  0  0  0
 18 19  1  0  0  0  0
 18 16  1  0  0  0  0
 20 18  2  0  0  0  0
 21 20  1  0  0  0  0
 21 14  2  0  0  0  0
M  END
>  <minimizedAffinity>
-4.45058727

$$$$

 OpenBabel03252504543D

 21 22  0  0  0  0  0  0  0  0999 V2000
   36.5780   27.3990   42.4100 C   0  0  0  0  0  0  0  0  0  0  0  0
   35.9690   26.5920   41.9200 H   0  0  0  0  0  0  0  0  0  0  0  0
   36.0770   27.7800   43.3210 H   0  0  0  0  0  0  0  0  0  0  0  0
   37.0470   29.2260   39.2070 C   0  0  0  0  0  0  0  0  0  0  0  0
   36.9440   28.1530   40.1130 C   0  0  0  0  0  0  0  0  0  0  0  0
   36.6940   28.4950   41.4450 C   0  0  0  0  0  0  0  0  0  0  0  0
   36.5670   29.8120   41.7920 N   0  0  0  0  0  0  0  0  0  0  0  0
   36.6770   30.7970   40.8730 C   0  0  0  0  0  0  0  0  0  0  0  0
   36.9160   30.5010   39.5900 N   0  0  0  0  0  0  0  0  0  0  0  0
   37.2420   28.9880   38.1640 H   0  0  0  0  0  0  0  0  0  0  0  0
   37.0520   27.1210   39.7930 H   0  0  0  0  0  0  0  0  0  0  0  0
   36.5430   31.7650   41.3520 H   0  0  0  0  0  0  0  0  0  0  0  0
   36.8410   24.4080   41.4470 Br  0  0  0  0  0  0  0  0  0  0  0  0
   38.1110   25.5120   42.3730 C   0  0  0  0  0  0  0  0  0  0  0  0
   37.9060   26.8300   42.7690 C   0  0  0  0  0  0  0  0  0  0  0  0
   38.9060   27.4940   43.4300 C   0  0  0  0  0  0  0  0  0  0  0  0
   38.7130   28.5190   43.7220 H   0  0  0  0  0  0  0  0  0  0  0  0
   40.0930   26.8200   43.6800 C   0  0  0  0  0  0  0  0  0  0  0  0
   40.8720   27.3710   44.2050 H   0  0  0  0  0  0  0  0  0  0  0  0
   40.3240   25.5220   43.3020 C   0  0  0  0  0  3  0  0  0  0  0  0
   39.3080   24.8460   42.6310 C   0  0  0  0  0  3  0  0  0  0  0  0
  1 15  1  0  0  0  0
  1  3  1  0  0  0  0
  2  1  1  0  0  0  0
  4  9  2  0  0  0  0
  4  5  1  0  0  0  0
  5  6  2  0  0  0  0
  6  7  1  0  0  0  0
  6  1  1  0  0  0  0
  8 12  1  0  0  0  0
  8  7  2  0  0  0  0
  9  8  1  0  0  0  0
 10  4  1  0  0  0  0
 11  5  1  0  0  0  0
 13 14  1  0  0  0  0
 14 21  2  0  0  0  0
 14 15  1  0  0  0  0
 15 16  2  0  0  0  0
 16 18  1  0  0  0  0
 16 17  1  0  0  0  0
 18 19  1  0  0  0  0
 20 18  2  0  0  0  0
 21 20  1  0  0  0  0
M  END
>  <minimizedAffinity>
-4.43321466

$$$$

 OpenBabel03252504543D

 21 22  0  0  0  0  0  0  0  0999 V2000
   37.0220   27.4000   42.6950 C   0  0  0  0  0  0  0  0  0  0  0  0
   37.8220   27.7570   43.3980 H   0  0  0  0  0  0  0  0  0  0  0  0
   36.1180   27.0780   43.2480 H   0  0  0  0  0  0  0  0  0  0  0  0
   37.4930   23.9200   41.4730 C   0  0  0  0  0  0  0  0  0  0  0  0
   36.9490   25.0100   42.1800 C   0  0  0  0  0  0  0  0  0  0  0  0
   37.5680   26.2460   41.9760 C   0  0  0  0  0  0  0  0  0  0  0  0
   38.6380   26.3340   41.1270 N   0  0  0  0  0  0  0  0  0  0  0  0
   39.1130   25.2480   40.4770 C   0  0  0  0  0  0  0  0  0  0  0  0
   38.5410   24.0520   40.6520 N   0  0  0  0  0  0  0  0  0  0  0  0
   37.0300   22.9460   41.6140 H   0  0  0  0  0  0  0  0  0  0  0  0
   36.0980   24.8940   42.8430 H   0  0  0  0  0  0  0  0  0  0  0  0
   39.9600   25.5320   39.8560 H   0  0  0  0  0  0  0  0  0  0  0  0
   39.0950   29.7640   42.9300 Br  0  0  0  0  0  0  0  0  0  0  0  0
   37.5450   29.6020   41.8070 C   0  0  0  0  0  0  0  0  0  0  0  0
   36.6750   28.5160   41.7750 C   0  0  0  0  0  0  0  0  0  0  0  0
   35.6020   28.5440   40.9220 C   0  0  0  0  0  0  0  0  0  0  0  0
   34.9460   27.6810   40.9210 H   0  0  0  0  0  0  0  0  0  0  0  0
   35.4250   29.6610   40.1190 C   0  0  0  0  0  0  0  0  0  0  0  0
   34.5650   29.6560   39.4500 H   0  0  0  0  0  0  0  0  0  0  0  0
   36.2650   30.7450   40.1300 C   0  0  0  0  0  3  0  0  0  0  0  0
   37.3550   30.7180   40.9960 C   0  0  0  0  0  3  0  0  0  0  0  0
  1  3  1  0  0  0  0
  1  2  1  0  0  0  0
  4 10  1  0  0  0  0
  4  5  1  0  0  0  0
  5 11  1  0  0  0  0
  6  5  2  0  0  0  0
  6  1  1  0  0  0  0
  7  6  1  0  0  0  0
  8  9  1  0  0  0  0
  8  7  2  0  0  0  0
  9  4  2  0  0  0  0
 12  8  1  0  0  0  0
 14 13  1  0  0  0  0
 15 14  1  0  0  0  0
 15  1  1  0  0  0  0
 16 15  2  0  0  0  0
 17 16  1  0  0  0  0
 18 20  2  0  0  0  0
 18 16  1  0  0  0  0
 19 18  1  0  0  0  0
 20 21  1  0  0  0  0
 21 14  2  0  0  0  0
M  END
>  <minimizedAffinity>
-4.28792381

$$$$

 OpenBabel03252504543D

 21 22  0  0  0  0  0  0  0  0999 V2000
   36.3620   30.3220   41.3770 C   0  0  0  0  0  0  0  0  0  0  0  0
   35.4060   30.4490   41.9540 H   0  0  0  0  0  0  0  0  0  0  0  0
   36.9260   31.2730   41.3240 H   0  0  0  0  0  0  0  0  0  0  0  0
   34.4550   28.8570   38.5420 C   0  0  0  0  0  0  0  0  0  0  0  0
   34.7870   29.2280   39.8590 C   0  0  0  0  0  0  0  0  0  0  0  0
   35.9910   29.9190   40.0180 C   0  0  0  0  0  0  0  0  0  0  0  0
   36.7640   30.1910   38.9230 N   0  0  0  0  0  0  0  0  0  0  0  0
   36.3890   29.8060   37.6820 C   0  0  0  0  0  0  0  0  0  0  0  0
   35.2410   29.1440   37.4980 N   0  0  0  0  0  0  0  0  0  0  0  0
   33.5230   28.3180   38.3900 H   0  0  0  0  0  0  0  0  0  0  0  0
   34.1430   28.9920   40.7000 H   0  0  0  0  0  0  0  0  0  0  0  0
   37.1380   30.1190   36.9570 H   0  0  0  0  0  0  0  0  0  0  0  0
   39.3800   31.2120   41.5860 Br  0  0  0  0  0  0  0  0  0  0  0  0
   38.5330   29.6030   42.2030 C   0  0  0  0  0  0  0  0  0  0  0  0
   37.1850   29.2870   42.0600 C   0  0  0  0  0  0  0  0  0  0  0  0
   36.7220   28.0920   42.5470 C   0  0  0  0  0  0  0  0  0  0  0  0
   35.6670   27.8790   42.4200 H   0  0  0  0  0  0  0  0  0  0  0  0
   37.6220   27.2390   43.1690 C   0  0  0  0  0  0  0  0  0  0  0  0
   37.2270   26.2970   43.5480 H   0  0  0  0  0  0  0  0  0  0  0  0
   38.9550   27.5230   43.3240 C   0  0  0  0  0  3  0  0  0  0  0  0
   39.4260   28.7360   42.8280 C   0  0  0  0  0  3  0  0  0  0  0  0
  1  2  1  0  0  0  0
  1 15  1  0  0  0  0
  3  1  1  0  0  0  0
  4  5  1  0  0  0  0
  5  6  2  0  0  0  0
  5 11  1  0  0  0  0
  6  1  1  0  0  0  0
  7  6  1  0  0  0  0
  8  7  2  0  0  0  0
  9  8  1  0  0  0  0
  9  4  2  0  0  0  0
 10  4  1  0  0  0  0
 12  8  1  0  0  0  0
 13 14  1  0  0  0  0
 14 21  1  0  0  0  0
 15 14  2  0  0  0  0
 15 16  1  0  0  0  0
 16 18  2  0  0  0  0
 17 16  1  0  0  0  0
 18 20  1  0  0  0  0
 18 19  1  0  0  0  0
 21 20  2  0  0  0  0
M  END
>  <minimizedAffinity>
-4.28020716

$$$$

 OpenBabel03252504543D

 21 22  0  0  0  0  0  0  0  0999 V2000
   38.6900   29.9860   39.9720 C   0  0  0  0  0  0  0  0  0  0  0  0
   39.7930   29.7780   39.9190 H   0  0  0  0  0  0  0  0  0  0  0  0
   38.1640   29.5880   39.0820 H   0  0  0  0  0  0  0  0  0  0  0  0
   37.2070   33.3680   39.5430 C   0  0  0  0  0  0  0  0  0  0  0  0
   37.3350   31.9660   39.5010 C   0  0  0  0  0  0  0  0  0  0  0  0
   38.5300   31.4420   39.9990 C   0  0  0  0  0  0  0  0  0  0  0  0
   39.4870   32.2890   40.4870 N   0  0  0  0  0  0  0  0  0  0  0  0
   39.3040   33.6280   40.5000 C   0  0  0  0  0  0  0  0  0  0  0  0
   38.1700   34.1590   40.0300 N   0  0  0  0  0  0  0  0  0  0  0  0
   36.2860   33.8030   39.1600 H   0  0  0  0  0  0  0  0  0  0  0  0
   36.5480   31.3320   39.1040 H   0  0  0  0  0  0  0  0  0  0  0  0
   40.1780   34.1160   40.9270 H   0  0  0  0  0  0  0  0  0  0  0  0
   36.2360   28.1180   39.3100 Br  0  0  0  0  0  0  0  0  0  0  0  0
   37.0690   28.4940   40.9990 C   0  0  0  0  0  0  0  0  0  0  0  0
   38.1510   29.3440   41.2010 C   0  0  0  0  0  0  0  0  0  0  0  0
   38.6370   29.5190   42.4710 C   0  0  0  0  0  0  0  0  0  0  0  0
   39.4820   30.1870   42.5920 H   0  0  0  0  0  0  0  0  0  0  0  0
   38.0250   28.8370   43.5120 C   0  0  0  0  0  0  0  0  0  0  0  0
   38.4320   28.9930   44.5110 H   0  0  0  0  0  0  0  0  0  0  0  0
   36.9580   27.9930   43.3440 C   0  0  0  0  0  3  0  0  0  0  0  0
   36.4630   27.8150   42.0550 C   0  0  0  0  0  3  0  0  0  0  0  0
  1  6  1  0  0  0  0
  1 15  1  0  0  0  0
  2  1  1  0  0  0  0
  3  1  1  0  0  0  0
  4  9  1  0  0  0  0
  5  4  2  0  0  0  0
  5  6  1  0  0  0  0
  6  7  2  0  0  0  0
  7  8  1  0  0  0  0
  8 12  1  0  0  0  0
  9  8  2  0  0  0  0
 10  4  1  0  0  0  0
 11  5  1  0  0  0  0
 13 14  1  0  0  0  0
 14 15  2  0  0  0  0
 14 21  1  0  0  0  0
 15 16  1  0  0  0  0
 16 17  1  0  0  0  0
 16 18  2  0  0  0  0
 18 19  1  0  0  0  0
 20 18  1  0  0  0  0
 21 20  2  0  0  0  0
M  END
>  <minimizedAffinity>
-4.23188257

$$$$

 OpenBabel03252504543D

 21 22  0  0  0  0  0  0  0  0999 V2000
   37.0140   24.8150   42.1210 C   0  0  0  0  0  0  0  0  0  0  0  0
   37.7700   24.0860   42.5210 H   0  0  0  0  0  0  0  0  0  0  0  0
   36.0100   24.6210   42.5440 H   0  0  0  0  0  0  0  0  0  0  0  0
   35.9030   23.6540   38.7700 C   0  0  0  0  0  0  0  0  0  0  0  0
   35.9340   23.8180   40.1680 C   0  0  0  0  0  0  0  0  0  0  0  0
   36.9590   24.6230   40.6700 C   0  0  0  0  0  0  0  0  0  0  0  0
   37.8540   25.1940   39.8070 N   0  0  0  0  0  0  0  0  0  0  0  0
   37.7700   24.9970   38.4720 C   0  0  0  0  0  0  0  0  0  0  0  0
   36.7990   24.2310   37.9620 N   0  0  0  0  0  0  0  0  0  0  0  0
   35.1150   23.0310   38.3520 H   0  0  0  0  0  0  0  0  0  0  0  0
   35.2010   23.3460   40.8160 H   0  0  0  0  0  0  0  0  0  0  0  0
   38.5700   25.5360   37.9690 H   0  0  0  0  0  0  0  0  0  0  0  0
   40.0160   24.8400   43.0890 Br  0  0  0  0  0  0  0  0  0  0  0  0
   38.7730   26.2940   42.9160 C   0  0  0  0  0  0  0  0  0  0  0  0
   37.4550   26.1900   42.4840 C   0  0  0  0  0  0  0  0  0  0  0  0
   36.6810   27.3190   42.4160 C   0  0  0  0  0  0  0  0  0  0  0  0
   35.6590   27.2020   42.0750 H   0  0  0  0  0  0  0  0  0  0  0  0
   37.2480   28.5310   42.7830 C   0  0  0  0  0  0  0  0  0  0  0  0
   36.6120   29.4130   42.7180 H   0  0  0  0  0  0  0  0  0  0  0  0
   38.5430   28.6650   43.2120 C   0  0  0  0  0  3  0  0  0  0  0  0
   39.3300   27.5180   43.2820 C   0  0  0  0  0  3  0  0  0  0  0  0
  1 15  1  0  0  0  0
  1  2  1  0  0  0  0
  1  3  1  0  0  0  0
  4  5  1  0  0  0  0
  5  6  2  0  0  0  0
  5 11  1  0  0  0  0
  6  1  1  0  0  0  0
  7  6  1  0  0  0  0
  8  7  2  0  0  0  0
  9  8  1  0  0  0  0
  9  4  2  0  0  0  0
 10  4  1  0  0  0  0
 12  8  1  0  0  0  0
 14 13  1  0  0  0  0
 14 21  1  0  0  0  0
 15 14  2  0  0  0  0
 16 15  1  0  0  0  0
 16 18  2  0  0  0  0
 17 16  1  0  0  0  0
 18 20  1  0  0  0  0
 19 18  1  0  0  0  0
 20 21  2  0  0  0  0
M  END
>  <minimizedAffinity>
-4.17857122

$$$$
