
 OpenBabel03252502593D

 22 23  0  0  0  0  0  0  0  0999 V2000
   44.8620   33.4620   40.6000 C   0  0  0  0  0  0  0  0  0  0  0  0
   44.0870   33.1120   39.8690 H   0  0  0  0  0  0  0  0  0  0  0  0
   45.0160   32.6000   41.2990 H   0  0  0  0  0  0  0  0  0  0  0  0
   44.4120   32.4380   37.7830 Br  0  0  0  0  0  0  0  0  0  0  0  0
   45.9890   33.2460   38.5400 C   0  0  0  0  0  0  0  0  0  0  0  0
   46.1080   33.6920   39.8600 C   0  0  0  0  0  0  0  0  0  0  0  0
   47.3200   34.2470   40.2200 C   0  0  0  0  0  0  0  0  0  0  0  0
   47.3010   34.5600   41.2630 H   0  0  0  0  0  0  0  0  0  0  0  0
   48.3470   34.3530   39.3250 C   0  0  0  0  0  0  0  0  0  0  0  0
   49.2640   34.8050   39.7030 H   0  0  0  0  0  0  0  0  0  0  0  0
   48.2550   33.9230   38.0240 C   0  0  0  0  0  0  0  0  0  0  0  0
   47.0420   33.3640   37.6540 C   0  0  0  0  0  0  0  0  0  0  0  0
   44.2550   34.8450   41.5430 S   0  0  0  0  0  0  0  0  0  0  0  0
   44.3380   35.5850   44.2100 C   0  0  0  0  0  0  0  0  0  0  0  0
   44.6610   34.6040   43.2870 C   0  0  0  0  0  0  0  0  0  0  0  0
   45.2900   33.4470   43.7000 C   0  0  0  0  0  0  0  0  0  0  0  0
   45.5710   33.3200   45.0280 N   0  0  0  0  0  0  0  0  0  0  0  0
   45.2500   34.2740   45.8970 C   0  0  0  0  0  0  0  0  0  0  0  0
   44.6470   35.3900   45.5210 N   0  0  0  0  0  0  0  0  0  0  0  0
   43.8460   36.4850   43.8880 H   0  0  0  0  0  0  0  0  0  0  0  0
   45.5630   32.6490   43.0310 H   0  0  0  0  0  0  0  0  0  0  0  0
   45.4610   34.1990   46.9620 H   0  0  0  0  0  0  0  0  0  0  0  0
  1  3  1  0  0  0  0
  1 13  1  0  0  0  0
  2  1  1  0  0  0  0
  4  5  1  0  0  0  0
  5  6  1  0  0  0  0
  6  7  2  0  0  0  0
  6  1  1  0  0  0  0
  7  8  1  0  0  0  0
  9 10  1  0  0  0  0
  9  7  1  0  0  0  0
 11  9  2  0  0  0  0
 12 11  1  0  0  0  0
 12  5  2  0  0  0  0
 13 15  1  0  0  0  0
 14 19  1  0  0  0  0
 15 16  1  0  0  0  0
 15 14  2  0  0  0  0
 16 17  2  0  0  0  0
 17 18  1  0  0  0  0
 18 22  1  0  0  0  0
 19 18  2  0  0  0  0
 20 14  1  0  0  0  0
 21 16  1  0  0  0  0
M  END
>  <minimizedAffinity>
-3.89087987

>  <minimizedRMSD>
1.55041492

$$$$
