
 OpenBabel03242515103D

 36 38  0  0  0  0  0  0  0  0999 V2000
   45.7030   34.1200   45.1940 C   0  0  0  0  0  0  0  0  0  0  0  0
   44.7690   35.1050   45.3830 C   0  0  0  0  0  0  0  0  0  0  0  0
   44.4520   36.0710   44.4590 C   0  0  0  0  0  0  0  0  0  0  0  0
   45.1150   36.0550   43.2560 C   0  0  0  0  0  0  0  0  0  0  0  0
   46.0610   35.0830   43.0220 C   0  0  0  0  0  0  0  0  0  0  0  0
   46.3460   34.1280   43.9900 C   0  0  0  0  0  0  0  0  0  0  0  0
   44.2300   35.1460   46.3220 H   0  0  0  0  0  0  0  0  0  0  0  0
   43.7150   36.8480   44.6090 H   0  0  0  0  0  0  0  0  0  0  0  0
   44.8890   36.8060   42.4970 H   0  0  0  0  0  0  0  0  0  0  0  0
   46.5500   35.1210   42.0570 H   0  0  0  0  0  0  0  0  0  0  0  0
   47.3520   31.3480   46.9200 C   0  0  0  0  0  0  0  0  0  0  0  0
   46.6160   31.2140   48.0960 C   0  0  0  0  0  0  0  0  0  0  0  0
   45.5400   32.0850   48.3030 C   0  0  0  0  0  0  0  0  0  0  0  0
   45.2400   33.0290   47.3620 N   0  0  0  0  0  0  0  0  0  0  0  0
   45.9860   33.1320   46.2180 C   0  0  0  0  0  0  0  0  0  0  0  0
   47.0180   32.2870   46.0340 N   0  0  0  0  0  0  0  0  0  0  0  0
   48.1950   30.7000   46.7110 H   0  0  0  0  0  0  0  0  0  0  0  0
   46.8710   30.4560   48.8310 H   0  0  0  0  0  0  0  0  0  0  0  0
   44.9380   32.0190   49.2030 H   0  0  0  0  0  0  0  0  0  0  0  0
   47.3350   33.2030   43.6060 N   0  0  0  0  0  0  0  0  0  0  0  0
   47.0910   32.2290   43.9190 H   0  0  0  0  0  0  0  0  0  0  0  0
   48.8070   33.3500   42.7570 S   0  0  0  0  0  0  0  0  0  0  0  0
   48.4970   33.5620   41.2830 O   0  0  0  0  0  0  0  0  0  0  0  0
   49.0850   33.9460   40.6070 H   0  0  0  0  0  0  0  0  0  0  0  0
   49.6680   34.4810   43.2120 O   0  0  0  0  0  0  0  0  0  0  0  0
   49.4410   34.9180   44.0950 H   0  0  0  0  0  0  0  0  0  0  0  0
   49.6010   31.8670   42.8550 O   0  0  0  0  0  0  0  0  0  0  0  0
   51.8180   31.6270   40.6750 Br  0  0  0  0  0  0  0  0  0  0  0  0
   50.2440   30.5730   40.8120 C   0  0  0  0  0  0  0  0  0  0  0  0
   49.4350   30.8990   41.8810 C   0  0  0  0  0  0  0  0  0  0  0  0
   48.2490   30.1990   42.0950 C   0  0  0  0  0  0  0  0  0  0  0  0
   47.5280   30.3470   42.8840 H   0  0  0  0  0  0  0  0  0  0  0  0
   47.8590   29.1640   41.2390 C   0  0  0  0  0  0  0  0  0  0  0  0
   46.9620   28.5850   41.3420 H   0  0  0  0  0  0  0  0  0  0  0  0
   48.6910   28.8530   40.1680 C   0  0  0  0  0  3  0  0  0  0  0  0
   49.8610   29.5520   39.9670 C   0  0  0  0  0  3  0  0  0  0  0  0
  1  2  1  0  0  0  0
  1 15  1  0  0  0  0
  2  7  1  0  0  0  0
  3  8  1  0  0  0  0
  3  2  2  0  0  0  0
  4  3  1  0  0  0  0
  5  4  2  0  0  0  0
  5  6  1  0  0  0  0
  6  1  2  0  0  0  0
  9  4  1  0  0  0  0
 10  5  1  0  0  0  0
 11 12  1  0  0  0  0
 12 13  2  0  0  0  0
 12 18  1  0  0  0  0
 13 19  1  0  0  0  0
 14 13  1  0  0  0  0
 15 14  2  0  0  0  0
 16 15  1  0  0  0  0
 16 11  2  0  0  0  0
 17 11  1  0  0  0  0
 20 21  1  0  0  0  0
 20  6  1  0  0  0  0
 22 27  1  0  0  0  0
 22 25  1  0  0  0  0
 22 20  1  0  0  0  0
 23 22  1  0  0  0  0
 24 23  1  0  0  0  0
 25 26  1  0  0  0  0
 28 29  1  0  0  0  0
 29 30  1  0  0  0  0
 30 31  2  0  0  0  0
 30 27  1  0  0  0  0
 31 32  1  0  0  0  0
 33 34  1  0  0  0  0
 33 31  1  0  0  0  0
 35 33  2  0  0  0  0
 36 35  1  0  0  0  0
 36 29  2  0  0  0  0
M  END
>  <minimizedAffinity>
-5.37285423

>  <minimizedRMSD>
0.998613894

$$$$
