
 OpenBabel03242515463D

 41 44  0  0  1  0  0  0  0  0999 V2000
   40.0310   34.1230   40.6840 C   0  0  0  0  0  0  0  0  0  0  0  0
   41.3150   33.7860   41.1180 C   0  0  0  0  0  0  0  0  0  0  0  0
   41.6020   32.5200   41.5860 C   0  0  0  0  0  0  0  0  0  0  0  0
   40.6230   31.5600   41.6350 C   0  0  0  0  0  0  0  0  0  0  0  0
   39.3470   31.8730   41.2110 C   0  0  0  0  0  0  0  0  0  0  0  0
   39.0300   33.1210   40.7410 C   0  0  0  0  0  0  0  0  0  0  0  0
   38.5790   30.7020   41.3790 O   0  0  0  0  0  0  0  0  0  0  0  0
   39.2940   29.8260   42.1540 C   0  0  2  0  0  0  0  0  0  0  0  0
   40.6430   30.2270   42.0550 O   0  0  0  0  0  0  0  0  0  0  0  0
   39.7250   35.0890   40.3050 H   0  0  0  0  0  0  0  0  0  0  0  0
   42.6250   32.3620   41.8980 H   0  0  0  0  0  0  0  0  0  0  0  0
   38.0300   33.3670   40.4080 H   0  0  0  0  0  0  0  0  0  0  0  0
   39.0150   30.0260   43.2290 H   0  0  0  0  0  0  0  0  0  0  0  0
   36.7090   29.2250   40.4800 Br  0  0  0  0  0  0  0  0  0  0  0  0
   37.9800   27.9580   41.1560 C   0  0  0  0  0  0  0  0  0  0  0  0
   39.0860   28.3960   41.8900 C   0  0  0  0  0  0  0  0  0  0  0  0
   39.9600   27.4310   42.3450 C   0  0  0  0  0  0  0  0  0  0  0  0
   40.8360   27.6870   42.9180 H   0  0  0  0  0  0  0  0  0  0  0  0
   39.7560   26.0750   42.0900 C   0  0  0  0  0  0  0  0  0  0  0  0
   40.4540   25.3270   42.4560 H   0  0  0  0  0  0  0  0  0  0  0  0
   38.6690   25.6460   41.3690 C   0  0  0  0  0  3  0  0  0  0  0  0
   37.7970   26.6140   40.9150 C   0  0  0  0  0  3  0  0  0  0  0  0
   42.4640   35.1510   40.9630 S   0  0  0  0  0  0  0  0  0  0  0  0
   44.1300   34.5090   40.5830 C   0  0  0  0  0  0  0  0  0  0  0  0
   44.2160   33.6990   39.5110 C   0  0  0  0  0  0  0  0  0  0  0  0
   45.4890   33.2000   39.2420 C   0  0  0  0  0  0  0  0  0  0  0  0
   46.5470   33.5170   40.0110 N   0  0  0  0  0  0  0  0  0  0  0  0
   46.4090   34.3350   41.0750 C   0  0  0  0  0  0  0  0  0  0  0  0
   45.1880   34.8080   41.3260 N   0  0  0  0  0  0  0  0  0  0  0  0
   45.6990   32.3060   38.1290 N   0  0  0  0  0  0  0  0  0  0  0  0
   45.5500   32.5210   37.0980 H   0  0  0  0  0  0  0  0  0  0  0  0
   46.0280   31.3550   38.3770 H   0  0  0  0  0  0  0  0  0  0  0  0
   43.2450   33.2030   38.4850 C   0  0  0  0  0  0  0  0  0  0  0  0
   42.4110   33.9350   38.5020 H   0  0  0  0  0  0  0  0  0  0  0  0
   42.9270   32.2000   38.7840 H   0  0  0  0  0  0  0  0  0  0  0  0
   43.6660   33.2760   37.4590 H   0  0  0  0  0  0  0  0  0  0  0  0
   47.4310   34.7180   41.9180 O   0  0  0  0  0  0  0  0  0  0  0  0
   48.6380   35.1660   41.3240 C   0  0  0  0  0  0  0  0  0  0  0  0
   49.6530   34.2810   41.5260 F   0  0  0  0  0  0  0  0  0  0  0  0
   48.3690   35.3470   39.9570 F   0  0  0  0  0  0  0  0  0  0  0  0
   48.9960   36.3580   41.9180 F   0  0  0  0  0  0  0  0  0  0  0  0
  1  6  2  0  0  0  0
  1  2  1  0  0  0  0
  2  3  2  0  0  0  0
  3  4  1  0  0  0  0
  3 11  1  0  0  0  0
  4  9  1  0  0  0  0
  5  7  1  0  0  0  0
  5  4  2  0  0  0  0
  6  5  1  0  0  0  0
  7  8  1  0  0  0  0
  8 13  1  1  0  0  0
  9  8  1  0  0  0  0
 10  1  1  0  0  0  0
 12  6  1  0  0  0  0
 14 15  1  0  0  0  0
 15 16  1  0  0  0  0
 16  8  1  0  0  0  0
 16 17  2  0  0  0  0
 17 18  1  0  0  0  0
 19 17  1  0  0  0  0
 19 20  1  0  0  0  0
 21 19  2  0  0  0  0
 22 15  2  0  0  0  0
 22 21  1  0  0  0  0
 23  2  1  0  0  0  0
 24 23  1  0  0  0  0
 24 29  1  0  0  0  0
 25 24  2  0  0  0  0
 26 25  1  0  0  0  0
 26 27  2  0  0  0  0
 27 28  1  0  0  0  0
 28 29  2  0  0  0  0
 28 37  1  0  0  0  0
 30 32  1  0  0  0  0
 30 26  1  0  0  0  0
 31 30  1  0  0  0  0
 33 34  1  0  0  0  0
 33 35  1  0  0  0  0
 33 25  1  0  0  0  0
 36 33  1  0  0  0  0
 38 39  1  0  0  0  0
 38 37  1  0  0  0  0
 38 41  1  0  0  0  0
 40 38  1  0  0  0  0
M  END
>  <minimizedAffinity>
-6.19774532

>  <minimizedRMSD>
0.931265891

$$$$
