
 OpenBabel03252508023D

 42 45  0  0  1  0  0  0  0  0999 V2000
   42.0370   33.2760   41.1270 C   0  0  0  0  0  0  0  0  0  0  0  0
   42.7990   34.3960   41.3100 C   0  0  0  0  0  0  0  0  0  0  0  0
   42.1480   35.6450   41.2700 C   0  0  0  0  0  0  0  0  0  0  0  0
   40.7980   35.7900   41.0580 C   0  0  0  0  0  0  0  0  0  0  0  0
   40.0420   34.6610   40.8760 C   0  0  0  0  0  0  0  0  0  0  0  0
   40.6660   33.4500   40.9140 C   0  0  0  0  0  0  0  0  0  0  0  0
   42.6680   36.5880   41.3960 H   0  0  0  0  0  0  0  0  0  0  0  0
   40.3150   36.7480   41.0290 H   0  0  0  0  0  0  0  0  0  0  0  0
   38.9770   34.6750   40.7040 H   0  0  0  0  0  0  0  0  0  0  0  0
   40.0540   32.5440   40.7680 H   0  0  0  0  0  0  0  0  0  0  0  0
   42.6700   31.7200   41.2410 S   0  0  0  0  0  0  0  0  0  0  0  0
   41.5260   30.9010   40.5610 O   0  0  0  0  0  0  0  0  0  0  0  0
   42.7800   31.2390   42.6400 O   0  0  0  0  0  0  0  0  0  0  0  0
   43.1240   28.7730   42.1800 Br  0  0  0  0  0  0  0  0  0  0  0  0
   43.9520   29.5360   40.6070 C   0  0  0  0  0  0  0  0  0  0  0  0
   43.7400   30.8960   40.2370 C   0  0  0  0  0  0  0  0  0  0  0  0
   44.4420   31.1880   39.0760 C   0  0  0  0  0  0  0  0  0  0  0  0
   44.2220   32.2320   38.7790 H   0  0  0  0  0  0  0  0  0  0  0  0
   45.2630   30.4390   38.2670 C   0  0  0  0  0  0  0  0  0  0  0  0
   45.7050   30.8770   37.4120 H   0  0  0  0  0  0  0  0  0  0  0  0
   45.3420   29.1770   38.7820 C   0  0  0  0  0  3  0  0  0  0  0  0
   44.7420   28.6660   39.8990 C   0  0  0  0  0  3  0  0  0  0  0  0
   44.2300   34.3530   41.5420 C   0  0  0  0  0  0  0  0  0  0  0  0
   45.1030   34.2500   40.6280 O   0  0  0  0  0  0  0  0  0  0  0  0
   44.5810   34.4420   42.9390 C   0  0  0  0  0  0  0  0  0  0  0  0
   44.3050   35.7050   43.5680 C   0  0  0  0  0  0  0  0  0  0  0  0
   44.6300   35.8140   44.9080 C   0  0  0  0  0  0  0  0  0  0  0  0
   45.1800   34.7410   45.5320 N   0  0  0  0  0  0  0  0  0  0  0  0
   45.4240   33.5560   44.8850 C   0  0  0  0  0  0  0  0  0  0  0  0
   45.1250   33.4460   43.6370 N   0  0  0  0  0  0  0  0  0  0  0  0
   43.8830   36.5790   43.1520 H   0  0  0  0  0  0  0  0  0  0  0  0
   44.4760   36.7030   45.4990 H   0  0  0  0  0  0  0  0  0  0  0  0
   46.0160   32.4410   45.6490 C   0  0  1  0  0  0  0  0  0  0  0  0
   46.9680   32.7500   46.7830 C   0  0  0  0  0  0  0  0  0  0  0  0
   45.5530   32.3330   47.0510 C   0  0  1  0  0  0  0  0  0  0  0  0
   46.1440   31.4930   45.1000 H   0  0  0  0  0  0  0  0  0  0  0  0
   47.2720   33.8070   46.8550 H   0  0  0  0  0  0  0  0  0  0  0  0
   47.7230   31.9530   46.9690 H   0  0  0  0  0  0  0  0  0  0  0  0
   45.3550   31.3380   47.4770 H   0  0  0  0  0  0  0  0  0  0  0  0
   44.7660   33.4010   47.6460 N   0  0  0  0  0  0  0  0  0  0  0  0
   45.2140   33.8110   48.4720 H   0  0  0  0  0  0  0  0  0  0  0  0
   43.7720   33.1120   47.7770 H   0  0  0  0  0  0  0  0  0  0  0  0
  1 11  1  0  0  0  0
  1  2  1  0  0  0  0
  2 23  1  0  0  0  0
  3  2  2  0  0  0  0
  3  7  1  0  0  0  0
  4  3  1  0  0  0  0
  5  6  1  0  0  0  0
  5  4  2  0  0  0  0
  6  1  2  0  0  0  0
  8  4  1  0  0  0  0
  9  5  1  0  0  0  0
 10  6  1  0  0  0  0
 11 13  2  0  0  0  0
 12 11  2  0  0  0  0
 15 14  1  0  0  0  0
 16 15  1  0  0  0  0
 16 11  1  0  0  0  0
 17 16  2  0  0  0  0
 18 17  1  0  0  0  0
 19 21  2  0  0  0  0
 19 17  1  0  0  0  0
 20 19  1  0  0  0  0
 21 22  1  0  0  0  0
 22 15  2  0  0  0  0
 23 25  1  0  0  0  0
 24 23  2  0  0  0  0
 25 26  2  0  0  0  0
 25 30  1  0  0  0  0
 26 27  1  0  0  0  0
 27 32  1  0  0  0  0
 27 28  2  0  0  0  0
 29 28  1  0  0  0  0
 29 33  1  0  0  0  0
 30 29  2  0  0  0  0
 31 26  1  0  0  0  0
 33 36  1  6  0  0  0
 33 34  1  0  0  0  0
 33 35  1  0  0  0  0
 34 37  1  0  0  0  0
 34 38  1  0  0  0  0
 34 35  1  0  0  0  0
 35 39  1  1  0  0  0
 35 40  1  0  0  0  0
 40 42  1  0  0  0  0
 40 41  1  0  0  0  0
M  END
>  <minimizedAffinity>
-5.73010921

>  <minimizedRMSD>
1.76228487

$$$$
