
 OpenBabel03242519243D

 40 43  0  0  0  0  0  0  0  0999 V2000
   47.9040   33.8700   42.8850 C   0  0  0  0  0  0  0  0  0  0  0  0
   48.5450   35.1110   42.6430 C   0  0  0  0  0  0  0  0  0  0  0  0
   49.9070   35.1470   42.3120 C   0  0  0  0  0  0  0  0  0  0  0  0
   50.5430   33.9350   42.2440 N   0  0  0  0  0  0  0  0  0  0  0  0
   49.8970   32.7510   42.4840 C   0  0  0  0  0  0  0  0  0  0  0  0
   48.6080   32.7410   42.7960 N   0  0  0  0  0  0  0  0  0  0  0  0
   48.1160   36.1020   42.6770 H   0  0  0  0  0  0  0  0  0  0  0  0
   50.4500   36.0370   42.1170 H   0  0  0  0  0  0  0  0  0  0  0  0
   46.4790   33.9600   43.2290 C   0  0  0  0  0  0  0  0  0  0  0  0
   45.7410   34.9610   42.4600 C   0  0  0  0  0  0  0  0  0  0  0  0
   45.2690   36.1230   43.2560 C   0  0  0  0  0  0  0  0  0  0  0  0
   44.4990   35.7240   44.5110 C   0  0  0  0  0  0  0  0  0  0  0  0
   44.9840   34.4670   45.1610 C   0  0  0  0  0  0  0  0  0  0  0  0
   46.4140   34.1760   44.7510 C   0  0  0  0  0  0  0  0  0  0  0  0
   46.0240   32.9340   43.0930 H   0  0  0  0  0  0  0  0  0  0  0  0
   46.3920   35.3570   41.6600 H   0  0  0  0  0  0  0  0  0  0  0  0
   44.8750   34.5000   41.9240 H   0  0  0  0  0  0  0  0  0  0  0  0
   44.4820   36.6260   42.6190 H   0  0  0  0  0  0  0  0  0  0  0  0
   45.9910   36.9100   43.4700 H   0  0  0  0  0  0  0  0  0  0  0  0
   44.6560   36.5430   45.2590 H   0  0  0  0  0  0  0  0  0  0  0  0
   43.4110   35.6560   44.3500 H   0  0  0  0  0  0  0  0  0  0  0  0
   44.3650   33.6310   44.7700 H   0  0  0  0  0  0  0  0  0  0  0  0
   44.9150   34.4690   46.2500 H   0  0  0  0  0  0  0  0  0  0  0  0
   46.7300   33.2170   45.2150 H   0  0  0  0  0  0  0  0  0  0  0  0
   47.1130   34.9560   45.0870 H   0  0  0  0  0  0  0  0  0  0  0  0
   50.7230   31.5600   42.3740 C   0  0  0  0  0  0  0  0  0  0  0  0
   51.5220   31.4550   41.2760 N   0  0  0  0  0  0  0  0  0  0  0  0
   52.2110   30.2910   41.3510 C   0  0  0  0  0  0  0  0  0  0  0  0
   51.8280   29.6720   42.5170 N   0  0  0  0  0  0  0  0  0  0  0  0
   50.9300   30.4510   43.1200 N   0  0  0  0  0  0  0  0  0  0  0  0
   52.9350   29.8680   40.6690 H   0  0  0  0  0  0  0  0  0  0  0  0
   50.1110   27.1840   41.6940 Br  0  0  0  0  0  0  0  0  0  0  0  0
   51.6280   27.2160   42.8490 C   0  0  0  0  0  0  0  0  0  0  0  0
   52.2410   28.4310   43.0780 C   0  0  0  0  0  0  0  0  0  0  0  0
   53.3510   28.4240   43.9300 C   0  0  0  0  0  0  0  0  0  0  0  0
   53.9070   29.3280   44.1760 H   0  0  0  0  0  0  0  0  0  0  0  0
   53.7670   27.2160   44.4870 C   0  0  0  0  0  0  0  0  0  0  0  0
   54.6290   27.1960   45.1510 H   0  0  0  0  0  0  0  0  0  0  0  0
   53.1460   26.0300   44.2460 C   0  0  0  0  0  3  0  0  0  0  0  0
   52.0580   26.0390   43.4100 C   0  0  0  0  0  3  0  0  0  0  0  0
  1  9  1  0  0  0  0
  2  7  1  0  0  0  0
  2  1  2  0  0  0  0
  3  2  1  0  0  0  0
  4  3  2  0  0  0  0
  4  5  1  0  0  0  0
  5  6  2  0  0  0  0
  6  1  1  0  0  0  0
  8  3  1  0  0  0  0
  9 14  1  0  0  0  0
 10  9  1  0  0  0  0
 10 11  1  0  0  0  0
 11 19  1  0  0  0  0
 11 12  1  0  0  0  0
 12 13  1  0  0  0  0
 12 20  1  0  0  0  0
 13 23  1  0  0  0  0
 14 25  1  0  0  0  0
 14 13  1  0  0  0  0
 14 24  1  0  0  0  0
 15  9  1  0  0  0  0
 16 10  1  0  0  0  0
 17 10  1  0  0  0  0
 18 11  1  0  0  0  0
 21 12  1  0  0  0  0
 22 13  1  0  0  0  0
 26  5  1  0  0  0  0
 26 30  2  0  0  0  0
 27 28  2  0  0  0  0
 27 26  1  0  0  0  0
 28 29  1  0  0  0  0
 29 34  1  0  0  0  0
 29 30  1  0  0  0  0
 31 28  1  0  0  0  0
 32 33  1  0  0  0  0
 33 34  2  0  0  0  0
 33 40  1  0  0  0  0
 34 35  1  0  0  0  0
 35 36  1  0  0  0  0
 35 37  2  0  0  0  0
 37 38  1  0  0  0  0
 39 37  1  0  0  0  0
 40 39  2  0  0  0  0
M  END
>  <minimizedAffinity>
-4.22598648

>  <minimizedRMSD>
1.16920185

$$$$
