
 OpenBabel03252504143D

 35 37  0  0  0  0  0  0  0  0999 V2000
   46.6160   29.6960   45.0500 F   0  0  0  0  0  0  0  0  0  0  0  0
   46.8980   30.5140   46.1120 C   0  0  0  0  0  0  0  0  0  0  0  0
   46.7660   31.8860   45.9930 C   0  0  0  0  0  0  0  0  0  0  0  0
   47.0740   32.6350   47.1190 C   0  0  0  0  0  0  0  0  0  0  0  0
   47.4870   32.0430   48.2910 C   0  0  0  0  0  0  0  0  0  0  0  0
   47.6000   30.6660   48.3500 C   0  0  0  0  0  0  0  0  0  0  0  0
   47.3090   29.8570   47.2620 C   0  0  0  0  0  0  0  0  0  0  0  0
   46.9910   33.7170   47.0910 H   0  0  0  0  0  0  0  0  0  0  0  0
   47.7350   32.5990   49.1850 H   0  0  0  0  0  0  0  0  0  0  0  0
   47.9260   30.1870   49.2680 H   0  0  0  0  0  0  0  0  0  0  0  0
   50.2000   29.0170   46.7310 Br  0  0  0  0  0  0  0  0  0  0  0  0
   48.6990   27.8740   47.0860 C   0  0  0  0  0  0  0  0  0  0  0  0
   47.4250   28.4030   47.3130 C   0  0  0  0  0  0  0  0  0  0  0  0
   46.3480   27.5770   47.5690 C   0  0  0  0  0  0  0  0  0  0  0  0
   45.3700   27.9970   47.7420 H   0  0  0  0  0  0  0  0  0  0  0  0
   46.5940   26.2200   47.5880 C   0  0  0  0  0  0  0  0  0  0  0  0
   45.7730   25.5170   47.7870 H   0  0  0  0  0  0  0  0  0  0  0  0
   47.8170   25.6230   47.3760 C   0  0  0  0  0  3  0  0  0  0  0  0
   48.8740   26.5040   47.1210 C   0  0  0  0  0  3  0  0  0  0  0  0
   46.7390   34.0990   43.0900 C   0  0  0  0  0  0  0  0  0  0  0  0
   45.5960   33.7240   42.4000 C   0  0  0  0  0  0  0  0  0  0  0  0
   44.8160   32.6880   42.9450 C   0  0  0  0  0  0  0  0  0  0  0  0
   45.2110   32.1090   44.1030 N   0  0  0  0  0  0  0  0  0  0  0  0
   46.3250   32.5010   44.7410 C   0  0  0  0  0  0  0  0  0  0  0  0
   47.0940   33.4980   44.2360 N   0  0  0  0  0  0  0  0  0  0  0  0
   43.9280   32.3930   42.4160 H   0  0  0  0  0  0  0  0  0  0  0  0
   45.2390   34.4090   41.1430 C   0  0  0  0  0  0  0  0  0  0  0  0
   45.0310   35.7530   41.3790 F   0  0  0  0  0  0  0  0  0  0  0  0
   46.3400   34.3230   40.2870 F   0  0  0  0  0  0  0  0  0  0  0  0
   44.1590   33.9160   40.5000 F   0  0  0  0  0  0  0  0  0  0  0  0
   47.4890   35.0970   42.5620 O   0  0  0  0  0  0  0  0  0  0  0  0
   48.7990   34.9820   42.0270 C   0  0  0  0  0  0  0  0  0  0  0  0
   49.6910   35.2300   43.0700 F   0  0  0  0  0  0  0  0  0  0  0  0
   48.9540   33.7540   41.4490 F   0  0  0  0  0  0  0  0  0  0  0  0
   49.0080   36.0180   41.1380 F   0  0  0  0  0  0  0  0  0  0  0  0
  1  2  1  0  0  0  0
  2  7  1  0  0  0  0
  3  2  2  0  0  0  0
  3  4  1  0  0  0  0
  4  5  2  0  0  0  0
  5  6  1  0  0  0  0
  5  9  1  0  0  0  0
  6 10  1  0  0  0  0
  7 13  1  0  0  0  0
  7  6  2  0  0  0  0
  8  4  1  0  0  0  0
 11 12  1  0  0  0  0
 12 19  2  0  0  0  0
 12 13  1  0  0  0  0
 13 14  2  0  0  0  0
 14 16  1  0  0  0  0
 14 15  1  0  0  0  0
 16 17  1  0  0  0  0
 18 16  2  0  0  0  0
 19 18  1  0  0  0  0
 20 25  1  0  0  0  0
 21 22  1  0  0  0  0
 21 20  2  0  0  0  0
 22 23  2  0  0  0  0
 23 24  1  0  0  0  0
 24  3  1  0  0  0  0
 25 24  2  0  0  0  0
 26 22  1  0  0  0  0
 27 28  1  0  0  0  0
 27 21  1  0  0  0  0
 29 27  1  0  0  0  0
 30 27  1  0  0  0  0
 31 20  1  0  0  0  0
 32 31  1  0  0  0  0
 32 33  1  0  0  0  0
 34 32  1  0  0  0  0
 35 32  1  0  0  0  0
M  END
>  <minimizedAffinity>
-5.60619926

>  <minimizedRMSD>
1.02699661

$$$$
