
 OpenBabel03252501253D

 35 38  0  0  0  0  0  0  0  0999 V2000
   43.3020   32.0560   42.3210 F   0  0  0  0  0  0  0  0  0  0  0  0
   43.4980   33.3650   42.0890 C   0  0  0  0  0  0  0  0  0  0  0  0
   44.6100   33.9930   42.6250 C   0  0  0  0  0  0  0  0  0  0  0  0
   44.8220   35.3460   42.3890 C   0  0  0  0  0  0  0  0  0  0  0  0
   43.9590   36.0950   41.6340 C   0  0  0  0  0  0  0  0  0  0  0  0
   42.8690   35.4660   41.1120 C   0  0  0  0  0  0  0  0  0  0  0  0
   42.6320   34.1260   41.3280 C   0  0  0  0  0  0  0  0  0  0  0  0
   45.6890   35.8620   42.8010 H   0  0  0  0  0  0  0  0  0  0  0  0
   44.0790   37.1430   41.4240 H   0  0  0  0  0  0  0  0  0  0  0  0
   42.1000   35.9300   40.4940 H   0  0  0  0  0  0  0  0  0  0  0  0
   43.1580   32.9070   38.5190 Br  0  0  0  0  0  0  0  0  0  0  0  0
   41.5430   32.7740   39.5380 C   0  0  0  0  0  0  0  0  0  0  0  0
   41.4710   33.3840   40.7910 C   0  0  0  0  0  0  0  0  0  0  0  0
   40.3280   33.3170   41.5670 C   0  0  0  0  0  0  0  0  0  0  0  0
   40.3040   33.7990   42.5320 H   0  0  0  0  0  0  0  0  0  0  0  0
   39.2160   32.6360   41.1100 C   0  0  0  0  0  0  0  0  0  0  0  0
   38.3130   32.5740   41.7050 H   0  0  0  0  0  0  0  0  0  0  0  0
   39.2700   32.0270   39.8730 C   0  0  0  0  0  0  0  0  0  0  0  0
   40.4230   32.0910   39.0870 C   0  0  0  0  0  0  0  0  0  0  0  0
   46.3710   32.4660   45.2540 C   0  0  0  0  0  0  0  0  0  0  0  0
   47.3010   32.3490   44.2210 C   0  0  0  0  0  0  0  0  0  0  0  0
   46.7790   32.9010   43.0920 C   0  0  0  0  0  0  0  0  0  0  0  0
   45.5660   33.3460   43.4120 N   0  0  0  0  0  0  0  0  0  0  0  0
   45.3360   33.0790   44.7080 N   0  0  0  0  0  0  0  0  0  0  0  0
   48.2980   31.9000   44.2500 H   0  0  0  0  0  0  0  0  0  0  0  0
   47.1470   33.0270   42.0790 H   0  0  0  0  0  0  0  0  0  0  0  0
   47.6810   30.5960   48.1190 C   0  0  0  0  0  0  0  0  0  0  0  0
   46.9290   31.1200   49.1840 C   0  0  0  0  0  0  0  0  0  0  0  0
   45.9810   32.1080   48.9130 C   0  0  0  0  0  0  0  0  0  0  0  0
   45.8730   32.4760   47.6200 N   0  0  0  0  0  0  0  0  0  0  0  0
   46.5760   31.9900   46.6060 C   0  0  0  0  0  0  0  0  0  0  0  0
   47.5060   31.0280   46.8400 N   0  0  0  0  0  0  0  0  0  0  0  0
   48.4250   29.8320   48.2750 H   0  0  0  0  0  0  0  0  0  0  0  0
   47.1060   30.7440   50.1840 H   0  0  0  0  0  0  0  0  0  0  0  0
   45.3900   32.5280   49.7130 H   0  0  0  0  0  0  0  0  0  0  0  0
  2  1  1  0  0  0  0
  2  3  1  0  0  0  0
  3 23  1  0  0  0  0
  4  3  2  0  0  0  0
  4  8  1  0  0  0  0
  5  4  1  0  0  0  0
  6  7  1  0  0  0  0
  6  5  2  0  0  0  0
  7  2  2  0  0  0  0
  9  5  1  0  0  0  0
 10  6  1  0  0  0  0
 11 12  1  0  0  0  0
 12 13  1  0  0  0  0
 13  7  1  0  0  0  0
 13 14  2  0  0  0  0
 14 15  1  0  0  0  0
 16 14  1  0  0  0  0
 16 17  1  0  0  0  0
 18 16  2  0  0  0  0
 19 12  2  0  0  0  0
 19 18  1  0  0  0  0
 20 31  1  0  0  0  0
 21 25  1  0  0  0  0
 21 20  1  0  0  0  0
 22 23  1  0  0  0  0
 22 21  2  0  0  0  0
 23 24  1  0  0  0  0
 24 20  2  0  0  0  0
 26 22  1  0  0  0  0
 27 33  1  0  0  0  0
 27 28  1  0  0  0  0
 28 34  1  0  0  0  0
 29 28  2  0  0  0  0
 29 35  1  0  0  0  0
 30 29  1  0  0  0  0
 31 32  1  0  0  0  0
 31 30  2  0  0  0  0
 32 27  2  0  0  0  0
M  END
>  <minimizedAffinity>
-5.59105539

>  <minimizedRMSD>
2.68469

$$$$
