
 OpenBabel03252503413D

 21 22  0  0  0  0  0  0  0  0999 V2000
   44.8400   35.4150   44.4250 C   0  0  0  0  0  0  0  0  0  0  0  0
   44.6610   34.8170   43.1620 C   0  0  0  0  0  0  0  0  0  0  0  0
   44.9240   33.4590   43.0720 C   0  0  0  0  0  0  0  0  0  0  0  0
   45.3280   32.7740   44.1590 N   0  0  0  0  0  0  0  0  0  0  0  0
   45.4900   33.3810   45.3620 C   0  0  0  0  0  0  0  0  0  0  0  0
   45.2450   34.7010   45.4920 N   0  0  0  0  0  0  0  0  0  0  0  0
   44.6730   36.4620   44.6460 H   0  0  0  0  0  0  0  0  0  0  0  0
   44.7700   33.0640   42.0840 H   0  0  0  0  0  0  0  0  0  0  0  0
   47.7080   31.3820   44.6460 Br  0  0  0  0  0  0  0  0  0  0  0  0
   46.9140   31.6600   46.3660 C   0  0  0  0  0  0  0  0  0  0  0  0
   45.9300   32.5970   46.5130 C   0  0  0  0  0  0  0  0  0  0  0  0
   45.3370   32.8220   47.7390 C   0  0  0  0  0  0  0  0  0  0  0  0
   44.5610   33.5630   47.8540 H   0  0  0  0  0  0  0  0  0  0  0  0
   45.7640   32.0720   48.8250 C   0  0  0  0  0  0  0  0  0  0  0  0
   45.3280   32.2120   49.8090 H   0  0  0  0  0  0  0  0  0  0  0  0
   46.7570   31.1220   48.6850 C   0  0  0  0  0  3  0  0  0  0  0  0
   47.3310   30.9190   47.4490 C   0  0  0  0  0  3  0  0  0  0  0  0
   44.2130   35.7300   42.0910 C   0  0  0  0  0  0  0  0  0  0  0  0
   43.1370   35.9090   42.2120 H   0  0  0  0  0  0  0  0  0  0  0  0
   44.3480   35.2880   41.0880 H   0  0  0  0  0  0  0  0  0  0  0  0
   44.7330   36.7110   42.1600 H   0  0  0  0  0  0  0  0  0  0  0  0
  1  7  1  0  0  0  0
  1  6  1  0  0  0  0
  2  1  2  0  0  0  0
  3  2  1  0  0  0  0
  3  4  2  0  0  0  0
  4  5  1  0  0  0  0
  5  6  2  0  0  0  0
  5 11  1  0  0  0  0
  8  3  1  0  0  0  0
  9 10  1  0  0  0  0
 10 11  2  0  0  0  0
 10 17  1  0  0  0  0
 11 12  1  0  0  0  0
 12 13  1  0  0  0  0
 12 14  2  0  0  0  0
 14 15  1  0  0  0  0
 16 14  1  0  0  0  0
 17 16  2  0  0  0  0
 18 21  1  0  0  0  0
 18 19  1  0  0  0  0
 18  2  1  0  0  0  0
 20 18  1  0  0  0  0
M  END
>  <minimizedAffinity>
-4.26998472

>  <minimizedRMSD>
1.09496582

$$$$
