
 OpenBabel03252500573D

 38 40  0  0  0  0  0  0  0  0999 V2000
   43.6430   34.8980   39.8810 O   0  0  0  0  0  0  0  0  0  0  0  0
   43.4050   34.5470   41.3460 P   0  0  1  0  0  0  0  0  0  0  0  0
   43.4830   32.8690   41.5100 O   0  0  0  0  0  0  0  0  0  0  0  0
   43.3220   32.3970   40.6600 H   0  0  0  0  0  0  0  0  0  0  0  0
   44.6320   35.2180   42.2890 O   0  0  0  0  0  0  0  0  0  0  0  0
   46.7620   34.3210   42.7180 C   0  0  0  0  0  0  0  0  0  0  0  0
   45.4780   34.5400   43.1640 C   0  0  0  0  0  0  0  0  0  0  0  0
   45.1260   34.0740   44.4350 C   0  0  0  0  0  0  0  0  0  0  0  0
   46.0680   33.4350   45.1570 N   0  0  0  0  0  0  0  0  0  0  0  0
   47.3160   33.2310   44.7030 C   0  0  0  0  0  0  0  0  0  0  0  0
   47.6580   33.6720   43.4920 N   0  0  0  0  0  0  0  0  0  0  0  0
   44.1160   34.2680   44.7390 H   0  0  0  0  0  0  0  0  0  0  0  0
   47.9790   32.7050   45.3730 H   0  0  0  0  0  0  0  0  0  0  0  0
   47.1950   34.7800   41.4040 C   0  0  0  0  0  0  0  0  0  0  0  0
   46.4580   35.5090   41.0110 H   0  0  0  0  0  0  0  0  0  0  0  0
   47.2610   33.9740   40.6650 H   0  0  0  0  0  0  0  0  0  0  0  0
   48.5370   35.4320   41.5260 C   0  0  0  0  0  0  0  0  0  0  0  0
   48.4730   36.5000   41.2430 H   0  0  0  0  0  0  0  0  0  0  0  0
   48.9140   35.3920   42.5700 H   0  0  0  0  0  0  0  0  0  0  0  0
   49.3250   34.9000   40.9300 H   0  0  0  0  0  0  0  0  0  0  0  0
   41.8520   35.0480   41.8120 O   0  0  0  0  0  0  0  0  0  0  0  0
   40.7610   34.4840   41.1580 C   0  0  0  0  0  0  0  0  0  0  0  0
   40.0050   35.3270   40.3570 C   0  0  0  0  0  0  0  0  0  0  0  0
   38.8870   34.8580   39.6560 C   0  0  0  0  0  0  0  0  0  0  0  0
   38.5580   33.5400   39.7820 N   0  0  0  0  0  0  0  0  0  0  0  0
   39.2910   32.7450   40.5510 C   0  0  0  0  0  0  0  0  0  0  0  0
   40.3620   33.2050   41.2200 N   0  0  0  0  0  0  0  0  0  0  0  0
   40.2700   36.3830   40.2590 H   0  0  0  0  0  0  0  0  0  0  0  0
   38.3330   35.5390   39.0530 H   0  0  0  0  0  0  0  0  0  0  0  0
   41.1260   30.9440   38.9450 Br  0  0  0  0  0  0  0  0  0  0  0  0
   39.7010   30.3420   40.0530 C   0  0  0  0  0  0  0  0  0  0  0  0
   38.9710   31.3310   40.7100 C   0  0  0  0  0  0  0  0  0  0  0  0
   37.9280   30.8780   41.5200 C   0  0  0  0  0  0  0  0  0  0  0  0
   37.3250   31.6120   42.0580 H   0  0  0  0  0  0  0  0  0  0  0  0
   37.6790   29.5430   41.6270 C   0  0  0  0  0  0  0  0  0  0  0  0
   36.8810   29.1380   42.2420 H   0  0  0  0  0  0  0  0  0  0  0  0
   38.4110   28.5940   40.9690 C   0  0  0  0  0  3  0  0  0  0  0  0
   39.4640   28.9860   40.1480 C   0  0  0  0  0  3  0  0  0  0  0  0
  2  1  2  6  0  0  0
  2  3  1  0  0  0  0
  2 21  1  0  0  0  0
  2  5  1  0  0  0  0
  4  3  1  0  0  0  0
  5  7  1  0  0  0  0
  6  7  2  0  0  0  0
  6 11  1  0  0  0  0
  7  8  1  0  0  0  0
  8 12  1  0  0  0  0
  8  9  2  0  0  0  0
 10  9  1  0  0  0  0
 10 13  1  0  0  0  0
 11 10  2  0  0  0  0
 14 17  1  0  0  0  0
 14  6  1  0  0  0  0
 15 14  1  0  0  0  0
 16 14  1  0  0  0  0
 17 19  1  0  0  0  0
 18 17  1  0  0  0  0
 20 17  1  0  0  0  0
 22 27  1  0  0  0  0
 22 21  1  0  0  0  0
 23 22  2  0  0  0  0
 24 25  2  0  0  0  0
 24 23  1  0  0  0  0
 25 26  1  0  0  0  0
 26 32  1  0  0  0  0
 26 27  2  0  0  0  0
 28 23  1  0  0  0  0
 29 24  1  0  0  0  0
 30 31  1  0  0  0  0
 31 38  2  0  0  0  0
 31 32  1  0  0  0  0
 32 33  2  0  0  0  0
 33 35  1  0  0  0  0
 33 34  1  0  0  0  0
 35 36  1  0  0  0  0
 37 35  2  0  0  0  0
 38 37  1  0  0  0  0
M  END
>  <minimizedAffinity>
-5.31361198

>  <minimizedRMSD>
1.03400052

$$$$
