
 OpenBabel03252506053D

 43 47  0  0  0  0  0  0  0  0999 V2000
   44.7240   35.8920   43.3840 Cl  0  0  0  0  0  0  0  0  0  0  0  0
   45.4940   34.6550   44.3200 C   0  0  0  0  0  0  0  0  0  0  0  0
   46.5680   33.9570   43.8010 C   0  0  0  0  0  0  0  0  0  0  0  0
   47.1100   32.9900   44.6290 C   0  0  0  0  0  0  0  0  0  0  0  0
   46.6560   32.6960   45.8960 C   0  0  0  0  0  0  0  0  0  0  0  0
   45.5910   33.4080   46.3760 C   0  0  0  0  0  0  0  0  0  0  0  0
   45.0530   32.9960   47.9940 Cl  0  0  0  0  0  0  0  0  0  0  0  0
   45.0170   34.3740   45.6020 C   0  0  0  0  0  0  0  0  0  0  0  0
   47.9570   32.4470   44.2070 H   0  0  0  0  0  0  0  0  0  0  0  0
   44.1750   34.9210   46.0090 H   0  0  0  0  0  0  0  0  0  0  0  0
   47.3670   31.6350   46.6150 C   0  0  0  0  0  0  0  0  0  0  0  0
   47.4940   30.3460   46.1300 C   0  0  0  0  0  0  0  0  0  0  0  0
   48.1590   29.3330   46.7920 C   0  0  0  0  0  0  0  0  0  0  0  0
   48.7390   29.6030   48.0120 C   0  0  0  0  0  0  0  0  0  0  0  0
   49.3810   28.6040   48.6410 N   0  0  0  0  0  0  0  0  0  0  0  0
   49.9820   28.7770   49.8430 C   0  0  0  0  0  0  0  0  0  0  0  0
   49.8970   30.0460   50.3950 C   0  0  0  0  0  0  0  0  0  0  0  0
   49.2440   31.0650   49.7600 C   0  0  0  0  0  0  0  0  0  0  0  0
   48.6380   30.8670   48.5300 C   0  0  0  0  0  0  0  0  0  0  0  0
   47.9690   31.8640   47.8530 C   0  0  0  0  0  0  0  0  0  0  0  0
   47.0390   30.1320   45.1710 H   0  0  0  0  0  0  0  0  0  0  0  0
   48.2050   28.3570   46.3320 H   0  0  0  0  0  0  0  0  0  0  0  0
   50.4830   27.9450   50.3030 H   0  0  0  0  0  0  0  0  0  0  0  0
   50.3700   30.2070   51.3560 H   0  0  0  0  0  0  0  0  0  0  0  0
   49.1790   32.0550   50.1920 H   0  0  0  0  0  0  0  0  0  0  0  0
   47.9100   32.8500   48.2940 H   0  0  0  0  0  0  0  0  0  0  0  0
   48.6190   35.3140   41.1140 C   0  0  0  0  0  0  0  0  0  0  0  0
   48.0920   34.6980   39.9700 C   0  0  0  0  0  0  0  0  0  0  0  0
   47.0160   33.8020   40.1250 C   0  0  0  0  0  0  0  0  0  0  0  0
   46.5870   33.6200   41.3870 N   0  0  0  0  0  0  0  0  0  0  0  0
   47.1000   34.2160   42.4710 C   0  0  0  0  0  0  0  0  0  0  0  0
   48.1220   35.0690   42.3450 N   0  0  0  0  0  0  0  0  0  0  0  0
   49.4500   36.0000   40.9670 H   0  0  0  0  0  0  0  0  0  0  0  0
   48.4890   34.8920   38.9860 H   0  0  0  0  0  0  0  0  0  0  0  0
   43.9650   34.0960   40.1930 Br  0  0  0  0  0  0  0  0  0  0  0  0
   45.0270   33.1560   38.8930 C   0  0  0  0  0  0  0  0  0  0  0  0
   46.4000   33.1140   38.9990 C   0  0  0  0  0  0  0  0  0  0  0  0
   47.0900   32.4290   38.0400 C   0  0  0  0  0  0  0  0  0  0  0  0
   48.1660   32.3720   38.0860 H   0  0  0  0  0  0  0  0  0  0  0  0
   46.3910   31.8210   37.0270 C   0  0  0  0  0  0  0  0  0  0  0  0
   46.9620   31.2780   36.2690 H   0  0  0  0  0  0  0  0  0  0  0  0
   45.0180   31.8510   36.9030 C   0  0  0  0  0  3  0  0  0  0  0  0
   44.3220   32.5570   37.8910 C   0  0  0  0  0  3  0  0  0  0  0  0
  1  2  1  0  0  0  0
  2  8  1  0  0  0  0
  3  2  2  0  0  0  0
  3  4  1  0  0  0  0
  4  5  2  0  0  0  0
  5  6  1  0  0  0  0
  5 11  1  0  0  0  0
  6  7  1  0  0  0  0
  8 10  1  0  0  0  0
  8  6  2  0  0  0  0
  9  4  1  0  0  0  0
 11 20  1  0  0  0  0
 12 11  2  0  0  0  0
 12 13  1  0  0  0  0
 13 14  2  0  0  0  0
 14 19  1  0  0  0  0
 14 15  1  0  0  0  0
 15 16  2  0  0  0  0
 16 23  1  0  0  0  0
 16 17  1  0  0  0  0
 17 24  1  0  0  0  0
 18 25  1  0  0  0  0
 18 17  2  0  0  0  0
 19 18  1  0  0  0  0
 20 26  1  0  0  0  0
 20 19  2  0  0  0  0
 21 12  1  0  0  0  0
 22 13  1  0  0  0  0
 27 32  1  0  0  0  0
 28 29  1  0  0  0  0
 28 27  2  0  0  0  0
 29 30  2  0  0  0  0
 30 31  1  0  0  0  0
 31  3  1  0  0  0  0
 32 31  2  0  0  0  0
 33 27  1  0  0  0  0
 34 28  1  0  0  0  0
 36 37  1  0  0  0  0
 36 35  1  0  0  0  0
 37 29  1  0  0  0  0
 38 39  1  0  0  0  0
 38 37  2  0  0  0  0
 40 38  1  0  0  0  0
 41 40  1  0  0  0  0
 42 40  2  0  0  0  0
 42 43  1  0  0  0  0
 43 36  2  0  0  0  0
M  END
>  <minimizedAffinity>
-7.32327414

>  <minimizedRMSD>
0.561914563

$$$$
