
 OpenBabel03242513313D

 37 40  0  0  0  0  0  0  0  0999 V2000
   46.0410   33.4720   40.9750 C   0  0  0  0  0  0  0  0  0  0  0  0
   46.5930   34.4800   41.7600 C   0  0  0  0  0  0  0  0  0  0  0  0
   47.7040   35.0920   41.2990 C   0  0  0  0  0  0  0  0  0  0  0  0
   48.2910   34.7500   40.0960 C   0  0  0  0  0  0  0  0  0  0  0  0
   47.7390   33.7510   39.3250 C   0  0  0  0  0  0  0  0  0  0  0  0
   46.5900   33.0870   39.7580 C   0  0  0  0  0  0  0  0  0  0  0  0
   48.1110   35.8770   41.9380 H   0  0  0  0  0  0  0  0  0  0  0  0
   49.1730   35.3060   39.8290 H   0  0  0  0  0  0  0  0  0  0  0  0
   48.2070   33.4880   38.3780 H   0  0  0  0  0  0  0  0  0  0  0  0
   44.6050   36.2000   44.4660 C   0  0  0  0  0  0  0  0  0  0  0  0
   45.2270   35.9400   43.2400 C   0  0  0  0  0  0  0  0  0  0  0  0
   45.9330   34.7910   43.0090 C   0  0  0  0  0  0  0  0  0  0  0  0
   45.9740   33.9300   44.0720 N   0  0  0  0  0  0  0  0  0  0  0  0
   45.3780   34.1680   45.2600 C   0  0  0  0  0  0  0  0  0  0  0  0
   44.6910   35.3110   45.4510 N   0  0  0  0  0  0  0  0  0  0  0  0
   44.0530   37.1200   44.6180 H   0  0  0  0  0  0  0  0  0  0  0  0
   45.1610   36.6630   42.4300 H   0  0  0  0  0  0  0  0  0  0  0  0
   45.5360   33.3490   45.9690 H   0  0  0  0  0  0  0  0  0  0  0  0
   44.9020   32.8060   41.3920 O   0  0  0  0  0  0  0  0  0  0  0  0
   44.1760   32.5820   40.7090 H   0  0  0  0  0  0  0  0  0  0  0  0
   46.0140   32.0920   39.0200 O   0  0  0  0  0  0  0  0  0  0  0  0
   46.0140   31.9950   37.6670 C   0  0  0  0  0  0  0  0  0  0  0  0
   45.3790   32.7640   36.7180 C   0  0  0  0  0  0  0  0  0  0  0  0
   45.5370   32.4630   35.4050 C   0  0  0  0  0  0  0  0  0  0  0  0
   46.3640   31.3480   35.1030 C   0  0  0  0  0  0  0  0  0  0  0  0
   46.9000   30.7580   36.7230 S   0  0  0  0  0  0  0  0  0  0  0  0
   44.7740   33.5890   37.0440 H   0  0  0  0  0  0  0  0  0  0  0  0
   45.1020   32.9770   34.5700 H   0  0  0  0  0  0  0  0  0  0  0  0
   48.9030   32.6970   33.9820 Br  0  0  0  0  0  0  0  0  0  0  0  0
   47.8660   31.2920   33.2370 C   0  0  0  0  0  0  0  0  0  0  0  0
   46.7400   30.7600   33.8270 C   0  0  0  0  0  0  0  0  0  0  0  0
   45.9440   29.7650   33.3710 C   0  0  0  0  0  0  0  0  0  0  0  0
   45.0750   29.4000   33.8900 H   0  0  0  0  0  0  0  0  0  0  0  0
   46.3050   29.1980   32.1430 C   0  0  0  0  0  0  0  0  0  0  0  0
   45.7460   28.4120   31.7010 H   0  0  0  0  0  0  0  0  0  0  0  0
   47.4370   29.6800   31.4750 C   0  0  0  0  0  3  0  0  0  0  0  0
   48.2140   30.7140   32.0100 C   0  0  0  0  0  3  0  0  0  0  0  0
  1 19  1  0  0  0  0
  1  2  1  0  0  0  0
  2 12  1  0  0  0  0
  3  2  2  0  0  0  0
  3  7  1  0  0  0  0
  4  3  1  0  0  0  0
  5  6  1  0  0  0  0
  5  4  2  0  0  0  0
  6  1  2  0  0  0  0
  8  4  1  0  0  0  0
  9  5  1  0  0  0  0
 10 16  1  0  0  0  0
 10 15  1  0  0  0  0
 11 10  2  0  0  0  0
 12 11  1  0  0  0  0
 12 13  2  0  0  0  0
 13 14  1  0  0  0  0
 14 15  2  0  0  0  0
 14 18  1  0  0  0  0
 17 11  1  0  0  0  0
 20 19  1  0  0  0  0
 21  6  1  0  0  0  0
 22 21  1  0  0  0  0
 23 27  1  0  0  0  0
 23 22  2  0  0  0  0
 24 23  1  0  0  0  0
 25 24  2  0  0  0  0
 25 26  1  0  0  0  0
 26 22  1  0  0  0  0
 28 24  1  0  0  0  0
 30 31  1  0  0  0  0
 30 29  1  0  0  0  0
 31 25  1  0  0  0  0
 32 31  2  0  0  0  0
 32 33  1  0  0  0  0
 34 32  1  0  0  0  0
 35 34  1  0  0  0  0
 36 37  1  0  0  0  0
 36 34  2  0  0  0  0
 37 30  2  0  0  0  0
M  END
>  <minimizedAffinity>
-6.12975359

>  <minimizedRMSD>
0.984434426

$$$$
