
 OpenBabel03252500473D

 26 28  0  0  0  0  0  0  0  0999 V2000
   45.3250   34.0060   44.9360 C   0  0  0  0  0  0  0  0  0  0  0  0
   45.0900   33.3320   43.7370 C   0  0  0  0  0  0  0  0  0  0  0  0
   45.5960   32.0230   43.5940 C   0  0  0  0  0  0  0  0  0  0  0  0
   46.2950   31.4860   44.6500 N   0  0  0  0  0  0  0  0  0  0  0  0
   46.4950   32.1800   45.7880 C   0  0  0  0  0  0  0  0  0  0  0  0
   46.0150   33.4330   45.9370 N   0  0  0  0  0  0  0  0  0  0  0  0
   44.9340   35.0050   45.0370 H   0  0  0  0  0  0  0  0  0  0  0  0
   45.4660   31.4280   42.7100 H   0  0  0  0  0  0  0  0  0  0  0  0
   47.2380   31.5900   46.8910 C   0  0  0  0  0  0  0  0  0  0  0  0
   47.5520   30.2690   46.9140 C   0  0  0  0  0  0  0  0  0  0  0  0
   48.2560   29.6760   47.9450 C   0  0  0  0  0  0  0  0  0  0  0  0
   48.6360   30.4870   48.9690 N   0  0  0  0  0  0  0  0  0  0  0  0
   48.3280   31.7840   48.9460 C   0  0  0  0  0  0  0  0  0  0  0  0
   47.6360   32.3800   47.9390 N   0  0  0  0  0  0  0  0  0  0  0  0
   47.2710   29.5900   46.1240 H   0  0  0  0  0  0  0  0  0  0  0  0
   48.5230   28.6350   47.9980 H   0  0  0  0  0  0  0  0  0  0  0  0
   48.5790   32.5230   49.7080 H   0  0  0  0  0  0  0  0  0  0  0  0
   45.2040   36.4480   43.3230 Br  0  0  0  0  0  0  0  0  0  0  0  0
   44.2690   35.2000   42.2500 C   0  0  0  0  0  0  0  0  0  0  0  0
   44.3590   33.8780   42.6200 C   0  0  0  0  0  0  0  0  0  0  0  0
   43.6770   32.9450   41.8420 C   0  0  0  0  0  0  0  0  0  0  0  0
   43.6430   31.8640   41.9920 H   0  0  0  0  0  0  0  0  0  0  0  0
   42.9270   33.3310   40.7270 C   0  0  0  0  0  0  0  0  0  0  0  0
   42.3870   32.6500   40.1000 H   0  0  0  0  0  0  0  0  0  0  0  0
   42.8750   34.6850   40.4040 C   0  0  0  0  0  0  0  0  0  0  0  0
   43.5430   35.6320   41.1610 C   0  0  0  0  0  0  0  0  0  0  0  0
  1  7  1  0  0  0  0
  1  6  1  0  0  0  0
  2  1  2  0  0  0  0
  3  2  1  0  0  0  0
  3  4  2  0  0  0  0
  4  5  1  0  0  0  0
  5  6  2  0  0  0  0
  5  9  1  0  0  0  0
  8  3  1  0  0  0  0
  9 10  2  0  0  0  0
  9 14  1  0  0  0  0
 10 11  1  0  0  0  0
 11 16  1  0  0  0  0
 11 12  2  0  0  0  0
 13 12  1  0  0  0  0
 13 17  1  0  0  0  0
 14 13  2  0  0  0  0
 15 10  1  0  0  0  0
 19 20  1  0  0  0  0
 19 18  1  0  0  0  0
 20  2  1  0  0  0  0
 21 22  1  0  0  0  0
 21 20  2  0  0  0  0
 23 21  1  0  0  0  0
 24 23  1  0  0  0  0
 25 23  2  0  0  0  0
 25 26  1  0  0  0  0
 26 19  2  0  0  0  0
M  END
>  <minimizedAffinity>
-4.7992382

>  <minimizedRMSD>
2.71021605

$$$$
