
 OpenBabel03242523073D

 45 49  0  0  1  0  0  0  0  0999 V2000
   45.2460   35.9260   43.4610 C   0  0  0  0  0  0  0  0  0  0  0  0
   46.0810   34.8510   43.1860 C   0  0  0  0  0  0  0  0  0  0  0  0
   46.2090   33.8750   44.1400 C   0  0  0  0  0  0  0  0  0  0  0  0
   45.5170   34.0010   45.3140 N   0  0  0  0  0  0  0  0  0  0  0  0
   44.7160   35.0560   45.5540 C   0  0  0  0  0  0  0  0  0  0  0  0
   44.5860   35.9970   44.6400 N   0  0  0  0  0  0  0  0  0  0  0  0
   45.1160   36.7230   42.7310 H   0  0  0  0  0  0  0  0  0  0  0  0
   44.1400   35.2270   46.4510 H   0  0  0  0  0  0  0  0  0  0  0  0
   46.7550   34.8390   41.9660 N   0  0  0  0  0  0  0  0  0  0  0  0
   48.0370   35.4050   41.7880 C   0  0  0  0  0  0  0  0  0  0  0  0
   48.6620   35.1460   40.4390 C   0  0  0  0  0  0  0  0  0  0  0  0
   48.4500   33.8620   39.8960 N   0  0  0  0  0  0  0  0  0  0  0  0
   47.1800   33.3080   40.0800 C   0  0  0  0  0  0  0  0  0  0  0  0
   46.2330   34.2710   40.7690 C   0  0  0  0  0  0  0  0  0  0  0  0
   47.8990   36.5230   41.8420 H   0  0  0  0  0  0  0  0  0  0  0  0
   48.7710   35.1960   42.5960 H   0  0  0  0  0  0  0  0  0  0  0  0
   49.7590   35.3010   40.5450 H   0  0  0  0  0  0  0  0  0  0  0  0
   48.3250   35.9170   39.6890 H   0  0  0  0  0  0  0  0  0  0  0  0
   49.2080   33.2130   40.2390 H   0  0  0  0  0  0  0  0  0  0  0  0
   47.1590   32.3000   40.5430 H   0  0  0  0  0  0  0  0  0  0  0  0
   46.7070   33.1370   39.0660 H   0  0  0  0  0  0  0  0  0  0  0  0
   45.2520   33.7680   40.8890 H   0  0  0  0  0  0  0  0  0  0  0  0
   46.0510   35.1230   40.0630 H   0  0  0  0  0  0  0  0  0  0  0  0
   46.7690   31.9490   45.3730 C   0  0  0  0  0  0  0  0  0  0  0  0
   46.9420   32.6730   44.1740 C   0  0  0  0  0  0  0  0  0  0  0  0
   47.8450   32.0290   43.3500 C   0  0  0  0  0  0  0  0  0  0  0  0
   48.4980   30.8670   43.6140 C   0  0  0  0  0  0  0  0  0  0  0  0
   48.2770   30.2280   44.8120 C   0  0  0  0  0  0  0  0  0  0  0  0
   47.4030   30.7650   45.7070 C   0  0  0  0  0  0  0  0  0  0  0  0
   49.0850   29.1130   44.7770 O   0  0  0  0  0  0  0  0  0  0  0  0
   49.7610   29.0340   43.5470 C   0  0  1  0  0  0  0  0  0  0  0  0
   49.4000   30.1970   42.8010 O   0  0  0  0  0  0  0  0  0  0  0  0
   46.1170   32.1640   46.2450 H   0  0  0  0  0  0  0  0  0  0  0  0
   47.9800   32.5650   42.4630 H   0  0  0  0  0  0  0  0  0  0  0  0
   47.2980   30.2000   46.5930 H   0  0  0  0  0  0  0  0  0  0  0  0
   49.3240   28.1520   42.9940 H   0  0  0  0  0  0  0  0  0  0  0  0
   51.2980   27.6800   41.1510 Br  0  0  0  0  0  0  0  0  0  0  0  0
   52.0950   28.4010   42.7220 C   0  0  0  0  0  0  0  0  0  0  0  0
   51.2240   28.9490   43.6450 C   0  0  0  0  0  0  0  0  0  0  0  0
   51.7710   29.4840   44.8040 C   0  0  0  0  0  0  0  0  0  0  0  0
   51.2170   29.9500   45.6220 H   0  0  0  0  0  0  0  0  0  0  0  0
   53.1490   29.4730   45.0320 C   0  0  0  0  0  0  0  0  0  0  0  0
   53.5960   29.8860   45.9300 H   0  0  0  0  0  0  0  0  0  0  0  0
   54.0300   28.9220   44.1030 C   0  0  0  0  0  3  0  0  0  0  0  0
   53.4610   28.3910   42.9490 C   0  0  0  0  0  3  0  0  0  0  0  0
  1  6  1  0  0  0  0
  2  1  2  0  0  0  0
  2  3  1  0  0  0  0
  3 25  1  0  0  0  0
  3  4  2  0  0  0  0
  4  5  1  0  0  0  0
  5  8  1  0  0  0  0
  6  5  2  0  0  0  0
  7  1  1  0  0  0  0
  9  2  1  0  0  0  0
 10 15  1  0  0  0  0
 10  9  1  0  0  0  0
 10 16  1  0  0  0  0
 11 17  1  0  0  0  0
 11 10  1  0  0  0  0
 12 13  1  0  0  0  0
 12 19  1  0  0  0  0
 12 11  1  0  0  0  0
 13 20  1  0  0  0  0
 13 14  1  0  0  0  0
 14 22  1  0  0  0  0
 14  9  1  0  0  0  0
 18 11  1  0  0  0  0
 21 13  1  0  0  0  0
 23 14  1  0  0  0  0
 24 29  1  0  0  0  0
 24 33  1  0  0  0  0
 25 24  2  0  0  0  0
 26 27  2  0  0  0  0
 26 25  1  0  0  0  0
 27 28  1  0  0  0  0
 28 29  2  0  0  0  0
 29 35  1  0  0  0  0
 30 28  1  0  0  0  0
 31 36  1  6  0  0  0
 31 39  1  0  0  0  0
 31 30  1  0  0  0  0
 32 31  1  0  0  0  0
 32 27  1  0  0  0  0
 34 26  1  0  0  0  0
 37 38  1  0  0  0  0
 38 45  2  0  0  0  0
 38 39  1  0  0  0  0
 39 40  2  0  0  0  0
 40 42  1  0  0  0  0
 40 41  1  0  0  0  0
 42 43  1  0  0  0  0
 44 42  2  0  0  0  0
 45 44  1  0  0  0  0
M  END
>  <minimizedAffinity>
-5.34550619

>  <minimizedRMSD>
0.912976027

$$$$
