
 OpenBabel03242512523D

 44 48  0  0  1  0  0  0  0  0999 V2000
   47.3330   34.3980   42.8770 N   0  0  0  0  0  0  0  0  0  0  0  0
   48.7200   33.9200   42.8500 C   0  0  0  0  0  0  0  0  0  0  0  0
   49.3040   35.0410   42.0170 C   0  0  0  0  0  0  0  0  0  0  0  0
   48.3560   35.0310   40.8380 C   0  0  0  0  0  0  0  0  0  0  0  0
   47.0030   34.8220   41.4910 C   0  0  1  0  0  0  0  0  0  0  0  0
   49.1160   33.8660   43.8720 H   0  0  0  0  0  0  0  0  0  0  0  0
   48.8030   33.0070   42.2530 H   0  0  0  0  0  0  0  0  0  0  0  0
   50.3200   34.7010   41.7080 H   0  0  0  0  0  0  0  0  0  0  0  0
   49.2930   36.0090   42.5160 H   0  0  0  0  0  0  0  0  0  0  0  0
   48.5890   34.2100   40.1350 H   0  0  0  0  0  0  0  0  0  0  0  0
   48.4330   36.0150   40.3470 H   0  0  0  0  0  0  0  0  0  0  0  0
   46.5630   35.7690   41.6410 H   0  0  0  0  0  0  0  0  0  0  0  0
   46.2530   33.7200   40.9220 C   0  0  0  0  0  0  0  0  0  0  0  0
   46.8440   32.5370   40.6430 N   0  0  0  0  0  0  0  0  0  0  0  0
   46.2110   31.4650   40.1080 C   0  0  0  0  0  0  0  0  0  0  0  0
   44.9050   31.5760   39.8340 N   0  0  0  0  0  0  0  0  0  0  0  0
   44.2760   32.7200   40.0900 C   0  0  0  0  0  0  0  0  0  0  0  0
   42.9230   32.7750   39.7860 C   0  0  0  0  0  0  0  0  0  0  0  0
   42.2660   33.9690   40.0550 C   0  0  0  0  0  0  0  0  0  0  0  0
   42.8640   35.1010   40.6000 C   0  0  0  0  0  0  0  0  0  0  0  0
   44.2090   34.9540   40.8690 C   0  0  0  0  0  0  0  0  0  0  0  0
   44.9150   33.8260   40.6380 C   0  0  0  0  0  0  0  0  0  0  0  0
   46.7540   30.5490   39.9120 H   0  0  0  0  0  0  0  0  0  0  0  0
   42.3910   31.9380   39.3620 H   0  0  0  0  0  0  0  0  0  0  0  0
   41.2050   33.9770   39.8050 H   0  0  0  0  0  0  0  0  0  0  0  0
   42.2850   35.9790   40.7740 H   0  0  0  0  0  0  0  0  0  0  0  0
   44.6420   35.8550   41.2650 H   0  0  0  0  0  0  0  0  0  0  0  0
   44.5940   35.4790   45.1320 C   0  0  0  0  0  0  0  0  0  0  0  0
   45.4560   35.4850   44.0520 C   0  0  0  0  0  0  0  0  0  0  0  0
   46.4130   34.4870   43.9320 C   0  0  0  0  0  0  0  0  0  0  0  0
   46.4630   33.5300   44.8970 N   0  0  0  0  0  0  0  0  0  0  0  0
   45.6120   33.5280   45.9620 C   0  0  0  0  0  0  0  0  0  0  0  0
   44.6790   34.5110   46.0660 N   0  0  0  0  0  0  0  0  0  0  0  0
   43.8480   36.2610   45.2190 H   0  0  0  0  0  0  0  0  0  0  0  0
   45.3820   36.2800   43.3360 H   0  0  0  0  0  0  0  0  0  0  0  0
   45.9020   30.6960   44.6830 Br  0  0  0  0  0  0  0  0  0  0  0  0
   45.8540   31.1690   46.5240 C   0  0  0  0  0  0  0  0  0  0  0  0
   45.7200   32.4720   46.9630 C   0  0  0  0  0  0  0  0  0  0  0  0
   45.6800   32.8580   48.2870 C   0  0  0  0  0  0  0  0  0  0  0  0
   45.5730   33.8990   48.5780 H   0  0  0  0  0  0  0  0  0  0  0  0
   45.7820   31.8710   49.2520 C   0  0  0  0  0  0  0  0  0  0  0  0
   45.7530   32.1550   50.2970 H   0  0  0  0  0  0  0  0  0  0  0  0
   45.9170   30.5570   48.8470 C   0  0  0  0  0  0  0  0  0  0  0  0
   45.9550   30.1900   47.5160 C   0  0  0  0  0  0  0  0  0  0  0  0
  1 30  1  0  0  0  0
  2  1  1  0  0  0  0
  2  6  1  0  0  0  0
  3  9  1  0  0  0  0
  3  2  1  0  0  0  0
  4  5  1  0  0  0  0
  4  3  1  0  0  0  0
  5 12  1  6  0  0  0
  5  1  1  0  0  0  0
  7  2  1  0  0  0  0
  8  3  1  0  0  0  0
 10  4  1  0  0  0  0
 11  4  1  0  0  0  0
 13  5  1  0  0  0  0
 14 13  1  0  0  0  0
 15 14  2  0  0  0  0
 16 17  2  0  0  0  0
 16 15  1  0  0  0  0
 17 22  1  0  0  0  0
 18 19  2  0  0  0  0
 18 17  1  0  0  0  0
 19 20  1  0  0  0  0
 20 26  1  0  0  0  0
 20 21  2  0  0  0  0
 21 27  1  0  0  0  0
 22 21  1  0  0  0  0
 22 13  2  0  0  0  0
 23 15  1  0  0  0  0
 24 18  1  0  0  0  0
 25 19  1  0  0  0  0
 28 34  1  0  0  0  0
 28 33  1  0  0  0  0
 29 28  2  0  0  0  0
 30 29  1  0  0  0  0
 30 31  2  0  0  0  0
 31 32  1  0  0  0  0
 32 33  2  0  0  0  0
 32 38  1  0  0  0  0
 35 29  1  0  0  0  0
 36 37  1  0  0  0  0
 37 38  2  0  0  0  0
 37 44  1  0  0  0  0
 38 39  1  0  0  0  0
 39 40  1  0  0  0  0
 39 41  2  0  0  0  0
 41 42  1  0  0  0  0
 43 41  1  0  0  0  0
 44 43  2  0  0  0  0
M  END
>  <minimizedAffinity>
-6.96590471

>  <minimizedRMSD>
0.437719792

$$$$
