
 OpenBabel03242510053D

 18 19  0  0  0  0  0  0  0  0999 V2000
   45.7910   35.0790   43.2080 C   0  0  0  0  0  0  0  0  0  0  0  0
   46.9480   35.0890   42.4030 C   0  0  0  0  0  0  0  0  0  0  0  0
   47.9540   34.1620   42.7220 C   0  0  0  0  0  0  0  0  0  0  0  0
   47.7570   33.3220   43.7690 N   0  0  0  0  0  0  0  0  0  0  0  0
   46.6220   33.3450   44.5210 C   0  0  0  0  0  0  0  0  0  0  0  0
   45.6470   34.2300   44.2290 N   0  0  0  0  0  0  0  0  0  0  0  0
   45.0110   35.8090   42.9510 H   0  0  0  0  0  0  0  0  0  0  0  0
   47.0830   35.7650   41.5770 H   0  0  0  0  0  0  0  0  0  0  0  0
   48.8730   34.1050   42.1530 H   0  0  0  0  0  0  0  0  0  0  0  0
   45.3890   30.6910   43.6200 Br  0  0  0  0  0  0  0  0  0  0  0  0
   45.9000   31.1860   45.3990 C   0  0  0  0  0  0  0  0  0  0  0  0
   46.4450   32.4260   45.6410 C   0  0  0  0  0  0  0  0  0  0  0  0
   46.8250   32.8060   46.9310 C   0  0  0  0  0  0  0  0  0  0  0  0
   47.2410   33.7950   47.0220 H   0  0  0  0  0  0  0  0  0  0  0  0
   46.6380   31.9070   47.9470 C   0  0  0  0  0  0  0  0  0  0  0  0
   46.9380   32.2150   48.9540 H   0  0  0  0  0  0  0  0  0  0  0  0
   46.0890   30.6760   47.6610 C   0  0  0  0  0  3  0  0  0  0  0  0
   45.7110   30.2820   46.4180 C   0  0  0  0  0  3  0  0  0  0  0  0
  1  6  1  0  0  0  0
  2  3  1  0  0  0  0
  2  1  2  0  0  0  0
  3  4  2  0  0  0  0
  4  5  1  0  0  0  0
  5 12  1  0  0  0  0
  6  5  2  0  0  0  0
  7  1  1  0  0  0  0
  8  2  1  0  0  0  0
  9  3  1  0  0  0  0
 10 11  1  0  0  0  0
 11 12  2  0  0  0  0
 11 18  1  0  0  0  0
 12 13  1  0  0  0  0
 13 14  1  0  0  0  0
 13 15  2  0  0  0  0
 15 16  1  0  0  0  0
 17 15  1  0  0  0  0
 18 17  2  0  0  0  0
M  END
>  <minimizedAffinity>
-3.62982178

>  <minimizedRMSD>
1.97161806

$$$$
