
 OpenBabel03242521393D

 21 22  0  0  0  0  0  0  0  0999 V2000
   45.5060   34.3650   45.2490 C   0  0  0  0  0  0  0  0  0  0  0  0
   45.9540   34.7170   43.9790 C   0  0  0  0  0  0  0  0  0  0  0  0
   46.9490   33.9440   43.3750 C   0  0  0  0  0  0  0  0  0  0  0  0
   47.4160   32.8900   44.0750 N   0  0  0  0  0  0  0  0  0  0  0  0
   46.9620   32.5720   45.3070 C   0  0  0  0  0  0  0  0  0  0  0  0
   46.0040   33.3130   45.8950 N   0  0  0  0  0  0  0  0  0  0  0  0
   45.5330   35.5610   43.4980 H   0  0  0  0  0  0  0  0  0  0  0  0
   47.3900   31.7090   45.8030 H   0  0  0  0  0  0  0  0  0  0  0  0
   45.6190   32.2210   41.2620 Br  0  0  0  0  0  0  0  0  0  0  0  0
   46.9480   33.5640   40.9710 C   0  0  0  0  0  0  0  0  0  0  0  0
   47.4570   34.2650   42.0450 C   0  0  0  0  0  0  0  0  0  0  0  0
   48.4040   35.2110   41.7630 C   0  0  0  0  0  0  0  0  0  0  0  0
   48.8210   35.7750   42.5780 H   0  0  0  0  0  0  0  0  0  0  0  0
   48.8290   35.4510   40.4700 C   0  0  0  0  0  0  0  0  0  0  0  0
   49.5890   36.2200   40.3080 H   0  0  0  0  0  0  0  0  0  0  0  0
   48.2930   34.7250   39.4250 C   0  0  0  0  0  3  0  0  0  0  0  0
   47.3320   33.7590   39.6590 C   0  0  0  0  0  3  0  0  0  0  0  0
   44.4420   35.2170   45.8600 C   0  0  0  0  0  0  0  0  0  0  0  0
   43.8640   34.6690   46.6280 H   0  0  0  0  0  0  0  0  0  0  0  0
   43.7870   35.6090   45.0640 H   0  0  0  0  0  0  0  0  0  0  0  0
   44.9790   36.0840   46.3010 H   0  0  0  0  0  0  0  0  0  0  0  0
  1 18  1  0  0  0  0
  1  6  1  0  0  0  0
  2  1  2  0  0  0  0
  3  2  1  0  0  0  0
  3  4  2  0  0  0  0
  4  5  1  0  0  0  0
  5  8  1  0  0  0  0
  5  6  2  0  0  0  0
  7  2  1  0  0  0  0
 10  9  1  0  0  0  0
 10 11  1  0  0  0  0
 11  3  1  0  0  0  0
 12 11  2  0  0  0  0
 12 13  1  0  0  0  0
 14 12  1  0  0  0  0
 15 14  1  0  0  0  0
 16 17  1  0  0  0  0
 16 14  2  0  0  0  0
 17 10  2  0  0  0  0
 18 21  1  0  0  0  0
 18 19  1  0  0  0  0
 20 18  1  0  0  0  0
M  END
>  <minimizedAffinity>
-4.34588385

>  <minimizedRMSD>
3.12268066

$$$$
