
 OpenBabel03242519593D

 28 30  0  0  0  0  0  0  0  0999 V2000
   39.8110   28.0210   40.6420 Br  0  0  0  0  0  0  0  0  0  0  0  0
   38.2260   29.1060   40.6500 C   0  0  0  0  0  0  0  0  0  0  0  0
   38.2650   30.4770   40.5710 C   0  0  0  0  0  0  0  0  0  0  0  0
   37.0640   31.1650   40.5840 C   0  0  0  0  0  0  0  0  0  0  0  0
   35.8480   30.5330   40.6730 C   0  0  0  0  0  0  0  0  0  0  0  0
   35.8010   29.1530   40.7530 C   0  0  0  0  0  0  0  0  0  0  0  0
   37.0090   28.4740   40.7380 C   0  0  0  0  0  0  0  0  0  0  0  0
   37.1270   32.2510   40.5200 H   0  0  0  0  0  0  0  0  0  0  0  0
   34.9240   31.0610   40.6830 H   0  0  0  0  0  0  0  0  0  0  0  0
   34.8910   28.5840   40.8240 H   0  0  0  0  0  0  0  0  0  0  0  0
   41.5570   32.1150   41.5110 C   0  0  0  0  0  0  0  0  0  0  0  0
   40.3060   31.5120   41.5930 C   0  0  0  0  0  0  0  0  0  0  0  0
   39.5880   31.1140   40.4770 C   0  0  0  0  0  0  0  0  0  0  0  0
   40.1880   31.3480   39.2770 N   0  0  0  0  0  0  0  0  0  0  0  0
   41.4020   31.9330   39.1980 C   0  0  0  0  0  0  0  0  0  0  0  0
   42.0730   32.3080   40.2830 N   0  0  0  0  0  0  0  0  0  0  0  0
   42.0100   32.3770   42.4510 H   0  0  0  0  0  0  0  0  0  0  0  0
   39.8480   31.3360   42.5730 H   0  0  0  0  0  0  0  0  0  0  0  0
   41.7890   32.0730   38.1900 H   0  0  0  0  0  0  0  0  0  0  0  0
   37.1280   27.6770   43.6750 Br  0  0  0  0  0  0  0  0  0  0  0  0
   37.0170   26.5400   42.1230 C   0  0  0  0  0  0  0  0  0  0  0  0
   36.9680   27.0020   40.8230 C   0  0  0  0  0  0  0  0  0  0  0  0
   36.8890   26.1180   39.7760 C   0  0  0  0  0  0  0  0  0  0  0  0
   36.8560   26.5820   38.7980 H   0  0  0  0  0  0  0  0  0  0  0  0
   36.8610   24.7670   40.0400 C   0  0  0  0  0  0  0  0  0  0  0  0
   36.7970   24.0990   39.1700 H   0  0  0  0  0  0  0  0  0  0  0  0
   36.9090   24.2990   41.3350 C   0  0  0  0  0  3  0  0  0  0  0  0
   36.9890   25.1800   42.4160 C   0  0  0  0  0  3  0  0  0  0  0  0
  1  2  1  0  0  0  0
  2  7  1  0  0  0  0
  3  4  1  0  0  0  0
  3  2  2  0  0  0  0
  4  5  2  0  0  0  0
  5  9  1  0  0  0  0
  5  6  1  0  0  0  0
  6 10  1  0  0  0  0
  7  6  2  0  0  0  0
  7 22  1  0  0  0  0
  8  4  1  0  0  0  0
 11 12  1  0  0  0  0
 11 17  1  0  0  0  0
 12 18  1  0  0  0  0
 13  3  1  0  0  0  0
 13 12  2  0  0  0  0
 14 13  1  0  0  0  0
 15 14  2  0  0  0  0
 15 16  1  0  0  0  0
 16 11  2  0  0  0  0
 19 15  1  0  0  0  0
 21 28  1  0  0  0  0
 21 20  1  0  0  0  0
 22 21  2  0  0  0  0
 23 25  2  0  0  0  0
 23 22  1  0  0  0  0
 24 23  1  0  0  0  0
 25 27  1  0  0  0  0
 26 25  1  0  0  0  0
 27 28  2  0  0  0  0
M  END
>  <minimizedAffinity>
-5.34610224

$$$$

 OpenBabel03242519593D

 28 30  0  0  0  0  0  0  0  0999 V2000
   39.5880   28.0340   39.7250 Br  0  0  0  0  0  0  0  0  0  0  0  0
   38.0940   29.1800   40.1060 C   0  0  0  0  0  0  0  0  0  0  0  0
   38.1570   30.5470   39.9810 C   0  0  0  0  0  0  0  0  0  0  0  0
   37.0230   31.2810   40.2810 C   0  0  0  0  0  0  0  0  0  0  0  0
   35.8500   30.7000   40.6950 C   0  0  0  0  0  0  0  0  0  0  0  0
   35.7780   29.3250   40.8230 C   0  0  0  0  0  0  0  0  0  0  0  0
   36.9200   28.5990   40.5200 C   0  0  0  0  0  0  0  0  0  0  0  0
   37.1030   32.3630   40.1730 H   0  0  0  0  0  0  0  0  0  0  0  0
   34.9770   31.2640   40.9260 H   0  0  0  0  0  0  0  0  0  0  0  0
   34.8990   28.7930   41.1390 H   0  0  0  0  0  0  0  0  0  0  0  0
   40.9110   31.9470   37.7770 C   0  0  0  0  0  0  0  0  0  0  0  0
   39.7070   31.3960   38.2050 C   0  0  0  0  0  0  0  0  0  0  0  0
   39.4320   31.1300   39.5360 C   0  0  0  0  0  0  0  0  0  0  0  0
   40.4230   31.4440   40.4160 N   0  0  0  0  0  0  0  0  0  0  0  0
   41.5920   31.9780   40.0010 C   0  0  0  0  0  0  0  0  0  0  0  0
   41.8340   32.2250   38.7170 N   0  0  0  0  0  0  0  0  0  0  0  0
   41.0000   32.1050   36.7170 H   0  0  0  0  0  0  0  0  0  0  0  0
   38.9280   31.1540   37.4740 H   0  0  0  0  0  0  0  0  0  0  0  0
   42.3140   32.1910   40.7870 H   0  0  0  0  0  0  0  0  0  0  0  0
   37.5520   27.8660   43.4070 Br  0  0  0  0  0  0  0  0  0  0  0  0
   37.1270   26.6980   41.9360 C   0  0  0  0  0  0  0  0  0  0  0  0
   36.8530   27.1310   40.6540 C   0  0  0  0  0  0  0  0  0  0  0  0
   36.5590   26.2260   39.6640 C   0  0  0  0  0  0  0  0  0  0  0  0
   36.3610   26.6680   38.6960 H   0  0  0  0  0  0  0  0  0  0  0  0
   36.5410   24.8830   39.9690 C   0  0  0  0  0  0  0  0  0  0  0  0
   36.3000   24.1970   39.1450 H   0  0  0  0  0  0  0  0  0  0  0  0
   36.8120   24.4440   41.2460 C   0  0  0  0  0  3  0  0  0  0  0  0
   37.1140   25.3470   42.2680 C   0  0  0  0  0  3  0  0  0  0  0  0
  1  2  1  0  0  0  0
  2  7  1  0  0  0  0
  3  2  2  0  0  0  0
  3  4  1  0  0  0  0
  4  5  2  0  0  0  0
  5  6  1  0  0  0  0
  5  9  1  0  0  0  0
  6 10  1  0  0  0  0
  7 22  1  0  0  0  0
  7  6  2  0  0  0  0
  8  4  1  0  0  0  0
 11 12  2  0  0  0  0
 11 16  1  0  0  0  0
 12 13  1  0  0  0  0
 13  3  1  0  0  0  0
 13 14  2  0  0  0  0
 15 14  1  0  0  0  0
 15 19  1  0  0  0  0
 16 15  2  0  0  0  0
 17 11  1  0  0  0  0
 18 12  1  0  0  0  0
 21 28  1  0  0  0  0
 21 20  1  0  0  0  0
 22 21  2  0  0  0  0
 23 25  2  0  0  0  0
 23 22  1  0  0  0  0
 24 23  1  0  0  0  0
 25 27  1  0  0  0  0
 26 25  1  0  0  0  0
 27 28  2  0  0  0  0
M  END
>  <minimizedAffinity>
-5.25484467

$$$$

 OpenBabel03242519593D

 28 30  0  0  0  0  0  0  0  0999 V2000
   37.9120   27.3240   38.9760 Br  0  0  0  0  0  0  0  0  0  0  0  0
   37.5340   27.5920   40.8400 C   0  0  0  0  0  0  0  0  0  0  0  0
   37.5210   28.8370   41.4230 C   0  0  0  0  0  0  0  0  0  0  0  0
   37.2370   28.9190   42.7750 C   0  0  0  0  0  0  0  0  0  0  0  0
   36.9710   27.8150   43.5460 C   0  0  0  0  0  0  0  0  0  0  0  0
   36.9810   26.5590   42.9670 C   0  0  0  0  0  0  0  0  0  0  0  0
   37.2670   26.4880   41.6120 C   0  0  0  0  0  0  0  0  0  0  0  0
   37.2340   29.9190   43.2090 H   0  0  0  0  0  0  0  0  0  0  0  0
   36.7520   27.8780   44.5860 H   0  0  0  0  0  0  0  0  0  0  0  0
   36.7830   25.6470   43.5000 H   0  0  0  0  0  0  0  0  0  0  0  0
   37.0860   31.8360   39.1390 C   0  0  0  0  0  0  0  0  0  0  0  0
   36.8170   30.7420   39.9550 C   0  0  0  0  0  0  0  0  0  0  0  0
   37.8120   29.9930   40.5610 C   0  0  0  0  0  0  0  0  0  0  0  0
   39.0890   30.3950   40.3090 N   0  0  0  0  0  0  0  0  0  0  0  0
   39.3500   31.4570   39.5170 C   0  0  0  0  0  0  0  0  0  0  0  0
   38.3770   32.1620   38.9450 N   0  0  0  0  0  0  0  0  0  0  0  0
   36.2250   32.3330   38.7290 H   0  0  0  0  0  0  0  0  0  0  0  0
   35.7800   30.4410   40.1400 H   0  0  0  0  0  0  0  0  0  0  0  0
   40.4040   31.6930   39.3820 H   0  0  0  0  0  0  0  0  0  0  0  0
   40.0150   25.2500   42.0450 Br  0  0  0  0  0  0  0  0  0  0  0  0
   38.4920   24.5070   41.1290 C   0  0  0  0  0  0  0  0  0  0  0  0
   37.2800   25.1530   40.9860 C   0  0  0  0  0  0  0  0  0  0  0  0
   36.2470   24.5460   40.3160 C   0  0  0  0  0  0  0  0  0  0  0  0
   35.3410   25.1360   40.2590 H   0  0  0  0  0  0  0  0  0  0  0  0
   36.4360   23.2870   39.7900 C   0  0  0  0  0  0  0  0  0  0  0  0
   35.5810   22.8420   39.2630 H   0  0  0  0  0  0  0  0  0  0  0  0
   37.6430   22.6370   39.9310 C   0  0  0  0  0  3  0  0  0  0  0  0
   38.7070   23.2350   40.6080 C   0  0  0  0  0  3  0  0  0  0  0  0
  1  2  1  0  0  0  0
  2  3  2  0  0  0  0
  2  7  1  0  0  0  0
  3  4  1  0  0  0  0
  4  8  1  0  0  0  0
  4  5  2  0  0  0  0
  5  9  1  0  0  0  0
  6 10  1  0  0  0  0
  6  5  1  0  0  0  0
  7  6  2  0  0  0  0
 11 12  1  0  0  0  0
 12 18  1  0  0  0  0
 12 13  2  0  0  0  0
 13  3  1  0  0  0  0
 14 13  1  0  0  0  0
 15 14  2  0  0  0  0
 16 11  2  0  0  0  0
 16 15  1  0  0  0  0
 17 11  1  0  0  0  0
 19 15  1  0  0  0  0
 21 20  1  0  0  0  0
 22 21  1  0  0  0  0
 22  7  1  0  0  0  0
 23 22  2  0  0  0  0
 24 23  1  0  0  0  0
 25 27  2  0  0  0  0
 25 23  1  0  0  0  0
 26 25  1  0  0  0  0
 27 28  1  0  0  0  0
 28 21  2  0  0  0  0
M  END
>  <minimizedAffinity>
-5.23914146

$$$$

 OpenBabel03242519593D

 28 30  0  0  0  0  0  0  0  0999 V2000
   40.4770   29.3420   40.4870 Br  0  0  0  0  0  0  0  0  0  0  0  0
   39.1350   30.6760   40.1550 C   0  0  0  0  0  0  0  0  0  0  0  0
   39.3490   31.7540   39.3290 C   0  0  0  0  0  0  0  0  0  0  0  0
   38.3150   32.6570   39.1580 C   0  0  0  0  0  0  0  0  0  0  0  0
   37.0970   32.5190   39.7770 C   0  0  0  0  0  0  0  0  0  0  0  0
   36.8740   31.4370   40.6090 C   0  0  0  0  0  0  0  0  0  0  0  0
   37.9160   30.5380   40.7740 C   0  0  0  0  0  0  0  0  0  0  0  0
   38.5130   33.5010   38.4970 H   0  0  0  0  0  0  0  0  0  0  0  0
   36.3010   33.2140   39.6450 H   0  0  0  0  0  0  0  0  0  0  0  0
   35.9500   31.2560   41.1290 H   0  0  0  0  0  0  0  0  0  0  0  0
   42.9600   32.6940   38.6410 C   0  0  0  0  0  0  0  0  0  0  0  0
   41.7110   32.5850   39.2440 C   0  0  0  0  0  0  0  0  0  0  0  0
   40.6670   31.8650   38.6870 C   0  0  0  0  0  0  0  0  0  0  0  0
   40.9380   31.2590   37.4980 N   0  0  0  0  0  0  0  0  0  0  0  0
   42.1510   31.3650   36.9120 C   0  0  0  0  0  0  0  0  0  0  0  0
   43.1390   32.0630   37.4660 N   0  0  0  0  0  0  0  0  0  0  0  0
   43.6850   33.2820   39.1760 H   0  0  0  0  0  0  0  0  0  0  0  0
   41.5220   33.0830   40.2010 H   0  0  0  0  0  0  0  0  0  0  0  0
   42.2600   30.8420   35.9640 H   0  0  0  0  0  0  0  0  0  0  0  0
   36.6750   28.2950   39.1290 Br  0  0  0  0  0  0  0  0  0  0  0  0
   37.1240   28.3060   41.0020 C   0  0  0  0  0  0  0  0  0  0  0  0
   37.6880   29.3810   41.6600 C   0  0  0  0  0  0  0  0  0  0  0  0
   37.9750   29.3000   43.0000 C   0  0  0  0  0  0  0  0  0  0  0  0
   38.4150   30.1960   43.4200 H   0  0  0  0  0  0  0  0  0  0  0  0
   37.6940   28.1340   43.6770 C   0  0  0  0  0  0  0  0  0  0  0  0
   37.9410   28.1170   44.7470 H   0  0  0  0  0  0  0  0  0  0  0  0
   37.1310   27.0580   43.0260 C   0  0  0  0  0  3  0  0  0  0  0  0
   36.8310   27.1180   41.6640 C   0  0  0  0  0  3  0  0  0  0  0  0
  2  1  1  0  0  0  0
  2  7  1  0  0  0  0
  3  2  2  0  0  0  0
  4  3  1  0  0  0  0
  4  5  2  0  0  0  0
  5  6  1  0  0  0  0
  6  7  2  0  0  0  0
  6 10  1  0  0  0  0
  7 22  1  0  0  0  0
  8  4  1  0  0  0  0
  9  5  1  0  0  0  0
 11 17  1  0  0  0  0
 11 12  1  0  0  0  0
 12 18  1  0  0  0  0
 13 12  2  0  0  0  0
 13  3  1  0  0  0  0
 14 13  1  0  0  0  0
 15 16  1  0  0  0  0
 15 14  2  0  0  0  0
 16 11  2  0  0  0  0
 19 15  1  0  0  0  0
 20 21  1  0  0  0  0
 21 22  2  0  0  0  0
 21 28  1  0  0  0  0
 22 23  1  0  0  0  0
 23 24  1  0  0  0  0
 23 25  2  0  0  0  0
 25 26  1  0  0  0  0
 27 25  1  0  0  0  0
 28 27  2  0  0  0  0
M  END
>  <minimizedAffinity>
-5.21618605

$$$$

 OpenBabel03242519593D

 28 30  0  0  0  0  0  0  0  0999 V2000
   38.1780   28.2930   39.1550 Br  0  0  0  0  0  0  0  0  0  0  0  0
   37.6710   27.9540   40.9770 C   0  0  0  0  0  0  0  0  0  0  0  0
   37.4210   26.6900   41.4540 C   0  0  0  0  0  0  0  0  0  0  0  0
   37.0610   26.5550   42.7840 C   0  0  0  0  0  0  0  0  0  0  0  0
   36.9460   27.6280   43.6340 C   0  0  0  0  0  0  0  0  0  0  0  0
   37.1960   28.9030   43.1610 C   0  0  0  0  0  0  0  0  0  0  0  0
   37.5550   29.0260   41.8270 C   0  0  0  0  0  0  0  0  0  0  0  0
   36.8690   25.5410   43.1340 H   0  0  0  0  0  0  0  0  0  0  0  0
   36.6690   27.5250   44.6570 H   0  0  0  0  0  0  0  0  0  0  0  0
   37.1280   29.7930   43.7600 H   0  0  0  0  0  0  0  0  0  0  0  0
   36.6020   23.9980   38.9080 C   0  0  0  0  0  0  0  0  0  0  0  0
   36.4810   25.0570   39.8010 C   0  0  0  0  0  0  0  0  0  0  0  0
   37.5550   25.5690   40.5110 C   0  0  0  0  0  0  0  0  0  0  0  0
   38.7540   24.9680   40.2790 N   0  0  0  0  0  0  0  0  0  0  0  0
   38.8720   23.9390   39.4120 C   0  0  0  0  0  0  0  0  0  0  0  0
   37.8260   23.4630   38.7410 N   0  0  0  0  0  0  0  0  0  0  0  0
   35.6920   23.6940   38.4200 H   0  0  0  0  0  0  0  0  0  0  0  0
   35.5030   25.5220   39.9670 H   0  0  0  0  0  0  0  0  0  0  0  0
   39.8750   23.5320   39.3010 H   0  0  0  0  0  0  0  0  0  0  0  0
   40.4600   29.7220   42.4200 Br  0  0  0  0  0  0  0  0  0  0  0  0
   39.1230   30.7920   41.5360 C   0  0  0  0  0  0  0  0  0  0  0  0
   37.8240   30.3830   41.3140 C   0  0  0  0  0  0  0  0  0  0  0  0
   36.9360   31.2120   40.6750 C   0  0  0  0  0  0  0  0  0  0  0  0
   35.9440   30.7980   40.5500 H   0  0  0  0  0  0  0  0  0  0  0  0
   37.3600   32.4550   40.2590 C   0  0  0  0  0  0  0  0  0  0  0  0
   36.6140   33.0830   39.7530 H   0  0  0  0  0  0  0  0  0  0  0  0
   38.6560   32.8690   40.4780 C   0  0  0  0  0  3  0  0  0  0  0  0
   39.5750   32.0420   41.1260 C   0  0  0  0  0  3  0  0  0  0  0  0
  1  2  1  0  0  0  0
  2  3  2  0  0  0  0
  2  7  1  0  0  0  0
  3  4  1  0  0  0  0
  4  8  1  0  0  0  0
  4  5  2  0  0  0  0
  5  9  1  0  0  0  0
  6  5  1  0  0  0  0
  6 10  1  0  0  0  0
  7  6  2  0  0  0  0
 11 12  1  0  0  0  0
 12 18  1  0  0  0  0
 12 13  2  0  0  0  0
 13  3  1  0  0  0  0
 14 13  1  0  0  0  0
 15 14  2  0  0  0  0
 16 11  2  0  0  0  0
 16 15  1  0  0  0  0
 17 11  1  0  0  0  0
 19 15  1  0  0  0  0
 21 20  1  0  0  0  0
 22 21  1  0  0  0  0
 22  7  1  0  0  0  0
 23 22  2  0  0  0  0
 24 23  1  0  0  0  0
 25 27  2  0  0  0  0
 25 23  1  0  0  0  0
 26 25  1  0  0  0  0
 27 28  1  0  0  0  0
 28 21  2  0  0  0  0
M  END
>  <minimizedAffinity>
-5.19918442

$$$$

 OpenBabel03242519593D

 28 30  0  0  0  0  0  0  0  0999 V2000
   38.0590   27.1180   39.0030 Br  0  0  0  0  0  0  0  0  0  0  0  0
   37.6140   27.3240   40.8600 C   0  0  0  0  0  0  0  0  0  0  0  0
   37.3070   26.2590   41.6730 C   0  0  0  0  0  0  0  0  0  0  0  0
   37.0000   26.5180   42.9970 C   0  0  0  0  0  0  0  0  0  0  0  0
   36.9910   27.7860   43.5230 C   0  0  0  0  0  0  0  0  0  0  0  0
   37.2990   28.8630   42.7120 C   0  0  0  0  0  0  0  0  0  0  0  0
   37.6050   28.5930   41.3870 C   0  0  0  0  0  0  0  0  0  0  0  0
   36.7610   25.6540   43.6170 H   0  0  0  0  0  0  0  0  0  0  0  0
   36.7550   27.9860   44.5420 H   0  0  0  0  0  0  0  0  0  0  0  0
   37.3160   29.8850   43.0470 H   0  0  0  0  0  0  0  0  0  0  0  0
   38.4490   22.8070   40.5880 C   0  0  0  0  0  0  0  0  0  0  0  0
   38.4240   24.0760   41.1570 C   0  0  0  0  0  0  0  0  0  0  0  0
   37.3270   24.9180   41.0690 C   0  0  0  0  0  0  0  0  0  0  0  0
   36.2590   24.4230   40.3850 N   0  0  0  0  0  0  0  0  0  0  0  0
   36.2830   23.1910   39.8330 C   0  0  0  0  0  0  0  0  0  0  0  0
   37.3480   22.4000   39.9290 N   0  0  0  0  0  0  0  0  0  0  0  0
   39.3610   22.2520   40.7280 H   0  0  0  0  0  0  0  0  0  0  0  0
   39.2980   24.4480   41.7020 H   0  0  0  0  0  0  0  0  0  0  0  0
   35.3770   22.8950   39.3080 H   0  0  0  0  0  0  0  0  0  0  0  0
   35.0740   29.4530   39.9300 Br  0  0  0  0  0  0  0  0  0  0  0  0
   36.8450   30.2010   39.8070 C   0  0  0  0  0  0  0  0  0  0  0  0
   37.9350   29.7360   40.5150 C   0  0  0  0  0  0  0  0  0  0  0  0
   39.1640   30.3300   40.3650 C   0  0  0  0  0  0  0  0  0  0  0  0
   39.9510   29.8910   40.9640 H   0  0  0  0  0  0  0  0  0  0  0  0
   39.2920   31.3950   39.5010 C   0  0  0  0  0  0  0  0  0  0  0  0
   40.2930   31.8380   39.4150 H   0  0  0  0  0  0  0  0  0  0  0  0
   38.2070   31.8640   38.7920 C   0  0  0  0  0  3  0  0  0  0  0  0
   36.9490   31.2750   38.9280 C   0  0  0  0  0  3  0  0  0  0  0  0
  1  2  1  0  0  0  0
  2  7  2  0  0  0  0
  2  3  1  0  0  0  0
  3  4  2  0  0  0  0
  4  5  1  0  0  0  0
  4  8  1  0  0  0  0
  5  9  1  0  0  0  0
  6 10  1  0  0  0  0
  6  5  2  0  0  0  0
  7  6  1  0  0  0  0
 11 17  1  0  0  0  0
 11 12  1  0  0  0  0
 12 18  1  0  0  0  0
 13 12  2  0  0  0  0
 13  3  1  0  0  0  0
 14 13  1  0  0  0  0
 15 16  1  0  0  0  0
 15 14  2  0  0  0  0
 16 11  2  0  0  0  0
 19 15  1  0  0  0  0
 21 20  1  0  0  0  0
 21 22  1  0  0  0  0
 22  7  1  0  0  0  0
 23 22  2  0  0  0  0
 23 24  1  0  0  0  0
 25 23  1  0  0  0  0
 26 25  1  0  0  0  0
 27 28  1  0  0  0  0
 27 25  2  0  0  0  0
 28 21  2  0  0  0  0
M  END
>  <minimizedAffinity>
-5.14384556

$$$$

 OpenBabel03242519593D

 28 30  0  0  0  0  0  0  0  0999 V2000
   39.3510   29.9740   41.2730 Br  0  0  0  0  0  0  0  0  0  0  0  0
   38.0390   30.0190   39.8710 C   0  0  0  0  0  0  0  0  0  0  0  0
   38.0110   31.0020   38.9110 C   0  0  0  0  0  0  0  0  0  0  0  0
   37.0230   30.9410   37.9450 C   0  0  0  0  0  0  0  0  0  0  0  0
   36.0790   29.9450   37.9100 C   0  0  0  0  0  0  0  0  0  0  0  0
   36.1000   28.9510   38.8710 C   0  0  0  0  0  0  0  0  0  0  0  0
   37.0940   29.0220   39.8350 C   0  0  0  0  0  0  0  0  0  0  0  0
   37.0270   31.7350   37.1970 H   0  0  0  0  0  0  0  0  0  0  0  0
   35.3190   29.8970   37.1660 H   0  0  0  0  0  0  0  0  0  0  0  0
   35.3990   28.1370   38.9130 H   0  0  0  0  0  0  0  0  0  0  0  0
   39.8840   34.1590   39.8760 C   0  0  0  0  0  0  0  0  0  0  0  0
   38.9140   33.1640   39.8010 C   0  0  0  0  0  0  0  0  0  0  0  0
   39.0400   32.0510   38.9860 C   0  0  0  0  0  0  0  0  0  0  0  0
   40.1850   31.9860   38.2510 N   0  0  0  0  0  0  0  0  0  0  0  0
   41.1250   32.9520   38.3230 C   0  0  0  0  0  0  0  0  0  0  0  0
   40.9830   34.0120   39.1140 N   0  0  0  0  0  0  0  0  0  0  0  0
   39.6670   34.9710   40.5470 H   0  0  0  0  0  0  0  0  0  0  0  0
   38.0030   33.2430   40.4050 H   0  0  0  0  0  0  0  0  0  0  0  0
   42.0010   32.8010   37.6940 H   0  0  0  0  0  0  0  0  0  0  0  0
   38.6670   26.6550   38.7410 Br  0  0  0  0  0  0  0  0  0  0  0  0
   37.8190   26.8440   40.4610 C   0  0  0  0  0  0  0  0  0  0  0  0
   37.1240   27.9660   40.8650 C   0  0  0  0  0  0  0  0  0  0  0  0
   36.5510   28.0150   42.1120 C   0  0  0  0  0  0  0  0  0  0  0  0
   36.0300   28.9380   42.3300 H   0  0  0  0  0  0  0  0  0  0  0  0
   36.6790   26.9300   42.9510 C   0  0  0  0  0  0  0  0  0  0  0  0
   36.2040   27.0150   43.9380 H   0  0  0  0  0  0  0  0  0  0  0  0
   37.3720   25.8070   42.5530 C   0  0  0  0  0  3  0  0  0  0  0  0
   37.9630   25.7360   41.2910 C   0  0  0  0  0  3  0  0  0  0  0  0
  2  1  1  0  0  0  0
  3 13  1  0  0  0  0
  3  2  2  0  0  0  0
  4  3  1  0  0  0  0
  5  4  2  0  0  0  0
  5  6  1  0  0  0  0
  6 10  1  0  0  0  0
  6  7  2  0  0  0  0
  7  2  1  0  0  0  0
  7 22  1  0  0  0  0
  8  4  1  0  0  0  0
  9  5  1  0  0  0  0
 11 17  1  0  0  0  0
 12 11  1  0  0  0  0
 12 18  1  0  0  0  0
 13 12  2  0  0  0  0
 14 15  2  0  0  0  0
 14 13  1  0  0  0  0
 15 16  1  0  0  0  0
 16 11  2  0  0  0  0
 19 15  1  0  0  0  0
 20 21  1  0  0  0  0
 21 22  2  0  0  0  0
 21 28  1  0  0  0  0
 22 23  1  0  0  0  0
 23 24  1  0  0  0  0
 23 25  2  0  0  0  0
 25 26  1  0  0  0  0
 27 25  1  0  0  0  0
 28 27  2  0  0  0  0
M  END
>  <minimizedAffinity>
-5.11942244

$$$$

 OpenBabel03242519593D

 28 30  0  0  0  0  0  0  0  0999 V2000
   36.2580   26.2500   38.6460 Br  0  0  0  0  0  0  0  0  0  0  0  0
   36.3910   27.7850   39.7940 C   0  0  0  0  0  0  0  0  0  0  0  0
   37.0910   27.7680   40.9770 C   0  0  0  0  0  0  0  0  0  0  0  0
   37.1240   28.9290   41.7300 C   0  0  0  0  0  0  0  0  0  0  0  0
   36.4900   30.0840   41.3420 C   0  0  0  0  0  0  0  0  0  0  0  0
   35.7840   30.1080   40.1540 C   0  0  0  0  0  0  0  0  0  0  0  0
   35.7570   28.9400   39.4070 C   0  0  0  0  0  0  0  0  0  0  0  0
   37.6870   28.8850   42.6620 H   0  0  0  0  0  0  0  0  0  0  0  0
   36.5150   30.9770   41.9210 H   0  0  0  0  0  0  0  0  0  0  0  0
   35.2620   30.9710   39.7800 H   0  0  0  0  0  0  0  0  0  0  0  0
   39.7410   25.1050   41.5090 C   0  0  0  0  0  0  0  0  0  0  0  0
   39.1080   26.2920   41.1540 C   0  0  0  0  0  0  0  0  0  0  0  0
   37.7550   26.5110   41.3540 C   0  0  0  0  0  0  0  0  0  0  0  0
   37.0700   25.4840   41.9290 N   0  0  0  0  0  0  0  0  0  0  0  0
   37.6850   24.3320   42.2730 C   0  0  0  0  0  0  0  0  0  0  0  0
   38.9870   24.1430   42.0710 N   0  0  0  0  0  0  0  0  0  0  0  0
   40.7960   25.0600   41.3000 H   0  0  0  0  0  0  0  0  0  0  0  0
   39.6840   27.1020   40.6930 H   0  0  0  0  0  0  0  0  0  0  0  0
   37.0450   23.5760   42.7250 H   0  0  0  0  0  0  0  0  0  0  0  0
   37.6820   29.6660   37.1610 Br  0  0  0  0  0  0  0  0  0  0  0  0
   35.7980   29.2780   37.0520 C   0  0  0  0  0  0  0  0  0  0  0  0
   35.0070   28.9580   38.1370 C   0  0  0  0  0  0  0  0  0  0  0  0
   33.6700   28.6960   37.9670 C   0  0  0  0  0  0  0  0  0  0  0  0
   33.1390   28.4550   38.8800 H   0  0  0  0  0  0  0  0  0  0  0  0
   33.1310   28.7580   36.7010 C   0  0  0  0  0  0  0  0  0  0  0  0
   32.0570   28.5400   36.6150 H   0  0  0  0  0  0  0  0  0  0  0  0
   33.9150   29.0770   35.6140 C   0  0  0  0  0  3  0  0  0  0  0  0
   35.2760   29.3470   35.7640 C   0  0  0  0  0  3  0  0  0  0  0  0
  1  2  1  0  0  0  0
  2  3  1  0  0  0  0
  3 13  1  0  0  0  0
  3  4  2  0  0  0  0
  4  8  1  0  0  0  0
  5  4  1  0  0  0  0
  5  9  1  0  0  0  0
  6  5  2  0  0  0  0
  7  2  2  0  0  0  0
  7  6  1  0  0  0  0
 10  6  1  0  0  0  0
 11 16  1  0  0  0  0
 12 13  1  0  0  0  0
 12 11  2  0  0  0  0
 13 14  2  0  0  0  0
 14 15  1  0  0  0  0
 15 19  1  0  0  0  0
 16 15  2  0  0  0  0
 17 11  1  0  0  0  0
 18 12  1  0  0  0  0
 21 20  1  0  0  0  0
 21 22  1  0  0  0  0
 22  7  1  0  0  0  0
 23 22  2  0  0  0  0
 23 24  1  0  0  0  0
 25 23  1  0  0  0  0
 26 25  1  0  0  0  0
 27 28  1  0  0  0  0
 27 25  2  0  0  0  0
 28 21  2  0  0  0  0
M  END
>  <minimizedAffinity>
-5.0973444

$$$$

 OpenBabel03242519593D

 28 30  0  0  0  0  0  0  0  0999 V2000
   37.3550   30.9400   38.5740 Br  0  0  0  0  0  0  0  0  0  0  0  0
   37.3850   30.0740   40.2890 C   0  0  0  0  0  0  0  0  0  0  0  0
   38.2530   30.4410   41.2900 C   0  0  0  0  0  0  0  0  0  0  0  0
   38.1920   29.7520   42.4890 C   0  0  0  0  0  0  0  0  0  0  0  0
   37.3060   28.7260   42.7110 C   0  0  0  0  0  0  0  0  0  0  0  0
   36.4300   28.3520   41.7090 C   0  0  0  0  0  0  0  0  0  0  0  0
   36.4990   29.0490   40.5130 C   0  0  0  0  0  0  0  0  0  0  0  0
   38.8910   30.0650   43.2640 H   0  0  0  0  0  0  0  0  0  0  0  0
   37.2590   28.1960   43.6340 H   0  0  0  0  0  0  0  0  0  0  0  0
   35.7070   27.5620   41.8040 H   0  0  0  0  0  0  0  0  0  0  0  0
   41.4140   32.3740   40.4730 C   0  0  0  0  0  0  0  0  0  0  0  0
   40.5270   31.3360   40.7390 C   0  0  0  0  0  0  0  0  0  0  0  0
   39.1850   31.5440   41.0100 C   0  0  0  0  0  0  0  0  0  0  0  0
   38.7760   32.8420   40.9990 N   0  0  0  0  0  0  0  0  0  0  0  0
   39.6370   33.8510   40.7420 C   0  0  0  0  0  0  0  0  0  0  0  0
   40.9230   33.6270   40.4840 N   0  0  0  0  0  0  0  0  0  0  0  0
   42.4300   32.0810   40.2780 H   0  0  0  0  0  0  0  0  0  0  0  0
   40.8850   30.3000   40.7400 H   0  0  0  0  0  0  0  0  0  0  0  0
   39.2060   34.8500   40.7580 H   0  0  0  0  0  0  0  0  0  0  0  0
   37.7770   26.7970   38.9090 Br  0  0  0  0  0  0  0  0  0  0  0  0
   36.0610   27.6340   38.6500 C   0  0  0  0  0  0  0  0  0  0  0  0
   35.5690   28.6560   39.4380 C   0  0  0  0  0  0  0  0  0  0  0  0
   34.3320   29.1950   39.1800 C   0  0  0  0  0  0  0  0  0  0  0  0
   34.0400   29.9890   39.8550 H   0  0  0  0  0  0  0  0  0  0  0  0
   33.5930   28.7030   38.1280 C   0  0  0  0  0  0  0  0  0  0  0  0
   32.6100   29.1650   37.9610 H   0  0  0  0  0  0  0  0  0  0  0  0
   34.0790   27.6830   37.3380 C   0  0  0  0  0  3  0  0  0  0  0  0
   35.3330   27.1200   37.5820 C   0  0  0  0  0  3  0  0  0  0  0  0
  1  2  1  0  0  0  0
  2  7  2  0  0  0  0
  2  3  1  0  0  0  0
  3  4  2  0  0  0  0
  4  5  1  0  0  0  0
  4  8  1  0  0  0  0
  5  9  1  0  0  0  0
  6 10  1  0  0  0  0
  6  5  2  0  0  0  0
  7  6  1  0  0  0  0
 11 16  2  0  0  0  0
 11 12  1  0  0  0  0
 12 18  1  0  0  0  0
 12 13  2  0  0  0  0
 13  3  1  0  0  0  0
 14 13  1  0  0  0  0
 15 19  1  0  0  0  0
 15 14  2  0  0  0  0
 16 15  1  0  0  0  0
 17 11  1  0  0  0  0
 21 20  1  0  0  0  0
 21 22  1  0  0  0  0
 22  7  1  0  0  0  0
 23 22  2  0  0  0  0
 23 24  1  0  0  0  0
 25 23  1  0  0  0  0
 26 25  1  0  0  0  0
 27 28  1  0  0  0  0
 27 25  2  0  0  0  0
 28 21  2  0  0  0  0
M  END
>  <minimizedAffinity>
-5.05445147

$$$$
