
 OpenBabel03242510063D

 18 19  0  0  0  0  0  0  0  0999 V2000
   36.2010   30.7860   41.0020 C   0  0  0  0  0  0  0  0  0  0  0  0
   37.4150   31.4230   40.6710 C   0  0  0  0  0  0  0  0  0  0  0  0
   38.5190   30.5940   40.4130 C   0  0  0  0  0  0  0  0  0  0  0  0
   38.3580   29.2500   40.4930 N   0  0  0  0  0  0  0  0  0  0  0  0
   37.1650   28.6760   40.8160 C   0  0  0  0  0  0  0  0  0  0  0  0
   36.0960   29.4570   41.0680 N   0  0  0  0  0  0  0  0  0  0  0  0
   35.3440   31.4430   41.2040 H   0  0  0  0  0  0  0  0  0  0  0  0
   37.5210   32.4920   40.6130 H   0  0  0  0  0  0  0  0  0  0  0  0
   39.4860   31.0040   40.1520 H   0  0  0  0  0  0  0  0  0  0  0  0
   37.5400   27.6570   43.6800 Br  0  0  0  0  0  0  0  0  0  0  0  0
   37.1700   26.6110   42.1170 C   0  0  0  0  0  0  0  0  0  0  0  0
   37.0290   27.2250   40.8940 C   0  0  0  0  0  0  0  0  0  0  0  0
   36.7580   26.4790   39.7430 C   0  0  0  0  0  0  0  0  0  0  0  0
   36.6650   27.0470   38.8330 H   0  0  0  0  0  0  0  0  0  0  0  0
   36.6400   25.1210   39.8700 C   0  0  0  0  0  0  0  0  0  0  0  0
   36.4280   24.5470   38.9620 H   0  0  0  0  0  0  0  0  0  0  0  0
   36.7900   24.5470   41.1130 C   0  0  0  0  0  3  0  0  0  0  0  0
   37.0510   25.2470   42.2470 C   0  0  0  0  0  3  0  0  0  0  0  0
  1  6  1  0  0  0  0
  1  7  1  0  0  0  0
  2  1  2  0  0  0  0
  3  4  2  0  0  0  0
  3  2  1  0  0  0  0
  4  5  1  0  0  0  0
  5 12  1  0  0  0  0
  5  6  2  0  0  0  0
  8  2  1  0  0  0  0
  9  3  1  0  0  0  0
 11 18  1  0  0  0  0
 11 10  1  0  0  0  0
 12 11  2  0  0  0  0
 13 15  2  0  0  0  0
 13 12  1  0  0  0  0
 14 13  1  0  0  0  0
 15 17  1  0  0  0  0
 16 15  1  0  0  0  0
 17 18  2  0  0  0  0
M  END
>  <minimizedAffinity>
-4.23265886

$$$$

 OpenBabel03242510063D

 18 19  0  0  0  0  0  0  0  0999 V2000
   38.2820   30.6630   38.3450 C   0  0  0  0  0  0  0  0  0  0  0  0
   37.6880   31.9420   38.3710 C   0  0  0  0  0  0  0  0  0  0  0  0
   36.9750   32.2900   39.5290 C   0  0  0  0  0  0  0  0  0  0  0  0
   36.9000   31.3910   40.5430 N   0  0  0  0  0  0  0  0  0  0  0  0
   37.4900   30.1650   40.4760 C   0  0  0  0  0  0  0  0  0  0  0  0
   38.1780   29.8150   39.3710 N   0  0  0  0  0  0  0  0  0  0  0  0
   38.8370   30.4010   37.4340 H   0  0  0  0  0  0  0  0  0  0  0  0
   37.7610   32.6400   37.5550 H   0  0  0  0  0  0  0  0  0  0  0  0
   36.4900   33.2520   39.6290 H   0  0  0  0  0  0  0  0  0  0  0  0
   39.7440   30.5660   42.5110 Br  0  0  0  0  0  0  0  0  0  0  0  0
   38.3310   29.2740   42.5870 C   0  0  0  0  0  0  0  0  0  0  0  0
   37.3890   29.2230   41.5860 C   0  0  0  0  0  0  0  0  0  0  0  0
   36.3500   28.2880   41.6240 C   0  0  0  0  0  0  0  0  0  0  0  0
   35.6620   28.3230   40.7970 H   0  0  0  0  0  0  0  0  0  0  0  0
   36.3000   27.4260   42.6870 C   0  0  0  0  0  0  0  0  0  0  0  0
   35.4820   26.6980   42.7070 H   0  0  0  0  0  0  0  0  0  0  0  0
   37.2640   27.5120   43.6680 C   0  0  0  0  0  3  0  0  0  0  0  0
   38.2820   28.4100   43.6560 C   0  0  0  0  0  3  0  0  0  0  0  0
  1  2  2  0  0  0  0
  1  6  1  0  0  0  0
  2  3  1  0  0  0  0
  3  9  1  0  0  0  0
  3  4  2  0  0  0  0
  5  4  1  0  0  0  0
  5 12  1  0  0  0  0
  6  5  2  0  0  0  0
  7  1  1  0  0  0  0
  8  2  1  0  0  0  0
 10 11  1  0  0  0  0
 11 18  1  0  0  0  0
 12 13  1  0  0  0  0
 12 11  2  0  0  0  0
 13 15  2  0  0  0  0
 14 13  1  0  0  0  0
 15 16  1  0  0  0  0
 15 17  1  0  0  0  0
 18 17  2  0  0  0  0
M  END
>  <minimizedAffinity>
-4.21352434

$$$$

 OpenBabel03242510063D

 18 19  0  0  0  0  0  0  0  0999 V2000
   38.2800   31.1350   38.2210 C   0  0  0  0  0  0  0  0  0  0  0  0
   37.8160   32.4550   38.4000 C   0  0  0  0  0  0  0  0  0  0  0  0
   37.2870   32.7790   39.6600 C   0  0  0  0  0  0  0  0  0  0  0  0
   37.2540   31.8200   40.6190 N   0  0  0  0  0  0  0  0  0  0  0  0
   37.7140   30.5550   40.4040 C   0  0  0  0  0  0  0  0  0  0  0  0
   38.2240   30.2280   39.1990 N   0  0  0  0  0  0  0  0  0  0  0  0
   38.6900   30.8920   37.2320 H   0  0  0  0  0  0  0  0  0  0  0  0
   37.8520   33.2000   37.6260 H   0  0  0  0  0  0  0  0  0  0  0  0
   36.9110   33.7690   39.8790 H   0  0  0  0  0  0  0  0  0  0  0  0
   35.1090   28.9490   40.3050 Br  0  0  0  0  0  0  0  0  0  0  0  0
   36.5520   28.7420   41.5500 C   0  0  0  0  0  0  0  0  0  0  0  0
   37.6620   29.5490   41.4580 C   0  0  0  0  0  0  0  0  0  0  0  0
   38.7250   29.4120   42.3560 C   0  0  0  0  0  0  0  0  0  0  0  0
   39.5490   30.0880   42.2070 H   0  0  0  0  0  0  0  0  0  0  0  0
   38.6260   28.4530   43.3280 C   0  0  0  0  0  0  0  0  0  0  0  0
   39.4650   28.3540   44.0260 H   0  0  0  0  0  0  0  0  0  0  0  0
   37.4960   27.6670   43.3840 C   0  0  0  0  0  3  0  0  0  0  0  0
   36.4500   27.7770   42.5240 C   0  0  0  0  0  3  0  0  0  0  0  0
  1  2  2  0  0  0  0
  1  6  1  0  0  0  0
  2  3  1  0  0  0  0
  3  9  1  0  0  0  0
  3  4  2  0  0  0  0
  5  4  1  0  0  0  0
  5 12  1  0  0  0  0
  6  5  2  0  0  0  0
  7  1  1  0  0  0  0
  8  2  1  0  0  0  0
 10 11  1  0  0  0  0
 11 18  1  0  0  0  0
 12 11  2  0  0  0  0
 12 13  1  0  0  0  0
 13 15  2  0  0  0  0
 14 13  1  0  0  0  0
 15 17  1  0  0  0  0
 15 16  1  0  0  0  0
 18 17  2  0  0  0  0
M  END
>  <minimizedAffinity>
-4.12298346

$$$$

 OpenBabel03242510063D

 18 19  0  0  0  0  0  0  0  0999 V2000
   37.3190   32.7700   39.7290 C   0  0  0  0  0  0  0  0  0  0  0  0
   37.7800   32.5120   38.4220 C   0  0  0  0  0  0  0  0  0  0  0  0
   38.2290   31.2090   38.1500 C   0  0  0  0  0  0  0  0  0  0  0  0
   38.1900   30.2860   39.1440 N   0  0  0  0  0  0  0  0  0  0  0  0
   37.7350   30.5780   40.3950 C   0  0  0  0  0  0  0  0  0  0  0  0
   37.3030   31.8250   40.6720 N   0  0  0  0  0  0  0  0  0  0  0  0
   36.9720   33.7920   39.9310 H   0  0  0  0  0  0  0  0  0  0  0  0
   37.8020   33.2590   37.6490 H   0  0  0  0  0  0  0  0  0  0  0  0
   38.5980   30.9290   37.1730 H   0  0  0  0  0  0  0  0  0  0  0  0
   35.1270   28.9740   40.3460 Br  0  0  0  0  0  0  0  0  0  0  0  0
   36.6010   28.7530   41.5510 C   0  0  0  0  0  0  0  0  0  0  0  0
   37.7090   29.5600   41.4400 C   0  0  0  0  0  0  0  0  0  0  0  0
   38.7950   29.4140   42.3090 C   0  0  0  0  0  0  0  0  0  0  0  0
   39.6160   30.0910   42.1450 H   0  0  0  0  0  0  0  0  0  0  0  0
   38.7210   28.4440   43.2720 C   0  0  0  0  0  0  0  0  0  0  0  0
   39.5760   28.3380   43.9470 H   0  0  0  0  0  0  0  0  0  0  0  0
   37.5920   27.6580   43.3490 C   0  0  0  0  0  3  0  0  0  0  0  0
   36.5240   27.7780   42.5170 C   0  0  0  0  0  3  0  0  0  0  0  0
  1  7  1  0  0  0  0
  1  6  1  0  0  0  0
  2  1  2  0  0  0  0
  3  2  1  0  0  0  0
  3  4  2  0  0  0  0
  4  5  1  0  0  0  0
  5  6  2  0  0  0  0
  5 12  1  0  0  0  0
  8  2  1  0  0  0  0
  9  3  1  0  0  0  0
 10 11  1  0  0  0  0
 11 18  1  0  0  0  0
 12 11  2  0  0  0  0
 12 13  1  0  0  0  0
 13 15  2  0  0  0  0
 14 13  1  0  0  0  0
 15 17  1  0  0  0  0
 15 16  1  0  0  0  0
 18 17  2  0  0  0  0
M  END
>  <minimizedAffinity>
-4.11148024

$$$$

 OpenBabel03242510063D

 18 19  0  0  0  0  0  0  0  0999 V2000
   38.9320   27.2640   41.8660 C   0  0  0  0  0  0  0  0  0  0  0  0
   38.2810   27.0000   43.0890 C   0  0  0  0  0  0  0  0  0  0  0  0
   37.5780   28.0630   43.6790 C   0  0  0  0  0  0  0  0  0  0  0  0
   37.5640   29.2640   43.0490 N   0  0  0  0  0  0  0  0  0  0  0  0
   38.2060   29.4760   41.8670 C   0  0  0  0  0  0  0  0  0  0  0  0
   38.8870   28.4660   41.2870 N   0  0  0  0  0  0  0  0  0  0  0  0
   39.4790   26.4260   41.4140 H   0  0  0  0  0  0  0  0  0  0  0  0
   38.3050   26.0390   43.5710 H   0  0  0  0  0  0  0  0  0  0  0  0
   37.0520   27.9430   44.6170 H   0  0  0  0  0  0  0  0  0  0  0  0
   35.7350   29.7840   40.0840 Br  0  0  0  0  0  0  0  0  0  0  0  0
   37.1190   31.0770   40.3800 C   0  0  0  0  0  0  0  0  0  0  0  0
   38.1700   30.7820   41.2170 C   0  0  0  0  0  0  0  0  0  0  0  0
   39.1880   31.7120   41.4460 C   0  0  0  0  0  0  0  0  0  0  0  0
   39.9690   31.3920   42.1150 H   0  0  0  0  0  0  0  0  0  0  0  0
   39.1070   32.9230   40.8120 C   0  0  0  0  0  0  0  0  0  0  0  0
   39.9100   33.6440   40.9990 H   0  0  0  0  0  0  0  0  0  0  0  0
   38.0380   33.1760   39.9820 C   0  0  0  0  0  3  0  0  0  0  0  0
   37.0350   32.2920   39.7430 C   0  0  0  0  0  3  0  0  0  0  0  0
  1  2  1  0  0  0  0
  2  8  1  0  0  0  0
  2  3  2  0  0  0  0
  3  9  1  0  0  0  0
  4  3  1  0  0  0  0
  5  4  2  0  0  0  0
  6  1  2  0  0  0  0
  6  5  1  0  0  0  0
  7  1  1  0  0  0  0
 10 11  1  0  0  0  0
 11 12  1  0  0  0  0
 12 13  2  0  0  0  0
 12  5  1  0  0  0  0
 13 14  1  0  0  0  0
 15 16  1  0  0  0  0
 15 13  1  0  0  0  0
 17 15  2  0  0  0  0
 18 17  1  0  0  0  0
 18 11  2  0  0  0  0
M  END
>  <minimizedAffinity>
-4.0855298

$$$$

 OpenBabel03242510063D

 18 19  0  0  0  0  0  0  0  0999 V2000
   37.8730   26.9400   41.2820 C   0  0  0  0  0  0  0  0  0  0  0  0
   37.3810   26.6580   42.5740 C   0  0  0  0  0  0  0  0  0  0  0  0
   37.0700   27.7580   43.3900 C   0  0  0  0  0  0  0  0  0  0  0  0
   37.2540   29.0080   42.8980 N   0  0  0  0  0  0  0  0  0  0  0  0
   37.7320   29.2360   41.6420 C   0  0  0  0  0  0  0  0  0  0  0  0
   38.0370   28.1910   40.8460 N   0  0  0  0  0  0  0  0  0  0  0  0
   38.1150   26.0730   40.6530 H   0  0  0  0  0  0  0  0  0  0  0  0
   37.2420   25.6580   42.9440 H   0  0  0  0  0  0  0  0  0  0  0  0
   36.6870   27.6270   44.3940 H   0  0  0  0  0  0  0  0  0  0  0  0
   40.4770   30.3530   42.4130 Br  0  0  0  0  0  0  0  0  0  0  0  0
   39.1050   31.2390   41.4110 C   0  0  0  0  0  0  0  0  0  0  0  0
   37.9180   30.5950   41.1460 C   0  0  0  0  0  0  0  0  0  0  0  0
   36.9060   31.2250   40.4160 C   0  0  0  0  0  0  0  0  0  0  0  0
   36.0140   30.6420   40.2600 H   0  0  0  0  0  0  0  0  0  0  0  0
   37.1310   32.5000   39.9730 C   0  0  0  0  0  0  0  0  0  0  0  0
   36.3320   32.9840   39.4020 H   0  0  0  0  0  0  0  0  0  0  0  0
   38.3330   33.1090   40.2610 C   0  0  0  0  0  3  0  0  0  0  0  0
   39.3340   32.5210   40.9670 C   0  0  0  0  0  3  0  0  0  0  0  0
  1  2  1  0  0  0  0
  2  8  1  0  0  0  0
  2  3  2  0  0  0  0
  3  9  1  0  0  0  0
  4  3  1  0  0  0  0
  5  4  2  0  0  0  0
  6  1  2  0  0  0  0
  6  5  1  0  0  0  0
  7  1  1  0  0  0  0
 11 10  1  0  0  0  0
 12 11  1  0  0  0  0
 12  5  1  0  0  0  0
 13 12  2  0  0  0  0
 14 13  1  0  0  0  0
 15 17  2  0  0  0  0
 15 13  1  0  0  0  0
 16 15  1  0  0  0  0
 17 18  1  0  0  0  0
 18 11  2  0  0  0  0
M  END
>  <minimizedAffinity>
-4.02042103

$$$$

 OpenBabel03242510063D

 18 19  0  0  0  0  0  0  0  0999 V2000
   39.3900   23.9430   39.1730 C   0  0  0  0  0  0  0  0  0  0  0  0
   38.7980   22.6830   39.3940 C   0  0  0  0  0  0  0  0  0  0  0  0
   37.8840   22.5870   40.4570 C   0  0  0  0  0  0  0  0  0  0  0  0
   37.6260   23.6940   41.1960 N   0  0  0  0  0  0  0  0  0  0  0  0
   38.2210   24.8940   40.9470 C   0  0  0  0  0  0  0  0  0  0  0  0
   39.1010   25.0030   39.9310 N   0  0  0  0  0  0  0  0  0  0  0  0
   40.1040   24.0070   38.3400 H   0  0  0  0  0  0  0  0  0  0  0  0
   39.0170   21.8170   38.7950 H   0  0  0  0  0  0  0  0  0  0  0  0
   37.3860   21.6560   40.6930 H   0  0  0  0  0  0  0  0  0  0  0  0
   40.1340   25.1360   43.3250 Br  0  0  0  0  0  0  0  0  0  0  0  0
   38.6920   26.3140   42.8740 C   0  0  0  0  0  0  0  0  0  0  0  0
   37.9190   26.0650   41.7640 C   0  0  0  0  0  0  0  0  0  0  0  0
   36.8630   26.9130   41.4180 C   0  0  0  0  0  0  0  0  0  0  0  0
   36.3150   26.6370   40.5340 H   0  0  0  0  0  0  0  0  0  0  0  0
   36.6220   27.9980   42.2180 C   0  0  0  0  0  0  0  0  0  0  0  0
   35.7920   28.6560   41.9380 H   0  0  0  0  0  0  0  0  0  0  0  0
   37.4190   28.2100   43.3210 C   0  0  0  0  0  3  0  0  0  0  0  0
   38.4520   27.4030   43.6790 C   0  0  0  0  0  3  0  0  0  0  0  0
  1  2  2  0  0  0  0
  1  6  1  0  0  0  0
  2  3  1  0  0  0  0
  3  9  1  0  0  0  0
  3  4  2  0  0  0  0
  5  4  1  0  0  0  0
  5 12  1  0  0  0  0
  6  5  2  0  0  0  0
  7  1  1  0  0  0  0
  8  2  1  0  0  0  0
 11 10  1  0  0  0  0
 11 18  1  0  0  0  0
 12 11  2  0  0  0  0
 13 12  1  0  0  0  0
 13 15  2  0  0  0  0
 14 13  1  0  0  0  0
 15 17  1  0  0  0  0
 16 15  1  0  0  0  0
 17 18  2  0  0  0  0
M  END
>  <minimizedAffinity>
-3.9545958

$$$$

 OpenBabel03242510063D

 18 19  0  0  0  0  0  0  0  0999 V2000
   38.3960   29.6740   42.2030 C   0  0  0  0  0  0  0  0  0  0  0  0
   38.1850   28.9650   43.4040 C   0  0  0  0  0  0  0  0  0  0  0  0
   37.1380   28.0290   43.4150 C   0  0  0  0  0  0  0  0  0  0  0  0
   36.4020   27.8610   42.2880 N   0  0  0  0  0  0  0  0  0  0  0  0
   36.6400   28.5680   41.1480 C   0  0  0  0  0  0  0  0  0  0  0  0
   37.6410   29.4710   41.1210 N   0  0  0  0  0  0  0  0  0  0  0  0
   39.2160   30.4050   42.2050 H   0  0  0  0  0  0  0  0  0  0  0  0
   38.7810   29.1140   44.2860 H   0  0  0  0  0  0  0  0  0  0  0  0
   36.9110   27.4440   44.2960 H   0  0  0  0  0  0  0  0  0  0  0  0
   37.6990   26.2530   39.4450 Br  0  0  0  0  0  0  0  0  0  0  0  0
   36.1740   27.3550   39.0830 C   0  0  0  0  0  0  0  0  0  0  0  0
   35.8270   28.3610   39.9540 C   0  0  0  0  0  0  0  0  0  0  0  0
   34.7180   29.1750   39.7070 C   0  0  0  0  0  0  0  0  0  0  0  0
   34.5260   29.9360   40.4440 H   0  0  0  0  0  0  0  0  0  0  0  0
   33.9880   28.9400   38.5720 C   0  0  0  0  0  0  0  0  0  0  0  0
   33.1210   29.5830   38.3880 H   0  0  0  0  0  0  0  0  0  0  0  0
   34.3710   27.9220   37.7260 C   0  0  0  0  0  3  0  0  0  0  0  0
   35.4430   27.1160   37.9420 C   0  0  0  0  0  3  0  0  0  0  0  0
  1  7  1  0  0  0  0
  1  2  1  0  0  0  0
  2  3  2  0  0  0  0
  2  8  1  0  0  0  0
  3  9  1  0  0  0  0
  4  3  1  0  0  0  0
  5  4  2  0  0  0  0
  6  5  1  0  0  0  0
  6  1  2  0  0  0  0
 11 10  1  0  0  0  0
 11 12  1  0  0  0  0
 12  5  1  0  0  0  0
 13 12  2  0  0  0  0
 13 14  1  0  0  0  0
 15 13  1  0  0  0  0
 16 15  1  0  0  0  0
 17 18  1  0  0  0  0
 17 15  2  0  0  0  0
 18 11  2  0  0  0  0
M  END
>  <minimizedAffinity>
-3.93927741

$$$$

 OpenBabel03242510063D

 18 19  0  0  0  0  0  0  0  0999 V2000
   38.4090   30.0850   40.2660 C   0  0  0  0  0  0  0  0  0  0  0  0
   37.3570   30.9840   40.5380 C   0  0  0  0  0  0  0  0  0  0  0  0
   36.1340   30.4280   40.9480 C   0  0  0  0  0  0  0  0  0  0  0  0
   36.0360   29.0800   41.0600 N   0  0  0  0  0  0  0  0  0  0  0  0
   37.0790   28.2470   40.7880 C   0  0  0  0  0  0  0  0  0  0  0  0
   38.2600   28.7650   40.3910 N   0  0  0  0  0  0  0  0  0  0  0  0
   39.3600   30.5300   39.9440 H   0  0  0  0  0  0  0  0  0  0  0  0
   37.4570   32.0510   40.4420 H   0  0  0  0  0  0  0  0  0  0  0  0
   35.2780   31.0490   41.1760 H   0  0  0  0  0  0  0  0  0  0  0  0
   36.2690   26.9470   38.1360 Br  0  0  0  0  0  0  0  0  0  0  0  0
   36.5760   26.0680   39.8110 C   0  0  0  0  0  0  0  0  0  0  0  0
   36.9370   26.8010   40.9180 C   0  0  0  0  0  0  0  0  0  0  0  0
   37.1660   26.1780   42.1490 C   0  0  0  0  0  0  0  0  0  0  0  0
   37.4440   26.8330   42.9570 H   0  0  0  0  0  0  0  0  0  0  0  0
   37.0190   24.8180   42.2180 C   0  0  0  0  0  0  0  0  0  0  0  0
   37.2010   24.3410   43.1870 H   0  0  0  0  0  0  0  0  0  0  0  0
   36.6560   24.1230   41.0850 C   0  0  0  0  0  3  0  0  0  0  0  0
   36.4280   24.7020   39.8780 C   0  0  0  0  0  3  0  0  0  0  0  0
  1  6  2  0  0  0  0
  1  2  1  0  0  0  0
  2  3  2  0  0  0  0
  3  4  1  0  0  0  0
  3  9  1  0  0  0  0
  5 12  1  0  0  0  0
  5  4  2  0  0  0  0
  6  5  1  0  0  0  0
  7  1  1  0  0  0  0
  8  2  1  0  0  0  0
 10 11  1  0  0  0  0
 11 18  2  0  0  0  0
 11 12  1  0  0  0  0
 12 13  2  0  0  0  0
 13 15  1  0  0  0  0
 13 14  1  0  0  0  0
 15 16  1  0  0  0  0
 17 15  2  0  0  0  0
 18 17  1  0  0  0  0
M  END
>  <minimizedAffinity>
-3.93826389

$$$$
