
 OpenBabel03252504103D

 25 26  0  0  0  0  0  0  0  0999 V2000
   46.8380   34.1700   43.0440 C   0  0  0  0  0  0  0  0  0  0  0  0
   45.6040   33.8050   42.5190 C   0  0  0  0  0  0  0  0  0  0  0  0
   44.8860   32.8040   43.1760 C   0  0  0  0  0  0  0  0  0  0  0  0
   45.4300   32.2430   44.2910 N   0  0  0  0  0  0  0  0  0  0  0  0
   46.6330   32.6320   44.7630 C   0  0  0  0  0  0  0  0  0  0  0  0
   47.3420   33.5850   44.1570 N   0  0  0  0  0  0  0  0  0  0  0  0
   43.9250   32.5030   42.7870 H   0  0  0  0  0  0  0  0  0  0  0  0
   47.9110   29.7840   44.3410 Br  0  0  0  0  0  0  0  0  0  0  0  0
   47.6680   30.6900   45.9760 C   0  0  0  0  0  0  0  0  0  0  0  0
   47.0850   31.9400   45.9650 C   0  0  0  0  0  0  0  0  0  0  0  0
   46.9410   32.5400   47.1970 C   0  0  0  0  0  0  0  0  0  0  0  0
   46.4920   33.5310   47.3070 H   0  0  0  0  0  0  0  0  0  0  0  0
   47.3540   31.9310   48.3860 C   0  0  0  0  0  0  0  0  0  0  0  0
   47.2130   32.4570   49.3310 H   0  0  0  0  0  0  0  0  0  0  0  0
   47.9320   30.6800   48.3520 C   0  0  0  0  0  3  0  0  0  0  0  0
   48.0780   30.0830   47.1400 C   0  0  0  0  0  3  0  0  0  0  0  0
   45.0960   34.4770   41.2970 C   0  0  0  0  0  0  0  0  0  0  0  0
   44.8270   35.8190   41.5800 F   0  0  0  0  0  0  0  0  0  0  0  0
   46.0930   34.4700   40.3530 F   0  0  0  0  0  0  0  0  0  0  0  0
   43.9520   33.9450   40.7900 F   0  0  0  0  0  0  0  0  0  0  0  0
   47.5250   35.1450   42.3940 O   0  0  0  0  0  0  0  0  0  0  0  0
   48.8170   35.0630   41.8490 C   0  0  0  0  0  0  0  0  0  0  0  0
   49.7140   35.3540   42.8950 F   0  0  0  0  0  0  0  0  0  0  0  0
   49.0150   33.8380   41.3020 F   0  0  0  0  0  0  0  0  0  0  0  0
   49.0110   36.0900   40.9440 F   0  0  0  0  0  0  0  0  0  0  0  0
  1  6  1  0  0  0  0
  2  1  2  0  0  0  0
  2  3  1  0  0  0  0
  3  4  2  0  0  0  0
  4  5  1  0  0  0  0
  5 10  1  0  0  0  0
  6  5  2  0  0  0  0
  7  3  1  0  0  0  0
  8  9  1  0  0  0  0
  9 16  1  0  0  0  0
 10  9  2  0  0  0  0
 10 11  1  0  0  0  0
 11 12  1  0  0  0  0
 11 13  2  0  0  0  0
 13 14  1  0  0  0  0
 15 13  1  0  0  0  0
 16 15  2  0  0  0  0
 17 18  1  0  0  0  0
 17  2  1  0  0  0  0
 19 17  1  0  0  0  0
 20 17  1  0  0  0  0
 21  1  1  0  0  0  0
 22 21  1  0  0  0  0
 22 23  1  0  0  0  0
 24 22  1  0  0  0  0
 25 22  1  0  0  0  0
M  END
>  <minimizedAffinity>
-5.44374084

>  <minimizedRMSD>
1.64496601

$$$$
