
 OpenBabel03242520523D

 22 23  0  0  0  0  0  0  0  0999 V2000
   37.6710   28.7200   43.6010 C   0  0  0  0  0  0  0  0  0  0  0  0
   37.8970   27.3520   43.4850 C   0  0  0  0  0  0  0  0  0  0  0  0
   38.1520   26.7960   42.2360 C   0  0  0  0  0  0  0  0  0  0  0  0
   38.1640   27.6440   41.1940 N   0  0  0  0  0  0  0  0  0  0  0  0
   37.9450   28.9590   41.3120 C   0  0  0  0  0  0  0  0  0  0  0  0
   37.6990   29.4960   42.5120 N   0  0  0  0  0  0  0  0  0  0  0  0
   37.4770   29.1010   44.5920 H   0  0  0  0  0  0  0  0  0  0  0  0
   37.8870   26.6740   44.3200 H   0  0  0  0  0  0  0  0  0  0  0  0
   35.2260   29.2270   39.9940 Br  0  0  0  0  0  0  0  0  0  0  0  0
   36.8210   30.0450   39.4060 C   0  0  0  0  0  0  0  0  0  0  0  0
   37.9740   29.8130   40.1290 C   0  0  0  0  0  0  0  0  0  0  0  0
   39.1450   30.4080   39.7050 C   0  0  0  0  0  0  0  0  0  0  0  0
   40.0770   30.2560   40.2420 H   0  0  0  0  0  0  0  0  0  0  0  0
   39.1400   31.2090   38.5820 C   0  0  0  0  0  0  0  0  0  0  0  0
   40.0520   31.6810   38.2410 H   0  0  0  0  0  0  0  0  0  0  0  0
   37.9810   31.4310   37.8730 C   0  0  0  0  0  3  0  0  0  0  0  0
   36.7700   30.8500   38.2640 C   0  0  0  0  0  3  0  0  0  0  0  0
   38.3920   25.4680   41.9730 O   0  0  0  0  0  0  0  0  0  0  0  0
   37.2390   24.6650   41.6660 C   0  0  0  0  0  0  0  0  0  0  0  0
   36.6910   25.0600   40.4650 F   0  0  0  0  0  0  0  0  0  0  0  0
   37.6690   23.3380   41.5620 F   0  0  0  0  0  0  0  0  0  0  0  0
   36.3150   24.7170   42.7190 F   0  0  0  0  0  0  0  0  0  0  0  0
  1  7  1  0  0  0  0
  2  1  1  0  0  0  0
  2  8  1  0  0  0  0
  3  2  2  0  0  0  0
  4  5  2  0  0  0  0
  4  3  1  0  0  0  0
  5  6  1  0  0  0  0
  6  1  2  0  0  0  0
 10  9  1  0  0  0  0
 10 11  1  0  0  0  0
 11  5  1  0  0  0  0
 12 11  2  0  0  0  0
 12 13  1  0  0  0  0
 14 12  1  0  0  0  0
 15 14  1  0  0  0  0
 16 17  1  0  0  0  0
 16 14  2  0  0  0  0
 17 10  2  0  0  0  0
 18  3  1  0  0  0  0
 19 18  1  0  0  0  0
 19 22  1  0  0  0  0
 20 19  1  0  0  0  0
 21 19  1  0  0  0  0
M  END
>  <minimizedAffinity>
-4.88472939

$$$$

 OpenBabel03242520523D

 22 23  0  0  0  0  0  0  0  0999 V2000
   35.8010   30.4220   40.6750 C   0  0  0  0  0  0  0  0  0  0  0  0
   37.0000   31.1070   40.5090 C   0  0  0  0  0  0  0  0  0  0  0  0
   38.2000   30.4050   40.4820 C   0  0  0  0  0  0  0  0  0  0  0  0
   38.1170   29.0720   40.6210 N   0  0  0  0  0  0  0  0  0  0  0  0
   36.9600   28.4170   40.7800 C   0  0  0  0  0  0  0  0  0  0  0  0
   35.8050   29.0910   40.8060 N   0  0  0  0  0  0  0  0  0  0  0  0
   34.8980   31.0140   40.6890 H   0  0  0  0  0  0  0  0  0  0  0  0
   37.0660   32.1750   40.3990 H   0  0  0  0  0  0  0  0  0  0  0  0
   37.0430   27.5310   43.6800 Br  0  0  0  0  0  0  0  0  0  0  0  0
   36.9890   26.3880   42.1780 C   0  0  0  0  0  0  0  0  0  0  0  0
   36.9540   26.9660   40.9250 C   0  0  0  0  0  0  0  0  0  0  0  0
   36.9150   26.1380   39.8220 C   0  0  0  0  0  0  0  0  0  0  0  0
   36.8860   26.5450   38.8150 H   0  0  0  0  0  0  0  0  0  0  0  0
   36.9120   24.7680   39.9920 C   0  0  0  0  0  0  0  0  0  0  0  0
   36.8810   24.1090   39.1350 H   0  0  0  0  0  0  0  0  0  0  0  0
   36.9470   24.2090   41.2490 C   0  0  0  0  0  3  0  0  0  0  0  0
   36.9870   25.0080   42.3970 C   0  0  0  0  0  3  0  0  0  0  0  0
   39.4550   30.9470   40.3280 O   0  0  0  0  0  0  0  0  0  0  0  0
   39.9320   31.7580   41.4150 C   0  0  0  0  0  0  0  0  0  0  0  0
   41.2930   31.9410   41.3090 F   0  0  0  0  0  0  0  0  0  0  0  0
   39.2920   32.9980   41.3240 F   0  0  0  0  0  0  0  0  0  0  0  0
   39.5620   31.1930   42.6430 F   0  0  0  0  0  0  0  0  0  0  0  0
  1  7  1  0  0  0  0
  1  6  1  0  0  0  0
  2  1  2  0  0  0  0
  3  2  1  0  0  0  0
  3  4  2  0  0  0  0
  4  5  1  0  0  0  0
  5  6  2  0  0  0  0
  5 11  1  0  0  0  0
  8  2  1  0  0  0  0
 10 17  1  0  0  0  0
 10  9  1  0  0  0  0
 11 10  2  0  0  0  0
 12 14  2  0  0  0  0
 12 11  1  0  0  0  0
 13 12  1  0  0  0  0
 14 16  1  0  0  0  0
 15 14  1  0  0  0  0
 16 17  2  0  0  0  0
 18  3  1  0  0  0  0
 18 19  1  0  0  0  0
 19 22  1  0  0  0  0
 20 19  1  0  0  0  0
 21 19  1  0  0  0  0
M  END
>  <minimizedAffinity>
-4.77716732

$$$$

 OpenBabel03242520523D

 22 23  0  0  0  0  0  0  0  0999 V2000
   40.1630   28.1330   39.7970 C   0  0  0  0  0  0  0  0  0  0  0  0
   39.6390   27.4100   40.8640 C   0  0  0  0  0  0  0  0  0  0  0  0
   38.7810   28.0310   41.7650 C   0  0  0  0  0  0  0  0  0  0  0  0
   38.5060   29.3260   41.5360 N   0  0  0  0  0  0  0  0  0  0  0  0
   39.0120   30.0160   40.5070 C   0  0  0  0  0  0  0  0  0  0  0  0
   39.8390   29.4220   39.6390 N   0  0  0  0  0  0  0  0  0  0  0  0
   40.8240   27.6050   39.1260 H   0  0  0  0  0  0  0  0  0  0  0  0
   39.8600   26.3740   41.0470 H   0  0  0  0  0  0  0  0  0  0  0  0
   36.6610   30.4100   38.6310 Br  0  0  0  0  0  0  0  0  0  0  0  0
   37.6170   31.7830   39.5050 C   0  0  0  0  0  0  0  0  0  0  0  0
   38.6650   31.4220   40.3270 C   0  0  0  0  0  0  0  0  0  0  0  0
   39.3690   32.4190   40.9690 C   0  0  0  0  0  0  0  0  0  0  0  0
   40.2010   32.1850   41.6270 H   0  0  0  0  0  0  0  0  0  0  0  0
   39.0160   33.7400   40.7780 C   0  0  0  0  0  0  0  0  0  0  0  0
   39.5610   34.5310   41.2780 H   0  0  0  0  0  0  0  0  0  0  0  0
   37.9680   34.0830   39.9560 C   0  0  0  0  0  3  0  0  0  0  0  0
   37.2250   33.1070   39.2830 C   0  0  0  0  0  3  0  0  0  0  0  0
   38.1920   27.4440   42.8600 O   0  0  0  0  0  0  0  0  0  0  0  0
   36.9350   26.7860   42.6260 C   0  0  0  0  0  0  0  0  0  0  0  0
   37.1100   25.4190   42.6110 F   0  0  0  0  0  0  0  0  0  0  0  0
   36.0810   27.1280   43.6790 F   0  0  0  0  0  0  0  0  0  0  0  0
   36.3470   27.2630   41.4470 F   0  0  0  0  0  0  0  0  0  0  0  0
  1  2  1  0  0  0  0
  2  8  1  0  0  0  0
  2  3  2  0  0  0  0
  3 18  1  0  0  0  0
  4  3  1  0  0  0  0
  5  4  2  0  0  0  0
  6  1  2  0  0  0  0
  6  5  1  0  0  0  0
  7  1  1  0  0  0  0
  9 10  1  0  0  0  0
 10 11  1  0  0  0  0
 11  5  1  0  0  0  0
 11 12  2  0  0  0  0
 12 13  1  0  0  0  0
 14 12  1  0  0  0  0
 14 15  1  0  0  0  0
 16 14  2  0  0  0  0
 17 10  2  0  0  0  0
 17 16  1  0  0  0  0
 19 18  1  0  0  0  0
 19 21  1  0  0  0  0
 20 19  1  0  0  0  0
 22 19  1  0  0  0  0
M  END
>  <minimizedAffinity>
-4.75409365

$$$$

 OpenBabel03242520523D

 22 23  0  0  0  0  0  0  0  0999 V2000
   39.0120   34.1350   40.4260 C   0  0  0  0  0  0  0  0  0  0  0  0
   40.2090   33.8890   39.7610 C   0  0  0  0  0  0  0  0  0  0  0  0
   40.5090   32.6010   39.3300 C   0  0  0  0  0  0  0  0  0  0  0  0
   39.5950   31.6530   39.5920 N   0  0  0  0  0  0  0  0  0  0  0  0
   38.4440   31.8950   40.2330 C   0  0  0  0  0  0  0  0  0  0  0  0
   38.1530   33.1330   40.6480 N   0  0  0  0  0  0  0  0  0  0  0  0
   38.8260   35.1510   40.7400 H   0  0  0  0  0  0  0  0  0  0  0  0
   40.9400   34.6480   39.5510 H   0  0  0  0  0  0  0  0  0  0  0  0
   39.2390   30.1740   42.6010 Br  0  0  0  0  0  0  0  0  0  0  0  0
   37.7100   29.9270   41.5210 C   0  0  0  0  0  0  0  0  0  0  0  0
   37.5020   30.8090   40.4800 C   0  0  0  0  0  0  0  0  0  0  0  0
   36.3880   30.6350   39.6860 C   0  0  0  0  0  0  0  0  0  0  0  0
   36.1810   31.3040   38.8550 H   0  0  0  0  0  0  0  0  0  0  0  0
   35.5160   29.5970   39.9450 C   0  0  0  0  0  0  0  0  0  0  0  0
   34.6380   29.4510   39.3300 H   0  0  0  0  0  0  0  0  0  0  0  0
   35.7380   28.7270   40.9880 C   0  0  0  0  0  3  0  0  0  0  0  0
   36.8540   28.8630   41.8200 C   0  0  0  0  0  3  0  0  0  0  0  0
   41.6480   32.2130   38.6640 O   0  0  0  0  0  0  0  0  0  0  0  0
   41.6790   32.4850   37.2530 C   0  0  0  0  0  0  0  0  0  0  0  0
   42.4590   31.5510   36.6060 F   0  0  0  0  0  0  0  0  0  0  0  0
   40.3660   32.3940   36.7800 F   0  0  0  0  0  0  0  0  0  0  0  0
   42.1110   33.7980   37.0180 F   0  0  0  0  0  0  0  0  0  0  0  0
  1  6  1  0  0  0  0
  1  7  1  0  0  0  0
  2  1  2  0  0  0  0
  3  4  2  0  0  0  0
  3  2  1  0  0  0  0
  4  5  1  0  0  0  0
  5 11  1  0  0  0  0
  5  6  2  0  0  0  0
  8  2  1  0  0  0  0
 10 17  1  0  0  0  0
 10  9  1  0  0  0  0
 11 10  2  0  0  0  0
 12 14  2  0  0  0  0
 12 11  1  0  0  0  0
 13 12  1  0  0  0  0
 14 16  1  0  0  0  0
 15 14  1  0  0  0  0
 16 17  2  0  0  0  0
 18  3  1  0  0  0  0
 19 18  1  0  0  0  0
 20 19  1  0  0  0  0
 21 19  1  0  0  0  0
 22 19  1  0  0  0  0
M  END
>  <minimizedAffinity>
-4.71613026

$$$$

 OpenBabel03242520523D

 22 23  0  0  0  0  0  0  0  0999 V2000
   39.1920   33.7660   40.6000 C   0  0  0  0  0  0  0  0  0  0  0  0
   40.2530   33.5560   39.7240 C   0  0  0  0  0  0  0  0  0  0  0  0
   40.6710   32.2590   39.4440 C   0  0  0  0  0  0  0  0  0  0  0  0
   40.0030   31.2680   40.0550 N   0  0  0  0  0  0  0  0  0  0  0  0
   38.9830   31.4770   40.8970 C   0  0  0  0  0  0  0  0  0  0  0  0
   38.5780   32.7220   41.1690 N   0  0  0  0  0  0  0  0  0  0  0  0
   38.9060   34.7910   40.7840 H   0  0  0  0  0  0  0  0  0  0  0  0
   40.7880   34.3500   39.2350 H   0  0  0  0  0  0  0  0  0  0  0  0
   36.6350   30.4660   39.2640 Br  0  0  0  0  0  0  0  0  0  0  0  0
   37.2160   29.7580   40.9140 C   0  0  0  0  0  0  0  0  0  0  0  0
   38.3080   30.3450   41.5230 C   0  0  0  0  0  0  0  0  0  0  0  0
   38.7380   29.8340   42.7290 C   0  0  0  0  0  0  0  0  0  0  0  0
   39.5940   30.2610   43.2470 H   0  0  0  0  0  0  0  0  0  0  0  0
   38.0780   28.7630   43.2960 C   0  0  0  0  0  0  0  0  0  0  0  0
   38.4080   28.3530   44.2420 H   0  0  0  0  0  0  0  0  0  0  0  0
   36.9920   28.1900   42.6760 C   0  0  0  0  0  3  0  0  0  0  0  0
   36.5180   28.6730   41.4510 C   0  0  0  0  0  3  0  0  0  0  0  0
   41.7000   31.9030   38.6030 O   0  0  0  0  0  0  0  0  0  0  0  0
   41.5150   32.2130   37.2110 C   0  0  0  0  0  0  0  0  0  0  0  0
   42.1380   33.4030   36.9020 F   0  0  0  0  0  0  0  0  0  0  0  0
   42.1020   31.1810   36.4710 F   0  0  0  0  0  0  0  0  0  0  0  0
   40.1510   32.2240   36.8910 F   0  0  0  0  0  0  0  0  0  0  0  0
  1  7  1  0  0  0  0
  1  6  1  0  0  0  0
  2  1  2  0  0  0  0
  3  2  1  0  0  0  0
  3  4  2  0  0  0  0
  4  5  1  0  0  0  0
  5  6  2  0  0  0  0
  5 11  1  0  0  0  0
  8  2  1  0  0  0  0
  9 10  1  0  0  0  0
 10 17  2  0  0  0  0
 10 11  1  0  0  0  0
 11 12  2  0  0  0  0
 12 13  1  0  0  0  0
 12 14  1  0  0  0  0
 14 15  1  0  0  0  0
 16 14  2  0  0  0  0
 17 16  1  0  0  0  0
 18  3  1  0  0  0  0
 19 18  1  0  0  0  0
 20 19  1  0  0  0  0
 21 19  1  0  0  0  0
 22 19  1  0  0  0  0
M  END
>  <minimizedAffinity>
-4.70740223

$$$$

 OpenBabel03242520523D

 22 23  0  0  0  0  0  0  0  0999 V2000
   40.2950   29.5470   42.6150 C   0  0  0  0  0  0  0  0  0  0  0  0
   39.8210   30.5090   41.7280 C   0  0  0  0  0  0  0  0  0  0  0  0
   38.8960   30.1540   40.7520 C   0  0  0  0  0  0  0  0  0  0  0  0
   38.5110   28.8680   40.7320 N   0  0  0  0  0  0  0  0  0  0  0  0
   38.9690   27.9460   41.5880 C   0  0  0  0  0  0  0  0  0  0  0  0
   39.8590   28.2850   42.5270 N   0  0  0  0  0  0  0  0  0  0  0  0
   41.0110   29.8740   43.3540 H   0  0  0  0  0  0  0  0  0  0  0  0
   40.1310   31.5380   41.7450 H   0  0  0  0  0  0  0  0  0  0  0  0
   36.5820   27.4050   43.3800 Br  0  0  0  0  0  0  0  0  0  0  0  0
   37.4210   26.1470   42.2490 C   0  0  0  0  0  0  0  0  0  0  0  0
   38.5000   26.5680   41.4990 C   0  0  0  0  0  0  0  0  0  0  0  0
   39.1190   25.6540   40.6710 C   0  0  0  0  0  0  0  0  0  0  0  0
   39.9720   25.9380   40.0610 H   0  0  0  0  0  0  0  0  0  0  0  0
   38.6520   24.3570   40.6100 C   0  0  0  0  0  0  0  0  0  0  0  0
   39.1290   23.6320   39.9630 H   0  0  0  0  0  0  0  0  0  0  0  0
   37.5740   23.9550   41.3640 C   0  0  0  0  0  3  0  0  0  0  0  0
   36.9140   24.8440   42.2190 C   0  0  0  0  0  3  0  0  0  0  0  0
   38.3450   30.9940   39.8130 O   0  0  0  0  0  0  0  0  0  0  0  0
   37.3940   31.9540   40.3040 C   0  0  0  0  0  0  0  0  0  0  0  0
   38.0480   33.0150   40.8900 F   0  0  0  0  0  0  0  0  0  0  0  0
   36.6610   32.4150   39.2060 F   0  0  0  0  0  0  0  0  0  0  0  0
   36.4850   31.3380   41.1760 F   0  0  0  0  0  0  0  0  0  0  0  0
  1  7  1  0  0  0  0
  2  8  1  0  0  0  0
  2  1  2  0  0  0  0
  3  2  1  0  0  0  0
  4  3  2  0  0  0  0
  4  5  1  0  0  0  0
  5  6  2  0  0  0  0
  6  1  1  0  0  0  0
 10  9  1  0  0  0  0
 11  5  1  0  0  0  0
 11 10  2  0  0  0  0
 12 11  1  0  0  0  0
 13 12  1  0  0  0  0
 14 12  2  0  0  0  0
 14 16  1  0  0  0  0
 15 14  1  0  0  0  0
 16 17  2  0  0  0  0
 17 10  1  0  0  0  0
 18 19  1  0  0  0  0
 18  3  1  0  0  0  0
 19 20  1  0  0  0  0
 19 22  1  0  0  0  0
 21 19  1  0  0  0  0
M  END
>  <minimizedAffinity>
-4.69463778

$$$$

 OpenBabel03242520523D

 22 23  0  0  0  0  0  0  0  0999 V2000
   41.1420   30.4200   39.9770 C   0  0  0  0  0  0  0  0  0  0  0  0
   40.5320   31.6500   39.7500 C   0  0  0  0  0  0  0  0  0  0  0  0
   39.2250   31.8630   40.1740 C   0  0  0  0  0  0  0  0  0  0  0  0
   38.6210   30.8350   40.7930 N   0  0  0  0  0  0  0  0  0  0  0  0
   39.2130   29.6540   41.0090 C   0  0  0  0  0  0  0  0  0  0  0  0
   40.4700   29.4470   40.6020 N   0  0  0  0  0  0  0  0  0  0  0  0
   42.1580   30.3060   39.6280 H   0  0  0  0  0  0  0  0  0  0  0  0
   41.0160   32.4720   39.2540 H   0  0  0  0  0  0  0  0  0  0  0  0
   37.7980   27.7870   39.0810 Br  0  0  0  0  0  0  0  0  0  0  0  0
   37.7860   27.6450   40.9640 C   0  0  0  0  0  0  0  0  0  0  0  0
   38.4880   28.5860   41.6890 C   0  0  0  0  0  0  0  0  0  0  0  0
   38.4830   28.4900   43.0650 C   0  0  0  0  0  0  0  0  0  0  0  0
   39.0220   29.2070   43.6800 H   0  0  0  0  0  0  0  0  0  0  0  0
   37.7870   27.4690   43.6800 C   0  0  0  0  0  0  0  0  0  0  0  0
   37.7770   27.3830   44.7590 H   0  0  0  0  0  0  0  0  0  0  0  0
   37.0930   26.5380   42.9410 C   0  0  0  0  0  3  0  0  0  0  0  0
   37.0680   26.5950   41.5430 C   0  0  0  0  0  3  0  0  0  0  0  0
   38.5000   33.0210   40.0180 O   0  0  0  0  0  0  0  0  0  0  0  0
   37.2920   32.9120   39.2450 C   0  0  0  0  0  0  0  0  0  0  0  0
   36.7420   34.1590   39.0440 F   0  0  0  0  0  0  0  0  0  0  0  0
   37.6350   32.3550   38.0080 F   0  0  0  0  0  0  0  0  0  0  0  0
   36.3980   32.0260   39.8610 F   0  0  0  0  0  0  0  0  0  0  0  0
  1  6  1  0  0  0  0
  2  1  2  0  0  0  0
  2  3  1  0  0  0  0
  3  4  2  0  0  0  0
  4  5  1  0  0  0  0
  5 11  1  0  0  0  0
  6  5  2  0  0  0  0
  7  1  1  0  0  0  0
  8  2  1  0  0  0  0
  9 10  1  0  0  0  0
 10 17  2  0  0  0  0
 10 11  1  0  0  0  0
 11 12  2  0  0  0  0
 12 13  1  0  0  0  0
 12 14  1  0  0  0  0
 14 15  1  0  0  0  0
 16 14  2  0  0  0  0
 17 16  1  0  0  0  0
 18  3  1  0  0  0  0
 19 22  1  0  0  0  0
 19 18  1  0  0  0  0
 20 19  1  0  0  0  0
 21 19  1  0  0  0  0
M  END
>  <minimizedAffinity>
-4.54741001

$$$$

 OpenBabel03242520523D

 22 23  0  0  0  0  0  0  0  0999 V2000
   40.0350   28.1080   39.6420 C   0  0  0  0  0  0  0  0  0  0  0  0
   39.5340   27.4020   40.7320 C   0  0  0  0  0  0  0  0  0  0  0  0
   38.7440   28.0530   41.6730 C   0  0  0  0  0  0  0  0  0  0  0  0
   38.5100   29.3580   41.4600 N   0  0  0  0  0  0  0  0  0  0  0  0
   38.9940   30.0320   40.4090 C   0  0  0  0  0  0  0  0  0  0  0  0
   39.7550   29.4090   39.5020 N   0  0  0  0  0  0  0  0  0  0  0  0
   40.6430   27.5570   38.9410 H   0  0  0  0  0  0  0  0  0  0  0  0
   39.7220   26.3580   40.9030 H   0  0  0  0  0  0  0  0  0  0  0  0
   41.1570   31.8220   41.5580 Br  0  0  0  0  0  0  0  0  0  0  0  0
   39.5730   32.4080   40.7150 C   0  0  0  0  0  0  0  0  0  0  0  0
   38.6940   31.4510   40.2490 C   0  0  0  0  0  0  0  0  0  0  0  0
   37.5340   31.8710   39.6330 C   0  0  0  0  0  0  0  0  0  0  0  0
   36.8120   31.1550   39.2490 H   0  0  0  0  0  0  0  0  0  0  0  0
   37.2780   33.2200   39.4970 C   0  0  0  0  0  0  0  0  0  0  0  0
   36.3720   33.5610   39.0150 H   0  0  0  0  0  0  0  0  0  0  0  0
   38.1650   34.1610   39.9670 C   0  0  0  0  0  3  0  0  0  0  0  0
   39.3550   33.7840   40.5990 C   0  0  0  0  0  3  0  0  0  0  0  0
   38.1850   27.4860   42.7940 O   0  0  0  0  0  0  0  0  0  0  0  0
   36.9300   26.8090   42.6020 C   0  0  0  0  0  0  0  0  0  0  0  0
   37.1230   25.4450   42.5890 F   0  0  0  0  0  0  0  0  0  0  0  0
   36.1040   27.1470   43.6790 F   0  0  0  0  0  0  0  0  0  0  0  0
   36.3000   27.2720   41.4390 F   0  0  0  0  0  0  0  0  0  0  0  0
  1  2  1  0  0  0  0
  2  8  1  0  0  0  0
  2  3  2  0  0  0  0
  3 18  1  0  0  0  0
  4  3  1  0  0  0  0
  5  4  2  0  0  0  0
  6  1  2  0  0  0  0
  6  5  1  0  0  0  0
  7  1  1  0  0  0  0
 10  9  1  0  0  0  0
 11  5  1  0  0  0  0
 11 10  2  0  0  0  0
 12 11  1  0  0  0  0
 13 12  1  0  0  0  0
 14 12  2  0  0  0  0
 14 16  1  0  0  0  0
 15 14  1  0  0  0  0
 16 17  2  0  0  0  0
 17 10  1  0  0  0  0
 19 18  1  0  0  0  0
 19 21  1  0  0  0  0
 20 19  1  0  0  0  0
 22 19  1  0  0  0  0
M  END
>  <minimizedAffinity>
-4.54543591

$$$$

 OpenBabel03242520523D

 22 23  0  0  0  0  0  0  0  0999 V2000
   35.6510   29.5570   38.7500 C   0  0  0  0  0  0  0  0  0  0  0  0
   35.4840   28.7520   39.8720 C   0  0  0  0  0  0  0  0  0  0  0  0
   36.2410   28.9920   41.0140 C   0  0  0  0  0  0  0  0  0  0  0  0
   37.1080   30.0160   40.9540 N   0  0  0  0  0  0  0  0  0  0  0  0
   37.2640   30.7880   39.8710 C   0  0  0  0  0  0  0  0  0  0  0  0
   36.5370   30.5590   38.7720 N   0  0  0  0  0  0  0  0  0  0  0  0
   35.0390   29.3290   37.8890 H   0  0  0  0  0  0  0  0  0  0  0  0
   34.7910   27.9320   39.9200 H   0  0  0  0  0  0  0  0  0  0  0  0
   40.0120   29.9380   38.9090 Br  0  0  0  0  0  0  0  0  0  0  0  0
   39.5310   31.6720   39.4790 C   0  0  0  0  0  0  0  0  0  0  0  0
   38.2280   31.8820   39.8860 C   0  0  0  0  0  0  0  0  0  0  0  0
   37.8680   33.1460   40.3040 C   0  0  0  0  0  0  0  0  0  0  0  0
   36.8550   33.3610   40.6330 H   0  0  0  0  0  0  0  0  0  0  0  0
   38.8040   34.1600   40.3070 C   0  0  0  0  0  0  0  0  0  0  0  0
   38.5330   35.1560   40.6320 H   0  0  0  0  0  0  0  0  0  0  0  0
   40.0980   33.9340   39.8970 C   0  0  0  0  0  3  0  0  0  0  0  0
   40.5100   32.6690   39.4650 C   0  0  0  0  0  3  0  0  0  0  0  0
   36.1830   28.2810   42.1900 O   0  0  0  0  0  0  0  0  0  0  0  0
   37.2140   27.2990   42.3870 C   0  0  0  0  0  0  0  0  0  0  0  0
   38.1690   27.7800   43.2570 F   0  0  0  0  0  0  0  0  0  0  0  0
   36.6120   26.1670   42.9460 F   0  0  0  0  0  0  0  0  0  0  0  0
   37.7590   26.9100   41.1560 F   0  0  0  0  0  0  0  0  0  0  0  0
  1  6  2  0  0  0  0
  1  2  1  0  0  0  0
  2  8  1  0  0  0  0
  2  3  2  0  0  0  0
  3 18  1  0  0  0  0
  4  3  1  0  0  0  0
  5 11  1  0  0  0  0
  5  4  2  0  0  0  0
  6  5  1  0  0  0  0
  7  1  1  0  0  0  0
  9 10  1  0  0  0  0
 10 11  1  0  0  0  0
 11 12  2  0  0  0  0
 12 14  1  0  0  0  0
 12 13  1  0  0  0  0
 14 15  1  0  0  0  0
 16 14  2  0  0  0  0
 17 10  2  0  0  0  0
 17 16  1  0  0  0  0
 18 19  1  0  0  0  0
 19 21  1  0  0  0  0
 19 20  1  0  0  0  0
 22 19  1  0  0  0  0
M  END
>  <minimizedAffinity>
-4.53631401

$$$$
