
 OpenBabel03252503543D

 36 38  0  0  1  0  0  0  0  0999 V2000
   38.4270   28.7200   41.4890 N   0  0  0  0  0  0  0  0  0  0  0  0
   39.0160   28.7600   42.8340 C   0  0  0  0  0  0  0  0  0  0  0  0
   38.9010   27.3410   43.3890 C   0  0  0  0  0  0  0  0  0  0  0  0
   37.4420   27.1040   43.6800 C   0  0  0  0  0  0  0  0  0  0  0  0
   36.6630   27.3560   42.4250 C   0  0  0  0  0  0  0  0  0  0  0  0
   37.4720   27.7230   41.2380 C   0  0  1  0  0  0  0  0  0  0  0  0
   40.0920   28.9740   42.6950 H   0  0  0  0  0  0  0  0  0  0  0  0
   38.4950   29.4480   43.5060 H   0  0  0  0  0  0  0  0  0  0  0  0
   39.3160   26.6100   42.6690 H   0  0  0  0  0  0  0  0  0  0  0  0
   39.4460   27.3680   44.3510 H   0  0  0  0  0  0  0  0  0  0  0  0
   37.3270   26.0490   44.0090 H   0  0  0  0  0  0  0  0  0  0  0  0
   37.1530   27.7710   44.5150 H   0  0  0  0  0  0  0  0  0  0  0  0
   36.1080   26.4120   42.1470 H   0  0  0  0  0  0  0  0  0  0  0  0
   35.8550   28.0700   42.6730 H   0  0  0  0  0  0  0  0  0  0  0  0
   38.0080   26.8050   40.9100 H   0  0  0  0  0  0  0  0  0  0  0  0
   37.7490   26.2580   38.3860 Br  0  0  0  0  0  0  0  0  0  0  0  0
   36.3770   27.4430   38.9370 C   0  0  0  0  0  0  0  0  0  0  0  0
   36.4290   27.9900   40.1970 C   0  0  0  0  0  0  0  0  0  0  0  0
   35.3770   28.8920   40.4520 C   0  0  0  0  0  0  0  0  0  0  0  0
   35.3650   29.3610   41.4360 H   0  0  0  0  0  0  0  0  0  0  0  0
   34.3770   29.2280   39.5770 C   0  0  0  0  0  0  0  0  0  0  0  0
   33.6210   29.9370   39.8890 H   0  0  0  0  0  0  0  0  0  0  0  0
   34.4040   28.6320   38.3410 C   0  0  0  0  0  3  0  0  0  0  0  0
   35.4000   27.7390   38.0130 C   0  0  0  0  0  3  0  0  0  0  0  0
   38.9780   31.9250   39.7380 C   0  0  0  0  0  0  0  0  0  0  0  0
   38.5280   31.0010   40.6790 C   0  0  0  0  0  0  0  0  0  0  0  0
   38.8250   29.6590   40.5260 C   0  0  0  0  0  0  0  0  0  0  0  0
   39.5510   29.2980   39.4420 N   0  0  0  0  0  0  0  0  0  0  0  0
   39.9850   30.1910   38.5290 C   0  0  0  0  0  0  0  0  0  0  0  0
   39.6990   31.5090   38.6770 N   0  0  0  0  0  0  0  0  0  0  0  0
   37.9360   31.4240   41.4530 H   0  0  0  0  0  0  0  0  0  0  0  0
   40.5620   29.8640   37.6750 H   0  0  0  0  0  0  0  0  0  0  0  0
   38.6700   33.3740   39.9760 C   0  0  0  0  0  0  0  0  0  0  0  0
   37.4250   33.7230   39.4580 F   0  0  0  0  0  0  0  0  0  0  0  0
   38.7320   33.5850   41.3370 F   0  0  0  0  0  0  0  0  0  0  0  0
   39.6450   34.1600   39.3770 F   0  0  0  0  0  0  0  0  0  0  0  0
  1  2  1  0  0  0  0
  2  3  1  0  0  0  0
  2  8  1  0  0  0  0
  3  4  1  0  0  0  0
  3 10  1  0  0  0  0
  4 11  1  0  0  0  0
  4 12  1  0  0  0  0
  5 14  1  0  0  0  0
  5  4  1  0  0  0  0
  6 15  1  6  0  0  0
  6  1  1  0  0  0  0
  6  5  1  0  0  0  0
  7  2  1  0  0  0  0
  9  3  1  0  0  0  0
 13  5  1  0  0  0  0
 16 17  1  0  0  0  0
 17 18  1  0  0  0  0
 18 19  2  0  0  0  0
 18  6  1  0  0  0  0
 19 20  1  0  0  0  0
 21 22  1  0  0  0  0
 21 19  1  0  0  0  0
 23 21  2  0  0  0  0
 24 23  1  0  0  0  0
 24 17  2  0  0  0  0
 25 33  1  0  0  0  0
 25 26  1  0  0  0  0
 26 31  1  0  0  0  0
 27 26  2  0  0  0  0
 27  1  1  0  0  0  0
 28 27  1  0  0  0  0
 29 30  1  0  0  0  0
 29 28  2  0  0  0  0
 30 25  2  0  0  0  0
 32 29  1  0  0  0  0
 33 35  1  0  0  0  0
 34 33  1  0  0  0  0
 36 33  1  0  0  0  0
M  END
>  <minimizedAffinity>
-5.76239967

$$$$

 OpenBabel03252503543D

 36 38  0  0  1  0  0  0  0  0999 V2000
   37.9920   29.4530   41.6260 N   0  0  0  0  0  0  0  0  0  0  0  0
   38.4610   29.5140   43.0170 C   0  0  0  0  0  0  0  0  0  0  0  0
   38.6270   28.0650   43.4720 C   0  0  0  0  0  0  0  0  0  0  0  0
   37.2400   27.4950   43.6220 C   0  0  0  0  0  0  0  0  0  0  0  0
   36.5150   27.6690   42.3230 C   0  0  0  0  0  0  0  0  0  0  0  0
   37.3020   28.2950   41.2340 C   0  0  1  0  0  0  0  0  0  0  0  0
   39.4700   29.9680   42.9830 H   0  0  0  0  0  0  0  0  0  0  0  0
   37.7550   30.0180   43.6830 H   0  0  0  0  0  0  0  0  0  0  0  0
   39.2440   27.5010   42.7470 H   0  0  0  0  0  0  0  0  0  0  0  0
   39.0840   28.1340   44.4770 H   0  0  0  0  0  0  0  0  0  0  0  0
   37.3410   26.4170   43.8740 H   0  0  0  0  0  0  0  0  0  0  0  0
   36.7530   28.0150   44.4690 H   0  0  0  0  0  0  0  0  0  0  0  0
   36.2040   26.6520   41.9410 H   0  0  0  0  0  0  0  0  0  0  0  0
   35.5520   28.1690   42.5440 H   0  0  0  0  0  0  0  0  0  0  0  0
   38.0510   27.5450   40.8970 H   0  0  0  0  0  0  0  0  0  0  0  0
   38.1180   27.2040   38.3180 Br  0  0  0  0  0  0  0  0  0  0  0  0
   36.4690   27.9860   38.8290 C   0  0  0  0  0  0  0  0  0  0  0  0
   36.3010   28.4110   40.1260 C   0  0  0  0  0  0  0  0  0  0  0  0
   35.0500   29.0190   40.3510 C   0  0  0  0  0  0  0  0  0  0  0  0
   34.8580   29.3790   41.3620 H   0  0  0  0  0  0  0  0  0  0  0  0
   34.0630   29.1960   39.4170 C   0  0  0  0  0  0  0  0  0  0  0  0
   33.1410   29.6790   39.7110 H   0  0  0  0  0  0  0  0  0  0  0  0
   34.3170   28.7390   38.1480 C   0  0  0  0  0  3  0  0  0  0  0  0
   35.5170   28.1330   37.8460 C   0  0  0  0  0  3  0  0  0  0  0  0
   39.4550   31.5320   38.9470 C   0  0  0  0  0  0  0  0  0  0  0  0
   39.2610   30.4750   39.8330 C   0  0  0  0  0  0  0  0  0  0  0  0
   38.2370   30.5290   40.7610 C   0  0  0  0  0  0  0  0  0  0  0  0
   37.4550   31.6350   40.7660 N   0  0  0  0  0  0  0  0  0  0  0  0
   37.6440   32.6600   39.9110 C   0  0  0  0  0  0  0  0  0  0  0  0
   38.6450   32.6100   38.9970 N   0  0  0  0  0  0  0  0  0  0  0  0
   39.9750   29.6950   39.7390 H   0  0  0  0  0  0  0  0  0  0  0  0
   36.9990   33.5280   39.9470 H   0  0  0  0  0  0  0  0  0  0  0  0
   40.5490   31.4030   37.9300 C   0  0  0  0  0  0  0  0  0  0  0  0
   41.8040   31.6060   38.5000 F   0  0  0  0  0  0  0  0  0  0  0  0
   40.4410   30.1450   37.3740 F   0  0  0  0  0  0  0  0  0  0  0  0
   40.3560   32.3350   36.9190 F   0  0  0  0  0  0  0  0  0  0  0  0
  1  2  1  0  0  0  0
  2  3  1  0  0  0  0
  2  8  1  0  0  0  0
  3  4  1  0  0  0  0
  3 10  1  0  0  0  0
  4 11  1  0  0  0  0
  4 12  1  0  0  0  0
  5 14  1  0  0  0  0
  5  4  1  0  0  0  0
  6 15  1  6  0  0  0
  6  1  1  0  0  0  0
  6  5  1  0  0  0  0
  7  2  1  0  0  0  0
  9  3  1  0  0  0  0
 13  5  1  0  0  0  0
 16 17  1  0  0  0  0
 17 18  1  0  0  0  0
 18 19  2  0  0  0  0
 18  6  1  0  0  0  0
 19 20  1  0  0  0  0
 21 22  1  0  0  0  0
 21 19  1  0  0  0  0
 23 21  2  0  0  0  0
 24 23  1  0  0  0  0
 24 17  2  0  0  0  0
 25 30  2  0  0  0  0
 25 26  1  0  0  0  0
 26 27  2  0  0  0  0
 27 28  1  0  0  0  0
 27  1  1  0  0  0  0
 29 32  1  0  0  0  0
 29 28  2  0  0  0  0
 30 29  1  0  0  0  0
 31 26  1  0  0  0  0
 33 34  1  0  0  0  0
 33 25  1  0  0  0  0
 35 33  1  0  0  0  0
 36 33  1  0  0  0  0
M  END
>  <minimizedAffinity>
-5.69337177

$$$$

 OpenBabel03252503543D

 36 38  0  0  1  0  0  0  0  0999 V2000
   38.4050   30.3000   39.9570 N   0  0  0  0  0  0  0  0  0  0  0  0
   39.4220   31.1590   40.5760 C   0  0  0  0  0  0  0  0  0  0  0  0
   38.7070   32.4550   40.9560 C   0  0  0  0  0  0  0  0  0  0  0  0
   38.4090   33.1800   39.6690 C   0  0  0  0  0  0  0  0  0  0  0  0
   37.6250   32.2640   38.7810 C   0  0  0  0  0  0  0  0  0  0  0  0
   37.3060   30.9370   39.3600 C   0  0  1  0  0  0  0  0  0  0  0  0
   39.7190   30.6580   41.5170 H   0  0  0  0  0  0  0  0  0  0  0  0
   40.2500   31.3940   39.9020 H   0  0  0  0  0  0  0  0  0  0  0  0
   37.7950   32.2350   41.5420 H   0  0  0  0  0  0  0  0  0  0  0  0
   39.4590   33.0400   41.5170 H   0  0  0  0  0  0  0  0  0  0  0  0
   37.8170   34.0880   39.9180 H   0  0  0  0  0  0  0  0  0  0  0  0
   39.3750   33.4950   39.2290 H   0  0  0  0  0  0  0  0  0  0  0  0
   36.6330   32.7490   38.5430 H   0  0  0  0  0  0  0  0  0  0  0  0
   38.1390   32.2300   37.8010 H   0  0  0  0  0  0  0  0  0  0  0  0
   36.5330   31.0980   40.1430 H   0  0  0  0  0  0  0  0  0  0  0  0
   34.6990   29.1690   40.0200 Br  0  0  0  0  0  0  0  0  0  0  0  0
   35.4860   29.4610   38.3200 C   0  0  0  0  0  0  0  0  0  0  0  0
   36.6150   30.2400   38.2290 C   0  0  0  0  0  0  0  0  0  0  0  0
   37.1200   30.3280   36.9170 C   0  0  0  0  0  0  0  0  0  0  0  0
   38.0180   30.9320   36.7800 H   0  0  0  0  0  0  0  0  0  0  0  0
   36.5870   29.7250   35.8080 C   0  0  0  0  0  0  0  0  0  0  0  0
   37.0680   29.8670   34.8490 H   0  0  0  0  0  0  0  0  0  0  0  0
   35.4570   28.9670   35.9930 C   0  0  0  0  0  3  0  0  0  0  0  0
   34.9000   28.8300   37.2460 C   0  0  0  0  0  3  0  0  0  0  0  0
   38.1070   26.7510   40.9380 C   0  0  0  0  0  0  0  0  0  0  0  0
   37.9790   28.1390   40.9660 C   0  0  0  0  0  0  0  0  0  0  0  0
   38.5650   28.9060   39.9760 C   0  0  0  0  0  0  0  0  0  0  0  0
   39.2540   28.2590   39.0060 N   0  0  0  0  0  0  0  0  0  0  0  0
   39.3800   26.9160   38.9800 C   0  0  0  0  0  0  0  0  0  0  0  0
   38.8040   26.1590   39.9470 N   0  0  0  0  0  0  0  0  0  0  0  0
   37.4470   28.5070   41.8070 H   0  0  0  0  0  0  0  0  0  0  0  0
   39.9390   26.4350   38.1890 H   0  0  0  0  0  0  0  0  0  0  0  0
   37.4120   25.9620   42.0080 C   0  0  0  0  0  0  0  0  0  0  0  0
   36.5840   26.7710   42.7830 F   0  0  0  0  0  0  0  0  0  0  0  0
   36.7010   24.9620   41.3790 F   0  0  0  0  0  0  0  0  0  0  0  0
   38.3570   25.3640   42.8310 F   0  0  0  0  0  0  0  0  0  0  0  0
  1 27  1  0  0  0  0
  1  2  1  0  0  0  0
  2  3  1  0  0  0  0
  2  7  1  0  0  0  0
  3 10  1  0  0  0  0
  3  9  1  0  0  0  0
  4 11  1  0  0  0  0
  4  3  1  0  0  0  0
  5  6  1  0  0  0  0
  5  4  1  0  0  0  0
  6  1  1  0  0  0  0
  6 15  1  1  0  0  0
  8  2  1  0  0  0  0
 12  4  1  0  0  0  0
 13  5  1  0  0  0  0
 14  5  1  0  0  0  0
 17 16  1  0  0  0  0
 18 17  1  0  0  0  0
 18  6  1  0  0  0  0
 19 18  2  0  0  0  0
 20 19  1  0  0  0  0
 21 23  2  0  0  0  0
 21 19  1  0  0  0  0
 22 21  1  0  0  0  0
 23 24  1  0  0  0  0
 24 17  2  0  0  0  0
 25 26  1  0  0  0  0
 25 33  1  0  0  0  0
 26 31  1  0  0  0  0
 27 26  2  0  0  0  0
 28 27  1  0  0  0  0
 29 28  2  0  0  0  0
 29 30  1  0  0  0  0
 30 25  2  0  0  0  0
 32 29  1  0  0  0  0
 33 34  1  0  0  0  0
 33 36  1  0  0  0  0
 35 33  1  0  0  0  0
M  END
>  <minimizedAffinity>
-5.37242413

$$$$

 OpenBabel03252503543D

 36 38  0  0  1  0  0  0  0  0999 V2000
   36.5550   28.5170   39.0300 N   0  0  0  0  0  0  0  0  0  0  0  0
   36.2430   28.2110   37.6280 C   0  0  0  0  0  0  0  0  0  0  0  0
   35.1730   27.1210   37.6590 C   0  0  0  0  0  0  0  0  0  0  0  0
   35.8530   25.8590   38.1230 C   0  0  0  0  0  0  0  0  0  0  0  0
   36.5130   26.1340   39.4390 C   0  0  0  0  0  0  0  0  0  0  0  0
   36.3210   27.5040   39.9720 C   0  0  1  0  0  0  0  0  0  0  0  0
   35.7740   29.1220   37.2100 H   0  0  0  0  0  0  0  0  0  0  0  0
   37.1090   27.8450   37.0690 H   0  0  0  0  0  0  0  0  0  0  0  0
   34.3360   27.4210   38.3180 H   0  0  0  0  0  0  0  0  0  0  0  0
   34.8750   26.9860   36.6030 H   0  0  0  0  0  0  0  0  0  0  0  0
   35.0740   25.0720   38.2300 H   0  0  0  0  0  0  0  0  0  0  0  0
   36.5640   25.5500   37.3330 H   0  0  0  0  0  0  0  0  0  0  0  0
   36.0840   25.4320   40.2150 H   0  0  0  0  0  0  0  0  0  0  0  0
   37.5700   25.8140   39.3550 H   0  0  0  0  0  0  0  0  0  0  0  0
   35.2630   27.5800   40.3070 H   0  0  0  0  0  0  0  0  0  0  0  0
   39.4500   26.7910   39.7170 Br  0  0  0  0  0  0  0  0  0  0  0  0
   38.4990   27.2290   41.2970 C   0  0  0  0  0  0  0  0  0  0  0  0
   37.1530   27.4930   41.2190 C   0  0  0  0  0  0  0  0  0  0  0  0
   36.5660   27.7510   42.4730 C   0  0  0  0  0  0  0  0  0  0  0  0
   35.4970   27.9650   42.4760 H   0  0  0  0  0  0  0  0  0  0  0  0
   37.2160   27.7530   43.6790 C   0  0  0  0  0  0  0  0  0  0  0  0
   36.6550   27.9660   44.5790 H   0  0  0  0  0  0  0  0  0  0  0  0
   38.5620   27.4810   43.6630 C   0  0  0  0  0  3  0  0  0  0  0  0
   39.2110   27.2180   42.4760 C   0  0  0  0  0  3  0  0  0  0  0  0
   38.7180   31.5090   39.1300 C   0  0  0  0  0  0  0  0  0  0  0  0
   38.2520   30.2340   38.8190 C   0  0  0  0  0  0  0  0  0  0  0  0
   37.0690   29.7770   39.3710 C   0  0  0  0  0  0  0  0  0  0  0  0
   36.4070   30.6080   40.2110 N   0  0  0  0  0  0  0  0  0  0  0  0
   36.8600   31.8410   40.5150 C   0  0  0  0  0  0  0  0  0  0  0  0
   38.0170   32.2950   39.9730 N   0  0  0  0  0  0  0  0  0  0  0  0
   38.8950   29.6810   38.1800 H   0  0  0  0  0  0  0  0  0  0  0  0
   36.3040   32.4760   41.1910 H   0  0  0  0  0  0  0  0  0  0  0  0
   39.9810   31.9750   38.4670 C   0  0  0  0  0  0  0  0  0  0  0  0
   41.0350   31.0960   38.7040 F   0  0  0  0  0  0  0  0  0  0  0  0
   39.7120   32.0960   37.1210 F   0  0  0  0  0  0  0  0  0  0  0  0
   40.3220   33.2310   38.9510 F   0  0  0  0  0  0  0  0  0  0  0  0
  1 27  1  0  0  0  0
  1  6  1  0  0  0  0
  2  3  1  0  0  0  0
  2  1  1  0  0  0  0
  3  4  1  0  0  0  0
  3  9  1  0  0  0  0
  4 11  1  0  0  0  0
  4  5  1  0  0  0  0
  5  6  1  0  0  0  0
  5 13  1  0  0  0  0
  6 15  1  1  0  0  0
  6 18  1  0  0  0  0
  7  2  1  0  0  0  0
  8  2  1  0  0  0  0
 10  3  1  0  0  0  0
 12  4  1  0  0  0  0
 14  5  1  0  0  0  0
 16 17  1  0  0  0  0
 17 24  1  0  0  0  0
 18 17  2  0  0  0  0
 18 19  1  0  0  0  0
 19 20  1  0  0  0  0
 19 21  2  0  0  0  0
 21 22  1  0  0  0  0
 23 21  1  0  0  0  0
 24 23  2  0  0  0  0
 25 30  1  0  0  0  0
 26 25  2  0  0  0  0
 26 27  1  0  0  0  0
 27 28  2  0  0  0  0
 28 29  1  0  0  0  0
 29 32  1  0  0  0  0
 30 29  2  0  0  0  0
 31 26  1  0  0  0  0
 33 34  1  0  0  0  0
 33 36  1  0  0  0  0
 33 25  1  0  0  0  0
 35 33  1  0  0  0  0
M  END
>  <minimizedAffinity>
-5.35858297

$$$$

 OpenBabel03252503543D

 36 38  0  0  1  0  0  0  0  0999 V2000
   40.9280   29.0350   41.1590 N   0  0  0  0  0  0  0  0  0  0  0  0
   42.2140   29.7210   41.3400 C   0  0  0  0  0  0  0  0  0  0  0  0
   43.1960   28.6590   41.8310 C   0  0  0  0  0  0  0  0  0  0  0  0
   42.8040   28.3250   43.2470 C   0  0  0  0  0  0  0  0  0  0  0  0
   41.3660   27.9060   43.2530 C   0  0  0  0  0  0  0  0  0  0  0  0
   40.7060   27.8800   41.9250 C   0  0  1  0  0  0  0  0  0  0  0  0
   42.5430   30.0340   40.3310 H   0  0  0  0  0  0  0  0  0  0  0  0
   42.1660   30.5290   42.0760 H   0  0  0  0  0  0  0  0  0  0  0  0
   43.1760   27.7760   41.1640 H   0  0  0  0  0  0  0  0  0  0  0  0
   44.1780   29.1690   41.8550 H   0  0  0  0  0  0  0  0  0  0  0  0
   43.4570   27.4950   43.5950 H   0  0  0  0  0  0  0  0  0  0  0  0
   43.0020   29.2190   43.8700 H   0  0  0  0  0  0  0  0  0  0  0  0
   41.2950   26.8540   43.6590 H   0  0  0  0  0  0  0  0  0  0  0  0
   40.8440   28.5150   44.0170 H   0  0  0  0  0  0  0  0  0  0  0  0
   41.1220   27.0110   41.3690 H   0  0  0  0  0  0  0  0  0  0  0  0
   39.2610   25.5770   40.2030 Br  0  0  0  0  0  0  0  0  0  0  0  0
   38.5280   26.5550   41.6520 C   0  0  0  0  0  0  0  0  0  0  0  0
   39.2930   27.5190   42.2650 C   0  0  0  0  0  0  0  0  0  0  0  0
   38.6050   28.2020   43.2880 C   0  0  0  0  0  0  0  0  0  0  0  0
   39.1600   28.9810   43.8120 H   0  0  0  0  0  0  0  0  0  0  0  0
   37.3120   27.9730   43.6780 C   0  0  0  0  0  0  0  0  0  0  0  0
   36.8910   28.5650   44.4800 H   0  0  0  0  0  0  0  0  0  0  0  0
   36.6240   26.9900   43.0110 C   0  0  0  0  0  3  0  0  0  0  0  0
   37.2250   26.2770   41.9970 C   0  0  0  0  0  3  0  0  0  0  0  0
   38.2380   31.0970   39.6930 C   0  0  0  0  0  0  0  0  0  0  0  0
   39.1300   30.5670   40.6230 C   0  0  0  0  0  0  0  0  0  0  0  0
   39.9870   29.5460   40.2540 C   0  0  0  0  0  0  0  0  0  0  0  0
   39.9130   29.0970   38.9790 N   0  0  0  0  0  0  0  0  0  0  0  0
   39.0480   29.6070   38.0790 C   0  0  0  0  0  0  0  0  0  0  0  0
   38.2090   30.6110   38.4350 N   0  0  0  0  0  0  0  0  0  0  0  0
   39.0460   30.9900   41.5930 H   0  0  0  0  0  0  0  0  0  0  0  0
   39.0180   29.2210   37.0690 H   0  0  0  0  0  0  0  0  0  0  0  0
   37.3640   32.2360   40.1300 C   0  0  0  0  0  0  0  0  0  0  0  0
   36.3080   31.7930   40.9230 F   0  0  0  0  0  0  0  0  0  0  0  0
   38.1680   33.1290   40.8050 F   0  0  0  0  0  0  0  0  0  0  0  0
   36.8500   32.8810   39.0130 F   0  0  0  0  0  0  0  0  0  0  0  0
  1  2  1  0  0  0  0
  1  6  1  0  0  0  0
  2  3  1  0  0  0  0
  2  8  1  0  0  0  0
  3 10  1  0  0  0  0
  3  4  1  0  0  0  0
  4  5  1  0  0  0  0
  4 11  1  0  0  0  0
  4 12  1  0  0  0  0
  5 13  1  0  0  0  0
  5 14  1  0  0  0  0
  6 15  1  6  0  0  0
  6 18  1  0  0  0  0
  6  5  1  0  0  0  0
  7  2  1  0  0  0  0
  9  3  1  0  0  0  0
 16 17  1  0  0  0  0
 17 24  2  0  0  0  0
 17 18  1  0  0  0  0
 18 19  2  0  0  0  0
 19 21  1  0  0  0  0
 19 20  1  0  0  0  0
 21 22  1  0  0  0  0
 23 21  2  0  0  0  0
 24 23  1  0  0  0  0
 25 33  1  0  0  0  0
 25 26  1  0  0  0  0
 26 31  1  0  0  0  0
 27 26  2  0  0  0  0
 27  1  1  0  0  0  0
 28 27  1  0  0  0  0
 29 30  1  0  0  0  0
 29 28  2  0  0  0  0
 30 25  2  0  0  0  0
 32 29  1  0  0  0  0
 33 35  1  0  0  0  0
 33 34  1  0  0  0  0
 36 33  1  0  0  0  0
M  END
>  <minimizedAffinity>
-5.31798124

$$$$

 OpenBabel03252503543D

 36 38  0  0  1  0  0  0  0  0999 V2000
   38.0090   29.4780   41.4900 N   0  0  0  0  0  0  0  0  0  0  0  0
   37.7080   29.2700   42.9120 C   0  0  0  0  0  0  0  0  0  0  0  0
   38.0550   27.8120   43.2100 C   0  0  0  0  0  0  0  0  0  0  0  0
   37.0080   26.9680   42.5290 C   0  0  0  0  0  0  0  0  0  0  0  0
   36.9840   27.3270   41.0750 C   0  0  0  0  0  0  0  0  0  0  0  0
   37.9720   28.3490   40.6570 C   0  0  1  0  0  0  0  0  0  0  0  0
   38.4210   29.9010   43.4750 H   0  0  0  0  0  0  0  0  0  0  0  0
   36.6550   29.4420   43.1540 H   0  0  0  0  0  0  0  0  0  0  0  0
   39.0800   27.5800   42.8630 H   0  0  0  0  0  0  0  0  0  0  0  0
   37.9270   27.7070   44.3040 H   0  0  0  0  0  0  0  0  0  0  0  0
   37.2880   25.9010   42.6660 H   0  0  0  0  0  0  0  0  0  0  0  0
   36.0440   27.1510   43.0410 H   0  0  0  0  0  0  0  0  0  0  0  0
   37.2130   26.4020   40.4690 H   0  0  0  0  0  0  0  0  0  0  0  0
   35.9350   27.5600   40.8080 H   0  0  0  0  0  0  0  0  0  0  0  0
   38.9750   27.8670   40.6840 H   0  0  0  0  0  0  0  0  0  0  0  0
   34.9570   29.1500   39.8650 Br  0  0  0  0  0  0  0  0  0  0  0  0
   36.4250   28.9090   38.6910 C   0  0  0  0  0  0  0  0  0  0  0  0
   37.6460   28.5510   39.2080 C   0  0  0  0  0  0  0  0  0  0  0  0
   38.6300   28.3550   38.2190 C   0  0  0  0  0  0  0  0  0  0  0  0
   39.6220   28.0660   38.5680 H   0  0  0  0  0  0  0  0  0  0  0  0
   38.4490   28.4920   36.8680 C   0  0  0  0  0  0  0  0  0  0  0  0
   39.2840   28.3140   36.2040 H   0  0  0  0  0  0  0  0  0  0  0  0
   37.1960   28.8550   36.4400 C   0  0  0  0  0  3  0  0  0  0  0  0
   36.1780   29.0650   37.3450 C   0  0  0  0  0  3  0  0  0  0  0  0
   39.8950   32.4270   40.3120 C   0  0  0  0  0  0  0  0  0  0  0  0
   39.6200   31.1620   40.8260 C   0  0  0  0  0  0  0  0  0  0  0  0
   38.3090   30.7660   41.0220 C   0  0  0  0  0  0  0  0  0  0  0  0
   37.3330   31.6480   40.7020 N   0  0  0  0  0  0  0  0  0  0  0  0
   37.5990   32.8740   40.2060 C   0  0  0  0  0  0  0  0  0  0  0  0
   38.8830   33.2650   40.0090 N   0  0  0  0  0  0  0  0  0  0  0  0
   40.4840   30.5960   41.0690 H   0  0  0  0  0  0  0  0  0  0  0  0
   36.7920   33.5520   39.9630 H   0  0  0  0  0  0  0  0  0  0  0  0
   41.3310   32.7890   40.0730 C   0  0  0  0  0  0  0  0  0  0  0  0
   42.0330   31.7360   39.4910 F   0  0  0  0  0  0  0  0  0  0  0  0
   41.3400   33.9110   39.2720 F   0  0  0  0  0  0  0  0  0  0  0  0
   41.9330   33.1200   41.2800 F   0  0  0  0  0  0  0  0  0  0  0  0
  1  2  1  0  0  0  0
  2  8  1  0  0  0  0
  2  3  1  0  0  0  0
  2  7  1  0  0  0  0
  3 10  1  0  0  0  0
  4 11  1  0  0  0  0
  4 12  1  0  0  0  0
  4  3  1  0  0  0  0
  5  4  1  0  0  0  0
  6 15  1  1  0  0  0
  6  5  1  0  0  0  0
  6  1  1  0  0  0  0
  9  3  1  0  0  0  0
 13  5  1  0  0  0  0
 14  5  1  0  0  0  0
 17 18  1  0  0  0  0
 17 16  1  0  0  0  0
 18  6  1  0  0  0  0
 19 20  1  0  0  0  0
 19 18  2  0  0  0  0
 21 19  1  0  0  0  0
 22 21  1  0  0  0  0
 23 21  2  0  0  0  0
 23 24  1  0  0  0  0
 24 17  2  0  0  0  0
 25 26  1  0  0  0  0
 26 27  2  0  0  0  0
 26 31  1  0  0  0  0
 27  1  1  0  0  0  0
 28 27  1  0  0  0  0
 29 28  2  0  0  0  0
 30 29  1  0  0  0  0
 30 25  2  0  0  0  0
 32 29  1  0  0  0  0
 33 25  1  0  0  0  0
 33 36  1  0  0  0  0
 34 33  1  0  0  0  0
 35 33  1  0  0  0  0
M  END
>  <minimizedAffinity>
-5.31743574

$$$$

 OpenBabel03252503543D

 36 38  0  0  1  0  0  0  0  0999 V2000
   38.7350   28.4120   41.2010 N   0  0  0  0  0  0  0  0  0  0  0  0
   39.2960   28.7290   42.5210 C   0  0  0  0  0  0  0  0  0  0  0  0
   38.8110   27.6300   43.4630 C   0  0  0  0  0  0  0  0  0  0  0  0
   37.3360   27.8580   43.6740 C   0  0  0  0  0  0  0  0  0  0  0  0
   36.6660   27.8820   42.3350 C   0  0  0  0  0  0  0  0  0  0  0  0
   37.5570   27.6500   41.1730 C   0  0  1  0  0  0  0  0  0  0  0  0
   40.3930   28.6220   42.4240 H   0  0  0  0  0  0  0  0  0  0  0  0
   38.9640   29.6990   42.9030 H   0  0  0  0  0  0  0  0  0  0  0  0
   39.0310   26.6320   43.0390 H   0  0  0  0  0  0  0  0  0  0  0  0
   39.3310   27.8250   44.4190 H   0  0  0  0  0  0  0  0  0  0  0  0
   36.9470   27.0200   44.2930 H   0  0  0  0  0  0  0  0  0  0  0  0
   37.2190   28.8020   44.2400 H   0  0  0  0  0  0  0  0  0  0  0  0
   35.8880   27.0630   42.3020 H   0  0  0  0  0  0  0  0  0  0  0  0
   36.0670   28.8120   42.2800 H   0  0  0  0  0  0  0  0  0  0  0  0
   37.8410   26.5740   41.1880 H   0  0  0  0  0  0  0  0  0  0  0  0
   36.0330   30.4640   40.8310 Br  0  0  0  0  0  0  0  0  0  0  0  0
   35.9160   28.9510   39.6950 C   0  0  0  0  0  0  0  0  0  0  0  0
   36.6330   27.8210   40.0070 C   0  0  0  0  0  0  0  0  0  0  0  0
   36.4100   26.7590   39.1080 C   0  0  0  0  0  0  0  0  0  0  0  0
   36.9500   25.8330   39.3050 H   0  0  0  0  0  0  0  0  0  0  0  0
   35.5790   26.7900   38.0190 C   0  0  0  0  0  0  0  0  0  0  0  0
   35.4900   25.9070   37.4000 H   0  0  0  0  0  0  0  0  0  0  0  0
   34.9030   27.9610   37.7830 C   0  0  0  0  0  3  0  0  0  0  0  0
   35.0660   29.0470   38.6160 C   0  0  0  0  0  3  0  0  0  0  0  0
   40.1700   30.6700   38.6550 C   0  0  0  0  0  0  0  0  0  0  0  0
   39.4840   30.2300   39.7850 C   0  0  0  0  0  0  0  0  0  0  0  0
   39.3750   28.8750   40.0420 C   0  0  0  0  0  0  0  0  0  0  0  0
   39.9490   28.0220   39.1610 N   0  0  0  0  0  0  0  0  0  0  0  0
   40.6110   28.4480   38.0660 C   0  0  0  0  0  0  0  0  0  0  0  0
   40.7230   29.7750   37.8110 N   0  0  0  0  0  0  0  0  0  0  0  0
   39.0520   31.0100   40.3610 H   0  0  0  0  0  0  0  0  0  0  0  0
   41.0550   27.7360   37.3840 H   0  0  0  0  0  0  0  0  0  0  0  0
   40.3010   32.1510   38.4470 C   0  0  0  0  0  0  0  0  0  0  0  0
   39.1850   32.8340   38.9260 F   0  0  0  0  0  0  0  0  0  0  0  0
   41.4550   32.5500   39.0860 F   0  0  0  0  0  0  0  0  0  0  0  0
   40.4470   32.4180   37.0920 F   0  0  0  0  0  0  0  0  0  0  0  0
  1  2  1  0  0  0  0
  2  8  1  0  0  0  0
  2  3  1  0  0  0  0
  3  4  1  0  0  0  0
  3 10  1  0  0  0  0
  4 12  1  0  0  0  0
  4 11  1  0  0  0  0
  5  4  1  0  0  0  0
  6 15  1  1  0  0  0
  6  1  1  0  0  0  0
  6  5  1  0  0  0  0
  7  2  1  0  0  0  0
  9  3  1  0  0  0  0
 13  5  1  0  0  0  0
 14  5  1  0  0  0  0
 17 18  1  0  0  0  0
 17 16  1  0  0  0  0
 18  6  1  0  0  0  0
 19 20  1  0  0  0  0
 19 18  2  0  0  0  0
 21 19  1  0  0  0  0
 22 21  1  0  0  0  0
 23 21  2  0  0  0  0
 23 24  1  0  0  0  0
 24 17  2  0  0  0  0
 25 26  1  0  0  0  0
 26 27  2  0  0  0  0
 26 31  1  0  0  0  0
 27  1  1  0  0  0  0
 28 27  1  0  0  0  0
 29 28  2  0  0  0  0
 30 29  1  0  0  0  0
 30 25  2  0  0  0  0
 32 29  1  0  0  0  0
 33 25  1  0  0  0  0
 33 34  1  0  0  0  0
 33 35  1  0  0  0  0
 36 33  1  0  0  0  0
M  END
>  <minimizedAffinity>
-5.30519819

$$$$

 OpenBabel03252503543D

 36 38  0  0  1  0  0  0  0  0999 V2000
   37.3010   26.4300   39.4620 N   0  0  0  0  0  0  0  0  0  0  0  0
   36.6820   25.8650   38.2560 C   0  0  0  0  0  0  0  0  0  0  0  0
   35.6390   24.8610   38.7460 C   0  0  0  0  0  0  0  0  0  0  0  0
   36.3960   23.6850   39.3040 C   0  0  0  0  0  0  0  0  0  0  0  0
   37.3350   24.1840   40.3580 C   0  0  0  0  0  0  0  0  0  0  0  0
   37.2770   25.6420   40.6230 C   0  0  1  0  0  0  0  0  0  0  0  0
   36.1380   26.6960   37.7690 H   0  0  0  0  0  0  0  0  0  0  0  0
   37.3980   25.3480   37.6110 H   0  0  0  0  0  0  0  0  0  0  0  0
   34.9710   25.3320   39.4930 H   0  0  0  0  0  0  0  0  0  0  0  0
   35.1110   24.5310   37.8310 H   0  0  0  0  0  0  0  0  0  0  0  0
   35.6560   22.9780   39.7390 H   0  0  0  0  0  0  0  0  0  0  0  0
   36.9110   23.1850   38.4600 H   0  0  0  0  0  0  0  0  0  0  0  0
   37.0850   23.6770   41.3370 H   0  0  0  0  0  0  0  0  0  0  0  0
   38.3440   23.7980   40.1160 H   0  0  0  0  0  0  0  0  0  0  0  0
   36.3200   25.8400   41.1560 H   0  0  0  0  0  0  0  0  0  0  0  0
   36.6610   27.4770   43.1940 Br  0  0  0  0  0  0  0  0  0  0  0  0
   38.2770   26.5710   42.7930 C   0  0  0  0  0  0  0  0  0  0  0  0
   38.3650   25.8390   41.6330 C   0  0  0  0  0  0  0  0  0  0  0  0
   39.6360   25.2640   41.4380 C   0  0  0  0  0  0  0  0  0  0  0  0
   39.7690   24.6710   40.5320 H   0  0  0  0  0  0  0  0  0  0  0  0
   40.7110   25.3860   42.2790 C   0  0  0  0  0  0  0  0  0  0  0  0
   41.6410   24.8970   42.0200 H   0  0  0  0  0  0  0  0  0  0  0  0
   40.5320   26.1360   43.4150 C   0  0  0  0  0  3  0  0  0  0  0  0
   39.3180   26.7310   43.6790 C   0  0  0  0  0  3  0  0  0  0  0  0
   37.8050   30.0710   39.8220 C   0  0  0  0  0  0  0  0  0  0  0  0
   37.1880   28.8220   39.8300 C   0  0  0  0  0  0  0  0  0  0  0  0
   37.8860   27.7030   39.4130 C   0  0  0  0  0  0  0  0  0  0  0  0
   39.1650   27.8800   39.0040 N   0  0  0  0  0  0  0  0  0  0  0  0
   39.7630   29.0890   38.9940 C   0  0  0  0  0  0  0  0  0  0  0  0
   39.0830   30.1880   39.4050 N   0  0  0  0  0  0  0  0  0  0  0  0
   36.1720   28.8430   40.1370 H   0  0  0  0  0  0  0  0  0  0  0  0
   40.7860   29.1910   38.6590 H   0  0  0  0  0  0  0  0  0  0  0  0
   37.0200   31.2440   40.3300 C   0  0  0  0  0  0  0  0  0  0  0  0
   35.9240   30.8350   41.0860 F   0  0  0  0  0  0  0  0  0  0  0  0
   37.8850   32.0240   41.0670 F   0  0  0  0  0  0  0  0  0  0  0  0
   36.5700   32.0010   39.2550 F   0  0  0  0  0  0  0  0  0  0  0  0
  1  6  1  0  0  0  0
  2  3  1  0  0  0  0
  2  1  1  0  0  0  0
  3  4  1  0  0  0  0
  3  9  1  0  0  0  0
  4 11  1  0  0  0  0
  4  5  1  0  0  0  0
  5  6  1  0  0  0  0
  5 13  1  0  0  0  0
  6 15  1  1  0  0  0
  6 18  1  0  0  0  0
  7  2  1  0  0  0  0
  8  2  1  0  0  0  0
 10  3  1  0  0  0  0
 12  4  1  0  0  0  0
 14  5  1  0  0  0  0
 17 16  1  0  0  0  0
 17 24  1  0  0  0  0
 18 17  2  0  0  0  0
 19 18  1  0  0  0  0
 19 21  2  0  0  0  0
 20 19  1  0  0  0  0
 21 23  1  0  0  0  0
 22 21  1  0  0  0  0
 23 24  2  0  0  0  0
 25 26  1  0  0  0  0
 25 33  1  0  0  0  0
 26 31  1  0  0  0  0
 27  1  1  0  0  0  0
 27 26  2  0  0  0  0
 28 27  1  0  0  0  0
 29 28  2  0  0  0  0
 29 30  1  0  0  0  0
 30 25  2  0  0  0  0
 32 29  1  0  0  0  0
 33 35  1  0  0  0  0
 33 34  1  0  0  0  0
 36 33  1  0  0  0  0
M  END
>  <minimizedAffinity>
-5.28761625

$$$$

 OpenBabel03252503543D

 36 38  0  0  1  0  0  0  0  0999 V2000
   37.7520   30.5350   40.9420 N   0  0  0  0  0  0  0  0  0  0  0  0
   36.5940   31.4000   40.6790 C   0  0  0  0  0  0  0  0  0  0  0  0
   36.9490   32.2170   39.4380 C   0  0  0  0  0  0  0  0  0  0  0  0
   38.0060   33.2060   39.8560 C   0  0  0  0  0  0  0  0  0  0  0  0
   39.1480   32.4500   40.4620 C   0  0  0  0  0  0  0  0  0  0  0  0
   38.9990   30.9750   40.4730 C   0  0  1  0  0  0  0  0  0  0  0  0
   35.7610   30.7270   40.4040 H   0  0  0  0  0  0  0  0  0  0  0  0
   36.3770   32.0830   41.5050 H   0  0  0  0  0  0  0  0  0  0  0  0
   37.2880   31.5520   38.6210 H   0  0  0  0  0  0  0  0  0  0  0  0
   36.0280   32.7780   39.1940 H   0  0  0  0  0  0  0  0  0  0  0  0
   38.3360   33.7570   38.9480 H   0  0  0  0  0  0  0  0  0  0  0  0
   37.5370   33.9240   40.5560 H   0  0  0  0  0  0  0  0  0  0  0  0
   40.0840   32.6660   39.8660 H   0  0  0  0  0  0  0  0  0  0  0  0
   39.3600   32.9010   41.4510 H   0  0  0  0  0  0  0  0  0  0  0  0
   39.1170   30.6250   39.4230 H   0  0  0  0  0  0  0  0  0  0  0  0
   40.6330   28.4610   39.3030 Br  0  0  0  0  0  0  0  0  0  0  0  0
   41.0530   29.4860   40.8410 C   0  0  0  0  0  0  0  0  0  0  0  0
   40.2270   30.5230   41.2020 C   0  0  0  0  0  0  0  0  0  0  0  0
   40.6300   31.1620   42.3910 C   0  0  0  0  0  0  0  0  0  0  0  0
   40.0120   31.9940   42.7310 H   0  0  0  0  0  0  0  0  0  0  0  0
   41.7200   30.8310   43.1520 C   0  0  0  0  0  0  0  0  0  0  0  0
   41.9280   31.3980   44.0500 H   0  0  0  0  0  0  0  0  0  0  0  0
   42.4900   29.7820   42.7150 C   0  0  0  0  0  3  0  0  0  0  0  0
   42.1630   29.1040   41.5600 C   0  0  0  0  0  3  0  0  0  0  0  0
   37.2510   26.9500   41.6750 C   0  0  0  0  0  0  0  0  0  0  0  0
   37.3690   28.1420   40.9640 C   0  0  0  0  0  0  0  0  0  0  0  0
   37.5770   29.3310   41.6400 C   0  0  0  0  0  0  0  0  0  0  0  0
   37.6530   29.2790   42.9910 N   0  0  0  0  0  0  0  0  0  0  0  0
   37.5360   28.1250   43.6790 C   0  0  0  0  0  0  0  0  0  0  0  0
   37.3350   26.9560   43.0210 N   0  0  0  0  0  0  0  0  0  0  0  0
   37.2480   28.0350   39.9150 H   0  0  0  0  0  0  0  0  0  0  0  0
   37.6000   28.1230   44.7590 H   0  0  0  0  0  0  0  0  0  0  0  0
   37.0740   25.6820   40.8920 C   0  0  0  0  0  0  0  0  0  0  0  0
   36.2000   25.8610   39.8220 F   0  0  0  0  0  0  0  0  0  0  0  0
   38.3250   25.2900   40.4660 F   0  0  0  0  0  0  0  0  0  0  0  0
   36.5740   24.6890   41.7240 F   0  0  0  0  0  0  0  0  0  0  0  0
  1 27  1  0  0  0  0
  2  1  1  0  0  0  0
  2  8  1  0  0  0  0
  3  4  1  0  0  0  0
  3  2  1  0  0  0  0
  4  5  1  0  0  0  0
  4 12  1  0  0  0  0
  5  6  1  0  0  0  0
  5 14  1  0  0  0  0
  6 15  1  6  0  0  0
  6  1  1  0  0  0  0
  6 18  1  0  0  0  0
  7  2  1  0  0  0  0
  9  3  1  0  0  0  0
 10  3  1  0  0  0  0
 11  4  1  0  0  0  0
 13  5  1  0  0  0  0
 16 17  1  0  0  0  0
 17 18  2  0  0  0  0
 17 24  1  0  0  0  0
 18 19  1  0  0  0  0
 19 20  1  0  0  0  0
 19 21  2  0  0  0  0
 21 22  1  0  0  0  0
 23 21  1  0  0  0  0
 24 23  2  0  0  0  0
 25 30  1  0  0  0  0
 26 27  1  0  0  0  0
 26 25  2  0  0  0  0
 27 28  2  0  0  0  0
 28 29  1  0  0  0  0
 29 32  1  0  0  0  0
 30 29  2  0  0  0  0
 31 26  1  0  0  0  0
 33 25  1  0  0  0  0
 33 36  1  0  0  0  0
 34 33  1  0  0  0  0
 35 33  1  0  0  0  0
M  END
>  <minimizedAffinity>
-5.28635216

$$$$
