
 OpenBabel03242514443D

 21 22  0  0  0  0  0  0  0  0999 V2000
   45.3950   35.0900   44.0000 C   0  0  0  0  0  0  0  0  0  0  0  0
   46.4350   34.2730   43.5620 C   0  0  0  0  0  0  0  0  0  0  0  0
   46.9270   33.2930   44.4300 C   0  0  0  0  0  0  0  0  0  0  0  0
   46.3690   33.1860   45.6510 N   0  0  0  0  0  0  0  0  0  0  0  0
   45.3460   34.0020   46.0530 C   0  0  0  0  0  0  0  0  0  0  0  0
   44.8600   34.9600   45.2160 N   0  0  0  0  0  0  0  0  0  0  0  0
   47.7330   32.6650   44.0840 H   0  0  0  0  0  0  0  0  0  0  0  0
   44.9230   33.8860   47.0390 H   0  0  0  0  0  0  0  0  0  0  0  0
   45.0730   32.6600   41.2730 Br  0  0  0  0  0  0  0  0  0  0  0  0
   46.5980   33.7890   41.0850 C   0  0  0  0  0  0  0  0  0  0  0  0
   47.0300   34.4040   42.2350 C   0  0  0  0  0  0  0  0  0  0  0  0
   48.1340   35.2540   42.2350 C   0  0  0  0  0  0  0  0  0  0  0  0
   48.5250   35.7710   43.1110 H   0  0  0  0  0  0  0  0  0  0  0  0
   48.8130   35.4810   41.0420 C   0  0  0  0  0  0  0  0  0  0  0  0
   49.6800   36.1290   40.9620 H   0  0  0  0  0  0  0  0  0  0  0  0
   48.3730   34.8650   39.9140 C   0  0  0  0  0  0  0  0  0  0  0  0
   47.2800   34.0160   39.8860 C   0  0  0  0  0  0  0  0  0  0  0  0
   44.8910   36.1270   43.0500 C   0  0  0  0  0  0  0  0  0  0  0  0
   43.9200   35.7590   42.6080 H   0  0  0  0  0  0  0  0  0  0  0  0
   45.5640   36.2470   42.1940 H   0  0  0  0  0  0  0  0  0  0  0  0
   44.7100   37.0870   43.5940 H   0  0  0  0  0  0  0  0  0  0  0  0
  1  6  1  0  0  0  0
  2  1  2  0  0  0  0
  2  3  1  0  0  0  0
  3  4  2  0  0  0  0
  4  5  1  0  0  0  0
  5  8  1  0  0  0  0
  6  5  2  0  0  0  0
  7  3  1  0  0  0  0
 10  9  1  0  0  0  0
 10 11  1  0  0  0  0
 11 12  2  0  0  0  0
 11  2  1  0  0  0  0
 12 13  1  0  0  0  0
 14 12  1  0  0  0  0
 15 14  1  0  0  0  0
 16 14  2  0  0  0  0
 17 16  1  0  0  0  0
 17 10  2  0  0  0  0
 18 21  1  0  0  0  0
 18  1  1  0  0  0  0
 19 18  1  0  0  0  0
 20 18  1  0  0  0  0
M  END
>  <minimizedAffinity>
-5.0182476

>  <minimizedRMSD>
0.495460987

$$$$
