
 OpenBabel03252502533D

 31 33  0  0  0  0  0  0  0  0999 V2000
   46.8960   31.3610   42.5030 Br  0  0  0  0  0  0  0  0  0  0  0  0
   48.8050   31.0700   42.5810 C   0  0  0  0  0  0  0  0  0  0  0  0
   49.2480   30.2490   43.5950 C   0  0  0  0  0  0  0  0  0  0  0  0
   50.6400   30.0610   43.6180 C   0  0  0  0  0  0  0  0  0  0  0  0
   51.4920   30.6480   42.7050 C   0  0  0  0  0  0  0  0  0  0  0  0
   50.9770   31.4500   41.7280 C   0  0  0  0  0  0  0  0  0  0  0  0
   49.6030   31.6800   41.6460 C   0  0  0  0  0  0  0  0  0  0  0  0
   51.0950   29.4360   44.3740 H   0  0  0  0  0  0  0  0  0  0  0  0
   52.5580   30.4670   42.7730 H   0  0  0  0  0  0  0  0  0  0  0  0
   51.6170   31.9280   40.9920 H   0  0  0  0  0  0  0  0  0  0  0  0
   49.3920   34.5260   42.6620 Br  0  0  0  0  0  0  0  0  0  0  0  0
   48.8930   33.8700   40.9200 C   0  0  0  0  0  0  0  0  0  0  0  0
   49.0510   32.5340   40.6050 C   0  0  0  0  0  0  0  0  0  0  0  0
   48.6900   32.0480   39.3430 C   0  0  0  0  0  0  0  0  0  0  0  0
   48.8250   30.9980   39.1230 H   0  0  0  0  0  0  0  0  0  0  0  0
   48.1770   32.9600   38.4430 C   0  0  0  0  0  0  0  0  0  0  0  0
   47.8980   32.5670   37.4540 H   0  0  0  0  0  0  0  0  0  0  0  0
   48.0200   34.2940   38.7600 C   0  0  0  0  0  3  0  0  0  0  0  0
   48.3720   34.7810   40.0010 C   0  0  0  0  0  3  0  0  0  0  0  0
   48.4270   29.5800   44.6130 C   0  0  0  0  0  0  0  0  0  0  0  0
   47.3890   30.0000   44.5040 H   0  0  0  0  0  0  0  0  0  0  0  0
   48.8060   29.7050   45.6470 H   0  0  0  0  0  0  0  0  0  0  0  0
   48.7400   25.8790   44.9520 C   0  0  0  0  0  0  0  0  0  0  0  0
   47.9940   25.4350   43.8470 C   0  0  0  0  0  0  0  0  0  0  0  0
   47.4130   26.3810   43.0310 C   0  0  0  0  0  0  0  0  0  0  0  0
   47.5780   27.7090   43.3130 N   0  0  0  0  0  0  0  0  0  0  0  0
   48.3130   28.1080   44.3980 C   0  0  0  0  0  0  0  0  0  0  0  0
   48.8730   27.1800   45.1880 N   0  0  0  0  0  0  0  0  0  0  0  0
   49.2520   25.2510   45.6800 H   0  0  0  0  0  0  0  0  0  0  0  0
   47.9340   24.3660   43.7280 H   0  0  0  0  0  0  0  0  0  0  0  0
   46.8450   26.0350   42.1890 H   0  0  0  0  0  0  0  0  0  0  0  0
  1  2  1  0  0  0  0
  2  3  1  0  0  0  0
  3  4  2  0  0  0  0
  3 20  1  0  0  0  0
  4  8  1  0  0  0  0
  5  9  1  0  0  0  0
  5  4  1  0  0  0  0
  6  5  2  0  0  0  0
  7  6  1  0  0  0  0
  7  2  2  0  0  0  0
 10  6  1  0  0  0  0
 12 11  1  0  0  0  0
 13 12  1  0  0  0  0
 13  7  1  0  0  0  0
 14 13  2  0  0  0  0
 15 14  1  0  0  0  0
 16 18  2  0  0  0  0
 16 14  1  0  0  0  0
 17 16  1  0  0  0  0
 18 19  1  0  0  0  0
 19 12  2  0  0  0  0
 20 22  1  0  0  0  0
 21 20  1  0  0  0  0
 23 28  1  0  0  0  0
 23 29  1  0  0  0  0
 24 23  2  0  0  0  0
 25 26  2  0  0  0  0
 25 24  1  0  0  0  0
 26 27  1  0  0  0  0
 27 20  1  0  0  0  0
 27 28  2  0  0  0  0
 30 24  1  0  0  0  0
 31 25  1  0  0  0  0
M  END
>  <minimizedAffinity>
-2.99283981

>  <minimizedRMSD>
8.85083199

$$$$
