
 OpenBabel03252500573D

 38 40  0  0  0  0  0  0  0  0999 V2000
   43.6790   34.8370   40.2090 O   0  0  0  0  0  0  0  0  0  0  0  0
   43.2550   34.6360   41.6600 P   0  0  1  0  0  0  0  0  0  0  0  0
   43.2270   32.9790   41.9810 O   0  0  0  0  0  0  0  0  0  0  0  0
   43.1420   32.4360   41.1630 H   0  0  0  0  0  0  0  0  0  0  0  0
   44.3970   35.3430   42.6810 O   0  0  0  0  0  0  0  0  0  0  0  0
   46.4870   34.3360   43.0600 C   0  0  0  0  0  0  0  0  0  0  0  0
   45.2520   34.6830   43.5610 C   0  0  0  0  0  0  0  0  0  0  0  0
   44.9540   34.3530   44.8860 C   0  0  0  0  0  0  0  0  0  0  0  0
   45.8970   33.7120   45.6050 N   0  0  0  0  0  0  0  0  0  0  0  0
   47.0970   33.3820   45.0980 C   0  0  0  0  0  0  0  0  0  0  0  0
   47.3870   33.6930   43.8340 N   0  0  0  0  0  0  0  0  0  0  0  0
   43.9810   34.6440   45.2310 H   0  0  0  0  0  0  0  0  0  0  0  0
   47.7670   32.8700   45.7720 H   0  0  0  0  0  0  0  0  0  0  0  0
   46.8620   34.6490   41.6870 C   0  0  0  0  0  0  0  0  0  0  0  0
   46.1110   35.3390   41.2510 H   0  0  0  0  0  0  0  0  0  0  0  0
   46.8930   33.7690   41.0350 H   0  0  0  0  0  0  0  0  0  0  0  0
   48.2100   35.3000   41.6790 C   0  0  0  0  0  0  0  0  0  0  0  0
   48.1370   36.3330   41.2880 H   0  0  0  0  0  0  0  0  0  0  0  0
   48.6330   35.3690   42.7040 H   0  0  0  0  0  0  0  0  0  0  0  0
   48.9690   34.7020   41.1090 H   0  0  0  0  0  0  0  0  0  0  0  0
   41.6860   35.2410   41.8890 O   0  0  0  0  0  0  0  0  0  0  0  0
   40.6460   34.6420   41.1840 C   0  0  0  0  0  0  0  0  0  0  0  0
   39.9510   35.4440   40.2910 C   0  0  0  0  0  0  0  0  0  0  0  0
   38.8880   34.9370   39.5320 C   0  0  0  0  0  0  0  0  0  0  0  0
   38.5510   33.6250   39.6960 N   0  0  0  0  0  0  0  0  0  0  0  0
   39.2260   32.8700   40.5540 C   0  0  0  0  0  0  0  0  0  0  0  0
   40.2440   33.3660   41.2770 N   0  0  0  0  0  0  0  0  0  0  0  0
   40.2220   36.4940   40.1620 H   0  0  0  0  0  0  0  0  0  0  0  0
   38.3800   35.5860   38.8580 H   0  0  0  0  0  0  0  0  0  0  0  0
   41.3720   31.0040   39.5060 Br  0  0  0  0  0  0  0  0  0  0  0  0
   39.7560   30.4480   40.3430 C   0  0  0  0  0  0  0  0  0  0  0  0
   38.8960   31.4640   40.7570 C   0  0  0  0  0  0  0  0  0  0  0  0
   37.7130   31.0470   41.3690 C   0  0  0  0  0  0  0  0  0  0  0  0
   37.0040   31.8030   41.7110 H   0  0  0  0  0  0  0  0  0  0  0  0
   37.4620   29.7160   41.5290 C   0  0  0  0  0  0  0  0  0  0  0  0
   36.5580   29.3380   41.9980 H   0  0  0  0  0  0  0  0  0  0  0  0
   38.3240   28.7400   41.1130 C   0  0  0  0  0  3  0  0  0  0  0  0
   39.5200   29.0990   40.4950 C   0  0  0  0  0  3  0  0  0  0  0  0
  2  1  2  6  0  0  0
  2 21  1  0  0  0  0
  2  3  1  0  0  0  0
  2  5  1  0  0  0  0
  4  3  1  0  0  0  0
  5  7  1  0  0  0  0
  6  7  2  0  0  0  0
  6 11  1  0  0  0  0
  7  8  1  0  0  0  0
  8 12  1  0  0  0  0
  8  9  2  0  0  0  0
 10  9  1  0  0  0  0
 10 13  1  0  0  0  0
 11 10  2  0  0  0  0
 14  6  1  0  0  0  0
 15 14  1  0  0  0  0
 16 14  1  0  0  0  0
 17 14  1  0  0  0  0
 17 19  1  0  0  0  0
 18 17  1  0  0  0  0
 20 17  1  0  0  0  0
 22 27  1  0  0  0  0
 22 21  1  0  0  0  0
 23 22  2  0  0  0  0
 24 25  2  0  0  0  0
 24 23  1  0  0  0  0
 25 26  1  0  0  0  0
 26 32  1  0  0  0  0
 26 27  2  0  0  0  0
 28 23  1  0  0  0  0
 29 24  1  0  0  0  0
 30 31  1  0  0  0  0
 31 38  2  0  0  0  0
 31 32  1  0  0  0  0
 32 33  2  0  0  0  0
 33 35  1  0  0  0  0
 33 34  1  0  0  0  0
 35 36  1  0  0  0  0
 37 35  2  0  0  0  0
 38 37  1  0  0  0  0
M  END
>  <minimizedAffinity>
-5.53679848

>  <minimizedRMSD>
0.848920047

$$$$
