
 OpenBabel03252506053D

 43 47  0  0  0  0  0  0  0  0999 V2000
   44.7380   35.9490   43.3040 Cl  0  0  0  0  0  0  0  0  0  0  0  0
   45.4950   34.7140   44.2520 C   0  0  0  0  0  0  0  0  0  0  0  0
   46.5700   34.0070   43.7450 C   0  0  0  0  0  0  0  0  0  0  0  0
   47.1010   33.0430   44.5810 C   0  0  0  0  0  0  0  0  0  0  0  0
   46.6380   32.7580   45.8470 C   0  0  0  0  0  0  0  0  0  0  0  0
   45.5730   33.4770   46.3150 C   0  0  0  0  0  0  0  0  0  0  0  0
   45.0210   33.0770   47.9330 Cl  0  0  0  0  0  0  0  0  0  0  0  0
   45.0080   34.4420   45.5320 C   0  0  0  0  0  0  0  0  0  0  0  0
   47.9490   32.4940   44.1680 H   0  0  0  0  0  0  0  0  0  0  0  0
   44.1660   34.9950   45.9310 H   0  0  0  0  0  0  0  0  0  0  0  0
   47.3390   31.6980   46.5770 C   0  0  0  0  0  0  0  0  0  0  0  0
   47.4470   30.4010   46.1080 C   0  0  0  0  0  0  0  0  0  0  0  0
   48.1020   29.3890   46.7810 C   0  0  0  0  0  0  0  0  0  0  0  0
   48.6910   29.6670   47.9940 C   0  0  0  0  0  0  0  0  0  0  0  0
   49.3250   28.6680   48.6330 N   0  0  0  0  0  0  0  0  0  0  0  0
   49.9340   28.8500   49.8300 C   0  0  0  0  0  0  0  0  0  0  0  0
   49.8680   30.1280   50.3650 C   0  0  0  0  0  0  0  0  0  0  0  0
   49.2250   31.1460   49.7200 C   0  0  0  0  0  0  0  0  0  0  0  0
   48.6100   30.9390   48.4960 C   0  0  0  0  0  0  0  0  0  0  0  0
   47.9500   31.9350   47.8090 C   0  0  0  0  0  0  0  0  0  0  0  0
   46.9840   30.1800   45.1550 H   0  0  0  0  0  0  0  0  0  0  0  0
   48.1340   28.4050   46.3340 H   0  0  0  0  0  0  0  0  0  0  0  0
   50.4260   28.0180   50.2980 H   0  0  0  0  0  0  0  0  0  0  0  0
   50.3480   30.2950   51.3220 H   0  0  0  0  0  0  0  0  0  0  0  0
   49.1740   32.1420   50.1390 H   0  0  0  0  0  0  0  0  0  0  0  0
   47.9060   32.9280   48.2360 H   0  0  0  0  0  0  0  0  0  0  0  0
   48.6760   35.3040   41.0700 C   0  0  0  0  0  0  0  0  0  0  0  0
   48.1240   34.7210   39.9210 C   0  0  0  0  0  0  0  0  0  0  0  0
   47.0100   33.8700   40.0670 C   0  0  0  0  0  0  0  0  0  0  0  0
   46.5740   33.6940   41.3270 N   0  0  0  0  0  0  0  0  0  0  0  0
   47.1120   34.2570   42.4160 C   0  0  0  0  0  0  0  0  0  0  0  0
   48.1690   35.0670   42.2990 N   0  0  0  0  0  0  0  0  0  0  0  0
   49.5350   35.9550   40.9290 H   0  0  0  0  0  0  0  0  0  0  0  0
   48.5290   34.9080   38.9380 H   0  0  0  0  0  0  0  0  0  0  0  0
   48.5260   34.4380   37.4630 Br  0  0  0  0  0  0  0  0  0  0  0  0
   46.9340   33.3820   37.6900 C   0  0  0  0  0  0  0  0  0  0  0  0
   46.3660   33.2200   38.9350 C   0  0  0  0  0  0  0  0  0  0  0  0
   45.2350   32.4560   39.0230 C   0  0  0  0  0  0  0  0  0  0  0  0
   44.7610   32.3040   39.9780 H   0  0  0  0  0  0  0  0  0  0  0  0
   44.7250   31.8950   37.8790 C   0  0  0  0  0  0  0  0  0  0  0  0
   43.8200   31.2880   37.9710 H   0  0  0  0  0  0  0  0  0  0  0  0
   45.2770   32.0470   36.6250 C   0  0  0  0  0  3  0  0  0  0  0  0
   46.4340   32.8290   36.5470 C   0  0  0  0  0  3  0  0  0  0  0  0
  1  2  1  0  0  0  0
  2  8  1  0  0  0  0
  3  2  2  0  0  0  0
  3  4  1  0  0  0  0
  4  5  2  0  0  0  0
  5  6  1  0  0  0  0
  5 11  1  0  0  0  0
  6  7  1  0  0  0  0
  8 10  1  0  0  0  0
  8  6  2  0  0  0  0
  9  4  1  0  0  0  0
 11 20  1  0  0  0  0
 12 11  2  0  0  0  0
 12 13  1  0  0  0  0
 13 14  2  0  0  0  0
 14 19  1  0  0  0  0
 14 15  1  0  0  0  0
 15 16  2  0  0  0  0
 16 23  1  0  0  0  0
 16 17  1  0  0  0  0
 17 24  1  0  0  0  0
 18 25  1  0  0  0  0
 18 17  2  0  0  0  0
 19 18  1  0  0  0  0
 20 26  1  0  0  0  0
 20 19  2  0  0  0  0
 21 12  1  0  0  0  0
 22 13  1  0  0  0  0
 27 32  1  0  0  0  0
 28 29  1  0  0  0  0
 28 27  2  0  0  0  0
 29 30  2  0  0  0  0
 30 31  1  0  0  0  0
 31  3  1  0  0  0  0
 32 31  2  0  0  0  0
 33 27  1  0  0  0  0
 34 28  1  0  0  0  0
 35 36  1  0  0  0  0
 36 37  1  0  0  0  0
 37 38  2  0  0  0  0
 37 29  1  0  0  0  0
 38 39  1  0  0  0  0
 40 41  1  0  0  0  0
 40 38  1  0  0  0  0
 42 40  2  0  0  0  0
 43 42  1  0  0  0  0
 43 36  2  0  0  0  0
M  END
>  <minimizedAffinity>
-7.61487341

>  <minimizedRMSD>
0.170767292

$$$$
