
 OpenBabel03252504103D

 25 26  0  0  0  0  0  0  0  0999 V2000
   44.4170   33.3920   42.1400 C   0  0  0  0  0  0  0  0  0  0  0  0
   44.5180   34.4340   43.0550 C   0  0  0  0  0  0  0  0  0  0  0  0
   43.6800   35.5370   42.8830 C   0  0  0  0  0  0  0  0  0  0  0  0
   42.8120   35.5330   41.8340 N   0  0  0  0  0  0  0  0  0  0  0  0
   42.7500   34.4970   40.9710 C   0  0  0  0  0  0  0  0  0  0  0  0
   43.5380   33.4300   41.1100 N   0  0  0  0  0  0  0  0  0  0  0  0
   43.7400   36.3590   43.5810 H   0  0  0  0  0  0  0  0  0  0  0  0
   39.9470   33.1390   41.4480 Br  0  0  0  0  0  0  0  0  0  0  0  0
   40.4970   34.1100   39.9290 C   0  0  0  0  0  0  0  0  0  0  0  0
   41.7720   34.6350   39.8980 C   0  0  0  0  0  0  0  0  0  0  0  0
   42.1020   35.3330   38.7560 C   0  0  0  0  0  0  0  0  0  0  0  0
   43.0850   35.7910   38.6240 H   0  0  0  0  0  0  0  0  0  0  0  0
   41.2110   35.5020   37.6920 C   0  0  0  0  0  0  0  0  0  0  0  0
   41.5310   36.0640   36.8140 H   0  0  0  0  0  0  0  0  0  0  0  0
   39.9450   34.9600   37.7620 C   0  0  0  0  0  3  0  0  0  0  0  0
   39.6140   34.2710   38.8870 C   0  0  0  0  0  3  0  0  0  0  0  0
   45.4970   34.3440   44.1670 C   0  0  0  0  0  0  0  0  0  0  0  0
   45.3780   33.1020   44.7960 F   0  0  0  0  0  0  0  0  0  0  0  0
   46.7620   34.3920   43.6350 F   0  0  0  0  0  0  0  0  0  0  0  0
   45.3480   35.2900   45.1330 F   0  0  0  0  0  0  0  0  0  0  0  0
   45.2390   32.3260   42.3210 O   0  0  0  0  0  0  0  0  0  0  0  0
   44.8750   30.9740   42.4350 C   0  0  0  0  0  0  0  0  0  0  0  0
   43.6120   30.9500   43.0600 F   0  0  0  0  0  0  0  0  0  0  0  0
   44.8770   30.3860   41.2130 F   0  0  0  0  0  0  0  0  0  0  0  0
   45.7080   30.3390   43.3350 F   0  0  0  0  0  0  0  0  0  0  0  0
  1 21  1  0  0  0  0
  1  2  1  0  0  0  0
  2 17  1  0  0  0  0
  3  2  2  0  0  0  0
  3  7  1  0  0  0  0
  4  3  1  0  0  0  0
  5  6  1  0  0  0  0
  5  4  2  0  0  0  0
  6  1  2  0  0  0  0
  9  8  1  0  0  0  0
 10  9  1  0  0  0  0
 10  5  1  0  0  0  0
 11 10  2  0  0  0  0
 12 11  1  0  0  0  0
 13 15  2  0  0  0  0
 13 11  1  0  0  0  0
 14 13  1  0  0  0  0
 15 16  1  0  0  0  0
 16  9  2  0  0  0  0
 17 18  1  0  0  0  0
 17 20  1  0  0  0  0
 19 17  1  0  0  0  0
 21 22  1  0  0  0  0
 22 23  1  0  0  0  0
 22 25  1  0  0  0  0
 24 22  1  0  0  0  0
M  END
>  <minimizedAffinity>
-4.68054628

>  <minimizedRMSD>
7.43195486

$$$$
