
 OpenBabel03242521393D

 21 22  0  0  0  0  0  0  0  0999 V2000
   45.4180   34.9280   44.2660 C   0  0  0  0  0  0  0  0  0  0  0  0
   45.7860   34.9830   42.9250 C   0  0  0  0  0  0  0  0  0  0  0  0
   46.6920   34.0400   42.4340 C   0  0  0  0  0  0  0  0  0  0  0  0
   47.1570   33.1230   43.3080 N   0  0  0  0  0  0  0  0  0  0  0  0
   46.7820   33.0950   44.6050 C   0  0  0  0  0  0  0  0  0  0  0  0
   45.9090   34.0010   45.0850 N   0  0  0  0  0  0  0  0  0  0  0  0
   45.3730   35.7360   42.3060 H   0  0  0  0  0  0  0  0  0  0  0  0
   47.2030   32.3250   45.2420 H   0  0  0  0  0  0  0  0  0  0  0  0
   44.9260   32.2300   40.7580 Br  0  0  0  0  0  0  0  0  0  0  0  0
   46.4060   33.2710   40.1420 C   0  0  0  0  0  0  0  0  0  0  0  0
   47.1130   34.0480   41.0370 C   0  0  0  0  0  0  0  0  0  0  0  0
   48.1610   34.7660   40.5280 C   0  0  0  0  0  0  0  0  0  0  0  0
   48.7320   35.3810   41.1980 H   0  0  0  0  0  0  0  0  0  0  0  0
   48.4920   34.7150   39.1870 C   0  0  0  0  0  0  0  0  0  0  0  0
   49.3390   35.3120   38.8390 H   0  0  0  0  0  0  0  0  0  0  0  0
   47.7570   33.9240   38.3270 C   0  0  0  0  0  3  0  0  0  0  0  0
   46.6900   33.1790   38.7950 C   0  0  0  0  0  3  0  0  0  0  0  0
   44.4470   35.9540   44.7530 C   0  0  0  0  0  0  0  0  0  0  0  0
   43.9020   35.6140   45.6530 H   0  0  0  0  0  0  0  0  0  0  0  0
   43.7550   36.2170   43.9350 H   0  0  0  0  0  0  0  0  0  0  0  0
   45.0590   36.8570   44.9680 H   0  0  0  0  0  0  0  0  0  0  0  0
  1 18  1  0  0  0  0
  1  6  1  0  0  0  0
  2  1  2  0  0  0  0
  3  2  1  0  0  0  0
  3  4  2  0  0  0  0
  4  5  1  0  0  0  0
  5  6  2  0  0  0  0
  5  8  1  0  0  0  0
  7  2  1  0  0  0  0
 10  9  1  0  0  0  0
 10 11  1  0  0  0  0
 11  3  1  0  0  0  0
 12 11  2  0  0  0  0
 12 13  1  0  0  0  0
 14 12  1  0  0  0  0
 15 14  1  0  0  0  0
 16 17  1  0  0  0  0
 16 14  2  0  0  0  0
 17 10  2  0  0  0  0
 18 21  1  0  0  0  0
 18 19  1  0  0  0  0
 20 18  1  0  0  0  0
M  END
>  <minimizedAffinity>
-4.14426899

>  <minimizedRMSD>
3.62111831

$$$$
