
 OpenBabel03252503543D

 36 38  0  0  1  0  0  0  0  0999 V2000
   46.3300   32.6670   45.2720 N   0  0  0  0  0  0  0  0  0  0  0  0
   46.0370   33.1290   46.6360 C   0  0  0  0  0  0  0  0  0  0  0  0
   46.6310   32.0810   47.5750 C   0  0  0  0  0  0  0  0  0  0  0  0
   45.7690   30.8510   47.4560 C   0  0  0  0  0  0  0  0  0  0  0  0
   45.7160   30.4490   46.0150 C   0  0  0  0  0  0  0  0  0  0  0  0
   46.5150   31.2880   45.0910 C   0  0  1  0  0  0  0  0  0  0  0  0
   46.6120   34.0630   46.7760 H   0  0  0  0  0  0  0  0  0  0  0  0
   44.9650   33.2180   46.8340 H   0  0  0  0  0  0  0  0  0  0  0  0
   47.6890   31.8860   47.3160 H   0  0  0  0  0  0  0  0  0  0  0  0
   46.4980   32.5010   48.5900 H   0  0  0  0  0  0  0  0  0  0  0  0
   46.2320   30.0490   48.0720 H   0  0  0  0  0  0  0  0  0  0  0  0
   44.7750   31.0950   47.8800 H   0  0  0  0  0  0  0  0  0  0  0  0
   46.1210   29.3990   45.9150 H   0  0  0  0  0  0  0  0  0  0  0  0
   44.6490   30.3430   45.7380 H   0  0  0  0  0  0  0  0  0  0  0  0
   47.5870   31.0550   45.2800 H   0  0  0  0  0  0  0  0  0  0  0  0
   48.9530   30.4220   43.1760 Br  0  0  0  0  0  0  0  0  0  0  0  0
   47.0990   30.2650   42.8140 C   0  0  0  0  0  0  0  0  0  0  0  0
   46.1930   30.7030   43.7500 C   0  0  0  0  0  0  0  0  0  0  0  0
   44.8550   30.5740   43.3260 C   0  0  0  0  0  0  0  0  0  0  0  0
   44.0890   30.9060   44.0270 H   0  0  0  0  0  0  0  0  0  0  0  0
   44.4380   30.0720   42.1230 C   0  0  0  0  0  0  0  0  0  0  0  0
   43.3790   30.0240   41.9110 H   0  0  0  0  0  0  0  0  0  0  0  0
   45.4130   29.6560   41.2490 C   0  0  0  0  0  3  0  0  0  0  0  0
   46.7460   29.7500   41.5870 C   0  0  0  0  0  3  0  0  0  0  0  0
   47.6580   34.7550   42.5300 C   0  0  0  0  0  0  0  0  0  0  0  0
   47.6120   33.8690   43.6050 C   0  0  0  0  0  0  0  0  0  0  0  0
   46.4060   33.5950   44.2240 C   0  0  0  0  0  0  0  0  0  0  0  0
   45.3020   34.2190   43.7480 N   0  0  0  0  0  0  0  0  0  0  0  0
   45.3460   35.0780   42.7100 C   0  0  0  0  0  0  0  0  0  0  0  0
   46.5260   35.3470   42.0980 N   0  0  0  0  0  0  0  0  0  0  0  0
   48.5610   33.4890   43.8930 H   0  0  0  0  0  0  0  0  0  0  0  0
   44.4430   35.5580   42.3580 H   0  0  0  0  0  0  0  0  0  0  0  0
   48.9830   34.9800   41.8640 C   0  0  0  0  0  0  0  0  0  0  0  0
   48.9060   35.9860   40.9030 F   0  0  0  0  0  0  0  0  0  0  0  0
   49.8890   35.2910   42.8550 F   0  0  0  0  0  0  0  0  0  0  0  0
   49.4010   33.8040   41.2550 F   0  0  0  0  0  0  0  0  0  0  0  0
  1  2  1  0  0  0  0
  2  7  1  0  0  0  0
  2  8  1  0  0  0  0
  2  3  1  0  0  0  0
  3 10  1  0  0  0  0
  4  3  1  0  0  0  0
  4 12  1  0  0  0  0
  4 11  1  0  0  0  0
  5  4  1  0  0  0  0
  6  1  1  0  0  0  0
  6 15  1  1  0  0  0
  6  5  1  0  0  0  0
  9  3  1  0  0  0  0
 13  5  1  0  0  0  0
 14  5  1  0  0  0  0
 17 16  1  0  0  0  0
 17 18  1  0  0  0  0
 18  6  1  0  0  0  0
 19 18  2  0  0  0  0
 19 20  1  0  0  0  0
 21 19  1  0  0  0  0
 22 21  1  0  0  0  0
 23 24  1  0  0  0  0
 23 21  2  0  0  0  0
 24 17  2  0  0  0  0
 25 26  1  0  0  0  0
 26 31  1  0  0  0  0
 26 27  2  0  0  0  0
 27  1  1  0  0  0  0
 28 27  1  0  0  0  0
 29 28  2  0  0  0  0
 30 25  2  0  0  0  0
 30 29  1  0  0  0  0
 32 29  1  0  0  0  0
 33 25  1  0  0  0  0
 33 35  1  0  0  0  0
 34 33  1  0  0  0  0
 36 33  1  0  0  0  0
M  END
>  <minimizedAffinity>
-4.98779488

>  <minimizedRMSD>
1.77382016

$$$$
