
 OpenBabel03242523063D

 45 49  0  0  1  0  0  0  0  0999 V2000
   45.1010   35.9290   43.5790 C   0  0  0  0  0  0  0  0  0  0  0  0
   45.9200   34.8440   43.2970 C   0  0  0  0  0  0  0  0  0  0  0  0
   46.0860   33.8920   44.2700 C   0  0  0  0  0  0  0  0  0  0  0  0
   45.4440   34.0520   45.4690 N   0  0  0  0  0  0  0  0  0  0  0  0
   44.6570   35.1150   45.7140 C   0  0  0  0  0  0  0  0  0  0  0  0
   44.4920   36.0330   44.7830 N   0  0  0  0  0  0  0  0  0  0  0  0
   44.9420   36.7070   42.8350 H   0  0  0  0  0  0  0  0  0  0  0  0
   44.1200   35.3120   46.6310 H   0  0  0  0  0  0  0  0  0  0  0  0
   46.5420   34.7980   42.0510 N   0  0  0  0  0  0  0  0  0  0  0  0
   47.8610   35.2550   41.8290 C   0  0  0  0  0  0  0  0  0  0  0  0
   48.4070   34.9690   40.4520 C   0  0  0  0  0  0  0  0  0  0  0  0
   48.0640   33.7190   39.8980 N   0  0  0  0  0  0  0  0  0  0  0  0
   46.7580   33.2720   40.1250 C   0  0  0  0  0  0  0  0  0  0  0  0
   45.9260   34.3000   40.8670 C   0  0  0  0  0  0  0  0  0  0  0  0
   47.8220   36.3790   41.9070 H   0  0  0  0  0  0  0  0  0  0  0  0
   48.6050   34.9680   42.6040 H   0  0  0  0  0  0  0  0  0  0  0  0
   49.5170   35.0270   40.5160 H   0  0  0  0  0  0  0  0  0  0  0  0
   48.1090   35.7810   39.7290 H   0  0  0  0  0  0  0  0  0  0  0  0
   48.7750   33.0010   40.1990 H   0  0  0  0  0  0  0  0  0  0  0  0
   46.6680   32.2620   40.5720 H   0  0  0  0  0  0  0  0  0  0  0  0
   46.2320   33.1630   39.1280 H   0  0  0  0  0  0  0  0  0  0  0  0
   44.9110   33.8810   41.0190 H   0  0  0  0  0  0  0  0  0  0  0  0
   45.7910   35.1780   40.1830 H   0  0  0  0  0  0  0  0  0  0  0  0
   46.7380   32.0250   45.5480 C   0  0  0  0  0  0  0  0  0  0  0  0
   46.8150   32.6890   44.3040 C   0  0  0  0  0  0  0  0  0  0  0  0
   47.6470   31.9980   43.4430 C   0  0  0  0  0  0  0  0  0  0  0  0
   48.3160   30.8460   43.7110 C   0  0  0  0  0  0  0  0  0  0  0  0
   48.1910   30.2690   44.9530 C   0  0  0  0  0  0  0  0  0  0  0  0
   47.3930   30.8550   45.8880 C   0  0  0  0  0  0  0  0  0  0  0  0
   48.9900   29.1480   44.9080 O   0  0  0  0  0  0  0  0  0  0  0  0
   49.5640   29.0040   43.6330 C   0  0  1  0  0  0  0  0  0  0  0  0
   49.1470   30.1320   42.8620 O   0  0  0  0  0  0  0  0  0  0  0  0
   46.1590   32.2880   46.4580 H   0  0  0  0  0  0  0  0  0  0  0  0
   47.7110   32.4890   42.5220 H   0  0  0  0  0  0  0  0  0  0  0  0
   47.3590   30.3350   46.8060 H   0  0  0  0  0  0  0  0  0  0  0  0
   49.0810   28.0990   43.1610 H   0  0  0  0  0  0  0  0  0  0  0  0
   50.8960   27.4710   41.2200 Br  0  0  0  0  0  0  0  0  0  0  0  0
   51.8210   28.2950   42.6660 C   0  0  0  0  0  0  0  0  0  0  0  0
   51.0300   28.9140   43.6160 C   0  0  0  0  0  0  0  0  0  0  0  0
   51.6730   29.5250   44.6850 C   0  0  0  0  0  0  0  0  0  0  0  0
   51.1870   30.0510   45.5110 H   0  0  0  0  0  0  0  0  0  0  0  0
   53.0640   29.5170   44.8000 C   0  0  0  0  0  0  0  0  0  0  0  0
   53.5850   29.9890   45.6270 H   0  0  0  0  0  0  0  0  0  0  0  0
   53.8640   28.8940   43.8430 C   0  0  0  0  0  3  0  0  0  0  0  0
   53.2010   28.2880   42.7800 C   0  0  0  0  0  3  0  0  0  0  0  0
  1  6  1  0  0  0  0
  2  1  2  0  0  0  0
  2  3  1  0  0  0  0
  3 25  1  0  0  0  0
  3  4  2  0  0  0  0
  4  5  1  0  0  0  0
  5  8  1  0  0  0  0
  6  5  2  0  0  0  0
  7  1  1  0  0  0  0
  9  2  1  0  0  0  0
 10 15  1  0  0  0  0
 10  9  1  0  0  0  0
 10 16  1  0  0  0  0
 11 17  1  0  0  0  0
 11 10  1  0  0  0  0
 12 13  1  0  0  0  0
 12 19  1  0  0  0  0
 12 11  1  0  0  0  0
 13 20  1  0  0  0  0
 13 14  1  0  0  0  0
 14 22  1  0  0  0  0
 14  9  1  0  0  0  0
 18 11  1  0  0  0  0
 21 13  1  0  0  0  0
 23 14  1  0  0  0  0
 24 29  1  0  0  0  0
 24 33  1  0  0  0  0
 25 24  2  0  0  0  0
 26 27  2  0  0  0  0
 26 25  1  0  0  0  0
 27 28  1  0  0  0  0
 28 29  2  0  0  0  0
 29 35  1  0  0  0  0
 30 28  1  0  0  0  0
 31 36  1  6  0  0  0
 31 30  1  0  0  0  0
 32 31  1  0  0  0  0
 32 27  1  0  0  0  0
 34 26  1  0  0  0  0
 37 38  1  0  0  0  0
 38 45  2  0  0  0  0
 38 39  1  0  0  0  0
 39 31  1  0  0  0  0
 39 40  2  0  0  0  0
 40 42  1  0  0  0  0
 40 41  1  0  0  0  0
 42 43  1  0  0  0  0
 44 42  2  0  0  0  0
 45 44  1  0  0  0  0
M  END
>  <minimizedAffinity>
-5.30702591

>  <minimizedRMSD>
0.411077291

$$$$
