
 OpenBabel03252503413D

 21 22  0  0  0  0  0  0  0  0999 V2000
   44.8600   35.3220   44.5650 C   0  0  0  0  0  0  0  0  0  0  0  0
   44.7320   34.7380   43.2880 C   0  0  0  0  0  0  0  0  0  0  0  0
   45.0170   33.3860   43.1880 C   0  0  0  0  0  0  0  0  0  0  0  0
   45.3950   32.6910   44.2790 N   0  0  0  0  0  0  0  0  0  0  0  0
   45.5070   33.2840   45.4950 C   0  0  0  0  0  0  0  0  0  0  0  0
   45.2380   34.5970   45.6340 N   0  0  0  0  0  0  0  0  0  0  0  0
   44.6700   36.3630   44.7940 H   0  0  0  0  0  0  0  0  0  0  0  0
   44.9030   33.0030   42.1910 H   0  0  0  0  0  0  0  0  0  0  0  0
   47.6830   31.2330   44.7980 Br  0  0  0  0  0  0  0  0  0  0  0  0
   46.8810   31.5300   46.5110 C   0  0  0  0  0  0  0  0  0  0  0  0
   45.9190   32.4890   46.6490 C   0  0  0  0  0  0  0  0  0  0  0  0
   45.3210   32.7280   47.8700 C   0  0  0  0  0  0  0  0  0  0  0  0
   44.5610   33.4870   47.9790 H   0  0  0  0  0  0  0  0  0  0  0  0
   45.7210   31.9680   48.9600 C   0  0  0  0  0  0  0  0  0  0  0  0
   45.2800   32.1180   49.9410 H   0  0  0  0  0  0  0  0  0  0  0  0
   46.6930   30.9950   48.8280 C   0  0  0  0  0  3  0  0  0  0  0  0
   47.2720   30.7790   47.5970 C   0  0  0  0  0  3  0  0  0  0  0  0
   44.3080   35.6600   42.2150 C   0  0  0  0  0  0  0  0  0  0  0  0
   43.2260   35.8230   42.3010 H   0  0  0  0  0  0  0  0  0  0  0  0
   44.4830   35.2350   41.2110 H   0  0  0  0  0  0  0  0  0  0  0  0
   44.8110   36.6470   42.3150 H   0  0  0  0  0  0  0  0  0  0  0  0
  1  7  1  0  0  0  0
  1  6  1  0  0  0  0
  2  1  2  0  0  0  0
  3  2  1  0  0  0  0
  3  4  2  0  0  0  0
  4  5  1  0  0  0  0
  5  6  2  0  0  0  0
  5 11  1  0  0  0  0
  8  3  1  0  0  0  0
  9 10  1  0  0  0  0
 10 11  2  0  0  0  0
 10 17  1  0  0  0  0
 11 12  1  0  0  0  0
 12 13  1  0  0  0  0
 12 14  2  0  0  0  0
 14 15  1  0  0  0  0
 16 14  1  0  0  0  0
 17 16  2  0  0  0  0
 18 19  1  0  0  0  0
 18 21  1  0  0  0  0
 18  2  1  0  0  0  0
 20 18  1  0  0  0  0
M  END
>  <minimizedAffinity>
-4.31590366

>  <minimizedRMSD>
1.16012454

$$$$
