
 OpenBabel03242510423D

 41 44  0  0  0  0  0  0  0  0999 V2000
   48.3250   30.2950   45.5190 Cl  0  0  0  0  0  0  0  0  0  0  0  0
   47.3840   31.0170   46.8330 C   0  0  0  0  0  0  0  0  0  0  0  0
   46.3590   31.8850   46.4920 C   0  0  0  0  0  0  0  0  0  0  0  0
   45.6450   32.4300   47.5020 C   0  0  0  0  0  0  0  0  0  0  0  0
   45.9690   32.0990   48.8290 C   0  0  0  0  0  0  0  0  0  0  0  0
   46.9930   31.2350   49.1450 C   0  0  0  0  0  0  0  0  0  0  0  0
   47.7380   30.6640   48.1140 C   0  0  0  0  0  0  0  0  0  0  0  0
   44.8480   33.1040   47.2460 H   0  0  0  0  0  0  0  0  0  0  0  0
   45.3750   32.5570   49.6190 H   0  0  0  0  0  0  0  0  0  0  0  0
   47.2320   30.9880   50.1710 H   0  0  0  0  0  0  0  0  0  0  0  0
   50.0470   31.7390   49.0820 F   0  0  0  0  0  0  0  0  0  0  0  0
   49.9590   30.3970   48.8580 C   0  0  0  0  0  0  0  0  0  0  0  0
   48.8430   29.7360   48.3690 C   0  0  0  0  0  0  0  0  0  0  0  0
   48.8700   28.3770   48.1820 C   0  0  0  0  0  0  0  0  0  0  0  0
   50.0050   27.6690   48.4800 C   0  0  0  0  0  0  0  0  0  0  0  0
   51.1400   28.3010   48.9710 C   0  0  0  0  0  0  0  0  0  0  0  0
   51.1140   29.6810   49.1610 C   0  0  0  0  0  0  0  0  0  0  0  0
   47.9440   27.9690   47.7970 H   0  0  0  0  0  0  0  0  0  0  0  0
   49.9780   26.6000   48.3160 H   0  0  0  0  0  0  0  0  0  0  0  0
   52.0220   27.7150   49.1960 H   0  0  0  0  0  0  0  0  0  0  0  0
   52.0120   30.1610   49.5460 H   0  0  0  0  0  0  0  0  0  0  0  0
   44.9830   31.7030   43.1260 C   0  0  0  0  0  0  0  0  0  0  0  0
   45.6190   32.7550   42.4360 C   0  0  0  0  0  0  0  0  0  0  0  0
   46.5390   33.5260   43.1780 C   0  0  0  0  0  0  0  0  0  0  0  0
   46.7430   33.2090   44.4810 N   0  0  0  0  0  0  0  0  0  0  0  0
   46.0900   32.1730   45.0890 C   0  0  0  0  0  0  0  0  0  0  0  0
   45.2240   31.4400   44.4050 N   0  0  0  0  0  0  0  0  0  0  0  0
   44.2660   31.0760   42.6090 H   0  0  0  0  0  0  0  0  0  0  0  0
   43.3520   34.8430   41.6860 Br  0  0  0  0  0  0  0  0  0  0  0  0
   44.3520   33.7710   40.4530 C   0  0  0  0  0  0  0  0  0  0  0  0
   45.2600   32.9450   41.0520 C   0  0  0  0  0  0  0  0  0  0  0  0
   46.0240   32.1140   40.2260 C   0  0  0  0  0  0  0  0  0  0  0  0
   46.7920   31.3950   40.5450 H   0  0  0  0  0  0  0  0  0  0  0  0
   45.8630   32.1330   38.8350 C   0  0  0  0  0  0  0  0  0  0  0  0
   46.4400   31.5020   38.1730 H   0  0  0  0  0  0  0  0  0  0  0  0
   44.9380   32.9790   38.2590 C   0  0  0  0  0  0  0  0  0  0  0  0
   44.1950   33.7890   39.0840 C   0  0  0  0  0  0  0  0  0  0  0  0
   47.1810   34.5960   42.4340 C   0  0  0  0  0  0  0  0  0  0  0  0
   48.3550   34.9580   43.0910 F   0  0  0  0  0  0  0  0  0  0  0  0
   46.3630   35.6930   42.5230 F   0  0  0  0  0  0  0  0  0  0  0  0
   47.5110   34.2650   41.1470 F   0  0  0  0  0  0  0  0  0  0  0  0
  1  2  1  0  0  0  0
  2  7  1  0  0  0  0
  3  2  2  0  0  0  0
  3  4  1  0  0  0  0
  4  5  2  0  0  0  0
  5  6  1  0  0  0  0
  5  9  1  0  0  0  0
  6 10  1  0  0  0  0
  7 13  1  0  0  0  0
  7  6  2  0  0  0  0
  8  4  1  0  0  0  0
 12 11  1  0  0  0  0
 12 17  1  0  0  0  0
 13 12  2  0  0  0  0
 14 13  1  0  0  0  0
 14 15  2  0  0  0  0
 15 16  1  0  0  0  0
 16 17  2  0  0  0  0
 16 20  1  0  0  0  0
 17 21  1  0  0  0  0
 18 14  1  0  0  0  0
 19 15  1  0  0  0  0
 22 27  1  0  0  0  0
 23 22  2  0  0  0  0
 23 24  1  0  0  0  0
 24 25  2  0  0  0  0
 25 26  1  0  0  0  0
 26  3  1  0  0  0  0
 27 26  2  0  0  0  0
 28 22  1  0  0  0  0
 30 31  1  0  0  0  0
 30 29  1  0  0  0  0
 31 23  1  0  0  0  0
 32 33  1  0  0  0  0
 32 31  2  0  0  0  0
 34 32  1  0  0  0  0
 35 34  1  0  0  0  0
 36 34  2  0  0  0  0
 36 37  1  0  0  0  0
 37 30  2  0  0  0  0
 38 40  1  0  0  0  0
 38 39  1  0  0  0  0
 38 24  1  0  0  0  0
 41 38  1  0  0  0  0
M  END
>  <minimizedAffinity>
-5.73648453

>  <minimizedRMSD>
3.06481743

$$$$
