
 OpenBabel03242510053D

 18 19  0  0  0  0  0  0  0  0999 V2000
   45.6010   34.0380   45.3350 C   0  0  0  0  0  0  0  0  0  0  0  0
   44.7000   35.0930   45.5910 C   0  0  0  0  0  0  0  0  0  0  0  0
   44.5310   36.0470   44.5750 C   0  0  0  0  0  0  0  0  0  0  0  0
   45.2300   35.9010   43.4210 N   0  0  0  0  0  0  0  0  0  0  0  0
   46.0900   34.8650   43.2140 C   0  0  0  0  0  0  0  0  0  0  0  0
   46.2650   33.9410   44.1810 N   0  0  0  0  0  0  0  0  0  0  0  0
   45.7270   33.2980   46.1370 H   0  0  0  0  0  0  0  0  0  0  0  0
   44.1560   35.1890   46.5140 H   0  0  0  0  0  0  0  0  0  0  0  0
   43.8580   36.8860   44.6920 H   0  0  0  0  0  0  0  0  0  0  0  0
   44.5820   33.1350   41.1860 Br  0  0  0  0  0  0  0  0  0  0  0  0
   46.2800   33.9920   40.9440 C   0  0  0  0  0  0  0  0  0  0  0  0
   46.8260   34.7400   41.9610 C   0  0  0  0  0  0  0  0  0  0  0  0
   48.0630   35.3730   41.8030 C   0  0  0  0  0  0  0  0  0  0  0  0
   48.4090   35.9350   42.6530 H   0  0  0  0  0  0  0  0  0  0  0  0
   48.7130   35.2240   40.6070 C   0  0  0  0  0  0  0  0  0  0  0  0
   49.6810   35.7240   40.4950 H   0  0  0  0  0  0  0  0  0  0  0  0
   48.1300   34.4650   39.6160 C   0  0  0  0  0  0  0  0  0  0  0  0
   46.9310   33.8410   39.7420 C   0  0  0  0  0  0  0  0  0  0  0  0
  1  2  1  0  0  0  0
  1  7  1  0  0  0  0
  2  8  1  0  0  0  0
  3  9  1  0  0  0  0
  3  2  2  0  0  0  0
  4  3  1  0  0  0  0
  5  4  2  0  0  0  0
  5  6  1  0  0  0  0
  6  1  2  0  0  0  0
 11 10  1  0  0  0  0
 11 12  1  0  0  0  0
 12  5  1  0  0  0  0
 13 12  2  0  0  0  0
 13 14  1  0  0  0  0
 15 13  1  0  0  0  0
 16 15  1  0  0  0  0
 17 18  1  0  0  0  0
 17 15  2  0  0  0  0
 18 11  2  0  0  0  0
M  END
>  <minimizedAffinity>
-4.95995998

>  <minimizedRMSD>
6.00590372

$$$$
