
 OpenBabel03242521393D

 21 22  0  0  0  0  0  0  0  0999 V2000
   45.3690   35.1950   43.5440 C   0  0  0  0  0  0  0  0  0  0  0  0
   46.5300   34.7740   42.9020 C   0  0  0  0  0  0  0  0  0  0  0  0
   47.3370   33.8170   43.5230 C   0  0  0  0  0  0  0  0  0  0  0  0
   46.9280   33.3570   44.7240 N   0  0  0  0  0  0  0  0  0  0  0  0
   45.7950   33.7840   45.3230 C   0  0  0  0  0  0  0  0  0  0  0  0
   45.0140   34.7070   44.7300 N   0  0  0  0  0  0  0  0  0  0  0  0
   46.7780   35.1860   41.9590 H   0  0  0  0  0  0  0  0  0  0  0  0
   45.5390   33.3640   46.2890 H   0  0  0  0  0  0  0  0  0  0  0  0
   46.9410   31.0550   42.3340 Br  0  0  0  0  0  0  0  0  0  0  0  0
   48.5480   32.0910   42.3080 C   0  0  0  0  0  0  0  0  0  0  0  0
   48.5640   33.3380   42.8980 C   0  0  0  0  0  0  0  0  0  0  0  0
   49.7470   34.0240   42.8420 C   0  0  0  0  0  0  0  0  0  0  0  0
   49.7940   34.9980   43.2920 H   0  0  0  0  0  0  0  0  0  0  0  0
   50.8670   33.4940   42.2280 C   0  0  0  0  0  0  0  0  0  0  0  0
   51.7830   34.0890   42.2160 H   0  0  0  0  0  0  0  0  0  0  0  0
   50.8050   32.2410   41.6500 C   0  0  0  0  0  3  0  0  0  0  0  0
   49.6300   31.5080   41.6810 C   0  0  0  0  0  3  0  0  0  0  0  0
   44.5340   36.2190   42.8480 C   0  0  0  0  0  0  0  0  0  0  0  0
   43.4800   36.1910   43.1820 H   0  0  0  0  0  0  0  0  0  0  0  0
   44.6160   36.0760   41.7570 H   0  0  0  0  0  0  0  0  0  0  0  0
   45.0080   37.1950   43.0870 H   0  0  0  0  0  0  0  0  0  0  0  0
  1  6  1  0  0  0  0
  2  3  1  0  0  0  0
  2  1  2  0  0  0  0
  3  4  2  0  0  0  0
  4  5  1  0  0  0  0
  5  8  1  0  0  0  0
  6  5  2  0  0  0  0
  7  2  1  0  0  0  0
 10  9  1  0  0  0  0
 10 11  1  0  0  0  0
 11  3  1  0  0  0  0
 12 11  2  0  0  0  0
 12 13  1  0  0  0  0
 14 12  1  0  0  0  0
 15 14  1  0  0  0  0
 16 17  1  0  0  0  0
 16 14  2  0  0  0  0
 17 10  2  0  0  0  0
 18 21  1  0  0  0  0
 18 19  1  0  0  0  0
 18  1  1  0  0  0  0
 20 18  1  0  0  0  0
M  END
>  <minimizedAffinity>
-4.19682741

>  <minimizedRMSD>
1.55968356

$$$$
