
 OpenBabel03242516273D

 43 47  0  0  0  0  0  0  0  0999 V2000
   36.1500   26.6830   39.3370 C   0  0  0  0  0  0  0  0  0  0  0  0
   35.5100   26.5430   38.1440 N   0  0  0  0  0  0  0  0  0  0  0  0
   35.3920   25.3740   37.5090 C   0  0  0  0  0  0  0  0  0  0  0  0
   35.9390   24.2910   38.0900 N   0  0  0  0  0  0  0  0  0  0  0  0
   36.5930   24.3350   39.2710 C   0  0  0  0  0  0  0  0  0  0  0  0
   37.1510   23.2210   39.8650 C   0  0  0  0  0  0  0  0  0  0  0  0
   37.8030   23.3230   41.0730 C   0  0  0  0  0  0  0  0  0  0  0  0
   37.9250   24.5470   41.7390 C   0  0  0  0  0  0  0  0  0  0  0  0
   37.3510   25.6300   41.1040 C   0  0  0  0  0  0  0  0  0  0  0  0
   36.6980   25.5490   39.9020 C   0  0  0  0  0  0  0  0  0  0  0  0
   34.8690   25.3230   36.5590 H   0  0  0  0  0  0  0  0  0  0  0  0
   37.0270   22.3020   39.3080 H   0  0  0  0  0  0  0  0  0  0  0  0
   38.1850   22.3740   41.4120 H   0  0  0  0  0  0  0  0  0  0  0  0
   38.4540   24.5070   42.6750 H   0  0  0  0  0  0  0  0  0  0  0  0
   40.0300   26.7590   40.2870 Br  0  0  0  0  0  0  0  0  0  0  0  0
   38.7920   27.4140   41.5930 C   0  0  0  0  0  0  0  0  0  0  0  0
   37.5650   26.8200   41.9140 C   0  0  0  0  0  0  0  0  0  0  0  0
   36.7940   27.4220   42.9130 C   0  0  0  0  0  0  0  0  0  0  0  0
   35.8780   26.8540   43.0500 H   0  0  0  0  0  0  0  0  0  0  0  0
   37.2440   28.5490   43.5370 C   0  0  0  0  0  0  0  0  0  0  0  0
   36.5720   28.9170   44.2820 H   0  0  0  0  0  0  0  0  0  0  0  0
   38.4440   29.1250   43.2210 C   0  0  0  0  0  3  0  0  0  0  0  0
   39.2350   28.5630   42.2410 C   0  0  0  0  0  3  0  0  0  0  0  0
   36.3290   28.2230   40.1940 S   0  0  0  0  0  0  0  0  0  0  0  0
   37.9960   31.5940   38.7660 C   0  0  0  0  0  0  0  0  0  0  0  0
   37.5450   30.5830   39.5920 C   0  0  0  0  0  0  0  0  0  0  0  0
   36.8870   29.4840   39.0870 C   0  0  0  0  0  0  0  0  0  0  0  0
   36.6670   29.3820   37.7210 C   0  0  0  0  0  0  0  0  0  0  0  0
   37.0950   30.3560   36.8800 C   0  0  0  0  0  0  0  0  0  0  0  0
   37.7540   31.4470   37.4250 C   0  0  0  0  0  0  0  0  0  0  0  0
   37.7260   30.6800   40.6550 H   0  0  0  0  0  0  0  0  0  0  0  0
   36.1640   28.5650   37.2640 H   0  0  0  0  0  0  0  0  0  0  0  0
   36.9780   30.3790   35.8080 H   0  0  0  0  0  0  0  0  0  0  0  0
   38.1150   32.2520   36.7900 H   0  0  0  0  0  0  0  0  0  0  0  0
   40.7650   33.7780   39.7230 C   0  0  0  0  0  0  0  0  0  0  0  0
   40.1190   34.8720   40.3470 C   0  0  0  0  0  0  0  0  0  0  0  0
   38.7280   34.8580   40.4390 C   0  0  0  0  0  0  0  0  0  0  0  0
   38.0430   33.7970   39.9280 N   0  0  0  0  0  0  0  0  0  0  0  0
   38.6960   32.7570   39.3310 C   0  0  0  0  0  0  0  0  0  0  0  0
   40.0470   32.7570   39.2350 N   0  0  0  0  0  0  0  0  0  0  0  0
   41.8410   33.7410   39.6250 H   0  0  0  0  0  0  0  0  0  0  0  0
   40.6980   35.6930   40.7390 H   0  0  0  0  0  0  0  0  0  0  0  0
   38.1830   35.6680   40.9060 H   0  0  0  0  0  0  0  0  0  0  0  0
  1 10  1  0  0  0  0
  1 24  1  0  0  0  0
  2  1  2  0  0  0  0
  3  4  2  0  0  0  0
  3  2  1  0  0  0  0
  4  5  1  0  0  0  0
  5  6  2  0  0  0  0
  5 10  1  0  0  0  0
  6  7  1  0  0  0  0
  7 13  1  0  0  0  0
  7  8  2  0  0  0  0
  8 14  1  0  0  0  0
  9  8  1  0  0  0  0
  9 17  1  0  0  0  0
 10  9  2  0  0  0  0
 11  3  1  0  0  0  0
 12  6  1  0  0  0  0
 15 16  1  0  0  0  0
 16 17  2  0  0  0  0
 16 23  1  0  0  0  0
 17 18  1  0  0  0  0
 18 19  1  0  0  0  0
 18 20  2  0  0  0  0
 20 21  1  0  0  0  0
 22 20  1  0  0  0  0
 23 22  2  0  0  0  0
 25 39  1  0  0  0  0
 25 26  1  0  0  0  0
 26 31  1  0  0  0  0
 27 26  2  0  0  0  0
 27 24  1  0  0  0  0
 28 27  1  0  0  0  0
 29 30  1  0  0  0  0
 29 28  2  0  0  0  0
 30 25  2  0  0  0  0
 32 28  1  0  0  0  0
 33 29  1  0  0  0  0
 34 30  1  0  0  0  0
 35 36  1  0  0  0  0
 36 37  2  0  0  0  0
 36 42  1  0  0  0  0
 37 43  1  0  0  0  0
 38 37  1  0  0  0  0
 39 38  2  0  0  0  0
 40 39  1  0  0  0  0
 40 35  2  0  0  0  0
 41 35  1  0  0  0  0
M  END
>  <minimizedAffinity>
-7.22486448

$$$$

 OpenBabel03242516273D

 43 47  0  0  0  0  0  0  0  0999 V2000
   37.4180   27.3950   39.1670 C   0  0  0  0  0  0  0  0  0  0  0  0
   37.2260   27.8570   37.9020 N   0  0  0  0  0  0  0  0  0  0  0  0
   36.5640   27.1720   36.9650 C   0  0  0  0  0  0  0  0  0  0  0  0
   36.0690   25.9690   37.3060 N   0  0  0  0  0  0  0  0  0  0  0  0
   36.2110   25.4300   38.5370 C   0  0  0  0  0  0  0  0  0  0  0  0
   35.6990   24.1970   38.8830 C   0  0  0  0  0  0  0  0  0  0  0  0
   35.8700   23.6990   40.1540 C   0  0  0  0  0  0  0  0  0  0  0  0
   36.5620   24.4160   41.1360 C   0  0  0  0  0  0  0  0  0  0  0  0
   37.0540   25.6440   40.7400 C   0  0  0  0  0  0  0  0  0  0  0  0
   36.8950   26.1560   39.4800 C   0  0  0  0  0  0  0  0  0  0  0  0
   36.4430   27.5920   35.9720 H   0  0  0  0  0  0  0  0  0  0  0  0
   35.1730   23.6860   38.0870 H   0  0  0  0  0  0  0  0  0  0  0  0
   35.4180   22.7280   40.2780 H   0  0  0  0  0  0  0  0  0  0  0  0
   36.6330   23.9290   42.0930 H   0  0  0  0  0  0  0  0  0  0  0  0
   39.8980   24.6320   40.6590 Br  0  0  0  0  0  0  0  0  0  0  0  0
   39.0840   25.8450   41.8970 C   0  0  0  0  0  0  0  0  0  0  0  0
   37.7460   26.2590   41.8620 C   0  0  0  0  0  0  0  0  0  0  0  0
   37.3120   27.1350   42.8620 C   0  0  0  0  0  0  0  0  0  0  0  0
   36.2610   27.3650   42.7060 H   0  0  0  0  0  0  0  0  0  0  0  0
   38.1810   27.5560   43.8260 C   0  0  0  0  0  0  0  0  0  0  0  0
   37.7370   28.2200   44.5350 H   0  0  0  0  0  0  0  0  0  0  0  0
   39.4870   27.1480   43.8560 C   0  0  0  0  0  3  0  0  0  0  0  0
   39.9560   26.2850   42.8880 C   0  0  0  0  0  3  0  0  0  0  0  0
   38.3010   28.2780   40.4250 S   0  0  0  0  0  0  0  0  0  0  0  0
   38.9480   32.1680   39.6290 C   0  0  0  0  0  0  0  0  0  0  0  0
   39.0910   30.8030   39.7840 C   0  0  0  0  0  0  0  0  0  0  0  0
   38.0560   30.0200   40.2420 C   0  0  0  0  0  0  0  0  0  0  0  0
   36.8380   30.6060   40.5560 C   0  0  0  0  0  0  0  0  0  0  0  0
   36.6610   31.9430   40.4170 C   0  0  0  0  0  0  0  0  0  0  0  0
   37.7260   32.6990   39.9540 C   0  0  0  0  0  0  0  0  0  0  0  0
   40.0490   30.3630   39.5330 H   0  0  0  0  0  0  0  0  0  0  0  0
   35.9990   30.0640   40.9170 H   0  0  0  0  0  0  0  0  0  0  0  0
   35.7620   32.5000   40.6310 H   0  0  0  0  0  0  0  0  0  0  0  0
   37.6310   33.7750   39.8260 H   0  0  0  0  0  0  0  0  0  0  0  0
   41.7180   33.2300   37.4960 C   0  0  0  0  0  0  0  0  0  0  0  0
   42.1790   34.4130   38.1210 C   0  0  0  0  0  0  0  0  0  0  0  0
   41.5360   34.8450   39.2800 C   0  0  0  0  0  0  0  0  0  0  0  0
   40.4910   34.1180   39.7660 N   0  0  0  0  0  0  0  0  0  0  0  0
   40.0700   32.9820   39.1390 C   0  0  0  0  0  0  0  0  0  0  0  0
   40.6870   32.5480   38.0120 N   0  0  0  0  0  0  0  0  0  0  0  0
   42.1830   32.8520   36.5950 H   0  0  0  0  0  0  0  0  0  0  0  0
   43.0090   34.9600   37.7050 H   0  0  0  0  0  0  0  0  0  0  0  0
   41.8470   35.7430   39.7990 H   0  0  0  0  0  0  0  0  0  0  0  0
  1 10  1  0  0  0  0
  1 24  1  0  0  0  0
  2  1  2  0  0  0  0
  3  4  2  0  0  0  0
  3  2  1  0  0  0  0
  4  5  1  0  0  0  0
  5  6  2  0  0  0  0
  5 10  1  0  0  0  0
  6  7  1  0  0  0  0
  7 13  1  0  0  0  0
  7  8  2  0  0  0  0
  8 14  1  0  0  0  0
  9  8  1  0  0  0  0
  9 17  1  0  0  0  0
 10  9  2  0  0  0  0
 11  3  1  0  0  0  0
 12  6  1  0  0  0  0
 15 16  1  0  0  0  0
 16 23  1  0  0  0  0
 17 16  2  0  0  0  0
 17 18  1  0  0  0  0
 18 20  2  0  0  0  0
 19 18  1  0  0  0  0
 20 22  1  0  0  0  0
 20 21  1  0  0  0  0
 23 22  2  0  0  0  0
 25 26  2  0  0  0  0
 25 30  1  0  0  0  0
 26 27  1  0  0  0  0
 27 24  1  0  0  0  0
 27 28  2  0  0  0  0
 28 32  1  0  0  0  0
 29 28  1  0  0  0  0
 29 33  1  0  0  0  0
 30 29  2  0  0  0  0
 31 26  1  0  0  0  0
 34 30  1  0  0  0  0
 35 40  2  0  0  0  0
 35 36  1  0  0  0  0
 36 37  2  0  0  0  0
 37 38  1  0  0  0  0
 37 43  1  0  0  0  0
 39 25  1  0  0  0  0
 39 38  2  0  0  0  0
 40 39  1  0  0  0  0
 41 35  1  0  0  0  0
 42 36  1  0  0  0  0
M  END
>  <minimizedAffinity>
-6.83436918

$$$$

 OpenBabel03242516273D

 43 47  0  0  0  0  0  0  0  0999 V2000
   37.0030   30.6440   40.5140 C   0  0  0  0  0  0  0  0  0  0  0  0
   36.6010   31.6260   39.6630 N   0  0  0  0  0  0  0  0  0  0  0  0
   37.3250   32.7200   39.4120 C   0  0  0  0  0  0  0  0  0  0  0  0
   38.5080   32.8420   40.0410 N   0  0  0  0  0  0  0  0  0  0  0  0
   38.9880   31.9190   40.9020 C   0  0  0  0  0  0  0  0  0  0  0  0
   40.2030   32.0460   41.5440 C   0  0  0  0  0  0  0  0  0  0  0  0
   40.6450   31.0720   42.4080 C   0  0  0  0  0  0  0  0  0  0  0  0
   39.8880   29.9250   42.6700 C   0  0  0  0  0  0  0  0  0  0  0  0
   38.6800   29.8450   42.0050 C   0  0  0  0  0  0  0  0  0  0  0  0
   38.2230   30.8040   41.1400 C   0  0  0  0  0  0  0  0  0  0  0  0
   36.9520   33.4710   38.7220 H   0  0  0  0  0  0  0  0  0  0  0  0
   40.7470   32.9510   41.3050 H   0  0  0  0  0  0  0  0  0  0  0  0
   41.6080   31.3080   42.8330 H   0  0  0  0  0  0  0  0  0  0  0  0
   40.3320   29.2320   43.3620 H   0  0  0  0  0  0  0  0  0  0  0  0
   39.7390   27.7010   40.1610 Br  0  0  0  0  0  0  0  0  0  0  0  0
   38.4550   27.5510   41.5740 C   0  0  0  0  0  0  0  0  0  0  0  0
   38.0150   28.6070   42.3820 C   0  0  0  0  0  0  0  0  0  0  0  0
   37.0520   28.3220   43.3550 C   0  0  0  0  0  0  0  0  0  0  0  0
   36.8110   29.2320   43.8980 H   0  0  0  0  0  0  0  0  0  0  0  0
   36.5740   27.0510   43.4920 C   0  0  0  0  0  0  0  0  0  0  0  0
   35.8440   26.9540   44.2650 H   0  0  0  0  0  0  0  0  0  0  0  0
   37.0070   26.0230   42.6990 C   0  0  0  0  0  3  0  0  0  0  0  0
   37.9560   26.2610   41.7280 C   0  0  0  0  0  3  0  0  0  0  0  0
   36.0580   29.1890   40.8710 S   0  0  0  0  0  0  0  0  0  0  0  0
   33.8990   28.5440   37.5380 C   0  0  0  0  0  0  0  0  0  0  0  0
   34.4100   29.0730   38.7070 C   0  0  0  0  0  0  0  0  0  0  0  0
   35.4490   28.4670   39.3760 C   0  0  0  0  0  0  0  0  0  0  0  0
   36.0020   27.2980   38.8720 C   0  0  0  0  0  0  0  0  0  0  0  0
   35.5260   26.7490   37.7260 C   0  0  0  0  0  0  0  0  0  0  0  0
   34.4790   27.3880   37.0810 C   0  0  0  0  0  0  0  0  0  0  0  0
   33.9660   29.9860   39.0850 H   0  0  0  0  0  0  0  0  0  0  0  0
   36.8020   26.7760   39.3370 H   0  0  0  0  0  0  0  0  0  0  0  0
   35.8790   25.8490   37.2480 H   0  0  0  0  0  0  0  0  0  0  0  0
   34.0640   26.9850   36.1600 H   0  0  0  0  0  0  0  0  0  0  0  0
   31.9510   29.9620   34.7920 C   0  0  0  0  0  0  0  0  0  0  0  0
   30.7820   30.4410   35.4310 C   0  0  0  0  0  0  0  0  0  0  0  0
   30.6650   30.2760   36.8110 C   0  0  0  0  0  0  0  0  0  0  0  0
   31.6740   29.6620   37.4910 N   0  0  0  0  0  0  0  0  0  0  0  0
   32.7880   29.2110   36.8440 C   0  0  0  0  0  0  0  0  0  0  0  0
   32.9160   29.3650   35.5040 N   0  0  0  0  0  0  0  0  0  0  0  0
   32.0890   30.0650   33.7250 H   0  0  0  0  0  0  0  0  0  0  0  0
   30.0060   30.9210   34.8580 H   0  0  0  0  0  0  0  0  0  0  0  0
   29.7940   30.6230   37.3510 H   0  0  0  0  0  0  0  0  0  0  0  0
  1 24  1  0  0  0  0
  1 10  1  0  0  0  0
  2  1  2  0  0  0  0
  3  2  1  0  0  0  0
  3  4  2  0  0  0  0
  4  5  1  0  0  0  0
  5 10  2  0  0  0  0
  5  6  1  0  0  0  0
  6  7  2  0  0  0  0
  7  8  1  0  0  0  0
  7 13  1  0  0  0  0
  8 14  1  0  0  0  0
  9 17  1  0  0  0  0
  9  8  2  0  0  0  0
 10  9  1  0  0  0  0
 11  3  1  0  0  0  0
 12  6  1  0  0  0  0
 15 16  1  0  0  0  0
 16 23  2  0  0  0  0
 16 17  1  0  0  0  0
 17 18  2  0  0  0  0
 18 20  1  0  0  0  0
 18 19  1  0  0  0  0
 20 21  1  0  0  0  0
 22 20  2  0  0  0  0
 23 22  1  0  0  0  0
 25 26  1  0  0  0  0
 26 31  1  0  0  0  0
 26 27  2  0  0  0  0
 27 24  1  0  0  0  0
 28 32  1  0  0  0  0
 28 27  1  0  0  0  0
 29 28  2  0  0  0  0
 30 25  2  0  0  0  0
 30 29  1  0  0  0  0
 33 29  1  0  0  0  0
 34 30  1  0  0  0  0
 35 36  2  0  0  0  0
 35 40  1  0  0  0  0
 36 37  1  0  0  0  0
 37 43  1  0  0  0  0
 37 38  2  0  0  0  0
 39 38  1  0  0  0  0
 39 25  1  0  0  0  0
 40 39  2  0  0  0  0
 41 35  1  0  0  0  0
 42 36  1  0  0  0  0
M  END
>  <minimizedAffinity>
-6.74574184

$$$$

 OpenBabel03242516273D

 43 47  0  0  0  0  0  0  0  0999 V2000
   36.1410   27.1430   39.4010 C   0  0  0  0  0  0  0  0  0  0  0  0
   35.6400   27.3380   38.1520 N   0  0  0  0  0  0  0  0  0  0  0  0
   35.5050   26.3570   37.2550 C   0  0  0  0  0  0  0  0  0  0  0  0
   35.8900   25.1210   37.6220 N   0  0  0  0  0  0  0  0  0  0  0  0
   36.3990   24.8340   38.8390 C   0  0  0  0  0  0  0  0  0  0  0  0
   36.7900   23.5640   39.2120 C   0  0  0  0  0  0  0  0  0  0  0  0
   37.2980   23.3280   40.4680 C   0  0  0  0  0  0  0  0  0  0  0  0
   37.4370   24.3550   41.4090 C   0  0  0  0  0  0  0  0  0  0  0  0
   37.0330   25.6060   40.9870 C   0  0  0  0  0  0  0  0  0  0  0  0
   36.5240   25.8610   39.7410 C   0  0  0  0  0  0  0  0  0  0  0  0
   35.0990   26.5730   36.2720 H   0  0  0  0  0  0  0  0  0  0  0  0
   36.6600   22.8090   38.4480 H   0  0  0  0  0  0  0  0  0  0  0  0
   37.5590   22.2920   40.6160 H   0  0  0  0  0  0  0  0  0  0  0  0
   37.8450   24.0530   42.3570 H   0  0  0  0  0  0  0  0  0  0  0  0
   39.8720   26.5980   40.7220 Br  0  0  0  0  0  0  0  0  0  0  0  0
   38.5430   27.0760   42.0150 C   0  0  0  0  0  0  0  0  0  0  0  0
   37.2420   26.5580   42.0670 C   0  0  0  0  0  0  0  0  0  0  0  0
   36.4080   27.0030   43.0970 C   0  0  0  0  0  0  0  0  0  0  0  0
   35.4390   26.5180   43.0090 H   0  0  0  0  0  0  0  0  0  0  0  0
   36.8680   27.9100   44.0070 C   0  0  0  0  0  0  0  0  0  0  0  0
   36.1440   28.1730   44.7460 H   0  0  0  0  0  0  0  0  0  0  0  0
   38.1400   28.4120   43.9520 C   0  0  0  0  0  3  0  0  0  0  0  0
   38.9960   28.0000   42.9510 C   0  0  0  0  0  3  0  0  0  0  0  0
   36.3380   28.4290   40.6050 S   0  0  0  0  0  0  0  0  0  0  0  0
   38.9260   30.7590   38.5910 C   0  0  0  0  0  0  0  0  0  0  0  0
   38.2840   29.6840   39.1730 C   0  0  0  0  0  0  0  0  0  0  0  0
   37.1110   29.8420   39.8760 C   0  0  0  0  0  0  0  0  0  0  0  0
   36.5540   31.1060   40.0070 C   0  0  0  0  0  0  0  0  0  0  0  0
   37.1560   32.1850   39.4480 C   0  0  0  0  0  0  0  0  0  0  0  0
   38.3360   31.9870   38.7490 C   0  0  0  0  0  0  0  0  0  0  0  0
   38.7340   28.7040   39.0610 H   0  0  0  0  0  0  0  0  0  0  0  0
   35.6540   31.3020   40.5370 H   0  0  0  0  0  0  0  0  0  0  0  0
   36.8130   33.2070   39.4870 H   0  0  0  0  0  0  0  0  0  0  0  0
   38.8540   32.8210   38.2830 H   0  0  0  0  0  0  0  0  0  0  0  0
   42.0500   31.5880   36.8870 C   0  0  0  0  0  0  0  0  0  0  0  0
   42.5360   30.3290   36.4610 C   0  0  0  0  0  0  0  0  0  0  0  0
   41.7860   29.1920   36.7600 C   0  0  0  0  0  0  0  0  0  0  0  0
   40.6190   29.3320   37.4500 N   0  0  0  0  0  0  0  0  0  0  0  0
   40.1780   30.5620   37.8460 C   0  0  0  0  0  0  0  0  0  0  0  0
   40.8960   31.6750   37.5620 N   0  0  0  0  0  0  0  0  0  0  0  0
   42.5940   32.4990   36.6800 H   0  0  0  0  0  0  0  0  0  0  0  0
   43.4650   30.2600   35.9180 H   0  0  0  0  0  0  0  0  0  0  0  0
   42.1110   28.2040   36.4590 H   0  0  0  0  0  0  0  0  0  0  0  0
  1 10  1  0  0  0  0
  1 24  1  0  0  0  0
  2  1  2  0  0  0  0
  3  4  2  0  0  0  0
  3  2  1  0  0  0  0
  4  5  1  0  0  0  0
  5  6  2  0  0  0  0
  5 10  1  0  0  0  0
  6  7  1  0  0  0  0
  7 13  1  0  0  0  0
  7  8  2  0  0  0  0
  8 14  1  0  0  0  0
  9  8  1  0  0  0  0
  9 17  1  0  0  0  0
 10  9  2  0  0  0  0
 11  3  1  0  0  0  0
 12  6  1  0  0  0  0
 15 16  1  0  0  0  0
 16 17  2  0  0  0  0
 16 23  1  0  0  0  0
 17 18  1  0  0  0  0
 18 20  2  0  0  0  0
 19 18  1  0  0  0  0
 20 21  1  0  0  0  0
 22 20  1  0  0  0  0
 23 22  2  0  0  0  0
 25 30  2  0  0  0  0
 25 26  1  0  0  0  0
 26 27  2  0  0  0  0
 27 28  1  0  0  0  0
 27 24  1  0  0  0  0
 28 32  1  0  0  0  0
 29 33  1  0  0  0  0
 29 28  2  0  0  0  0
 30 29  1  0  0  0  0
 31 26  1  0  0  0  0
 34 30  1  0  0  0  0
 35 40  1  0  0  0  0
 36 37  1  0  0  0  0
 36 35  2  0  0  0  0
 37 38  2  0  0  0  0
 38 39  1  0  0  0  0
 39 25  1  0  0  0  0
 40 39  2  0  0  0  0
 41 35  1  0  0  0  0
 42 36  1  0  0  0  0
 43 37  1  0  0  0  0
M  END
>  <minimizedAffinity>
-6.74497938

$$$$

 OpenBabel03242516273D

 43 47  0  0  0  0  0  0  0  0999 V2000
   40.7140   30.7680   41.8220 C   0  0  0  0  0  0  0  0  0  0  0  0
   41.3310   29.9460   42.7140 N   0  0  0  0  0  0  0  0  0  0  0  0
   42.5070   30.2300   43.2810 C   0  0  0  0  0  0  0  0  0  0  0  0
   43.0980   31.3900   42.9400 N   0  0  0  0  0  0  0  0  0  0  0  0
   42.5620   32.2660   42.0640 C   0  0  0  0  0  0  0  0  0  0  0  0
   43.1700   33.4560   41.7200 C   0  0  0  0  0  0  0  0  0  0  0  0
   42.5750   34.3140   40.8240 C   0  0  0  0  0  0  0  0  0  0  0  0
   41.3420   34.0180   40.2320 C   0  0  0  0  0  0  0  0  0  0  0  0
   40.7750   32.8160   40.6080 C   0  0  0  0  0  0  0  0  0  0  0  0
   41.3520   31.9490   41.4990 C   0  0  0  0  0  0  0  0  0  0  0  0
   42.9510   29.5350   43.9860 H   0  0  0  0  0  0  0  0  0  0  0  0
   44.1200   33.6350   42.2060 H   0  0  0  0  0  0  0  0  0  0  0  0
   43.1650   35.2000   40.6530 H   0  0  0  0  0  0  0  0  0  0  0  0
   40.9740   34.7610   39.5480 H   0  0  0  0  0  0  0  0  0  0  0  0
   41.4130   31.5040   37.9650 Br  0  0  0  0  0  0  0  0  0  0  0  0
   39.7140   32.0410   38.6660 C   0  0  0  0  0  0  0  0  0  0  0  0
   39.5090   32.6520   39.9100 C   0  0  0  0  0  0  0  0  0  0  0  0
   38.1990   33.0000   40.2540 C   0  0  0  0  0  0  0  0  0  0  0  0
   38.1980   33.4610   41.2380 H   0  0  0  0  0  0  0  0  0  0  0  0
   37.1750   32.7420   39.3910 C   0  0  0  0  0  0  0  0  0  0  0  0
   36.2220   33.0520   39.7600 H   0  0  0  0  0  0  0  0  0  0  0  0
   37.3810   32.1450   38.1770 C   0  0  0  0  0  3  0  0  0  0  0  0
   38.6570   31.7850   37.7990 C   0  0  0  0  0  3  0  0  0  0  0  0
   39.1600   30.4100   41.0500 S   0  0  0  0  0  0  0  0  0  0  0  0
   37.4750   26.8380   41.8130 C   0  0  0  0  0  0  0  0  0  0  0  0
   38.1080   27.9040   41.2050 C   0  0  0  0  0  0  0  0  0  0  0  0
   38.3510   29.0770   41.8840 C   0  0  0  0  0  0  0  0  0  0  0  0
   37.9550   29.1990   43.2080 C   0  0  0  0  0  0  0  0  0  0  0  0
   37.3310   28.1720   43.8380 C   0  0  0  0  0  0  0  0  0  0  0  0
   37.1030   27.0080   43.1220 C   0  0  0  0  0  0  0  0  0  0  0  0
   38.4100   27.7900   40.1710 H   0  0  0  0  0  0  0  0  0  0  0  0
   38.1070   30.0740   43.7910 H   0  0  0  0  0  0  0  0  0  0  0  0
   36.9820   28.1590   44.8590 H   0  0  0  0  0  0  0  0  0  0  0  0
   36.6070   26.1590   43.5850 H   0  0  0  0  0  0  0  0  0  0  0  0
   37.5890   23.2870   40.9590 C   0  0  0  0  0  0  0  0  0  0  0  0
   36.8360   23.2120   39.7630 C   0  0  0  0  0  0  0  0  0  0  0  0
   36.2880   24.3870   39.2490 C   0  0  0  0  0  0  0  0  0  0  0  0
   36.4960   25.5590   39.9130 N   0  0  0  0  0  0  0  0  0  0  0  0
   37.2270   25.5960   41.0650 C   0  0  0  0  0  0  0  0  0  0  0  0
   37.7660   24.4630   41.5760 N   0  0  0  0  0  0  0  0  0  0  0  0
   38.0340   22.4050   41.3990 H   0  0  0  0  0  0  0  0  0  0  0  0
   36.6940   22.2660   39.2680 H   0  0  0  0  0  0  0  0  0  0  0  0
   35.7040   24.3880   38.3380 H   0  0  0  0  0  0  0  0  0  0  0  0
  1  2  1  0  0  0  0
  2  3  2  0  0  0  0
  3 11  1  0  0  0  0
  4  3  1  0  0  0  0
  5  4  2  0  0  0  0
  6  5  1  0  0  0  0
  6 12  1  0  0  0  0
  7  6  2  0  0  0  0
  8  9  2  0  0  0  0
  8  7  1  0  0  0  0
  9 10  1  0  0  0  0
 10  1  2  0  0  0  0
 10  5  1  0  0  0  0
 13  7  1  0  0  0  0
 14  8  1  0  0  0  0
 15 16  1  0  0  0  0
 16 17  1  0  0  0  0
 17 18  2  0  0  0  0
 17  9  1  0  0  0  0
 18 19  1  0  0  0  0
 20 21  1  0  0  0  0
 20 18  1  0  0  0  0
 22 20  2  0  0  0  0
 23 22  1  0  0  0  0
 23 16  2  0  0  0  0
 24  1  1  0  0  0  0
 24 27  1  0  0  0  0
 25 30  1  0  0  0  0
 26 25  2  0  0  0  0
 26 27  1  0  0  0  0
 27 28  2  0  0  0  0
 28 32  1  0  0  0  0
 28 29  1  0  0  0  0
 29 33  1  0  0  0  0
 30 34  1  0  0  0  0
 30 29  2  0  0  0  0
 31 26  1  0  0  0  0
 35 41  1  0  0  0  0
 35 40  1  0  0  0  0
 36 35  2  0  0  0  0
 37 36  1  0  0  0  0
 37 38  2  0  0  0  0
 38 39  1  0  0  0  0
 39 40  2  0  0  0  0
 39 25  1  0  0  0  0
 42 36  1  0  0  0  0
 43 37  1  0  0  0  0
M  END
>  <minimizedAffinity>
-6.74338484

$$$$

 OpenBabel03242516273D

 43 47  0  0  0  0  0  0  0  0999 V2000
   36.8910   28.9170   41.3390 C   0  0  0  0  0  0  0  0  0  0  0  0
   37.2840   29.3600   42.5640 N   0  0  0  0  0  0  0  0  0  0  0  0
   37.6470   28.5430   43.5570 C   0  0  0  0  0  0  0  0  0  0  0  0
   37.6170   27.2200   43.3170 N   0  0  0  0  0  0  0  0  0  0  0  0
   37.2410   26.6900   42.1330 C   0  0  0  0  0  0  0  0  0  0  0  0
   37.2140   25.3320   41.8900 C   0  0  0  0  0  0  0  0  0  0  0  0
   36.8270   24.8460   40.6630 C   0  0  0  0  0  0  0  0  0  0  0  0
   36.4480   25.7020   39.6220 C   0  0  0  0  0  0  0  0  0  0  0  0
   36.4910   27.0500   39.9150 C   0  0  0  0  0  0  0  0  0  0  0  0
   36.8740   27.5530   41.1310 C   0  0  0  0  0  0  0  0  0  0  0  0
   37.9510   28.9550   44.5140 H   0  0  0  0  0  0  0  0  0  0  0  0
   37.5170   24.7170   42.7280 H   0  0  0  0  0  0  0  0  0  0  0  0
   36.8550   23.7690   40.6210 H   0  0  0  0  0  0  0  0  0  0  0  0
   36.1640   25.2110   38.7080 H   0  0  0  0  0  0  0  0  0  0  0  0
   38.9180   27.3110   38.1380 Br  0  0  0  0  0  0  0  0  0  0  0  0
   37.1410   27.9650   37.8560 C   0  0  0  0  0  0  0  0  0  0  0  0
   36.0690   27.8020   38.7430 C   0  0  0  0  0  0  0  0  0  0  0  0
   34.8400   28.3670   38.3870 C   0  0  0  0  0  0  0  0  0  0  0  0
   34.1110   28.1600   39.1660 H   0  0  0  0  0  0  0  0  0  0  0  0
   34.7170   29.0480   37.2110 C   0  0  0  0  0  0  0  0  0  0  0  0
   33.7350   29.4350   37.0480 H   0  0  0  0  0  0  0  0  0  0  0  0
   35.7680   29.2060   36.3490 C   0  0  0  0  0  3  0  0  0  0  0  0
   36.9960   28.6640   36.6620 C   0  0  0  0  0  3  0  0  0  0  0  0
   36.3950   29.9790   40.0100 S   0  0  0  0  0  0  0  0  0  0  0  0
   39.6880   31.9610   38.8230 C   0  0  0  0  0  0  0  0  0  0  0  0
   38.7260   30.9940   39.0360 C   0  0  0  0  0  0  0  0  0  0  0  0
   37.5900   31.2600   39.7660 C   0  0  0  0  0  0  0  0  0  0  0  0
   37.3980   32.5250   40.3040 C   0  0  0  0  0  0  0  0  0  0  0  0
   38.3220   33.5000   40.1150 C   0  0  0  0  0  0  0  0  0  0  0  0
   39.4530   33.1950   39.3750 C   0  0  0  0  0  0  0  0  0  0  0  0
   38.8920   30.0130   38.6090 H   0  0  0  0  0  0  0  0  0  0  0  0
   36.5490   32.7990   40.8800 H   0  0  0  0  0  0  0  0  0  0  0  0
   38.2760   34.5120   40.4860 H   0  0  0  0  0  0  0  0  0  0  0  0
   40.2210   33.9440   39.1970 H   0  0  0  0  0  0  0  0  0  0  0  0
   42.0540   30.0220   36.8250 C   0  0  0  0  0  0  0  0  0  0  0  0
   43.0940   30.9450   36.5600 C   0  0  0  0  0  0  0  0  0  0  0  0
   42.9800   32.2380   37.0700 C   0  0  0  0  0  0  0  0  0  0  0  0
   41.8780   32.5650   37.8020 N   0  0  0  0  0  0  0  0  0  0  0  0
   40.8930   31.6510   38.0390 C   0  0  0  0  0  0  0  0  0  0  0  0
   40.9900   30.3910   37.5500 N   0  0  0  0  0  0  0  0  0  0  0  0
   42.0940   29.0080   36.4520 H   0  0  0  0  0  0  0  0  0  0  0  0
   43.9500   30.6470   35.9770 H   0  0  0  0  0  0  0  0  0  0  0  0
   43.7450   32.9840   36.8980 H   0  0  0  0  0  0  0  0  0  0  0  0
  1  2  1  0  0  0  0
  2  3  2  0  0  0  0
  3 11  1  0  0  0  0
  4  3  1  0  0  0  0
  5  4  2  0  0  0  0
  6  5  1  0  0  0  0
  6 12  1  0  0  0  0
  7  6  2  0  0  0  0
  8  9  2  0  0  0  0
  8  7  1  0  0  0  0
  9 10  1  0  0  0  0
 10  1  2  0  0  0  0
 10  5  1  0  0  0  0
 13  7  1  0  0  0  0
 14  8  1  0  0  0  0
 16 15  1  0  0  0  0
 16 17  1  0  0  0  0
 17  9  1  0  0  0  0
 18 17  2  0  0  0  0
 18 19  1  0  0  0  0
 20 18  1  0  0  0  0
 21 20  1  0  0  0  0
 22 23  1  0  0  0  0
 22 20  2  0  0  0  0
 23 16  2  0  0  0  0
 24  1  1  0  0  0  0
 25 26  2  0  0  0  0
 25 30  1  0  0  0  0
 26 27  1  0  0  0  0
 27 24  1  0  0  0  0
 27 28  2  0  0  0  0
 28 32  1  0  0  0  0
 29 28  1  0  0  0  0
 29 33  1  0  0  0  0
 30 29  2  0  0  0  0
 31 26  1  0  0  0  0
 34 30  1  0  0  0  0
 35 40  1  0  0  0  0
 36 35  2  0  0  0  0
 36 37  1  0  0  0  0
 37 38  2  0  0  0  0
 38 39  1  0  0  0  0
 39 25  1  0  0  0  0
 40 39  2  0  0  0  0
 41 35  1  0  0  0  0
 42 36  1  0  0  0  0
 43 37  1  0  0  0  0
M  END
>  <minimizedAffinity>
-6.72734308

$$$$

 OpenBabel03242516273D

 43 47  0  0  0  0  0  0  0  0999 V2000
   36.7410   28.7560   41.6820 C   0  0  0  0  0  0  0  0  0  0  0  0
   37.0350   29.0910   42.9680 N   0  0  0  0  0  0  0  0  0  0  0  0
   37.4400   28.2050   43.8820 C   0  0  0  0  0  0  0  0  0  0  0  0
   37.5570   26.9220   43.4960 N   0  0  0  0  0  0  0  0  0  0  0  0
   37.2870   26.4970   42.2430 C   0  0  0  0  0  0  0  0  0  0  0  0
   37.4120   25.1800   41.8500 C   0  0  0  0  0  0  0  0  0  0  0  0
   37.1270   24.8040   40.5580 C   0  0  0  0  0  0  0  0  0  0  0  0
   36.7050   25.7320   39.5990 C   0  0  0  0  0  0  0  0  0  0  0  0
   36.5960   27.0350   40.0420 C   0  0  0  0  0  0  0  0  0  0  0  0
   36.8740   27.4290   41.3240 C   0  0  0  0  0  0  0  0  0  0  0  0
   37.6600   28.5310   44.8930 H   0  0  0  0  0  0  0  0  0  0  0  0
   37.7420   24.5050   42.6290 H   0  0  0  0  0  0  0  0  0  0  0  0
   37.2690   23.7470   40.3980 H   0  0  0  0  0  0  0  0  0  0  0  0
   36.5110   25.3240   38.6230 H   0  0  0  0  0  0  0  0  0  0  0  0
   39.0740   27.8900   38.5430 Br  0  0  0  0  0  0  0  0  0  0  0  0
   37.2400   28.3110   38.1820 C   0  0  0  0  0  0  0  0  0  0  0  0
   36.1460   27.8720   38.9390 C   0  0  0  0  0  0  0  0  0  0  0  0
   34.8730   28.2950   38.5450 C   0  0  0  0  0  0  0  0  0  0  0  0
   34.1310   27.8780   39.2210 H   0  0  0  0  0  0  0  0  0  0  0  0
   34.7290   29.1070   37.4580 C   0  0  0  0  0  0  0  0  0  0  0  0
   33.7130   29.3650   37.2540 H   0  0  0  0  0  0  0  0  0  0  0  0
   35.8010   29.5340   36.7230 C   0  0  0  0  0  3  0  0  0  0  0  0
   37.0740   29.1390   37.0770 C   0  0  0  0  0  3  0  0  0  0  0  0
   36.1930   29.9100   40.4550 S   0  0  0  0  0  0  0  0  0  0  0  0
   39.4650   32.2120   40.8710 C   0  0  0  0  0  0  0  0  0  0  0  0
   38.5580   31.1730   40.9280 C   0  0  0  0  0  0  0  0  0  0  0  0
   37.3140   31.2720   40.3450 C   0  0  0  0  0  0  0  0  0  0  0  0
   36.9560   32.4390   39.6840 C   0  0  0  0  0  0  0  0  0  0  0  0
   37.8220   33.4810   39.6090 C   0  0  0  0  0  0  0  0  0  0  0  0
   39.0640   33.3440   40.2080 C   0  0  0  0  0  0  0  0  0  0  0  0
   38.8550   30.2700   41.4480 H   0  0  0  0  0  0  0  0  0  0  0  0
   36.0140   32.5860   39.2150 H   0  0  0  0  0  0  0  0  0  0  0  0
   37.6490   34.4290   39.1230 H   0  0  0  0  0  0  0  0  0  0  0  0
   39.7910   34.1520   40.1730 H   0  0  0  0  0  0  0  0  0  0  0  0
   42.0570   30.9920   43.1390 C   0  0  0  0  0  0  0  0  0  0  0  0
   43.1990   31.7390   42.7640 C   0  0  0  0  0  0  0  0  0  0  0  0
   43.0770   32.6650   41.7290 C   0  0  0  0  0  0  0  0  0  0  0  0
   41.8680   32.8170   41.1180 N   0  0  0  0  0  0  0  0  0  0  0  0
   40.7860   32.0800   41.5030 C   0  0  0  0  0  0  0  0  0  0  0  0
   40.8900   31.1770   42.5080 N   0  0  0  0  0  0  0  0  0  0  0  0
   42.1000   30.2610   43.9340 H   0  0  0  0  0  0  0  0  0  0  0  0
   44.1380   31.5890   43.2720 H   0  0  0  0  0  0  0  0  0  0  0  0
   43.9180   33.2630   41.4020 H   0  0  0  0  0  0  0  0  0  0  0  0
  1  2  1  0  0  0  0
  2  3  2  0  0  0  0
  3 11  1  0  0  0  0
  4  3  1  0  0  0  0
  5  4  2  0  0  0  0
  6  5  1  0  0  0  0
  6 12  1  0  0  0  0
  7  6  2  0  0  0  0
  8  9  2  0  0  0  0
  8  7  1  0  0  0  0
  9 10  1  0  0  0  0
 10  1  2  0  0  0  0
 10  5  1  0  0  0  0
 13  7  1  0  0  0  0
 14  8  1  0  0  0  0
 16 15  1  0  0  0  0
 16 17  1  0  0  0  0
 17  9  1  0  0  0  0
 18 17  2  0  0  0  0
 18 19  1  0  0  0  0
 20 18  1  0  0  0  0
 21 20  1  0  0  0  0
 22 23  1  0  0  0  0
 22 20  2  0  0  0  0
 23 16  2  0  0  0  0
 24  1  1  0  0  0  0
 25 26  1  0  0  0  0
 25 39  1  0  0  0  0
 26 31  1  0  0  0  0
 27 24  1  0  0  0  0
 27 26  2  0  0  0  0
 28 27  1  0  0  0  0
 29 28  2  0  0  0  0
 29 30  1  0  0  0  0
 30 25  2  0  0  0  0
 32 28  1  0  0  0  0
 33 29  1  0  0  0  0
 34 30  1  0  0  0  0
 35 41  1  0  0  0  0
 36 35  1  0  0  0  0
 36 42  1  0  0  0  0
 37 36  2  0  0  0  0
 38 39  2  0  0  0  0
 38 37  1  0  0  0  0
 39 40  1  0  0  0  0
 40 35  2  0  0  0  0
 43 37  1  0  0  0  0
M  END
>  <minimizedAffinity>
-6.69728041

$$$$

 OpenBabel03242516273D

 43 47  0  0  0  0  0  0  0  0999 V2000
   40.4410   30.2270   42.4980 C   0  0  0  0  0  0  0  0  0  0  0  0
   41.1520   31.3610   42.2560 N   0  0  0  0  0  0  0  0  0  0  0  0
   42.4810   31.4330   42.3770 C   0  0  0  0  0  0  0  0  0  0  0  0
   43.1320   30.3190   42.7590 N   0  0  0  0  0  0  0  0  0  0  0  0
   42.5100   29.1490   43.0200 C   0  0  0  0  0  0  0  0  0  0  0  0
   43.1820   28.0080   43.4090 C   0  0  0  0  0  0  0  0  0  0  0  0
   42.4980   26.8410   43.6580 C   0  0  0  0  0  0  0  0  0  0  0  0
   41.1070   26.7650   43.5290 C   0  0  0  0  0  0  0  0  0  0  0  0
   40.4810   27.9330   43.1390 C   0  0  0  0  0  0  0  0  0  0  0  0
   41.1450   29.1040   42.8860 C   0  0  0  0  0  0  0  0  0  0  0  0
   42.9940   32.3660   42.1710 H   0  0  0  0  0  0  0  0  0  0  0  0
   44.2560   28.1220   43.4920 H   0  0  0  0  0  0  0  0  0  0  0  0
   43.1530   26.0370   43.9510 H   0  0  0  0  0  0  0  0  0  0  0  0
   40.6790   25.8030   43.7490 H   0  0  0  0  0  0  0  0  0  0  0  0
   39.9440   26.8860   40.3580 Br  0  0  0  0  0  0  0  0  0  0  0  0
   38.7100   27.1990   41.7890 C   0  0  0  0  0  0  0  0  0  0  0  0
   39.0480   27.6950   43.0550 C   0  0  0  0  0  0  0  0  0  0  0  0
   38.0120   27.8840   43.9750 C   0  0  0  0  0  0  0  0  0  0  0  0
   38.4250   28.2700   44.9040 H   0  0  0  0  0  0  0  0  0  0  0  0
   36.7270   27.5880   43.6270 C   0  0  0  0  0  0  0  0  0  0  0  0
   36.0230   27.7740   44.4100 H   0  0  0  0  0  0  0  0  0  0  0  0
   36.4020   27.1050   42.3890 C   0  0  0  0  0  3  0  0  0  0  0  0
   37.3920   26.9030   41.4520 C   0  0  0  0  0  3  0  0  0  0  0  0
   38.6790   30.1080   42.3530 S   0  0  0  0  0  0  0  0  0  0  0  0
   37.0960   30.9090   38.7430 C   0  0  0  0  0  0  0  0  0  0  0  0
   37.5450   30.2740   39.8840 C   0  0  0  0  0  0  0  0  0  0  0  0
   38.1180   30.9770   40.9190 C   0  0  0  0  0  0  0  0  0  0  0  0
   38.2520   32.3550   40.8230 C   0  0  0  0  0  0  0  0  0  0  0  0
   37.8230   33.0120   39.7160 C   0  0  0  0  0  0  0  0  0  0  0  0
   37.2510   32.2700   38.6950 C   0  0  0  0  0  0  0  0  0  0  0  0
   37.4320   29.1980   39.9420 H   0  0  0  0  0  0  0  0  0  0  0  0
   38.6870   32.9600   41.5800 H   0  0  0  0  0  0  0  0  0  0  0  0
   37.8780   34.0750   39.5360 H   0  0  0  0  0  0  0  0  0  0  0  0
   36.8920   32.7540   37.7900 H   0  0  0  0  0  0  0  0  0  0  0  0
   34.7590   28.6850   37.0270 C   0  0  0  0  0  0  0  0  0  0  0  0
   35.2580   28.6440   35.7030 C   0  0  0  0  0  0  0  0  0  0  0  0
   36.4010   29.3820   35.4000 C   0  0  0  0  0  0  0  0  0  0  0  0
   36.9940   30.1150   36.3840 N   0  0  0  0  0  0  0  0  0  0  0  0
   36.4880   30.1330   37.6520 C   0  0  0  0  0  0  0  0  0  0  0  0
   35.3780   29.4190   37.9610 N   0  0  0  0  0  0  0  0  0  0  0  0
   33.8760   28.1300   37.3120 H   0  0  0  0  0  0  0  0  0  0  0  0
   34.7590   28.0520   34.9520 H   0  0  0  0  0  0  0  0  0  0  0  0
   36.8250   29.3870   34.4040 H   0  0  0  0  0  0  0  0  0  0  0  0
  1 10  1  0  0  0  0
  2  3  1  0  0  0  0
  2  1  2  0  0  0  0
  3  4  2  0  0  0  0
  4  5  1  0  0  0  0
  5  6  1  0  0  0  0
  6 12  1  0  0  0  0
  6  7  2  0  0  0  0
  7 13  1  0  0  0  0
  8  7  1  0  0  0  0
  8 14  1  0  0  0  0
  9  8  2  0  0  0  0
 10  5  2  0  0  0  0
 10  9  1  0  0  0  0
 11  3  1  0  0  0  0
 15 16  1  0  0  0  0
 16 17  1  0  0  0  0
 17  9  1  0  0  0  0
 17 18  2  0  0  0  0
 18 19  1  0  0  0  0
 20 18  1  0  0  0  0
 20 21  1  0  0  0  0
 22 20  2  0  0  0  0
 23 16  2  0  0  0  0
 23 22  1  0  0  0  0
 24  1  1  0  0  0  0
 25 26  1  0  0  0  0
 26 31  1  0  0  0  0
 26 27  2  0  0  0  0
 27 24  1  0  0  0  0
 28 27  1  0  0  0  0
 28 32  1  0  0  0  0
 29 28  2  0  0  0  0
 30 25  2  0  0  0  0
 30 29  1  0  0  0  0
 33 29  1  0  0  0  0
 34 30  1  0  0  0  0
 35 41  1  0  0  0  0
 35 40  1  0  0  0  0
 36 35  2  0  0  0  0
 37 36  1  0  0  0  0
 37 38  2  0  0  0  0
 38 39  1  0  0  0  0
 39 40  2  0  0  0  0
 39 25  1  0  0  0  0
 42 36  1  0  0  0  0
 43 37  1  0  0  0  0
M  END
>  <minimizedAffinity>
-6.54541302

$$$$

 OpenBabel03242516273D

 43 47  0  0  0  0  0  0  0  0999 V2000
   37.1070   28.7410   41.5940 C   0  0  0  0  0  0  0  0  0  0  0  0
   36.9230   30.0520   41.9060 N   0  0  0  0  0  0  0  0  0  0  0  0
   36.2790   30.9110   41.1110 C   0  0  0  0  0  0  0  0  0  0  0  0
   35.7970   30.4400   39.9470 N   0  0  0  0  0  0  0  0  0  0  0  0
   35.9320   29.1550   39.5540 C   0  0  0  0  0  0  0  0  0  0  0  0
   35.4330   28.6750   38.3600 C   0  0  0  0  0  0  0  0  0  0  0  0
   35.5960   27.3540   38.0120 C   0  0  0  0  0  0  0  0  0  0  0  0
   36.2690   26.4540   38.8460 C   0  0  0  0  0  0  0  0  0  0  0  0
   36.7490   26.9830   40.0280 C   0  0  0  0  0  0  0  0  0  0  0  0
   36.5970   28.2950   40.3920 C   0  0  0  0  0  0  0  0  0  0  0  0
   36.1630   31.9470   41.4130 H   0  0  0  0  0  0  0  0  0  0  0  0
   34.9220   29.4130   37.7550 H   0  0  0  0  0  0  0  0  0  0  0  0
   35.1560   27.1250   37.0550 H   0  0  0  0  0  0  0  0  0  0  0  0
   36.3360   25.4470   38.4720 H   0  0  0  0  0  0  0  0  0  0  0  0
   39.5740   26.8420   38.9700 Br  0  0  0  0  0  0  0  0  0  0  0  0
   38.7490   25.8010   40.3500 C   0  0  0  0  0  0  0  0  0  0  0  0
   37.4210   25.9310   40.7770 C   0  0  0  0  0  0  0  0  0  0  0  0
   36.9760   25.0700   41.7840 C   0  0  0  0  0  0  0  0  0  0  0  0
   35.9350   25.2880   42.0080 H   0  0  0  0  0  0  0  0  0  0  0  0
   37.8260   24.1450   42.3170 C   0  0  0  0  0  0  0  0  0  0  0  0
   37.3750   23.5440   43.0770 H   0  0  0  0  0  0  0  0  0  0  0  0
   39.1220   24.0220   41.8960 C   0  0  0  0  0  3  0  0  0  0  0  0
   39.6010   24.8510   40.9050 C   0  0  0  0  0  3  0  0  0  0  0  0
   37.9640   27.5850   42.6270 S   0  0  0  0  0  0  0  0  0  0  0  0
   41.3260   29.7940   42.6030 C   0  0  0  0  0  0  0  0  0  0  0  0
   40.0320   29.3440   42.4280 C   0  0  0  0  0  0  0  0  0  0  0  0
   39.6330   28.1090   42.8860 C   0  0  0  0  0  0  0  0  0  0  0  0
   40.5440   27.2900   43.5390 C   0  0  0  0  0  0  0  0  0  0  0  0
   41.8240   27.6990   43.7290 C   0  0  0  0  0  0  0  0  0  0  0  0
   42.1880   28.9490   43.2540 C   0  0  0  0  0  0  0  0  0  0  0  0
   39.3350   29.9960   41.9160 H   0  0  0  0  0  0  0  0  0  0  0  0
   40.3070   26.3260   43.9150 H   0  0  0  0  0  0  0  0  0  0  0  0
   42.6100   27.1480   44.2200 H   0  0  0  0  0  0  0  0  0  0  0  0
   43.2020   29.3190   43.3830 H   0  0  0  0  0  0  0  0  0  0  0  0
   43.2430   32.8890   42.2960 C   0  0  0  0  0  0  0  0  0  0  0  0
   42.5760   33.5870   41.2620 C   0  0  0  0  0  0  0  0  0  0  0  0
   41.4630   32.9920   40.6690 C   0  0  0  0  0  0  0  0  0  0  0  0
   41.0600   31.7650   41.1040 N   0  0  0  0  0  0  0  0  0  0  0  0
   41.7260   31.1180   42.1040 C   0  0  0  0  0  0  0  0  0  0  0  0
   42.8090   31.6850   42.6900 N   0  0  0  0  0  0  0  0  0  0  0  0
   44.1110   33.3070   42.7870 H   0  0  0  0  0  0  0  0  0  0  0  0
   42.9260   34.5570   40.9460 H   0  0  0  0  0  0  0  0  0  0  0  0
   40.9150   33.4810   39.8740 H   0  0  0  0  0  0  0  0  0  0  0  0
  1  2  1  0  0  0  0
  1 24  1  0  0  0  0
  3 11  1  0  0  0  0
  3  2  2  0  0  0  0
  4  3  1  0  0  0  0
  5  4  2  0  0  0  0
  5 10  1  0  0  0  0
  6  5  1  0  0  0  0
  7  6  2  0  0  0  0
  7  8  1  0  0  0  0
  8  9  2  0  0  0  0
  9 10  1  0  0  0  0
  9 17  1  0  0  0  0
 10  1  2  0  0  0  0
 12  6  1  0  0  0  0
 13  7  1  0  0  0  0
 14  8  1  0  0  0  0
 15 16  1  0  0  0  0
 16 17  2  0  0  0  0
 16 23  1  0  0  0  0
 17 18  1  0  0  0  0
 18 19  1  0  0  0  0
 18 20  2  0  0  0  0
 20 21  1  0  0  0  0
 22 20  1  0  0  0  0
 23 22  2  0  0  0  0
 24 27  1  0  0  0  0
 25 30  1  0  0  0  0
 26 25  2  0  0  0  0
 26 27  1  0  0  0  0
 27 28  2  0  0  0  0
 28 29  1  0  0  0  0
 28 32  1  0  0  0  0
 29 33  1  0  0  0  0
 30 34  1  0  0  0  0
 30 29  2  0  0  0  0
 31 26  1  0  0  0  0
 35 40  1  0  0  0  0
 35 41  1  0  0  0  0
 36 35  2  0  0  0  0
 37 38  2  0  0  0  0
 37 36  1  0  0  0  0
 38 39  1  0  0  0  0
 39 25  1  0  0  0  0
 39 40  2  0  0  0  0
 42 36  1  0  0  0  0
 43 37  1  0  0  0  0
M  END
>  <minimizedAffinity>
-6.54397726

$$$$
