
 OpenBabel03242522043D

 35 37  0  0  1  0  0  0  0  0999 V2000
   39.7330   30.5950   40.0310 N   0  0  0  0  0  0  0  0  0  0  0  0
   39.6850   30.2410   38.6240 C   0  0  0  0  0  0  0  0  0  0  0  0
   39.9400   31.4240   37.7450 C   0  0  0  0  0  0  0  0  0  0  0  0
   39.1560   32.5590   38.0310 N   0  0  0  0  0  0  0  0  0  0  0  0
   38.8660   32.8040   39.3970 C   0  0  2  0  0  0  0  0  0  0  0  0
   39.5260   31.9640   40.4210 C   0  0  0  0  0  0  0  0  0  0  0  0
   38.7420   29.7250   38.3550 H   0  0  0  0  0  0  0  0  0  0  0  0
   40.5100   29.5110   38.4370 H   0  0  0  0  0  0  0  0  0  0  0  0
   41.0190   31.6860   37.8190 H   0  0  0  0  0  0  0  0  0  0  0  0
   39.7370   31.0850   36.6890 H   0  0  0  0  0  0  0  0  0  0  0  0
   38.3630   32.7570   37.4020 H   0  0  0  0  0  0  0  0  0  0  0  0
   39.1200   33.8790   39.5980 H   0  0  0  0  0  0  0  0  0  0  0  0
   40.5160   32.3920   40.7030 H   0  0  0  0  0  0  0  0  0  0  0  0
   38.9180   31.9870   41.3530 H   0  0  0  0  0  0  0  0  0  0  0  0
   41.0040   28.7220   43.0190 C   0  0  0  0  0  0  0  0  0  0  0  0
   40.8460   29.7790   42.1040 C   0  0  0  0  0  0  0  0  0  0  0  0
   39.9790   29.6060   41.0240 C   0  0  0  0  0  0  0  0  0  0  0  0
   39.3580   28.4100   40.9510 N   0  0  0  0  0  0  0  0  0  0  0  0
   39.5190   27.4110   41.8300 C   0  0  0  0  0  0  0  0  0  0  0  0
   40.3490   27.5740   42.8680 N   0  0  0  0  0  0  0  0  0  0  0  0
   41.6700   28.8530   43.8520 H   0  0  0  0  0  0  0  0  0  0  0  0
   41.3580   30.7200   42.1920 H   0  0  0  0  0  0  0  0  0  0  0  0
   36.8230   27.4460   43.2060 Br  0  0  0  0  0  0  0  0  0  0  0  0
   37.5500   25.9930   42.2240 C   0  0  0  0  0  0  0  0  0  0  0  0
   38.8000   26.1580   41.6630 C   0  0  0  0  0  0  0  0  0  0  0  0
   39.3440   25.1140   40.9470 C   0  0  0  0  0  0  0  0  0  0  0  0
   40.3260   25.1840   40.4800 H   0  0  0  0  0  0  0  0  0  0  0  0
   38.6520   23.9130   40.7880 C   0  0  0  0  0  0  0  0  0  0  0  0
   39.1110   23.1160   40.2190 H   0  0  0  0  0  0  0  0  0  0  0  0
   37.3960   23.7510   41.3540 C   0  0  0  0  0  3  0  0  0  0  0  0
   36.8540   24.7980   42.0700 C   0  0  0  0  0  3  0  0  0  0  0  0
   37.3700   32.6780   39.6060 C   0  0  0  0  0  0  0  0  0  0  0  0
   36.8250   31.8580   38.6120 F   0  0  0  0  0  0  0  0  0  0  0  0
   36.8440   33.9350   39.3770 F   0  0  0  0  0  0  0  0  0  0  0  0
   37.0290   32.1670   40.8150 F   0  0  0  0  0  0  0  0  0  0  0  0
  1  6  1  0  0  0  0
  1 17  1  0  0  0  0
  2  1  1  0  0  0  0
  3  9  1  0  0  0  0
  3  4  1  0  0  0  0
  3  2  1  0  0  0  0
  4  5  1  0  0  0  0
  5 12  1  1  0  0  0
  5 32  1  0  0  0  0
  5  6  1  0  0  0  0
  6 13  1  0  0  0  0
  6 14  1  0  0  0  0
  7  2  1  0  0  0  0
  8  2  1  0  0  0  0
 10  3  1  0  0  0  0
 11  4  1  0  0  0  0
 15 21  1  0  0  0  0
 16 22  1  0  0  0  0
 16 15  2  0  0  0  0
 17 16  1  0  0  0  0
 18 17  2  0  0  0  0
 18 19  1  0  0  0  0
 19 20  2  0  0  0  0
 20 15  1  0  0  0  0
 24 23  1  0  0  0  0
 25 19  1  0  0  0  0
 25 24  2  0  0  0  0
 26 25  1  0  0  0  0
 27 26  1  0  0  0  0
 28 26  2  0  0  0  0
 28 30  1  0  0  0  0
 29 28  1  0  0  0  0
 30 31  2  0  0  0  0
 31 24  1  0  0  0  0
 32 35  1  0  0  0  0
 33 32  1  0  0  0  0
 34 32  1  0  0  0  0
M  END
>  <minimizedAffinity>
-5.93553495

$$$$

 OpenBabel03242522043D

 35 37  0  0  1  0  0  0  0  0999 V2000
   38.7110   30.1040   40.7670 N   0  0  0  0  0  0  0  0  0  0  0  0
   39.3080   29.7790   39.4850 C   0  0  0  0  0  0  0  0  0  0  0  0
   40.2130   30.8680   39.0020 C   0  0  0  0  0  0  0  0  0  0  0  0
   39.6500   32.1590   39.0110 N   0  0  0  0  0  0  0  0  0  0  0  0
   38.7680   32.4610   40.0800 C   0  0  2  0  0  0  0  0  0  0  0  0
   38.6270   31.4810   41.1780 C   0  0  0  0  0  0  0  0  0  0  0  0
   38.5460   29.5120   38.7260 H   0  0  0  0  0  0  0  0  0  0  0  0
   39.9400   28.8700   39.6340 H   0  0  0  0  0  0  0  0  0  0  0  0
   41.1340   30.8570   39.6270 H   0  0  0  0  0  0  0  0  0  0  0  0
   40.5060   30.5940   37.9480 H   0  0  0  0  0  0  0  0  0  0  0  0
   39.3450   32.5480   38.1060 H   0  0  0  0  0  0  0  0  0  0  0  0
   39.1040   33.4410   40.5140 H   0  0  0  0  0  0  0  0  0  0  0  0
   39.4030   31.6510   41.9600 H   0  0  0  0  0  0  0  0  0  0  0  0
   37.6520   31.6470   41.6880 H   0  0  0  0  0  0  0  0  0  0  0  0
   37.3240   28.1890   43.6760 C   0  0  0  0  0  0  0  0  0  0  0  0
   37.8030   29.2860   42.9380 C   0  0  0  0  0  0  0  0  0  0  0  0
   38.2080   29.0800   41.6180 C   0  0  0  0  0  0  0  0  0  0  0  0
   38.1040   27.8150   41.1590 N   0  0  0  0  0  0  0  0  0  0  0  0
   37.6470   26.7780   41.8750 C   0  0  0  0  0  0  0  0  0  0  0  0
   37.2560   26.9730   43.1410 N   0  0  0  0  0  0  0  0  0  0  0  0
   37.0110   28.3450   44.6920 H   0  0  0  0  0  0  0  0  0  0  0  0
   37.8730   30.2820   43.3350 H   0  0  0  0  0  0  0  0  0  0  0  0
   39.8760   24.9730   42.8400 Br  0  0  0  0  0  0  0  0  0  0  0  0
   38.5110   24.4920   41.6120 C   0  0  0  0  0  0  0  0  0  0  0  0
   37.5730   25.4510   41.2860 C   0  0  0  0  0  0  0  0  0  0  0  0
   36.5740   25.1200   40.3970 C   0  0  0  0  0  0  0  0  0  0  0  0
   35.8050   25.8330   40.1010 H   0  0  0  0  0  0  0  0  0  0  0  0
   36.5050   23.8450   39.8340 C   0  0  0  0  0  0  0  0  0  0  0  0
   35.7070   23.6220   39.1390 H   0  0  0  0  0  0  0  0  0  0  0  0
   37.4500   22.8840   40.1640 C   0  0  0  0  0  3  0  0  0  0  0  0
   38.4490   23.2190   41.0550 C   0  0  0  0  0  3  0  0  0  0  0  0
   37.3830   32.7050   39.5120 C   0  0  0  0  0  0  0  0  0  0  0  0
   37.0920   34.0730   39.5550 F   0  0  0  0  0  0  0  0  0  0  0  0
   36.4980   32.1120   40.3910 F   0  0  0  0  0  0  0  0  0  0  0  0
   37.2350   32.2770   38.2330 F   0  0  0  0  0  0  0  0  0  0  0  0
  1  6  1  0  0  0  0
  1 17  1  0  0  0  0
  2  8  1  0  0  0  0
  2  1  1  0  0  0  0
  3  4  1  0  0  0  0
  3  2  1  0  0  0  0
  3  9  1  0  0  0  0
  4  5  1  0  0  0  0
  5 12  1  1  0  0  0
  5  6  1  0  0  0  0
  6 14  1  0  0  0  0
  6 13  1  0  0  0  0
  7  2  1  0  0  0  0
 10  3  1  0  0  0  0
 11  4  1  0  0  0  0
 15 21  1  0  0  0  0
 16 22  1  0  0  0  0
 16 15  2  0  0  0  0
 17 16  1  0  0  0  0
 18 17  2  0  0  0  0
 18 19  1  0  0  0  0
 19 20  2  0  0  0  0
 20 15  1  0  0  0  0
 24 23  1  0  0  0  0
 25 24  1  0  0  0  0
 25 19  1  0  0  0  0
 26 25  2  0  0  0  0
 27 26  1  0  0  0  0
 28 30  2  0  0  0  0
 28 26  1  0  0  0  0
 29 28  1  0  0  0  0
 30 31  1  0  0  0  0
 31 24  2  0  0  0  0
 32 33  1  0  0  0  0
 32  5  1  0  0  0  0
 32 34  1  0  0  0  0
 35 32  1  0  0  0  0
M  END
>  <minimizedAffinity>
-5.8843236

$$$$

 OpenBabel03242522043D

 35 37  0  0  1  0  0  0  0  0999 V2000
   38.0510   30.5490   38.7950 N   0  0  0  0  0  0  0  0  0  0  0  0
   37.3310   31.5560   38.0380 C   0  0  0  0  0  0  0  0  0  0  0  0
   38.0480   31.9220   36.7780 C   0  0  0  0  0  0  0  0  0  0  0  0
   39.4070   32.2550   36.9400 N   0  0  0  0  0  0  0  0  0  0  0  0
   40.1280   31.5260   37.9200 C   0  0  2  0  0  0  0  0  0  0  0  0
   39.4640   30.3800   38.5780 C   0  0  0  0  0  0  0  0  0  0  0  0
   37.0960   32.4490   38.6500 H   0  0  0  0  0  0  0  0  0  0  0  0
   36.3510   31.1100   37.7390 H   0  0  0  0  0  0  0  0  0  0  0  0
   37.9530   31.0720   36.0640 H   0  0  0  0  0  0  0  0  0  0  0  0
   37.4960   32.8030   36.3410 H   0  0  0  0  0  0  0  0  0  0  0  0
   39.6570   33.2550   36.9070 H   0  0  0  0  0  0  0  0  0  0  0  0
   41.0700   31.1610   37.4290 H   0  0  0  0  0  0  0  0  0  0  0  0
   39.6080   29.4470   37.9850 H   0  0  0  0  0  0  0  0  0  0  0  0
   39.9600   30.1880   39.5550 H   0  0  0  0  0  0  0  0  0  0  0  0
   35.4740   28.9700   41.0120 C   0  0  0  0  0  0  0  0  0  0  0  0
   36.0200   29.8400   40.0510 C   0  0  0  0  0  0  0  0  0  0  0  0
   37.3780   29.7310   39.7460 C   0  0  0  0  0  0  0  0  0  0  0  0
   38.0610   28.7810   40.4180 N   0  0  0  0  0  0  0  0  0  0  0  0
   37.5270   27.9600   41.3330 C   0  0  0  0  0  0  0  0  0  0  0  0
   36.2240   28.0600   41.6270 N   0  0  0  0  0  0  0  0  0  0  0  0
   34.4290   29.0500   41.2490 H   0  0  0  0  0  0  0  0  0  0  0  0
   35.4470   30.5860   39.5340 H   0  0  0  0  0  0  0  0  0  0  0  0
   37.1410   25.1890   40.1790 Br  0  0  0  0  0  0  0  0  0  0  0  0
   38.3040   25.6440   41.6080 C   0  0  0  0  0  0  0  0  0  0  0  0
   38.3500   26.9660   42.0030 C   0  0  0  0  0  0  0  0  0  0  0  0
   39.1890   27.3150   43.0380 C   0  0  0  0  0  0  0  0  0  0  0  0
   39.2690   28.3420   43.3950 H   0  0  0  0  0  0  0  0  0  0  0  0
   39.9780   26.3590   43.6790 C   0  0  0  0  0  0  0  0  0  0  0  0
   40.6240   26.6720   44.4880 H   0  0  0  0  0  0  0  0  0  0  0  0
   39.9280   25.0320   43.2800 C   0  0  0  0  0  3  0  0  0  0  0  0
   39.0870   24.6860   42.2420 C   0  0  0  0  0  3  0  0  0  0  0  0
   40.5650   32.4820   39.0120 C   0  0  0  0  0  0  0  0  0  0  0  0
   41.8390   32.9800   38.7180 F   0  0  0  0  0  0  0  0  0  0  0  0
   40.7220   31.7170   40.1520 F   0  0  0  0  0  0  0  0  0  0  0  0
   39.7250   33.5340   39.1840 F   0  0  0  0  0  0  0  0  0  0  0  0
  1 17  1  0  0  0  0
  2  7  1  0  0  0  0
  2  1  1  0  0  0  0
  3  4  1  0  0  0  0
  3  2  1  0  0  0  0
  4  5  1  0  0  0  0
  5 12  1  6  0  0  0
  5  6  1  0  0  0  0
  5 32  1  0  0  0  0
  6  1  1  0  0  0  0
  6 14  1  0  0  0  0
  8  2  1  0  0  0  0
  9  3  1  0  0  0  0
 10  3  1  0  0  0  0
 11  4  1  0  0  0  0
 13  6  1  0  0  0  0
 15 21  1  0  0  0  0
 15 20  1  0  0  0  0
 16 15  2  0  0  0  0
 17 16  1  0  0  0  0
 17 18  2  0  0  0  0
 18 19  1  0  0  0  0
 19 20  2  0  0  0  0
 19 25  1  0  0  0  0
 22 16  1  0  0  0  0
 23 24  1  0  0  0  0
 24 25  2  0  0  0  0
 24 31  1  0  0  0  0
 25 26  1  0  0  0  0
 26 27  1  0  0  0  0
 26 28  2  0  0  0  0
 28 29  1  0  0  0  0
 30 28  1  0  0  0  0
 31 30  2  0  0  0  0
 32 35  1  0  0  0  0
 32 34  1  0  0  0  0
 33 32  1  0  0  0  0
M  END
>  <minimizedAffinity>
-5.68541098

$$$$

 OpenBabel03242522043D

 35 37  0  0  1  0  0  0  0  0999 V2000
   39.1760   30.7920   39.3430 N   0  0  0  0  0  0  0  0  0  0  0  0
   38.0280   31.4910   38.7960 C   0  0  0  0  0  0  0  0  0  0  0  0
   38.1340   31.6620   37.3150 C   0  0  0  0  0  0  0  0  0  0  0  0
   39.3510   32.2110   36.8630 N   0  0  0  0  0  0  0  0  0  0  0  0
   40.5210   31.8290   37.5690 C   0  0  2  0  0  0  0  0  0  0  0  0
   40.4110   30.7780   38.6030 C   0  0  0  0  0  0  0  0  0  0  0  0
   37.8460   32.4570   39.3090 H   0  0  0  0  0  0  0  0  0  0  0  0
   37.1290   30.8560   38.9890 H   0  0  0  0  0  0  0  0  0  0  0  0
   37.9720   30.6690   36.8370 H   0  0  0  0  0  0  0  0  0  0  0  0
   37.2830   32.3360   37.0100 H   0  0  0  0  0  0  0  0  0  0  0  0
   39.3470   33.2030   36.5830 H   0  0  0  0  0  0  0  0  0  0  0  0
   41.2720   31.5000   36.8010 H   0  0  0  0  0  0  0  0  0  0  0  0
   40.5260   29.7670   38.1510 H   0  0  0  0  0  0  0  0  0  0  0  0
   41.2600   30.8830   39.3160 H   0  0  0  0  0  0  0  0  0  0  0  0
   39.1660   29.9720   43.0000 C   0  0  0  0  0  0  0  0  0  0  0  0
   39.2730   30.7470   41.8310 C   0  0  0  0  0  0  0  0  0  0  0  0
   39.0940   30.1220   40.5960 C   0  0  0  0  0  0  0  0  0  0  0  0
   38.8310   28.7990   40.6350 N   0  0  0  0  0  0  0  0  0  0  0  0
   38.7340   28.0730   41.7570 C   0  0  0  0  0  0  0  0  0  0  0  0
   38.9040   28.6690   42.9440 N   0  0  0  0  0  0  0  0  0  0  0  0
   39.3030   30.4490   43.9530 H   0  0  0  0  0  0  0  0  0  0  0  0
   39.4830   31.8000   41.8360 H   0  0  0  0  0  0  0  0  0  0  0  0
   41.2350   26.4170   41.3500 Br  0  0  0  0  0  0  0  0  0  0  0  0
   39.4690   25.7400   41.5100 C   0  0  0  0  0  0  0  0  0  0  0  0
   38.4460   26.6490   41.6920 C   0  0  0  0  0  0  0  0  0  0  0  0
   37.1580   26.1760   41.8100 C   0  0  0  0  0  0  0  0  0  0  0  0
   36.3080   26.8440   41.9560 H   0  0  0  0  0  0  0  0  0  0  0  0
   36.8840   24.8090   41.7470 C   0  0  0  0  0  0  0  0  0  0  0  0
   35.8600   24.4760   41.8440 H   0  0  0  0  0  0  0  0  0  0  0  0
   37.9150   23.8990   41.5630 C   0  0  0  0  0  3  0  0  0  0  0  0
   39.2040   24.3760   41.4460 C   0  0  0  0  0  3  0  0  0  0  0  0
   41.1090   33.0580   38.2340 C   0  0  0  0  0  0  0  0  0  0  0  0
   41.9770   32.6670   39.2590 F   0  0  0  0  0  0  0  0  0  0  0  0
   40.0560   33.6940   38.8630 F   0  0  0  0  0  0  0  0  0  0  0  0
   41.7910   33.8650   37.3830 F   0  0  0  0  0  0  0  0  0  0  0  0
  1 17  1  0  0  0  0
  2  8  1  0  0  0  0
  2  7  1  0  0  0  0
  2  1  1  0  0  0  0
  3  2  1  0  0  0  0
  4  3  1  0  0  0  0
  4  5  1  0  0  0  0
  5 12  1  6  0  0  0
  5 32  1  0  0  0  0
  5  6  1  0  0  0  0
  6 14  1  0  0  0  0
  6  1  1  0  0  0  0
  9  3  1  0  0  0  0
 10  3  1  0  0  0  0
 11  4  1  0  0  0  0
 13  6  1  0  0  0  0
 15 21  1  0  0  0  0
 16 22  1  0  0  0  0
 16 15  2  0  0  0  0
 17 18  2  0  0  0  0
 17 16  1  0  0  0  0
 18 19  1  0  0  0  0
 19 20  2  0  0  0  0
 20 15  1  0  0  0  0
 23 24  1  0  0  0  0
 24 25  1  0  0  0  0
 25 19  1  0  0  0  0
 25 26  2  0  0  0  0
 26 27  1  0  0  0  0
 28 26  1  0  0  0  0
 28 29  1  0  0  0  0
 30 28  2  0  0  0  0
 31 24  2  0  0  0  0
 31 30  1  0  0  0  0
 32 34  1  0  0  0  0
 32 33  1  0  0  0  0
 35 32  1  0  0  0  0
M  END
>  <minimizedAffinity>
-5.67190456

$$$$

 OpenBabel03242522043D

 35 37  0  0  1  0  0  0  0  0999 V2000
   39.3250   31.9540   39.3910 N   0  0  0  0  0  0  0  0  0  0  0  0
   40.2030   32.8950   40.0630 C   0  0  0  0  0  0  0  0  0  0  0  0
   40.7290   33.9320   39.1230 C   0  0  0  0  0  0  0  0  0  0  0  0
   41.3020   33.4290   37.9390 N   0  0  0  0  0  0  0  0  0  0  0  0
   40.6920   32.2790   37.3760 C   0  0  2  0  0  0  0  0  0  0  0  0
   39.4250   31.7920   37.9640 C   0  0  0  0  0  0  0  0  0  0  0  0
   41.0200   32.3850   40.6100 H   0  0  0  0  0  0  0  0  0  0  0  0
   39.5920   33.4290   40.8300 H   0  0  0  0  0  0  0  0  0  0  0  0
   39.8960   34.6270   38.8700 H   0  0  0  0  0  0  0  0  0  0  0  0
   41.5050   34.5170   39.6960 H   0  0  0  0  0  0  0  0  0  0  0  0
   42.3320   33.4170   37.8790 H   0  0  0  0  0  0  0  0  0  0  0  0
   40.5210   32.4990   36.2880 H   0  0  0  0  0  0  0  0  0  0  0  0
   38.5520   32.3070   37.5000 H   0  0  0  0  0  0  0  0  0  0  0  0
   39.3010   30.7150   37.7130 H   0  0  0  0  0  0  0  0  0  0  0  0
   36.2000   30.7380   41.0650 C   0  0  0  0  0  0  0  0  0  0  0  0
   37.0440   31.5800   40.3200 C   0  0  0  0  0  0  0  0  0  0  0  0
   38.3710   31.1940   40.1240 C   0  0  0  0  0  0  0  0  0  0  0  0
   38.7340   30.0210   40.6840 N   0  0  0  0  0  0  0  0  0  0  0  0
   37.9180   29.2290   41.3930 C   0  0  0  0  0  0  0  0  0  0  0  0
   36.6440   29.5960   41.5820 N   0  0  0  0  0  0  0  0  0  0  0  0
   35.1780   31.0320   41.2170 H   0  0  0  0  0  0  0  0  0  0  0  0
   36.7220   32.5100   39.8870 H   0  0  0  0  0  0  0  0  0  0  0  0
   37.2040   26.8430   39.6740 Br  0  0  0  0  0  0  0  0  0  0  0  0
   38.1730   26.7860   41.3050 C   0  0  0  0  0  0  0  0  0  0  0  0
   38.4070   27.9810   41.9560 C   0  0  0  0  0  0  0  0  0  0  0  0
   39.1080   27.9590   43.1410 C   0  0  0  0  0  0  0  0  0  0  0  0
   39.3240   28.8680   43.7010 H   0  0  0  0  0  0  0  0  0  0  0  0
   39.5760   26.7590   43.6790 C   0  0  0  0  0  0  0  0  0  0  0  0
   40.1230   26.7810   44.6110 H   0  0  0  0  0  0  0  0  0  0  0  0
   39.3390   25.5600   43.0220 C   0  0  0  0  0  3  0  0  0  0  0  0
   38.6360   25.5860   41.8340 C   0  0  0  0  0  3  0  0  0  0  0  0
   41.6820   31.1320   37.4230 C   0  0  0  0  0  0  0  0  0  0  0  0
   42.4120   31.0930   36.2300 F   0  0  0  0  0  0  0  0  0  0  0  0
   40.9280   29.9750   37.4320 F   0  0  0  0  0  0  0  0  0  0  0  0
   42.5580   31.2100   38.4560 F   0  0  0  0  0  0  0  0  0  0  0  0
  1  2  1  0  0  0  0
  1 17  1  0  0  0  0
  2  7  1  0  0  0  0
  2  8  1  0  0  0  0
  3 10  1  0  0  0  0
  3  2  1  0  0  0  0
  4  3  1  0  0  0  0
  5 12  1  6  0  0  0
  5 32  1  0  0  0  0
  5  4  1  0  0  0  0
  5  6  1  0  0  0  0
  6  1  1  0  0  0  0
  9  3  1  0  0  0  0
 11  4  1  0  0  0  0
 13  6  1  0  0  0  0
 14  6  1  0  0  0  0
 15 21  1  0  0  0  0
 15 20  1  0  0  0  0
 16 15  2  0  0  0  0
 17 16  1  0  0  0  0
 17 18  2  0  0  0  0
 18 19  1  0  0  0  0
 19 20  2  0  0  0  0
 19 25  1  0  0  0  0
 22 16  1  0  0  0  0
 23 24  1  0  0  0  0
 24 31  2  0  0  0  0
 24 25  1  0  0  0  0
 25 26  2  0  0  0  0
 26 28  1  0  0  0  0
 26 27  1  0  0  0  0
 28 29  1  0  0  0  0
 30 28  2  0  0  0  0
 31 30  1  0  0  0  0
 32 34  1  0  0  0  0
 32 35  1  0  0  0  0
 33 32  1  0  0  0  0
M  END
>  <minimizedAffinity>
-5.63647652

$$$$

 OpenBabel03242522043D

 35 37  0  0  1  0  0  0  0  0999 V2000
   39.4900   31.3700   40.3550 N   0  0  0  0  0  0  0  0  0  0  0  0
   40.6930   30.7680   40.9000 C   0  0  0  0  0  0  0  0  0  0  0  0
   41.7940   31.7680   41.0550 C   0  0  0  0  0  0  0  0  0  0  0  0
   42.0630   32.5410   39.9100 N   0  0  0  0  0  0  0  0  0  0  0  0
   40.9480   32.9070   39.1130 C   0  0  2  0  0  0  0  0  0  0  0  0
   39.5910   32.5990   39.6130 C   0  0  0  0  0  0  0  0  0  0  0  0
   41.0190   29.8860   40.3140 H   0  0  0  0  0  0  0  0  0  0  0  0
   40.4430   30.3950   41.9230 H   0  0  0  0  0  0  0  0  0  0  0  0
   41.5370   32.4380   41.9070 H   0  0  0  0  0  0  0  0  0  0  0  0
   42.7160   31.1840   41.3390 H   0  0  0  0  0  0  0  0  0  0  0  0
   42.8980   32.2940   39.3570 H   0  0  0  0  0  0  0  0  0  0  0  0
   41.0220   34.0140   38.9350 H   0  0  0  0  0  0  0  0  0  0  0  0
   39.2140   33.4220   40.2640 H   0  0  0  0  0  0  0  0  0  0  0  0
   38.8880   32.5600   38.7510 H   0  0  0  0  0  0  0  0  0  0  0  0
   35.8250   30.7460   40.8310 C   0  0  0  0  0  0  0  0  0  0  0  0
   37.0170   31.4670   40.6430 C   0  0  0  0  0  0  0  0  0  0  0  0
   38.2180   30.7610   40.5460 C   0  0  0  0  0  0  0  0  0  0  0  0
   38.1240   29.4190   40.6470 N   0  0  0  0  0  0  0  0  0  0  0  0
   36.9790   28.7450   40.8280 C   0  0  0  0  0  0  0  0  0  0  0  0
   35.8260   29.4190   40.9200 N   0  0  0  0  0  0  0  0  0  0  0  0
   34.8990   31.2870   40.9060 H   0  0  0  0  0  0  0  0  0  0  0  0
   37.0570   32.5380   40.5660 H   0  0  0  0  0  0  0  0  0  0  0  0
   37.3150   27.7880   43.6800 Br  0  0  0  0  0  0  0  0  0  0  0  0
   37.1280   26.6780   42.1510 C   0  0  0  0  0  0  0  0  0  0  0  0
   36.9840   27.2950   40.9240 C   0  0  0  0  0  0  0  0  0  0  0  0
   36.8470   26.5050   39.8030 C   0  0  0  0  0  0  0  0  0  0  0  0
   36.7300   26.9320   38.8070 H   0  0  0  0  0  0  0  0  0  0  0  0
   36.8520   25.1130   39.8980 C   0  0  0  0  0  0  0  0  0  0  0  0
   36.7420   24.5270   38.9960 H   0  0  0  0  0  0  0  0  0  0  0  0
   36.9970   24.4980   41.1330 C   0  0  0  0  0  3  0  0  0  0  0  0
   37.1340   25.2920   42.2540 C   0  0  0  0  0  3  0  0  0  0  0  0
   41.0880   32.2520   37.7530 C   0  0  0  0  0  0  0  0  0  0  0  0
   41.8930   33.0470   36.9290 F   0  0  0  0  0  0  0  0  0  0  0  0
   39.8300   32.2840   37.1810 F   0  0  0  0  0  0  0  0  0  0  0  0
   41.6240   31.0070   37.8000 F   0  0  0  0  0  0  0  0  0  0  0  0
  1 17  1  0  0  0  0
  1  2  1  0  0  0  0
  2  3  1  0  0  0  0
  2  8  1  0  0  0  0
  3 10  1  0  0  0  0
  3  9  1  0  0  0  0
  4  3  1  0  0  0  0
  5 12  1  6  0  0  0
  5  6  1  0  0  0  0
  5  4  1  0  0  0  0
  6 13  1  0  0  0  0
  6  1  1  0  0  0  0
  7  2  1  0  0  0  0
 11  4  1  0  0  0  0
 14  6  1  0  0  0  0
 15 21  1  0  0  0  0
 15 20  1  0  0  0  0
 16 15  2  0  0  0  0
 17 16  1  0  0  0  0
 17 18  2  0  0  0  0
 18 19  1  0  0  0  0
 19 20  2  0  0  0  0
 19 25  1  0  0  0  0
 22 16  1  0  0  0  0
 24 31  1  0  0  0  0
 24 23  1  0  0  0  0
 25 24  2  0  0  0  0
 26 28  2  0  0  0  0
 26 25  1  0  0  0  0
 27 26  1  0  0  0  0
 28 30  1  0  0  0  0
 29 28  1  0  0  0  0
 30 31  2  0  0  0  0
 32 35  1  0  0  0  0
 32  5  1  0  0  0  0
 33 32  1  0  0  0  0
 34 32  1  0  0  0  0
M  END
>  <minimizedAffinity>
-5.58862162

$$$$

 OpenBabel03242522043D

 35 37  0  0  1  0  0  0  0  0999 V2000
   38.4240   25.9580   40.7800 N   0  0  0  0  0  0  0  0  0  0  0  0
   39.6750   25.2370   40.9290 C   0  0  0  0  0  0  0  0  0  0  0  0
   40.0420   24.4970   39.6830 C   0  0  0  0  0  0  0  0  0  0  0  0
   39.0240   23.6820   39.1510 N   0  0  0  0  0  0  0  0  0  0  0  0
   37.6960   24.1700   39.2600 C   0  0  2  0  0  0  0  0  0  0  0  0
   37.4890   25.5440   39.7670 C   0  0  0  0  0  0  0  0  0  0  0  0
   39.6690   24.5710   41.8150 H   0  0  0  0  0  0  0  0  0  0  0  0
   40.4760   25.9950   41.1070 H   0  0  0  0  0  0  0  0  0  0  0  0
   40.3640   25.2400   38.9190 H   0  0  0  0  0  0  0  0  0  0  0  0
   40.9350   23.8590   39.9420 H   0  0  0  0  0  0  0  0  0  0  0  0
   39.1000   22.6650   39.3080 H   0  0  0  0  0  0  0  0  0  0  0  0
   37.2330   24.0900   38.2400 H   0  0  0  0  0  0  0  0  0  0  0  0
   37.5390   26.2830   38.9340 H   0  0  0  0  0  0  0  0  0  0  0  0
   36.4560   25.6260   40.1730 H   0  0  0  0  0  0  0  0  0  0  0  0
   37.4430   28.1200   43.6790 C   0  0  0  0  0  0  0  0  0  0  0  0
   37.7220   26.9480   42.9540 C   0  0  0  0  0  0  0  0  0  0  0  0
   38.1140   27.0630   41.6200 C   0  0  0  0  0  0  0  0  0  0  0  0
   38.1890   28.3200   41.1330 N   0  0  0  0  0  0  0  0  0  0  0  0
   37.9190   29.4280   41.8350 C   0  0  0  0  0  0  0  0  0  0  0  0
   37.5430   29.3210   43.1160 N   0  0  0  0  0  0  0  0  0  0  0  0
   37.1410   28.0350   44.7070 H   0  0  0  0  0  0  0  0  0  0  0  0
   37.6520   25.9610   43.3740 H   0  0  0  0  0  0  0  0  0  0  0  0
   40.5780   30.7470   42.4250 Br  0  0  0  0  0  0  0  0  0  0  0  0
   39.1780   31.4900   41.3790 C   0  0  0  0  0  0  0  0  0  0  0  0
   38.0310   30.7390   41.2170 C   0  0  0  0  0  0  0  0  0  0  0  0
   37.0040   31.2620   40.4620 C   0  0  0  0  0  0  0  0  0  0  0  0
   36.0740   30.7180   40.2970 H   0  0  0  0  0  0  0  0  0  0  0  0
   37.1140   32.5210   39.8690 C   0  0  0  0  0  0  0  0  0  0  0  0
   36.2870   32.8970   39.2830 H   0  0  0  0  0  0  0  0  0  0  0  0
   38.2690   33.2710   40.0350 C   0  0  0  0  0  3  0  0  0  0  0  0
   39.2960   32.7450   40.7920 C   0  0  0  0  0  3  0  0  0  0  0  0
   36.9080   23.2340   40.1560 C   0  0  0  0  0  0  0  0  0  0  0  0
   37.7880   22.4030   40.8570 F   0  0  0  0  0  0  0  0  0  0  0  0
   36.2030   22.3980   39.3110 F   0  0  0  0  0  0  0  0  0  0  0  0
   36.1200   23.8750   41.0550 F   0  0  0  0  0  0  0  0  0  0  0  0
  1  2  1  0  0  0  0
  1 17  1  0  0  0  0
  2  8  1  0  0  0  0
  2  7  1  0  0  0  0
  3 10  1  0  0  0  0
  3  2  1  0  0  0  0
  4  5  1  0  0  0  0
  4 11  1  0  0  0  0
  4  3  1  0  0  0  0
  5 12  1  6  0  0  0
  5  6  1  0  0  0  0
  5 32  1  0  0  0  0
  6 14  1  0  0  0  0
  6  1  1  0  0  0  0
  9  3  1  0  0  0  0
 13  6  1  0  0  0  0
 15 21  1  0  0  0  0
 16 22  1  0  0  0  0
 16 15  2  0  0  0  0
 17 16  1  0  0  0  0
 18 17  2  0  0  0  0
 18 19  1  0  0  0  0
 19 20  2  0  0  0  0
 20 15  1  0  0  0  0
 24 23  1  0  0  0  0
 25 24  1  0  0  0  0
 25 19  1  0  0  0  0
 26 25  2  0  0  0  0
 27 26  1  0  0  0  0
 28 30  2  0  0  0  0
 28 26  1  0  0  0  0
 29 28  1  0  0  0  0
 30 31  1  0  0  0  0
 31 24  2  0  0  0  0
 32 33  1  0  0  0  0
 32 35  1  0  0  0  0
 34 32  1  0  0  0  0
M  END
>  <minimizedAffinity>
-5.49235392

$$$$

 OpenBabel03242522043D

 35 37  0  0  1  0  0  0  0  0999 V2000
   37.9980   30.5600   38.5390 N   0  0  0  0  0  0  0  0  0  0  0  0
   38.2400   31.3660   37.3570 C   0  0  0  0  0  0  0  0  0  0  0  0
   39.5650   32.0580   37.4180 C   0  0  0  0  0  0  0  0  0  0  0  0
   39.8090   32.7750   38.6060 N   0  0  0  0  0  0  0  0  0  0  0  0
   39.3060   32.2100   39.8050 C   0  0  2  0  0  0  0  0  0  0  0  0
   38.7130   30.8560   39.7530 C   0  0  0  0  0  0  0  0  0  0  0  0
   37.4140   32.0790   37.1620 H   0  0  0  0  0  0  0  0  0  0  0  0
   38.2740   30.6720   36.4830 H   0  0  0  0  0  0  0  0  0  0  0  0
   40.3630   31.2950   37.2710 H   0  0  0  0  0  0  0  0  0  0  0  0
   39.5950   32.7660   36.5410 H   0  0  0  0  0  0  0  0  0  0  0  0
   39.7170   33.8020   38.5670 H   0  0  0  0  0  0  0  0  0  0  0  0
   40.1510   32.2030   40.5440 H   0  0  0  0  0  0  0  0  0  0  0  0
   39.4980   30.0760   39.8850 H   0  0  0  0  0  0  0  0  0  0  0  0
   38.0240   30.7300   40.6180 H   0  0  0  0  0  0  0  0  0  0  0  0
   35.0240   28.3820   37.8610 C   0  0  0  0  0  0  0  0  0  0  0  0
   35.8600   29.5120   37.8090 C   0  0  0  0  0  0  0  0  0  0  0  0
   37.0660   29.4850   38.5110 C   0  0  0  0  0  0  0  0  0  0  0  0
   37.3260   28.3510   39.1960 N   0  0  0  0  0  0  0  0  0  0  0  0
   36.5190   27.2830   39.2380 C   0  0  0  0  0  0  0  0  0  0  0  0
   35.3620   27.3040   38.5640 N   0  0  0  0  0  0  0  0  0  0  0  0
   34.0950   28.3990   37.3210 H   0  0  0  0  0  0  0  0  0  0  0  0
   35.6220   30.4000   37.2520 H   0  0  0  0  0  0  0  0  0  0  0  0
   36.6360   27.8470   42.2090 Br  0  0  0  0  0  0  0  0  0  0  0  0
   36.9950   26.1770   41.3810 C   0  0  0  0  0  0  0  0  0  0  0  0
   36.8920   26.1060   40.0060 C   0  0  0  0  0  0  0  0  0  0  0  0
   37.1490   24.9020   39.3880 C   0  0  0  0  0  0  0  0  0  0  0  0
   37.0830   24.7830   38.3060 H   0  0  0  0  0  0  0  0  0  0  0  0
   37.5060   23.7740   40.1280 C   0  0  0  0  0  0  0  0  0  0  0  0
   37.7000   22.8470   39.6070 H   0  0  0  0  0  0  0  0  0  0  0  0
   37.6100   23.8500   41.5090 C   0  0  0  0  0  3  0  0  0  0  0  0
   37.3510   25.0580   42.1250 C   0  0  0  0  0  3  0  0  0  0  0  0
   38.2550   33.1410   40.3760 C   0  0  0  0  0  0  0  0  0  0  0  0
   37.1590   32.3950   40.8230 F   0  0  0  0  0  0  0  0  0  0  0  0
   37.7850   33.8870   39.3130 F   0  0  0  0  0  0  0  0  0  0  0  0
   38.7020   33.9010   41.4080 F   0  0  0  0  0  0  0  0  0  0  0  0
  1  6  1  0  0  0  0
  2  3  1  0  0  0  0
  2  1  1  0  0  0  0
  3  4  1  0  0  0  0
  4  5  1  0  0  0  0
  5 32  1  0  0  0  0
  5 12  1  1  0  0  0
  6  5  1  0  0  0  0
  6 13  1  0  0  0  0
  6 14  1  0  0  0  0
  7  2  1  0  0  0  0
  8  2  1  0  0  0  0
  9  3  1  0  0  0  0
 10  3  1  0  0  0  0
 11  4  1  0  0  0  0
 15 20  1  0  0  0  0
 16 15  2  0  0  0  0
 16 17  1  0  0  0  0
 17  1  1  0  0  0  0
 17 18  2  0  0  0  0
 18 19  1  0  0  0  0
 19 25  1  0  0  0  0
 20 19  2  0  0  0  0
 21 15  1  0  0  0  0
 22 16  1  0  0  0  0
 24 31  1  0  0  0  0
 24 23  1  0  0  0  0
 25 24  2  0  0  0  0
 26 25  1  0  0  0  0
 26 28  2  0  0  0  0
 27 26  1  0  0  0  0
 28 30  1  0  0  0  0
 29 28  1  0  0  0  0
 30 31  2  0  0  0  0
 32 33  1  0  0  0  0
 32 35  1  0  0  0  0
 34 32  1  0  0  0  0
M  END
>  <minimizedAffinity>
-5.44647312

$$$$

 OpenBabel03242522043D

 35 37  0  0  1  0  0  0  0  0999 V2000
   39.6370   26.4780   42.1620 N   0  0  0  0  0  0  0  0  0  0  0  0
   39.7010   25.7630   43.4230 C   0  0  0  0  0  0  0  0  0  0  0  0
   39.7690   24.2830   43.2210 C   0  0  0  0  0  0  0  0  0  0  0  0
   38.7870   23.7520   42.3630 N   0  0  0  0  0  0  0  0  0  0  0  0
   38.4120   24.5520   41.2530 C   0  0  2  0  0  0  0  0  0  0  0  0
   39.1760   25.7900   40.9850 C   0  0  0  0  0  0  0  0  0  0  0  0
   38.8740   26.0460   44.1050 H   0  0  0  0  0  0  0  0  0  0  0  0
   40.6490   26.0680   43.9300 H   0  0  0  0  0  0  0  0  0  0  0  0
   40.7820   24.0320   42.8310 H   0  0  0  0  0  0  0  0  0  0  0  0
   39.6670   23.8170   44.2430 H   0  0  0  0  0  0  0  0  0  0  0  0
   37.9930   23.2600   42.8000 H   0  0  0  0  0  0  0  0  0  0  0  0
   38.4620   23.8950   40.3450 H   0  0  0  0  0  0  0  0  0  0  0  0
   40.0630   25.5740   40.3470 H   0  0  0  0  0  0  0  0  0  0  0  0
   38.5420   26.4820   40.3860 H   0  0  0  0  0  0  0  0  0  0  0  0
   41.3560   29.7760   42.6270 C   0  0  0  0  0  0  0  0  0  0  0  0
   41.0740   28.4090   42.8010 C   0  0  0  0  0  0  0  0  0  0  0  0
   40.0220   27.8450   42.0770 C   0  0  0  0  0  0  0  0  0  0  0  0
   39.3520   28.6830   41.2580 N   0  0  0  0  0  0  0  0  0  0  0  0
   39.6310   29.9850   41.1040 C   0  0  0  0  0  0  0  0  0  0  0  0
   40.6410   30.5290   41.7960 N   0  0  0  0  0  0  0  0  0  0  0  0
   42.1650   30.2130   43.1820 H   0  0  0  0  0  0  0  0  0  0  0  0
   41.6290   27.7690   43.4620 H   0  0  0  0  0  0  0  0  0  0  0  0
   40.6850   29.8710   38.2690 Br  0  0  0  0  0  0  0  0  0  0  0  0
   39.1840   30.8740   38.8560 C   0  0  0  0  0  0  0  0  0  0  0  0
   38.8480   30.8040   40.1940 C   0  0  0  0  0  0  0  0  0  0  0  0
   37.7620   31.5250   40.6380 C   0  0  0  0  0  0  0  0  0  0  0  0
   37.4470   31.5110   41.6820 H   0  0  0  0  0  0  0  0  0  0  0  0
   37.0120   32.3110   39.7620 C   0  0  0  0  0  0  0  0  0  0  0  0
   36.1660   32.8630   40.1480 H   0  0  0  0  0  0  0  0  0  0  0  0
   37.3530   32.3790   38.4190 C   0  0  0  0  0  3  0  0  0  0  0  0
   38.4410   31.6550   37.9770 C   0  0  0  0  0  3  0  0  0  0  0  0
   36.9560   24.9450   41.4090 C   0  0  0  0  0  0  0  0  0  0  0  0
   36.1450   24.0100   40.7570 F   0  0  0  0  0  0  0  0  0  0  0  0
   36.7990   26.1240   40.7050 F   0  0  0  0  0  0  0  0  0  0  0  0
   36.5500   25.0350   42.7000 F   0  0  0  0  0  0  0  0  0  0  0  0
  1  2  1  0  0  0  0
  2  8  1  0  0  0  0
  2  7  1  0  0  0  0
  3  2  1  0  0  0  0
  3 10  1  0  0  0  0
  4 11  1  0  0  0  0
  4  3  1  0  0  0  0
  5 12  1  6  0  0  0
  5 32  1  0  0  0  0
  5  4  1  0  0  0  0
  6  5  1  0  0  0  0
  6  1  1  0  0  0  0
  9  3  1  0  0  0  0
 13  6  1  0  0  0  0
 14  6  1  0  0  0  0
 15 16  1  0  0  0  0
 15 21  1  0  0  0  0
 16 22  1  0  0  0  0
 17  1  1  0  0  0  0
 17 16  2  0  0  0  0
 18 17  1  0  0  0  0
 19 18  2  0  0  0  0
 19 20  1  0  0  0  0
 20 15  2  0  0  0  0
 23 24  1  0  0  0  0
 24 25  1  0  0  0  0
 25 26  2  0  0  0  0
 25 19  1  0  0  0  0
 26 27  1  0  0  0  0
 28 29  1  0  0  0  0
 28 26  1  0  0  0  0
 30 28  2  0  0  0  0
 31 30  1  0  0  0  0
 31 24  2  0  0  0  0
 32 35  1  0  0  0  0
 33 32  1  0  0  0  0
 34 32  1  0  0  0  0
M  END
>  <minimizedAffinity>
-5.43929195

$$$$
