
 OpenBabel03252504103D

 25 26  0  0  0  0  0  0  0  0999 V2000
   44.1900   33.0690   42.2130 C   0  0  0  0  0  0  0  0  0  0  0  0
   44.5270   34.1580   43.0100 C   0  0  0  0  0  0  0  0  0  0  0  0
   43.9120   35.3810   42.7370 C   0  0  0  0  0  0  0  0  0  0  0  0
   43.0200   35.4420   41.7110 N   0  0  0  0  0  0  0  0  0  0  0  0
   42.7240   34.3560   40.9650 C   0  0  0  0  0  0  0  0  0  0  0  0
   43.2960   33.1750   41.2020 N   0  0  0  0  0  0  0  0  0  0  0  0
   44.1570   36.2410   43.3420 H   0  0  0  0  0  0  0  0  0  0  0  0
   39.8790   33.0700   41.3850 Br  0  0  0  0  0  0  0  0  0  0  0  0
   40.4600   34.0910   39.9110 C   0  0  0  0  0  0  0  0  0  0  0  0
   41.7510   34.5750   39.9010 C   0  0  0  0  0  0  0  0  0  0  0  0
   42.1020   35.3140   38.7910 C   0  0  0  0  0  0  0  0  0  0  0  0
   43.0990   35.7460   38.6780 H   0  0  0  0  0  0  0  0  0  0  0  0
   41.2160   35.5610   37.7380 C   0  0  0  0  0  0  0  0  0  0  0  0
   41.5530   36.1520   36.8860 H   0  0  0  0  0  0  0  0  0  0  0  0
   39.9330   35.0570   37.7870 C   0  0  0  0  0  3  0  0  0  0  0  0
   39.5800   34.3280   38.8790 C   0  0  0  0  0  3  0  0  0  0  0  0
   45.5130   33.9890   44.1070 C   0  0  0  0  0  0  0  0  0  0  0  0
   45.2540   32.7990   44.7890 F   0  0  0  0  0  0  0  0  0  0  0  0
   46.7610   33.8570   43.5500 F   0  0  0  0  0  0  0  0  0  0  0  0
   45.5050   34.9840   45.0340 F   0  0  0  0  0  0  0  0  0  0  0  0
   44.7970   31.8860   42.4910 O   0  0  0  0  0  0  0  0  0  0  0  0
   44.1990   30.6180   42.5820 C   0  0  0  0  0  0  0  0  0  0  0  0
   42.8630   30.8320   42.9740 F   0  0  0  0  0  0  0  0  0  0  0  0
   44.3100   29.9650   41.3990 F   0  0  0  0  0  0  0  0  0  0  0  0
   44.7500   29.9140   43.6350 F   0  0  0  0  0  0  0  0  0  0  0  0
  1 21  1  0  0  0  0
  1  2  1  0  0  0  0
  2 17  1  0  0  0  0
  3  2  2  0  0  0  0
  3  7  1  0  0  0  0
  4  3  1  0  0  0  0
  5  6  1  0  0  0  0
  5  4  2  0  0  0  0
  6  1  2  0  0  0  0
  9  8  1  0  0  0  0
 10  9  1  0  0  0  0
 10  5  1  0  0  0  0
 11 10  2  0  0  0  0
 12 11  1  0  0  0  0
 13 15  2  0  0  0  0
 13 11  1  0  0  0  0
 14 13  1  0  0  0  0
 15 16  1  0  0  0  0
 16  9  2  0  0  0  0
 17 18  1  0  0  0  0
 17 20  1  0  0  0  0
 19 17  1  0  0  0  0
 21 22  1  0  0  0  0
 22 23  1  0  0  0  0
 22 25  1  0  0  0  0
 24 22  1  0  0  0  0
M  END
>  <minimizedAffinity>
-4.75147247

>  <minimizedRMSD>
7.62668085

$$$$
