
 OpenBabel03252503413D

 21 22  0  0  0  0  0  0  0  0999 V2000
   44.9080   34.9140   45.0780 C   0  0  0  0  0  0  0  0  0  0  0  0
   45.5740   35.0770   43.8460 C   0  0  0  0  0  0  0  0  0  0  0  0
   46.6490   34.2370   43.6010 C   0  0  0  0  0  0  0  0  0  0  0  0
   47.0130   33.3200   44.5170 N   0  0  0  0  0  0  0  0  0  0  0  0
   46.3500   33.1880   45.6940 C   0  0  0  0  0  0  0  0  0  0  0  0
   45.2990   33.9860   45.9710 N   0  0  0  0  0  0  0  0  0  0  0  0
   44.0550   35.4950   45.4050 H   0  0  0  0  0  0  0  0  0  0  0  0
   47.1120   34.4130   42.6480 H   0  0  0  0  0  0  0  0  0  0  0  0
   45.6660   30.3340   44.7930 Br  0  0  0  0  0  0  0  0  0  0  0  0
   46.5540   30.8550   46.4070 C   0  0  0  0  0  0  0  0  0  0  0  0
   46.7820   32.1780   46.6570 C   0  0  0  0  0  0  0  0  0  0  0  0
   47.4190   32.5860   47.8120 C   0  0  0  0  0  0  0  0  0  0  0  0
   47.5990   33.6320   48.0070 H   0  0  0  0  0  0  0  0  0  0  0  0
   47.8250   31.6170   48.7180 C   0  0  0  0  0  0  0  0  0  0  0  0
   48.3300   31.8890   49.6400 H   0  0  0  0  0  0  0  0  0  0  0  0
   47.5980   30.2770   48.4740 C   0  0  0  0  0  0  0  0  0  0  0  0
   46.9600   29.8990   47.3130 C   0  0  0  0  0  0  0  0  0  0  0  0
   45.0280   36.1360   42.9720 C   0  0  0  0  0  0  0  0  0  0  0  0
   44.1210   35.7550   42.4860 H   0  0  0  0  0  0  0  0  0  0  0  0
   45.7290   36.4050   42.1630 H   0  0  0  0  0  0  0  0  0  0  0  0
   44.7480   37.0360   43.5630 H   0  0  0  0  0  0  0  0  0  0  0  0
  1  7  1  0  0  0  0
  1  6  1  0  0  0  0
  2  1  2  0  0  0  0
  3  2  1  0  0  0  0
  3  4  2  0  0  0  0
  4  5  1  0  0  0  0
  5  6  2  0  0  0  0
  5 11  1  0  0  0  0
  8  3  1  0  0  0  0
  9 10  1  0  0  0  0
 10 11  2  0  0  0  0
 10 17  1  0  0  0  0
 11 12  1  0  0  0  0
 12 13  1  0  0  0  0
 12 14  2  0  0  0  0
 14 15  1  0  0  0  0
 16 14  1  0  0  0  0
 17 16  2  0  0  0  0
 18 21  1  0  0  0  0
 18  2  1  0  0  0  0
 19 18  1  0  0  0  0
 20 18  1  0  0  0  0
M  END
>  <minimizedAffinity>
-4.44772005

>  <minimizedRMSD>
1.86022818

$$$$
