
 OpenBabel03252501563D

 21 22  0  0  0  0  0  0  0  0999 V2000
   38.0800   29.1970   43.2670 C   0  0  0  0  0  0  0  0  0  0  0  0
   37.6340   27.9450   42.7970 C   0  0  0  0  0  0  0  0  0  0  0  0
   38.3530   27.3700   41.7330 C   0  0  0  0  0  0  0  0  0  0  0  0
   39.4160   28.0540   41.2420 N   0  0  0  0  0  0  0  0  0  0  0  0
   39.8150   29.2440   41.7120 C   0  0  0  0  0  0  0  0  0  0  0  0
   39.1510   29.8460   42.7430 N   0  0  0  0  0  0  0  0  0  0  0  0
   37.6310   29.7610   44.0730 H   0  0  0  0  0  0  0  0  0  0  0  0
   40.6840   29.6800   41.2250 H   0  0  0  0  0  0  0  0  0  0  0  0
   39.7170   24.9350   43.1280 Br  0  0  0  0  0  0  0  0  0  0  0  0
   38.3640   24.8770   41.7760 C   0  0  0  0  0  0  0  0  0  0  0  0
   37.8710   26.0850   41.2690 C   0  0  0  0  0  0  0  0  0  0  0  0
   36.8790   26.0030   40.2810 C   0  0  0  0  0  0  0  0  0  0  0  0
   36.5180   26.9670   39.9070 H   0  0  0  0  0  0  0  0  0  0  0  0
   36.3560   24.8090   39.7720 C   0  0  0  0  0  0  0  0  0  0  0  0
   35.5950   24.7850   39.0140 H   0  0  0  0  0  0  0  0  0  0  0  0
   36.9470   23.7290   40.3750 C   0  0  0  0  0  3  0  0  0  0  0  0
   37.9090   23.6290   41.3360 C   0  0  0  0  0  3  0  0  0  0  0  0
   36.4550   27.3870   43.4870 C   0  0  0  0  0  0  0  0  0  0  0  0
   36.3960   26.2810   43.3870 H   0  0  0  0  0  0  0  0  0  0  0  0
   35.4800   27.7970   43.1170 H   0  0  0  0  0  0  0  0  0  0  0  0
   36.5620   27.6120   44.5910 H   0  0  0  0  0  0  0  0  0  0  0  0
  1  7  1  0  0  0  0
  2  1  1  0  0  0  0
  2 18  1  0  0  0  0
  3  2  2  0  0  0  0
  4  5  2  0  0  0  0
  4  3  1  0  0  0  0
  5  6  1  0  0  0  0
  6  1  2  0  0  0  0
  8  5  1  0  0  0  0
 10  9  1  0  0  0  0
 11  3  1  0  0  0  0
 11 10  2  0  0  0  0
 12 11  1  0  0  0  0
 13 12  1  0  0  0  0
 14 12  2  0  0  0  0
 14 16  1  0  0  0  0
 15 14  1  0  0  0  0
 16 17  2  0  0  0  0
 17 10  1  0  0  0  0
 18 21  1  0  0  0  0
 19 18  1  0  0  0  0
 20 18  1  0  0  0  0
M  END
>  <minimizedAffinity>
-4.41727066

$$$$

 OpenBabel03252501563D

 21 22  0  0  0  0  0  0  0  0999 V2000
   38.4510   32.5240   40.5550 C   0  0  0  0  0  0  0  0  0  0  0  0
   37.8740   31.2980   40.9460 C   0  0  0  0  0  0  0  0  0  0  0  0
   38.7290   30.3510   41.5380 C   0  0  0  0  0  0  0  0  0  0  0  0
   40.0350   30.6830   41.6920 N   0  0  0  0  0  0  0  0  0  0  0  0
   40.5530   31.8590   41.3090 C   0  0  0  0  0  0  0  0  0  0  0  0
   39.7660   32.8120   40.7280 N   0  0  0  0  0  0  0  0  0  0  0  0
   37.9240   33.3450   40.0880 H   0  0  0  0  0  0  0  0  0  0  0  0
   41.6160   31.9910   41.4930 H   0  0  0  0  0  0  0  0  0  0  0  0
   38.7150   28.1990   39.2800 Br  0  0  0  0  0  0  0  0  0  0  0  0
   38.0070   28.0160   41.0480 C   0  0  0  0  0  0  0  0  0  0  0  0
   38.1110   29.1000   41.9270 C   0  0  0  0  0  0  0  0  0  0  0  0
   37.5830   28.9280   43.2150 C   0  0  0  0  0  0  0  0  0  0  0  0
   37.6800   29.7970   43.8740 H   0  0  0  0  0  0  0  0  0  0  0  0
   36.9670   27.7590   43.6760 C   0  0  0  0  0  0  0  0  0  0  0  0
   36.5740   27.6630   44.6710 H   0  0  0  0  0  0  0  0  0  0  0  0
   36.9510   26.8040   42.6930 C   0  0  0  0  0  3  0  0  0  0  0  0
   37.4110   26.8020   41.4090 C   0  0  0  0  0  3  0  0  0  0  0  0
   36.4290   31.1600   40.6820 C   0  0  0  0  0  0  0  0  0  0  0  0
   35.9530   30.4060   41.3470 H   0  0  0  0  0  0  0  0  0  0  0  0
   36.1890   30.8590   39.6290 H   0  0  0  0  0  0  0  0  0  0  0  0
   35.9390   32.1540   40.9090 H   0  0  0  0  0  0  0  0  0  0  0  0
  1  6  2  0  0  0  0
  1  2  1  0  0  0  0
  2  3  2  0  0  0  0
  3  4  1  0  0  0  0
  3 11  1  0  0  0  0
  5  8  1  0  0  0  0
  5  4  2  0  0  0  0
  6  5  1  0  0  0  0
  7  1  1  0  0  0  0
  9 10  1  0  0  0  0
 10 17  2  0  0  0  0
 10 11  1  0  0  0  0
 11 12  2  0  0  0  0
 12 14  1  0  0  0  0
 12 13  1  0  0  0  0
 14 15  1  0  0  0  0
 16 14  2  0  0  0  0
 17 16  1  0  0  0  0
 18 21  1  0  0  0  0
 18  2  1  0  0  0  0
 18 19  1  0  0  0  0
 20 18  1  0  0  0  0
M  END
>  <minimizedAffinity>
-4.38572264

$$$$

 OpenBabel03252501563D

 21 22  0  0  0  0  0  0  0  0999 V2000
   36.5870   31.0510   40.4660 C   0  0  0  0  0  0  0  0  0  0  0  0
   36.4040   29.6550   40.5340 C   0  0  0  0  0  0  0  0  0  0  0  0
   37.5470   28.8730   40.7830 C   0  0  0  0  0  0  0  0  0  0  0  0
   38.7320   29.5140   40.9420 N   0  0  0  0  0  0  0  0  0  0  0  0
   38.8720   30.8450   40.8720 C   0  0  0  0  0  0  0  0  0  0  0  0
   37.7950   31.6490   40.6320 N   0  0  0  0  0  0  0  0  0  0  0  0
   35.8080   31.7790   40.2820 H   0  0  0  0  0  0  0  0  0  0  0  0
   39.8800   31.2240   41.0190 H   0  0  0  0  0  0  0  0  0  0  0  0
   37.1610   27.7820   43.6800 Br  0  0  0  0  0  0  0  0  0  0  0  0
   37.1380   26.7690   42.0560 C   0  0  0  0  0  0  0  0  0  0  0  0
   37.3290   27.4430   40.8440 C   0  0  0  0  0  0  0  0  0  0  0  0
   37.3040   26.6680   39.6750 C   0  0  0  0  0  0  0  0  0  0  0  0
   37.4580   27.2280   38.7460 H   0  0  0  0  0  0  0  0  0  0  0  0
   37.1030   25.2840   39.6380 C   0  0  0  0  0  0  0  0  0  0  0  0
   37.0890   24.7220   38.7220 H   0  0  0  0  0  0  0  0  0  0  0  0
   36.9340   24.7890   40.9050 C   0  0  0  0  0  3  0  0  0  0  0  0
   36.9280   25.3880   42.1300 C   0  0  0  0  0  3  0  0  0  0  0  0
   35.0210   29.1820   40.3330 C   0  0  0  0  0  0  0  0  0  0  0  0
   34.8500   28.1820   40.7880 H   0  0  0  0  0  0  0  0  0  0  0  0
   34.7240   29.1010   39.2550 H   0  0  0  0  0  0  0  0  0  0  0  0
   34.3270   29.9060   40.8590 H   0  0  0  0  0  0  0  0  0  0  0  0
  1  2  2  0  0  0  0
  1  6  1  0  0  0  0
  2  3  1  0  0  0  0
  3 11  1  0  0  0  0
  3  4  2  0  0  0  0
  5  4  1  0  0  0  0
  5  8  1  0  0  0  0
  6  5  2  0  0  0  0
  7  1  1  0  0  0  0
 10 17  1  0  0  0  0
 10  9  1  0  0  0  0
 11 10  2  0  0  0  0
 12 11  1  0  0  0  0
 13 12  1  0  0  0  0
 14 12  2  0  0  0  0
 14 16  1  0  0  0  0
 15 14  1  0  0  0  0
 16 17  2  0  0  0  0
 18  2  1  0  0  0  0
 18 19  1  0  0  0  0
 18 21  1  0  0  0  0
 20 18  1  0  0  0  0
M  END
>  <minimizedAffinity>
-4.36141014

$$$$

 OpenBabel03252501563D

 21 22  0  0  0  0  0  0  0  0999 V2000
   38.0780   29.2060   43.2870 C   0  0  0  0  0  0  0  0  0  0  0  0
   37.5990   27.9700   42.8080 C   0  0  0  0  0  0  0  0  0  0  0  0
   38.2780   27.4030   41.7150 C   0  0  0  0  0  0  0  0  0  0  0  0
   39.3380   28.0780   41.2060 N   0  0  0  0  0  0  0  0  0  0  0  0
   39.7700   29.2540   41.6850 C   0  0  0  0  0  0  0  0  0  0  0  0
   39.1450   29.8470   42.7450 N   0  0  0  0  0  0  0  0  0  0  0  0
   37.6620   29.7630   44.1160 H   0  0  0  0  0  0  0  0  0  0  0  0
   40.6310   29.6840   41.1810 H   0  0  0  0  0  0  0  0  0  0  0  0
   36.2710   27.6670   39.3410 Br  0  0  0  0  0  0  0  0  0  0  0  0
   36.8470   26.0500   40.1860 C   0  0  0  0  0  0  0  0  0  0  0  0
   37.7620   26.1350   41.2420 C   0  0  0  0  0  0  0  0  0  0  0  0
   38.1620   24.9280   41.8350 C   0  0  0  0  0  0  0  0  0  0  0  0
   38.8770   25.0330   42.6590 H   0  0  0  0  0  0  0  0  0  0  0  0
   37.7160   23.6600   41.4470 C   0  0  0  0  0  0  0  0  0  0  0  0
   38.0450   22.7560   41.9250 H   0  0  0  0  0  0  0  0  0  0  0  0
   36.8310   23.7610   40.4050 C   0  0  0  0  0  3  0  0  0  0  0  0
   36.3390   24.8320   39.7200 C   0  0  0  0  0  3  0  0  0  0  0  0
   36.4310   27.4190   43.5220 C   0  0  0  0  0  0  0  0  0  0  0  0
   36.3510   26.3160   43.4040 H   0  0  0  0  0  0  0  0  0  0  0  0
   35.4520   27.8510   43.1870 H   0  0  0  0  0  0  0  0  0  0  0  0
   36.5720   27.6220   44.6260 H   0  0  0  0  0  0  0  0  0  0  0  0
  1  7  1  0  0  0  0
  2  1  1  0  0  0  0
  2 18  1  0  0  0  0
  3  2  2  0  0  0  0
  4  5  2  0  0  0  0
  4  3  1  0  0  0  0
  5  6  1  0  0  0  0
  6  1  2  0  0  0  0
  8  5  1  0  0  0  0
  9 10  1  0  0  0  0
 10 11  1  0  0  0  0
 11  3  1  0  0  0  0
 11 12  2  0  0  0  0
 12 13  1  0  0  0  0
 14 12  1  0  0  0  0
 14 15  1  0  0  0  0
 16 14  2  0  0  0  0
 17 10  2  0  0  0  0
 17 16  1  0  0  0  0
 18 21  1  0  0  0  0
 19 18  1  0  0  0  0
 20 18  1  0  0  0  0
M  END
>  <minimizedAffinity>
-4.30416536

$$$$

 OpenBabel03252501563D

 21 22  0  0  0  0  0  0  0  0999 V2000
   36.1860   29.9920   38.0050 C   0  0  0  0  0  0  0  0  0  0  0  0
   36.1740   29.4120   39.2900 C   0  0  0  0  0  0  0  0  0  0  0  0
   37.4130   29.0110   39.8210 C   0  0  0  0  0  0  0  0  0  0  0  0
   38.5220   29.2120   39.0670 N   0  0  0  0  0  0  0  0  0  0  0  0
   38.5010   29.7670   37.8470 C   0  0  0  0  0  0  0  0  0  0  0  0
   37.3240   30.1730   37.2860 N   0  0  0  0  0  0  0  0  0  0  0  0
   35.3180   30.3460   37.4680 H   0  0  0  0  0  0  0  0  0  0  0  0
   39.4640   29.8680   37.3550 H   0  0  0  0  0  0  0  0  0  0  0  0
   36.8920   25.9350   39.7970 Br  0  0  0  0  0  0  0  0  0  0  0  0
   37.1440   27.0470   41.3340 C   0  0  0  0  0  0  0  0  0  0  0  0
   37.3690   28.4150   41.1410 C   0  0  0  0  0  0  0  0  0  0  0  0
   37.5510   29.1980   42.2900 C   0  0  0  0  0  0  0  0  0  0  0  0
   37.7240   30.2640   42.1010 H   0  0  0  0  0  0  0  0  0  0  0  0
   37.5230   28.7110   43.6020 C   0  0  0  0  0  0  0  0  0  0  0  0
   37.6680   29.3410   44.4590 H   0  0  0  0  0  0  0  0  0  0  0  0
   37.2930   27.3600   43.6070 C   0  0  0  0  0  3  0  0  0  0  0  0
   37.0980   26.4590   42.6030 C   0  0  0  0  0  3  0  0  0  0  0  0
   34.8470   29.2960   39.9250 C   0  0  0  0  0  0  0  0  0  0  0  0
   34.9170   29.2350   41.0330 H   0  0  0  0  0  0  0  0  0  0  0  0
   34.2630   28.4000   39.5890 H   0  0  0  0  0  0  0  0  0  0  0  0
   34.2640   30.2350   39.6840 H   0  0  0  0  0  0  0  0  0  0  0  0
  1  2  1  0  0  0  0
  2  3  2  0  0  0  0
  2 18  1  0  0  0  0
  3 11  1  0  0  0  0
  4  3  1  0  0  0  0
  5  4  2  0  0  0  0
  6  5  1  0  0  0  0
  6  1  2  0  0  0  0
  7  1  1  0  0  0  0
  8  5  1  0  0  0  0
  9 10  1  0  0  0  0
 10 17  1  0  0  0  0
 11 10  2  0  0  0  0
 11 12  1  0  0  0  0
 12 14  2  0  0  0  0
 13 12  1  0  0  0  0
 14 16  1  0  0  0  0
 14 15  1  0  0  0  0
 17 16  2  0  0  0  0
 18 19  1  0  0  0  0
 20 18  1  0  0  0  0
 21 18  1  0  0  0  0
M  END
>  <minimizedAffinity>
-4.30394506

$$$$

 OpenBabel03252501563D

 21 22  0  0  0  0  0  0  0  0999 V2000
   35.8040   28.5840   41.2850 C   0  0  0  0  0  0  0  0  0  0  0  0
   36.7700   27.8970   42.0480 C   0  0  0  0  0  0  0  0  0  0  0  0
   37.8890   27.3960   41.3590 C   0  0  0  0  0  0  0  0  0  0  0  0
   37.9600   27.6120   40.0220 N   0  0  0  0  0  0  0  0  0  0  0  0
   37.0240   28.2710   39.3250 C   0  0  0  0  0  0  0  0  0  0  0  0
   35.9180   28.7760   39.9460 N   0  0  0  0  0  0  0  0  0  0  0  0
   34.8940   29.0230   41.6720 H   0  0  0  0  0  0  0  0  0  0  0  0
   37.2100   28.3710   38.2580 H   0  0  0  0  0  0  0  0  0  0  0  0
   37.4590   24.3070   41.4390 Br  0  0  0  0  0  0  0  0  0  0  0  0
   38.8320   25.3010   42.3260 C   0  0  0  0  0  0  0  0  0  0  0  0
   38.8630   26.6920   42.1670 C   0  0  0  0  0  0  0  0  0  0  0  0
   39.8840   27.3860   42.8320 C   0  0  0  0  0  0  0  0  0  0  0  0
   39.8760   28.4710   42.6860 H   0  0  0  0  0  0  0  0  0  0  0  0
   40.8640   26.7900   43.6340 C   0  0  0  0  0  0  0  0  0  0  0  0
   41.6340   27.3550   44.1270 H   0  0  0  0  0  0  0  0  0  0  0  0
   40.6870   25.4320   43.6800 C   0  0  0  0  0  3  0  0  0  0  0  0
   39.7650   24.6070   43.1060 C   0  0  0  0  0  3  0  0  0  0  0  0
   36.4820   27.7860   43.4910 C   0  0  0  0  0  0  0  0  0  0  0  0
   37.4050   27.6270   44.0900 H   0  0  0  0  0  0  0  0  0  0  0  0
   35.7810   26.9500   43.7490 H   0  0  0  0  0  0  0  0  0  0  0  0
   36.0350   28.7680   43.8310 H   0  0  0  0  0  0  0  0  0  0  0  0
  1  7  1  0  0  0  0
  1  2  1  0  0  0  0
  2 18  1  0  0  0  0
  3  2  2  0  0  0  0
  3 11  1  0  0  0  0
  4  3  1  0  0  0  0
  5  6  1  0  0  0  0
  5  4  2  0  0  0  0
  6  1  2  0  0  0  0
  8  5  1  0  0  0  0
  9 10  1  0  0  0  0
 10 17  1  0  0  0  0
 11 10  2  0  0  0  0
 11 12  1  0  0  0  0
 12 14  2  0  0  0  0
 13 12  1  0  0  0  0
 14 16  1  0  0  0  0
 14 15  1  0  0  0  0
 17 16  2  0  0  0  0
 18 20  1  0  0  0  0
 18 21  1  0  0  0  0
 18 19  1  0  0  0  0
M  END
>  <minimizedAffinity>
-4.20504999

$$$$

 OpenBabel03252501563D

 21 22  0  0  0  0  0  0  0  0999 V2000
   37.8010   30.9040   38.1310 C   0  0  0  0  0  0  0  0  0  0  0  0
   37.8670   29.9550   39.1710 C   0  0  0  0  0  0  0  0  0  0  0  0
   37.5100   30.3930   40.4590 C   0  0  0  0  0  0  0  0  0  0  0  0
   37.1280   31.6870   40.6070 N   0  0  0  0  0  0  0  0  0  0  0  0
   37.0760   32.5650   39.5960 C   0  0  0  0  0  0  0  0  0  0  0  0
   37.4130   32.1910   38.3270 N   0  0  0  0  0  0  0  0  0  0  0  0
   38.0440   30.7180   37.0940 H   0  0  0  0  0  0  0  0  0  0  0  0
   36.7520   33.5700   39.8570 H   0  0  0  0  0  0  0  0  0  0  0  0
   40.2090   30.4280   42.0230 Br  0  0  0  0  0  0  0  0  0  0  0  0
   38.7240   29.2580   42.3170 C   0  0  0  0  0  0  0  0  0  0  0  0
   37.5900   29.3980   41.5080 C   0  0  0  0  0  0  0  0  0  0  0  0
   36.5220   28.5230   41.7540 C   0  0  0  0  0  0  0  0  0  0  0  0
   35.6520   28.6610   41.1010 H   0  0  0  0  0  0  0  0  0  0  0  0
   36.5120   27.5320   42.7410 C   0  0  0  0  0  0  0  0  0  0  0  0
   35.6730   26.8800   42.9010 H   0  0  0  0  0  0  0  0  0  0  0  0
   37.6930   27.5340   43.4360 C   0  0  0  0  0  3  0  0  0  0  0  0
   38.8160   28.2990   43.3320 C   0  0  0  0  0  3  0  0  0  0  0  0
   38.3080   28.6040   38.7740 C   0  0  0  0  0  0  0  0  0  0  0  0
   37.9590   27.8240   39.4870 H   0  0  0  0  0  0  0  0  0  0  0  0
   39.4210   28.4970   38.6970 H   0  0  0  0  0  0  0  0  0  0  0  0
   37.8380   28.3670   37.7730 H   0  0  0  0  0  0  0  0  0  0  0  0
  1  6  2  0  0  0  0
  1  2  1  0  0  0  0
  2  3  2  0  0  0  0
  3  4  1  0  0  0  0
  3 11  1  0  0  0  0
  5  8  1  0  0  0  0
  5  4  2  0  0  0  0
  6  5  1  0  0  0  0
  7  1  1  0  0  0  0
  9 10  1  0  0  0  0
 10 17  1  0  0  0  0
 11 12  1  0  0  0  0
 11 10  2  0  0  0  0
 12 14  2  0  0  0  0
 13 12  1  0  0  0  0
 14 15  1  0  0  0  0
 14 16  1  0  0  0  0
 17 16  2  0  0  0  0
 18  2  1  0  0  0  0
 18 19  1  0  0  0  0
 20 18  1  0  0  0  0
 21 18  1  0  0  0  0
M  END
>  <minimizedAffinity>
-4.20047808

$$$$

 OpenBabel03252501563D

 21 22  0  0  0  0  0  0  0  0999 V2000
   35.7530   29.2760   37.7140 C   0  0  0  0  0  0  0  0  0  0  0  0
   35.9110   29.0260   39.0920 C   0  0  0  0  0  0  0  0  0  0  0  0
   37.1790   28.5920   39.5210 C   0  0  0  0  0  0  0  0  0  0  0  0
   38.1500   28.4500   38.5850 N   0  0  0  0  0  0  0  0  0  0  0  0
   37.9680   28.6970   37.2810 C   0  0  0  0  0  0  0  0  0  0  0  0
   36.7560   29.1190   36.8130 N   0  0  0  0  0  0  0  0  0  0  0  0
   34.8420   29.6120   37.2370 H   0  0  0  0  0  0  0  0  0  0  0  0
   38.8340   28.5410   36.6430 H   0  0  0  0  0  0  0  0  0  0  0  0
   38.3580   30.9960   41.1210 Br  0  0  0  0  0  0  0  0  0  0  0  0
   37.8230   29.2980   41.8230 C   0  0  0  0  0  0  0  0  0  0  0  0
   37.3110   28.3400   40.9410 C   0  0  0  0  0  0  0  0  0  0  0  0
   36.9280   27.1080   41.4920 C   0  0  0  0  0  0  0  0  0  0  0  0
   36.5330   26.3830   40.7720 H   0  0  0  0  0  0  0  0  0  0  0  0
   37.0210   26.7760   42.8480 C   0  0  0  0  0  0  0  0  0  0  0  0
   36.7170   25.8210   43.2350 H   0  0  0  0  0  0  0  0  0  0  0  0
   37.5400   27.8230   43.5640 C   0  0  0  0  0  3  0  0  0  0  0  0
   37.9580   29.0680   43.1970 C   0  0  0  0  0  3  0  0  0  0  0  0
   34.7130   29.2520   39.9240 C   0  0  0  0  0  0  0  0  0  0  0  0
   34.9730   29.4470   40.9870 H   0  0  0  0  0  0  0  0  0  0  0  0
   33.9920   28.3940   39.9200 H   0  0  0  0  0  0  0  0  0  0  0  0
   34.1940   30.1800   39.5370 H   0  0  0  0  0  0  0  0  0  0  0  0
  1  2  1  0  0  0  0
  2  3  2  0  0  0  0
  2 18  1  0  0  0  0
  3 11  1  0  0  0  0
  4  3  1  0  0  0  0
  5  4  2  0  0  0  0
  6  5  1  0  0  0  0
  6  1  2  0  0  0  0
  7  1  1  0  0  0  0
  8  5  1  0  0  0  0
  9 10  1  0  0  0  0
 10 17  1  0  0  0  0
 11 12  1  0  0  0  0
 11 10  2  0  0  0  0
 12 14  2  0  0  0  0
 13 12  1  0  0  0  0
 14 15  1  0  0  0  0
 14 16  1  0  0  0  0
 17 16  2  0  0  0  0
 18 19  1  0  0  0  0
 20 18  1  0  0  0  0
 21 18  1  0  0  0  0
M  END
>  <minimizedAffinity>
-4.18913698

$$$$

 OpenBabel03252501563D

 21 22  0  0  0  0  0  0  0  0999 V2000
   35.9450   29.0920   37.9810 C   0  0  0  0  0  0  0  0  0  0  0  0
   36.8100   30.1370   38.3620 C   0  0  0  0  0  0  0  0  0  0  0  0
   36.6460   30.6620   39.6570 C   0  0  0  0  0  0  0  0  0  0  0  0
   35.6770   30.1260   40.4400 N   0  0  0  0  0  0  0  0  0  0  0  0
   34.8690   29.1310   40.0480 C   0  0  0  0  0  0  0  0  0  0  0  0
   34.9870   28.5870   38.8010 N   0  0  0  0  0  0  0  0  0  0  0  0
   35.9490   28.5910   37.0220 H   0  0  0  0  0  0  0  0  0  0  0  0
   34.1370   28.7980   40.7780 H   0  0  0  0  0  0  0  0  0  0  0  0
   39.1430   29.7200   41.2720 Br  0  0  0  0  0  0  0  0  0  0  0  0
   38.7200   31.5110   40.7480 C   0  0  0  0  0  0  0  0  0  0  0  0
   37.5460   31.7370   40.0200 C   0  0  0  0  0  0  0  0  0  0  0  0
   37.2700   33.0620   39.6520 C   0  0  0  0  0  0  0  0  0  0  0  0
   36.3430   33.2010   39.0850 H   0  0  0  0  0  0  0  0  0  0  0  0
   38.0790   34.1610   39.9600 C   0  0  0  0  0  0  0  0  0  0  0  0
   37.8360   35.1640   39.6600 H   0  0  0  0  0  0  0  0  0  0  0  0
   39.1810   33.7630   40.6710 C   0  0  0  0  0  3  0  0  0  0  0  0
   39.5980   32.5400   41.1060 C   0  0  0  0  0  3  0  0  0  0  0  0
   37.7920   30.5570   37.3430 C   0  0  0  0  0  0  0  0  0  0  0  0
   38.6780   31.0530   37.7960 H   0  0  0  0  0  0  0  0  0  0  0  0
   37.3770   31.2680   36.5830 H   0  0  0  0  0  0  0  0  0  0  0  0
   38.1670   29.6260   36.8200 H   0  0  0  0  0  0  0  0  0  0  0  0
  1  2  2  0  0  0  0
  1  6  1  0  0  0  0
  2  3  1  0  0  0  0
  3 11  1  0  0  0  0
  3  4  2  0  0  0  0
  5  4  1  0  0  0  0
  5  8  1  0  0  0  0
  6  5  2  0  0  0  0
  7  1  1  0  0  0  0
 10 17  1  0  0  0  0
 10  9  1  0  0  0  0
 11 10  2  0  0  0  0
 12 14  2  0  0  0  0
 12 11  1  0  0  0  0
 13 12  1  0  0  0  0
 14 16  1  0  0  0  0
 15 14  1  0  0  0  0
 16 17  2  0  0  0  0
 18 19  1  0  0  0  0
 18  2  1  0  0  0  0
 20 18  1  0  0  0  0
 21 18  1  0  0  0  0
M  END
>  <minimizedAffinity>
-4.12997866

$$$$
