
 OpenBabel03252503533D

 36 38  0  0  1  0  0  0  0  0999 V2000
   46.8440   32.8310   45.0000 N   0  0  0  0  0  0  0  0  0  0  0  0
   46.2000   33.1670   46.2770 C   0  0  0  0  0  0  0  0  0  0  0  0
   47.0230   32.4740   47.3610 C   0  0  0  0  0  0  0  0  0  0  0  0
   46.7480   30.9980   47.2380 C   0  0  0  0  0  0  0  0  0  0  0  0
   47.0660   30.5730   45.8370 C   0  0  0  0  0  0  0  0  0  0  0  0
   47.5870   31.6420   44.9520 C   0  0  1  0  0  0  0  0  0  0  0  0
   46.3290   34.2580   46.4100 H   0  0  0  0  0  0  0  0  0  0  0  0
   45.1650   32.8180   46.3370 H   0  0  0  0  0  0  0  0  0  0  0  0
   48.0960   32.7190   47.2480 H   0  0  0  0  0  0  0  0  0  0  0  0
   46.5900   32.8280   48.3160 H   0  0  0  0  0  0  0  0  0  0  0  0
   47.4000   30.4680   47.9670 H   0  0  0  0  0  0  0  0  0  0  0  0
   45.6910   30.8280   47.5180 H   0  0  0  0  0  0  0  0  0  0  0  0
   47.8660   29.7760   45.8720 H   0  0  0  0  0  0  0  0  0  0  0  0
   46.1810   30.0370   45.4430 H   0  0  0  0  0  0  0  0  0  0  0  0
   48.6240   31.8690   45.2880 H   0  0  0  0  0  0  0  0  0  0  0  0
   44.9580   30.3170   43.6530 Br  0  0  0  0  0  0  0  0  0  0  0  0
   46.7080   30.3390   42.9260 C   0  0  0  0  0  0  0  0  0  0  0  0
   47.7200   30.9440   43.6330 C   0  0  0  0  0  0  0  0  0  0  0  0
   48.9750   30.8390   43.0010 C   0  0  0  0  0  0  0  0  0  0  0  0
   49.8190   31.2990   43.5160 H   0  0  0  0  0  0  0  0  0  0  0  0
   49.2240   30.2140   41.8080 C   0  0  0  0  0  0  0  0  0  0  0  0
   50.2340   30.1990   41.4220 H   0  0  0  0  0  0  0  0  0  0  0  0
   48.1530   29.6390   41.1700 C   0  0  0  0  0  3  0  0  0  0  0  0
   46.8920   29.6970   41.7230 C   0  0  0  0  0  3  0  0  0  0  0  0
   47.6250   35.0010   42.1150 C   0  0  0  0  0  0  0  0  0  0  0  0
   47.7960   34.1970   43.2400 C   0  0  0  0  0  0  0  0  0  0  0  0
   46.6920   33.6840   43.8970 C   0  0  0  0  0  0  0  0  0  0  0  0
   45.4700   33.9990   43.4070 N   0  0  0  0  0  0  0  0  0  0  0  0
   45.3030   34.7790   42.3190 C   0  0  0  0  0  0  0  0  0  0  0  0
   46.3830   35.2810   41.6700 N   0  0  0  0  0  0  0  0  0  0  0  0
   48.8090   34.0710   43.5320 H   0  0  0  0  0  0  0  0  0  0  0  0
   44.3100   35.0090   41.9580 H   0  0  0  0  0  0  0  0  0  0  0  0
   48.8550   35.4920   41.4110 C   0  0  0  0  0  0  0  0  0  0  0  0
   48.6790   35.5140   40.0300 F   0  0  0  0  0  0  0  0  0  0  0  0
   49.1350   36.7470   41.9090 F   0  0  0  0  0  0  0  0  0  0  0  0
   49.9270   34.6630   41.7160 F   0  0  0  0  0  0  0  0  0  0  0  0
  1  2  1  0  0  0  0
  2  8  1  0  0  0  0
  2  7  1  0  0  0  0
  2  3  1  0  0  0  0
  3 10  1  0  0  0  0
  4  3  1  0  0  0  0
  4 12  1  0  0  0  0
  4 11  1  0  0  0  0
  5 13  1  0  0  0  0
  5  4  1  0  0  0  0
  6  1  1  0  0  0  0
  6 15  1  1  0  0  0
  6  5  1  0  0  0  0
  9  3  1  0  0  0  0
 14  5  1  0  0  0  0
 17 18  1  0  0  0  0
 17 16  1  0  0  0  0
 18  6  1  0  0  0  0
 19 20  1  0  0  0  0
 19 18  2  0  0  0  0
 21 19  1  0  0  0  0
 22 21  1  0  0  0  0
 23 24  1  0  0  0  0
 23 21  2  0  0  0  0
 24 17  2  0  0  0  0
 25 26  1  0  0  0  0
 26 31  1  0  0  0  0
 26 27  2  0  0  0  0
 27  1  1  0  0  0  0
 28 27  1  0  0  0  0
 29 28  2  0  0  0  0
 30 25  2  0  0  0  0
 30 29  1  0  0  0  0
 32 29  1  0  0  0  0
 33 36  1  0  0  0  0
 33 35  1  0  0  0  0
 33 25  1  0  0  0  0
 34 33  1  0  0  0  0
M  END
>  <minimizedAffinity>
-5.19950485

>  <minimizedRMSD>
2.14967823

$$$$
