
 OpenBabel03242512533D

 44 48  0  0  1  0  0  0  0  0999 V2000
   37.0270   24.5950   39.0920 N   0  0  0  0  0  0  0  0  0  0  0  0
   37.7700   23.5610   38.3630 C   0  0  0  0  0  0  0  0  0  0  0  0
   37.3690   22.3800   39.2220 C   0  0  0  0  0  0  0  0  0  0  0  0
   37.7260   22.9040   40.5960 C   0  0  0  0  0  0  0  0  0  0  0  0
   37.2650   24.3490   40.5390 C   0  0  1  0  0  0  0  0  0  0  0  0
   37.4110   23.5050   37.3280 H   0  0  0  0  0  0  0  0  0  0  0  0
   38.8480   23.6940   38.4940 H   0  0  0  0  0  0  0  0  0  0  0  0
   38.0440   21.5420   38.9320 H   0  0  0  0  0  0  0  0  0  0  0  0
   36.3090   22.1370   39.1630 H   0  0  0  0  0  0  0  0  0  0  0  0
   38.8130   22.8420   40.7850 H   0  0  0  0  0  0  0  0  0  0  0  0
   37.1540   22.3150   41.3310 H   0  0  0  0  0  0  0  0  0  0  0  0
   36.2910   24.3970   40.9410 H   0  0  0  0  0  0  0  0  0  0  0  0
   38.2920   25.2970   40.9240 C   0  0  0  0  0  0  0  0  0  0  0  0
   39.5300   25.2490   40.3840 N   0  0  0  0  0  0  0  0  0  0  0  0
   40.5410   26.0960   40.6960 C   0  0  0  0  0  0  0  0  0  0  0  0
   40.3050   27.0540   41.6030 N   0  0  0  0  0  0  0  0  0  0  0  0
   39.1020   27.1420   42.1640 C   0  0  0  0  0  0  0  0  0  0  0  0
   38.9160   28.1550   43.0950 C   0  0  0  0  0  0  0  0  0  0  0  0
   37.6590   28.2480   43.6800 C   0  0  0  0  0  0  0  0  0  0  0  0
   36.5860   27.4070   43.4000 C   0  0  0  0  0  0  0  0  0  0  0  0
   36.8630   26.4320   42.4650 C   0  0  0  0  0  0  0  0  0  0  0  0
   38.0580   26.2790   41.8530 C   0  0  0  0  0  0  0  0  0  0  0  0
   41.5080   25.9950   40.2210 H   0  0  0  0  0  0  0  0  0  0  0  0
   39.7000   28.8450   43.3630 H   0  0  0  0  0  0  0  0  0  0  0  0
   37.5480   29.0540   44.4050 H   0  0  0  0  0  0  0  0  0  0  0  0
   35.6540   27.5490   43.8970 H   0  0  0  0  0  0  0  0  0  0  0  0
   36.0210   25.7870   42.2920 H   0  0  0  0  0  0  0  0  0  0  0  0
   34.4260   26.5940   37.3600 C   0  0  0  0  0  0  0  0  0  0  0  0
   35.1580   25.4890   37.7520 C   0  0  0  0  0  0  0  0  0  0  0  0
   36.2220   25.6460   38.6290 C   0  0  0  0  0  0  0  0  0  0  0  0
   36.5030   26.9010   39.0730 N   0  0  0  0  0  0  0  0  0  0  0  0
   35.7800   27.9890   38.6840 C   0  0  0  0  0  0  0  0  0  0  0  0
   34.7400   27.8190   37.8240 N   0  0  0  0  0  0  0  0  0  0  0  0
   33.5960   26.4640   36.6750 H   0  0  0  0  0  0  0  0  0  0  0  0
   34.9010   24.5290   37.3490 H   0  0  0  0  0  0  0  0  0  0  0  0
   37.0230   29.8270   36.4890 Br  0  0  0  0  0  0  0  0  0  0  0  0
   36.6970   30.2180   38.3210 C   0  0  0  0  0  0  0  0  0  0  0  0
   36.1370   29.3070   39.1970 C   0  0  0  0  0  0  0  0  0  0  0  0
   35.8840   29.5490   40.5320 C   0  0  0  0  0  0  0  0  0  0  0  0
   35.4400   28.7960   41.1770 H   0  0  0  0  0  0  0  0  0  0  0  0
   36.2150   30.7930   41.0370 C   0  0  0  0  0  0  0  0  0  0  0  0
   36.0240   31.0020   42.0830 H   0  0  0  0  0  0  0  0  0  0  0  0
   36.7780   31.7280   40.1880 C   0  0  0  0  0  3  0  0  0  0  0  0
   37.0230   31.4670   38.8550 C   0  0  0  0  0  3  0  0  0  0  0  0
  1  5  1  0  0  0  0
  2  7  1  0  0  0  0
  2  1  1  0  0  0  0
  2  3  1  0  0  0  0
  3  4  1  0  0  0  0
  4 10  1  0  0  0  0
  4 11  1  0  0  0  0
  5  4  1  0  0  0  0
  5 13  1  0  0  0  0
  5 12  1  1  0  0  0
  6  2  1  0  0  0  0
  8  3  1  0  0  0  0
  9  3  1  0  0  0  0
 13 22  1  0  0  0  0
 14 15  1  0  0  0  0
 14 13  2  0  0  0  0
 15 16  2  0  0  0  0
 16 17  1  0  0  0  0
 17 18  1  0  0  0  0
 18 24  1  0  0  0  0
 18 19  2  0  0  0  0
 19 25  1  0  0  0  0
 20 19  1  0  0  0  0
 20 26  1  0  0  0  0
 21 20  2  0  0  0  0
 22 17  2  0  0  0  0
 22 21  1  0  0  0  0
 23 15  1  0  0  0  0
 27 21  1  0  0  0  0
 28 29  2  0  0  0  0
 28 33  1  0  0  0  0
 29 30  1  0  0  0  0
 30 31  2  0  0  0  0
 30  1  1  0  0  0  0
 32 31  1  0  0  0  0
 32 38  1  0  0  0  0
 33 32  2  0  0  0  0
 34 28  1  0  0  0  0
 35 29  1  0  0  0  0
 36 37  1  0  0  0  0
 37 44  2  0  0  0  0
 37 38  1  0  0  0  0
 38 39  2  0  0  0  0
 39 41  1  0  0  0  0
 39 40  1  0  0  0  0
 41 42  1  0  0  0  0
 43 41  2  0  0  0  0
 44 43  1  0  0  0  0
M  END
>  <minimizedAffinity>
-6.78309488

$$$$

 OpenBabel03242512533D

 44 48  0  0  1  0  0  0  0  0999 V2000
   38.7480   29.7240   41.5860 N   0  0  0  0  0  0  0  0  0  0  0  0
   40.1900   29.9920   41.5470 C   0  0  0  0  0  0  0  0  0  0  0  0
   40.1390   31.4400   41.9870 C   0  0  0  0  0  0  0  0  0  0  0  0
   39.1250   31.9900   41.0080 C   0  0  0  0  0  0  0  0  0  0  0  0
   38.0830   30.8890   40.9440 C   0  0  1  0  0  0  0  0  0  0  0  0
   40.7110   29.3280   42.2480 H   0  0  0  0  0  0  0  0  0  0  0  0
   40.5570   29.9880   40.5170 H   0  0  0  0  0  0  0  0  0  0  0  0
   41.1510   31.8610   41.7840 H   0  0  0  0  0  0  0  0  0  0  0  0
   39.8000   31.5740   43.0130 H   0  0  0  0  0  0  0  0  0  0  0  0
   39.5740   32.1690   40.0140 H   0  0  0  0  0  0  0  0  0  0  0  0
   38.7210   32.9190   41.4420 H   0  0  0  0  0  0  0  0  0  0  0  0
   37.3180   31.1220   41.6320 H   0  0  0  0  0  0  0  0  0  0  0  0
   37.7810   30.4590   39.5930 C   0  0  0  0  0  0  0  0  0  0  0  0
   38.6920   30.5670   38.6010 N   0  0  0  0  0  0  0  0  0  0  0  0
   38.4820   30.1920   37.3150 C   0  0  0  0  0  0  0  0  0  0  0  0
   37.2880   29.6750   36.9960 N   0  0  0  0  0  0  0  0  0  0  0  0
   36.3570   29.5480   37.9370 C   0  0  0  0  0  0  0  0  0  0  0  0
   35.1410   29.0040   37.5470 C   0  0  0  0  0  0  0  0  0  0  0  0
   34.1680   28.8700   38.5300 C   0  0  0  0  0  0  0  0  0  0  0  0
   34.3270   29.2390   39.8620 C   0  0  0  0  0  0  0  0  0  0  0  0
   35.5650   29.7690   40.1570 C   0  0  0  0  0  0  0  0  0  0  0  0
   36.5600   29.9290   39.2580 C   0  0  0  0  0  0  0  0  0  0  0  0
   39.2630   30.3110   36.5750 H   0  0  0  0  0  0  0  0  0  0  0  0
   34.9440   28.6950   36.5330 H   0  0  0  0  0  0  0  0  0  0  0  0
   33.2270   28.4390   38.1900 H   0  0  0  0  0  0  0  0  0  0  0  0
   33.5260   29.1010   40.5520 H   0  0  0  0  0  0  0  0  0  0  0  0
   35.6430   30.0650   41.1870 H   0  0  0  0  0  0  0  0  0  0  0  0
   36.6020   27.5400   43.6790 C   0  0  0  0  0  0  0  0  0  0  0  0
   37.2750   28.6730   43.2630 C   0  0  0  0  0  0  0  0  0  0  0  0
   38.0300   28.6340   42.0980 C   0  0  0  0  0  0  0  0  0  0  0  0
   38.0750   27.4650   41.4060 N   0  0  0  0  0  0  0  0  0  0  0  0
   37.4110   26.3480   41.8200 C   0  0  0  0  0  0  0  0  0  0  0  0
   36.6750   26.4020   42.9620 N   0  0  0  0  0  0  0  0  0  0  0  0
   36.0130   27.5780   44.5890 H   0  0  0  0  0  0  0  0  0  0  0  0
   37.2180   29.5590   43.8650 H   0  0  0  0  0  0  0  0  0  0  0  0
   39.6260   24.4160   42.8700 Br  0  0  0  0  0  0  0  0  0  0  0  0
   38.4490   24.1850   41.3940 C   0  0  0  0  0  0  0  0  0  0  0  0
   37.5040   25.1250   41.0310 C   0  0  0  0  0  0  0  0  0  0  0  0
   36.6310   24.9980   39.9690 C   0  0  0  0  0  0  0  0  0  0  0  0
   35.9060   25.7700   39.7260 H   0  0  0  0  0  0  0  0  0  0  0  0
   36.7040   23.8450   39.2080 C   0  0  0  0  0  0  0  0  0  0  0  0
   36.0270   23.7260   38.3700 H   0  0  0  0  0  0  0  0  0  0  0  0
   37.6380   22.8830   39.5440 C   0  0  0  0  0  3  0  0  0  0  0  0
   38.5030   23.0290   40.6110 C   0  0  0  0  0  3  0  0  0  0  0  0
  1 30  1  0  0  0  0
  2  1  1  0  0  0  0
  2  3  1  0  0  0  0
  2  6  1  0  0  0  0
  3  9  1  0  0  0  0
  4 11  1  0  0  0  0
  4  3  1  0  0  0  0
  5  4  1  0  0  0  0
  5  1  1  0  0  0  0
  5 12  1  1  0  0  0
  7  2  1  0  0  0  0
  8  3  1  0  0  0  0
 10  4  1  0  0  0  0
 13  5  1  0  0  0  0
 14 13  2  0  0  0  0
 15 14  1  0  0  0  0
 16 15  2  0  0  0  0
 16 17  1  0  0  0  0
 17 22  1  0  0  0  0
 18 17  2  0  0  0  0
 18 19  1  0  0  0  0
 19 20  2  0  0  0  0
 20 21  1  0  0  0  0
 20 26  1  0  0  0  0
 21 27  1  0  0  0  0
 22 13  1  0  0  0  0
 22 21  2  0  0  0  0
 23 15  1  0  0  0  0
 24 18  1  0  0  0  0
 25 19  1  0  0  0  0
 28 34  1  0  0  0  0
 29 28  1  0  0  0  0
 29 35  1  0  0  0  0
 30 29  2  0  0  0  0
 31 32  2  0  0  0  0
 31 30  1  0  0  0  0
 32 33  1  0  0  0  0
 33 28  2  0  0  0  0
 37 36  1  0  0  0  0
 38 37  1  0  0  0  0
 38 32  1  0  0  0  0
 39 38  2  0  0  0  0
 40 39  1  0  0  0  0
 41 43  2  0  0  0  0
 41 39  1  0  0  0  0
 42 41  1  0  0  0  0
 43 44  1  0  0  0  0
 44 37  2  0  0  0  0
M  END
>  <minimizedAffinity>
-6.67995405

$$$$

 OpenBabel03242512533D

 44 48  0  0  1  0  0  0  0  0999 V2000
   38.7830   30.9800   40.1660 N   0  0  0  0  0  0  0  0  0  0  0  0
   38.3260   32.3400   40.4710 C   0  0  0  0  0  0  0  0  0  0  0  0
   37.0210   32.2920   39.7050 C   0  0  0  0  0  0  0  0  0  0  0  0
   37.5120   31.8210   38.3540 C   0  0  0  0  0  0  0  0  0  0  0  0
   38.5420   30.7670   38.7140 C   0  0  1  0  0  0  0  0  0  0  0  0
   38.2060   32.4580   41.5560 H   0  0  0  0  0  0  0  0  0  0  0  0
   38.9580   33.0820   39.9730 H   0  0  0  0  0  0  0  0  0  0  0  0
   36.6570   33.3440   39.6470 H   0  0  0  0  0  0  0  0  0  0  0  0
   36.2960   31.5940   40.1190 H   0  0  0  0  0  0  0  0  0  0  0  0
   37.9730   32.6450   37.7780 H   0  0  0  0  0  0  0  0  0  0  0  0
   36.6480   31.3930   37.8210 H   0  0  0  0  0  0  0  0  0  0  0  0
   38.0650   29.8260   38.6990 H   0  0  0  0  0  0  0  0  0  0  0  0
   39.8280   30.9750   38.0790 C   0  0  0  0  0  0  0  0  0  0  0  0
   40.3410   32.2150   37.9220 N   0  0  0  0  0  0  0  0  0  0  0  0
   41.5320   32.4890   37.3350 C   0  0  0  0  0  0  0  0  0  0  0  0
   42.2600   31.4620   36.8750 N   0  0  0  0  0  0  0  0  0  0  0  0
   41.7980   30.2220   37.0060 C   0  0  0  0  0  0  0  0  0  0  0  0
   42.5960   29.1990   36.5120 C   0  0  0  0  0  0  0  0  0  0  0  0
   42.1140   27.9030   36.6490 C   0  0  0  0  0  0  0  0  0  0  0  0
   40.9010   27.5640   37.2390 C   0  0  0  0  0  0  0  0  0  0  0  0
   40.1760   28.6430   37.7000 C   0  0  0  0  0  0  0  0  0  0  0  0
   40.5780   29.9290   37.6050 C   0  0  0  0  0  0  0  0  0  0  0  0
   41.8770   33.5110   37.2450 H   0  0  0  0  0  0  0  0  0  0  0  0
   43.5490   29.3850   36.0420 H   0  0  0  0  0  0  0  0  0  0  0  0
   42.7660   27.1260   36.2520 H   0  0  0  0  0  0  0  0  0  0  0  0
   40.6070   26.5410   37.3030 H   0  0  0  0  0  0  0  0  0  0  0  0
   39.2360   28.3450   38.1260 H   0  0  0  0  0  0  0  0  0  0  0  0
   40.8850   29.1630   42.6250 C   0  0  0  0  0  0  0  0  0  0  0  0
   40.4090   30.2080   41.8530 C   0  0  0  0  0  0  0  0  0  0  0  0
   39.3440   29.9930   40.9890 C   0  0  0  0  0  0  0  0  0  0  0  0
   38.8060   28.7450   40.9370 N   0  0  0  0  0  0  0  0  0  0  0  0
   39.2790   27.7170   41.6980 C   0  0  0  0  0  0  0  0  0  0  0  0
   40.3210   27.9430   42.5400 N   0  0  0  0  0  0  0  0  0  0  0  0
   41.7160   29.3390   43.2990 H   0  0  0  0  0  0  0  0  0  0  0  0
   40.8900   31.1630   41.9230 H   0  0  0  0  0  0  0  0  0  0  0  0
   36.7040   27.4710   43.4440 Br  0  0  0  0  0  0  0  0  0  0  0  0
   37.5050   26.1650   42.3180 C   0  0  0  0  0  0  0  0  0  0  0  0
   38.6560   26.4020   41.5920 C   0  0  0  0  0  0  0  0  0  0  0  0
   39.2700   25.4830   40.7640 C   0  0  0  0  0  0  0  0  0  0  0  0
   40.1760   25.7220   40.2150 H   0  0  0  0  0  0  0  0  0  0  0  0
   38.6950   24.2300   40.6510 C   0  0  0  0  0  0  0  0  0  0  0  0
   39.1620   23.4960   40.0050 H   0  0  0  0  0  0  0  0  0  0  0  0
   37.5420   23.9600   41.3640 C   0  0  0  0  0  3  0  0  0  0  0  0
   36.9420   24.8930   42.1870 C   0  0  0  0  0  3  0  0  0  0  0  0
  1  2  1  0  0  0  0
  1 30  1  0  0  0  0
  2  6  1  0  0  0  0
  3  9  1  0  0  0  0
  3  2  1  0  0  0  0
  4  5  1  0  0  0  0
  4  3  1  0  0  0  0
  5 12  1  6  0  0  0
  5  1  1  0  0  0  0
  7  2  1  0  0  0  0
  8  3  1  0  0  0  0
 10  4  1  0  0  0  0
 11  4  1  0  0  0  0
 13  5  1  0  0  0  0
 14 13  1  0  0  0  0
 15 14  2  0  0  0  0
 16 17  2  0  0  0  0
 16 15  1  0  0  0  0
 17 22  1  0  0  0  0
 18 19  2  0  0  0  0
 18 17  1  0  0  0  0
 19 20  1  0  0  0  0
 20 26  1  0  0  0  0
 20 21  2  0  0  0  0
 21 27  1  0  0  0  0
 22 21  1  0  0  0  0
 22 13  2  0  0  0  0
 23 15  1  0  0  0  0
 24 18  1  0  0  0  0
 25 19  1  0  0  0  0
 28 34  1  0  0  0  0
 29 35  1  0  0  0  0
 29 28  2  0  0  0  0
 30 29  1  0  0  0  0
 31 30  2  0  0  0  0
 31 32  1  0  0  0  0
 32 33  2  0  0  0  0
 33 28  1  0  0  0  0
 37 36  1  0  0  0  0
 38 32  1  0  0  0  0
 38 37  2  0  0  0  0
 39 38  1  0  0  0  0
 40 39  1  0  0  0  0
 41 39  2  0  0  0  0
 41 43  1  0  0  0  0
 42 41  1  0  0  0  0
 43 44  2  0  0  0  0
 44 37  1  0  0  0  0
M  END
>  <minimizedAffinity>
-6.34982347

$$$$

 OpenBabel03242512533D

 44 48  0  0  1  0  0  0  0  0999 V2000
   40.3480   28.8520   42.3870 N   0  0  0  0  0  0  0  0  0  0  0  0
   41.6540   28.1960   42.5100 C   0  0  0  0  0  0  0  0  0  0  0  0
   42.3600   29.2920   43.2800 C   0  0  0  0  0  0  0  0  0  0  0  0
   42.0640   30.4840   42.3960 C   0  0  0  0  0  0  0  0  0  0  0  0
   40.6160   30.2630   42.0000 C   0  0  1  0  0  0  0  0  0  0  0  0
   41.5470   27.2550   43.0640 H   0  0  0  0  0  0  0  0  0  0  0  0
   42.1470   28.1280   41.5350 H   0  0  0  0  0  0  0  0  0  0  0  0
   43.4460   29.0410   43.2520 H   0  0  0  0  0  0  0  0  0  0  0  0
   41.9650   29.4450   44.2830 H   0  0  0  0  0  0  0  0  0  0  0  0
   42.7200   30.5040   41.5070 H   0  0  0  0  0  0  0  0  0  0  0  0
   42.1920   31.3890   43.0120 H   0  0  0  0  0  0  0  0  0  0  0  0
   40.0080   30.8020   42.6720 H   0  0  0  0  0  0  0  0  0  0  0  0
   40.3960   30.3150   40.5690 C   0  0  0  0  0  0  0  0  0  0  0  0
   41.2910   29.7940   39.7000 N   0  0  0  0  0  0  0  0  0  0  0  0
   41.1570   29.8090   38.3520 C   0  0  0  0  0  0  0  0  0  0  0  0
   40.0610   30.3780   37.8330 N   0  0  0  0  0  0  0  0  0  0  0  0
   39.1490   30.9050   38.6460 C   0  0  0  0  0  0  0  0  0  0  0  0
   38.0340   31.4780   38.0510 C   0  0  0  0  0  0  0  0  0  0  0  0
   37.0810   32.0280   38.9000 C   0  0  0  0  0  0  0  0  0  0  0  0
   37.1670   32.0430   40.2880 C   0  0  0  0  0  0  0  0  0  0  0  0
   38.3070   31.4520   40.7900 C   0  0  0  0  0  0  0  0  0  0  0  0
   39.2760   30.8960   40.0300 C   0  0  0  0  0  0  0  0  0  0  0  0
   41.9190   29.3710   37.7200 H   0  0  0  0  0  0  0  0  0  0  0  0
   37.8980   31.5040   36.9810 H   0  0  0  0  0  0  0  0  0  0  0  0
   36.2190   32.4690   38.3990 H   0  0  0  0  0  0  0  0  0  0  0  0
   36.3880   32.4880   40.8650 H   0  0  0  0  0  0  0  0  0  0  0  0
   38.3520   31.5050   41.8620 H   0  0  0  0  0  0  0  0  0  0  0  0
   36.9290   28.2170   43.6780 C   0  0  0  0  0  0  0  0  0  0  0  0
   38.1930   28.7700   43.5850 C   0  0  0  0  0  0  0  0  0  0  0  0
   39.0490   28.3560   42.5740 C   0  0  0  0  0  0  0  0  0  0  0  0
   38.6020   27.4100   41.7050 N   0  0  0  0  0  0  0  0  0  0  0  0
   37.3560   26.8660   41.8010 C   0  0  0  0  0  0  0  0  0  0  0  0
   36.5280   27.2820   42.7960 N   0  0  0  0  0  0  0  0  0  0  0  0
   36.2650   28.5450   44.4700 H   0  0  0  0  0  0  0  0  0  0  0  0
   38.4950   29.4950   44.3140 H   0  0  0  0  0  0  0  0  0  0  0  0
   36.3570   28.1130   39.1200 Br  0  0  0  0  0  0  0  0  0  0  0  0
   36.4760   26.2780   39.6060 C   0  0  0  0  0  0  0  0  0  0  0  0
   36.9400   25.8540   40.8360 C   0  0  0  0  0  0  0  0  0  0  0  0
   37.0420   24.5350   41.2290 C   0  0  0  0  0  0  0  0  0  0  0  0
   37.4140   24.2560   42.2110 H   0  0  0  0  0  0  0  0  0  0  0  0
   36.6520   23.5600   40.3280 C   0  0  0  0  0  0  0  0  0  0  0  0
   36.7260   22.5190   40.6190 H   0  0  0  0  0  0  0  0  0  0  0  0
   36.1840   23.9500   39.0870 C   0  0  0  0  0  3  0  0  0  0  0  0
   36.0890   25.2760   38.7130 C   0  0  0  0  0  3  0  0  0  0  0  0
  1  2  1  0  0  0  0
  1 30  1  0  0  0  0
  2  6  1  0  0  0  0
  2  3  1  0  0  0  0
  3  9  1  0  0  0  0
  4 11  1  0  0  0  0
  4  3  1  0  0  0  0
  5  1  1  0  0  0  0
  5  4  1  0  0  0  0
  5 12  1  1  0  0  0
  7  2  1  0  0  0  0
  8  3  1  0  0  0  0
 10  4  1  0  0  0  0
 13  5  1  0  0  0  0
 14 13  2  0  0  0  0
 15 14  1  0  0  0  0
 16 15  2  0  0  0  0
 16 17  1  0  0  0  0
 17 22  1  0  0  0  0
 18 17  2  0  0  0  0
 18 19  1  0  0  0  0
 19 20  2  0  0  0  0
 20 21  1  0  0  0  0
 20 26  1  0  0  0  0
 21 27  1  0  0  0  0
 22 13  1  0  0  0  0
 22 21  2  0  0  0  0
 23 15  1  0  0  0  0
 24 18  1  0  0  0  0
 25 19  1  0  0  0  0
 28 34  1  0  0  0  0
 29 28  1  0  0  0  0
 29 35  1  0  0  0  0
 30 29  2  0  0  0  0
 31 32  2  0  0  0  0
 31 30  1  0  0  0  0
 32 33  1  0  0  0  0
 33 28  2  0  0  0  0
 36 37  1  0  0  0  0
 37 38  1  0  0  0  0
 38 39  2  0  0  0  0
 38 32  1  0  0  0  0
 39 40  1  0  0  0  0
 41 42  1  0  0  0  0
 41 39  1  0  0  0  0
 43 41  2  0  0  0  0
 44 43  1  0  0  0  0
 44 37  2  0  0  0  0
M  END
>  <minimizedAffinity>
-6.16245127

$$$$

 OpenBabel03242512533D

 44 48  0  0  1  0  0  0  0  0999 V2000
   39.3970   31.0220   39.3100 N   0  0  0  0  0  0  0  0  0  0  0  0
   40.5480   31.7490   39.8560 C   0  0  0  0  0  0  0  0  0  0  0  0
   40.6760   32.7810   38.7560 C   0  0  0  0  0  0  0  0  0  0  0  0
   40.7100   31.8840   37.5380 C   0  0  0  0  0  0  0  0  0  0  0  0
   39.6620   30.8350   37.8590 C   0  0  1  0  0  0  0  0  0  0  0  0
   40.2920   32.1680   40.8370 H   0  0  0  0  0  0  0  0  0  0  0  0
   41.4500   31.1310   39.8160 H   0  0  0  0  0  0  0  0  0  0  0  0
   41.6630   33.2760   38.9080 H   0  0  0  0  0  0  0  0  0  0  0  0
   39.8360   33.4720   38.7050 H   0  0  0  0  0  0  0  0  0  0  0  0
   41.7050   31.4210   37.4020 H   0  0  0  0  0  0  0  0  0  0  0  0
   40.4300   32.4990   36.6680 H   0  0  0  0  0  0  0  0  0  0  0  0
   38.7520   31.1390   37.4200 H   0  0  0  0  0  0  0  0  0  0  0  0
   40.1480   29.4760   37.7310 C   0  0  0  0  0  0  0  0  0  0  0  0
   41.3750   29.1240   38.1750 N   0  0  0  0  0  0  0  0  0  0  0  0
   41.8990   27.8770   38.0870 C   0  0  0  0  0  0  0  0  0  0  0  0
   41.1540   26.9180   37.5220 N   0  0  0  0  0  0  0  0  0  0  0  0
   39.9390   27.2130   37.0690 C   0  0  0  0  0  0  0  0  0  0  0  0
   39.2140   26.1790   36.4940 C   0  0  0  0  0  0  0  0  0  0  0  0
   37.9440   26.4870   36.0220 C   0  0  0  0  0  0  0  0  0  0  0  0
   37.3560   27.7470   36.0840 C   0  0  0  0  0  0  0  0  0  0  0  0
   38.1500   28.7110   36.6690 C   0  0  0  0  0  0  0  0  0  0  0  0
   39.3910   28.4880   37.1530 C   0  0  0  0  0  0  0  0  0  0  0  0
   42.8920   27.6710   38.4660 H   0  0  0  0  0  0  0  0  0  0  0  0
   39.6020   25.1760   36.4120 H   0  0  0  0  0  0  0  0  0  0  0  0
   37.4020   25.6520   35.5790 H   0  0  0  0  0  0  0  0  0  0  0  0
   36.3750   27.8970   35.6960 H   0  0  0  0  0  0  0  0  0  0  0  0
   37.6750   29.6760   36.6770 H   0  0  0  0  0  0  0  0  0  0  0  0
   36.0740   30.7980   40.9450 C   0  0  0  0  0  0  0  0  0  0  0  0
   37.1840   31.3650   40.3470 C   0  0  0  0  0  0  0  0  0  0  0  0
   38.2290   30.5520   39.9290 C   0  0  0  0  0  0  0  0  0  0  0  0
   38.1150   29.2120   40.1290 N   0  0  0  0  0  0  0  0  0  0  0  0
   37.0200   28.6560   40.7210 C   0  0  0  0  0  0  0  0  0  0  0  0
   36.0040   29.4640   41.1240 N   0  0  0  0  0  0  0  0  0  0  0  0
   35.2610   31.4380   41.2680 H   0  0  0  0  0  0  0  0  0  0  0  0
   37.2250   32.4310   40.2370 H   0  0  0  0  0  0  0  0  0  0  0  0
   37.5520   27.8110   43.6790 Br  0  0  0  0  0  0  0  0  0  0  0  0
   37.1810   26.7070   42.1760 C   0  0  0  0  0  0  0  0  0  0  0  0
   36.9620   27.2100   40.9070 C   0  0  0  0  0  0  0  0  0  0  0  0
   36.6910   26.4460   39.7910 C   0  0  0  0  0  0  0  0  0  0  0  0
   36.5270   26.8930   38.8150 H   0  0  0  0  0  0  0  0  0  0  0  0
   36.6330   25.0720   39.9470 C   0  0  0  0  0  0  0  0  0  0  0  0
   36.4200   24.4550   39.0820 H   0  0  0  0  0  0  0  0  0  0  0  0
   36.8460   24.5350   41.2030 C   0  0  0  0  0  3  0  0  0  0  0  0
   37.1160   25.3180   42.3090 C   0  0  0  0  0  3  0  0  0  0  0  0
  1  2  1  0  0  0  0
  1 30  1  0  0  0  0
  2  6  1  0  0  0  0
  3  8  1  0  0  0  0
  3  2  1  0  0  0  0
  4  5  1  0  0  0  0
  4  3  1  0  0  0  0
  5 12  1  6  0  0  0
  5  1  1  0  0  0  0
  7  2  1  0  0  0  0
  9  3  1  0  0  0  0
 10  4  1  0  0  0  0
 11  4  1  0  0  0  0
 13  5  1  0  0  0  0
 13 14  1  0  0  0  0
 15 14  2  0  0  0  0
 15 23  1  0  0  0  0
 16 15  1  0  0  0  0
 17 22  1  0  0  0  0
 17 16  2  0  0  0  0
 18 17  1  0  0  0  0
 19 20  1  0  0  0  0
 19 18  2  0  0  0  0
 20 21  2  0  0  0  0
 21 27  1  0  0  0  0
 21 22  1  0  0  0  0
 22 13  2  0  0  0  0
 24 18  1  0  0  0  0
 25 19  1  0  0  0  0
 26 20  1  0  0  0  0
 28 33  1  0  0  0  0
 28 34  1  0  0  0  0
 29 28  2  0  0  0  0
 30 31  2  0  0  0  0
 30 29  1  0  0  0  0
 31 32  1  0  0  0  0
 32 38  1  0  0  0  0
 32 33  2  0  0  0  0
 35 29  1  0  0  0  0
 37 44  1  0  0  0  0
 37 36  1  0  0  0  0
 38 37  2  0  0  0  0
 39 41  2  0  0  0  0
 39 38  1  0  0  0  0
 40 39  1  0  0  0  0
 41 43  1  0  0  0  0
 42 41  1  0  0  0  0
 43 44  2  0  0  0  0
M  END
>  <minimizedAffinity>
-6.15216875

$$$$

 OpenBabel03242512533D

 44 48  0  0  1  0  0  0  0  0999 V2000
   37.3000   25.5600   40.9550 N   0  0  0  0  0  0  0  0  0  0  0  0
   36.5040   25.1360   39.7980 C   0  0  0  0  0  0  0  0  0  0  0  0
   36.1120   23.7670   40.3120 C   0  0  0  0  0  0  0  0  0  0  0  0
   37.4700   23.2140   40.6850 C   0  0  0  0  0  0  0  0  0  0  0  0
   38.1580   24.4040   41.3260 C   0  0  1  0  0  0  0  0  0  0  0  0
   35.6580   25.8210   39.6560 H   0  0  0  0  0  0  0  0  0  0  0  0
   37.1440   24.9750   38.9260 H   0  0  0  0  0  0  0  0  0  0  0  0
   35.6890   23.2180   39.4390 H   0  0  0  0  0  0  0  0  0  0  0  0
   35.4540   23.7970   41.1790 H   0  0  0  0  0  0  0  0  0  0  0  0
   38.0260   22.8670   39.7950 H   0  0  0  0  0  0  0  0  0  0  0  0
   37.3050   22.3930   41.4020 H   0  0  0  0  0  0  0  0  0  0  0  0
   38.0150   24.3410   42.3690 H   0  0  0  0  0  0  0  0  0  0  0  0
   39.4580   24.6950   40.7560 C   0  0  0  0  0  0  0  0  0  0  0  0
   39.6900   24.5630   39.4310 N   0  0  0  0  0  0  0  0  0  0  0  0
   40.8770   24.8110   38.8260 C   0  0  0  0  0  0  0  0  0  0  0  0
   41.9010   25.2180   39.5890 N   0  0  0  0  0  0  0  0  0  0  0  0
   41.7230   25.3640   40.8990 C   0  0  0  0  0  0  0  0  0  0  0  0
   42.8190   25.7900   41.6370 C   0  0  0  0  0  0  0  0  0  0  0  0
   42.6340   25.9440   43.0060 C   0  0  0  0  0  0  0  0  0  0  0  0
   41.4410   25.7020   43.6800 C   0  0  0  0  0  0  0  0  0  0  0  0
   40.4090   25.2820   42.8670 C   0  0  0  0  0  0  0  0  0  0  0  0
   40.5110   25.1120   41.5300 C   0  0  0  0  0  0  0  0  0  0  0  0
   40.9860   24.6810   37.7580 H   0  0  0  0  0  0  0  0  0  0  0  0
   43.7760   25.9980   41.1850 H   0  0  0  0  0  0  0  0  0  0  0  0
   43.5140   26.2800   43.5540 H   0  0  0  0  0  0  0  0  0  0  0  0
   41.3860   25.8450   44.7350 H   0  0  0  0  0  0  0  0  0  0  0  0
   39.5120   25.0820   43.4230 H   0  0  0  0  0  0  0  0  0  0  0  0
   37.1620   28.1460   43.6110 C   0  0  0  0  0  0  0  0  0  0  0  0
   37.1070   26.8980   43.0190 C   0  0  0  0  0  0  0  0  0  0  0  0
   37.3290   26.7760   41.6540 C   0  0  0  0  0  0  0  0  0  0  0  0
   37.5940   27.9060   40.9470 N   0  0  0  0  0  0  0  0  0  0  0  0
   37.6460   29.1360   41.5340 C   0  0  0  0  0  0  0  0  0  0  0  0
   37.4270   29.2400   42.8720 N   0  0  0  0  0  0  0  0  0  0  0  0
   36.9880   28.2340   44.6780 H   0  0  0  0  0  0  0  0  0  0  0  0
   36.8700   26.0470   43.6270 H   0  0  0  0  0  0  0  0  0  0  0  0
   40.7060   29.5480   41.0770 Br  0  0  0  0  0  0  0  0  0  0  0  0
   39.2560   30.6010   40.4400 C   0  0  0  0  0  0  0  0  0  0  0  0
   37.9350   30.3090   40.7160 C   0  0  0  0  0  0  0  0  0  0  0  0
   36.8540   31.0450   40.2740 C   0  0  0  0  0  0  0  0  0  0  0  0
   35.8330   30.7700   40.5210 H   0  0  0  0  0  0  0  0  0  0  0  0
   37.1080   32.1610   39.4970 C   0  0  0  0  0  0  0  0  0  0  0  0
   36.2720   32.7520   39.1400 H   0  0  0  0  0  0  0  0  0  0  0  0
   38.4190   32.4830   39.2010 C   0  0  0  0  0  3  0  0  0  0  0  0
   39.4870   31.7320   39.6530 C   0  0  0  0  0  3  0  0  0  0  0  0
  1  5  1  0  0  0  0
  1 30  1  0  0  0  0
  2  3  1  0  0  0  0
  2  1  1  0  0  0  0
  3  4  1  0  0  0  0
  3  9  1  0  0  0  0
  4  5  1  0  0  0  0
  4 11  1  0  0  0  0
  5 12  1  1  0  0  0
  6  2  1  0  0  0  0
  7  2  1  0  0  0  0
  8  3  1  0  0  0  0
 10  4  1  0  0  0  0
 13  5  1  0  0  0  0
 13 22  1  0  0  0  0
 14 13  2  0  0  0  0
 15 14  1  0  0  0  0
 15 16  2  0  0  0  0
 16 17  1  0  0  0  0
 17 22  2  0  0  0  0
 17 18  1  0  0  0  0
 18 19  2  0  0  0  0
 19 25  1  0  0  0  0
 19 20  1  0  0  0  0
 20 26  1  0  0  0  0
 21 27  1  0  0  0  0
 21 20  2  0  0  0  0
 22 21  1  0  0  0  0
 23 15  1  0  0  0  0
 24 18  1  0  0  0  0
 28 34  1  0  0  0  0
 29 28  1  0  0  0  0
 29 35  1  0  0  0  0
 30 29  2  0  0  0  0
 31 32  2  0  0  0  0
 31 30  1  0  0  0  0
 32 33  1  0  0  0  0
 33 28  2  0  0  0  0
 37 38  1  0  0  0  0
 37 36  1  0  0  0  0
 38 32  1  0  0  0  0
 39 40  1  0  0  0  0
 39 38  2  0  0  0  0
 41 39  1  0  0  0  0
 42 41  1  0  0  0  0
 43 41  2  0  0  0  0
 43 44  1  0  0  0  0
 44 37  2  0  0  0  0
M  END
>  <minimizedAffinity>
-6.1494379

$$$$

 OpenBabel03242512533D

 44 48  0  0  1  0  0  0  0  0999 V2000
   37.2740   28.5440   39.7520 N   0  0  0  0  0  0  0  0  0  0  0  0
   36.0690   28.3970   38.9290 C   0  0  0  0  0  0  0  0  0  0  0  0
   36.7380   27.8470   37.6870 C   0  0  0  0  0  0  0  0  0  0  0  0
   37.8180   28.8840   37.4730 C   0  0  0  0  0  0  0  0  0  0  0  0
   38.3110   29.1580   38.8810 C   0  0  1  0  0  0  0  0  0  0  0  0
   35.3720   27.7000   39.4100 H   0  0  0  0  0  0  0  0  0  0  0  0
   35.6620   29.3770   38.6600 H   0  0  0  0  0  0  0  0  0  0  0  0
   35.9760   27.8990   36.8750 H   0  0  0  0  0  0  0  0  0  0  0  0
   37.1720   26.8580   37.8260 H   0  0  0  0  0  0  0  0  0  0  0  0
   37.4140   29.8030   37.0090 H   0  0  0  0  0  0  0  0  0  0  0  0
   38.5960   28.4240   36.8420 H   0  0  0  0  0  0  0  0  0  0  0  0
   39.1500   28.5430   39.0590 H   0  0  0  0  0  0  0  0  0  0  0  0
   38.3170   30.5650   39.2280 C   0  0  0  0  0  0  0  0  0  0  0  0
   37.2300   31.3430   39.0260 N   0  0  0  0  0  0  0  0  0  0  0  0
   37.1610   32.6640   39.3200 C   0  0  0  0  0  0  0  0  0  0  0  0
   38.2440   33.2500   39.8480 N   0  0  0  0  0  0  0  0  0  0  0  0
   39.3390   32.5280   40.0660 C   0  0  0  0  0  0  0  0  0  0  0  0
   40.4280   33.1890   40.6170 C   0  0  0  0  0  0  0  0  0  0  0  0
   41.5720   32.4350   40.8450 C   0  0  0  0  0  0  0  0  0  0  0  0
   41.7010   31.0780   40.5620 C   0  0  0  0  0  0  0  0  0  0  0  0
   40.5700   30.5060   40.0180 C   0  0  0  0  0  0  0  0  0  0  0  0
   39.4220   31.1730   39.7690 C   0  0  0  0  0  0  0  0  0  0  0  0
   36.2530   33.2210   39.1290 H   0  0  0  0  0  0  0  0  0  0  0  0
   40.4030   34.2390   40.8630 H   0  0  0  0  0  0  0  0  0  0  0  0
   42.4070   32.9850   41.2790 H   0  0  0  0  0  0  0  0  0  0  0  0
   42.6170   30.5750   40.7690 H   0  0  0  0  0  0  0  0  0  0  0  0
   40.7140   29.4660   39.7900 H   0  0  0  0  0  0  0  0  0  0  0  0
   36.8880   27.8130   43.3680 C   0  0  0  0  0  0  0  0  0  0  0  0
   36.5400   28.1590   42.0760 C   0  0  0  0  0  0  0  0  0  0  0  0
   37.5180   28.2080   41.0920 C   0  0  0  0  0  0  0  0  0  0  0  0
   38.7970   27.9100   41.4470 N   0  0  0  0  0  0  0  0  0  0  0  0
   39.1370   27.5700   42.7230 C   0  0  0  0  0  0  0  0  0  0  0  0
   38.1680   27.5250   43.6750 N   0  0  0  0  0  0  0  0  0  0  0  0
   36.1190   27.7760   44.1320 H   0  0  0  0  0  0  0  0  0  0  0  0
   35.5190   28.4070   41.8640 H   0  0  0  0  0  0  0  0  0  0  0  0
   39.6560   24.5020   42.9600 Br  0  0  0  0  0  0  0  0  0  0  0  0
   40.8880   25.9350   43.1670 C   0  0  0  0  0  0  0  0  0  0  0  0
   40.5280   27.2630   43.0350 C   0  0  0  0  0  0  0  0  0  0  0  0
   41.3890   28.3320   43.1780 C   0  0  0  0  0  0  0  0  0  0  0  0
   41.0520   29.3580   43.0640 H   0  0  0  0  0  0  0  0  0  0  0  0
   42.7130   28.0610   43.4750 C   0  0  0  0  0  0  0  0  0  0  0  0
   43.4040   28.8870   43.5900 H   0  0  0  0  0  0  0  0  0  0  0  0
   43.1070   26.7430   43.6130 C   0  0  0  0  0  3  0  0  0  0  0  0
   42.2300   25.6860   43.4670 C   0  0  0  0  0  3  0  0  0  0  0  0
  1 30  1  0  0  0  0
  2  6  1  0  0  0  0
  2  1  1  0  0  0  0
  3  9  1  0  0  0  0
  3  2  1  0  0  0  0
  4  3  1  0  0  0  0
  4  5  1  0  0  0  0
  5 12  1  1  0  0  0
  5 13  1  0  0  0  0
  5  1  1  0  0  0  0
  7  2  1  0  0  0  0
  8  3  1  0  0  0  0
 10  4  1  0  0  0  0
 11  4  1  0  0  0  0
 13 22  1  0  0  0  0
 14 13  2  0  0  0  0
 14 15  1  0  0  0  0
 15 16  2  0  0  0  0
 16 17  1  0  0  0  0
 17 18  1  0  0  0  0
 18 19  2  0  0  0  0
 18 24  1  0  0  0  0
 19 25  1  0  0  0  0
 20 26  1  0  0  0  0
 20 19  1  0  0  0  0
 21 20  2  0  0  0  0
 22 21  1  0  0  0  0
 22 17  2  0  0  0  0
 23 15  1  0  0  0  0
 27 21  1  0  0  0  0
 28 33  1  0  0  0  0
 28 34  1  0  0  0  0
 29 28  2  0  0  0  0
 30 31  2  0  0  0  0
 30 29  1  0  0  0  0
 31 32  1  0  0  0  0
 32 38  1  0  0  0  0
 32 33  2  0  0  0  0
 35 29  1  0  0  0  0
 36 37  1  0  0  0  0
 37 44  1  0  0  0  0
 38 37  2  0  0  0  0
 38 39  1  0  0  0  0
 39 41  2  0  0  0  0
 40 39  1  0  0  0  0
 41 42  1  0  0  0  0
 41 43  1  0  0  0  0
 44 43  2  0  0  0  0
M  END
>  <minimizedAffinity>
-6.02057505

$$$$

 OpenBabel03242512533D

 44 48  0  0  1  0  0  0  0  0999 V2000
   38.1960   25.3130   39.9240 N   0  0  0  0  0  0  0  0  0  0  0  0
   38.9750   24.2890   40.6290 C   0  0  0  0  0  0  0  0  0  0  0  0
   37.8150   23.4270   41.0800 C   0  0  0  0  0  0  0  0  0  0  0  0
   36.9400   24.4680   41.7450 C   0  0  0  0  0  0  0  0  0  0  0  0
   37.0460   25.6530   40.8030 C   0  0  1  0  0  0  0  0  0  0  0  0
   39.6570   23.7920   39.9280 H   0  0  0  0  0  0  0  0  0  0  0  0
   39.4300   24.7040   41.5330 H   0  0  0  0  0  0  0  0  0  0  0  0
   38.2290   22.7210   41.8360 H   0  0  0  0  0  0  0  0  0  0  0  0
   37.2860   22.9420   40.2620 H   0  0  0  0  0  0  0  0  0  0  0  0
   37.3120   24.7280   42.7530 H   0  0  0  0  0  0  0  0  0  0  0  0
   35.9170   24.0600   41.7860 H   0  0  0  0  0  0  0  0  0  0  0  0
   36.2300   25.6140   40.1360 H   0  0  0  0  0  0  0  0  0  0  0  0
   37.4250   26.8850   41.4670 C   0  0  0  0  0  0  0  0  0  0  0  0
   38.3210   26.8910   42.4780 N   0  0  0  0  0  0  0  0  0  0  0  0
   38.7200   28.0000   43.1480 C   0  0  0  0  0  0  0  0  0  0  0  0
   38.1940   29.1780   42.7890 N   0  0  0  0  0  0  0  0  0  0  0  0
   37.3070   29.2250   41.7990 C   0  0  0  0  0  0  0  0  0  0  0  0
   36.7980   30.4730   41.4700 C   0  0  0  0  0  0  0  0  0  0  0  0
   35.8730   30.5230   40.4350 C   0  0  0  0  0  0  0  0  0  0  0  0
   35.4250   29.4190   39.7140 C   0  0  0  0  0  0  0  0  0  0  0  0
   35.9840   28.2230   40.1110 C   0  0  0  0  0  0  0  0  0  0  0  0
   36.8900   28.0950   41.1050 C   0  0  0  0  0  0  0  0  0  0  0  0
   39.4440   27.9250   43.9490 H   0  0  0  0  0  0  0  0  0  0  0  0
   37.0980   31.3740   41.9830 H   0  0  0  0  0  0  0  0  0  0  0  0
   35.4940   31.5180   40.2030 H   0  0  0  0  0  0  0  0  0  0  0  0
   34.7100   29.5470   38.9340 H   0  0  0  0  0  0  0  0  0  0  0  0
   35.5970   27.3910   39.5500 H   0  0  0  0  0  0  0  0  0  0  0  0
   38.3620   25.9940   36.2810 C   0  0  0  0  0  0  0  0  0  0  0  0
   38.1350   25.3040   37.4570 C   0  0  0  0  0  0  0  0  0  0  0  0
   38.3930   25.9190   38.6740 C   0  0  0  0  0  0  0  0  0  0  0  0
   38.8670   27.1940   38.6580 N   0  0  0  0  0  0  0  0  0  0  0  0
   39.0920   27.8710   37.4960 C   0  0  0  0  0  0  0  0  0  0  0  0
   38.8330   27.2560   36.3110 N   0  0  0  0  0  0  0  0  0  0  0  0
   38.1570   25.5080   35.3330 H   0  0  0  0  0  0  0  0  0  0  0  0
   37.7820   24.2930   37.4040 H   0  0  0  0  0  0  0  0  0  0  0  0
   42.1800   28.0070   37.0620 Br  0  0  0  0  0  0  0  0  0  0  0  0
   40.9590   29.4320   37.3710 C   0  0  0  0  0  0  0  0  0  0  0  0
   39.6030   29.2360   37.5490 C   0  0  0  0  0  0  0  0  0  0  0  0
   38.6840   30.2400   37.7760 C   0  0  0  0  0  0  0  0  0  0  0  0
   37.6260   30.0300   37.9100 H   0  0  0  0  0  0  0  0  0  0  0  0
   39.1490   31.5420   37.8300 C   0  0  0  0  0  0  0  0  0  0  0  0
   38.4420   32.3440   38.0070 H   0  0  0  0  0  0  0  0  0  0  0  0
   40.5010   31.7730   37.6560 C   0  0  0  0  0  3  0  0  0  0  0  0
   41.4050   30.7540   37.4300 C   0  0  0  0  0  3  0  0  0  0  0  0
  1  2  1  0  0  0  0
  1  5  1  0  0  0  0
  2  3  1  0  0  0  0
  2  7  1  0  0  0  0
  3  4  1  0  0  0  0
  3  8  1  0  0  0  0
  4 11  1  0  0  0  0
  4 10  1  0  0  0  0
  5 12  1  6  0  0  0
  5 13  1  0  0  0  0
  5  4  1  0  0  0  0
  6  2  1  0  0  0  0
  9  3  1  0  0  0  0
 13 14  1  0  0  0  0
 14 15  2  0  0  0  0
 15 23  1  0  0  0  0
 16 15  1  0  0  0  0
 17 16  2  0  0  0  0
 18 17  1  0  0  0  0
 18 24  1  0  0  0  0
 19 18  2  0  0  0  0
 20 21  2  0  0  0  0
 20 19  1  0  0  0  0
 21 22  1  0  0  0  0
 22 13  2  0  0  0  0
 22 17  1  0  0  0  0
 25 19  1  0  0  0  0
 26 20  1  0  0  0  0
 27 21  1  0  0  0  0
 28 33  2  0  0  0  0
 28 29  1  0  0  0  0
 29 30  2  0  0  0  0
 30  1  1  0  0  0  0
 31 30  1  0  0  0  0
 32 38  1  0  0  0  0
 32 31  2  0  0  0  0
 33 32  1  0  0  0  0
 34 28  1  0  0  0  0
 35 29  1  0  0  0  0
 36 37  1  0  0  0  0
 37 44  2  0  0  0  0
 37 38  1  0  0  0  0
 38 39  2  0  0  0  0
 39 41  1  0  0  0  0
 39 40  1  0  0  0  0
 41 42  1  0  0  0  0
 43 41  2  0  0  0  0
 44 43  1  0  0  0  0
M  END
>  <minimizedAffinity>
-5.98427486

$$$$

 OpenBabel03242512533D

 44 48  0  0  1  0  0  0  0  0999 V2000
   37.2290   25.1900   38.5280 N   0  0  0  0  0  0  0  0  0  0  0  0
   37.2700   23.8020   38.0540 C   0  0  0  0  0  0  0  0  0  0  0  0
   35.8160   23.4610   38.3000 C   0  0  0  0  0  0  0  0  0  0  0  0
   35.6750   23.8840   39.7460 C   0  0  0  0  0  0  0  0  0  0  0  0
   36.4580   25.1820   39.7990 C   0  0  1  0  0  0  0  0  0  0  0  0
   37.5640   23.7780   36.9970 H   0  0  0  0  0  0  0  0  0  0  0  0
   37.8600   23.1790   38.7330 H   0  0  0  0  0  0  0  0  0  0  0  0
   35.7370   22.3530   38.2050 H   0  0  0  0  0  0  0  0  0  0  0  0
   35.1240   24.0120   37.6660 H   0  0  0  0  0  0  0  0  0  0  0  0
   36.1050   23.1330   40.4340 H   0  0  0  0  0  0  0  0  0  0  0  0
   34.6010   24.0390   39.9400 H   0  0  0  0  0  0  0  0  0  0  0  0
   35.7810   25.9790   39.6590 H   0  0  0  0  0  0  0  0  0  0  0  0
   37.4550   25.2120   40.8510 C   0  0  0  0  0  0  0  0  0  0  0  0
   38.3190   24.1880   41.0290 N   0  0  0  0  0  0  0  0  0  0  0  0
   39.2730   24.1420   41.9900 C   0  0  0  0  0  0  0  0  0  0  0  0
   39.3750   25.1810   42.8290 N   0  0  0  0  0  0  0  0  0  0  0  0
   38.5480   26.2140   42.6950 C   0  0  0  0  0  0  0  0  0  0  0  0
   38.7020   27.2620   43.5920 C   0  0  0  0  0  0  0  0  0  0  0  0
   37.8380   28.3420   43.4510 C   0  0  0  0  0  0  0  0  0  0  0  0
   36.8410   28.4430   42.4870 C   0  0  0  0  0  0  0  0  0  0  0  0
   36.7610   27.3560   41.6420 C   0  0  0  0  0  0  0  0  0  0  0  0
   37.5650   26.2730   41.7140 C   0  0  0  0  0  0  0  0  0  0  0  0
   39.9290   23.2850   42.0710 H   0  0  0  0  0  0  0  0  0  0  0  0
   39.4530   27.2560   44.3660 H   0  0  0  0  0  0  0  0  0  0  0  0
   37.9880   29.1470   44.1710 H   0  0  0  0  0  0  0  0  0  0  0  0
   36.2200   29.3090   42.4500 H   0  0  0  0  0  0  0  0  0  0  0  0
   35.9650   27.4570   40.9270 H   0  0  0  0  0  0  0  0  0  0  0  0
   38.8620   27.6510   36.2840 C   0  0  0  0  0  0  0  0  0  0  0  0
   38.3670   26.4410   36.7310 C   0  0  0  0  0  0  0  0  0  0  0  0
   37.7650   26.3650   37.9800 C   0  0  0  0  0  0  0  0  0  0  0  0
   37.6870   27.5020   38.7210 N   0  0  0  0  0  0  0  0  0  0  0  0
   38.1780   28.6940   38.2780 C   0  0  0  0  0  0  0  0  0  0  0  0
   38.7630   28.7530   37.0520 N   0  0  0  0  0  0  0  0  0  0  0  0
   39.3300   27.7040   35.3070 H   0  0  0  0  0  0  0  0  0  0  0  0
   38.4800   25.5740   36.1090 H   0  0  0  0  0  0  0  0  0  0  0  0
   40.4940   28.9010   40.3600 Br  0  0  0  0  0  0  0  0  0  0  0  0
   39.0290   30.0830   40.0900 C   0  0  0  0  0  0  0  0  0  0  0  0
   38.0620   29.8760   39.1250 C   0  0  0  0  0  0  0  0  0  0  0  0
   36.9850   30.7080   38.8960 C   0  0  0  0  0  0  0  0  0  0  0  0
   36.2520   30.4970   38.1220 H   0  0  0  0  0  0  0  0  0  0  0  0
   36.8580   31.8340   39.6890 C   0  0  0  0  0  0  0  0  0  0  0  0
   36.0190   32.4990   39.5240 H   0  0  0  0  0  0  0  0  0  0  0  0
   37.8090   32.0720   40.6640 C   0  0  0  0  0  3  0  0  0  0  0  0
   38.8800   31.2270   40.8780 C   0  0  0  0  0  3  0  0  0  0  0  0
  1  5  1  0  0  0  0
  2  3  1  0  0  0  0
  2  1  1  0  0  0  0
  2  7  1  0  0  0  0
  3  4  1  0  0  0  0
  4  5  1  0  0  0  0
  4 11  1  0  0  0  0
  4 10  1  0  0  0  0
  5 12  1  1  0  0  0
  5 13  1  0  0  0  0
  6  2  1  0  0  0  0
  8  3  1  0  0  0  0
  9  3  1  0  0  0  0
 13 14  2  0  0  0  0
 13 22  1  0  0  0  0
 14 15  1  0  0  0  0
 15 23  1  0  0  0  0
 15 16  2  0  0  0  0
 17 16  1  0  0  0  0
 17 18  1  0  0  0  0
 18 24  1  0  0  0  0
 19 18  2  0  0  0  0
 19 25  1  0  0  0  0
 20 19  1  0  0  0  0
 21 22  1  0  0  0  0
 21 20  2  0  0  0  0
 22 17  2  0  0  0  0
 26 20  1  0  0  0  0
 27 21  1  0  0  0  0
 28 29  2  0  0  0  0
 28 33  1  0  0  0  0
 29 30  1  0  0  0  0
 30  1  1  0  0  0  0
 30 31  2  0  0  0  0
 32 31  1  0  0  0  0
 32 38  1  0  0  0  0
 33 32  2  0  0  0  0
 34 28  1  0  0  0  0
 35 29  1  0  0  0  0
 37 36  1  0  0  0  0
 37 44  1  0  0  0  0
 38 37  2  0  0  0  0
 39 38  1  0  0  0  0
 39 41  2  0  0  0  0
 40 39  1  0  0  0  0
 41 43  1  0  0  0  0
 42 41  1  0  0  0  0
 43 44  2  0  0  0  0
M  END
>  <minimizedAffinity>
-5.96630716

$$$$
