
 OpenBabel03252504143D

 35 37  0  0  0  0  0  0  0  0999 V2000
   47.5840   30.0220   44.9020 F   0  0  0  0  0  0  0  0  0  0  0  0
   47.4660   30.8030   46.0200 C   0  0  0  0  0  0  0  0  0  0  0  0
   46.9120   32.0680   45.9360 C   0  0  0  0  0  0  0  0  0  0  0  0
   46.8330   32.7870   47.1180 C   0  0  0  0  0  0  0  0  0  0  0  0
   47.2820   32.2690   48.3120 C   0  0  0  0  0  0  0  0  0  0  0  0
   47.8280   30.9980   48.3350 C   0  0  0  0  0  0  0  0  0  0  0  0
   47.9370   30.2240   47.1890 C   0  0  0  0  0  0  0  0  0  0  0  0
   46.4070   33.7860   47.1200 H   0  0  0  0  0  0  0  0  0  0  0  0
   47.2350   32.8050   49.2500 H   0  0  0  0  0  0  0  0  0  0  0  0
   48.1860   30.5790   49.2680 H   0  0  0  0  0  0  0  0  0  0  0  0
   45.7180   28.1390   47.4660 Br  0  0  0  0  0  0  0  0  0  0  0  0
   47.6070   27.8220   47.3230 C   0  0  0  0  0  0  0  0  0  0  0  0
   48.5110   28.8820   47.2020 C   0  0  0  0  0  0  0  0  0  0  0  0
   49.8680   28.6500   47.1000 C   0  0  0  0  0  0  0  0  0  0  0  0
   50.5540   29.4750   47.0060 H   0  0  0  0  0  0  0  0  0  0  0  0
   50.2790   27.3330   47.1250 C   0  0  0  0  0  0  0  0  0  0  0  0
   51.3480   27.0910   47.0470 H   0  0  0  0  0  0  0  0  0  0  0  0
   49.4530   26.2370   47.2430 C   0  0  0  0  0  0  0  0  0  0  0  0
   48.0890   26.5270   47.3420 C   0  0  0  0  0  0  0  0  0  0  0  0
   46.7750   34.1390   42.9330 C   0  0  0  0  0  0  0  0  0  0  0  0
   45.6440   33.6870   42.2710 C   0  0  0  0  0  0  0  0  0  0  0  0
   44.9110   32.6470   42.8700 C   0  0  0  0  0  0  0  0  0  0  0  0
   45.3360   32.1390   44.0500 N   0  0  0  0  0  0  0  0  0  0  0  0
   46.4370   32.6050   44.6600 C   0  0  0  0  0  0  0  0  0  0  0  0
   47.1620   33.6080   44.1030 N   0  0  0  0  0  0  0  0  0  0  0  0
   44.0320   32.2920   42.3630 H   0  0  0  0  0  0  0  0  0  0  0  0
   45.2510   34.2980   40.9860 C   0  0  0  0  0  0  0  0  0  0  0  0
   44.9160   35.6230   41.1750 F   0  0  0  0  0  0  0  0  0  0  0  0
   46.3730   34.2870   40.1530 F   0  0  0  0  0  0  0  0  0  0  0  0
   44.2350   33.6880   40.3410 F   0  0  0  0  0  0  0  0  0  0  0  0
   47.4800   35.1420   42.3540 O   0  0  0  0  0  0  0  0  0  0  0  0
   48.8170   35.0750   41.8810 C   0  0  0  0  0  0  0  0  0  0  0  0
   49.6490   35.3510   42.9660 F   0  0  0  0  0  0  0  0  0  0  0  0
   49.0440   33.8560   41.3080 F   0  0  0  0  0  0  0  0  0  0  0  0
   49.0310   36.1220   41.0050 F   0  0  0  0  0  0  0  0  0  0  0  0
  1  2  1  0  0  0  0
  2  7  1  0  0  0  0
  3  2  2  0  0  0  0
  3  4  1  0  0  0  0
  4  8  1  0  0  0  0
  4  5  2  0  0  0  0
  5  6  1  0  0  0  0
  5  9  1  0  0  0  0
  6 10  1  0  0  0  0
  7 13  1  0  0  0  0
  7  6  2  0  0  0  0
 12 19  1  0  0  0  0
 12 11  1  0  0  0  0
 13 12  2  0  0  0  0
 14 16  2  0  0  0  0
 14 13  1  0  0  0  0
 15 14  1  0  0  0  0
 16 18  1  0  0  0  0
 17 16  1  0  0  0  0
 18 19  2  0  0  0  0
 20 25  1  0  0  0  0
 21 22  1  0  0  0  0
 21 20  2  0  0  0  0
 22 23  2  0  0  0  0
 23 24  1  0  0  0  0
 24  3  1  0  0  0  0
 25 24  2  0  0  0  0
 26 22  1  0  0  0  0
 27 28  1  0  0  0  0
 27 21  1  0  0  0  0
 29 27  1  0  0  0  0
 30 27  1  0  0  0  0
 31 20  1  0  0  0  0
 32 31  1  0  0  0  0
 32 33  1  0  0  0  0
 34 32  1  0  0  0  0
 35 32  1  0  0  0  0
M  END
>  <minimizedAffinity>
-5.8246541

>  <minimizedRMSD>
0.564808249

$$$$
