
 OpenBabel03252503413D

 21 22  0  0  0  0  0  0  0  0999 V2000
   44.7270   35.5360   44.4140 C   0  0  0  0  0  0  0  0  0  0  0  0
   44.5890   34.9380   43.1460 C   0  0  0  0  0  0  0  0  0  0  0  0
   44.9030   33.5910   43.0520 C   0  0  0  0  0  0  0  0  0  0  0  0
   45.3170   32.9160   44.1420 N   0  0  0  0  0  0  0  0  0  0  0  0
   45.4390   33.5230   45.3500 C   0  0  0  0  0  0  0  0  0  0  0  0
   45.1430   34.8310   45.4830 N   0  0  0  0  0  0  0  0  0  0  0  0
   44.5180   36.5750   44.6370 H   0  0  0  0  0  0  0  0  0  0  0  0
   44.7790   33.1960   42.0610 H   0  0  0  0  0  0  0  0  0  0  0  0
   47.7140   31.5830   44.6490 Br  0  0  0  0  0  0  0  0  0  0  0  0
   46.8990   31.8380   46.3640 C   0  0  0  0  0  0  0  0  0  0  0  0
   45.8910   32.7490   46.5040 C   0  0  0  0  0  0  0  0  0  0  0  0
   45.2850   32.9570   47.7250 C   0  0  0  0  0  0  0  0  0  0  0  0
   44.4870   33.6780   47.8360 H   0  0  0  0  0  0  0  0  0  0  0  0
   45.7230   32.2170   48.8140 C   0  0  0  0  0  0  0  0  0  0  0  0
   45.2770   32.3440   49.7960 H   0  0  0  0  0  0  0  0  0  0  0  0
   46.7420   31.2940   48.6800 C   0  0  0  0  0  3  0  0  0  0  0  0
   47.3290   31.1070   47.4490 C   0  0  0  0  0  3  0  0  0  0  0  0
   44.1230   35.8390   42.0720 C   0  0  0  0  0  0  0  0  0  0  0  0
   43.0390   35.9780   42.1780 H   0  0  0  0  0  0  0  0  0  0  0  0
   44.2880   35.4080   41.0690 H   0  0  0  0  0  0  0  0  0  0  0  0
   44.6050   36.8390   42.1530 H   0  0  0  0  0  0  0  0  0  0  0  0
  1  7  1  0  0  0  0
  1  6  1  0  0  0  0
  2  1  2  0  0  0  0
  3  2  1  0  0  0  0
  3  4  2  0  0  0  0
  4  5  1  0  0  0  0
  5  6  2  0  0  0  0
  5 11  1  0  0  0  0
  8  3  1  0  0  0  0
  9 10  1  0  0  0  0
 10 11  2  0  0  0  0
 10 17  1  0  0  0  0
 11 12  1  0  0  0  0
 12 13  1  0  0  0  0
 12 14  2  0  0  0  0
 14 15  1  0  0  0  0
 16 14  1  0  0  0  0
 17 16  2  0  0  0  0
 18 21  1  0  0  0  0
 18 19  1  0  0  0  0
 18  2  1  0  0  0  0
 20 18  1  0  0  0  0
M  END
>  <minimizedAffinity>
-4.2972374

>  <minimizedRMSD>
1.00045252

$$$$
