
 OpenBabel03252502013D

 34 37  0  0  0  0  0  0  0  0999 V2000
   47.7170   32.2940   48.2830 C   0  0  0  0  0  0  0  0  0  0  0  0
   47.3970   30.9350   48.3290 C   0  0  0  0  0  0  0  0  0  0  0  0
   46.5400   30.4630   47.3800 C   0  0  0  0  0  0  0  0  0  0  0  0
   46.0460   31.3150   46.4530 N   0  0  0  0  0  0  0  0  0  0  0  0
   46.3530   32.6090   46.4120 C   0  0  0  0  0  0  0  0  0  0  0  0
   47.1860   33.0610   47.3370 N   0  0  0  0  0  0  0  0  0  0  0  0
   48.4050   32.6560   49.0500 H   0  0  0  0  0  0  0  0  0  0  0  0
   45.9280   33.6710   45.4980 C   0  0  0  0  0  0  0  0  0  0  0  0
   44.9420   34.5620   45.7650 N   0  0  0  0  0  0  0  0  0  0  0  0
   44.5300   35.5350   44.9710 C   0  0  0  0  0  0  0  0  0  0  0  0
   45.1240   35.6940   43.7580 N   0  0  0  0  0  0  0  0  0  0  0  0
   46.1170   34.8800   43.3630 C   0  0  0  0  0  0  0  0  0  0  0  0
   46.7060   35.0580   42.1330 C   0  0  0  0  0  0  0  0  0  0  0  0
   47.7170   34.2370   41.7180 C   0  0  0  0  0  0  0  0  0  0  0  0
   48.1250   33.2280   42.5750 C   0  0  0  0  0  0  0  0  0  0  0  0
   47.5050   33.0920   43.7950 C   0  0  0  0  0  0  0  0  0  0  0  0
   46.4850   33.8910   44.2550 C   0  0  0  0  0  0  0  0  0  0  0  0
   43.7330   36.2100   45.2540 H   0  0  0  0  0  0  0  0  0  0  0  0
   46.3770   35.8410   41.4890 H   0  0  0  0  0  0  0  0  0  0  0  0
   48.2390   34.2990   40.7730 H   0  0  0  0  0  0  0  0  0  0  0  0
   48.9200   32.5460   42.3060 H   0  0  0  0  0  0  0  0  0  0  0  0
   47.8560   32.2820   44.4420 H   0  0  0  0  0  0  0  0  0  0  0  0
   48.3410   28.7900   45.4680 Br  0  0  0  0  0  0  0  0  0  0  0  0
   46.7860   28.2150   46.4500 C   0  0  0  0  0  0  0  0  0  0  0  0
   46.0900   29.0880   47.2640 C   0  0  0  0  0  0  0  0  0  0  0  0
   45.0330   28.4730   47.8570 C   0  0  0  0  0  0  0  0  0  0  0  0
   44.4270   29.0670   48.5110 H   0  0  0  0  0  0  0  0  0  0  0  0
   44.6410   27.1640   47.7210 C   0  0  0  0  0  0  0  0  0  0  0  0
   43.7920   26.7720   48.2310 H   0  0  0  0  0  0  0  0  0  0  0  0
   45.3790   26.3510   46.8950 C   0  0  0  0  0  3  0  0  0  0  0  0
   46.4650   26.8920   46.2550 C   0  0  0  0  0  3  0  0  0  0  0  0
   47.9600   30.1240   49.3240 N   0  0  0  0  0  0  0  0  0  0  0  0
   47.2280   30.2490   50.0650 H   0  0  0  0  0  0  0  0  0  0  0  0
   48.8320   29.8140   48.8010 H   0  0  0  0  0  0  0  0  0  0  0  0
  1  2  1  0  0  0  0
  1  7  1  0  0  0  0
  2 32  1  0  0  0  0
  3  2  2  0  0  0  0
  4  3  1  0  0  0  0
  5  4  2  0  0  0  0
  5  6  1  0  0  0  0
  6  1  2  0  0  0  0
  8  9  1  0  0  0  0
  8  5  1  0  0  0  0
 10 18  1  0  0  0  0
 10  9  2  0  0  0  0
 11 10  1  0  0  0  0
 12 11  2  0  0  0  0
 12 17  1  0  0  0  0
 13 12  1  0  0  0  0
 14 13  2  0  0  0  0
 14 15  1  0  0  0  0
 15 16  2  0  0  0  0
 16 17  1  0  0  0  0
 16 22  1  0  0  0  0
 17  8  2  0  0  0  0
 19 13  1  0  0  0  0
 20 14  1  0  0  0  0
 21 15  1  0  0  0  0
 23 24  1  0  0  0  0
 24 25  1  0  0  0  0
 25  3  1  0  0  0  0
 25 26  2  0  0  0  0
 26 27  1  0  0  0  0
 28 26  1  0  0  0  0
 28 29  1  0  0  0  0
 30 28  2  0  0  0  0
 31 24  2  0  0  0  0
 31 30  1  0  0  0  0
 32 33  1  0  0  0  0
 34 32  1  0  0  0  0
M  END
>  <minimizedAffinity>
-6.40620327

>  <minimizedRMSD>
0.446743459

$$$$
