
 OpenBabel03242520513D

 22 23  0  0  0  0  0  0  0  0999 V2000
   44.4750   35.9350   44.7190 C   0  0  0  0  0  0  0  0  0  0  0  0
   45.2040   35.9660   43.5340 C   0  0  0  0  0  0  0  0  0  0  0  0
   46.1570   34.9860   43.2820 C   0  0  0  0  0  0  0  0  0  0  0  0
   46.3140   34.0450   44.2270 N   0  0  0  0  0  0  0  0  0  0  0  0
   45.6100   34.0190   45.3660 C   0  0  0  0  0  0  0  0  0  0  0  0
   44.6930   34.9610   45.6110 N   0  0  0  0  0  0  0  0  0  0  0  0
   43.7480   36.7190   44.8660 H   0  0  0  0  0  0  0  0  0  0  0  0
   45.0780   36.7200   42.7770 H   0  0  0  0  0  0  0  0  0  0  0  0
   47.3350   31.7740   44.2780 Br  0  0  0  0  0  0  0  0  0  0  0  0
   46.6060   31.8610   46.0170 C   0  0  0  0  0  0  0  0  0  0  0  0
   45.8400   32.9630   46.3440 C   0  0  0  0  0  0  0  0  0  0  0  0
   45.3040   33.0340   47.6130 C   0  0  0  0  0  0  0  0  0  0  0  0
   44.6950   33.8810   47.9180 H   0  0  0  0  0  0  0  0  0  0  0  0
   45.5390   32.0170   48.5160 C   0  0  0  0  0  0  0  0  0  0  0  0
   45.1240   32.0630   49.5140 H   0  0  0  0  0  0  0  0  0  0  0  0
   46.3050   30.9270   48.1730 C   0  0  0  0  0  0  0  0  0  0  0  0
   46.8700   30.8100   46.8990 C   0  0  0  0  0  0  0  0  0  0  0  0
   46.9470   34.8920   42.1600 O   0  0  0  0  0  0  0  0  0  0  0  0
   46.3590   34.2350   41.0240 C   0  0  0  0  0  0  0  0  0  0  0  0
   45.1210   34.7760   40.7510 F   0  0  0  0  0  0  0  0  0  0  0  0
   47.2060   34.4500   39.9320 F   0  0  0  0  0  0  0  0  0  0  0  0
   46.3040   32.8510   41.2360 F   0  0  0  0  0  0  0  0  0  0  0  0
  1  7  1  0  0  0  0
  1  6  1  0  0  0  0
  2  1  2  0  0  0  0
  3  2  1  0  0  0  0
  3  4  2  0  0  0  0
  4  5  1  0  0  0  0
  5  6  2  0  0  0  0
  5 11  1  0  0  0  0
  8  2  1  0  0  0  0
  9 10  1  0  0  0  0
 10 11  2  0  0  0  0
 10 17  1  0  0  0  0
 11 12  1  0  0  0  0
 12 13  1  0  0  0  0
 12 14  2  0  0  0  0
 14 15  1  0  0  0  0
 16 14  1  0  0  0  0
 17 16  2  0  0  0  0
 18  3  1  0  0  0  0
 19 22  1  0  0  0  0
 19 18  1  0  0  0  0
 20 19  1  0  0  0  0
 21 19  1  0  0  0  0
M  END
>  <minimizedAffinity>
-5.28602457

>  <minimizedRMSD>
0.825882137

$$$$
