
 OpenBabel03252504123D

 25 26  0  0  0  0  0  0  0  0999 V2000
   36.8230   27.0090   40.6370 C   0  0  0  0  0  0  0  0  0  0  0  0
   36.6650   27.9760   41.6240 C   0  0  0  0  0  0  0  0  0  0  0  0
   36.0300   29.1690   41.2720 C   0  0  0  0  0  0  0  0  0  0  0  0
   35.6010   29.3190   39.9890 N   0  0  0  0  0  0  0  0  0  0  0  0
   35.7770   28.3510   39.0660 C   0  0  0  0  0  0  0  0  0  0  0  0
   36.3800   27.2010   39.3720 N   0  0  0  0  0  0  0  0  0  0  0  0
   35.8960   29.9350   42.0210 H   0  0  0  0  0  0  0  0  0  0  0  0
   37.9150   29.1450   36.8930 Br  0  0  0  0  0  0  0  0  0  0  0  0
   36.0490   29.0210   36.6590 C   0  0  0  0  0  0  0  0  0  0  0  0
   35.2650   28.6560   37.7340 C   0  0  0  0  0  0  0  0  0  0  0  0
   33.9110   28.5870   37.4880 C   0  0  0  0  0  0  0  0  0  0  0  0
   33.1960   28.3070   38.2670 H   0  0  0  0  0  0  0  0  0  0  0  0
   33.3570   28.8670   36.2340 C   0  0  0  0  0  0  0  0  0  0  0  0
   32.2770   28.7940   36.1020 H   0  0  0  0  0  0  0  0  0  0  0  0
   34.1770   29.2280   35.1870 C   0  0  0  0  0  3  0  0  0  0  0  0
   35.5130   29.2980   35.4240 C   0  0  0  0  0  3  0  0  0  0  0  0
   37.1680   27.7160   42.9960 C   0  0  0  0  0  0  0  0  0  0  0  0
   37.3210   28.9270   43.6740 F   0  0  0  0  0  0  0  0  0  0  0  0
   36.2130   27.0040   43.6790 F   0  0  0  0  0  0  0  0  0  0  0  0
   38.3680   27.0800   43.0500 F   0  0  0  0  0  0  0  0  0  0  0  0
   37.4430   25.8540   40.9940 O   0  0  0  0  0  0  0  0  0  0  0  0
   36.8650   24.5820   41.1390 C   0  0  0  0  0  0  0  0  0  0  0  0
   36.3790   24.5090   42.4590 F   0  0  0  0  0  0  0  0  0  0  0  0
   35.8990   24.4010   40.2040 F   0  0  0  0  0  0  0  0  0  0  0  0
   37.8470   23.6120   41.0870 F   0  0  0  0  0  0  0  0  0  0  0  0
  1 21  1  0  0  0  0
  1  2  1  0  0  0  0
  2 17  1  0  0  0  0
  3  2  2  0  0  0  0
  3  7  1  0  0  0  0
  4  3  1  0  0  0  0
  5  6  1  0  0  0  0
  5  4  2  0  0  0  0
  6  1  2  0  0  0  0
  9  8  1  0  0  0  0
  9 10  1  0  0  0  0
 10  5  1  0  0  0  0
 11 10  2  0  0  0  0
 11 12  1  0  0  0  0
 13 11  1  0  0  0  0
 14 13  1  0  0  0  0
 15 16  1  0  0  0  0
 15 13  2  0  0  0  0
 16  9  2  0  0  0  0
 17 20  1  0  0  0  0
 17 18  1  0  0  0  0
 17 19  1  0  0  0  0
 21 22  1  0  0  0  0
 22 23  1  0  0  0  0
 24 22  1  0  0  0  0
 25 22  1  0  0  0  0
M  END
>  <minimizedAffinity>
-5.50429153

$$$$

 OpenBabel03252504123D

 25 26  0  0  0  0  0  0  0  0999 V2000
   39.0050   30.7580   40.4320 C   0  0  0  0  0  0  0  0  0  0  0  0
   37.9240   31.6240   40.3180 C   0  0  0  0  0  0  0  0  0  0  0  0
   36.6400   31.0800   40.4010 C   0  0  0  0  0  0  0  0  0  0  0  0
   36.5180   29.7370   40.5880 N   0  0  0  0  0  0  0  0  0  0  0  0
   37.5990   28.9360   40.6930 C   0  0  0  0  0  0  0  0  0  0  0  0
   38.8360   29.4270   40.6180 N   0  0  0  0  0  0  0  0  0  0  0  0
   35.7850   31.7330   40.3160 H   0  0  0  0  0  0  0  0  0  0  0  0
   37.4590   27.9410   43.6790 Br  0  0  0  0  0  0  0  0  0  0  0  0
   37.2100   26.9070   42.1230 C   0  0  0  0  0  0  0  0  0  0  0  0
   37.3100   27.5200   40.8910 C   0  0  0  0  0  0  0  0  0  0  0  0
   37.1150   26.7010   39.8000 C   0  0  0  0  0  0  0  0  0  0  0  0
   37.1710   27.0800   38.7760 H   0  0  0  0  0  0  0  0  0  0  0  0
   36.8340   25.3360   39.9230 C   0  0  0  0  0  0  0  0  0  0  0  0
   36.6900   24.7400   39.0210 H   0  0  0  0  0  0  0  0  0  0  0  0
   36.7430   24.7630   41.1730 C   0  0  0  0  0  3  0  0  0  0  0  0
   36.9340   25.5660   42.2530 C   0  0  0  0  0  3  0  0  0  0  0  0
   38.1610   33.0750   40.1160 C   0  0  0  0  0  0  0  0  0  0  0  0
   36.9710   33.6940   39.7250 F   0  0  0  0  0  0  0  0  0  0  0  0
   38.5120   33.6290   41.3220 F   0  0  0  0  0  0  0  0  0  0  0  0
   39.0880   33.3710   39.1660 F   0  0  0  0  0  0  0  0  0  0  0  0
   40.2470   31.3020   40.3480 O   0  0  0  0  0  0  0  0  0  0  0  0
   41.1240   31.5970   41.4050 C   0  0  0  0  0  0  0  0  0  0  0  0
   41.5560   32.9230   41.2100 F   0  0  0  0  0  0  0  0  0  0  0  0
   40.5010   31.4080   42.5940 F   0  0  0  0  0  0  0  0  0  0  0  0
   42.2770   30.8450   41.2810 F   0  0  0  0  0  0  0  0  0  0  0  0
  1  6  1  0  0  0  0
  2  3  1  0  0  0  0
  2  1  2  0  0  0  0
  3  4  2  0  0  0  0
  4  5  1  0  0  0  0
  5 10  1  0  0  0  0
  6  5  2  0  0  0  0
  7  3  1  0  0  0  0
  9 16  1  0  0  0  0
  9  8  1  0  0  0  0
 10  9  2  0  0  0  0
 11 13  2  0  0  0  0
 11 10  1  0  0  0  0
 12 11  1  0  0  0  0
 13 15  1  0  0  0  0
 14 13  1  0  0  0  0
 15 16  2  0  0  0  0
 17  2  1  0  0  0  0
 17 19  1  0  0  0  0
 18 17  1  0  0  0  0
 20 17  1  0  0  0  0
 21  1  1  0  0  0  0
 21 22  1  0  0  0  0
 22 24  1  0  0  0  0
 23 22  1  0  0  0  0
 25 22  1  0  0  0  0
M  END
>  <minimizedAffinity>
-5.23643446

$$$$

 OpenBabel03252504123D

 25 26  0  0  0  0  0  0  0  0999 V2000
   38.7600   30.0760   40.2680 C   0  0  0  0  0  0  0  0  0  0  0  0
   39.7850   30.4950   41.1090 C   0  0  0  0  0  0  0  0  0  0  0  0
   40.3180   29.5620   42.0020 C   0  0  0  0  0  0  0  0  0  0  0  0
   39.8080   28.3000   42.0000 N   0  0  0  0  0  0  0  0  0  0  0  0
   38.8130   27.9400   41.1630 C   0  0  0  0  0  0  0  0  0  0  0  0
   38.2840   28.8080   40.3000 N   0  0  0  0  0  0  0  0  0  0  0  0
   41.1150   29.8640   42.6660 H   0  0  0  0  0  0  0  0  0  0  0  0
   36.5670   27.3580   43.2940 Br  0  0  0  0  0  0  0  0  0  0  0  0
   37.4010   26.1120   42.1510 C   0  0  0  0  0  0  0  0  0  0  0  0
   38.3710   26.5550   41.2770 C   0  0  0  0  0  0  0  0  0  0  0  0
   38.9350   25.5870   40.4730 C   0  0  0  0  0  0  0  0  0  0  0  0
   39.7140   25.8250   39.7440 H   0  0  0  0  0  0  0  0  0  0  0  0
   38.5560   24.2420   40.5330 C   0  0  0  0  0  0  0  0  0  0  0  0
   39.0400   23.5240   39.8710 H   0  0  0  0  0  0  0  0  0  0  0  0
   37.5810   23.8420   41.4220 C   0  0  0  0  0  3  0  0  0  0  0  0
   37.0210   24.7920   42.2170 C   0  0  0  0  0  3  0  0  0  0  0  0
   40.2720   31.8940   41.0350 C   0  0  0  0  0  0  0  0  0  0  0  0
   39.2580   32.7650   41.4420 F   0  0  0  0  0  0  0  0  0  0  0  0
   41.2990   32.0440   41.9340 F   0  0  0  0  0  0  0  0  0  0  0  0
   40.6600   32.2960   39.7950 F   0  0  0  0  0  0  0  0  0  0  0  0
   38.2520   30.9940   39.4050 O   0  0  0  0  0  0  0  0  0  0  0  0
   36.9460   31.5120   39.3790 C   0  0  0  0  0  0  0  0  0  0  0  0
   36.2260   30.7370   38.4490 F   0  0  0  0  0  0  0  0  0  0  0  0
   36.4100   31.4850   40.6240 F   0  0  0  0  0  0  0  0  0  0  0  0
   36.9550   32.7780   38.8270 F   0  0  0  0  0  0  0  0  0  0  0  0
  1  6  2  0  0  0  0
  1  2  1  0  0  0  0
  2  3  2  0  0  0  0
  3  7  1  0  0  0  0
  4  3  1  0  0  0  0
  5 10  1  0  0  0  0
  5  4  2  0  0  0  0
  6  5  1  0  0  0  0
  9 16  1  0  0  0  0
  9  8  1  0  0  0  0
 10  9  2  0  0  0  0
 11 13  2  0  0  0  0
 11 10  1  0  0  0  0
 12 11  1  0  0  0  0
 13 15  1  0  0  0  0
 14 13  1  0  0  0  0
 15 16  2  0  0  0  0
 17  2  1  0  0  0  0
 17 18  1  0  0  0  0
 17 19  1  0  0  0  0
 20 17  1  0  0  0  0
 21  1  1  0  0  0  0
 22 21  1  0  0  0  0
 22 24  1  0  0  0  0
 23 22  1  0  0  0  0
 25 22  1  0  0  0  0
M  END
>  <minimizedAffinity>
-5.15754318

$$$$

 OpenBabel03252504123D

 25 26  0  0  0  0  0  0  0  0999 V2000
   37.4730   28.3500   40.9480 C   0  0  0  0  0  0  0  0  0  0  0  0
   37.8380   29.6200   41.3810 C   0  0  0  0  0  0  0  0  0  0  0  0
   37.2620   30.7180   40.7400 C   0  0  0  0  0  0  0  0  0  0  0  0
   36.3780   30.4880   39.7300 N   0  0  0  0  0  0  0  0  0  0  0  0
   36.0540   29.2350   39.3460 C   0  0  0  0  0  0  0  0  0  0  0  0
   36.5880   28.1670   39.9390 N   0  0  0  0  0  0  0  0  0  0  0  0
   37.5300   31.7140   41.0580 H   0  0  0  0  0  0  0  0  0  0  0  0
   37.2540   29.1420   36.4340 Br  0  0  0  0  0  0  0  0  0  0  0  0
   35.4320   29.0950   36.9150 C   0  0  0  0  0  0  0  0  0  0  0  0
   35.0940   29.1460   38.2520 C   0  0  0  0  0  0  0  0  0  0  0  0
   33.7430   29.1080   38.5260 C   0  0  0  0  0  0  0  0  0  0  0  0
   33.3610   29.1420   39.5500 H   0  0  0  0  0  0  0  0  0  0  0  0
   32.7720   29.0220   37.5230 C   0  0  0  0  0  0  0  0  0  0  0  0
   31.7190   28.9950   37.8050 H   0  0  0  0  0  0  0  0  0  0  0  0
   33.1540   28.9730   36.2000 C   0  0  0  0  0  3  0  0  0  0  0  0
   34.4840   29.0110   35.9230 C   0  0  0  0  0  3  0  0  0  0  0  0
   38.8120   29.7670   42.4910 C   0  0  0  0  0  0  0  0  0  0  0  0
   39.2310   31.0970   42.5720 F   0  0  0  0  0  0  0  0  0  0  0  0
   38.1690   29.4880   43.6710 F   0  0  0  0  0  0  0  0  0  0  0  0
   39.9340   29.0080   42.3660 F   0  0  0  0  0  0  0  0  0  0  0  0
   38.0420   27.2910   41.5810 O   0  0  0  0  0  0  0  0  0  0  0  0
   37.4820   26.5000   42.5980 C   0  0  0  0  0  0  0  0  0  0  0  0
   36.3700   27.2100   43.0920 F   0  0  0  0  0  0  0  0  0  0  0  0
   37.1610   25.2760   42.1120 F   0  0  0  0  0  0  0  0  0  0  0  0
   38.3470   26.4380   43.6740 F   0  0  0  0  0  0  0  0  0  0  0  0
  1  2  1  0  0  0  0
  1 21  1  0  0  0  0
  2 17  1  0  0  0  0
  3  7  1  0  0  0  0
  3  2  2  0  0  0  0
  4  3  1  0  0  0  0
  5  4  2  0  0  0  0
  5  6  1  0  0  0  0
  6  1  2  0  0  0  0
  8  9  1  0  0  0  0
  9 10  1  0  0  0  0
 10 11  2  0  0  0  0
 10  5  1  0  0  0  0
 11 12  1  0  0  0  0
 13 14  1  0  0  0  0
 13 11  1  0  0  0  0
 15 13  2  0  0  0  0
 16 15  1  0  0  0  0
 16  9  2  0  0  0  0
 17 18  1  0  0  0  0
 17 19  1  0  0  0  0
 20 17  1  0  0  0  0
 21 22  1  0  0  0  0
 22 23  1  0  0  0  0
 22 25  1  0  0  0  0
 24 22  1  0  0  0  0
M  END
>  <minimizedAffinity>
-5.14919901

$$$$

 OpenBabel03252504123D

 25 26  0  0  0  0  0  0  0  0999 V2000
   37.7000   29.4640   39.9570 C   0  0  0  0  0  0  0  0  0  0  0  0
   36.5740   29.5680   39.1480 C   0  0  0  0  0  0  0  0  0  0  0  0
   36.5760   30.5430   38.1480 C   0  0  0  0  0  0  0  0  0  0  0  0
   37.6750   31.3360   38.0210 N   0  0  0  0  0  0  0  0  0  0  0  0
   38.7460   31.1970   38.8310 C   0  0  0  0  0  0  0  0  0  0  0  0
   38.7730   30.2750   39.7940 N   0  0  0  0  0  0  0  0  0  0  0  0
   35.7130   30.6430   37.5070 H   0  0  0  0  0  0  0  0  0  0  0  0
   38.8970   33.7470   40.6750 Br  0  0  0  0  0  0  0  0  0  0  0  0
   40.0740   33.2830   39.2780 C   0  0  0  0  0  0  0  0  0  0  0  0
   39.8470   32.1180   38.5750 C   0  0  0  0  0  0  0  0  0  0  0  0
   40.7490   31.8450   37.5680 C   0  0  0  0  0  0  0  0  0  0  0  0
   40.6660   30.9490   36.9470 H   0  0  0  0  0  0  0  0  0  0  0  0
   41.8260   32.6860   37.2720 C   0  0  0  0  0  0  0  0  0  0  0  0
   42.5060   32.4150   36.4640 H   0  0  0  0  0  0  0  0  0  0  0  0
   42.0160   33.8410   38.0010 C   0  0  0  0  0  3  0  0  0  0  0  0
   41.1300   34.1160   38.9940 C   0  0  0  0  0  3  0  0  0  0  0  0
   35.4240   28.6550   39.3660 C   0  0  0  0  0  0  0  0  0  0  0  0
   34.7840   28.9870   40.5620 F   0  0  0  0  0  0  0  0  0  0  0  0
   34.5100   28.8630   38.3640 F   0  0  0  0  0  0  0  0  0  0  0  0
   35.7530   27.3380   39.4490 F   0  0  0  0  0  0  0  0  0  0  0  0
   37.6830   28.5100   40.9240 O   0  0  0  0  0  0  0  0  0  0  0  0
   37.5610   28.7010   42.3110 C   0  0  0  0  0  0  0  0  0  0  0  0
   36.5880   27.7850   42.7580 F   0  0  0  0  0  0  0  0  0  0  0  0
   38.7650   28.5350   42.9110 F   0  0  0  0  0  0  0  0  0  0  0  0
   37.0020   29.9380   42.5670 F   0  0  0  0  0  0  0  0  0  0  0  0
  1 21  1  0  0  0  0
  2 17  1  0  0  0  0
  2  1  2  0  0  0  0
  3  2  1  0  0  0  0
  4  3  2  0  0  0  0
  4  5  1  0  0  0  0
  5  6  2  0  0  0  0
  6  1  1  0  0  0  0
  7  3  1  0  0  0  0
  9  8  1  0  0  0  0
 10  5  1  0  0  0  0
 10  9  2  0  0  0  0
 11 10  1  0  0  0  0
 12 11  1  0  0  0  0
 13 11  2  0  0  0  0
 13 15  1  0  0  0  0
 14 13  1  0  0  0  0
 15 16  2  0  0  0  0
 16  9  1  0  0  0  0
 17 20  1  0  0  0  0
 17 18  1  0  0  0  0
 19 17  1  0  0  0  0
 21 22  1  0  0  0  0
 22 25  1  0  0  0  0
 22 23  1  0  0  0  0
 22 24  1  0  0  0  0
M  END
>  <minimizedAffinity>
-5.0960598

$$$$

 OpenBabel03252504123D

 25 26  0  0  0  0  0  0  0  0999 V2000
   38.2400   27.1150   40.5940 C   0  0  0  0  0  0  0  0  0  0  0  0
   37.3640   26.7520   41.6110 C   0  0  0  0  0  0  0  0  0  0  0  0
   36.6720   27.7700   42.2700 C   0  0  0  0  0  0  0  0  0  0  0  0
   36.8900   29.0570   41.8830 N   0  0  0  0  0  0  0  0  0  0  0  0
   37.7510   29.3600   40.8890 C   0  0  0  0  0  0  0  0  0  0  0  0
   38.4260   28.4090   40.2410 N   0  0  0  0  0  0  0  0  0  0  0  0
   35.9860   27.5130   43.0630 H   0  0  0  0  0  0  0  0  0  0  0  0
   39.9630   30.9350   42.4860 Br  0  0  0  0  0  0  0  0  0  0  0  0
   38.7900   31.6280   41.1830 C   0  0  0  0  0  0  0  0  0  0  0  0
   37.8800   30.7810   40.5860 C   0  0  0  0  0  0  0  0  0  0  0  0
   37.0570   31.3590   39.6440 C   0  0  0  0  0  0  0  0  0  0  0  0
   36.2990   30.7810   39.1080 H   0  0  0  0  0  0  0  0  0  0  0  0
   37.1310   32.7150   39.3080 C   0  0  0  0  0  0  0  0  0  0  0  0
   36.4520   33.1130   38.5540 H   0  0  0  0  0  0  0  0  0  0  0  0
   38.0550   33.5270   39.9290 C   0  0  0  0  0  3  0  0  0  0  0  0
   38.8700   32.9620   40.8590 C   0  0  0  0  0  3  0  0  0  0  0  0
   37.1950   25.3190   41.9600 C   0  0  0  0  0  0  0  0  0  0  0  0
   36.2320   25.1930   42.9640 F   0  0  0  0  0  0  0  0  0  0  0  0
   36.7010   24.6620   40.8600 F   0  0  0  0  0  0  0  0  0  0  0  0
   38.3210   24.7090   42.4160 F   0  0  0  0  0  0  0  0  0  0  0  0
   38.9070   26.1140   39.9630 O   0  0  0  0  0  0  0  0  0  0  0  0
   40.2820   25.8320   40.0200 C   0  0  0  0  0  0  0  0  0  0  0  0
   40.4140   24.4400   39.8530 F   0  0  0  0  0  0  0  0  0  0  0  0
   40.9420   26.5480   39.0760 F   0  0  0  0  0  0  0  0  0  0  0  0
   40.7550   26.0660   41.2960 F   0  0  0  0  0  0  0  0  0  0  0  0
  1  2  1  0  0  0  0
  2 17  1  0  0  0  0
  2  3  2  0  0  0  0
  3  7  1  0  0  0  0
  4  3  1  0  0  0  0
  5  4  2  0  0  0  0
  6  1  2  0  0  0  0
  6  5  1  0  0  0  0
  9  8  1  0  0  0  0
 10  5  1  0  0  0  0
 10  9  2  0  0  0  0
 11 10  1  0  0  0  0
 12 11  1  0  0  0  0
 13 11  2  0  0  0  0
 13 15  1  0  0  0  0
 14 13  1  0  0  0  0
 15 16  2  0  0  0  0
 16  9  1  0  0  0  0
 17 20  1  0  0  0  0
 17 18  1  0  0  0  0
 19 17  1  0  0  0  0
 21 22  1  0  0  0  0
 21  1  1  0  0  0  0
 22 25  1  0  0  0  0
 23 22  1  0  0  0  0
 24 22  1  0  0  0  0
M  END
>  <minimizedAffinity>
-5.06520557

$$$$

 OpenBabel03252504123D

 25 26  0  0  0  0  0  0  0  0999 V2000
   36.7820   27.9320   40.8150 C   0  0  0  0  0  0  0  0  0  0  0  0
   36.8160   26.5530   40.9880 C   0  0  0  0  0  0  0  0  0  0  0  0
   36.6080   25.7500   39.8650 C   0  0  0  0  0  0  0  0  0  0  0  0
   36.3840   26.3580   38.6670 N   0  0  0  0  0  0  0  0  0  0  0  0
   36.3610   27.7020   38.5490 C   0  0  0  0  0  0  0  0  0  0  0  0
   36.5560   28.4950   39.6040 N   0  0  0  0  0  0  0  0  0  0  0  0
   36.6290   24.6760   39.9740 H   0  0  0  0  0  0  0  0  0  0  0  0
   38.8680   27.9530   36.6590 Br  0  0  0  0  0  0  0  0  0  0  0  0
   37.0810   28.3840   36.2410 C   0  0  0  0  0  0  0  0  0  0  0  0
   36.1100   28.2070   37.2040 C   0  0  0  0  0  0  0  0  0  0  0  0
   34.8280   28.5420   36.8260 C   0  0  0  0  0  0  0  0  0  0  0  0
   33.9800   28.4420   37.5080 H   0  0  0  0  0  0  0  0  0  0  0  0
   34.5220   29.0310   35.5510 C   0  0  0  0  0  0  0  0  0  0  0  0
   33.4870   29.2790   35.3120 H   0  0  0  0  0  0  0  0  0  0  0  0
   35.5230   29.1930   34.6180 C   0  0  0  0  0  3  0  0  0  0  0  0
   36.7900   28.8630   34.9860 C   0  0  0  0  0  3  0  0  0  0  0  0
   37.0670   25.9870   42.3360 C   0  0  0  0  0  0  0  0  0  0  0  0
   36.7440   24.6280   42.3400 F   0  0  0  0  0  0  0  0  0  0  0  0
   38.4120   26.0680   42.5960 F   0  0  0  0  0  0  0  0  0  0  0  0
   36.3510   26.5640   43.3380 F   0  0  0  0  0  0  0  0  0  0  0  0
   36.9850   28.7010   41.9170 O   0  0  0  0  0  0  0  0  0  0  0  0
   38.1230   29.4640   42.2290 C   0  0  0  0  0  0  0  0  0  0  0  0
   39.2310   28.7590   41.7220 F   0  0  0  0  0  0  0  0  0  0  0  0
   38.0020   30.7120   41.7120 F   0  0  0  0  0  0  0  0  0  0  0  0
   38.3230   29.4690   43.5960 F   0  0  0  0  0  0  0  0  0  0  0  0
  1  2  1  0  0  0  0
  1 21  1  0  0  0  0
  2 17  1  0  0  0  0
  3  7  1  0  0  0  0
  3  2  2  0  0  0  0
  4  3  1  0  0  0  0
  5  4  2  0  0  0  0
  5  6  1  0  0  0  0
  6  1  2  0  0  0  0
  9  8  1  0  0  0  0
  9 10  1  0  0  0  0
 10  5  1  0  0  0  0
 11 10  2  0  0  0  0
 11 12  1  0  0  0  0
 13 11  1  0  0  0  0
 14 13  1  0  0  0  0
 15 16  1  0  0  0  0
 15 13  2  0  0  0  0
 16  9  2  0  0  0  0
 17 18  1  0  0  0  0
 17 19  1  0  0  0  0
 17 20  1  0  0  0  0
 21 22  1  0  0  0  0
 22 25  1  0  0  0  0
 23 22  1  0  0  0  0
 24 22  1  0  0  0  0
M  END
>  <minimizedAffinity>
-4.97568417

$$$$

 OpenBabel03252504123D

 25 26  0  0  0  0  0  0  0  0999 V2000
   37.1680   27.8100   40.5290 C   0  0  0  0  0  0  0  0  0  0  0  0
   37.7090   27.2100   39.3970 C   0  0  0  0  0  0  0  0  0  0  0  0
   38.3580   28.0300   38.4720 C   0  0  0  0  0  0  0  0  0  0  0  0
   38.4250   29.3660   38.7260 N   0  0  0  0  0  0  0  0  0  0  0  0
   37.8840   29.9020   39.8400 C   0  0  0  0  0  0  0  0  0  0  0  0
   37.2590   29.1450   40.7420 N   0  0  0  0  0  0  0  0  0  0  0  0
   38.7870   27.5880   37.5850 H   0  0  0  0  0  0  0  0  0  0  0  0
   40.2230   30.8960   41.7020 Br  0  0  0  0  0  0  0  0  0  0  0  0
   39.0000   31.9640   40.7450 C   0  0  0  0  0  0  0  0  0  0  0  0
   38.0360   31.3470   39.9750 C   0  0  0  0  0  0  0  0  0  0  0  0
   37.1780   32.1920   39.3040 C   0  0  0  0  0  0  0  0  0  0  0  0
   36.3770   31.8120   38.6650 H   0  0  0  0  0  0  0  0  0  0  0  0
   37.2710   33.5850   39.3920 C   0  0  0  0  0  0  0  0  0  0  0  0
   36.5630   34.2000   38.8360 H   0  0  0  0  0  0  0  0  0  0  0  0
   38.2500   34.1610   40.1730 C   0  0  0  0  0  3  0  0  0  0  0  0
   39.0990   33.3320   40.8360 C   0  0  0  0  0  3  0  0  0  0  0  0
   37.5830   25.7440   39.2110 C   0  0  0  0  0  0  0  0  0  0  0  0
   36.2330   25.3990   39.1100 F   0  0  0  0  0  0  0  0  0  0  0  0
   38.1620   25.4090   38.0120 F   0  0  0  0  0  0  0  0  0  0  0  0
   38.1060   24.9960   40.2190 F   0  0  0  0  0  0  0  0  0  0  0  0
   36.5400   27.0000   41.4200 O   0  0  0  0  0  0  0  0  0  0  0  0
   36.9080   26.7440   42.7510 C   0  0  0  0  0  0  0  0  0  0  0  0
   36.5440   25.4100   43.0200 F   0  0  0  0  0  0  0  0  0  0  0  0
   38.2320   26.9810   42.9210 F   0  0  0  0  0  0  0  0  0  0  0  0
   36.1180   27.4870   43.6070 F   0  0  0  0  0  0  0  0  0  0  0  0
  1  6  1  0  0  0  0
  1 21  1  0  0  0  0
  2  1  2  0  0  0  0
  3  4  2  0  0  0  0
  3  2  1  0  0  0  0
  4  5  1  0  0  0  0
  5 10  1  0  0  0  0
  5  6  2  0  0  0  0
  7  3  1  0  0  0  0
  9 16  1  0  0  0  0
  9  8  1  0  0  0  0
 10  9  2  0  0  0  0
 11 13  2  0  0  0  0
 11 10  1  0  0  0  0
 12 11  1  0  0  0  0
 13 15  1  0  0  0  0
 14 13  1  0  0  0  0
 15 16  2  0  0  0  0
 17  2  1  0  0  0  0
 17 20  1  0  0  0  0
 18 17  1  0  0  0  0
 19 17  1  0  0  0  0
 21 22  1  0  0  0  0
 22 24  1  0  0  0  0
 22 23  1  0  0  0  0
 22 25  1  0  0  0  0
M  END
>  <minimizedAffinity>
-4.94190407

$$$$

 OpenBabel03252504123D

 25 26  0  0  0  0  0  0  0  0999 V2000
   38.4230   30.0640   39.5370 C   0  0  0  0  0  0  0  0  0  0  0  0
   38.4790   31.0040   40.5590 C   0  0  0  0  0  0  0  0  0  0  0  0
   38.4840   30.5370   41.8750 C   0  0  0  0  0  0  0  0  0  0  0  0
   38.4340   29.1930   42.0850 N   0  0  0  0  0  0  0  0  0  0  0  0
   38.3820   28.3180   41.0590 C   0  0  0  0  0  0  0  0  0  0  0  0
   38.3760   28.7340   39.7920 N   0  0  0  0  0  0  0  0  0  0  0  0
   38.5260   31.2480   42.6860 H   0  0  0  0  0  0  0  0  0  0  0  0
   41.1430   26.8080   41.1920 Br  0  0  0  0  0  0  0  0  0  0  0  0
   39.4370   26.0920   41.5500 C   0  0  0  0  0  0  0  0  0  0  0  0
   38.3330   26.9110   41.4390 C   0  0  0  0  0  0  0  0  0  0  0  0
   37.1210   26.3170   41.7170 C   0  0  0  0  0  0  0  0  0  0  0  0
   36.1800   26.8720   41.6610 H   0  0  0  0  0  0  0  0  0  0  0  0
   37.0070   24.9730   42.0880 C   0  0  0  0  0  0  0  0  0  0  0  0
   36.0180   24.5610   42.2950 H   0  0  0  0  0  0  0  0  0  0  0  0
   38.1360   24.1890   42.1870 C   0  0  0  0  0  3  0  0  0  0  0  0
   39.3350   24.7700   41.9140 C   0  0  0  0  0  3  0  0  0  0  0  0
   38.5300   32.4490   40.2270 C   0  0  0  0  0  0  0  0  0  0  0  0
   37.2800   32.8670   39.7630 F   0  0  0  0  0  0  0  0  0  0  0  0
   38.7710   33.1500   41.3820 F   0  0  0  0  0  0  0  0  0  0  0  0
   39.4360   32.7800   39.2690 F   0  0  0  0  0  0  0  0  0  0  0  0
   38.4190   30.5330   38.2620 O   0  0  0  0  0  0  0  0  0  0  0  0
   37.3400   30.5560   37.3620 C   0  0  0  0  0  0  0  0  0  0  0  0
   37.5310   29.4760   36.4780 F   0  0  0  0  0  0  0  0  0  0  0  0
   36.1670   30.4890   38.0400 F   0  0  0  0  0  0  0  0  0  0  0  0
   37.4270   31.6730   36.5550 F   0  0  0  0  0  0  0  0  0  0  0  0
  1  6  2  0  0  0  0
  1  2  1  0  0  0  0
  2  3  2  0  0  0  0
  3  4  1  0  0  0  0
  3  7  1  0  0  0  0
  5 10  1  0  0  0  0
  5  4  2  0  0  0  0
  6  5  1  0  0  0  0
  8  9  1  0  0  0  0
  9 16  1  0  0  0  0
 10  9  2  0  0  0  0
 10 11  1  0  0  0  0
 11 13  2  0  0  0  0
 12 11  1  0  0  0  0
 13 15  1  0  0  0  0
 13 14  1  0  0  0  0
 16 15  2  0  0  0  0
 17  2  1  0  0  0  0
 17 19  1  0  0  0  0
 18 17  1  0  0  0  0
 20 17  1  0  0  0  0
 21  1  1  0  0  0  0
 22 24  1  0  0  0  0
 22 21  1  0  0  0  0
 23 22  1  0  0  0  0
 25 22  1  0  0  0  0
M  END
>  <minimizedAffinity>
-4.9415431

$$$$
