
 OpenBabel03252506053D

 43 47  0  0  0  0  0  0  0  0999 V2000
   44.7240   35.8930   43.3840 Cl  0  0  0  0  0  0  0  0  0  0  0  0
   45.4930   34.6560   44.3210 C   0  0  0  0  0  0  0  0  0  0  0  0
   46.5670   33.9580   43.8020 C   0  0  0  0  0  0  0  0  0  0  0  0
   47.1090   32.9920   44.6300 C   0  0  0  0  0  0  0  0  0  0  0  0
   46.6550   32.6980   45.8980 C   0  0  0  0  0  0  0  0  0  0  0  0
   45.5890   33.4090   46.3760 C   0  0  0  0  0  0  0  0  0  0  0  0
   45.0500   32.9980   47.9950 Cl  0  0  0  0  0  0  0  0  0  0  0  0
   45.0150   34.3760   45.6020 C   0  0  0  0  0  0  0  0  0  0  0  0
   47.9560   32.4480   44.2090 H   0  0  0  0  0  0  0  0  0  0  0  0
   44.1740   34.9230   46.0090 H   0  0  0  0  0  0  0  0  0  0  0  0
   47.3650   31.6370   46.6170 C   0  0  0  0  0  0  0  0  0  0  0  0
   47.4890   30.3470   46.1330 C   0  0  0  0  0  0  0  0  0  0  0  0
   48.1540   29.3340   46.7960 C   0  0  0  0  0  0  0  0  0  0  0  0
   48.7360   29.6050   48.0140 C   0  0  0  0  0  0  0  0  0  0  0  0
   49.3780   28.6060   48.6440 N   0  0  0  0  0  0  0  0  0  0  0  0
   49.9810   28.7800   49.8450 C   0  0  0  0  0  0  0  0  0  0  0  0
   49.9000   30.0510   50.3950 C   0  0  0  0  0  0  0  0  0  0  0  0
   49.2470   31.0690   49.7590 C   0  0  0  0  0  0  0  0  0  0  0  0
   48.6380   30.8700   48.5310 C   0  0  0  0  0  0  0  0  0  0  0  0
   47.9700   31.8670   47.8540 C   0  0  0  0  0  0  0  0  0  0  0  0
   47.0320   30.1320   45.1760 H   0  0  0  0  0  0  0  0  0  0  0  0
   48.1980   28.3570   46.3380 H   0  0  0  0  0  0  0  0  0  0  0  0
   50.4820   27.9490   50.3050 H   0  0  0  0  0  0  0  0  0  0  0  0
   50.3750   30.2120   51.3550 H   0  0  0  0  0  0  0  0  0  0  0  0
   49.1840   32.0600   50.1900 H   0  0  0  0  0  0  0  0  0  0  0  0
   47.9130   32.8540   48.2920 H   0  0  0  0  0  0  0  0  0  0  0  0
   48.6200   35.3150   41.1160 C   0  0  0  0  0  0  0  0  0  0  0  0
   48.0930   34.6990   39.9720 C   0  0  0  0  0  0  0  0  0  0  0  0
   47.0160   33.8030   40.1260 C   0  0  0  0  0  0  0  0  0  0  0  0
   46.5870   33.6210   41.3880 N   0  0  0  0  0  0  0  0  0  0  0  0
   47.1000   34.2170   42.4720 C   0  0  0  0  0  0  0  0  0  0  0  0
   48.1220   35.0700   42.3470 N   0  0  0  0  0  0  0  0  0  0  0  0
   49.4500   36.0000   40.9690 H   0  0  0  0  0  0  0  0  0  0  0  0
   48.4910   34.8930   38.9880 H   0  0  0  0  0  0  0  0  0  0  0  0
   43.9650   34.0960   40.1940 Br  0  0  0  0  0  0  0  0  0  0  0  0
   45.0270   33.1570   38.8940 C   0  0  0  0  0  0  0  0  0  0  0  0
   46.4010   33.1150   39.0000 C   0  0  0  0  0  0  0  0  0  0  0  0
   47.0920   32.4290   38.0410 C   0  0  0  0  0  0  0  0  0  0  0  0
   48.1660   32.3730   38.0880 H   0  0  0  0  0  0  0  0  0  0  0  0
   46.3930   31.8220   37.0290 C   0  0  0  0  0  0  0  0  0  0  0  0
   46.9640   31.2790   36.2710 H   0  0  0  0  0  0  0  0  0  0  0  0
   45.0190   31.8520   36.9030 C   0  0  0  0  0  3  0  0  0  0  0  0
   44.3230   32.5560   37.8910 C   0  0  0  0  0  3  0  0  0  0  0  0
  1  2  1  0  0  0  0
  2  8  1  0  0  0  0
  3  2  2  0  0  0  0
  3  4  1  0  0  0  0
  4  5  2  0  0  0  0
  5  6  1  0  0  0  0
  5 11  1  0  0  0  0
  6  7  1  0  0  0  0
  8 10  1  0  0  0  0
  8  6  2  0  0  0  0
  9  4  1  0  0  0  0
 11 20  1  0  0  0  0
 12 11  2  0  0  0  0
 12 13  1  0  0  0  0
 13 14  2  0  0  0  0
 14 19  1  0  0  0  0
 14 15  1  0  0  0  0
 15 16  2  0  0  0  0
 16 23  1  0  0  0  0
 16 17  1  0  0  0  0
 17 24  1  0  0  0  0
 18 25  1  0  0  0  0
 18 17  2  0  0  0  0
 19 18  1  0  0  0  0
 20 26  1  0  0  0  0
 20 19  2  0  0  0  0
 21 12  1  0  0  0  0
 22 13  1  0  0  0  0
 27 32  1  0  0  0  0
 28 29  1  0  0  0  0
 28 27  2  0  0  0  0
 29 30  2  0  0  0  0
 30 31  1  0  0  0  0
 31  3  1  0  0  0  0
 32 31  2  0  0  0  0
 33 27  1  0  0  0  0
 34 28  1  0  0  0  0
 36 37  1  0  0  0  0
 36 35  1  0  0  0  0
 37 29  1  0  0  0  0
 38 39  1  0  0  0  0
 38 37  2  0  0  0  0
 40 38  1  0  0  0  0
 41 40  1  0  0  0  0
 42 40  2  0  0  0  0
 42 43  1  0  0  0  0
 43 36  2  0  0  0  0
M  END
>  <minimizedAffinity>
-7.32596445

>  <minimizedRMSD>
0.265091419

$$$$
