
 OpenBabel03242523073D

 45 49  0  0  1  0  0  0  0  0999 V2000
   45.1150   36.0070   43.5170 C   0  0  0  0  0  0  0  0  0  0  0  0
   45.9120   34.8970   43.2690 C   0  0  0  0  0  0  0  0  0  0  0  0
   46.0400   33.9610   44.2610 C   0  0  0  0  0  0  0  0  0  0  0  0
   45.3850   34.1590   45.4470 N   0  0  0  0  0  0  0  0  0  0  0  0
   44.6200   35.2450   45.6600 C   0  0  0  0  0  0  0  0  0  0  0  0
   44.4910   36.1490   44.7090 N   0  0  0  0  0  0  0  0  0  0  0  0
   44.9860   36.7740   42.7560 H   0  0  0  0  0  0  0  0  0  0  0  0
   44.0740   35.4720   46.5640 H   0  0  0  0  0  0  0  0  0  0  0  0
   46.5520   34.8110   42.0330 N   0  0  0  0  0  0  0  0  0  0  0  0
   47.8710   35.2670   41.8140 C   0  0  0  0  0  0  0  0  0  0  0  0
   48.4380   34.9380   40.4550 C   0  0  0  0  0  0  0  0  0  0  0  0
   48.1070   33.6680   39.9390 N   0  0  0  0  0  0  0  0  0  0  0  0
   46.8000   33.2230   40.1630 C   0  0  0  0  0  0  0  0  0  0  0  0
   45.9540   34.2710   40.8590 C   0  0  0  0  0  0  0  0  0  0  0  0
   47.8270   36.3930   41.8540 H   0  0  0  0  0  0  0  0  0  0  0  0
   48.6060   35.0090   42.6080 H   0  0  0  0  0  0  0  0  0  0  0  0
   49.5460   35.0030   40.5320 H   0  0  0  0  0  0  0  0  0  0  0  0
   48.1460   35.7230   39.7010 H   0  0  0  0  0  0  0  0  0  0  0  0
   48.8170   32.9630   40.2730 H   0  0  0  0  0  0  0  0  0  0  0  0
   46.7080   32.2280   40.6420 H   0  0  0  0  0  0  0  0  0  0  0  0
   46.2880   33.0790   39.1630 H   0  0  0  0  0  0  0  0  0  0  0  0
   44.9380   33.8530   41.0100 H   0  0  0  0  0  0  0  0  0  0  0  0
   45.8250   35.1260   40.1430 H   0  0  0  0  0  0  0  0  0  0  0  0
   46.4350   31.9880   45.4850 C   0  0  0  0  0  0  0  0  0  0  0  0
   46.7400   32.7410   44.3300 C   0  0  0  0  0  0  0  0  0  0  0  0
   47.7060   32.0990   43.5790 C   0  0  0  0  0  0  0  0  0  0  0  0
   48.3050   30.9140   43.8700 C   0  0  0  0  0  0  0  0  0  0  0  0
   47.9540   30.2480   45.0210 C   0  0  0  0  0  0  0  0  0  0  0  0
   47.0080   30.7800   45.8430 C   0  0  0  0  0  0  0  0  0  0  0  0
   48.7370   29.1150   45.0300 O   0  0  0  0  0  0  0  0  0  0  0  0
   49.5290   29.0540   43.8700 C   0  0  1  0  0  0  0  0  0  0  0  0
   49.2680   30.2460   43.1290 O   0  0  0  0  0  0  0  0  0  0  0  0
   45.7060   32.1940   46.2950 H   0  0  0  0  0  0  0  0  0  0  0  0
   47.9380   32.6560   42.7260 H   0  0  0  0  0  0  0  0  0  0  0  0
   46.8050   30.1930   46.6960 H   0  0  0  0  0  0  0  0  0  0  0  0
   49.1300   28.1990   43.2510 H   0  0  0  0  0  0  0  0  0  0  0  0
   51.3310   28.1860   41.4330 Br  0  0  0  0  0  0  0  0  0  0  0  0
   51.9440   28.5670   43.1930 C   0  0  0  0  0  0  0  0  0  0  0  0
   50.9740   28.9310   44.1070 C   0  0  0  0  0  0  0  0  0  0  0  0
   51.3870   29.2160   45.4030 C   0  0  0  0  0  0  0  0  0  0  0  0
   50.7410   29.5140   46.2320 H   0  0  0  0  0  0  0  0  0  0  0  0
   52.7310   29.1400   45.7720 C   0  0  0  0  0  0  0  0  0  0  0  0
   53.0740   29.3580   46.7780 H   0  0  0  0  0  0  0  0  0  0  0  0
   53.7130   28.7730   44.8520 C   0  0  0  0  0  3  0  0  0  0  0  0
   53.2780   28.4910   43.5600 C   0  0  0  0  0  3  0  0  0  0  0  0
  1  6  1  0  0  0  0
  2  1  2  0  0  0  0
  2  3  1  0  0  0  0
  3 25  1  0  0  0  0
  3  4  2  0  0  0  0
  4  5  1  0  0  0  0
  5  8  1  0  0  0  0
  6  5  2  0  0  0  0
  7  1  1  0  0  0  0
  9  2  1  0  0  0  0
 10 15  1  0  0  0  0
 10  9  1  0  0  0  0
 10 16  1  0  0  0  0
 11 17  1  0  0  0  0
 11 10  1  0  0  0  0
 12 13  1  0  0  0  0
 12 19  1  0  0  0  0
 12 11  1  0  0  0  0
 13 20  1  0  0  0  0
 13 14  1  0  0  0  0
 14 22  1  0  0  0  0
 14  9  1  0  0  0  0
 18 11  1  0  0  0  0
 21 13  1  0  0  0  0
 23 14  1  0  0  0  0
 24 29  1  0  0  0  0
 24 33  1  0  0  0  0
 25 24  2  0  0  0  0
 26 27  2  0  0  0  0
 26 25  1  0  0  0  0
 27 28  1  0  0  0  0
 28 30  1  0  0  0  0
 28 29  2  0  0  0  0
 29 35  1  0  0  0  0
 31 36  1  6  0  0  0
 31 39  1  0  0  0  0
 31 30  1  0  0  0  0
 32 27  1  0  0  0  0
 32 31  1  0  0  0  0
 34 26  1  0  0  0  0
 37 38  1  0  0  0  0
 38 45  2  0  0  0  0
 38 39  1  0  0  0  0
 39 40  2  0  0  0  0
 40 42  1  0  0  0  0
 40 41  1  0  0  0  0
 42 43  1  0  0  0  0
 44 42  2  0  0  0  0
 45 44  1  0  0  0  0
M  END
>  <minimizedAffinity>
-5.33569193

>  <minimizedRMSD>
0.171715468

$$$$
