
 OpenBabel03242523073D

 45 49  0  0  1  0  0  0  0  0999 V2000
   45.1150   36.0060   43.5190 C   0  0  0  0  0  0  0  0  0  0  0  0
   45.9110   34.8970   43.2700 C   0  0  0  0  0  0  0  0  0  0  0  0
   46.0400   33.9600   44.2630 C   0  0  0  0  0  0  0  0  0  0  0  0
   45.3840   34.1580   45.4480 N   0  0  0  0  0  0  0  0  0  0  0  0
   44.6190   35.2440   45.6620 C   0  0  0  0  0  0  0  0  0  0  0  0
   44.4890   36.1480   44.7100 N   0  0  0  0  0  0  0  0  0  0  0  0
   44.9860   36.7730   42.7580 H   0  0  0  0  0  0  0  0  0  0  0  0
   44.0730   35.4710   46.5650 H   0  0  0  0  0  0  0  0  0  0  0  0
   46.5510   34.8120   42.0350 N   0  0  0  0  0  0  0  0  0  0  0  0
   47.8710   35.2670   41.8160 C   0  0  0  0  0  0  0  0  0  0  0  0
   48.4380   34.9390   40.4570 C   0  0  0  0  0  0  0  0  0  0  0  0
   48.1080   33.6690   39.9410 N   0  0  0  0  0  0  0  0  0  0  0  0
   46.8000   33.2240   40.1650 C   0  0  0  0  0  0  0  0  0  0  0  0
   45.9540   34.2710   40.8600 C   0  0  0  0  0  0  0  0  0  0  0  0
   47.8260   36.3940   41.8560 H   0  0  0  0  0  0  0  0  0  0  0  0
   48.6050   35.0100   42.6100 H   0  0  0  0  0  0  0  0  0  0  0  0
   49.5460   35.0040   40.5340 H   0  0  0  0  0  0  0  0  0  0  0  0
   48.1460   35.7240   39.7030 H   0  0  0  0  0  0  0  0  0  0  0  0
   48.8180   32.9650   40.2760 H   0  0  0  0  0  0  0  0  0  0  0  0
   46.7090   32.2280   40.6440 H   0  0  0  0  0  0  0  0  0  0  0  0
   46.2890   33.0790   39.1650 H   0  0  0  0  0  0  0  0  0  0  0  0
   44.9380   33.8530   41.0120 H   0  0  0  0  0  0  0  0  0  0  0  0
   45.8250   35.1260   40.1450 H   0  0  0  0  0  0  0  0  0  0  0  0
   46.4360   31.9880   45.4870 C   0  0  0  0  0  0  0  0  0  0  0  0
   46.7400   32.7410   44.3320 C   0  0  0  0  0  0  0  0  0  0  0  0
   47.7050   32.0980   43.5800 C   0  0  0  0  0  0  0  0  0  0  0  0
   48.3050   30.9140   43.8710 C   0  0  0  0  0  0  0  0  0  0  0  0
   47.9550   30.2480   45.0220 C   0  0  0  0  0  0  0  0  0  0  0  0
   47.0090   30.7810   45.8450 C   0  0  0  0  0  0  0  0  0  0  0  0
   48.7380   29.1150   45.0320 O   0  0  0  0  0  0  0  0  0  0  0  0
   49.5290   29.0540   43.8710 C   0  0  1  0  0  0  0  0  0  0  0  0
   49.2670   30.2460   43.1290 O   0  0  0  0  0  0  0  0  0  0  0  0
   45.7070   32.1950   46.2980 H   0  0  0  0  0  0  0  0  0  0  0  0
   47.9360   32.6550   42.7260 H   0  0  0  0  0  0  0  0  0  0  0  0
   46.8070   30.1940   46.6990 H   0  0  0  0  0  0  0  0  0  0  0  0
   49.1290   28.1990   43.2530 H   0  0  0  0  0  0  0  0  0  0  0  0
   51.3290   28.1870   41.4320 Br  0  0  0  0  0  0  0  0  0  0  0  0
   51.9430   28.5680   43.1910 C   0  0  0  0  0  0  0  0  0  0  0  0
   50.9740   28.9310   44.1070 C   0  0  0  0  0  0  0  0  0  0  0  0
   51.3880   29.2150   45.4020 C   0  0  0  0  0  0  0  0  0  0  0  0
   50.7440   29.5140   46.2320 H   0  0  0  0  0  0  0  0  0  0  0  0
   52.7320   29.1390   45.7690 C   0  0  0  0  0  0  0  0  0  0  0  0
   53.0760   29.3570   46.7760 H   0  0  0  0  0  0  0  0  0  0  0  0
   53.7130   28.7740   44.8490 C   0  0  0  0  0  3  0  0  0  0  0  0
   53.2770   28.4930   43.5580 C   0  0  0  0  0  3  0  0  0  0  0  0
  1  6  1  0  0  0  0
  2  1  2  0  0  0  0
  2  3  1  0  0  0  0
  3 25  1  0  0  0  0
  3  4  2  0  0  0  0
  4  5  1  0  0  0  0
  5  8  1  0  0  0  0
  6  5  2  0  0  0  0
  7  1  1  0  0  0  0
  9  2  1  0  0  0  0
 10 15  1  0  0  0  0
 10  9  1  0  0  0  0
 10 16  1  0  0  0  0
 11 17  1  0  0  0  0
 11 10  1  0  0  0  0
 12 13  1  0  0  0  0
 12 19  1  0  0  0  0
 12 11  1  0  0  0  0
 13 20  1  0  0  0  0
 13 14  1  0  0  0  0
 14 22  1  0  0  0  0
 14  9  1  0  0  0  0
 18 11  1  0  0  0  0
 21 13  1  0  0  0  0
 23 14  1  0  0  0  0
 24 29  1  0  0  0  0
 24 33  1  0  0  0  0
 25 24  2  0  0  0  0
 26 27  2  0  0  0  0
 26 25  1  0  0  0  0
 27 28  1  0  0  0  0
 28 30  1  0  0  0  0
 28 29  2  0  0  0  0
 29 35  1  0  0  0  0
 31 36  1  6  0  0  0
 31 39  1  0  0  0  0
 31 30  1  0  0  0  0
 32 27  1  0  0  0  0
 32 31  1  0  0  0  0
 34 26  1  0  0  0  0
 37 38  1  0  0  0  0
 38 45  2  0  0  0  0
 38 39  1  0  0  0  0
 39 40  2  0  0  0  0
 40 42  1  0  0  0  0
 40 41  1  0  0  0  0
 42 43  1  0  0  0  0
 44 42  2  0  0  0  0
 45 44  1  0  0  0  0
M  END
>  <minimizedAffinity>
-5.33881521

>  <minimizedRMSD>
0.0464304686

$$$$
