
 OpenBabel03252506073D

 43 47  0  0  0  0  0  0  0  0999 V2000
   40.5770   31.1410   42.9700 Cl  0  0  0  0  0  0  0  0  0  0  0  0
   39.2780   30.6830   41.9200 C   0  0  0  0  0  0  0  0  0  0  0  0
   38.8490   31.5440   40.9270 C   0  0  0  0  0  0  0  0  0  0  0  0
   37.8070   31.0830   40.1440 C   0  0  0  0  0  0  0  0  0  0  0  0
   37.1940   29.8580   40.2920 C   0  0  0  0  0  0  0  0  0  0  0  0
   37.6460   29.0330   41.2850 C   0  0  0  0  0  0  0  0  0  0  0  0
   36.8340   27.4840   41.4310 Cl  0  0  0  0  0  0  0  0  0  0  0  0
   38.6720   29.4360   42.0880 C   0  0  0  0  0  0  0  0  0  0  0  0
   37.4790   31.7730   39.3640 H   0  0  0  0  0  0  0  0  0  0  0  0
   39.0080   28.7610   42.8660 H   0  0  0  0  0  0  0  0  0  0  0  0
   36.1050   29.5540   39.3590 C   0  0  0  0  0  0  0  0  0  0  0  0
   34.8030   29.3280   39.7660 C   0  0  0  0  0  0  0  0  0  0  0  0
   33.7630   29.0400   38.9040 C   0  0  0  0  0  0  0  0  0  0  0  0
   34.0180   28.9710   37.5530 C   0  0  0  0  0  0  0  0  0  0  0  0
   32.9930   28.6900   36.7300 N   0  0  0  0  0  0  0  0  0  0  0  0
   33.1500   28.6020   35.3860 C   0  0  0  0  0  0  0  0  0  0  0  0
   34.4310   28.8190   34.9020 C   0  0  0  0  0  0  0  0  0  0  0  0
   35.4770   29.1040   35.7350 C   0  0  0  0  0  0  0  0  0  0  0  0
   35.2940   29.1890   37.1050 C   0  0  0  0  0  0  0  0  0  0  0  0
   36.3180   29.4740   37.9830 C   0  0  0  0  0  0  0  0  0  0  0  0
   34.6000   29.3810   40.8280 H   0  0  0  0  0  0  0  0  0  0  0  0
   32.7780   28.8780   39.3160 H   0  0  0  0  0  0  0  0  0  0  0  0
   32.2980   28.3760   34.7730 H   0  0  0  0  0  0  0  0  0  0  0  0
   34.5790   28.7530   33.8310 H   0  0  0  0  0  0  0  0  0  0  0  0
   36.4760   29.2720   35.3550 H   0  0  0  0  0  0  0  0  0  0  0  0
   37.3140   29.6410   37.5930 H   0  0  0  0  0  0  0  0  0  0  0  0
   39.2020   35.1380   40.4470 C   0  0  0  0  0  0  0  0  0  0  0  0
   40.5880   35.3050   40.3110 C   0  0  0  0  0  0  0  0  0  0  0  0
   41.4130   34.1660   40.3850 C   0  0  0  0  0  0  0  0  0  0  0  0
   40.7760   32.9980   40.5850 N   0  0  0  0  0  0  0  0  0  0  0  0
   39.4510   32.8530   40.7140 C   0  0  0  0  0  0  0  0  0  0  0  0
   38.6510   33.9220   40.6460 N   0  0  0  0  0  0  0  0  0  0  0  0
   38.5890   36.0330   40.3870 H   0  0  0  0  0  0  0  0  0  0  0  0
   41.0300   36.2770   40.1530 H   0  0  0  0  0  0  0  0  0  0  0  0
   42.2820   33.6940   37.4830 Br  0  0  0  0  0  0  0  0  0  0  0  0
   43.4060   34.0450   39.0040 C   0  0  0  0  0  0  0  0  0  0  0  0
   42.8610   34.2360   40.2550 C   0  0  0  0  0  0  0  0  0  0  0  0
   43.7190   34.4810   41.2920 C   0  0  0  0  0  0  0  0  0  0  0  0
   43.3340   34.6360   42.2860 H   0  0  0  0  0  0  0  0  0  0  0  0
   45.0680   34.5240   41.0380 C   0  0  0  0  0  0  0  0  0  0  0  0
   45.7370   34.7200   41.8800 H   0  0  0  0  0  0  0  0  0  0  0  0
   45.6320   34.3340   39.7940 C   0  0  0  0  0  3  0  0  0  0  0  0
   44.7440   34.0840   38.7420 C   0  0  0  0  0  3  0  0  0  0  0  0
  2  8  1  0  0  0  0
  2  1  1  0  0  0  0
  3  2  2  0  0  0  0
  4  5  2  0  0  0  0
  4  3  1  0  0  0  0
  5  6  1  0  0  0  0
  6  7  1  0  0  0  0
  6  8  2  0  0  0  0
  8 10  1  0  0  0  0
  9  4  1  0  0  0  0
 11 12  1  0  0  0  0
 11  5  1  0  0  0  0
 12 21  1  0  0  0  0
 13 22  1  0  0  0  0
 13 12  2  0  0  0  0
 14 13  1  0  0  0  0
 15 14  2  0  0  0  0
 16 15  1  0  0  0  0
 17 16  2  0  0  0  0
 17 18  1  0  0  0  0
 18 19  2  0  0  0  0
 19 14  1  0  0  0  0
 19 20  1  0  0  0  0
 20 11  2  0  0  0  0
 23 16  1  0  0  0  0
 24 17  1  0  0  0  0
 25 18  1  0  0  0  0
 26 20  1  0  0  0  0
 27 32  1  0  0  0  0
 28 29  1  0  0  0  0
 28 27  2  0  0  0  0
 29 30  2  0  0  0  0
 30 31  1  0  0  0  0
 31  3  1  0  0  0  0
 32 31  2  0  0  0  0
 33 27  1  0  0  0  0
 34 28  1  0  0  0  0
 35 36  1  0  0  0  0
 36 37  1  0  0  0  0
 37 29  1  0  0  0  0
 37 38  2  0  0  0  0
 38 39  1  0  0  0  0
 40 38  1  0  0  0  0
 40 41  1  0  0  0  0
 42 40  2  0  0  0  0
 43 36  2  0  0  0  0
 43 42  1  0  0  0  0
M  END
>  <minimizedAffinity>
-7.50901747

$$$$

 OpenBabel03252506073D

 43 47  0  0  0  0  0  0  0  0999 V2000
   38.0750   30.3610   36.9310 Cl  0  0  0  0  0  0  0  0  0  0  0  0
   39.1060   31.3100   37.9490 C   0  0  0  0  0  0  0  0  0  0  0  0
   38.9120   31.3210   39.3170 C   0  0  0  0  0  0  0  0  0  0  0  0
   39.7870   32.1110   40.0400 C   0  0  0  0  0  0  0  0  0  0  0  0
   40.8060   32.8600   39.4910 C   0  0  0  0  0  0  0  0  0  0  0  0
   40.9670   32.8240   38.1340 C   0  0  0  0  0  0  0  0  0  0  0  0
   42.2780   33.7930   37.4850 Cl  0  0  0  0  0  0  0  0  0  0  0  0
   40.1310   32.0610   37.3710 C   0  0  0  0  0  0  0  0  0  0  0  0
   39.6230   32.1110   41.1190 H   0  0  0  0  0  0  0  0  0  0  0  0
   40.2830   32.0520   36.2990 H   0  0  0  0  0  0  0  0  0  0  0  0
   41.6270   33.6320   40.4280 C   0  0  0  0  0  0  0  0  0  0  0  0
   41.4680   34.9910   40.6300 C   0  0  0  0  0  0  0  0  0  0  0  0
   42.2320   35.7360   41.5070 C   0  0  0  0  0  0  0  0  0  0  0  0
   43.2160   35.1060   42.2340 C   0  0  0  0  0  0  0  0  0  0  0  0
   43.9480   35.8490   43.0830 N   0  0  0  0  0  0  0  0  0  0  0  0
   44.9370   35.3140   43.8390 C   0  0  0  0  0  0  0  0  0  0  0  0
   45.1560   33.9530   43.6920 C   0  0  0  0  0  0  0  0  0  0  0  0
   44.4150   33.1940   42.8300 C   0  0  0  0  0  0  0  0  0  0  0  0
   43.4080   33.7610   42.0660 C   0  0  0  0  0  0  0  0  0  0  0  0
   42.6360   33.0350   41.1850 C   0  0  0  0  0  0  0  0  0  0  0  0
   40.6950   35.4890   40.0590 H   0  0  0  0  0  0  0  0  0  0  0  0
   42.0330   36.7950   41.5970 H   0  0  0  0  0  0  0  0  0  0  0  0
   45.4930   35.9520   44.5020 H   0  0  0  0  0  0  0  0  0  0  0  0
   45.9430   33.5050   44.2870 H   0  0  0  0  0  0  0  0  0  0  0  0
   44.5880   32.1320   42.7160 H   0  0  0  0  0  0  0  0  0  0  0  0
   42.8160   31.9730   41.0780 H   0  0  0  0  0  0  0  0  0  0  0  0
   35.7850   30.4940   40.9950 C   0  0  0  0  0  0  0  0  0  0  0  0
   35.8810   29.1070   41.1790 C   0  0  0  0  0  0  0  0  0  0  0  0
   37.0380   28.4470   40.7190 C   0  0  0  0  0  0  0  0  0  0  0  0
   37.9620   29.2300   40.1330 N   0  0  0  0  0  0  0  0  0  0  0  0
   37.8560   30.5540   39.9640 C   0  0  0  0  0  0  0  0  0  0  0  0
   36.7670   31.2000   40.3930 N   0  0  0  0  0  0  0  0  0  0  0  0
   34.8830   30.9780   41.3570 H   0  0  0  0  0  0  0  0  0  0  0  0
   35.0970   28.5420   41.6580 H   0  0  0  0  0  0  0  0  0  0  0  0
   38.6470   27.8030   43.2480 Br  0  0  0  0  0  0  0  0  0  0  0  0
   37.9380   26.5630   41.9580 C   0  0  0  0  0  0  0  0  0  0  0  0
   37.2310   27.0110   40.8650 C   0  0  0  0  0  0  0  0  0  0  0  0
   36.7560   26.0750   39.9870 C   0  0  0  0  0  0  0  0  0  0  0  0
   36.1980   26.3830   39.1190 H   0  0  0  0  0  0  0  0  0  0  0  0
   37.0050   24.7480   40.2370 C   0  0  0  0  0  0  0  0  0  0  0  0
   36.6190   24.0150   39.5240 H   0  0  0  0  0  0  0  0  0  0  0  0
   37.7110   24.2810   41.3250 C   0  0  0  0  0  3  0  0  0  0  0  0
   38.1920   25.2480   42.2150 C   0  0  0  0  0  3  0  0  0  0  0  0
  1  2  1  0  0  0  0
  2  3  1  0  0  0  0
  3 31  1  0  0  0  0
  3  4  2  0  0  0  0
  4  9  1  0  0  0  0
  5  4  1  0  0  0  0
  5 11  1  0  0  0  0
  6  5  2  0  0  0  0
  7  6  1  0  0  0  0
  8  2  2  0  0  0  0
  8  6  1  0  0  0  0
 10  8  1  0  0  0  0
 11 12  2  0  0  0  0
 11 20  1  0  0  0  0
 12 13  1  0  0  0  0
 13 22  1  0  0  0  0
 13 14  2  0  0  0  0
 14 15  1  0  0  0  0
 15 16  2  0  0  0  0
 16 23  1  0  0  0  0
 17 16  1  0  0  0  0
 17 24  1  0  0  0  0
 18 17  2  0  0  0  0
 19 14  1  0  0  0  0
 19 18  1  0  0  0  0
 20 19  2  0  0  0  0
 21 12  1  0  0  0  0
 25 18  1  0  0  0  0
 26 20  1  0  0  0  0
 27 28  1  0  0  0  0
 27 33  1  0  0  0  0
 28 34  1  0  0  0  0
 29 37  1  0  0  0  0
 29 28  2  0  0  0  0
 30 29  1  0  0  0  0
 31 30  2  0  0  0  0
 31 32  1  0  0  0  0
 32 27  2  0  0  0  0
 36 43  1  0  0  0  0
 36 35  1  0  0  0  0
 37 36  2  0  0  0  0
 38 40  2  0  0  0  0
 38 37  1  0  0  0  0
 39 38  1  0  0  0  0
 40 42  1  0  0  0  0
 41 40  1  0  0  0  0
 42 43  2  0  0  0  0
M  END
>  <minimizedAffinity>
-7.37369633

$$$$

 OpenBabel03252506073D

 43 47  0  0  0  0  0  0  0  0999 V2000
   39.7850   30.6430   42.9320 Cl  0  0  0  0  0  0  0  0  0  0  0  0
   39.3160   29.0810   42.3500 C   0  0  0  0  0  0  0  0  0  0  0  0
   38.5680   28.9660   41.1940 C   0  0  0  0  0  0  0  0  0  0  0  0
   38.2460   27.6750   40.8160 C   0  0  0  0  0  0  0  0  0  0  0  0
   38.6170   26.5390   41.5010 C   0  0  0  0  0  0  0  0  0  0  0  0
   39.3560   26.6930   42.6420 C   0  0  0  0  0  0  0  0  0  0  0  0
   39.8040   25.2160   43.4780 Cl  0  0  0  0  0  0  0  0  0  0  0  0
   39.7030   27.9440   43.0620 C   0  0  0  0  0  0  0  0  0  0  0  0
   37.6560   27.5990   39.9010 H   0  0  0  0  0  0  0  0  0  0  0  0
   40.2900   28.0340   43.9680 H   0  0  0  0  0  0  0  0  0  0  0  0
   38.1760   25.2610   40.9360 C   0  0  0  0  0  0  0  0  0  0  0  0
   36.9220   24.7250   41.1660 C   0  0  0  0  0  0  0  0  0  0  0  0
   36.4880   23.5220   40.6430 C   0  0  0  0  0  0  0  0  0  0  0  0
   37.3410   22.7980   39.8410 C   0  0  0  0  0  0  0  0  0  0  0  0
   36.9000   21.6300   39.3420 N   0  0  0  0  0  0  0  0  0  0  0  0
   37.6690   20.8520   38.5430 C   0  0  0  0  0  0  0  0  0  0  0  0
   38.9430   21.3250   38.2660 C   0  0  0  0  0  0  0  0  0  0  0  0
   39.3960   22.5110   38.7720 C   0  0  0  0  0  0  0  0  0  0  0  0
   38.5930   23.2920   39.5860 C   0  0  0  0  0  0  0  0  0  0  0  0
   39.0070   24.4940   40.1180 C   0  0  0  0  0  0  0  0  0  0  0  0
   36.2500   25.2920   41.7970 H   0  0  0  0  0  0  0  0  0  0  0  0
   35.4890   23.1850   40.8800 H   0  0  0  0  0  0  0  0  0  0  0  0
   37.2690   19.9270   38.1700 H   0  0  0  0  0  0  0  0  0  0  0  0
   39.5750   20.7170   37.6290 H   0  0  0  0  0  0  0  0  0  0  0  0
   40.3910   22.8780   38.5550 H   0  0  0  0  0  0  0  0  0  0  0  0
   40.0030   24.8530   39.8950 H   0  0  0  0  0  0  0  0  0  0  0  0
   36.6470   31.0860   38.9390 C   0  0  0  0  0  0  0  0  0  0  0  0
   37.3520   32.2980   38.9650 C   0  0  0  0  0  0  0  0  0  0  0  0
   38.5050   32.3880   39.7700 C   0  0  0  0  0  0  0  0  0  0  0  0
   38.8260   31.2740   40.4530 N   0  0  0  0  0  0  0  0  0  0  0  0
   38.1430   30.1230   40.4190 C   0  0  0  0  0  0  0  0  0  0  0  0
   37.0460   30.0180   39.6620 N   0  0  0  0  0  0  0  0  0  0  0  0
   35.7610   31.0450   38.3120 H   0  0  0  0  0  0  0  0  0  0  0  0
   37.0340   33.1530   38.3900 H   0  0  0  0  0  0  0  0  0  0  0  0
   41.0930   32.1280   38.1480 Br  0  0  0  0  0  0  0  0  0  0  0  0
   40.5020   33.6370   39.1840 C   0  0  0  0  0  0  0  0  0  0  0  0
   39.3050   33.6010   39.8630 C   0  0  0  0  0  0  0  0  0  0  0  0
   38.9460   34.7090   40.5800 C   0  0  0  0  0  0  0  0  0  0  0  0
   38.0180   34.7220   41.1260 H   0  0  0  0  0  0  0  0  0  0  0  0
   39.7880   35.7930   40.5880 C   0  0  0  0  0  0  0  0  0  0  0  0
   39.4850   36.6690   41.1670 H   0  0  0  0  0  0  0  0  0  0  0  0
   40.9910   35.8490   39.9150 C   0  0  0  0  0  3  0  0  0  0  0  0
   41.3470   34.7090   39.1850 C   0  0  0  0  0  3  0  0  0  0  0  0
  2  1  1  0  0  0  0
  2  8  1  0  0  0  0
  3  2  2  0  0  0  0
  4  3  1  0  0  0  0
  4  5  2  0  0  0  0
  5  6  1  0  0  0  0
  6  8  2  0  0  0  0
  6  7  1  0  0  0  0
  8 10  1  0  0  0  0
  9  4  1  0  0  0  0
 11 12  1  0  0  0  0
 11  5  1  0  0  0  0
 12 21  1  0  0  0  0
 13 22  1  0  0  0  0
 13 12  2  0  0  0  0
 14 13  1  0  0  0  0
 15 14  2  0  0  0  0
 16 15  1  0  0  0  0
 17 16  2  0  0  0  0
 17 18  1  0  0  0  0
 18 19  2  0  0  0  0
 19 14  1  0  0  0  0
 19 20  1  0  0  0  0
 20 11  2  0  0  0  0
 23 16  1  0  0  0  0
 24 17  1  0  0  0  0
 25 18  1  0  0  0  0
 26 20  1  0  0  0  0
 27 28  2  0  0  0  0
 27 32  1  0  0  0  0
 28 29  1  0  0  0  0
 29 37  1  0  0  0  0
 29 30  2  0  0  0  0
 31 30  1  0  0  0  0
 31  3  1  0  0  0  0
 32 31  2  0  0  0  0
 33 27  1  0  0  0  0
 34 28  1  0  0  0  0
 35 36  1  0  0  0  0
 36 43  2  0  0  0  0
 36 37  1  0  0  0  0
 37 38  2  0  0  0  0
 38 40  1  0  0  0  0
 38 39  1  0  0  0  0
 40 41  1  0  0  0  0
 42 40  2  0  0  0  0
 43 42  1  0  0  0  0
M  END
>  <minimizedAffinity>
-7.28733253

$$$$

 OpenBabel03252506073D

 43 47  0  0  0  0  0  0  0  0999 V2000
   38.4710   34.8010   39.9300 Cl  0  0  0  0  0  0  0  0  0  0  0  0
   38.5100   33.0930   40.2160 C   0  0  0  0  0  0  0  0  0  0  0  0
   39.7170   32.4210   40.2440 C   0  0  0  0  0  0  0  0  0  0  0  0
   39.6380   31.0600   40.4800 C   0  0  0  0  0  0  0  0  0  0  0  0
   38.4670   30.3630   40.6820 C   0  0  0  0  0  0  0  0  0  0  0  0
   37.2920   31.0630   40.6460 C   0  0  0  0  0  0  0  0  0  0  0  0
   35.8290   30.1300   40.9100 Cl  0  0  0  0  0  0  0  0  0  0  0  0
   37.3100   32.4080   40.4180 C   0  0  0  0  0  0  0  0  0  0  0  0
   40.5980   30.5410   40.5000 H   0  0  0  0  0  0  0  0  0  0  0  0
   36.3640   32.9350   40.3960 H   0  0  0  0  0  0  0  0  0  0  0  0
   38.5950   28.9220   40.9160 C   0  0  0  0  0  0  0  0  0  0  0  0
   38.2180   27.9690   39.9880 C   0  0  0  0  0  0  0  0  0  0  0  0
   38.3310   26.6070   40.1910 C   0  0  0  0  0  0  0  0  0  0  0  0
   38.8480   26.1510   41.3830 C   0  0  0  0  0  0  0  0  0  0  0  0
   38.9490   24.8230   41.5600 N   0  0  0  0  0  0  0  0  0  0  0  0
   39.4460   24.2830   42.7000 C   0  0  0  0  0  0  0  0  0  0  0  0
   39.8470   25.1800   43.6790 C   0  0  0  0  0  0  0  0  0  0  0  0
   39.7450   26.5310   43.5040 C   0  0  0  0  0  0  0  0  0  0  0  0
   39.2340   27.0610   42.3300 C   0  0  0  0  0  0  0  0  0  0  0  0
   39.1130   28.4160   42.1090 C   0  0  0  0  0  0  0  0  0  0  0  0
   37.8110   28.3250   39.0510 H   0  0  0  0  0  0  0  0  0  0  0  0
   38.0090   25.9380   39.4050 H   0  0  0  0  0  0  0  0  0  0  0  0
   39.5060   23.2150   42.7910 H   0  0  0  0  0  0  0  0  0  0  0  0
   40.2470   24.7700   44.5990 H   0  0  0  0  0  0  0  0  0  0  0  0
   40.0580   27.2290   44.2700 H   0  0  0  0  0  0  0  0  0  0  0  0
   39.4290   29.1060   42.8810 H   0  0  0  0  0  0  0  0  0  0  0  0
   42.5620   33.9870   38.5940 C   0  0  0  0  0  0  0  0  0  0  0  0
   43.3880   34.3540   39.6660 C   0  0  0  0  0  0  0  0  0  0  0  0
   42.9600   34.0600   40.9760 C   0  0  0  0  0  0  0  0  0  0  0  0
   41.7700   33.4380   41.0740 N   0  0  0  0  0  0  0  0  0  0  0  0
   40.9920   33.0930   40.0410 C   0  0  0  0  0  0  0  0  0  0  0  0
   41.3800   33.3640   38.7900 N   0  0  0  0  0  0  0  0  0  0  0  0
   42.9150   34.2260   37.5950 H   0  0  0  0  0  0  0  0  0  0  0  0
   44.3320   34.8530   39.5110 H   0  0  0  0  0  0  0  0  0  0  0  0
   44.5050   31.6220   42.0100 Br  0  0  0  0  0  0  0  0  0  0  0  0
   44.4990   33.4040   42.7350 C   0  0  0  0  0  0  0  0  0  0  0  0
   43.7460   34.4000   42.1530 C   0  0  0  0  0  0  0  0  0  0  0  0
   43.7880   35.6440   42.7200 C   0  0  0  0  0  0  0  0  0  0  0  0
   43.2140   36.4500   42.2970 H   0  0  0  0  0  0  0  0  0  0  0  0
   44.5710   35.8370   43.8320 C   0  0  0  0  0  0  0  0  0  0  0  0
   44.5910   36.8380   44.2710 H   0  0  0  0  0  0  0  0  0  0  0  0
   45.3310   34.8540   44.4290 C   0  0  0  0  0  3  0  0  0  0  0  0
   45.2790   33.5860   43.8390 C   0  0  0  0  0  3  0  0  0  0  0  0
  1  2  1  0  0  0  0
  2  3  2  0  0  0  0
  2  8  1  0  0  0  0
  3  4  1  0  0  0  0
  4  9  1  0  0  0  0
  4  5  2  0  0  0  0
  5 11  1  0  0  0  0
  6  5  1  0  0  0  0
  6  7  1  0  0  0  0
  8  6  2  0  0  0  0
 10  8  1  0  0  0  0
 11 20  1  0  0  0  0
 12 13  1  0  0  0  0
 12 11  2  0  0  0  0
 13 14  2  0  0  0  0
 14 15  1  0  0  0  0
 14 19  1  0  0  0  0
 15 16  2  0  0  0  0
 16 23  1  0  0  0  0
 16 17  1  0  0  0  0
 17 24  1  0  0  0  0
 18 17  2  0  0  0  0
 18 25  1  0  0  0  0
 19 18  1  0  0  0  0
 20 19  2  0  0  0  0
 20 26  1  0  0  0  0
 21 12  1  0  0  0  0
 22 13  1  0  0  0  0
 27 32  2  0  0  0  0
 27 28  1  0  0  0  0
 28 29  2  0  0  0  0
 29 30  1  0  0  0  0
 29 37  1  0  0  0  0
 31  3  1  0  0  0  0
 31 30  2  0  0  0  0
 32 31  1  0  0  0  0
 33 27  1  0  0  0  0
 34 28  1  0  0  0  0
 35 36  1  0  0  0  0
 36 43  1  0  0  0  0
 37 38  1  0  0  0  0
 37 36  2  0  0  0  0
 38 40  2  0  0  0  0
 39 38  1  0  0  0  0
 40 41  1  0  0  0  0
 40 42  1  0  0  0  0
 43 42  2  0  0  0  0
M  END
>  <minimizedAffinity>
-7.17336941

$$$$

 OpenBabel03252506073D

 43 47  0  0  0  0  0  0  0  0999 V2000
   36.9500   34.2440   39.1340 Cl  0  0  0  0  0  0  0  0  0  0  0  0
   37.3740   32.7550   39.9090 C   0  0  0  0  0  0  0  0  0  0  0  0
   38.6210   32.6000   40.4840 C   0  0  0  0  0  0  0  0  0  0  0  0
   38.8590   31.3730   41.0760 C   0  0  0  0  0  0  0  0  0  0  0  0
   37.9550   30.3340   41.1240 C   0  0  0  0  0  0  0  0  0  0  0  0
   36.7310   30.5240   40.5440 C   0  0  0  0  0  0  0  0  0  0  0  0
   35.6160   29.1730   40.6330 Cl  0  0  0  0  0  0  0  0  0  0  0  0
   36.4420   31.7160   39.9450 C   0  0  0  0  0  0  0  0  0  0  0  0
   39.8480   31.2650   41.5260 H   0  0  0  0  0  0  0  0  0  0  0  0
   35.4640   31.8370   39.4950 H   0  0  0  0  0  0  0  0  0  0  0  0
   38.3990   29.1120   41.7990 C   0  0  0  0  0  0  0  0  0  0  0  0
   38.0280   28.7840   43.0900 C   0  0  0  0  0  0  0  0  0  0  0  0
   38.4360   27.6370   43.7440 C   0  0  0  0  0  0  0  0  0  0  0  0
   39.2620   26.7540   43.0860 C   0  0  0  0  0  0  0  0  0  0  0  0
   39.6480   25.6440   43.7390 N   0  0  0  0  0  0  0  0  0  0  0  0
   40.4600   24.7190   43.1710 C   0  0  0  0  0  0  0  0  0  0  0  0
   40.8740   24.9790   41.8740 C   0  0  0  0  0  0  0  0  0  0  0  0
   40.4860   26.1060   41.2060 C   0  0  0  0  0  0  0  0  0  0  0  0
   39.6550   27.0390   41.8050 C   0  0  0  0  0  0  0  0  0  0  0  0
   39.2370   28.1890   41.1710 C   0  0  0  0  0  0  0  0  0  0  0  0
   37.3780   29.4770   43.6090 H   0  0  0  0  0  0  0  0  0  0  0  0
   38.0930   27.4670   44.7540 H   0  0  0  0  0  0  0  0  0  0  0  0
   40.7380   23.8490   43.7360 H   0  0  0  0  0  0  0  0  0  0  0  0
   41.5240   24.2520   41.4010 H   0  0  0  0  0  0  0  0  0  0  0  0
   40.8110   26.3080   40.1940 H   0  0  0  0  0  0  0  0  0  0  0  0
   39.5670   28.3810   40.1590 H   0  0  0  0  0  0  0  0  0  0  0  0
   40.2120   35.8480   40.9210 C   0  0  0  0  0  0  0  0  0  0  0  0
   41.5120   35.6320   40.4430 C   0  0  0  0  0  0  0  0  0  0  0  0
   41.8470   34.3490   39.9630 C   0  0  0  0  0  0  0  0  0  0  0  0
   40.8620   33.4340   40.0110 N   0  0  0  0  0  0  0  0  0  0  0  0
   39.6240   33.6560   40.4710 C   0  0  0  0  0  0  0  0  0  0  0  0
   39.2870   34.8650   40.9310 N   0  0  0  0  0  0  0  0  0  0  0  0
   39.9810   36.8450   41.2860 H   0  0  0  0  0  0  0  0  0  0  0  0
   42.2530   36.4160   40.4350 H   0  0  0  0  0  0  0  0  0  0  0  0
   43.7740   33.6330   42.2370 Br  0  0  0  0  0  0  0  0  0  0  0  0
   44.1490   33.6820   40.3510 C   0  0  0  0  0  0  0  0  0  0  0  0
   43.1690   34.0270   39.4460 C   0  0  0  0  0  0  0  0  0  0  0  0
   43.5050   34.0420   38.1200 C   0  0  0  0  0  0  0  0  0  0  0  0
   42.7690   34.3060   37.3800 H   0  0  0  0  0  0  0  0  0  0  0  0
   44.7890   33.7160   37.7590 C   0  0  0  0  0  0  0  0  0  0  0  0
   45.0380   33.7350   36.6950 H   0  0  0  0  0  0  0  0  0  0  0  0
   45.7830   33.3690   38.6500 C   0  0  0  0  0  3  0  0  0  0  0  0
   45.4270   33.3580   40.0030 C   0  0  0  0  0  3  0  0  0  0  0  0
  1  2  1  0  0  0  0
  2  8  2  0  0  0  0
  2  3  1  0  0  0  0
  3  4  2  0  0  0  0
  4  5  1  0  0  0  0
  4  9  1  0  0  0  0
  5 11  1  0  0  0  0
  6  7  1  0  0  0  0
  6  5  2  0  0  0  0
  8  6  1  0  0  0  0
 10  8  1  0  0  0  0
 11 12  1  0  0  0  0
 12 21  1  0  0  0  0
 12 13  2  0  0  0  0
 13 22  1  0  0  0  0
 14 15  1  0  0  0  0
 14 13  1  0  0  0  0
 16 23  1  0  0  0  0
 16 15  2  0  0  0  0
 17 16  1  0  0  0  0
 18 19  1  0  0  0  0
 18 17  2  0  0  0  0
 19 14  2  0  0  0  0
 20 11  2  0  0  0  0
 20 19  1  0  0  0  0
 24 17  1  0  0  0  0
 25 18  1  0  0  0  0
 26 20  1  0  0  0  0
 27 32  1  0  0  0  0
 27 33  1  0  0  0  0
 28 27  2  0  0  0  0
 29 30  2  0  0  0  0
 29 28  1  0  0  0  0
 30 31  1  0  0  0  0
 31  3  1  0  0  0  0
 31 32  2  0  0  0  0
 34 28  1  0  0  0  0
 36 35  1  0  0  0  0
 37 29  1  0  0  0  0
 37 36  2  0  0  0  0
 38 37  1  0  0  0  0
 39 38  1  0  0  0  0
 40 38  2  0  0  0  0
 40 42  1  0  0  0  0
 41 40  1  0  0  0  0
 42 43  2  0  0  0  0
 43 36  1  0  0  0  0
M  END
>  <minimizedAffinity>
-7.16458845

$$$$

 OpenBabel03252506073D

 43 47  0  0  0  0  0  0  0  0999 V2000
   36.8190   26.2070   38.7290 Cl  0  0  0  0  0  0  0  0  0  0  0  0
   35.4820   27.1720   38.2020 C   0  0  0  0  0  0  0  0  0  0  0  0
   35.2410   28.4030   38.7820 C   0  0  0  0  0  0  0  0  0  0  0  0
   34.1480   29.0940   38.2890 C   0  0  0  0  0  0  0  0  0  0  0  0
   33.3170   28.6400   37.2880 C   0  0  0  0  0  0  0  0  0  0  0  0
   33.5870   27.4170   36.7380 C   0  0  0  0  0  0  0  0  0  0  0  0
   32.5000   26.8850   35.4670 Cl  0  0  0  0  0  0  0  0  0  0  0  0
   34.6530   26.6920   37.1860 C   0  0  0  0  0  0  0  0  0  0  0  0
   33.9700   30.0640   38.7560 H   0  0  0  0  0  0  0  0  0  0  0  0
   34.8410   25.7270   36.7310 H   0  0  0  0  0  0  0  0  0  0  0  0
   32.2110   29.5230   36.9060 C   0  0  0  0  0  0  0  0  0  0  0  0
   31.1460   29.8040   37.7420 C   0  0  0  0  0  0  0  0  0  0  0  0
   30.0940   30.6320   37.4000 C   0  0  0  0  0  0  0  0  0  0  0  0
   30.0880   31.2230   36.1570 C   0  0  0  0  0  0  0  0  0  0  0  0
   29.0570   32.0260   35.8440 N   0  0  0  0  0  0  0  0  0  0  0  0
   28.9670   32.6510   34.6450 C   0  0  0  0  0  0  0  0  0  0  0  0
   30.0020   32.4170   33.7520 C   0  0  0  0  0  0  0  0  0  0  0  0
   31.0530   31.6020   34.0650 C   0  0  0  0  0  0  0  0  0  0  0  0
   31.1250   30.9730   35.2980 C   0  0  0  0  0  0  0  0  0  0  0  0
   32.1650   30.1430   35.6570 C   0  0  0  0  0  0  0  0  0  0  0  0
   31.1480   29.3400   38.7200 H   0  0  0  0  0  0  0  0  0  0  0  0
   29.3050   30.7910   38.1210 H   0  0  0  0  0  0  0  0  0  0  0  0
   28.1220   33.2820   34.4450 H   0  0  0  0  0  0  0  0  0  0  0  0
   29.9500   32.9070   32.7860 H   0  0  0  0  0  0  0  0  0  0  0  0
   31.8600   31.4200   33.3670 H   0  0  0  0  0  0  0  0  0  0  0  0
   32.9670   29.9680   34.9520 H   0  0  0  0  0  0  0  0  0  0  0  0
   36.8400   28.8410   42.0260 C   0  0  0  0  0  0  0  0  0  0  0  0
   37.6510   29.9680   41.8300 C   0  0  0  0  0  0  0  0  0  0  0  0
   37.6480   30.5870   40.5640 C   0  0  0  0  0  0  0  0  0  0  0  0
   36.8480   30.0220   39.6420 N   0  0  0  0  0  0  0  0  0  0  0  0
   36.0780   28.9450   39.8430 C   0  0  0  0  0  0  0  0  0  0  0  0
   36.0670   28.3430   41.0370 N   0  0  0  0  0  0  0  0  0  0  0  0
   36.8620   28.3830   43.0100 H   0  0  0  0  0  0  0  0  0  0  0  0
   38.2700   30.3670   42.6180 H   0  0  0  0  0  0  0  0  0  0  0  0
   40.4010   29.7850   39.4790 Br  0  0  0  0  0  0  0  0  0  0  0  0
   39.7230   31.5620   39.7650 C   0  0  0  0  0  0  0  0  0  0  0  0
   38.4540   31.7620   40.2630 C   0  0  0  0  0  0  0  0  0  0  0  0
   38.0360   33.0520   40.4420 C   0  0  0  0  0  0  0  0  0  0  0  0
   37.0520   33.2510   40.8290 H   0  0  0  0  0  0  0  0  0  0  0  0
   38.8930   34.0750   40.1190 C   0  0  0  0  0  0  0  0  0  0  0  0
   38.5410   35.0990   40.2690 H   0  0  0  0  0  0  0  0  0  0  0  0
   40.1660   33.8960   39.6200 C   0  0  0  0  0  3  0  0  0  0  0  0
   40.5820   32.5720   39.4420 C   0  0  0  0  0  3  0  0  0  0  0  0
  2  1  1  0  0  0  0
  2  3  1  0  0  0  0
  3 31  1  0  0  0  0
  4  9  1  0  0  0  0
  4  3  2  0  0  0  0
  5  4  1  0  0  0  0
  6  8  1  0  0  0  0
  6  5  2  0  0  0  0
  7  6  1  0  0  0  0
  8  2  2  0  0  0  0
 10  8  1  0  0  0  0
 11  5  1  0  0  0  0
 11 12  1  0  0  0  0
 12 21  1  0  0  0  0
 13 12  2  0  0  0  0
 13 22  1  0  0  0  0
 14 13  1  0  0  0  0
 15 14  1  0  0  0  0
 16 15  2  0  0  0  0
 17 18  2  0  0  0  0
 17 16  1  0  0  0  0
 18 19  1  0  0  0  0
 19 20  1  0  0  0  0
 19 14  2  0  0  0  0
 20 11  2  0  0  0  0
 23 16  1  0  0  0  0
 24 17  1  0  0  0  0
 25 18  1  0  0  0  0
 26 20  1  0  0  0  0
 27 33  1  0  0  0  0
 28 27  1  0  0  0  0
 28 34  1  0  0  0  0
 29 28  2  0  0  0  0
 30 31  2  0  0  0  0
 30 29  1  0  0  0  0
 31 32  1  0  0  0  0
 32 27  2  0  0  0  0
 35 36  1  0  0  0  0
 36 37  1  0  0  0  0
 37 38  2  0  0  0  0
 37 29  1  0  0  0  0
 38 39  1  0  0  0  0
 40 41  1  0  0  0  0
 40 38  1  0  0  0  0
 42 40  2  0  0  0  0
 43 42  1  0  0  0  0
 43 36  2  0  0  0  0
M  END
>  <minimizedAffinity>
-7.14457273

$$$$

 OpenBabel03252506073D

 43 47  0  0  0  0  0  0  0  0999 V2000
   36.6900   25.7930   38.0950 Cl  0  0  0  0  0  0  0  0  0  0  0  0
   35.3860   26.8590   37.6930 C   0  0  0  0  0  0  0  0  0  0  0  0
   35.4350   28.1890   38.0660 C   0  0  0  0  0  0  0  0  0  0  0  0
   34.3440   28.9540   37.6970 C   0  0  0  0  0  0  0  0  0  0  0  0
   33.2510   28.4830   37.0030 C   0  0  0  0  0  0  0  0  0  0  0  0
   33.2380   27.1610   36.6510 C   0  0  0  0  0  0  0  0  0  0  0  0
   31.8250   26.6090   35.7680 Cl  0  0  0  0  0  0  0  0  0  0  0  0
   34.2890   26.3580   36.9890 C   0  0  0  0  0  0  0  0  0  0  0  0
   34.3950   30.0020   37.9970 H   0  0  0  0  0  0  0  0  0  0  0  0
   34.2500   25.3160   36.6970 H   0  0  0  0  0  0  0  0  0  0  0  0
   32.1950   29.4550   36.7060 C   0  0  0  0  0  0  0  0  0  0  0  0
   31.2650   29.8700   37.6420 C   0  0  0  0  0  0  0  0  0  0  0  0
   30.2620   30.7840   37.3820 C   0  0  0  0  0  0  0  0  0  0  0  0
   30.1670   31.3270   36.1200 C   0  0  0  0  0  0  0  0  0  0  0  0
   29.1850   32.2150   35.8870 N   0  0  0  0  0  0  0  0  0  0  0  0
   29.0160   32.8020   34.6770 C   0  0  0  0  0  0  0  0  0  0  0  0
   29.9130   32.4350   33.6860 C   0  0  0  0  0  0  0  0  0  0  0  0
   30.9130   31.5320   33.9170 C   0  0  0  0  0  0  0  0  0  0  0  0
   31.0690   30.9450   35.1620 C   0  0  0  0  0  0  0  0  0  0  0  0
   32.0610   30.0310   35.4420 C   0  0  0  0  0  0  0  0  0  0  0  0
   31.3370   29.4430   38.6340 H   0  0  0  0  0  0  0  0  0  0  0  0
   29.5810   31.0460   38.1780 H   0  0  0  0  0  0  0  0  0  0  0  0
   28.2150   33.5050   34.5440 H   0  0  0  0  0  0  0  0  0  0  0  0
   29.7950   32.8920   32.7100 H   0  0  0  0  0  0  0  0  0  0  0  0
   31.6120   31.2470   33.1420 H   0  0  0  0  0  0  0  0  0  0  0  0
   32.7560   29.7520   34.6610 H   0  0  0  0  0  0  0  0  0  0  0  0
   38.0880   30.4680   39.0850 C   0  0  0  0  0  0  0  0  0  0  0  0
   38.6680   29.8110   40.1790 C   0  0  0  0  0  0  0  0  0  0  0  0
   38.1390   28.5650   40.5720 C   0  0  0  0  0  0  0  0  0  0  0  0
   37.1030   28.1160   39.8420 N   0  0  0  0  0  0  0  0  0  0  0  0
   36.5580   28.7550   38.7990 C   0  0  0  0  0  0  0  0  0  0  0  0
   37.0450   29.9380   38.4100 N   0  0  0  0  0  0  0  0  0  0  0  0
   38.5140   31.4270   38.8030 H   0  0  0  0  0  0  0  0  0  0  0  0
   39.5000   30.2330   40.7200 H   0  0  0  0  0  0  0  0  0  0  0  0
   40.2160   26.5180   39.6270 Br  0  0  0  0  0  0  0  0  0  0  0  0
   39.6210   26.8430   41.4270 C   0  0  0  0  0  0  0  0  0  0  0  0
   38.6730   27.8050   41.6940 C   0  0  0  0  0  0  0  0  0  0  0  0
   38.2960   27.9840   42.9970 C   0  0  0  0  0  0  0  0  0  0  0  0
   37.5570   28.7260   43.2480 H   0  0  0  0  0  0  0  0  0  0  0  0
   38.8760   27.2020   43.9650 C   0  0  0  0  0  0  0  0  0  0  0  0
   38.5610   27.3590   45.0000 H   0  0  0  0  0  0  0  0  0  0  0  0
   39.8260   26.2340   43.7190 C   0  0  0  0  0  3  0  0  0  0  0  0
   40.2030   26.0610   42.3820 C   0  0  0  0  0  3  0  0  0  0  0  0
  2  3  1  0  0  0  0
  2  1  1  0  0  0  0
  3 31  1  0  0  0  0
  4  9  1  0  0  0  0
  4  3  2  0  0  0  0
  5  4  1  0  0  0  0
  6  8  1  0  0  0  0
  6  5  2  0  0  0  0
  7  6  1  0  0  0  0
  8  2  2  0  0  0  0
 10  8  1  0  0  0  0
 11  5  1  0  0  0  0
 11 12  1  0  0  0  0
 12 21  1  0  0  0  0
 13 12  2  0  0  0  0
 13 22  1  0  0  0  0
 14 13  1  0  0  0  0
 15 14  1  0  0  0  0
 16 15  2  0  0  0  0
 17 18  2  0  0  0  0
 17 16  1  0  0  0  0
 18 19  1  0  0  0  0
 19 20  1  0  0  0  0
 19 14  2  0  0  0  0
 20 11  2  0  0  0  0
 23 16  1  0  0  0  0
 24 17  1  0  0  0  0
 25 18  1  0  0  0  0
 26 20  1  0  0  0  0
 27 28  1  0  0  0  0
 28 29  2  0  0  0  0
 28 34  1  0  0  0  0
 29 37  1  0  0  0  0
 30 29  1  0  0  0  0
 31 30  2  0  0  0  0
 32 31  1  0  0  0  0
 32 27  2  0  0  0  0
 33 27  1  0  0  0  0
 35 36  1  0  0  0  0
 36 37  2  0  0  0  0
 36 43  1  0  0  0  0
 37 38  1  0  0  0  0
 38 39  1  0  0  0  0
 38 40  2  0  0  0  0
 40 41  1  0  0  0  0
 42 40  1  0  0  0  0
 43 42  2  0  0  0  0
M  END
>  <minimizedAffinity>
-6.90585327

$$$$

 OpenBabel03252506073D

 43 47  0  0  0  0  0  0  0  0999 V2000
   36.8950   29.9260   38.8930 Cl  0  0  0  0  0  0  0  0  0  0  0  0
   38.3940   30.6180   39.4150 C   0  0  0  0  0  0  0  0  0  0  0  0
   38.9590   30.2310   40.6150 C   0  0  0  0  0  0  0  0  0  0  0  0
   40.1560   30.8440   40.9390 C   0  0  0  0  0  0  0  0  0  0  0  0
   40.7940   31.7840   40.1600 C   0  0  0  0  0  0  0  0  0  0  0  0
   40.2050   32.1420   38.9790 C   0  0  0  0  0  0  0  0  0  0  0  0
   41.0580   33.3410   38.0220 Cl  0  0  0  0  0  0  0  0  0  0  0  0
   39.0230   31.5690   38.6080 C   0  0  0  0  0  0  0  0  0  0  0  0
   40.5900   30.5290   41.8900 H   0  0  0  0  0  0  0  0  0  0  0  0
   38.5810   31.8730   37.6670 H   0  0  0  0  0  0  0  0  0  0  0  0
   42.0570   32.3160   40.6800 C   0  0  0  0  0  0  0  0  0  0  0  0
   43.2320   31.5860   40.7040 C   0  0  0  0  0  0  0  0  0  0  0  0
   44.4310   32.0690   41.1900 C   0  0  0  0  0  0  0  0  0  0  0  0
   44.4810   33.3530   41.6830 C   0  0  0  0  0  0  0  0  0  0  0  0
   45.6580   33.8040   42.1510 N   0  0  0  0  0  0  0  0  0  0  0  0
   45.8020   35.0540   42.6550 C   0  0  0  0  0  0  0  0  0  0  0  0
   44.6650   35.8480   42.6620 C   0  0  0  0  0  0  0  0  0  0  0  0
   43.4660   35.3940   42.1890 C   0  0  0  0  0  0  0  0  0  0  0  0
   43.3420   34.1120   41.6770 C   0  0  0  0  0  0  0  0  0  0  0  0
   42.1540   33.6110   41.1890 C   0  0  0  0  0  0  0  0  0  0  0  0
   43.1940   30.5750   40.3170 H   0  0  0  0  0  0  0  0  0  0  0  0
   45.2970   31.4220   41.1680 H   0  0  0  0  0  0  0  0  0  0  0  0
   46.7640   35.3660   43.0150 H   0  0  0  0  0  0  0  0  0  0  0  0
   44.7580   36.8510   43.0610 H   0  0  0  0  0  0  0  0  0  0  0  0
   42.5800   36.0140   42.1960 H   0  0  0  0  0  0  0  0  0  0  0  0
   41.2730   34.2400   41.2000 H   0  0  0  0  0  0  0  0  0  0  0  0
   37.3240   28.7250   43.5010 C   0  0  0  0  0  0  0  0  0  0  0  0
   37.1810   27.3830   43.1210 C   0  0  0  0  0  0  0  0  0  0  0  0
   37.6540   26.9900   41.8530 C   0  0  0  0  0  0  0  0  0  0  0  0
   38.2110   27.9650   41.1110 N   0  0  0  0  0  0  0  0  0  0  0  0
   38.3400   29.2430   41.4880 C   0  0  0  0  0  0  0  0  0  0  0  0
   37.8980   29.6370   42.6870 N   0  0  0  0  0  0  0  0  0  0  0  0
   36.9500   29.0010   44.4830 H   0  0  0  0  0  0  0  0  0  0  0  0
   36.7220   26.6540   43.7700 H   0  0  0  0  0  0  0  0  0  0  0  0
   39.9150   25.2530   42.9790 Br  0  0  0  0  0  0  0  0  0  0  0  0
   38.5020   24.7160   41.7890 C   0  0  0  0  0  0  0  0  0  0  0  0
   37.5530   25.6210   41.3680 C   0  0  0  0  0  0  0  0  0  0  0  0
   36.5760   25.1720   40.5210 C   0  0  0  0  0  0  0  0  0  0  0  0
   35.8160   25.8470   40.1680 H   0  0  0  0  0  0  0  0  0  0  0  0
   36.5910   23.8540   40.1360 C   0  0  0  0  0  0  0  0  0  0  0  0
   35.8030   23.5140   39.4590 H   0  0  0  0  0  0  0  0  0  0  0  0
   37.5320   22.9340   40.5460 C   0  0  0  0  0  3  0  0  0  0  0  0
   38.5250   23.4050   41.4110 C   0  0  0  0  0  3  0  0  0  0  0  0
  1  2  1  0  0  0  0
  2  3  1  0  0  0  0
  3  4  2  0  0  0  0
  3 31  1  0  0  0  0
  4  9  1  0  0  0  0
  5 11  1  0  0  0  0
  5  4  1  0  0  0  0
  6  5  2  0  0  0  0
  7  6  1  0  0  0  0
  8  6  1  0  0  0  0
  8  2  2  0  0  0  0
 10  8  1  0  0  0  0
 11 12  2  0  0  0  0
 11 20  1  0  0  0  0
 12 13  1  0  0  0  0
 13 14  2  0  0  0  0
 14 15  1  0  0  0  0
 15 16  2  0  0  0  0
 16 17  1  0  0  0  0
 16 23  1  0  0  0  0
 17 24  1  0  0  0  0
 18 25  1  0  0  0  0
 18 17  2  0  0  0  0
 19 14  1  0  0  0  0
 19 18  1  0  0  0  0
 20 26  1  0  0  0  0
 20 19  2  0  0  0  0
 21 12  1  0  0  0  0
 22 13  1  0  0  0  0
 27 33  1  0  0  0  0
 28 27  1  0  0  0  0
 28 34  1  0  0  0  0
 29 28  2  0  0  0  0
 30 31  2  0  0  0  0
 30 29  1  0  0  0  0
 31 32  1  0  0  0  0
 32 27  2  0  0  0  0
 36 35  1  0  0  0  0
 37 36  2  0  0  0  0
 37 29  1  0  0  0  0
 38 37  1  0  0  0  0
 39 38  1  0  0  0  0
 40 38  2  0  0  0  0
 40 42  1  0  0  0  0
 41 40  1  0  0  0  0
 42 43  2  0  0  0  0
 43 36  1  0  0  0  0
M  END
>  <minimizedAffinity>
-6.81393576

$$$$

 OpenBabel03252506073D

 43 47  0  0  0  0  0  0  0  0999 V2000
   39.5100   30.0840   42.6710 Cl  0  0  0  0  0  0  0  0  0  0  0  0
   39.0320   28.5470   42.0340 C   0  0  0  0  0  0  0  0  0  0  0  0
   38.4250   28.4650   40.7950 C   0  0  0  0  0  0  0  0  0  0  0  0
   38.0830   27.1910   40.3790 C   0  0  0  0  0  0  0  0  0  0  0  0
   38.3050   26.0400   41.1040 C   0  0  0  0  0  0  0  0  0  0  0  0
   38.9080   26.1610   42.3260 C   0  0  0  0  0  0  0  0  0  0  0  0
   39.1700   24.6670   43.2090 Cl  0  0  0  0  0  0  0  0  0  0  0  0
   39.2680   27.3940   42.7870 C   0  0  0  0  0  0  0  0  0  0  0  0
   37.6050   27.1410   39.3990 H   0  0  0  0  0  0  0  0  0  0  0  0
   39.7430   27.4580   43.7580 H   0  0  0  0  0  0  0  0  0  0  0  0
   37.8680   24.7840   40.4880 C   0  0  0  0  0  0  0  0  0  0  0  0
   38.7490   23.8320   40.0070 C   0  0  0  0  0  0  0  0  0  0  0  0
   38.3570   22.6440   39.4230 C   0  0  0  0  0  0  0  0  0  0  0  0
   37.0120   22.3710   39.3040 C   0  0  0  0  0  0  0  0  0  0  0  0
   36.6510   21.2090   38.7330 N   0  0  0  0  0  0  0  0  0  0  0  0
   35.3530   20.8560   38.5750 C   0  0  0  0  0  0  0  0  0  0  0  0
   34.4090   21.7630   39.0350 C   0  0  0  0  0  0  0  0  0  0  0  0
   34.7710   22.9460   39.6150 C   0  0  0  0  0  0  0  0  0  0  0  0
   36.1050   23.2860   39.7680 C   0  0  0  0  0  0  0  0  0  0  0  0
   36.5170   24.4670   40.3470 C   0  0  0  0  0  0  0  0  0  0  0  0
   39.8060   24.0450   40.0990 H   0  0  0  0  0  0  0  0  0  0  0  0
   39.1190   21.9610   39.0760 H   0  0  0  0  0  0  0  0  0  0  0  0
   35.1180   19.9150   38.1120 H   0  0  0  0  0  0  0  0  0  0  0  0
   33.3640   21.5000   38.9170 H   0  0  0  0  0  0  0  0  0  0  0  0
   34.0340   23.6520   39.9730 H   0  0  0  0  0  0  0  0  0  0  0  0
   35.7720   25.1670   40.7020 H   0  0  0  0  0  0  0  0  0  0  0  0
   36.6540   30.9520   38.8080 C   0  0  0  0  0  0  0  0  0  0  0  0
   37.6710   31.8430   38.4350 C   0  0  0  0  0  0  0  0  0  0  0  0
   38.9850   31.5840   38.8730 C   0  0  0  0  0  0  0  0  0  0  0  0
   39.1410   30.4800   39.6260 N   0  0  0  0  0  0  0  0  0  0  0  0
   38.1600   29.6390   39.9750 C   0  0  0  0  0  0  0  0  0  0  0  0
   36.9060   29.8660   39.5700 N   0  0  0  0  0  0  0  0  0  0  0  0
   35.6500   31.1760   38.4590 H   0  0  0  0  0  0  0  0  0  0  0  0
   37.4710   32.7120   37.8280 H   0  0  0  0  0  0  0  0  0  0  0  0
   39.1140   34.0030   40.7530 Br  0  0  0  0  0  0  0  0  0  0  0  0
   40.2990   33.5810   39.2970 C   0  0  0  0  0  0  0  0  0  0  0  0
   40.1080   32.4480   38.5370 C   0  0  0  0  0  0  0  0  0  0  0  0
   40.9880   32.2100   37.5170 C   0  0  0  0  0  0  0  0  0  0  0  0
   40.8740   31.3350   36.8990 H   0  0  0  0  0  0  0  0  0  0  0  0
   42.0080   33.1030   37.3020 C   0  0  0  0  0  0  0  0  0  0  0  0
   42.7000   32.8960   36.4820 H   0  0  0  0  0  0  0  0  0  0  0  0
   42.2150   34.2430   38.0510 C   0  0  0  0  0  3  0  0  0  0  0  0
   41.3080   34.4750   39.0910 C   0  0  0  0  0  3  0  0  0  0  0  0
  2  1  1  0  0  0  0
  2  8  1  0  0  0  0
  3  2  2  0  0  0  0
  4  3  1  0  0  0  0
  4  5  2  0  0  0  0
  5  6  1  0  0  0  0
  6  8  2  0  0  0  0
  6  7  1  0  0  0  0
  8 10  1  0  0  0  0
  9  4  1  0  0  0  0
 11  5  1  0  0  0  0
 12 21  1  0  0  0  0
 12 11  2  0  0  0  0
 13 12  1  0  0  0  0
 14 13  2  0  0  0  0
 14 19  1  0  0  0  0
 15 14  1  0  0  0  0
 16 15  2  0  0  0  0
 16 17  1  0  0  0  0
 17 18  2  0  0  0  0
 18 19  1  0  0  0  0
 18 25  1  0  0  0  0
 19 20  2  0  0  0  0
 20 11  1  0  0  0  0
 20 26  1  0  0  0  0
 22 13  1  0  0  0  0
 23 16  1  0  0  0  0
 24 17  1  0  0  0  0
 27 32  1  0  0  0  0
 28 27  2  0  0  0  0
 28 29  1  0  0  0  0
 29 30  2  0  0  0  0
 30 31  1  0  0  0  0
 31  3  1  0  0  0  0
 32 31  2  0  0  0  0
 33 27  1  0  0  0  0
 34 28  1  0  0  0  0
 36 35  1  0  0  0  0
 37 29  1  0  0  0  0
 37 36  2  0  0  0  0
 38 37  1  0  0  0  0
 39 38  1  0  0  0  0
 40 38  2  0  0  0  0
 40 42  1  0  0  0  0
 41 40  1  0  0  0  0
 42 43  2  0  0  0  0
 43 36  1  0  0  0  0
M  END
>  <minimizedAffinity>
-6.80571222

$$$$
