
 OpenBabel03252500573D

 38 40  0  0  0  0  0  0  0  0999 V2000
   43.4060   35.7070   40.1060 O   0  0  0  0  0  0  0  0  0  0  0  0
   43.2630   35.0420   41.4720 P   0  0  1  0  0  0  0  0  0  0  0  0
   43.5340   33.3870   41.2880 O   0  0  0  0  0  0  0  0  0  0  0  0
   43.3950   33.0800   40.3610 H   0  0  0  0  0  0  0  0  0  0  0  0
   44.4420   35.6480   42.5160 O   0  0  0  0  0  0  0  0  0  0  0  0
   46.4080   34.4530   42.9950 C   0  0  0  0  0  0  0  0  0  0  0  0
   45.1920   34.9220   43.4380 C   0  0  0  0  0  0  0  0  0  0  0  0
   44.8080   34.6410   44.7530 C   0  0  0  0  0  0  0  0  0  0  0  0
   45.6550   33.9230   45.5180 N   0  0  0  0  0  0  0  0  0  0  0  0
   46.8380   33.4740   45.0670 C   0  0  0  0  0  0  0  0  0  0  0  0
   47.2090   33.7390   43.8140 N   0  0  0  0  0  0  0  0  0  0  0  0
   43.8540   35.0270   45.0520 H   0  0  0  0  0  0  0  0  0  0  0  0
   47.4270   32.9100   45.7740 H   0  0  0  0  0  0  0  0  0  0  0  0
   46.8690   34.7110   41.6370 C   0  0  0  0  0  0  0  0  0  0  0  0
   46.1680   35.4100   41.1390 H   0  0  0  0  0  0  0  0  0  0  0  0
   46.9060   33.8090   41.0150 H   0  0  0  0  0  0  0  0  0  0  0  0
   48.2370   35.3170   41.6860 C   0  0  0  0  0  0  0  0  0  0  0  0
   48.2210   36.3380   41.2600 H   0  0  0  0  0  0  0  0  0  0  0  0
   48.6050   35.4040   42.7310 H   0  0  0  0  0  0  0  0  0  0  0  0
   49.0060   34.6770   41.1770 H   0  0  0  0  0  0  0  0  0  0  0  0
   41.6820   35.2550   42.0510 O   0  0  0  0  0  0  0  0  0  0  0  0
   40.6500   34.6000   41.3860 C   0  0  0  0  0  0  0  0  0  0  0  0
   40.0380   35.2880   40.3480 C   0  0  0  0  0  0  0  0  0  0  0  0
   38.9890   34.7180   39.6140 C   0  0  0  0  0  0  0  0  0  0  0  0
   38.5820   33.4590   39.9500 N   0  0  0  0  0  0  0  0  0  0  0  0
   39.1780   32.8130   40.9440 C   0  0  0  0  0  0  0  0  0  0  0  0
   40.1830   33.3700   41.6420 N   0  0  0  0  0  0  0  0  0  0  0  0
   40.3650   36.2960   40.0820 H   0  0  0  0  0  0  0  0  0  0  0  0
   38.5460   35.2800   38.8260 H   0  0  0  0  0  0  0  0  0  0  0  0
   41.4670   31.1810   42.0790 Br  0  0  0  0  0  0  0  0  0  0  0  0
   39.6790   30.5600   41.8740 C   0  0  0  0  0  0  0  0  0  0  0  0
   38.7720   31.4670   41.3310 C   0  0  0  0  0  0  0  0  0  0  0  0
   37.4630   31.0030   41.1850 C   0  0  0  0  0  0  0  0  0  0  0  0
   36.7120   31.6730   40.7640 H   0  0  0  0  0  0  0  0  0  0  0  0
   37.1450   29.7330   41.5650 C   0  0  0  0  0  0  0  0  0  0  0  0
   36.1440   29.3220   41.4740 H   0  0  0  0  0  0  0  0  0  0  0  0
   38.0570   28.8640   42.0960 C   0  0  0  0  0  0  0  0  0  0  0  0
   39.3770   29.2720   42.2650 C   0  0  0  0  0  0  0  0  0  0  0  0
  2  1  2  6  0  0  0
  2 21  1  0  0  0  0
  2  5  1  0  0  0  0
  3  2  1  0  0  0  0
  4  3  1  0  0  0  0
  5  7  1  0  0  0  0
  6  7  2  0  0  0  0
  6 11  1  0  0  0  0
  7  8  1  0  0  0  0
  8 12  1  0  0  0  0
  8  9  2  0  0  0  0
 10  9  1  0  0  0  0
 10 13  1  0  0  0  0
 11 10  2  0  0  0  0
 14 17  1  0  0  0  0
 14  6  1  0  0  0  0
 15 14  1  0  0  0  0
 16 14  1  0  0  0  0
 17 19  1  0  0  0  0
 18 17  1  0  0  0  0
 20 17  1  0  0  0  0
 22 27  1  0  0  0  0
 22 21  1  0  0  0  0
 23 22  2  0  0  0  0
 24 25  2  0  0  0  0
 24 23  1  0  0  0  0
 25 26  1  0  0  0  0
 26 32  1  0  0  0  0
 26 27  2  0  0  0  0
 28 23  1  0  0  0  0
 29 24  1  0  0  0  0
 31 30  1  0  0  0  0
 31 38  1  0  0  0  0
 32 31  2  0  0  0  0
 33 32  1  0  0  0  0
 33 35  2  0  0  0  0
 34 33  1  0  0  0  0
 35 37  1  0  0  0  0
 36 35  1  0  0  0  0
 37 38  2  0  0  0  0
M  END
>  <minimizedAffinity>
-6.05039501

>  <minimizedRMSD>
0.660975993

$$$$
