
 OpenBabel03252503413D

 21 22  0  0  0  0  0  0  0  0999 V2000
   46.6870   34.2170   43.6330 C   0  0  0  0  0  0  0  0  0  0  0  0
   45.5010   33.9370   42.9250 C   0  0  0  0  0  0  0  0  0  0  0  0
   44.8880   32.7220   43.1890 C   0  0  0  0  0  0  0  0  0  0  0  0
   45.4270   31.8730   44.0850 N   0  0  0  0  0  0  0  0  0  0  0  0
   46.5710   32.1740   44.7500 C   0  0  0  0  0  0  0  0  0  0  0  0
   47.1980   33.3460   44.5220 N   0  0  0  0  0  0  0  0  0  0  0  0
   47.2720   35.1220   43.5310 H   0  0  0  0  0  0  0  0  0  0  0  0
   43.9910   32.5680   42.6180 H   0  0  0  0  0  0  0  0  0  0  0  0
   45.5100   32.6350   47.5940 Br  0  0  0  0  0  0  0  0  0  0  0  0
   46.7470   31.2890   47.0270 C   0  0  0  0  0  0  0  0  0  0  0  0
   47.1170   31.2220   45.7140 C   0  0  0  0  0  0  0  0  0  0  0  0
   48.0080   30.2630   45.2730 C   0  0  0  0  0  0  0  0  0  0  0  0
   48.3000   30.2100   44.2360 H   0  0  0  0  0  0  0  0  0  0  0  0
   48.5210   29.3650   46.1980 C   0  0  0  0  0  0  0  0  0  0  0  0
   49.2240   28.5930   45.9000 H   0  0  0  0  0  0  0  0  0  0  0  0
   48.1510   29.4270   47.5270 C   0  0  0  0  0  3  0  0  0  0  0  0
   47.2600   30.3940   47.9380 C   0  0  0  0  0  3  0  0  0  0  0  0
   45.0660   34.9890   41.9840 C   0  0  0  0  0  0  0  0  0  0  0  0
   44.5910   35.7960   42.5570 H   0  0  0  0  0  0  0  0  0  0  0  0
   44.3070   34.6200   41.2720 H   0  0  0  0  0  0  0  0  0  0  0  0
   45.9350   35.4220   41.4410 H   0  0  0  0  0  0  0  0  0  0  0  0
  1  6  1  0  0  0  0
  2  3  1  0  0  0  0
  2  1  2  0  0  0  0
  3  4  2  0  0  0  0
  4  5  1  0  0  0  0
  5 11  1  0  0  0  0
  6  5  2  0  0  0  0
  7  1  1  0  0  0  0
  8  3  1  0  0  0  0
 10  9  1  0  0  0  0
 10 17  1  0  0  0  0
 11 10  2  0  0  0  0
 12 11  1  0  0  0  0
 12 14  2  0  0  0  0
 13 12  1  0  0  0  0
 14 16  1  0  0  0  0
 15 14  1  0  0  0  0
 16 17  2  0  0  0  0
 18 19  1  0  0  0  0
 18  2  1  0  0  0  0
 20 18  1  0  0  0  0
 21 18  1  0  0  0  0
M  END
>  <minimizedAffinity>
-3.35875845

>  <minimizedRMSD>
2.96339059

$$$$
