
 OpenBabel03242517163D

 33 35  0  0  0  0  0  0  0  0999 V2000
   44.8500   35.1010   44.0100 C   0  0  0  0  0  0  0  0  0  0  0  0
   44.4590   34.3480   42.8700 C   0  0  0  0  0  0  0  0  0  0  0  0
   44.6160   32.9680   42.8860 C   0  0  0  0  0  0  0  0  0  0  0  0
   45.1480   32.4340   44.0290 N   0  0  0  0  0  0  0  0  0  0  0  0
   45.5100   33.1470   45.0900 C   0  0  0  0  0  0  0  0  0  0  0  0
   45.3610   34.4710   45.0770 N   0  0  0  0  0  0  0  0  0  0  0  0
   44.6910   36.1680   43.9070 H   0  0  0  0  0  0  0  0  0  0  0  0
   44.3320   32.3620   42.0430 H   0  0  0  0  0  0  0  0  0  0  0  0
   47.7560   31.2120   44.3530 Br  0  0  0  0  0  0  0  0  0  0  0  0
   47.1100   31.5770   46.1250 C   0  0  0  0  0  0  0  0  0  0  0  0
   46.0700   32.4980   46.2690 C   0  0  0  0  0  0  0  0  0  0  0  0
   45.5830   32.7830   47.5310 C   0  0  0  0  0  0  0  0  0  0  0  0
   44.7780   33.4910   47.6810 H   0  0  0  0  0  0  0  0  0  0  0  0
   46.1190   32.1650   48.6260 C   0  0  0  0  0  0  0  0  0  0  0  0
   45.7590   32.3660   49.6390 H   0  0  0  0  0  0  0  0  0  0  0  0
   47.1390   31.2630   48.4860 C   0  0  0  0  0  0  0  0  0  0  0  0
   47.6650   30.9410   47.2310 C   0  0  0  0  0  0  0  0  0  0  0  0
   43.8980   35.0280   41.6950 C   0  0  0  0  0  0  0  0  0  0  0  0
   42.6520   34.9230   41.2930 C   0  0  0  0  0  0  0  0  0  0  0  0
   42.1360   35.6410   40.0860 C   0  0  0  0  0  0  0  0  0  0  0  0
   42.8730   35.6440   39.2630 H   0  0  0  0  0  0  0  0  0  0  0  0
   41.9390   36.6890   40.4060 H   0  0  0  0  0  0  0  0  0  0  0  0
   41.4270   35.6770   37.3850 F   0  0  0  0  0  0  0  0  0  0  0  0
   40.5760   35.0820   38.2530 C   0  0  0  0  0  0  0  0  0  0  0  0
   40.8940   35.0410   39.6150 C   0  0  0  0  0  0  0  0  0  0  0  0
   39.9510   34.4140   40.3820 C   0  0  0  0  0  0  0  0  0  0  0  0
   38.7700   33.8410   39.9590 C   0  0  0  0  0  0  0  0  0  0  0  0
   38.5400   33.9300   38.5830 C   0  0  0  0  0  0  0  0  0  0  0  0
   39.4110   34.5360   37.7110 C   0  0  0  0  0  0  0  0  0  0  0  0
   40.1360   34.3470   41.4530 H   0  0  0  0  0  0  0  0  0  0  0  0
   38.0760   33.3640   40.6140 H   0  0  0  0  0  0  0  0  0  0  0  0
   37.6150   33.4900   38.1930 H   0  0  0  0  0  0  0  0  0  0  0  0
   39.2320   34.6040   36.6480 H   0  0  0  0  0  0  0  0  0  0  0  0
  1  6  1  0  0  0  0
  2  3  1  0  0  0  0
  2  1  2  0  0  0  0
  3  4  2  0  0  0  0
  4  5  1  0  0  0  0
  5 11  1  0  0  0  0
  6  5  2  0  0  0  0
  7  1  1  0  0  0  0
  8  3  1  0  0  0  0
  9 10  1  0  0  0  0
 10 11  2  0  0  0  0
 10 17  1  0  0  0  0
 11 12  1  0  0  0  0
 12 13  1  0  0  0  0
 12 14  2  0  0  0  0
 14 15  1  0  0  0  0
 16 14  1  0  0  0  0
 17 16  2  0  0  0  0
 18  2  1  0  0  0  0
 19 18  2  0  0  0  0
 20 22  1  0  0  0  0
 20 19  1  0  0  0  0
 21 20  1  0  0  0  0
 23 24  1  0  0  0  0
 24 25  1  0  0  0  0
 25 20  1  0  0  0  0
 25 26  2  0  0  0  0
 26 30  1  0  0  0  0
 27 26  1  0  0  0  0
 27 31  1  0  0  0  0
 28 27  2  0  0  0  0
 29 24  2  0  0  0  0
 29 28  1  0  0  0  0
 32 28  1  0  0  0  0
 33 29  1  0  0  0  0
M  END
>  <minimizedAffinity>
-6.32373762

>  <minimizedRMSD>
1.22267604

$$$$
