
 OpenBabel03252502273D

 35 37  0  0  0  0  0  0  0  0999 V2000
   45.1170   34.4480   41.2380 C   0  0  0  0  0  0  0  0  0  0  0  0
   45.4520   35.1280   42.3980 C   0  0  0  0  0  0  0  0  0  0  0  0
   46.7890   35.3940   42.6570 C   0  0  0  0  0  0  0  0  0  0  0  0
   47.7540   34.9820   41.7640 C   0  0  0  0  0  0  0  0  0  0  0  0
   47.4440   34.3080   40.6100 C   0  0  0  0  0  0  0  0  0  0  0  0
   46.0870   34.0560   40.3750 C   0  0  0  0  0  0  0  0  0  0  0  0
   44.6880   35.4490   43.1020 H   0  0  0  0  0  0  0  0  0  0  0  0
   47.1150   35.9170   43.5470 H   0  0  0  0  0  0  0  0  0  0  0  0
   48.8350   35.1430   41.8760 H   0  0  0  0  0  0  0  0  0  0  0  0
   48.0840   33.9370   39.8400 H   0  0  0  0  0  0  0  0  0  0  0  0
   41.4470   34.7770   40.4640 C   0  0  0  0  0  0  0  0  0  0  0  0
   42.7890   35.1450   40.6280 C   0  0  0  0  0  0  0  0  0  0  0  0
   43.7020   34.2060   41.0290 C   0  0  0  0  0  0  0  0  0  0  0  0
   43.2280   32.9440   41.2460 N   0  0  0  0  0  0  0  0  0  0  0  0
   41.9330   32.5920   41.0870 C   0  0  0  0  0  0  0  0  0  0  0  0
   41.0370   33.5180   40.6920 N   0  0  0  0  0  0  0  0  0  0  0  0
   43.1410   36.1390   40.4520 H   0  0  0  0  0  0  0  0  0  0  0  0
   41.6260   31.5600   41.2750 H   0  0  0  0  0  0  0  0  0  0  0  0
   40.4500   35.7850   40.0300 C   0  0  0  0  0  0  0  0  0  0  0  0
   39.2540   35.1060   39.7450 F   0  0  0  0  0  0  0  0  0  0  0  0
   40.8820   36.2780   38.8030 F   0  0  0  0  0  0  0  0  0  0  0  0
   40.2280   36.7590   40.9660 F   0  0  0  0  0  0  0  0  0  0  0  0
   45.7530   32.0760   38.7070 C   0  0  0  0  0  0  0  0  0  0  0  0
   46.3030   31.1200   39.2730 O   0  0  0  0  0  0  0  0  0  0  0  0
   45.6300   33.3790   39.2250 N   0  0  0  0  0  0  0  0  0  0  0  0
   45.0640   34.0800   38.6520 H   0  0  0  0  0  0  0  0  0  0  0  0
   47.7130   32.8090   36.3990 Br  0  0  0  0  0  0  0  0  0  0  0  0
   45.9900   32.0500   36.2700 C   0  0  0  0  0  0  0  0  0  0  0  0
   45.2030   31.7650   37.3900 C   0  0  0  0  0  0  0  0  0  0  0  0
   43.9350   31.2100   37.3290 C   0  0  0  0  0  0  0  0  0  0  0  0
   43.3790   31.0110   38.2270 H   0  0  0  0  0  0  0  0  0  0  0  0
   43.4280   30.9230   36.0620 C   0  0  0  0  0  0  0  0  0  0  0  0
   42.4260   30.4860   36.0570 H   0  0  0  0  0  0  0  0  0  0  0  0
   44.1520   31.1790   34.9330 C   0  0  0  0  0  3  0  0  0  0  0  0
   45.4270   31.7400   35.0370 C   0  0  0  0  0  3  0  0  0  0  0  0
  1  2  1  0  0  0  0
  2  3  2  0  0  0  0
  2  7  1  0  0  0  0
  3  8  1  0  0  0  0
  4  9  1  0  0  0  0
  4  3  1  0  0  0  0
  5  4  2  0  0  0  0
  6  5  1  0  0  0  0
  6  1  2  0  0  0  0
 10  5  1  0  0  0  0
 11 12  2  0  0  0  0
 11 16  1  0  0  0  0
 12 13  1  0  0  0  0
 13  1  1  0  0  0  0
 13 14  2  0  0  0  0
 15 14  1  0  0  0  0
 15 18  1  0  0  0  0
 16 15  2  0  0  0  0
 17 12  1  0  0  0  0
 19 11  1  0  0  0  0
 19 22  1  0  0  0  0
 20 19  1  0  0  0  0
 21 19  1  0  0  0  0
 23 25  1  0  0  0  0
 23 24  2  0  0  0  0
 25  6  1  0  0  0  0
 26 25  1  0  0  0  0
 28 27  1  0  0  0  0
 28 29  1  0  0  0  0
 29 23  1  0  0  0  0
 30 29  2  0  0  0  0
 30 31  1  0  0  0  0
 32 30  1  0  0  0  0
 33 32  1  0  0  0  0
 34 35  1  0  0  0  0
 34 32  2  0  0  0  0
 35 28  2  0  0  0  0
M  END
>  <minimizedAffinity>
-6.13278198

>  <minimizedRMSD>
0.890965104

$$$$
