
 OpenBabel03252502273D

 35 37  0  0  0  0  0  0  0  0999 V2000
   45.1200   34.4080   41.1410 C   0  0  0  0  0  0  0  0  0  0  0  0
   45.5160   35.1070   42.2710 C   0  0  0  0  0  0  0  0  0  0  0  0
   46.8680   35.3530   42.4660 C   0  0  0  0  0  0  0  0  0  0  0  0
   47.7860   34.9030   41.5430 C   0  0  0  0  0  0  0  0  0  0  0  0
   47.4140   34.2090   40.4190 C   0  0  0  0  0  0  0  0  0  0  0  0
   46.0450   33.9770   40.2480 C   0  0  0  0  0  0  0  0  0  0  0  0
   44.7880   35.4580   42.9980 H   0  0  0  0  0  0  0  0  0  0  0  0
   47.2410   35.8900   43.3290 H   0  0  0  0  0  0  0  0  0  0  0  0
   48.8730   35.0450   41.6050 H   0  0  0  0  0  0  0  0  0  0  0  0
   48.0150   33.8080   39.6320 H   0  0  0  0  0  0  0  0  0  0  0  0
   41.4290   34.7850   40.4980 C   0  0  0  0  0  0  0  0  0  0  0  0
   42.7830   35.1300   40.5940 C   0  0  0  0  0  0  0  0  0  0  0  0
   43.6930   34.1890   40.9980 C   0  0  0  0  0  0  0  0  0  0  0  0
   43.2030   32.9470   41.2850 N   0  0  0  0  0  0  0  0  0  0  0  0
   41.8960   32.6170   41.1920 C   0  0  0  0  0  0  0  0  0  0  0  0
   41.0030   33.5460   40.7940 N   0  0  0  0  0  0  0  0  0  0  0  0
   43.1480   36.1080   40.3630 H   0  0  0  0  0  0  0  0  0  0  0  0
   41.5750   31.6010   41.4350 H   0  0  0  0  0  0  0  0  0  0  0  0
   40.4370   35.7960   40.0620 C   0  0  0  0  0  0  0  0  0  0  0  0
   39.2350   35.1220   39.7880 F   0  0  0  0  0  0  0  0  0  0  0  0
   40.8640   36.2770   38.8290 F   0  0  0  0  0  0  0  0  0  0  0  0
   40.2260   36.7790   40.9920 F   0  0  0  0  0  0  0  0  0  0  0  0
   45.6040   31.9670   38.6410 C   0  0  0  0  0  0  0  0  0  0  0  0
   46.1600   31.0140   39.2050 O   0  0  0  0  0  0  0  0  0  0  0  0
   45.5260   33.2830   39.1340 N   0  0  0  0  0  0  0  0  0  0  0  0
   44.9490   33.9820   38.5700 H   0  0  0  0  0  0  0  0  0  0  0  0
   47.5040   32.5370   36.2390 Br  0  0  0  0  0  0  0  0  0  0  0  0
   45.7470   31.8500   36.1990 C   0  0  0  0  0  0  0  0  0  0  0  0
   44.9920   31.6380   37.3570 C   0  0  0  0  0  0  0  0  0  0  0  0
   43.7000   31.1370   37.3610 C   0  0  0  0  0  0  0  0  0  0  0  0
   43.1710   30.9930   38.2860 H   0  0  0  0  0  0  0  0  0  0  0  0
   43.1340   30.8310   36.1240 C   0  0  0  0  0  0  0  0  0  0  0  0
   42.1150   30.4370   36.1720 H   0  0  0  0  0  0  0  0  0  0  0  0
   43.8250   31.0170   34.9610 C   0  0  0  0  0  3  0  0  0  0  0  0
   45.1250   31.5250   35.0000 C   0  0  0  0  0  3  0  0  0  0  0  0
  1  2  1  0  0  0  0
  2  3  2  0  0  0  0
  2  7  1  0  0  0  0
  3  8  1  0  0  0  0
  4  9  1  0  0  0  0
  4  3  1  0  0  0  0
  5  4  2  0  0  0  0
  6  5  1  0  0  0  0
  6  1  2  0  0  0  0
 10  5  1  0  0  0  0
 11 12  2  0  0  0  0
 11 16  1  0  0  0  0
 12 13  1  0  0  0  0
 13  1  1  0  0  0  0
 13 14  2  0  0  0  0
 15 14  1  0  0  0  0
 15 18  1  0  0  0  0
 16 15  2  0  0  0  0
 17 12  1  0  0  0  0
 19 11  1  0  0  0  0
 19 22  1  0  0  0  0
 20 19  1  0  0  0  0
 21 19  1  0  0  0  0
 23 25  1  0  0  0  0
 23 24  2  0  0  0  0
 25  6  1  0  0  0  0
 26 25  1  0  0  0  0
 28 27  1  0  0  0  0
 28 29  1  0  0  0  0
 29 30  2  0  0  0  0
 29 23  1  0  0  0  0
 30 31  1  0  0  0  0
 32 33  1  0  0  0  0
 32 30  1  0  0  0  0
 34 35  1  0  0  0  0
 34 32  2  0  0  0  0
 35 28  2  0  0  0  0
M  END
>  <minimizedAffinity>
-6.12669897

>  <minimizedRMSD>
0.341360927

$$$$
