
 OpenBabel03252502273D

 35 37  0  0  0  0  0  0  0  0999 V2000
   45.2210   34.4250   41.0830 C   0  0  0  0  0  0  0  0  0  0  0  0
   45.5260   35.1000   42.2540 C   0  0  0  0  0  0  0  0  0  0  0  0
   46.8560   35.3660   42.5470 C   0  0  0  0  0  0  0  0  0  0  0  0
   47.8440   34.9600   41.6770 C   0  0  0  0  0  0  0  0  0  0  0  0
   47.5630   34.2910   40.5130 C   0  0  0  0  0  0  0  0  0  0  0  0
   46.2140   34.0370   40.2430 C   0  0  0  0  0  0  0  0  0  0  0  0
   44.7440   35.4170   42.9400 H   0  0  0  0  0  0  0  0  0  0  0  0
   47.1590   35.8860   43.4480 H   0  0  0  0  0  0  0  0  0  0  0  0
   48.9210   35.1220   41.8170 H   0  0  0  0  0  0  0  0  0  0  0  0
   48.2230   33.9240   39.7580 H   0  0  0  0  0  0  0  0  0  0  0  0
   41.5690   34.7560   40.2320 C   0  0  0  0  0  0  0  0  0  0  0  0
   42.9050   35.1250   40.4330 C   0  0  0  0  0  0  0  0  0  0  0  0
   43.8120   34.1830   40.8370 C   0  0  0  0  0  0  0  0  0  0  0  0
   43.3390   32.9150   41.0190 N   0  0  0  0  0  0  0  0  0  0  0  0
   42.0490   32.5610   40.8250 C   0  0  0  0  0  0  0  0  0  0  0  0
   41.1590   33.4920   40.4270 N   0  0  0  0  0  0  0  0  0  0  0  0
   43.2570   36.1230   40.2840 H   0  0  0  0  0  0  0  0  0  0  0  0
   41.7410   31.5250   40.9860 H   0  0  0  0  0  0  0  0  0  0  0  0
   40.5780   35.7680   39.7940 C   0  0  0  0  0  0  0  0  0  0  0  0
   39.3810   35.0950   39.5030 F   0  0  0  0  0  0  0  0  0  0  0  0
   41.0170   36.2610   38.5700 F   0  0  0  0  0  0  0  0  0  0  0  0
   40.3560   36.7430   40.7310 F   0  0  0  0  0  0  0  0  0  0  0  0
   46.2320   32.2590   38.3320 C   0  0  0  0  0  0  0  0  0  0  0  0
   47.1760   31.5140   38.6350 O   0  0  0  0  0  0  0  0  0  0  0  0
   45.7860   33.3650   39.0780 N   0  0  0  0  0  0  0  0  0  0  0  0
   44.9120   33.8690   38.7280 H   0  0  0  0  0  0  0  0  0  0  0  0
   44.0270   30.0930   38.7300 Br  0  0  0  0  0  0  0  0  0  0  0  0
   44.5500   30.9450   37.1300 C   0  0  0  0  0  0  0  0  0  0  0  0
   45.5620   31.9090   37.0830 C   0  0  0  0  0  0  0  0  0  0  0  0
   45.9700   32.5530   35.9250 C   0  0  0  0  0  0  0  0  0  0  0  0
   46.7540   33.2880   35.9520 H   0  0  0  0  0  0  0  0  0  0  0  0
   45.3180   32.2040   34.7410 C   0  0  0  0  0  0  0  0  0  0  0  0
   45.6700   32.7340   33.8530 H   0  0  0  0  0  0  0  0  0  0  0  0
   44.3230   31.2700   34.7290 C   0  0  0  0  0  3  0  0  0  0  0  0
   43.9410   30.6440   35.9180 C   0  0  0  0  0  3  0  0  0  0  0  0
  1  2  1  0  0  0  0
  2  3  2  0  0  0  0
  2  7  1  0  0  0  0
  3  8  1  0  0  0  0
  4  9  1  0  0  0  0
  4  3  1  0  0  0  0
  5  4  2  0  0  0  0
  6  5  1  0  0  0  0
  6  1  2  0  0  0  0
 10  5  1  0  0  0  0
 11 16  2  0  0  0  0
 11 12  1  0  0  0  0
 12 13  2  0  0  0  0
 13 14  1  0  0  0  0
 13  1  1  0  0  0  0
 15 18  1  0  0  0  0
 15 14  2  0  0  0  0
 16 15  1  0  0  0  0
 17 12  1  0  0  0  0
 19 11  1  0  0  0  0
 19 22  1  0  0  0  0
 20 19  1  0  0  0  0
 21 19  1  0  0  0  0
 23 24  2  0  0  0  0
 23 25  1  0  0  0  0
 25  6  1  0  0  0  0
 26 25  1  0  0  0  0
 28 27  1  0  0  0  0
 29 28  1  0  0  0  0
 29 23  1  0  0  0  0
 30 31  1  0  0  0  0
 30 29  2  0  0  0  0
 32 30  1  0  0  0  0
 33 32  1  0  0  0  0
 34 32  2  0  0  0  0
 34 35  1  0  0  0  0
 35 28  2  0  0  0  0
M  END
>  <minimizedAffinity>
-6.06320095

>  <minimizedRMSD>
0.692306578

$$$$
