
 OpenBabel03252502273D

 35 37  0  0  0  0  0  0  0  0999 V2000
   44.7070   34.4340   41.5640 C   0  0  0  0  0  0  0  0  0  0  0  0
   44.9780   35.3440   42.5740 C   0  0  0  0  0  0  0  0  0  0  0  0
   46.3000   35.6460   42.8670 C   0  0  0  0  0  0  0  0  0  0  0  0
   47.3140   35.0430   42.1570 C   0  0  0  0  0  0  0  0  0  0  0  0
   47.0680   34.1400   41.1540 C   0  0  0  0  0  0  0  0  0  0  0  0
   45.7250   33.8560   40.8790 C   0  0  0  0  0  0  0  0  0  0  0  0
   44.1750   35.8160   43.1340 H   0  0  0  0  0  0  0  0  0  0  0  0
   46.5760   36.3450   43.6470 H   0  0  0  0  0  0  0  0  0  0  0  0
   48.3880   35.2130   42.3100 H   0  0  0  0  0  0  0  0  0  0  0  0
   47.7510   33.6050   40.5300 H   0  0  0  0  0  0  0  0  0  0  0  0
   41.0780   34.6760   40.5930 C   0  0  0  0  0  0  0  0  0  0  0  0
   42.4090   35.0650   40.7900 C   0  0  0  0  0  0  0  0  0  0  0  0
   43.3050   34.1670   41.3080 C   0  0  0  0  0  0  0  0  0  0  0  0
   42.8250   32.9230   41.6020 N   0  0  0  0  0  0  0  0  0  0  0  0
   41.5400   32.5500   41.4110 C   0  0  0  0  0  0  0  0  0  0  0  0
   40.6610   33.4370   40.9010 N   0  0  0  0  0  0  0  0  0  0  0  0
   42.7660   36.0440   40.5530 H   0  0  0  0  0  0  0  0  0  0  0  0
   41.2270   31.5350   41.6660 H   0  0  0  0  0  0  0  0  0  0  0  0
   40.1000   35.6390   40.0330 C   0  0  0  0  0  0  0  0  0  0  0  0
   38.8890   34.9540   39.8410 F   0  0  0  0  0  0  0  0  0  0  0  0
   40.5360   35.9590   38.7510 F   0  0  0  0  0  0  0  0  0  0  0  0
   39.9030   36.7320   40.8340 F   0  0  0  0  0  0  0  0  0  0  0  0
   45.1570   31.5590   39.7770 C   0  0  0  0  0  0  0  0  0  0  0  0
   45.2600   30.7510   40.7120 O   0  0  0  0  0  0  0  0  0  0  0  0
   45.3320   32.9520   39.8690 N   0  0  0  0  0  0  0  0  0  0  0  0
   45.1380   33.5270   38.9910 H   0  0  0  0  0  0  0  0  0  0  0  0
   43.5030   33.4730   37.9590 Br  0  0  0  0  0  0  0  0  0  0  0  0
   44.0810   31.7160   37.5830 C   0  0  0  0  0  0  0  0  0  0  0  0
   44.8240   30.9540   38.4900 C   0  0  0  0  0  0  0  0  0  0  0  0
   45.2610   29.6620   38.2450 C   0  0  0  0  0  0  0  0  0  0  0  0
   45.8320   29.1280   38.9820 H   0  0  0  0  0  0  0  0  0  0  0  0
   44.9310   29.1040   37.0110 C   0  0  0  0  0  0  0  0  0  0  0  0
   45.2950   28.0840   36.8570 H   0  0  0  0  0  0  0  0  0  0  0  0
   44.2070   29.8010   36.0860 C   0  0  0  0  0  3  0  0  0  0  0  0
   43.7840   31.1020   36.3720 C   0  0  0  0  0  3  0  0  0  0  0  0
  1  2  1  0  0  0  0
  2  3  2  0  0  0  0
  2  7  1  0  0  0  0
  3  8  1  0  0  0  0
  4  9  1  0  0  0  0
  4  3  1  0  0  0  0
  5  4  2  0  0  0  0
  6  5  1  0  0  0  0
  6  1  2  0  0  0  0
 10  5  1  0  0  0  0
 11 12  2  0  0  0  0
 11 16  1  0  0  0  0
 12 13  1  0  0  0  0
 13  1  1  0  0  0  0
 13 14  2  0  0  0  0
 15 14  1  0  0  0  0
 15 18  1  0  0  0  0
 16 15  2  0  0  0  0
 17 12  1  0  0  0  0
 19 11  1  0  0  0  0
 19 22  1  0  0  0  0
 20 19  1  0  0  0  0
 21 19  1  0  0  0  0
 23 25  1  0  0  0  0
 23 24  2  0  0  0  0
 25  6  1  0  0  0  0
 26 25  1  0  0  0  0
 28 27  1  0  0  0  0
 28 29  1  0  0  0  0
 29 23  1  0  0  0  0
 30 29  2  0  0  0  0
 30 31  1  0  0  0  0
 32 30  1  0  0  0  0
 33 32  1  0  0  0  0
 34 35  1  0  0  0  0
 34 32  2  0  0  0  0
 35 28  2  0  0  0  0
M  END
>  <minimizedAffinity>
-5.26560354

>  <minimizedRMSD>
1.17273533

$$$$
