
 OpenBabel03252509233D

 21 22  0  0  1  0  0  0  0  0999 V2000
   44.6330   35.4190   45.1520 C   0  0  0  0  0  0  0  0  0  0  0  0
   45.1120   35.7140   43.8370 C   0  0  0  0  0  0  0  0  0  0  0  0
   46.0670   34.8500   43.3730 C   0  0  0  0  0  0  0  0  0  0  0  0
   46.5320   33.7760   44.1280 N   0  0  0  0  0  0  0  0  0  0  0  0
   46.0410   33.5610   45.3510 C   0  0  0  0  0  0  0  0  0  0  0  0
   45.0890   34.3820   45.8680 N   0  0  0  0  0  0  0  0  0  0  0  0
   43.8750   36.0760   45.5610 H   0  0  0  0  0  0  0  0  0  0  0  0
   46.4930   32.6960   45.8170 H   0  0  0  0  0  0  0  0  0  0  0  0
   46.5610   35.0320   41.9560 C   0  0  1  0  0  0  0  0  0  0  0  0
   48.0870   35.3160   41.9550 C   0  0  0  0  0  0  0  0  0  0  0  0
   47.3960   34.0430   41.3820 C   0  0  2  0  0  0  0  0  0  0  0  0
   45.9950   35.7720   41.3620 H   0  0  0  0  0  0  0  0  0  0  0  0
   48.4740   36.0100   41.1950 H   0  0  0  0  0  0  0  0  0  0  0  0
   48.6550   35.2130   42.8740 H   0  0  0  0  0  0  0  0  0  0  0  0
   47.7460   33.1200   41.8890 H   0  0  0  0  0  0  0  0  0  0  0  0
   47.4020   33.9270   39.8640 C   0  0  0  0  0  2  0  0  0  0  0  0
   46.1530   33.2450   39.3930 C   0  0  0  0  0  2  0  0  0  0  0  0
   46.3930   32.2080   39.1030 H   0  0  0  0  0  0  0  0  0  0  0  0
   44.6610   36.8350   43.0840 N   0  0  0  0  0  0  0  0  0  0  0  0
   44.5830   37.7690   43.5810 H   0  0  0  0  0  0  0  0  0  0  0  0
   44.4060   36.8170   42.0980 H   0  0  0  0  0  0  0  0  0  0  0  0
  1  7  1  0  0  0  0
  1  6  1  0  0  0  0
  2  1  2  0  0  0  0
  3  2  1  0  0  0  0
  3  4  2  0  0  0  0
  4  5  1  0  0  0  0
  5  8  1  0  0  0  0
  5  6  2  0  0  0  0
  9 12  1  6  0  0  0
  9  3  1  0  0  0  0
 10  9  1  0  0  0  0
 10 14  1  0  0  0  0
 11 15  1  1  0  0  0
 11 10  1  0  0  0  0
 11  9  1  0  0  0  0
 13 10  1  0  0  0  0
 16 11  1  0  0  0  0
 17 16  1  0  0  0  0
 18 17  1  0  0  0  0
 19 20  1  0  0  0  0
 19  2  1  0  0  0  0
 21 19  1  0  0  0  0
M  END
>  <minimizedAffinity>
-4.25993443

>  <minimizedRMSD>
0.08771424

$$$$
