
 OpenBabel03252508363D

 25 26  0  0  0  0  0  0  0  0999 V2000
   37.6340   28.2560   40.9420 C   0  0  0  0  0  0  0  0  0  0  0  0
   37.8960   29.3680   41.7080 C   0  0  0  0  0  0  0  0  0  0  0  0
   37.7360   29.2550   43.0520 C   0  0  0  0  0  0  0  0  0  0  0  0
   37.3250   28.0940   43.6800 C   0  0  0  0  0  0  0  0  0  0  0  0
   37.0690   26.9920   42.8780 C   0  0  0  0  0  0  0  0  0  0  0  0
   37.2190   27.0620   41.5210 C   0  0  0  0  0  0  0  0  0  0  0  0
   37.9450   30.1350   43.6690 H   0  0  0  0  0  0  0  0  0  0  0  0
   37.2160   28.0710   44.7580 H   0  0  0  0  0  0  0  0  0  0  0  0
   36.7460   26.0680   43.3510 H   0  0  0  0  0  0  0  0  0  0  0  0
   37.8730   32.7480   40.0200 C   0  0  0  0  0  0  0  0  0  0  0  0
   37.4340   31.6010   40.6980 C   0  0  0  0  0  0  0  0  0  0  0  0
   38.3260   30.5740   41.0040 C   0  0  0  0  0  0  0  0  0  0  0  0
   39.6020   30.7640   40.6100 N   0  0  0  0  0  0  0  0  0  0  0  0
   40.0130   31.8580   39.9650 C   0  0  0  0  0  0  0  0  0  0  0  0
   39.1390   32.8490   39.6720 N   0  0  0  0  0  0  0  0  0  0  0  0
   36.9310   33.7580   39.7320 N   0  0  0  0  0  0  0  0  0  0  0  0
   36.3850   31.4860   41.0000 H   0  0  0  0  0  0  0  0  0  0  0  0
   41.0540   32.0140   39.6400 H   0  0  0  0  0  0  0  0  0  0  0  0
   35.9960   33.8370   40.1910 H   0  0  0  0  0  0  0  0  0  0  0  0
   37.1870   34.4820   39.0090 H   0  0  0  0  0  0  0  0  0  0  0  0
   37.9040   28.3210   38.3400 N   0  0  0  0  0  0  0  0  0  0  0  0
   37.7790   28.2880   39.5020 C   0  0  0  0  0  0  0  0  0  0  0  0
   36.9480   25.8860   40.6400 C   0  0  0  0  0  2  0  0  0  0  0  0
   36.9530   24.5890   41.3850 C   0  0  0  0  0  2  0  0  0  0  0  0
   36.0000   24.0160   41.2330 H   0  0  0  0  0  0  0  0  0  0  0  0
  1  6  2  0  0  0  0
  1  2  1  0  0  0  0
  2  3  2  0  0  0  0
  3  7  1  0  0  0  0
  3  4  1  0  0  0  0
  4  8  1  0  0  0  0
  5  9  1  0  0  0  0
  5  4  2  0  0  0  0
  6  5  1  0  0  0  0
 10 11  1  0  0  0  0
 11 17  1  0  0  0  0
 11 12  2  0  0  0  0
 12  2  1  0  0  0  0
 13 12  1  0  0  0  0
 14 13  2  0  0  0  0
 15 14  1  0  0  0  0
 15 10  2  0  0  0  0
 16 10  1  0  0  0  0
 16 19  1  0  0  0  0
 18 14  1  0  0  0  0
 20 16  1  0  0  0  0
 21 22  3  0  0  0  0
 22  1  1  0  0  0  0
 23 24  1  0  0  0  0
 23  6  1  0  0  0  0
 25 24  1  0  0  0  0
M  END
>  <minimizedAffinity>
-5.0849824

$$$$

 OpenBabel03252508363D

 25 26  0  0  0  0  0  0  0  0999 V2000
   38.7690   28.6750   41.9580 C   0  0  0  0  0  0  0  0  0  0  0  0
   37.5020   28.9710   41.5090 C   0  0  0  0  0  0  0  0  0  0  0  0
   36.4600   28.3410   42.1120 C   0  0  0  0  0  0  0  0  0  0  0  0
   36.6080   27.4290   43.1400 C   0  0  0  0  0  0  0  0  0  0  0  0
   37.8980   27.1540   43.5680 C   0  0  0  0  0  0  0  0  0  0  0  0
   38.9740   27.7660   42.9890 C   0  0  0  0  0  0  0  0  0  0  0  0
   35.4490   28.5730   41.7610 H   0  0  0  0  0  0  0  0  0  0  0  0
   35.7340   26.9610   43.5770 H   0  0  0  0  0  0  0  0  0  0  0  0
   38.0360   26.4400   44.3760 H   0  0  0  0  0  0  0  0  0  0  0  0
   37.1210   32.2110   39.6020 C   0  0  0  0  0  0  0  0  0  0  0  0
   37.2250   31.3020   40.6660 C   0  0  0  0  0  0  0  0  0  0  0  0
   37.3930   29.9390   40.4210 C   0  0  0  0  0  0  0  0  0  0  0  0
   37.4460   29.5760   39.1230 N   0  0  0  0  0  0  0  0  0  0  0  0
   37.3470   30.4460   38.1150 C   0  0  0  0  0  0  0  0  0  0  0  0
   37.1830   31.7660   38.3640 N   0  0  0  0  0  0  0  0  0  0  0  0
   36.9500   33.5780   39.9020 N   0  0  0  0  0  0  0  0  0  0  0  0
   37.1750   31.6400   41.7090 H   0  0  0  0  0  0  0  0  0  0  0  0
   37.3870   30.1510   37.0550 H   0  0  0  0  0  0  0  0  0  0  0  0
   37.1380   34.0020   40.8390 H   0  0  0  0  0  0  0  0  0  0  0  0
   36.6120   34.2160   39.1330 H   0  0  0  0  0  0  0  0  0  0  0  0
   40.8830   29.7950   40.8990 N   0  0  0  0  0  0  0  0  0  0  0  0
   39.9360   29.3000   41.3730 C   0  0  0  0  0  0  0  0  0  0  0  0
   40.3710   27.4840   43.4370 C   0  0  0  0  0  2  0  0  0  0  0  0
   40.6210   26.0280   43.6800 C   0  0  0  0  0  2  0  0  0  0  0  0
   41.4960   25.6500   43.0880 H   0  0  0  0  0  0  0  0  0  0  0  0
  1  6  1  0  0  0  0
  2  1  2  0  0  0  0
  2  3  1  0  0  0  0
  3  4  2  0  0  0  0
  4  5  1  0  0  0  0
  4  8  1  0  0  0  0
  5  9  1  0  0  0  0
  6 23  1  0  0  0  0
  6  5  2  0  0  0  0
  7  3  1  0  0  0  0
 10 16  1  0  0  0  0
 10 11  1  0  0  0  0
 11 17  1  0  0  0  0
 12 11  2  0  0  0  0
 12  2  1  0  0  0  0
 13 12  1  0  0  0  0
 14 15  1  0  0  0  0
 14 13  2  0  0  0  0
 15 10  2  0  0  0  0
 16 19  1  0  0  0  0
 18 14  1  0  0  0  0
 20 16  1  0  0  0  0
 21 22  3  0  0  0  0
 22  1  1  0  0  0  0
 23 24  1  0  0  0  0
 25 24  1  0  0  0  0
M  END
>  <minimizedAffinity>
-5.03730011

$$$$

 OpenBabel03252508363D

 25 26  0  0  0  0  0  0  0  0999 V2000
   38.5360   29.5170   41.9900 C   0  0  0  0  0  0  0  0  0  0  0  0
   39.7390   30.0660   41.6090 C   0  0  0  0  0  0  0  0  0  0  0  0
   40.8720   29.4610   42.0500 C   0  0  0  0  0  0  0  0  0  0  0  0
   40.8760   28.3370   42.8550 C   0  0  0  0  0  0  0  0  0  0  0  0
   39.6470   27.8100   43.2210 C   0  0  0  0  0  0  0  0  0  0  0  0
   38.4830   28.3880   42.7990 C   0  0  0  0  0  0  0  0  0  0  0  0
   41.8330   29.8900   41.7490 H   0  0  0  0  0  0  0  0  0  0  0  0
   41.8170   27.9030   43.1740 H   0  0  0  0  0  0  0  0  0  0  0  0
   39.6280   26.9260   43.8540 H   0  0  0  0  0  0  0  0  0  0  0  0
   39.7700   32.3260   38.5810 C   0  0  0  0  0  0  0  0  0  0  0  0
   39.8210   31.1700   39.3730 C   0  0  0  0  0  0  0  0  0  0  0  0
   39.6880   31.2540   40.7590 C   0  0  0  0  0  0  0  0  0  0  0  0
   39.5110   32.4930   41.2610 N   0  0  0  0  0  0  0  0  0  0  0  0
   39.4630   33.5900   40.5010 C   0  0  0  0  0  0  0  0  0  0  0  0
   39.5950   33.4980   39.1580 N   0  0  0  0  0  0  0  0  0  0  0  0
   39.9120   32.1890   37.1850 N   0  0  0  0  0  0  0  0  0  0  0  0
   39.9680   30.1790   38.9250 H   0  0  0  0  0  0  0  0  0  0  0  0
   39.3220   34.6030   40.9090 H   0  0  0  0  0  0  0  0  0  0  0  0
   39.8070   31.2860   36.6700 H   0  0  0  0  0  0  0  0  0  0  0  0
   40.1360   33.0530   36.6220 H   0  0  0  0  0  0  0  0  0  0  0  0
   36.2700   30.5700   41.2120 N   0  0  0  0  0  0  0  0  0  0  0  0
   37.2800   30.0980   41.5650 C   0  0  0  0  0  0  0  0  0  0  0  0
   37.1490   27.8350   43.1820 C   0  0  0  0  0  2  0  0  0  0  0  0
   36.8720   26.5020   42.5610 C   0  0  0  0  0  2  0  0  0  0  0  0
   36.6160   25.7270   43.3320 H   0  0  0  0  0  0  0  0  0  0  0  0
  1  6  1  0  0  0  0
  2  1  2  0  0  0  0
  2  3  1  0  0  0  0
  3  4  2  0  0  0  0
  4  8  1  0  0  0  0
  4  5  1  0  0  0  0
  5  9  1  0  0  0  0
  6 23  1  0  0  0  0
  6  5  2  0  0  0  0
  7  3  1  0  0  0  0
 10 15  2  0  0  0  0
 10 11  1  0  0  0  0
 11 12  2  0  0  0  0
 12 13  1  0  0  0  0
 12  2  1  0  0  0  0
 14 18  1  0  0  0  0
 14 13  2  0  0  0  0
 15 14  1  0  0  0  0
 16 10  1  0  0  0  0
 17 11  1  0  0  0  0
 19 16  1  0  0  0  0
 20 16  1  0  0  0  0
 21 22  3  0  0  0  0
 22  1  1  0  0  0  0
 24 23  1  0  0  0  0
 24 25  1  0  0  0  0
M  END
>  <minimizedAffinity>
-4.8053813

$$$$

 OpenBabel03252508363D

 25 26  0  0  0  0  0  0  0  0999 V2000
   37.8490   29.6500   41.1900 C   0  0  0  0  0  0  0  0  0  0  0  0
   37.4550   30.6320   40.3100 C   0  0  0  0  0  0  0  0  0  0  0  0
   36.1990   30.5480   39.7980 C   0  0  0  0  0  0  0  0  0  0  0  0
   35.3100   29.5370   40.1140 C   0  0  0  0  0  0  0  0  0  0  0  0
   35.7400   28.5650   41.0030 C   0  0  0  0  0  0  0  0  0  0  0  0
   36.9950   28.6120   41.5410 C   0  0  0  0  0  0  0  0  0  0  0  0
   35.8770   31.3270   39.0990 H   0  0  0  0  0  0  0  0  0  0  0  0
   34.3220   29.5290   39.6690 H   0  0  0  0  0  0  0  0  0  0  0  0
   35.0560   27.7610   41.2660 H   0  0  0  0  0  0  0  0  0  0  0  0
   40.0460   32.7250   38.5240 C   0  0  0  0  0  0  0  0  0  0  0  0
   39.1170   31.7070   38.7920 C   0  0  0  0  0  0  0  0  0  0  0  0
   38.4270   31.6800   40.0040 C   0  0  0  0  0  0  0  0  0  0  0  0
   38.7120   32.6740   40.8690 N   0  0  0  0  0  0  0  0  0  0  0  0
   39.5970   33.6400   40.6070 C   0  0  0  0  0  0  0  0  0  0  0  0
   40.2620   33.6570   39.4290 N   0  0  0  0  0  0  0  0  0  0  0  0
   40.7200   32.7080   37.2860 N   0  0  0  0  0  0  0  0  0  0  0  0
   38.9150   30.9150   38.0610 H   0  0  0  0  0  0  0  0  0  0  0  0
   39.8330   34.4510   41.3130 H   0  0  0  0  0  0  0  0  0  0  0  0
   40.4120   32.1490   36.4570 H   0  0  0  0  0  0  0  0  0  0  0  0
   41.5890   33.2970   37.1860 H   0  0  0  0  0  0  0  0  0  0  0  0
   40.2410   29.6690   42.2500 N   0  0  0  0  0  0  0  0  0  0  0  0
   39.1700   29.6620   41.7820 C   0  0  0  0  0  0  0  0  0  0  0  0
   37.4760   27.5740   42.5020 C   0  0  0  0  0  2  0  0  0  0  0  0
   36.5680   27.4060   43.6800 C   0  0  0  0  0  2  0  0  0  0  0  0
   36.2370   26.3410   43.8040 H   0  0  0  0  0  0  0  0  0  0  0  0
  1  6  1  0  0  0  0
  1 22  1  0  0  0  0
  2  1  2  0  0  0  0
  3  4  2  0  0  0  0
  3  2  1  0  0  0  0
  4  5  1  0  0  0  0
  5  9  1  0  0  0  0
  5  6  2  0  0  0  0
  6 23  1  0  0  0  0
  7  3  1  0  0  0  0
  8  4  1  0  0  0  0
 10 11  2  0  0  0  0
 10 15  1  0  0  0  0
 11 12  1  0  0  0  0
 12  2  1  0  0  0  0
 12 13  2  0  0  0  0
 14 13  1  0  0  0  0
 14 18  1  0  0  0  0
 15 14  2  0  0  0  0
 16 10  1  0  0  0  0
 17 11  1  0  0  0  0
 19 16  1  0  0  0  0
 20 16  1  0  0  0  0
 22 21  3  0  0  0  0
 23 24  1  0  0  0  0
 24 25  1  0  0  0  0
M  END
>  <minimizedAffinity>
-4.80383635

$$$$

 OpenBabel03252508363D

 25 26  0  0  0  0  0  0  0  0999 V2000
   36.6190   25.9240   39.8220 C   0  0  0  0  0  0  0  0  0  0  0  0
   37.1020   26.4900   40.9790 C   0  0  0  0  0  0  0  0  0  0  0  0
   37.2700   25.6750   42.0530 C   0  0  0  0  0  0  0  0  0  0  0  0
   36.9800   24.3230   42.0410 C   0  0  0  0  0  0  0  0  0  0  0  0
   36.4950   23.7860   40.8600 C   0  0  0  0  0  0  0  0  0  0  0  0
   36.3120   24.5700   39.7550 C   0  0  0  0  0  0  0  0  0  0  0  0
   37.6560   26.1180   42.9770 H   0  0  0  0  0  0  0  0  0  0  0  0
   37.1360   23.7300   42.9350 H   0  0  0  0  0  0  0  0  0  0  0  0
   36.2620   22.7240   40.8280 H   0  0  0  0  0  0  0  0  0  0  0  0
   36.7060   30.2450   41.1240 C   0  0  0  0  0  0  0  0  0  0  0  0
   36.3990   28.8760   41.1610 C   0  0  0  0  0  0  0  0  0  0  0  0
   37.3930   27.9220   40.9480 C   0  0  0  0  0  0  0  0  0  0  0  0
   38.6310   28.4020   40.7110 N   0  0  0  0  0  0  0  0  0  0  0  0
   38.9160   29.7060   40.6770 C   0  0  0  0  0  0  0  0  0  0  0  0
   37.9440   30.6240   40.8850 N   0  0  0  0  0  0  0  0  0  0  0  0
   35.6650   31.1710   41.3450 N   0  0  0  0  0  0  0  0  0  0  0  0
   35.3770   28.5280   41.3560 H   0  0  0  0  0  0  0  0  0  0  0  0
   39.9260   30.0990   40.4810 H   0  0  0  0  0  0  0  0  0  0  0  0
   34.7430   30.9280   41.7720 H   0  0  0  0  0  0  0  0  0  0  0  0
   35.8270   32.1740   41.0620 H   0  0  0  0  0  0  0  0  0  0  0  0
   36.2320   27.3550   37.6660 N   0  0  0  0  0  0  0  0  0  0  0  0
   36.4100   26.7190   38.6300 C   0  0  0  0  0  0  0  0  0  0  0  0
   35.7910   24.0090   38.4720 C   0  0  0  0  0  2  0  0  0  0  0  0
   34.5240   23.2320   38.6500 C   0  0  0  0  0  2  0  0  0  0  0  0
   33.7030   23.6130   37.9870 H   0  0  0  0  0  0  0  0  0  0  0  0
  1  2  1  0  0  0  0
  2  3  2  0  0  0  0
  3  7  1  0  0  0  0
  4  3  1  0  0  0  0
  4  8  1  0  0  0  0
  5  4  2  0  0  0  0
  6  1  2  0  0  0  0
  6  5  1  0  0  0  0
  9  5  1  0  0  0  0
 10 11  1  0  0  0  0
 10 16  1  0  0  0  0
 11 17  1  0  0  0  0
 12  2  1  0  0  0  0
 12 11  2  0  0  0  0
 13 12  1  0  0  0  0
 14 13  2  0  0  0  0
 14 15  1  0  0  0  0
 15 10  2  0  0  0  0
 16 19  1  0  0  0  0
 18 14  1  0  0  0  0
 20 16  1  0  0  0  0
 21 22  3  0  0  0  0
 22  1  1  0  0  0  0
 23 24  1  0  0  0  0
 23  6  1  0  0  0  0
 25 24  1  0  0  0  0
M  END
>  <minimizedAffinity>
-4.75602961

$$$$

 OpenBabel03252508363D

 25 26  0  0  0  0  0  0  0  0999 V2000
   37.5320   28.1800   40.9160 C   0  0  0  0  0  0  0  0  0  0  0  0
   37.5540   28.8570   39.7190 C   0  0  0  0  0  0  0  0  0  0  0  0
   37.0890   28.2060   38.6210 C   0  0  0  0  0  0  0  0  0  0  0  0
   36.6020   26.9120   38.6480 C   0  0  0  0  0  0  0  0  0  0  0  0
   36.5930   26.2590   39.8710 C   0  0  0  0  0  0  0  0  0  0  0  0
   37.0520   26.8780   41.0000 C   0  0  0  0  0  0  0  0  0  0  0  0
   37.1010   28.7390   37.6650 H   0  0  0  0  0  0  0  0  0  0  0  0
   36.2460   26.4500   37.7350 H   0  0  0  0  0  0  0  0  0  0  0  0
   36.2130   25.2410   39.9140 H   0  0  0  0  0  0  0  0  0  0  0  0
   37.7640   32.6300   39.7550 C   0  0  0  0  0  0  0  0  0  0  0  0
   37.2340   31.3300   39.7400 C   0  0  0  0  0  0  0  0  0  0  0  0
   38.0790   30.2210   39.7370 C   0  0  0  0  0  0  0  0  0  0  0  0
   39.4010   30.4860   39.7500 N   0  0  0  0  0  0  0  0  0  0  0  0
   39.8990   31.7250   39.7650 C   0  0  0  0  0  0  0  0  0  0  0  0
   39.0700   32.7950   39.7670 N   0  0  0  0  0  0  0  0  0  0  0  0
   36.8680   33.7190   39.7560 N   0  0  0  0  0  0  0  0  0  0  0  0
   36.1500   31.1590   39.7280 H   0  0  0  0  0  0  0  0  0  0  0  0
   40.9780   31.9430   39.7730 H   0  0  0  0  0  0  0  0  0  0  0  0
   35.8520   33.6440   39.9910 H   0  0  0  0  0  0  0  0  0  0  0  0
   37.2450   34.6710   39.5040 H   0  0  0  0  0  0  0  0  0  0  0  0
   38.3940   29.3070   43.1150 N   0  0  0  0  0  0  0  0  0  0  0  0
   38.0080   28.7980   42.1350 C   0  0  0  0  0  0  0  0  0  0  0  0
   37.0510   26.1910   42.3260 C   0  0  0  0  0  2  0  0  0  0  0  0
   36.8970   24.7070   42.2120 C   0  0  0  0  0  2  0  0  0  0  0  0
   37.7280   24.1600   42.7330 H   0  0  0  0  0  0  0  0  0  0  0  0
  1  6  1  0  0  0  0
  1 22  1  0  0  0  0
  2 12  1  0  0  0  0
  2  1  2  0  0  0  0
  3  4  2  0  0  0  0
  3  2  1  0  0  0  0
  4  5  1  0  0  0  0
  5  9  1  0  0  0  0
  5  6  2  0  0  0  0
  6 23  1  0  0  0  0
  7  3  1  0  0  0  0
  8  4  1  0  0  0  0
 10 16  1  0  0  0  0
 10 15  1  0  0  0  0
 11 10  2  0  0  0  0
 12 11  1  0  0  0  0
 12 13  2  0  0  0  0
 13 14  1  0  0  0  0
 14 15  2  0  0  0  0
 14 18  1  0  0  0  0
 16 19  1  0  0  0  0
 17 11  1  0  0  0  0
 20 16  1  0  0  0  0
 22 21  3  0  0  0  0
 24 23  1  0  0  0  0
 24 25  1  0  0  0  0
M  END
>  <minimizedAffinity>
-4.69376755

$$$$

 OpenBabel03252508363D

 25 26  0  0  0  0  0  0  0  0999 V2000
   36.3400   28.4030   39.8100 C   0  0  0  0  0  0  0  0  0  0  0  0
   36.0580   29.5200   39.0580 C   0  0  0  0  0  0  0  0  0  0  0  0
   36.1900   30.7310   39.6590 C   0  0  0  0  0  0  0  0  0  0  0  0
   36.5870   30.8940   40.9730 C   0  0  0  0  0  0  0  0  0  0  0  0
   36.8630   29.7470   41.7030 C   0  0  0  0  0  0  0  0  0  0  0  0
   36.7440   28.5100   41.1360 C   0  0  0  0  0  0  0  0  0  0  0  0
   35.9700   31.6250   39.0660 H   0  0  0  0  0  0  0  0  0  0  0  0
   36.6720   31.8890   41.3930 H   0  0  0  0  0  0  0  0  0  0  0  0
   37.1790   29.8530   42.7380 H   0  0  0  0  0  0  0  0  0  0  0  0
   36.1350   29.0390   35.3110 C   0  0  0  0  0  0  0  0  0  0  0  0
   36.5630   29.2480   36.6300 C   0  0  0  0  0  0  0  0  0  0  0  0
   35.6400   29.3020   37.6750 C   0  0  0  0  0  0  0  0  0  0  0  0
   34.3460   29.1410   37.3280 N   0  0  0  0  0  0  0  0  0  0  0  0
   33.9460   28.9410   36.0700 C   0  0  0  0  0  0  0  0  0  0  0  0
   34.8490   28.8920   35.0640 N   0  0  0  0  0  0  0  0  0  0  0  0
   37.1070   28.9950   34.2900 N   0  0  0  0  0  0  0  0  0  0  0  0
   37.6260   29.3750   36.8700 H   0  0  0  0  0  0  0  0  0  0  0  0
   32.8900   28.8130   35.7840 H   0  0  0  0  0  0  0  0  0  0  0  0
   38.1300   28.8600   34.4580 H   0  0  0  0  0  0  0  0  0  0  0  0
   36.7830   29.1020   33.2920 H   0  0  0  0  0  0  0  0  0  0  0  0
   36.1230   25.9990   38.8000 N   0  0  0  0  0  0  0  0  0  0  0  0
   36.2250   27.0740   39.2480 C   0  0  0  0  0  0  0  0  0  0  0  0
   37.0370   27.2630   41.9050 C   0  0  0  0  0  2  0  0  0  0  0  0
   36.5490   27.3230   43.3180 C   0  0  0  0  0  2  0  0  0  0  0  0
   35.8740   26.4620   43.5640 H   0  0  0  0  0  0  0  0  0  0  0  0
  1  6  1  0  0  0  0
  2  3  1  0  0  0  0
  2  1  2  0  0  0  0
  3  4  2  0  0  0  0
  4  8  1  0  0  0  0
  4  5  1  0  0  0  0
  5  9  1  0  0  0  0
  6  5  2  0  0  0  0
  6 23  1  0  0  0  0
  7  3  1  0  0  0  0
 10 11  1  0  0  0  0
 11 17  1  0  0  0  0
 11 12  2  0  0  0  0
 12  2  1  0  0  0  0
 13 12  1  0  0  0  0
 14 13  2  0  0  0  0
 15 10  2  0  0  0  0
 15 14  1  0  0  0  0
 16 19  1  0  0  0  0
 16 10  1  0  0  0  0
 18 14  1  0  0  0  0
 20 16  1  0  0  0  0
 21 22  3  0  0  0  0
 22  1  1  0  0  0  0
 23 24  1  0  0  0  0
 24 25  1  0  0  0  0
M  END
>  <minimizedAffinity>
-4.67936945

$$$$

 OpenBabel03252508363D

 25 26  0  0  0  0  0  0  0  0999 V2000
   36.5100   30.4520   38.4830 C   0  0  0  0  0  0  0  0  0  0  0  0
   36.6430   30.8040   39.8060 C   0  0  0  0  0  0  0  0  0  0  0  0
   35.8820   30.1360   40.7120 C   0  0  0  0  0  0  0  0  0  0  0  0
   34.9920   29.1340   40.3740 C   0  0  0  0  0  0  0  0  0  0  0  0
   34.8830   28.8040   39.0310 C   0  0  0  0  0  0  0  0  0  0  0  0
   35.6300   29.4510   38.0870 C   0  0  0  0  0  0  0  0  0  0  0  0
   35.9840   30.4080   41.7670 H   0  0  0  0  0  0  0  0  0  0  0  0
   34.4130   28.6410   41.1460 H   0  0  0  0  0  0  0  0  0  0  0  0
   34.1880   28.0180   38.7430 H   0  0  0  0  0  0  0  0  0  0  0  0
   39.7160   32.6400   41.0160 C   0  0  0  0  0  0  0  0  0  0  0  0
   38.8210   31.5990   40.7250 C   0  0  0  0  0  0  0  0  0  0  0  0
   37.5940   31.8680   40.1190 C   0  0  0  0  0  0  0  0  0  0  0  0
   37.3440   33.1640   39.8410 N   0  0  0  0  0  0  0  0  0  0  0  0
   38.2010   34.1500   40.1200 C   0  0  0  0  0  0  0  0  0  0  0  0
   39.3880   33.8790   40.7100 N   0  0  0  0  0  0  0  0  0  0  0  0
   40.9420   32.3170   41.6320 N   0  0  0  0  0  0  0  0  0  0  0  0
   39.0630   30.5570   40.9690 H   0  0  0  0  0  0  0  0  0  0  0  0
   37.9970   35.2090   39.8970 H   0  0  0  0  0  0  0  0  0  0  0  0
   41.3460   31.3540   41.6680 H   0  0  0  0  0  0  0  0  0  0  0  0
   41.4900   33.0970   42.0840 H   0  0  0  0  0  0  0  0  0  0  0  0
   37.9140   31.6380   36.6200 N   0  0  0  0  0  0  0  0  0  0  0  0
   37.2820   31.1120   37.4510 C   0  0  0  0  0  0  0  0  0  0  0  0
   35.5270   29.1100   36.6370 C   0  0  0  0  0  2  0  0  0  0  0  0
   35.4130   27.6380   36.3920 C   0  0  0  0  0  2  0  0  0  0  0  0
   34.5060   27.3850   35.7820 H   0  0  0  0  0  0  0  0  0  0  0  0
  1  2  1  0  0  0  0
  2 12  1  0  0  0  0
  2  3  2  0  0  0  0
  3  7  1  0  0  0  0
  4  3  1  0  0  0  0
  4  8  1  0  0  0  0
  5  4  2  0  0  0  0
  6  1  2  0  0  0  0
  6  5  1  0  0  0  0
  9  5  1  0  0  0  0
 10 16  1  0  0  0  0
 11 17  1  0  0  0  0
 11 10  1  0  0  0  0
 12 11  2  0  0  0  0
 13 12  1  0  0  0  0
 13 14  2  0  0  0  0
 14 15  1  0  0  0  0
 15 10  2  0  0  0  0
 16 19  1  0  0  0  0
 16 20  1  0  0  0  0
 18 14  1  0  0  0  0
 21 22  3  0  0  0  0
 22  1  1  0  0  0  0
 23  6  1  0  0  0  0
 24 23  1  0  0  0  0
 25 24  1  0  0  0  0
M  END
>  <minimizedAffinity>
-4.63261414

$$$$

 OpenBabel03252508363D

 25 26  0  0  0  0  0  0  0  0999 V2000
   37.1930   27.2550   41.0580 C   0  0  0  0  0  0  0  0  0  0  0  0
   37.4090   28.6130   41.0720 C   0  0  0  0  0  0  0  0  0  0  0  0
   37.5350   29.2160   42.2830 C   0  0  0  0  0  0  0  0  0  0  0  0
   37.4560   28.5400   43.4860 C   0  0  0  0  0  0  0  0  0  0  0  0
   37.2380   27.1720   43.4360 C   0  0  0  0  0  0  0  0  0  0  0  0
   37.1060   26.5260   42.2390 C   0  0  0  0  0  0  0  0  0  0  0  0
   37.7090   30.2970   42.3020 H   0  0  0  0  0  0  0  0  0  0  0  0
   37.5640   29.0820   44.4190 H   0  0  0  0  0  0  0  0  0  0  0  0
   37.1730   26.6210   44.3720 H   0  0  0  0  0  0  0  0  0  0  0  0
   38.7500   30.1990   37.9150 C   0  0  0  0  0  0  0  0  0  0  0  0
   38.7060   29.5490   39.1580 C   0  0  0  0  0  0  0  0  0  0  0  0
   37.4840   29.2870   39.7780 C   0  0  0  0  0  0  0  0  0  0  0  0
   36.3850   29.6940   39.1110 N   0  0  0  0  0  0  0  0  0  0  0  0
   36.4330   30.3120   37.9280 C   0  0  0  0  0  0  0  0  0  0  0  0
   37.6240   30.5630   37.3360 N   0  0  0  0  0  0  0  0  0  0  0  0
   40.0090   30.4430   37.3300 N   0  0  0  0  0  0  0  0  0  0  0  0
   39.6250   29.2350   39.6680 H   0  0  0  0  0  0  0  0  0  0  0  0
   35.5370   30.6480   37.3840 H   0  0  0  0  0  0  0  0  0  0  0  0
   40.8940   29.9680   37.6210 H   0  0  0  0  0  0  0  0  0  0  0  0
   40.0640   31.1480   36.5480 H   0  0  0  0  0  0  0  0  0  0  0  0
   36.9230   25.9560   38.8030 N   0  0  0  0  0  0  0  0  0  0  0  0
   37.0480   26.5320   39.8120 C   0  0  0  0  0  0  0  0  0  0  0  0
   36.8710   25.0530   42.1640 C   0  0  0  0  0  2  0  0  0  0  0  0
   38.1270   24.2550   42.3250 C   0  0  0  0  0  2  0  0  0  0  0  0
   38.0410   23.5040   43.1540 H   0  0  0  0  0  0  0  0  0  0  0  0
  1  2  2  0  0  0  0
  1  6  1  0  0  0  0
  2  3  1  0  0  0  0
  3  7  1  0  0  0  0
  3  4  2  0  0  0  0
  4  8  1  0  0  0  0
  5  4  1  0  0  0  0
  5  9  1  0  0  0  0
  6  5  2  0  0  0  0
 10 11  1  0  0  0  0
 11 17  1  0  0  0  0
 11 12  2  0  0  0  0
 12  2  1  0  0  0  0
 13 12  1  0  0  0  0
 14 13  2  0  0  0  0
 15 10  2  0  0  0  0
 15 14  1  0  0  0  0
 16 19  1  0  0  0  0
 16 10  1  0  0  0  0
 18 14  1  0  0  0  0
 20 16  1  0  0  0  0
 21 22  3  0  0  0  0
 22  1  1  0  0  0  0
 23  6  1  0  0  0  0
 23 24  1  0  0  0  0
 24 25  1  0  0  0  0
M  END
>  <minimizedAffinity>
-4.55840683

$$$$
