
 OpenBabel03242518523D

 33 34  0  0  1  0  0  0  0  0999 V2000
   45.9320   31.2090   46.3030 C   0  0  2  0  0  0  0  0  0  0  0  0
   45.3810   30.6000   47.5160 C   0  0  0  0  0  0  0  0  0  0  0  0
   44.6910   29.3590   47.1050 C   0  0  0  0  0  0  0  0  0  0  0  0
   44.6850   29.0020   45.6810 C   0  0  0  0  0  0  0  0  0  0  0  0
   45.8820   29.2940   44.8520 C   0  0  0  0  0  0  0  0  0  0  0  0
   46.8220   30.2710   45.5750 C   0  0  2  0  0  0  0  0  0  0  0  0
   45.0220   31.3900   45.6250 H   0  0  0  0  0  0  0  0  0  0  0  0
   44.6300   31.3840   47.9160 H   0  0  0  0  0  0  0  0  0  0  0  0
   46.0950   30.5600   48.3310 H   0  0  0  0  0  0  0  0  0  0  0  0
   44.8490   28.4740   47.7970 H   0  0  0  0  0  0  0  0  0  0  0  0
   43.5890   29.5330   47.3780 H   0  0  0  0  0  0  0  0  0  0  0  0
   43.7010   29.3070   45.2000 H   0  0  0  0  0  0  0  0  0  0  0  0
   44.5800   27.8670   45.6490 H   0  0  0  0  0  0  0  0  0  0  0  0
   45.4340   29.6280   43.8970 H   0  0  0  0  0  0  0  0  0  0  0  0
   46.4620   28.3960   44.5240 H   0  0  0  0  0  0  0  0  0  0  0  0
   47.1110   30.6040   44.5260 H   0  0  0  0  0  0  0  0  0  0  0  0
   46.4670   32.5750   46.4880 C   0  0  0  0  0  0  0  0  0  0  0  0
   47.2610   32.9100   47.4170 O   0  0  0  0  0  0  0  0  0  0  0  0
   44.6650   35.3820   44.9960 C   0  0  0  0  0  0  0  0  0  0  0  0
   45.2180   35.4910   43.7000 C   0  0  0  0  0  0  0  0  0  0  0  0
   46.2190   34.5910   43.3750 C   0  0  0  0  0  0  0  0  0  0  0  0
   46.5470   33.7160   44.3390 N   0  0  0  0  0  0  0  0  0  0  0  0
   46.0490   33.5980   45.5350 C   0  0  0  0  0  0  0  0  0  0  0  0
   45.0680   34.4710   45.8720 N   0  0  0  0  0  0  0  0  0  0  0  0
   43.8750   36.0920   45.2570 H   0  0  0  0  0  0  0  0  0  0  0  0
   44.8730   36.2350   43.0170 H   0  0  0  0  0  0  0  0  0  0  0  0
   46.7620   34.6640   42.0190 C   0  0  0  0  0  0  0  0  0  0  0  0
   47.4960   33.5250   41.7340 F   0  0  0  0  0  0  0  0  0  0  0  0
   47.6220   35.7260   42.0220 F   0  0  0  0  0  0  0  0  0  0  0  0
   45.7840   34.7710   41.0550 F   0  0  0  0  0  0  0  0  0  0  0  0
   47.8620   29.4970   46.2460 C   0  0  0  0  0  0  0  0  0  0  0  0
   49.1820   29.1680   45.7080 C   0  0  0  0  0  0  0  0  0  0  0  0
   49.2640   28.3210   45.0090 H   0  0  0  0  0  0  0  0  0  0  0  0
  1  7  1  6  0  0  0
  1 17  1  0  0  0  0
  1  2  1  0  0  0  0
  2  8  1  0  0  0  0
  2  9  1  0  0  0  0
  3 11  1  0  0  0  0
  3  2  1  0  0  0  0
  3 10  1  0  0  0  0
  4  3  1  0  0  0  0
  5  6  1  0  0  0  0
  5  4  1  0  0  0  0
  6 16  1  6  0  0  0
  6 31  1  0  0  0  0
  6  1  1  0  0  0  0
 12  4  1  0  0  0  0
 13  4  1  0  0  0  0
 14  5  1  0  0  0  0
 15  5  1  0  0  0  0
 17 18  2  0  0  0  0
 19 25  1  0  0  0  0
 19 24  1  0  0  0  0
 20 19  2  0  0  0  0
 21 20  1  0  0  0  0
 21 22  2  0  0  0  0
 22 23  1  0  0  0  0
 23 24  2  0  0  0  0
 23 17  1  0  0  0  0
 26 20  1  0  0  0  0
 27 29  1  0  0  0  0
 27 21  1  0  0  0  0
 28 27  1  0  0  0  0
 30 27  1  0  0  0  0
 32 31  1  0  0  0  0
 33 32  1  0  0  0  0
M  END
>  <minimizedAffinity>
-5.06469297

>  <minimizedRMSD>
1.91498005

$$$$
