
 OpenBabel03242515273D

 25 26  0  0  0  0  0  0  0  0999 V2000
   37.3390   32.4320   39.8440 C   0  0  0  0  0  0  0  0  0  0  0  0
   36.4910   32.6000   39.1870 H   0  0  0  0  0  0  0  0  0  0  0  0
   37.2960   33.2180   40.6260 H   0  0  0  0  0  0  0  0  0  0  0  0
   38.5950   32.5150   39.1020 N   0  0  0  0  0  0  0  0  0  0  0  0
   39.6790   33.0400   39.6860 C   0  0  0  0  0  0  0  0  0  0  0  0
   40.8430   33.0910   38.9240 C   0  0  0  0  0  0  0  0  0  0  0  0
   40.8840   32.6290   37.6400 C   0  0  0  0  0  0  0  0  0  0  0  0
   41.9480   32.6880   36.9770 O   0  0  0  0  0  0  0  0  0  0  0  0
   39.7550   32.1060   37.0950 N   0  0  0  0  0  0  0  0  0  0  0  0
   38.6140   32.0510   37.8290 C   0  0  0  0  0  0  0  0  0  0  0  0
   37.6040   31.5510   37.2540 O   0  0  0  0  0  0  0  0  0  0  0  0
   39.6250   33.4010   40.7030 H   0  0  0  0  0  0  0  0  0  0  0  0
   41.7090   33.5240   39.4260 H   0  0  0  0  0  0  0  0  0  0  0  0
   39.7610   31.7440   36.1090 H   0  0  0  0  0  0  0  0  0  0  0  0
   36.1250   30.3520   40.2480 C   0  0  0  0  0  0  0  0  0  0  0  0
   37.2670   31.1330   40.4940 C   0  0  0  0  0  0  0  0  0  0  0  0
   38.2070   30.5740   41.3370 C   0  0  0  0  0  0  0  0  0  0  0  0
   38.0010   29.3580   41.8660 N   0  0  0  0  0  0  0  0  0  0  0  0
   36.8770   28.6440   41.5950 C   0  0  0  0  0  0  0  0  0  0  0  0
   35.9080   29.1280   40.7750 N   0  0  0  0  0  0  0  0  0  0  0  0
   35.3350   30.7350   39.5870 H   0  0  0  0  0  0  0  0  0  0  0  0
   39.0860   31.1830   41.5220 H   0  0  0  0  0  0  0  0  0  0  0  0
   36.6390   27.2990   42.1730 C   0  0  0  0  0  2  0  0  0  0  0  0
   36.5110   27.4220   43.6660 C   0  0  0  0  0  2  0  0  0  0  0  0
   37.3400   28.0830   44.0310 H   0  0  0  0  0  0  0  0  0  0  0  0
  1 16  1  0  0  0  0
  1  3  1  0  0  0  0
  2  1  1  0  0  0  0
  4  5  1  0  0  0  0
  4  1  1  0  0  0  0
  5 12  1  0  0  0  0
  6 13  1  0  0  0  0
  6  5  2  0  0  0  0
  7  6  1  0  0  0  0
  8  7  2  0  0  0  0
  9  7  1  0  0  0  0
  9 10  1  0  0  0  0
 10  4  1  0  0  0  0
 11 10  2  0  0  0  0
 14  9  1  0  0  0  0
 15 16  2  0  0  0  0
 15 20  1  0  0  0  0
 16 17  1  0  0  0  0
 17 22  1  0  0  0  0
 17 18  2  0  0  0  0
 19 18  1  0  0  0  0
 19 23  1  0  0  0  0
 20 19  2  0  0  0  0
 21 15  1  0  0  0  0
 23 24  1  0  0  0  0
 24 25  1  0  0  0  0
M  END
>  <minimizedAffinity>
-4.89644432

$$$$

 OpenBabel03242515273D

 25 26  0  0  0  0  0  0  0  0999 V2000
   37.8350   28.7510   43.4800 C   0  0  0  0  0  0  0  0  0  0  0  0
   38.5960   29.0240   44.2030 H   0  0  0  0  0  0  0  0  0  0  0  0
   36.8610   28.8040   44.0080 H   0  0  0  0  0  0  0  0  0  0  0  0
   38.0660   27.4010   42.9670 N   0  0  0  0  0  0  0  0  0  0  0  0
   37.0460   26.6990   42.4600 C   0  0  0  0  0  0  0  0  0  0  0  0
   37.3340   25.4210   41.9890 C   0  0  0  0  0  0  0  0  0  0  0  0
   38.5970   24.9030   42.0390 C   0  0  0  0  0  0  0  0  0  0  0  0
   38.8260   23.7470   41.6070 O   0  0  0  0  0  0  0  0  0  0  0  0
   39.5950   25.6580   42.5650 N   0  0  0  0  0  0  0  0  0  0  0  0
   39.3260   26.9060   43.0260 C   0  0  0  0  0  0  0  0  0  0  0  0
   40.3070   27.5490   43.5010 O   0  0  0  0  0  0  0  0  0  0  0  0
   36.0550   27.1280   42.4300 H   0  0  0  0  0  0  0  0  0  0  0  0
   36.4840   24.8730   41.5820 H   0  0  0  0  0  0  0  0  0  0  0  0
   40.5740   25.2820   42.6140 H   0  0  0  0  0  0  0  0  0  0  0  0
   36.5500   29.9300   41.7710 C   0  0  0  0  0  0  0  0  0  0  0  0
   37.8000   29.6760   42.3590 C   0  0  0  0  0  0  0  0  0  0  0  0
   38.8740   30.3430   41.8010 C   0  0  0  0  0  0  0  0  0  0  0  0
   38.6870   31.1710   40.7620 N   0  0  0  0  0  0  0  0  0  0  0  0
   37.4540   31.3810   40.2300 C   0  0  0  0  0  0  0  0  0  0  0  0
   36.3510   30.7610   40.7270 N   0  0  0  0  0  0  0  0  0  0  0  0
   35.6520   29.4330   42.1650 H   0  0  0  0  0  0  0  0  0  0  0  0
   39.8360   30.1420   42.2600 H   0  0  0  0  0  0  0  0  0  0  0  0
   37.2350   32.2950   39.0830 C   0  0  0  0  0  2  0  0  0  0  0  0
   37.3800   33.7150   39.5530 C   0  0  0  0  0  2  0  0  0  0  0  0
   36.8070   33.8230   40.5110 H   0  0  0  0  0  0  0  0  0  0  0  0
  1  3  1  0  0  0  0
  1  2  1  0  0  0  0
  4 10  1  0  0  0  0
  4  1  1  0  0  0  0
  5  4  1  0  0  0  0
  6  7  1  0  0  0  0
  6  5  2  0  0  0  0
  7  9  1  0  0  0  0
  8  7  2  0  0  0  0
  9 14  1  0  0  0  0
  9 10  1  0  0  0  0
 10 11  2  0  0  0  0
 12  5  1  0  0  0  0
 13  6  1  0  0  0  0
 15 21  1  0  0  0  0
 15 16  1  0  0  0  0
 16  1  1  0  0  0  0
 17 22  1  0  0  0  0
 17 16  2  0  0  0  0
 18 17  1  0  0  0  0
 19 20  1  0  0  0  0
 19 18  2  0  0  0  0
 20 15  2  0  0  0  0
 23 24  1  0  0  0  0
 23 19  1  0  0  0  0
 24 25  1  0  0  0  0
M  END
>  <minimizedAffinity>
-4.66179657

$$$$

 OpenBabel03242515273D

 25 26  0  0  0  0  0  0  0  0999 V2000
   36.4890   27.8330   42.2960 C   0  0  0  0  0  0  0  0  0  0  0  0
   36.0510   28.2690   43.1880 H   0  0  0  0  0  0  0  0  0  0  0  0
   35.7510   27.1040   41.9030 H   0  0  0  0  0  0  0  0  0  0  0  0
   37.7520   27.1670   42.6090 N   0  0  0  0  0  0  0  0  0  0  0  0
   38.7100   27.8330   43.2630 C   0  0  0  0  0  0  0  0  0  0  0  0
   39.8880   27.1410   43.5300 C   0  0  0  0  0  0  0  0  0  0  0  0
   40.0640   25.8430   43.1450 C   0  0  0  0  0  0  0  0  0  0  0  0
   41.1370   25.2440   43.4000 O   0  0  0  0  0  0  0  0  0  0  0  0
   39.0580   25.2140   42.4830 N   0  0  0  0  0  0  0  0  0  0  0  0
   37.9050   25.8790   42.2180 C   0  0  0  0  0  0  0  0  0  0  0  0
   37.0150   25.2270   41.5980 O   0  0  0  0  0  0  0  0  0  0  0  0
   38.5510   28.8600   43.5590 H   0  0  0  0  0  0  0  0  0  0  0  0
   40.6500   27.7090   44.0640 H   0  0  0  0  0  0  0  0  0  0  0  0
   39.1690   24.2160   42.1760 H   0  0  0  0  0  0  0  0  0  0  0  0
   36.4340   30.1710   41.5920 C   0  0  0  0  0  0  0  0  0  0  0  0
   36.7320   28.8360   41.2710 C   0  0  0  0  0  0  0  0  0  0  0  0
   37.2310   28.6190   40.0020 C   0  0  0  0  0  0  0  0  0  0  0  0
   37.4030   29.6500   39.1590 N   0  0  0  0  0  0  0  0  0  0  0  0
   37.0970   30.9240   39.5200 C   0  0  0  0  0  0  0  0  0  0  0  0
   36.6030   31.2140   40.7530 N   0  0  0  0  0  0  0  0  0  0  0  0
   36.0330   30.4150   42.5850 H   0  0  0  0  0  0  0  0  0  0  0  0
   37.4590   27.5860   39.7610 H   0  0  0  0  0  0  0  0  0  0  0  0
   37.2840   32.0710   38.5990 C   0  0  0  0  0  2  0  0  0  0  0  0
   37.3010   33.3440   39.3990 C   0  0  0  0  0  2  0  0  0  0  0  0
   36.4520   33.3060   40.1290 H   0  0  0  0  0  0  0  0  0  0  0  0
  1  4  1  0  0  0  0
  1  2  1  0  0  0  0
  3  1  1  0  0  0  0
  4  5  1  0  0  0  0
  5  6  2  0  0  0  0
  5 12  1  0  0  0  0
  6 13  1  0  0  0  0
  7  8  2  0  0  0  0
  7  6  1  0  0  0  0
  9  7  1  0  0  0  0
 10  9  1  0  0  0  0
 10  4  1  0  0  0  0
 11 10  2  0  0  0  0
 14  9  1  0  0  0  0
 15 21  1  0  0  0  0
 16 15  1  0  0  0  0
 16  1  1  0  0  0  0
 17 16  2  0  0  0  0
 18 19  2  0  0  0  0
 18 17  1  0  0  0  0
 19 20  1  0  0  0  0
 20 15  2  0  0  0  0
 22 17  1  0  0  0  0
 23 24  1  0  0  0  0
 23 19  1  0  0  0  0
 24 25  1  0  0  0  0
M  END
>  <minimizedAffinity>
-4.53589821

$$$$

 OpenBabel03242515273D

 25 26  0  0  0  0  0  0  0  0999 V2000
   38.2980   29.2220   42.9860 C   0  0  0  0  0  0  0  0  0  0  0  0
   37.6650   29.3390   43.8600 H   0  0  0  0  0  0  0  0  0  0  0  0
   39.3420   29.3860   43.3260 H   0  0  0  0  0  0  0  0  0  0  0  0
   37.9380   30.1890   41.9510 N   0  0  0  0  0  0  0  0  0  0  0  0
   36.6940   30.2020   41.4570 C   0  0  0  0  0  0  0  0  0  0  0  0
   36.4170   31.1460   40.4730 C   0  0  0  0  0  0  0  0  0  0  0  0
   37.3660   32.0220   40.0280 C   0  0  0  0  0  0  0  0  0  0  0  0
   37.0870   32.8640   39.1390 O   0  0  0  0  0  0  0  0  0  0  0  0
   38.6130   31.9650   40.5630 N   0  0  0  0  0  0  0  0  0  0  0  0
   38.8940   31.0480   41.5230 C   0  0  0  0  0  0  0  0  0  0  0  0
   40.0770   31.0560   41.9730 O   0  0  0  0  0  0  0  0  0  0  0  0
   35.9590   29.5000   41.8230 H   0  0  0  0  0  0  0  0  0  0  0  0
   35.3960   31.1330   40.0900 H   0  0  0  0  0  0  0  0  0  0  0  0
   39.3600   32.6280   40.2360 H   0  0  0  0  0  0  0  0  0  0  0  0
   37.1930   27.0460   42.9300 C   0  0  0  0  0  0  0  0  0  0  0  0
   38.2030   27.8830   42.4280 C   0  0  0  0  0  0  0  0  0  0  0  0
   39.0050   27.3350   41.4460 C   0  0  0  0  0  0  0  0  0  0  0  0
   38.7970   26.0770   41.0280 N   0  0  0  0  0  0  0  0  0  0  0  0
   37.8040   25.3080   41.5480 C   0  0  0  0  0  0  0  0  0  0  0  0
   36.9740   25.7800   42.5160 N   0  0  0  0  0  0  0  0  0  0  0  0
   36.5180   27.4170   43.7130 H   0  0  0  0  0  0  0  0  0  0  0  0
   39.7840   27.9870   41.0630 H   0  0  0  0  0  0  0  0  0  0  0  0
   37.5630   23.9180   41.0940 C   0  0  0  0  0  2  0  0  0  0  0  0
   36.2330   23.8530   40.3970 C   0  0  0  0  0  2  0  0  0  0  0  0
   35.4860   24.4070   41.0240 H   0  0  0  0  0  0  0  0  0  0  0  0
  1  3  1  0  0  0  0
  1  2  1  0  0  0  0
  4  1  1  0  0  0  0
  5 12  1  0  0  0  0
  5  4  1  0  0  0  0
  6  5  2  0  0  0  0
  7  6  1  0  0  0  0
  7  9  1  0  0  0  0
  8  7  2  0  0  0  0
  9 10  1  0  0  0  0
 10  4  1  0  0  0  0
 10 11  2  0  0  0  0
 13  6  1  0  0  0  0
 14  9  1  0  0  0  0
 15 21  1  0  0  0  0
 16 15  2  0  0  0  0
 16  1  1  0  0  0  0
 17 16  1  0  0  0  0
 18 17  2  0  0  0  0
 18 19  1  0  0  0  0
 19 20  2  0  0  0  0
 20 15  1  0  0  0  0
 22 17  1  0  0  0  0
 23 19  1  0  0  0  0
 24 25  1  0  0  0  0
 24 23  1  0  0  0  0
M  END
>  <minimizedAffinity>
-4.46898127

$$$$

 OpenBabel03242515273D

 25 26  0  0  0  0  0  0  0  0999 V2000
   36.5760   30.9560   41.0130 C   0  0  0  0  0  0  0  0  0  0  0  0
   35.7320   30.9120   40.3330 H   0  0  0  0  0  0  0  0  0  0  0  0
   36.2440   31.5420   41.8950 H   0  0  0  0  0  0  0  0  0  0  0  0
   37.7240   31.5980   40.3740 N   0  0  0  0  0  0  0  0  0  0  0  0
   38.7270   32.0670   41.1260 C   0  0  0  0  0  0  0  0  0  0  0  0
   39.7890   32.6660   40.4550 C   0  0  0  0  0  0  0  0  0  0  0  0
   39.8130   32.7740   39.0940 C   0  0  0  0  0  0  0  0  0  0  0  0
   40.7850   33.3200   38.5170 O   0  0  0  0  0  0  0  0  0  0  0  0
   38.7690   32.2820   38.3790 N   0  0  0  0  0  0  0  0  0  0  0  0
   37.7280   31.6950   39.0220 C   0  0  0  0  0  0  0  0  0  0  0  0
   36.7920   31.2600   38.2900 O   0  0  0  0  0  0  0  0  0  0  0  0
   38.6880   31.9710   42.2020 H   0  0  0  0  0  0  0  0  0  0  0  0
   40.5910   33.0390   41.0930 H   0  0  0  0  0  0  0  0  0  0  0  0
   38.7640   32.3540   37.3320 H   0  0  0  0  0  0  0  0  0  0  0  0
   36.7470   28.5580   40.5880 C   0  0  0  0  0  0  0  0  0  0  0  0
   36.9730   29.6330   41.4640 C   0  0  0  0  0  0  0  0  0  0  0  0
   37.5550   29.3090   42.6740 C   0  0  0  0  0  0  0  0  0  0  0  0
   37.8680   28.0340   42.9530 N   0  0  0  0  0  0  0  0  0  0  0  0
   37.6270   27.0310   42.0680 C   0  0  0  0  0  0  0  0  0  0  0  0
   37.0590   27.2730   40.8580 N   0  0  0  0  0  0  0  0  0  0  0  0
   36.2870   28.7430   39.6070 H   0  0  0  0  0  0  0  0  0  0  0  0
   37.7270   30.1440   43.3460 H   0  0  0  0  0  0  0  0  0  0  0  0
   37.9700   25.6190   42.3650 C   0  0  0  0  0  2  0  0  0  0  0  0
   36.8560   24.7330   41.8810 C   0  0  0  0  0  2  0  0  0  0  0  0
   35.8850   25.1860   42.2100 H   0  0  0  0  0  0  0  0  0  0  0  0
  1 16  1  0  0  0  0
  1  3  1  0  0  0  0
  2  1  1  0  0  0  0
  4  1  1  0  0  0  0
  4  5  1  0  0  0  0
  5 12  1  0  0  0  0
  6 13  1  0  0  0  0
  6  5  2  0  0  0  0
  7  6  1  0  0  0  0
  8  7  2  0  0  0  0
  9 10  1  0  0  0  0
  9  7  1  0  0  0  0
 10  4  1  0  0  0  0
 11 10  2  0  0  0  0
 14  9  1  0  0  0  0
 15 20  2  0  0  0  0
 15 16  1  0  0  0  0
 16 17  2  0  0  0  0
 17 18  1  0  0  0  0
 17 22  1  0  0  0  0
 19 23  1  0  0  0  0
 19 18  2  0  0  0  0
 20 19  1  0  0  0  0
 21 15  1  0  0  0  0
 24 25  1  0  0  0  0
 24 23  1  0  0  0  0
M  END
>  <minimizedAffinity>
-4.46840525

$$$$

 OpenBabel03242515273D

 25 26  0  0  0  0  0  0  0  0999 V2000
   37.5510   32.6790   39.9630 C   0  0  0  0  0  0  0  0  0  0  0  0
   36.6900   32.8940   39.3380 H   0  0  0  0  0  0  0  0  0  0  0  0
   37.5970   33.4810   40.7280 H   0  0  0  0  0  0  0  0  0  0  0  0
   38.7770   32.6570   39.1680 N   0  0  0  0  0  0  0  0  0  0  0  0
   38.8470   31.8900   38.0730 C   0  0  0  0  0  0  0  0  0  0  0  0
   40.0430   31.9150   37.3620 C   0  0  0  0  0  0  0  0  0  0  0  0
   41.1000   32.6840   37.7560 C   0  0  0  0  0  0  0  0  0  0  0  0
   42.1660   32.6860   37.0950 O   0  0  0  0  0  0  0  0  0  0  0  0
   40.9760   33.4440   38.8750 N   0  0  0  0  0  0  0  0  0  0  0  0
   39.8140   33.4270   39.5770 C   0  0  0  0  0  0  0  0  0  0  0  0
   39.7740   34.1610   40.6070 O   0  0  0  0  0  0  0  0  0  0  0  0
   37.9980   31.2880   37.7790 H   0  0  0  0  0  0  0  0  0  0  0  0
   40.0700   31.2800   36.4760 H   0  0  0  0  0  0  0  0  0  0  0  0
   41.7750   34.0430   39.1990 H   0  0  0  0  0  0  0  0  0  0  0  0
   36.1960   30.7190   40.4950 C   0  0  0  0  0  0  0  0  0  0  0  0
   37.4150   31.4020   40.6450 C   0  0  0  0  0  0  0  0  0  0  0  0
   38.3610   30.7780   41.4320 C   0  0  0  0  0  0  0  0  0  0  0  0
   38.0900   29.5920   42.0010 N   0  0  0  0  0  0  0  0  0  0  0  0
   36.8940   28.9730   41.8250 C   0  0  0  0  0  0  0  0  0  0  0  0
   35.9140   29.5270   41.0620 N   0  0  0  0  0  0  0  0  0  0  0  0
   35.3970   31.1580   39.8820 H   0  0  0  0  0  0  0  0  0  0  0  0
   39.3000   31.3110   41.5440 H   0  0  0  0  0  0  0  0  0  0  0  0
   36.5840   27.6640   42.4470 C   0  0  0  0  0  2  0  0  0  0  0  0
   37.3630   26.5890   41.7410 C   0  0  0  0  0  2  0  0  0  0  0  0
   37.2630   26.7570   40.6370 H   0  0  0  0  0  0  0  0  0  0  0  0
  1 16  1  0  0  0  0
  1  3  1  0  0  0  0
  2  1  1  0  0  0  0
  4 10  1  0  0  0  0
  4  1  1  0  0  0  0
  5  4  1  0  0  0  0
  6  7  1  0  0  0  0
  6  5  2  0  0  0  0
  7  9  1  0  0  0  0
  8  7  2  0  0  0  0
  9 14  1  0  0  0  0
  9 10  1  0  0  0  0
 10 11  2  0  0  0  0
 12  5  1  0  0  0  0
 13  6  1  0  0  0  0
 15 16  2  0  0  0  0
 15 20  1  0  0  0  0
 16 17  1  0  0  0  0
 17 22  1  0  0  0  0
 17 18  2  0  0  0  0
 19 18  1  0  0  0  0
 19 23  1  0  0  0  0
 20 19  2  0  0  0  0
 21 15  1  0  0  0  0
 24 23  1  0  0  0  0
 25 24  1  0  0  0  0
M  END
>  <minimizedAffinity>
-4.46205091

$$$$

 OpenBabel03242515273D

 25 26  0  0  0  0  0  0  0  0999 V2000
   38.4990   27.0720   43.1910 C   0  0  0  0  0  0  0  0  0  0  0  0
   39.5020   27.0740   43.6070 H   0  0  0  0  0  0  0  0  0  0  0  0
   37.8010   27.2050   44.0430 H   0  0  0  0  0  0  0  0  0  0  0  0
   38.2280   25.8130   42.4980 N   0  0  0  0  0  0  0  0  0  0  0  0
   37.0340   25.6140   41.9260 C   0  0  0  0  0  0  0  0  0  0  0  0
   36.8400   24.3950   41.2830 C   0  0  0  0  0  0  0  0  0  0  0  0
   37.8180   23.4420   41.2340 C   0  0  0  0  0  0  0  0  0  0  0  0
   37.6150   22.3520   40.6470 O   0  0  0  0  0  0  0  0  0  0  0  0
   39.0110   23.6970   41.8320 N   0  0  0  0  0  0  0  0  0  0  0  0
   39.2110   24.8820   42.4620 C   0  0  0  0  0  0  0  0  0  0  0  0
   40.3470   25.0470   42.9950 O   0  0  0  0  0  0  0  0  0  0  0  0
   36.2740   26.3800   41.9770 H   0  0  0  0  0  0  0  0  0  0  0  0
   35.8590   24.2600   40.8270 H   0  0  0  0  0  0  0  0  0  0  0  0
   39.7780   22.9800   41.8090 H   0  0  0  0  0  0  0  0  0  0  0  0
   37.2630   29.0740   42.5420 C   0  0  0  0  0  0  0  0  0  0  0  0
   38.3010   28.1700   42.2590 C   0  0  0  0  0  0  0  0  0  0  0  0
   39.0270   28.4260   41.1130 C   0  0  0  0  0  0  0  0  0  0  0  0
   38.7250   29.4850   40.3460 N   0  0  0  0  0  0  0  0  0  0  0  0
   37.7100   30.3300   40.6640 C   0  0  0  0  0  0  0  0  0  0  0  0
   36.9520   30.1420   41.7770 N   0  0  0  0  0  0  0  0  0  0  0  0
   36.6440   28.9310   43.4380 H   0  0  0  0  0  0  0  0  0  0  0  0
   39.8260   27.7240   40.9010 H   0  0  0  0  0  0  0  0  0  0  0  0
   37.3680   31.5040   39.8250 C   0  0  0  0  0  2  0  0  0  0  0  0
   37.2520   31.0650   38.3920 C   0  0  0  0  0  2  0  0  0  0  0  0
   38.1310   30.4090   38.1590 H   0  0  0  0  0  0  0  0  0  0  0  0
  1  2  1  0  0  0  0
  1  3  1  0  0  0  0
  4  1  1  0  0  0  0
  5 12  1  0  0  0  0
  5  4  1  0  0  0  0
  6  5  2  0  0  0  0
  7  6  1  0  0  0  0
  7  9  1  0  0  0  0
  8  7  2  0  0  0  0
  9 10  1  0  0  0  0
 10  4  1  0  0  0  0
 10 11  2  0  0  0  0
 13  6  1  0  0  0  0
 14  9  1  0  0  0  0
 15 21  1  0  0  0  0
 16 15  1  0  0  0  0
 16  1  1  0  0  0  0
 17 16  2  0  0  0  0
 18 19  2  0  0  0  0
 18 17  1  0  0  0  0
 19 20  1  0  0  0  0
 20 15  2  0  0  0  0
 22 17  1  0  0  0  0
 23 19  1  0  0  0  0
 24 23  1  0  0  0  0
 25 24  1  0  0  0  0
M  END
>  <minimizedAffinity>
-4.34029818

$$$$

 OpenBabel03242515273D

 25 26  0  0  0  0  0  0  0  0999 V2000
   37.0270   31.6190   40.6500 C   0  0  0  0  0  0  0  0  0  0  0  0
   37.0300   32.4100   41.3930 H   0  0  0  0  0  0  0  0  0  0  0  0
   36.0740   31.7140   40.0890 H   0  0  0  0  0  0  0  0  0  0  0  0
   37.1180   30.3070   41.2880 N   0  0  0  0  0  0  0  0  0  0  0  0
   38.1420   30.0360   42.1060 C   0  0  0  0  0  0  0  0  0  0  0  0
   38.1700   28.7680   42.6800 C   0  0  0  0  0  0  0  0  0  0  0  0
   37.2010   27.8400   42.4260 C   0  0  0  0  0  0  0  0  0  0  0  0
   37.2520   26.7050   42.9580 O   0  0  0  0  0  0  0  0  0  0  0  0
   36.1840   28.1680   41.5870 N   0  0  0  0  0  0  0  0  0  0  0  0
   36.1460   29.4010   41.0210 C   0  0  0  0  0  0  0  0  0  0  0  0
   35.1690   29.6330   40.2520 O   0  0  0  0  0  0  0  0  0  0  0  0
   38.8980   30.7840   42.2940 H   0  0  0  0  0  0  0  0  0  0  0  0
   39.0150   28.5760   43.3420 H   0  0  0  0  0  0  0  0  0  0  0  0
   35.4270   27.4720   41.3750 H   0  0  0  0  0  0  0  0  0  0  0  0
   39.1120   32.7170   40.0100 C   0  0  0  0  0  0  0  0  0  0  0  0
   38.1280   31.7590   39.7110 C   0  0  0  0  0  0  0  0  0  0  0  0
   38.3180   31.0460   38.5440 C   0  0  0  0  0  0  0  0  0  0  0  0
   39.3900   31.2870   37.7720 N   0  0  0  0  0  0  0  0  0  0  0  0
   40.3130   32.2270   38.1070 C   0  0  0  0  0  0  0  0  0  0  0  0
   40.1930   32.9660   39.2410 N   0  0  0  0  0  0  0  0  0  0  0  0
   39.0240   33.3210   40.9230 H   0  0  0  0  0  0  0  0  0  0  0  0
   37.5550   30.3080   38.3190 H   0  0  0  0  0  0  0  0  0  0  0  0
   41.5010   32.5010   37.2640 C   0  0  0  0  0  2  0  0  0  0  0  0
   42.0770   33.8360   37.6480 C   0  0  0  0  0  2  0  0  0  0  0  0
   41.2310   34.5660   37.7310 H   0  0  0  0  0  0  0  0  0  0  0  0
  1  4  1  0  0  0  0
  1  2  1  0  0  0  0
  3  1  1  0  0  0  0
  4  5  1  0  0  0  0
  5 12  1  0  0  0  0
  5  6  2  0  0  0  0
  6 13  1  0  0  0  0
  7  6  1  0  0  0  0
  7  8  2  0  0  0  0
  9  7  1  0  0  0  0
 10  4  1  0  0  0  0
 10  9  1  0  0  0  0
 11 10  2  0  0  0  0
 14  9  1  0  0  0  0
 15 21  1  0  0  0  0
 16 15  1  0  0  0  0
 16  1  1  0  0  0  0
 17 16  2  0  0  0  0
 18 19  2  0  0  0  0
 18 17  1  0  0  0  0
 19 20  1  0  0  0  0
 20 15  2  0  0  0  0
 22 17  1  0  0  0  0
 23 24  1  0  0  0  0
 23 19  1  0  0  0  0
 24 25  1  0  0  0  0
M  END
>  <minimizedAffinity>
-4.29786348

$$$$

 OpenBabel03242515273D

 25 26  0  0  0  0  0  0  0  0999 V2000
   36.1760   28.8640   39.4080 C   0  0  0  0  0  0  0  0  0  0  0  0
   35.8890   28.5480   38.4100 H   0  0  0  0  0  0  0  0  0  0  0  0
   35.2920   28.7050   40.0590 H   0  0  0  0  0  0  0  0  0  0  0  0
   36.5690   30.2730   39.4130 N   0  0  0  0  0  0  0  0  0  0  0  0
   37.0350   30.8370   38.2920 C   0  0  0  0  0  0  0  0  0  0  0  0
   37.3910   32.1810   38.3650 C   0  0  0  0  0  0  0  0  0  0  0  0
   37.2730   32.8950   39.5230 C   0  0  0  0  0  0  0  0  0  0  0  0
   37.6030   34.1060   39.5590 O   0  0  0  0  0  0  0  0  0  0  0  0
   36.7950   32.2730   40.6320 N   0  0  0  0  0  0  0  0  0  0  0  0
   36.4440   30.9630   40.5720 C   0  0  0  0  0  0  0  0  0  0  0  0
   36.0070   30.4530   41.6440 O   0  0  0  0  0  0  0  0  0  0  0  0
   37.1200   30.2530   37.3870 H   0  0  0  0  0  0  0  0  0  0  0  0
   37.7670   32.6130   37.4380 H   0  0  0  0  0  0  0  0  0  0  0  0
   36.6960   32.8010   41.5340 H   0  0  0  0  0  0  0  0  0  0  0  0
   37.0050   27.2180   41.0090 C   0  0  0  0  0  0  0  0  0  0  0  0
   37.2780   28.0710   39.9260 C   0  0  0  0  0  0  0  0  0  0  0  0
   38.5810   28.0630   39.4680 C   0  0  0  0  0  0  0  0  0  0  0  0
   39.4960   27.2720   40.0520 N   0  0  0  0  0  0  0  0  0  0  0  0
   39.1780   26.4650   41.0980 C   0  0  0  0  0  0  0  0  0  0  0  0
   37.9170   26.4200   41.6020 N   0  0  0  0  0  0  0  0  0  0  0  0
   35.9880   27.1750   41.4240 H   0  0  0  0  0  0  0  0  0  0  0  0
   38.7860   28.7240   38.6330 H   0  0  0  0  0  0  0  0  0  0  0  0
   40.1800   25.5870   41.7490 C   0  0  0  0  0  2  0  0  0  0  0  0
   39.7160   25.2640   43.1420 C   0  0  0  0  0  2  0  0  0  0  0  0
   39.3660   26.2150   43.6200 H   0  0  0  0  0  0  0  0  0  0  0  0
  1  4  1  0  0  0  0
  1 16  1  0  0  0  0
  1  3  1  0  0  0  0
  2  1  1  0  0  0  0
  4 10  1  0  0  0  0
  5  6  2  0  0  0  0
  5  4  1  0  0  0  0
  6  7  1  0  0  0  0
  7  8  2  0  0  0  0
  7  9  1  0  0  0  0
  9 14  1  0  0  0  0
 10  9  1  0  0  0  0
 10 11  2  0  0  0  0
 12  5  1  0  0  0  0
 13  6  1  0  0  0  0
 15 21  1  0  0  0  0
 15 20  1  0  0  0  0
 16 15  2  0  0  0  0
 17 16  1  0  0  0  0
 17 18  2  0  0  0  0
 18 19  1  0  0  0  0
 19 20  2  0  0  0  0
 19 23  1  0  0  0  0
 22 17  1  0  0  0  0
 23 24  1  0  0  0  0
 24 25  1  0  0  0  0
M  END
>  <minimizedAffinity>
-4.28570604

$$$$
