
 OpenBabel03252509253D

 21 22  0  0  1  0  0  0  0  0999 V2000
   36.8710   31.6520   39.3070 C   0  0  0  0  0  0  0  0  0  0  0  0
   36.3960   30.6290   40.1870 C   0  0  0  0  0  0  0  0  0  0  0  0
   36.6610   29.3520   39.7690 C   0  0  0  0  0  0  0  0  0  0  0  0
   37.3360   29.0810   38.5810 N   0  0  0  0  0  0  0  0  0  0  0  0
   37.7500   30.0860   37.8060 C   0  0  0  0  0  0  0  0  0  0  0  0
   37.5200   31.3760   38.1670 N   0  0  0  0  0  0  0  0  0  0  0  0
   36.6840   32.6790   39.5970 H   0  0  0  0  0  0  0  0  0  0  0  0
   38.2560   29.7270   36.9210 H   0  0  0  0  0  0  0  0  0  0  0  0
   36.2770   28.2120   40.6830 C   0  0  1  0  0  0  0  0  0  0  0  0
   36.5890   26.8530   40.0020 C   0  0  0  0  0  0  0  0  0  0  0  0
   37.2960   27.4220   41.2690 C   0  0  2  0  0  0  0  0  0  0  0  0
   35.2430   28.2600   41.0720 H   0  0  0  0  0  0  0  0  0  0  0  0
   35.9010   26.0170   40.1970 H   0  0  0  0  0  0  0  0  0  0  0  0
   37.1530   26.8310   39.0760 H   0  0  0  0  0  0  0  0  0  0  0  0
   38.3860   27.5520   41.1100 H   0  0  0  0  0  0  0  0  0  0  0  0
   36.9660   26.7090   42.5740 C   0  0  0  0  0  2  0  0  0  0  0  0
   36.8010   27.7070   43.6800 C   0  0  0  0  0  2  0  0  0  0  0  0
   37.6960   27.6860   44.3240 H   0  0  0  0  0  0  0  0  0  0  0  0
   35.6740   30.9110   41.3800 N   0  0  0  0  0  0  0  0  0  0  0  0
   34.9010   31.6360   41.3350 H   0  0  0  0  0  0  0  0  0  0  0  0
   35.8360   30.4690   42.2840 H   0  0  0  0  0  0  0  0  0  0  0  0
  1  7  1  0  0  0  0
  1  2  1  0  0  0  0
  2 19  1  0  0  0  0
  3  2  2  0  0  0  0
  3  9  1  0  0  0  0
  4  3  1  0  0  0  0
  5  6  1  0  0  0  0
  5  4  2  0  0  0  0
  6  1  2  0  0  0  0
  8  5  1  0  0  0  0
  9 12  1  1  0  0  0
  9 11  1  0  0  0  0
 10 13  1  0  0  0  0
 10  9  1  0  0  0  0
 10 11  1  0  0  0  0
 11 15  1  6  0  0  0
 11 16  1  0  0  0  0
 14 10  1  0  0  0  0
 16 17  1  0  0  0  0
 17 18  1  0  0  0  0
 19 21  1  0  0  0  0
 20 19  1  0  0  0  0
M  END
>  <minimizedAffinity>
-4.22786283

$$$$

 OpenBabel03252509253D

 21 22  0  0  1  0  0  0  0  0999 V2000
   35.2880   29.2570   39.3080 C   0  0  0  0  0  0  0  0  0  0  0  0
   35.9060   29.3120   40.5970 C   0  0  0  0  0  0  0  0  0  0  0  0
   36.5600   28.1650   40.9630 C   0  0  0  0  0  0  0  0  0  0  0  0
   36.6100   27.0410   40.1410 N   0  0  0  0  0  0  0  0  0  0  0  0
   36.0090   27.0600   38.9500 C   0  0  0  0  0  0  0  0  0  0  0  0
   35.3460   28.1690   38.5280 N   0  0  0  0  0  0  0  0  0  0  0  0
   34.7600   30.1430   38.9760 H   0  0  0  0  0  0  0  0  0  0  0  0
   36.1310   26.1220   38.4250 H   0  0  0  0  0  0  0  0  0  0  0  0
   37.3190   28.1670   42.2690 C   0  0  1  0  0  0  0  0  0  0  0  0
   36.5310   27.3730   43.3450 C   0  0  0  0  0  0  0  0  0  0  0  0
   37.9030   26.9630   42.7310 C   0  0  2  0  0  0  0  0  0  0  0  0
   37.6230   29.1680   42.6250 H   0  0  0  0  0  0  0  0  0  0  0  0
   36.5820   27.7350   44.3830 H   0  0  0  0  0  0  0  0  0  0  0  0
   35.6570   26.7970   43.0580 H   0  0  0  0  0  0  0  0  0  0  0  0
   37.8490   25.9800   42.2190 H   0  0  0  0  0  0  0  0  0  0  0  0
   39.0970   27.0790   43.6690 C   0  0  0  0  0  2  0  0  0  0  0  0
   39.9170   25.8260   43.6200 C   0  0  0  0  0  2  0  0  0  0  0  0
   39.7290   25.2310   44.5300 H   0  0  0  0  0  0  0  0  0  0  0  0
   35.8180   30.4490   41.4480 N   0  0  0  0  0  0  0  0  0  0  0  0
   34.8720   30.9160   41.5590 H   0  0  0  0  0  0  0  0  0  0  0  0
   36.5960   30.8570   41.9660 H   0  0  0  0  0  0  0  0  0  0  0  0
  1  2  1  0  0  0  0
  2  3  2  0  0  0  0
  2 19  1  0  0  0  0
  3  9  1  0  0  0  0
  4  3  1  0  0  0  0
  5  4  2  0  0  0  0
  6  5  1  0  0  0  0
  6  1  2  0  0  0  0
  7  1  1  0  0  0  0
  8  5  1  0  0  0  0
  9 12  1  1  0  0  0
  9 11  1  0  0  0  0
  9 10  1  0  0  0  0
 10 13  1  0  0  0  0
 11 15  1  6  0  0  0
 11 10  1  0  0  0  0
 11 16  1  0  0  0  0
 14 10  1  0  0  0  0
 17 16  1  0  0  0  0
 17 18  1  0  0  0  0
 19 20  1  0  0  0  0
 19 21  1  0  0  0  0
M  END
>  <minimizedAffinity>
-4.20075893

$$$$

 OpenBabel03252509253D

 21 22  0  0  1  0  0  0  0  0999 V2000
   37.1620   32.3170   40.0370 C   0  0  0  0  0  0  0  0  0  0  0  0
   36.9880   31.0750   40.7240 C   0  0  0  0  0  0  0  0  0  0  0  0
   38.0620   30.2290   40.6500 C   0  0  0  0  0  0  0  0  0  0  0  0
   39.2240   30.5570   39.9560 N   0  0  0  0  0  0  0  0  0  0  0  0
   39.3170   31.7350   39.3350 C   0  0  0  0  0  0  0  0  0  0  0  0
   38.2860   32.6200   39.3730 N   0  0  0  0  0  0  0  0  0  0  0  0
   36.3370   33.0190   40.0680 H   0  0  0  0  0  0  0  0  0  0  0  0
   40.2710   31.8530   38.8400 H   0  0  0  0  0  0  0  0  0  0  0  0
   37.9990   28.9330   41.4250 C   0  0  1  0  0  0  0  0  0  0  0  0
   39.4330   28.4050   41.7000 C   0  0  0  0  0  0  0  0  0  0  0  0
   38.4270   28.9140   42.7760 C   0  0  2  0  0  0  0  0  0  0  0  0
   37.3450   28.1610   40.9820 H   0  0  0  0  0  0  0  0  0  0  0  0
   39.5830   27.3160   41.6910 H   0  0  0  0  0  0  0  0  0  0  0  0
   40.2900   29.0310   41.4740 H   0  0  0  0  0  0  0  0  0  0  0  0
   38.8290   29.7820   43.3380 H   0  0  0  0  0  0  0  0  0  0  0  0
   37.8420   27.8380   43.6800 C   0  0  0  0  0  2  0  0  0  0  0  0
   36.4270   27.5430   43.2830 C   0  0  0  0  0  2  0  0  0  0  0  0
   35.7410   28.0080   44.0120 H   0  0  0  0  0  0  0  0  0  0  0  0
   35.7840   30.7280   41.3990 N   0  0  0  0  0  0  0  0  0  0  0  0
   34.8630   30.9180   40.9070 H   0  0  0  0  0  0  0  0  0  0  0  0
   35.7290   30.3060   42.3260 H   0  0  0  0  0  0  0  0  0  0  0  0
  1  7  1  0  0  0  0
  1  2  1  0  0  0  0
  2 19  1  0  0  0  0
  3  2  2  0  0  0  0
  3  9  1  0  0  0  0
  4  3  1  0  0  0  0
  5  6  1  0  0  0  0
  5  4  2  0  0  0  0
  6  1  2  0  0  0  0
  8  5  1  0  0  0  0
  9 12  1  6  0  0  0
  9 10  1  0  0  0  0
  9 11  1  0  0  0  0
 10 11  1  0  0  0  0
 11 15  1  1  0  0  0
 11 16  1  0  0  0  0
 13 10  1  0  0  0  0
 14 10  1  0  0  0  0
 17 16  1  0  0  0  0
 17 18  1  0  0  0  0
 19 21  1  0  0  0  0
 20 19  1  0  0  0  0
M  END
>  <minimizedAffinity>
-4.11472273

$$$$

 OpenBabel03252509253D

 21 22  0  0  1  0  0  0  0  0999 V2000
   38.4840   31.6840   40.8850 C   0  0  0  0  0  0  0  0  0  0  0  0
   38.9350   30.7780   41.8960 C   0  0  0  0  0  0  0  0  0  0  0  0
   37.9910   29.8780   42.3150 C   0  0  0  0  0  0  0  0  0  0  0  0
   36.6990   29.8570   41.7950 N   0  0  0  0  0  0  0  0  0  0  0  0
   36.3460   30.7340   40.8530 C   0  0  0  0  0  0  0  0  0  0  0  0
   37.2380   31.6510   40.3930 N   0  0  0  0  0  0  0  0  0  0  0  0
   39.1980   32.4140   40.5230 H   0  0  0  0  0  0  0  0  0  0  0  0
   35.3180   30.6000   40.5450 H   0  0  0  0  0  0  0  0  0  0  0  0
   38.4090   28.8250   43.3140 C   0  0  1  0  0  0  0  0  0  0  0  0
   37.2110   27.8920   43.6390 C   0  0  0  0  0  0  0  0  0  0  0  0
   38.5150   27.4760   42.8930 C   0  0  2  0  0  0  0  0  0  0  0  0
   38.8940   29.2190   44.2250 H   0  0  0  0  0  0  0  0  0  0  0  0
   37.1290   27.5110   44.6680 H   0  0  0  0  0  0  0  0  0  0  0  0
   36.2980   27.9650   43.0580 H   0  0  0  0  0  0  0  0  0  0  0  0
   38.3030   27.1000   41.8720 H   0  0  0  0  0  0  0  0  0  0  0  0
   39.4530   26.5700   43.6790 C   0  0  0  0  0  2  0  0  0  0  0  0
   40.8400   27.1360   43.6770 C   0  0  0  0  0  2  0  0  0  0  0  0
   41.4670   26.5590   42.9760 H   0  0  0  0  0  0  0  0  0  0  0  0
   40.2440   30.8290   42.4510 N   0  0  0  0  0  0  0  0  0  0  0  0
   40.6360   31.7790   42.7170 H   0  0  0  0  0  0  0  0  0  0  0  0
   40.8440   30.0220   42.6180 H   0  0  0  0  0  0  0  0  0  0  0  0
  1  2  1  0  0  0  0
  2  3  2  0  0  0  0
  2 19  1  0  0  0  0
  3  9  1  0  0  0  0
  4  3  1  0  0  0  0
  5  4  2  0  0  0  0
  6  5  1  0  0  0  0
  6  1  2  0  0  0  0
  7  1  1  0  0  0  0
  8  5  1  0  0  0  0
  9 10  1  0  0  0  0
  9 12  1  1  0  0  0
 10 13  1  0  0  0  0
 11 15  1  6  0  0  0
 11  9  1  0  0  0  0
 11 10  1  0  0  0  0
 11 16  1  0  0  0  0
 14 10  1  0  0  0  0
 17 16  1  0  0  0  0
 18 17  1  0  0  0  0
 19 21  1  0  0  0  0
 19 20  1  0  0  0  0
M  END
>  <minimizedAffinity>
-3.94259095

$$$$

 OpenBabel03252509253D

 21 22  0  0  1  0  0  0  0  0999 V2000
   38.4210   31.2610   41.2200 C   0  0  0  0  0  0  0  0  0  0  0  0
   38.6590   30.0200   41.8910 C   0  0  0  0  0  0  0  0  0  0  0  0
   37.5760   29.1830   41.9380 C   0  0  0  0  0  0  0  0  0  0  0  0
   36.3460   29.5220   41.3790 N   0  0  0  0  0  0  0  0  0  0  0  0
   36.1950   30.6990   40.7680 C   0  0  0  0  0  0  0  0  0  0  0  0
   37.2320   31.5730   40.6850 N   0  0  0  0  0  0  0  0  0  0  0  0
   39.2500   31.9560   41.1580 H   0  0  0  0  0  0  0  0  0  0  0  0
   35.1920   30.8250   40.3830 H   0  0  0  0  0  0  0  0  0  0  0  0
   37.7640   27.8130   42.5480 C   0  0  1  0  0  0  0  0  0  0  0  0
   36.5570   27.4630   43.4580 C   0  0  0  0  0  0  0  0  0  0  0  0
   36.9320   26.7480   42.1240 C   0  0  2  0  0  0  0  0  0  0  0  0
   38.7330   27.6640   43.0580 H   0  0  0  0  0  0  0  0  0  0  0  0
   36.7590   26.8760   44.3660 H   0  0  0  0  0  0  0  0  0  0  0  0
   35.6800   28.1010   43.4590 H   0  0  0  0  0  0  0  0  0  0  0  0
   36.1190   26.8230   41.3740 H   0  0  0  0  0  0  0  0  0  0  0  0
   37.4750   25.3340   42.2760 C   0  0  0  0  0  2  0  0  0  0  0  0
   36.8130   24.4190   41.2900 C   0  0  0  0  0  2  0  0  0  0  0  0
   36.0710   23.7940   41.8150 H   0  0  0  0  0  0  0  0  0  0  0  0
   39.9060   29.6960   42.4950 N   0  0  0  0  0  0  0  0  0  0  0  0
   40.3840   30.4390   43.0820 H   0  0  0  0  0  0  0  0  0  0  0  0
   40.3840   28.7990   42.4120 H   0  0  0  0  0  0  0  0  0  0  0  0
  1  2  1  0  0  0  0
  2  3  2  0  0  0  0
  2 19  1  0  0  0  0
  3  9  1  0  0  0  0
  4  3  1  0  0  0  0
  5  4  2  0  0  0  0
  6  5  1  0  0  0  0
  6  1  2  0  0  0  0
  7  1  1  0  0  0  0
  8  5  1  0  0  0  0
  9 12  1  1  0  0  0
  9 10  1  0  0  0  0
 10 14  1  0  0  0  0
 10 13  1  0  0  0  0
 11 15  1  6  0  0  0
 11 16  1  0  0  0  0
 11  9  1  0  0  0  0
 11 10  1  0  0  0  0
 17 18  1  0  0  0  0
 17 16  1  0  0  0  0
 19 20  1  0  0  0  0
 21 19  1  0  0  0  0
M  END
>  <minimizedAffinity>
-3.92791009

$$$$

 OpenBabel03252509253D

 21 22  0  0  1  0  0  0  0  0999 V2000
   37.8990   31.8620   40.7190 C   0  0  0  0  0  0  0  0  0  0  0  0
   37.0680   30.7470   41.0520 C   0  0  0  0  0  0  0  0  0  0  0  0
   37.7190   29.5420   41.0830 C   0  0  0  0  0  0  0  0  0  0  0  0
   39.0790   29.4220   40.8080 N   0  0  0  0  0  0  0  0  0  0  0  0
   39.7940   30.5070   40.5020 C   0  0  0  0  0  0  0  0  0  0  0  0
   39.2070   31.7320   40.4570 N   0  0  0  0  0  0  0  0  0  0  0  0
   37.4270   32.8370   40.6830 H   0  0  0  0  0  0  0  0  0  0  0  0
   40.8300   30.2630   40.3130 H   0  0  0  0  0  0  0  0  0  0  0  0
   36.9360   28.3240   41.5170 C   0  0  1  0  0  0  0  0  0  0  0  0
   36.5150   27.4920   40.2780 C   0  0  0  0  0  0  0  0  0  0  0  0
   37.5210   27.0420   41.3790 C   0  0  2  0  0  0  0  0  0  0  0  0
   36.0860   28.5370   42.1900 H   0  0  0  0  0  0  0  0  0  0  0  0
   35.5390   26.9860   40.3140 H   0  0  0  0  0  0  0  0  0  0  0  0
   36.9140   27.7400   39.3000 H   0  0  0  0  0  0  0  0  0  0  0  0
   38.5260   26.8320   40.9590 H   0  0  0  0  0  0  0  0  0  0  0  0
   37.0220   25.9420   42.3060 C   0  0  0  0  0  2  0  0  0  0  0  0
   37.8750   24.7190   42.1610 C   0  0  0  0  0  2  0  0  0  0  0  0
   37.3290   23.9620   41.5740 H   0  0  0  0  0  0  0  0  0  0  0  0
   35.6710   30.8700   41.2950 N   0  0  0  0  0  0  0  0  0  0  0  0
   35.1000   31.4690   40.6310 H   0  0  0  0  0  0  0  0  0  0  0  0
   35.1660   30.4270   42.0620 H   0  0  0  0  0  0  0  0  0  0  0  0
  1  2  1  0  0  0  0
  2  3  2  0  0  0  0
  2 19  1  0  0  0  0
  3  9  1  0  0  0  0
  4  3  1  0  0  0  0
  5  4  2  0  0  0  0
  6  5  1  0  0  0  0
  6  1  2  0  0  0  0
  7  1  1  0  0  0  0
  8  5  1  0  0  0  0
  9 12  1  1  0  0  0
 10 13  1  0  0  0  0
 10 11  1  0  0  0  0
 10  9  1  0  0  0  0
 11 15  1  6  0  0  0
 11  9  1  0  0  0  0
 11 16  1  0  0  0  0
 14 10  1  0  0  0  0
 17 16  1  0  0  0  0
 18 17  1  0  0  0  0
 19 21  1  0  0  0  0
 20 19  1  0  0  0  0
M  END
>  <minimizedAffinity>
-3.91554046

$$$$

 OpenBabel03252509253D

 21 22  0  0  1  0  0  0  0  0999 V2000
   40.5460   24.8760   43.2120 C   0  0  0  0  0  0  0  0  0  0  0  0
   39.1840   25.1010   42.8370 C   0  0  0  0  0  0  0  0  0  0  0  0
   38.7810   26.4080   42.9210 C   0  0  0  0  0  0  0  0  0  0  0  0
   39.6330   27.4260   43.3410 N   0  0  0  0  0  0  0  0  0  0  0  0
   40.8930   27.1420   43.6780 C   0  0  0  0  0  0  0  0  0  0  0  0
   41.3550   25.8650   43.6130 N   0  0  0  0  0  0  0  0  0  0  0  0
   40.9100   23.8560   43.1600 H   0  0  0  0  0  0  0  0  0  0  0  0
   41.4350   28.0270   43.9830 H   0  0  0  0  0  0  0  0  0  0  0  0
   37.3840   26.7500   42.4560 C   0  0  1  0  0  0  0  0  0  0  0  0
   36.6160   27.4980   43.5780 C   0  0  0  0  0  0  0  0  0  0  0  0
   37.0510   28.1040   42.2090 C   0  0  2  0  0  0  0  0  0  0  0  0
   36.8110   25.8970   42.0500 H   0  0  0  0  0  0  0  0  0  0  0  0
   35.5380   27.3040   43.6720 H   0  0  0  0  0  0  0  0  0  0  0  0
   37.1450   27.8270   44.4660 H   0  0  0  0  0  0  0  0  0  0  0  0
   37.7310   28.9710   42.3390 H   0  0  0  0  0  0  0  0  0  0  0  0
   35.9170   28.3790   41.2300 C   0  0  0  0  0  2  0  0  0  0  0  0
   36.4660   28.5970   39.8530 C   0  0  0  0  0  2  0  0  0  0  0  0
   36.4370   29.6740   39.6160 H   0  0  0  0  0  0  0  0  0  0  0  0
   38.3070   24.0520   42.4450 N   0  0  0  0  0  0  0  0  0  0  0  0
   38.3050   23.1620   43.0230 H   0  0  0  0  0  0  0  0  0  0  0  0
   37.6710   24.0820   41.6480 H   0  0  0  0  0  0  0  0  0  0  0  0
  1  6  1  0  0  0  0
  2  3  1  0  0  0  0
  2  1  2  0  0  0  0
  3  4  2  0  0  0  0
  4  5  1  0  0  0  0
  5  8  1  0  0  0  0
  6  5  2  0  0  0  0
  7  1  1  0  0  0  0
  9 12  1  6  0  0  0
  9  3  1  0  0  0  0
  9 10  1  0  0  0  0
 10 13  1  0  0  0  0
 10 14  1  0  0  0  0
 11 15  1  1  0  0  0
 11  9  1  0  0  0  0
 11 10  1  0  0  0  0
 16 11  1  0  0  0  0
 17 16  1  0  0  0  0
 18 17  1  0  0  0  0
 19  2  1  0  0  0  0
 19 20  1  0  0  0  0
 21 19  1  0  0  0  0
M  END
>  <minimizedAffinity>
-3.86509109

$$$$

 OpenBabel03252509253D

 21 22  0  0  1  0  0  0  0  0999 V2000
   36.1880   28.4230   41.4300 C   0  0  0  0  0  0  0  0  0  0  0  0
   36.6250   29.7840   41.3710 C   0  0  0  0  0  0  0  0  0  0  0  0
   37.9850   29.9450   41.3880 C   0  0  0  0  0  0  0  0  0  0  0  0
   38.8630   28.8660   41.4610 N   0  0  0  0  0  0  0  0  0  0  0  0
   38.3850   27.6210   41.5150 C   0  0  0  0  0  0  0  0  0  0  0  0
   37.0450   27.3940   41.5000 N   0  0  0  0  0  0  0  0  0  0  0  0
   35.1190   28.2460   41.4190 H   0  0  0  0  0  0  0  0  0  0  0  0
   39.1790   26.8890   41.5690 H   0  0  0  0  0  0  0  0  0  0  0  0
   38.5350   31.3440   41.2350 C   0  0  1  0  0  0  0  0  0  0  0  0
   40.0530   31.2890   40.9130 C   0  0  0  0  0  0  0  0  0  0  0  0
   38.9350   31.7930   39.9520 C   0  0  2  0  0  0  0  0  0  0  0  0
   38.3080   32.0240   42.0750 H   0  0  0  0  0  0  0  0  0  0  0  0
   40.6900   32.0810   41.3320 H   0  0  0  0  0  0  0  0  0  0  0  0
   40.5210   30.3370   40.6870 H   0  0  0  0  0  0  0  0  0  0  0  0
   38.8940   31.1970   39.0170 H   0  0  0  0  0  0  0  0  0  0  0  0
   38.9220   33.2950   39.7010 C   0  0  0  0  0  2  0  0  0  0  0  0
   37.5110   33.7980   39.6530 C   0  0  0  0  0  2  0  0  0  0  0  0
   37.2300   33.9940   38.6040 H   0  0  0  0  0  0  0  0  0  0  0  0
   35.7230   30.8830   41.3350 N   0  0  0  0  0  0  0  0  0  0  0  0
   34.8970   30.8730   42.0010 H   0  0  0  0  0  0  0  0  0  0  0  0
   35.8030   31.6910   40.7170 H   0  0  0  0  0  0  0  0  0  0  0  0
  1  6  1  0  0  0  0
  2  3  1  0  0  0  0
  2  1  2  0  0  0  0
  3  4  2  0  0  0  0
  4  5  1  0  0  0  0
  5  8  1  0  0  0  0
  6  5  2  0  0  0  0
  7  1  1  0  0  0  0
  9  3  1  0  0  0  0
  9 12  1  1  0  0  0
 10  9  1  0  0  0  0
 10 13  1  0  0  0  0
 11 15  1  6  0  0  0
 11 10  1  0  0  0  0
 11  9  1  0  0  0  0
 14 10  1  0  0  0  0
 16 11  1  0  0  0  0
 17 16  1  0  0  0  0
 18 17  1  0  0  0  0
 19  2  1  0  0  0  0
 19 20  1  0  0  0  0
 21 19  1  0  0  0  0
M  END
>  <minimizedAffinity>
-3.75748849

$$$$

 OpenBabel03252509253D

 21 22  0  0  1  0  0  0  0  0999 V2000
   37.6930   29.7090   42.3030 C   0  0  0  0  0  0  0  0  0  0  0  0
   36.8810   30.1290   41.2030 C   0  0  0  0  0  0  0  0  0  0  0  0
   37.3610   29.7670   39.9720 C   0  0  0  0  0  0  0  0  0  0  0  0
   38.5460   29.0530   39.8140 N   0  0  0  0  0  0  0  0  0  0  0  0
   39.2550   28.6940   40.8870 C   0  0  0  0  0  0  0  0  0  0  0  0
   38.8300   29.0200   42.1360 N   0  0  0  0  0  0  0  0  0  0  0  0
   37.3520   29.9720   43.2970 H   0  0  0  0  0  0  0  0  0  0  0  0
   40.1470   28.1470   40.6130 H   0  0  0  0  0  0  0  0  0  0  0  0
   36.5190   30.0900   38.7600 C   0  0  1  0  0  0  0  0  0  0  0  0
   37.3810   30.0010   37.4720 C   0  0  0  0  0  0  0  0  0  0  0  0
   36.1990   29.0570   37.8460 C   0  0  2  0  0  0  0  0  0  0  0  0
   35.9590   31.0410   38.8260 H   0  0  0  0  0  0  0  0  0  0  0  0
   37.1610   30.7130   36.6630 H   0  0  0  0  0  0  0  0  0  0  0  0
   38.3860   29.5960   37.5230 H   0  0  0  0  0  0  0  0  0  0  0  0
   36.5250   27.9990   37.9260 H   0  0  0  0  0  0  0  0  0  0  0  0
   34.9390   29.2290   37.0080 C   0  0  0  0  0  2  0  0  0  0  0  0
   33.7870   28.5220   37.6560 C   0  0  0  0  0  2  0  0  0  0  0  0
   33.5790   27.5880   37.1080 H   0  0  0  0  0  0  0  0  0  0  0  0
   35.6920   30.8920   41.3680 N   0  0  0  0  0  0  0  0  0  0  0  0
   35.7150   31.7120   42.0410 H   0  0  0  0  0  0  0  0  0  0  0  0
   34.8090   30.7170   40.8890 H   0  0  0  0  0  0  0  0  0  0  0  0
  1  7  1  0  0  0  0
  2 19  1  0  0  0  0
  2  1  2  0  0  0  0
  3  2  1  0  0  0  0
  4  3  2  0  0  0  0
  4  5  1  0  0  0  0
  5  6  2  0  0  0  0
  6  1  1  0  0  0  0
  8  5  1  0  0  0  0
  9 12  1  1  0  0  0
  9  3  1  0  0  0  0
 10 14  1  0  0  0  0
 10 11  1  0  0  0  0
 10  9  1  0  0  0  0
 11 15  1  1  0  0  0
 11  9  1  0  0  0  0
 13 10  1  0  0  0  0
 16 17  1  0  0  0  0
 16 11  1  0  0  0  0
 18 17  1  0  0  0  0
 19 20  1  0  0  0  0
 21 19  1  0  0  0  0
M  END
>  <minimizedAffinity>
-3.69738221

$$$$
