
 OpenBabel03252509233D

 21 22  0  0  1  0  0  0  0  0999 V2000
   44.6390   35.4100   45.1510 C   0  0  0  0  0  0  0  0  0  0  0  0
   45.1150   35.7120   43.8360 C   0  0  0  0  0  0  0  0  0  0  0  0
   46.0720   34.8510   43.3670 C   0  0  0  0  0  0  0  0  0  0  0  0
   46.5390   33.7750   44.1170 N   0  0  0  0  0  0  0  0  0  0  0  0
   46.0500   33.5520   45.3380 C   0  0  0  0  0  0  0  0  0  0  0  0
   45.0970   34.3690   45.8600 N   0  0  0  0  0  0  0  0  0  0  0  0
   43.8800   36.0630   45.5640 H   0  0  0  0  0  0  0  0  0  0  0  0
   46.5040   32.6860   45.8000 H   0  0  0  0  0  0  0  0  0  0  0  0
   46.5640   35.0420   41.9510 C   0  0  1  0  0  0  0  0  0  0  0  0
   48.0940   35.3000   41.9480 C   0  0  0  0  0  0  0  0  0  0  0  0
   47.3790   34.0450   41.3620 C   0  0  2  0  0  0  0  0  0  0  0  0
   46.0090   35.7990   41.3670 H   0  0  0  0  0  0  0  0  0  0  0  0
   48.4910   35.9960   41.1940 H   0  0  0  0  0  0  0  0  0  0  0  0
   48.6640   35.1750   42.8630 H   0  0  0  0  0  0  0  0  0  0  0  0
   47.7150   33.1110   41.8570 H   0  0  0  0  0  0  0  0  0  0  0  0
   47.3780   33.9470   39.8430 C   0  0  0  0  0  2  0  0  0  0  0  0
   47.2440   32.5170   39.4170 C   0  0  0  0  0  2  0  0  0  0  0  0
   48.2250   32.1480   39.0710 H   0  0  0  0  0  0  0  0  0  0  0  0
   44.6620   36.8360   43.0900 N   0  0  0  0  0  0  0  0  0  0  0  0
   44.5820   37.7670   43.5910 H   0  0  0  0  0  0  0  0  0  0  0  0
   44.4050   36.8220   42.1030 H   0  0  0  0  0  0  0  0  0  0  0  0
  1  7  1  0  0  0  0
  1  6  1  0  0  0  0
  2  1  2  0  0  0  0
  3  2  1  0  0  0  0
  3  4  2  0  0  0  0
  4  5  1  0  0  0  0
  5  8  1  0  0  0  0
  5  6  2  0  0  0  0
  9 12  1  6  0  0  0
  9  3  1  0  0  0  0
 10  9  1  0  0  0  0
 10 14  1  0  0  0  0
 11 15  1  1  0  0  0
 11 10  1  0  0  0  0
 11  9  1  0  0  0  0
 13 10  1  0  0  0  0
 16 11  1  0  0  0  0
 17 16  1  0  0  0  0
 18 17  1  0  0  0  0
 19 20  1  0  0  0  0
 19  2  1  0  0  0  0
 21 19  1  0  0  0  0
M  END
>  <minimizedAffinity>
-4.18418121

>  <minimizedRMSD>
0.104704291

$$$$
