
 OpenBabel03242523333D

 31 33  0  0  0  0  0  0  0  0999 V2000
   47.5280   31.1600   47.1600 C   0  0  0  0  0  0  0  0  0  0  0  0
   47.8360   31.9840   48.2170 C   0  0  0  0  0  0  0  0  0  0  0  0
   48.6290   31.4780   49.2260 C   0  0  0  0  0  0  0  0  0  0  0  0
   49.1160   30.1830   49.2040 C   0  0  0  0  0  0  0  0  0  0  0  0
   49.8820   29.7300   50.2020 N   0  0  0  0  0  0  0  0  0  0  0  0
   50.3660   28.4560   50.1880 C   0  0  0  0  0  0  0  0  0  0  0  0
   50.0630   27.6290   49.1350 C   0  0  0  0  0  0  0  0  0  0  0  0
   49.2710   28.0990   48.1070 C   0  0  0  0  0  0  0  0  0  0  0  0
   48.7640   29.4090   48.1050 C   0  0  0  0  0  0  0  0  0  0  0  0
   47.9760   29.8660   47.0720 C   0  0  0  0  0  0  0  0  0  0  0  0
   47.5290   33.0040   48.3650 H   0  0  0  0  0  0  0  0  0  0  0  0
   48.9120   32.0780   50.0950 H   0  0  0  0  0  0  0  0  0  0  0  0
   50.9880   28.0430   50.9670 H   0  0  0  0  0  0  0  0  0  0  0  0
   50.3770   26.6030   48.9960 H   0  0  0  0  0  0  0  0  0  0  0  0
   48.9880   27.5130   47.2450 H   0  0  0  0  0  0  0  0  0  0  0  0
   47.7240   29.2370   46.2360 H   0  0  0  0  0  0  0  0  0  0  0  0
   46.5030   31.8360   45.8710 S   0  0  0  0  0  0  0  0  0  0  0  0
   45.5950   33.2770   46.4520 C   0  0  0  0  0  0  0  0  0  0  0  0
   46.0570   33.8290   47.2670 H   0  0  0  0  0  0  0  0  0  0  0  0
   44.5720   32.9790   46.8100 H   0  0  0  0  0  0  0  0  0  0  0  0
   44.5880   36.1130   44.2640 C   0  0  0  0  0  0  0  0  0  0  0  0
   45.3660   35.8790   43.1350 C   0  0  0  0  0  0  0  0  0  0  0  0
   46.2290   34.7570   43.1260 C   0  0  0  0  0  0  0  0  0  0  0  0
   46.2750   33.9430   44.2120 N   0  0  0  0  0  0  0  0  0  0  0  0
   45.4840   34.2190   45.3040 C   0  0  0  0  0  0  0  0  0  0  0  0
   44.6590   35.2860   45.3210 N   0  0  0  0  0  0  0  0  0  0  0  0
   43.9430   36.9870   44.2200 H   0  0  0  0  0  0  0  0  0  0  0  0
   45.3720   36.4780   42.2590 H   0  0  0  0  0  0  0  0  0  0  0  0
   47.1170   34.3720   42.0080 C   0  0  0  0  0  0  0  0  0  0  0  0
   48.2020   35.3600   41.7520 C   0  0  0  0  0  0  0  0  0  0  0  0
   47.8540   36.1940   41.0890 H   0  0  0  0  0  0  0  0  0  0  0  0
  1  2  1  0  0  0  0
  2 11  1  0  0  0  0
  2  3  2  0  0  0  0
  3 12  1  0  0  0  0
  4  3  1  0  0  0  0
  4  5  1  0  0  0  0
  6  5  2  0  0  0  0
  6 13  1  0  0  0  0
  7  6  1  0  0  0  0
  8  7  2  0  0  0  0
  9  8  1  0  0  0  0
  9  4  2  0  0  0  0
 10  1  2  0  0  0  0
 10  9  1  0  0  0  0
 14  7  1  0  0  0  0
 15  8  1  0  0  0  0
 16 10  1  0  0  0  0
 17 18  1  0  0  0  0
 17  1  1  0  0  0  0
 18 20  1  0  0  0  0
 18 19  1  0  0  0  0
 21 26  1  0  0  0  0
 22 21  2  0  0  0  0
 23 22  1  0  0  0  0
 23 24  2  0  0  0  0
 24 25  1  0  0  0  0
 25 26  2  0  0  0  0
 25 18  1  0  0  0  0
 27 21  1  0  0  0  0
 28 22  1  0  0  0  0
 29 23  1  0  0  0  0
 30 29  1  0  0  0  0
 31 30  1  0  0  0  0
M  END
>  <minimizedAffinity>
-5.40625

>  <minimizedRMSD>
0.250168592

$$$$
