
 OpenBabel03252506073D

 37 40  0  0  0  0  0  0  0  0999 V2000
   36.8040   26.1280   38.5970 Cl  0  0  0  0  0  0  0  0  0  0  0  0
   35.4620   27.1240   38.1050 C   0  0  0  0  0  0  0  0  0  0  0  0
   35.3280   28.4070   38.5930 C   0  0  0  0  0  0  0  0  0  0  0  0
   34.2300   29.1030   38.1350 C   0  0  0  0  0  0  0  0  0  0  0  0
   33.2880   28.6150   37.2490 C   0  0  0  0  0  0  0  0  0  0  0  0
   33.4580   27.3300   36.7850 C   0  0  0  0  0  0  0  0  0  0  0  0
   32.2430   26.7530   35.6660 Cl  0  0  0  0  0  0  0  0  0  0  0  0
   34.5290   26.6000   37.2080 C   0  0  0  0  0  0  0  0  0  0  0  0
   34.1310   30.1240   38.5300 H   0  0  0  0  0  0  0  0  0  0  0  0
   34.6350   25.5840   36.8220 H   0  0  0  0  0  0  0  0  0  0  0  0
   32.1930   29.5220   36.8910 C   0  0  0  0  0  0  0  0  0  0  0  0
   31.1770   29.8550   37.7590 C   0  0  0  0  0  0  0  0  0  0  0  0
   30.1450   30.7040   37.4350 C   0  0  0  0  0  0  0  0  0  0  0  0
   30.1010   31.2680   36.1790 C   0  0  0  0  0  0  0  0  0  0  0  0
   29.0860   32.0930   35.8840 N   0  0  0  0  0  0  0  0  0  0  0  0
   28.9670   32.6860   34.6780 C   0  0  0  0  0  0  0  0  0  0  0  0
   29.9550   32.4010   33.7440 C   0  0  0  0  0  0  0  0  0  0  0  0
   30.9880   31.5600   34.0460 C   0  0  0  0  0  0  0  0  0  0  0  0
   31.1000   30.9620   35.2750 C   0  0  0  0  0  0  0  0  0  0  0  0
   32.1270   30.1070   35.6200 C   0  0  0  0  0  0  0  0  0  0  0  0
   31.2580   29.3870   38.7310 H   0  0  0  0  0  0  0  0  0  0  0  0
   29.4010   30.8940   38.1970 H   0  0  0  0  0  0  0  0  0  0  0  0
   28.1170   33.3280   34.5480 H   0  0  0  0  0  0  0  0  0  0  0  0
   29.8250   32.8990   32.7810 H   0  0  0  0  0  0  0  0  0  0  0  0
   31.7470   31.3590   33.2850 H   0  0  0  0  0  0  0  0  0  0  0  0
   32.8920   29.8960   34.8730 H   0  0  0  0  0  0  0  0  0  0  0  0
   37.9960   30.5070   39.9160 C   0  0  0  0  0  0  0  0  0  0  0  0
   38.1020   30.1170   41.2380 C   0  0  0  0  0  0  0  0  0  0  0  0
   37.2330   29.1020   41.6940 C   0  0  0  0  0  0  0  0  0  0  0  0
   36.3500   28.5710   40.8120 N   0  0  0  0  0  0  0  0  0  0  0  0
   36.2770   28.9820   39.5230 C   0  0  0  0  0  0  0  0  0  0  0  0
   37.0990   29.9440   39.0900 N   0  0  0  0  0  0  0  0  0  0  0  0
   38.6630   31.2810   39.5820 H   0  0  0  0  0  0  0  0  0  0  0  0
   38.8060   30.5500   41.9110 H   0  0  0  0  0  0  0  0  0  0  0  0
   37.3400   28.6810   43.0990 C   0  0  0  0  0  2  0  0  0  0  0  0
   36.5640   27.4080   43.3900 C   0  0  0  0  0  2  0  0  0  0  0  0
   37.2000   26.5880   43.7260 H   0  0  0  0  0  0  0  0  0  0  0  0
  2  3  1  0  0  0  0
  2  1  1  0  0  0  0
  3 31  1  0  0  0  0
  4  9  1  0  0  0  0
  4  3  2  0  0  0  0
  5  4  1  0  0  0  0
  6  8  1  0  0  0  0
  6  5  2  0  0  0  0
  7  6  1  0  0  0  0
  8  2  2  0  0  0  0
 10  8  1  0  0  0  0
 11  5  1  0  0  0  0
 11 12  1  0  0  0  0
 12 21  1  0  0  0  0
 13 12  2  0  0  0  0
 13 22  1  0  0  0  0
 14 13  1  0  0  0  0
 15 14  1  0  0  0  0
 16 15  2  0  0  0  0
 17 18  2  0  0  0  0
 17 16  1  0  0  0  0
 18 19  1  0  0  0  0
 19 20  1  0  0  0  0
 19 14  2  0  0  0  0
 20 11  2  0  0  0  0
 23 16  1  0  0  0  0
 24 17  1  0  0  0  0
 25 18  1  0  0  0  0
 26 20  1  0  0  0  0
 27 28  1  0  0  0  0
 28 29  2  0  0  0  0
 28 34  1  0  0  0  0
 29 35  1  0  0  0  0
 30 29  1  0  0  0  0
 31 30  2  0  0  0  0
 32 31  1  0  0  0  0
 32 27  2  0  0  0  0
 33 27  1  0  0  0  0
 35 36  1  0  0  0  0
 36 37  1  0  0  0  0
M  END
>  <minimizedAffinity>
-6.39029741

$$$$

 OpenBabel03252506073D

 37 40  0  0  0  0  0  0  0  0999 V2000
   40.5900   31.3660   42.6440 Cl  0  0  0  0  0  0  0  0  0  0  0  0
   39.2620   30.8510   41.6440 C   0  0  0  0  0  0  0  0  0  0  0  0
   38.7870   31.6670   40.6380 C   0  0  0  0  0  0  0  0  0  0  0  0
   37.7340   31.1560   39.9090 C   0  0  0  0  0  0  0  0  0  0  0  0
   37.1430   29.9240   40.1150 C   0  0  0  0  0  0  0  0  0  0  0  0
   37.6470   29.1400   41.1290 C   0  0  0  0  0  0  0  0  0  0  0  0
   36.8700   27.5880   41.3550 Cl  0  0  0  0  0  0  0  0  0  0  0  0
   38.6890   29.5990   41.8790 C   0  0  0  0  0  0  0  0  0  0  0  0
   37.3620   31.8130   39.1110 H   0  0  0  0  0  0  0  0  0  0  0  0
   39.0650   28.9540   42.6750 H   0  0  0  0  0  0  0  0  0  0  0  0
   36.0320   29.5730   39.2270 C   0  0  0  0  0  0  0  0  0  0  0  0
   34.7500   29.3470   39.6770 C   0  0  0  0  0  0  0  0  0  0  0  0
   33.6990   29.0170   38.8550 C   0  0  0  0  0  0  0  0  0  0  0  0
   33.9120   28.9000   37.4990 C   0  0  0  0  0  0  0  0  0  0  0  0
   32.8730   28.5780   36.7140 N   0  0  0  0  0  0  0  0  0  0  0  0
   32.9950   28.4420   35.3770 C   0  0  0  0  0  0  0  0  0  0  0  0
   34.2600   28.6540   34.8430 C   0  0  0  0  0  0  0  0  0  0  0  0
   35.3160   28.9820   35.6430 C   0  0  0  0  0  0  0  0  0  0  0  0
   35.1820   29.1170   37.0010 C   0  0  0  0  0  0  0  0  0  0  0  0
   36.2240   29.4470   37.8450 C   0  0  0  0  0  0  0  0  0  0  0  0
   34.6360   29.4530   40.7480 H   0  0  0  0  0  0  0  0  0  0  0  0
   32.7340   28.8630   39.3190 H   0  0  0  0  0  0  0  0  0  0  0  0
   32.1010   28.1820   34.8440 H   0  0  0  0  0  0  0  0  0  0  0  0
   34.3190   28.5350   33.7590 H   0  0  0  0  0  0  0  0  0  0  0  0
   36.2980   29.1400   35.1870 H   0  0  0  0  0  0  0  0  0  0  0  0
   37.2090   29.6090   37.4050 H   0  0  0  0  0  0  0  0  0  0  0  0
   39.3000   35.2740   40.7170 C   0  0  0  0  0  0  0  0  0  0  0  0
   40.3920   35.4720   39.8940 C   0  0  0  0  0  0  0  0  0  0  0  0
   40.9750   34.3370   39.2900 C   0  0  0  0  0  0  0  0  0  0  0  0
   40.4290   33.1220   39.5520 N   0  0  0  0  0  0  0  0  0  0  0  0
   39.3580   32.9690   40.3670 C   0  0  0  0  0  0  0  0  0  0  0  0
   38.8060   34.0450   40.9400 N   0  0  0  0  0  0  0  0  0  0  0  0
   38.8670   36.1460   41.1700 H   0  0  0  0  0  0  0  0  0  0  0  0
   40.8010   36.4380   39.7040 H   0  0  0  0  0  0  0  0  0  0  0  0
   42.1370   34.5390   38.4120 C   0  0  0  0  0  2  0  0  0  0  0  0
   42.2360   33.4900   37.3190 C   0  0  0  0  0  2  0  0  0  0  0  0
   42.1660   33.9100   36.3150 H   0  0  0  0  0  0  0  0  0  0  0  0
  2  8  1  0  0  0  0
  2  1  1  0  0  0  0
  3  2  2  0  0  0  0
  4  5  2  0  0  0  0
  4  3  1  0  0  0  0
  5  6  1  0  0  0  0
  6  7  1  0  0  0  0
  6  8  2  0  0  0  0
  8 10  1  0  0  0  0
  9  4  1  0  0  0  0
 11 12  1  0  0  0  0
 11  5  1  0  0  0  0
 12 21  1  0  0  0  0
 13 22  1  0  0  0  0
 13 12  2  0  0  0  0
 14 13  1  0  0  0  0
 15 14  2  0  0  0  0
 16 15  1  0  0  0  0
 17 16  2  0  0  0  0
 17 18  1  0  0  0  0
 18 19  2  0  0  0  0
 19 14  1  0  0  0  0
 19 20  1  0  0  0  0
 20 11  2  0  0  0  0
 23 16  1  0  0  0  0
 24 17  1  0  0  0  0
 25 18  1  0  0  0  0
 26 20  1  0  0  0  0
 27 32  1  0  0  0  0
 27 33  1  0  0  0  0
 28 27  2  0  0  0  0
 29 30  2  0  0  0  0
 29 28  1  0  0  0  0
 30 31  1  0  0  0  0
 31  3  1  0  0  0  0
 31 32  2  0  0  0  0
 34 28  1  0  0  0  0
 35 29  1  0  0  0  0
 36 35  1  0  0  0  0
 37 36  1  0  0  0  0
M  END
>  <minimizedAffinity>
-6.31134081

$$$$

 OpenBabel03252506073D

 37 40  0  0  0  0  0  0  0  0999 V2000
   39.9360   35.4500   39.7770 Cl  0  0  0  0  0  0  0  0  0  0  0  0
   39.6660   33.8050   40.2810 C   0  0  0  0  0  0  0  0  0  0  0  0
   40.7260   33.0080   40.6610 C   0  0  0  0  0  0  0  0  0  0  0  0
   40.3940   31.7250   41.0410 C   0  0  0  0  0  0  0  0  0  0  0  0
   39.1140   31.2050   41.0650 C   0  0  0  0  0  0  0  0  0  0  0  0
   38.0850   32.0330   40.6790 C   0  0  0  0  0  0  0  0  0  0  0  0
   36.4810   31.3340   40.7250 Cl  0  0  0  0  0  0  0  0  0  0  0  0
   38.3600   33.3120   40.2940 C   0  0  0  0  0  0  0  0  0  0  0  0
   41.2450   31.0970   41.3420 H   0  0  0  0  0  0  0  0  0  0  0  0
   37.5220   33.9430   39.9930 H   0  0  0  0  0  0  0  0  0  0  0  0
   38.9810   29.8120   41.5030 C   0  0  0  0  0  0  0  0  0  0  0  0
   38.8300   29.4490   42.8230 C   0  0  0  0  0  0  0  0  0  0  0  0
   38.7040   28.1460   43.2460 C   0  0  0  0  0  0  0  0  0  0  0  0
   38.7250   27.1280   42.3190 C   0  0  0  0  0  0  0  0  0  0  0  0
   38.6000   25.8660   42.7530 N   0  0  0  0  0  0  0  0  0  0  0  0
   38.6110   24.8110   41.9120 C   0  0  0  0  0  0  0  0  0  0  0  0
   38.7590   25.0940   40.5600 C   0  0  0  0  0  0  0  0  0  0  0  0
   38.8860   26.3800   40.1200 C   0  0  0  0  0  0  0  0  0  0  0  0
   38.8740   27.4460   40.9830 C   0  0  0  0  0  0  0  0  0  0  0  0
   38.9990   28.7600   40.5790 C   0  0  0  0  0  0  0  0  0  0  0  0
   38.8190   30.2840   43.5100 H   0  0  0  0  0  0  0  0  0  0  0  0
   38.5910   27.9780   44.3090 H   0  0  0  0  0  0  0  0  0  0  0  0
   38.5040   23.8440   42.3640 H   0  0  0  0  0  0  0  0  0  0  0  0
   38.7640   24.2150   39.9120 H   0  0  0  0  0  0  0  0  0  0  0  0
   39.0010   26.5640   39.0480 H   0  0  0  0  0  0  0  0  0  0  0  0
   39.1140   28.9610   39.5130 H   0  0  0  0  0  0  0  0  0  0  0  0
   44.1490   33.6170   39.5710 C   0  0  0  0  0  0  0  0  0  0  0  0
   44.6950   34.3670   40.5950 C   0  0  0  0  0  0  0  0  0  0  0  0
   43.8680   34.6760   41.6950 C   0  0  0  0  0  0  0  0  0  0  0  0
   42.5910   34.2200   41.6840 N   0  0  0  0  0  0  0  0  0  0  0  0
   42.0920   33.4870   40.6600 C   0  0  0  0  0  0  0  0  0  0  0  0
   42.8750   33.1940   39.6150 N   0  0  0  0  0  0  0  0  0  0  0  0
   44.7900   33.3890   38.7390 H   0  0  0  0  0  0  0  0  0  0  0  0
   45.7040   34.7130   40.5790 H   0  0  0  0  0  0  0  0  0  0  0  0
   44.4420   35.4740   42.7900 C   0  0  0  0  0  2  0  0  0  0  0  0
   45.9450   35.2960   42.9190 C   0  0  0  0  0  2  0  0  0  0  0  0
   46.5000   36.2220   42.7620 H   0  0  0  0  0  0  0  0  0  0  0  0
  1  2  1  0  0  0  0
  2  8  2  0  0  0  0
  2  3  1  0  0  0  0
  3  4  2  0  0  0  0
  4  5  1  0  0  0  0
  4  9  1  0  0  0  0
  5 11  1  0  0  0  0
  6  7  1  0  0  0  0
  6  5  2  0  0  0  0
  8  6  1  0  0  0  0
 10  8  1  0  0  0  0
 11 12  1  0  0  0  0
 12 13  2  0  0  0  0
 12 21  1  0  0  0  0
 13 22  1  0  0  0  0
 14 15  1  0  0  0  0
 14 13  1  0  0  0  0
 16 23  1  0  0  0  0
 16 15  2  0  0  0  0
 17 16  1  0  0  0  0
 18 17  2  0  0  0  0
 18 19  1  0  0  0  0
 19 14  2  0  0  0  0
 20 19  1  0  0  0  0
 20 11  2  0  0  0  0
 24 17  1  0  0  0  0
 25 18  1  0  0  0  0
 26 20  1  0  0  0  0
 27 32  2  0  0  0  0
 27 28  1  0  0  0  0
 28 29  2  0  0  0  0
 29 35  1  0  0  0  0
 30 29  1  0  0  0  0
 31  3  1  0  0  0  0
 31 30  2  0  0  0  0
 32 31  1  0  0  0  0
 33 27  1  0  0  0  0
 34 28  1  0  0  0  0
 35 36  1  0  0  0  0
 37 36  1  0  0  0  0
M  END
>  <minimizedAffinity>
-6.15382338

$$$$

 OpenBabel03252506073D

 37 40  0  0  0  0  0  0  0  0999 V2000
   31.2060   27.5030   35.3890 Cl  0  0  0  0  0  0  0  0  0  0  0  0
   32.5050   27.9230   36.4700 C   0  0  0  0  0  0  0  0  0  0  0  0
   32.4290   29.0630   37.2430 C   0  0  0  0  0  0  0  0  0  0  0  0
   33.5130   29.2950   38.0630 C   0  0  0  0  0  0  0  0  0  0  0  0
   34.6320   28.4890   38.1550 C   0  0  0  0  0  0  0  0  0  0  0  0
   34.6680   27.3600   37.3670 C   0  0  0  0  0  0  0  0  0  0  0  0
   36.1010   26.3680   37.5160 Cl  0  0  0  0  0  0  0  0  0  0  0  0
   33.6200   27.0850   36.5400 C   0  0  0  0  0  0  0  0  0  0  0  0
   33.4440   30.2060   38.6740 H   0  0  0  0  0  0  0  0  0  0  0  0
   33.6790   26.1840   35.9280 H   0  0  0  0  0  0  0  0  0  0  0  0
   35.6750   28.9190   39.0900 C   0  0  0  0  0  0  0  0  0  0  0  0
   36.6120   29.8810   38.7830 C   0  0  0  0  0  0  0  0  0  0  0  0
   37.5960   30.2930   39.6500 C   0  0  0  0  0  0  0  0  0  0  0  0
   37.6700   29.7310   40.9050 C   0  0  0  0  0  0  0  0  0  0  0  0
   38.6370   30.1480   41.7360 N   0  0  0  0  0  0  0  0  0  0  0  0
   38.7800   29.6490   42.9810 C   0  0  0  0  0  0  0  0  0  0  0  0
   37.8720   28.6720   43.3700 C   0  0  0  0  0  0  0  0  0  0  0  0
   36.8890   28.2490   42.5230 C   0  0  0  0  0  0  0  0  0  0  0  0
   36.7510   28.7630   41.2580 C   0  0  0  0  0  0  0  0  0  0  0  0
   35.7710   28.3620   40.3720 C   0  0  0  0  0  0  0  0  0  0  0  0
   36.5090   30.2910   37.7870 H   0  0  0  0  0  0  0  0  0  0  0  0
   38.2780   31.0560   39.3010 H   0  0  0  0  0  0  0  0  0  0  0  0
   39.5870   30.0530   43.5630 H   0  0  0  0  0  0  0  0  0  0  0  0
   38.0210   28.2930   44.3830 H   0  0  0  0  0  0  0  0  0  0  0  0
   36.1920   27.4780   42.8630 H   0  0  0  0  0  0  0  0  0  0  0  0
   35.0680   27.5940   40.6960 H   0  0  0  0  0  0  0  0  0  0  0  0
   29.3430   30.7420   38.2130 C   0  0  0  0  0  0  0  0  0  0  0  0
   29.1010   31.6180   37.1720 C   0  0  0  0  0  0  0  0  0  0  0  0
   30.0210   31.6370   36.1020 C   0  0  0  0  0  0  0  0  0  0  0  0
   31.0850   30.7970   36.1580 N   0  0  0  0  0  0  0  0  0  0  0  0
   31.2880   29.9530   37.1970 C   0  0  0  0  0  0  0  0  0  0  0  0
   30.4170   29.9350   38.2130 N   0  0  0  0  0  0  0  0  0  0  0  0
   28.6360   30.7380   39.0210 H   0  0  0  0  0  0  0  0  0  0  0  0
   28.2560   32.2680   37.1530 H   0  0  0  0  0  0  0  0  0  0  0  0
   29.7690   32.5670   34.9900 C   0  0  0  0  0  2  0  0  0  0  0  0
   30.7940   32.4400   33.8770 C   0  0  0  0  0  2  0  0  0  0  0  0
   30.3560   32.1350   32.9250 H   0  0  0  0  0  0  0  0  0  0  0  0
  1  2  1  0  0  0  0
  2  8  2  0  0  0  0
  2  3  1  0  0  0  0
  3  4  2  0  0  0  0
  4  5  1  0  0  0  0
  4  9  1  0  0  0  0
  5 11  1  0  0  0  0
  6  7  1  0  0  0  0
  6  5  2  0  0  0  0
  8  6  1  0  0  0  0
 10  8  1  0  0  0  0
 11 20  1  0  0  0  0
 12 11  2  0  0  0  0
 12 13  1  0  0  0  0
 13 14  2  0  0  0  0
 14 19  1  0  0  0  0
 14 15  1  0  0  0  0
 15 16  2  0  0  0  0
 16 17  1  0  0  0  0
 16 23  1  0  0  0  0
 17 24  1  0  0  0  0
 18 25  1  0  0  0  0
 18 17  2  0  0  0  0
 19 18  1  0  0  0  0
 20 26  1  0  0  0  0
 20 19  2  0  0  0  0
 21 12  1  0  0  0  0
 22 13  1  0  0  0  0
 27 33  1  0  0  0  0
 28 27  2  0  0  0  0
 29 30  2  0  0  0  0
 29 28  1  0  0  0  0
 30 31  1  0  0  0  0
 31  3  1  0  0  0  0
 31 32  2  0  0  0  0
 32 27  1  0  0  0  0
 34 28  1  0  0  0  0
 35 29  1  0  0  0  0
 36 35  1  0  0  0  0
 37 36  1  0  0  0  0
M  END
>  <minimizedAffinity>
-6.12329149

$$$$

 OpenBabel03252506073D

 37 40  0  0  0  0  0  0  0  0999 V2000
   36.7130   25.2450   37.7320 Cl  0  0  0  0  0  0  0  0  0  0  0  0
   37.0660   26.9070   38.1150 C   0  0  0  0  0  0  0  0  0  0  0  0
   37.5060   27.2540   39.3760 C   0  0  0  0  0  0  0  0  0  0  0  0
   37.7550   28.5970   39.5660 C   0  0  0  0  0  0  0  0  0  0  0  0
   37.5980   29.5820   38.6090 C   0  0  0  0  0  0  0  0  0  0  0  0
   37.1570   29.1930   37.3640 C   0  0  0  0  0  0  0  0  0  0  0  0
   36.9720   30.4720   36.1840 Cl  0  0  0  0  0  0  0  0  0  0  0  0
   36.8970   27.8760   37.1250 C   0  0  0  0  0  0  0  0  0  0  0  0
   38.1050   28.8640   40.5730 H   0  0  0  0  0  0  0  0  0  0  0  0
   36.5480   27.6000   36.1280 H   0  0  0  0  0  0  0  0  0  0  0  0
   37.9180   30.9520   39.0200 C   0  0  0  0  0  0  0  0  0  0  0  0
   36.9890   31.8120   39.5640 C   0  0  0  0  0  0  0  0  0  0  0  0
   37.2760   33.0990   39.9530 C   0  0  0  0  0  0  0  0  0  0  0  0
   38.5580   33.5810   39.8030 C   0  0  0  0  0  0  0  0  0  0  0  0
   38.8170   34.8390   40.1890 N   0  0  0  0  0  0  0  0  0  0  0  0
   40.0440   35.3880   40.0760 C   0  0  0  0  0  0  0  0  0  0  0  0
   41.0400   34.5840   39.5360 C   0  0  0  0  0  0  0  0  0  0  0  0
   40.7740   33.3040   39.1430 C   0  0  0  0  0  0  0  0  0  0  0  0
   39.5230   32.7540   39.2620 C   0  0  0  0  0  0  0  0  0  0  0  0
   39.2130   31.4640   38.8770 C   0  0  0  0  0  0  0  0  0  0  0  0
   36.0000   31.3850   39.6610 H   0  0  0  0  0  0  0  0  0  0  0  0
   36.4670   33.6840   40.3680 H   0  0  0  0  0  0  0  0  0  0  0  0
   40.1410   36.4020   40.4160 H   0  0  0  0  0  0  0  0  0  0  0  0
   42.0170   35.0640   39.4600 H   0  0  0  0  0  0  0  0  0  0  0  0
   41.5830   32.7000   38.7210 H   0  0  0  0  0  0  0  0  0  0  0  0
   40.0090   30.8500   38.4550 H   0  0  0  0  0  0  0  0  0  0  0  0
   36.8370   24.4800   41.6420 C   0  0  0  0  0  0  0  0  0  0  0  0
   37.9850   24.3900   42.4050 C   0  0  0  0  0  0  0  0  0  0  0  0
   39.0250   25.3060   42.1380 C   0  0  0  0  0  0  0  0  0  0  0  0
   38.8360   26.2190   41.1520 N   0  0  0  0  0  0  0  0  0  0  0  0
   37.6940   26.2750   40.4250 C   0  0  0  0  0  0  0  0  0  0  0  0
   36.7080   25.4060   40.6770 N   0  0  0  0  0  0  0  0  0  0  0  0
   36.0530   23.7770   41.8560 H   0  0  0  0  0  0  0  0  0  0  0  0
   38.1080   23.6630   43.1750 H   0  0  0  0  0  0  0  0  0  0  0  0
   40.2510   25.2170   42.9460 C   0  0  0  0  0  2  0  0  0  0  0  0
   40.3960   26.3720   43.9210 C   0  0  0  0  0  2  0  0  0  0  0  0
   40.4070   26.0520   44.9640 H   0  0  0  0  0  0  0  0  0  0  0  0
  1  2  1  0  0  0  0
  2  3  1  0  0  0  0
  3  4  2  0  0  0  0
  3 31  1  0  0  0  0
  4  9  1  0  0  0  0
  5 11  1  0  0  0  0
  5  4  1  0  0  0  0
  6  5  2  0  0  0  0
  7  6  1  0  0  0  0
  8  6  1  0  0  0  0
  8  2  2  0  0  0  0
 10  8  1  0  0  0  0
 11 12  1  0  0  0  0
 12 21  1  0  0  0  0
 12 13  2  0  0  0  0
 13 22  1  0  0  0  0
 14 13  1  0  0  0  0
 14 15  1  0  0  0  0
 16 15  2  0  0  0  0
 16 23  1  0  0  0  0
 17 16  1  0  0  0  0
 18 19  1  0  0  0  0
 18 17  2  0  0  0  0
 19 14  2  0  0  0  0
 20 11  2  0  0  0  0
 20 19  1  0  0  0  0
 24 17  1  0  0  0  0
 25 18  1  0  0  0  0
 26 20  1  0  0  0  0
 27 33  1  0  0  0  0
 27 28  1  0  0  0  0
 28 34  1  0  0  0  0
 29 28  2  0  0  0  0
 29 35  1  0  0  0  0
 30 29  1  0  0  0  0
 31 32  1  0  0  0  0
 31 30  2  0  0  0  0
 32 27  2  0  0  0  0
 35 36  1  0  0  0  0
 36 37  1  0  0  0  0
M  END
>  <minimizedAffinity>
-6.03701401

$$$$

 OpenBabel03252506073D

 37 40  0  0  0  0  0  0  0  0999 V2000
   35.6440   26.8680   38.0160 Cl  0  0  0  0  0  0  0  0  0  0  0  0
   36.4680   28.3450   38.4320 C   0  0  0  0  0  0  0  0  0  0  0  0
   37.0170   28.5090   39.6860 C   0  0  0  0  0  0  0  0  0  0  0  0
   37.6450   29.7170   39.9040 C   0  0  0  0  0  0  0  0  0  0  0  0
   37.7560   30.7380   38.9780 C   0  0  0  0  0  0  0  0  0  0  0  0
   37.1950   30.5340   37.7380 C   0  0  0  0  0  0  0  0  0  0  0  0
   37.3590   31.8510   36.5980 Cl  0  0  0  0  0  0  0  0  0  0  0  0
   36.5620   29.3550   37.4720 C   0  0  0  0  0  0  0  0  0  0  0  0
   38.0790   29.8390   40.9060 H   0  0  0  0  0  0  0  0  0  0  0  0
   36.1270   29.2250   36.4800 H   0  0  0  0  0  0  0  0  0  0  0  0
   38.4650   31.9440   39.4150 C   0  0  0  0  0  0  0  0  0  0  0  0
   37.8200   33.0920   39.8200 C   0  0  0  0  0  0  0  0  0  0  0  0
   38.4740   34.2290   40.2310 C   0  0  0  0  0  0  0  0  0  0  0  0
   39.8510   34.2500   40.2500 C   0  0  0  0  0  0  0  0  0  0  0  0
   40.4680   35.3690   40.6540 N   0  0  0  0  0  0  0  0  0  0  0  0
   41.8120   35.4730   40.7010 C   0  0  0  0  0  0  0  0  0  0  0  0
   42.5380   34.3560   40.3080 C   0  0  0  0  0  0  0  0  0  0  0  0
   41.9080   33.2170   39.8960 C   0  0  0  0  0  0  0  0  0  0  0  0
   40.5400   33.1210   39.8520 C   0  0  0  0  0  0  0  0  0  0  0  0
   39.8650   31.9880   39.4410 C   0  0  0  0  0  0  0  0  0  0  0  0
   36.7410   33.0230   39.7880 H   0  0  0  0  0  0  0  0  0  0  0  0
   37.8640   35.0720   40.5280 H   0  0  0  0  0  0  0  0  0  0  0  0
   42.2030   36.4140   41.0410 H   0  0  0  0  0  0  0  0  0  0  0  0
   43.6210   34.4790   40.3600 H   0  0  0  0  0  0  0  0  0  0  0  0
   42.5120   32.3570   39.5930 H   0  0  0  0  0  0  0  0  0  0  0  0
   40.4530   31.1220   39.1370 H   0  0  0  0  0  0  0  0  0  0  0  0
   36.5470   26.9240   42.9340 C   0  0  0  0  0  0  0  0  0  0  0  0
   36.7720   25.5830   42.6840 C   0  0  0  0  0  0  0  0  0  0  0  0
   37.0950   25.2060   41.3630 C   0  0  0  0  0  0  0  0  0  0  0  0
   37.1660   26.1780   40.4200 N   0  0  0  0  0  0  0  0  0  0  0  0
   36.9380   27.4830   40.7040 C   0  0  0  0  0  0  0  0  0  0  0  0
   36.6310   27.8410   41.9560 N   0  0  0  0  0  0  0  0  0  0  0  0
   36.3020   27.1970   43.9430 H   0  0  0  0  0  0  0  0  0  0  0  0
   36.7100   24.8390   43.4450 H   0  0  0  0  0  0  0  0  0  0  0  0
   37.3360   23.7810   41.0900 C   0  0  0  0  0  2  0  0  0  0  0  0
   36.7410   23.3290   39.7680 C   0  0  0  0  0  2  0  0  0  0  0  0
   37.4910   22.9700   39.0620 H   0  0  0  0  0  0  0  0  0  0  0  0
  1  2  1  0  0  0  0
  2  3  1  0  0  0  0
  3  4  2  0  0  0  0
  3 31  1  0  0  0  0
  4  9  1  0  0  0  0
  5 11  1  0  0  0  0
  5  4  1  0  0  0  0
  6  5  2  0  0  0  0
  7  6  1  0  0  0  0
  8  6  1  0  0  0  0
  8  2  2  0  0  0  0
 10  8  1  0  0  0  0
 11 20  2  0  0  0  0
 11 12  1  0  0  0  0
 12 13  2  0  0  0  0
 13 14  1  0  0  0  0
 13 22  1  0  0  0  0
 14 15  1  0  0  0  0
 15 16  2  0  0  0  0
 16 23  1  0  0  0  0
 17 24  1  0  0  0  0
 17 16  1  0  0  0  0
 18 17  2  0  0  0  0
 19 18  1  0  0  0  0
 19 14  2  0  0  0  0
 20 19  1  0  0  0  0
 21 12  1  0  0  0  0
 25 18  1  0  0  0  0
 26 20  1  0  0  0  0
 27 33  1  0  0  0  0
 28 27  1  0  0  0  0
 28 34  1  0  0  0  0
 29 28  2  0  0  0  0
 30 31  2  0  0  0  0
 30 29  1  0  0  0  0
 31 32  1  0  0  0  0
 32 27  2  0  0  0  0
 35 29  1  0  0  0  0
 36 35  1  0  0  0  0
 37 36  1  0  0  0  0
M  END
>  <minimizedAffinity>
-5.98523474

$$$$

 OpenBabel03252506073D

 37 40  0  0  0  0  0  0  0  0999 V2000
   37.9710   33.8430   39.9860 Cl  0  0  0  0  0  0  0  0  0  0  0  0
   37.8360   32.1280   40.2540 C   0  0  0  0  0  0  0  0  0  0  0  0
   38.9530   31.3780   40.5590 C   0  0  0  0  0  0  0  0  0  0  0  0
   38.7280   30.0320   40.7520 C   0  0  0  0  0  0  0  0  0  0  0  0
   37.4980   29.4070   40.6630 C   0  0  0  0  0  0  0  0  0  0  0  0
   36.4080   30.1910   40.3570 C   0  0  0  0  0  0  0  0  0  0  0  0
   34.8720   29.3600   40.2540 Cl  0  0  0  0  0  0  0  0  0  0  0  0
   36.5780   31.5290   40.1570 C   0  0  0  0  0  0  0  0  0  0  0  0
   39.6230   29.4430   40.9940 H   0  0  0  0  0  0  0  0  0  0  0  0
   35.6950   32.1230   39.9160 H   0  0  0  0  0  0  0  0  0  0  0  0
   37.4780   27.9620   40.9040 C   0  0  0  0  0  0  0  0  0  0  0  0
   37.1960   27.4070   42.1330 C   0  0  0  0  0  0  0  0  0  0  0  0
   37.1740   26.0530   42.3720 C   0  0  0  0  0  0  0  0  0  0  0  0
   37.4450   25.1790   41.3420 C   0  0  0  0  0  0  0  0  0  0  0  0
   37.4180   23.8630   41.5970 N   0  0  0  0  0  0  0  0  0  0  0  0
   37.6720   22.9410   40.6460 C   0  0  0  0  0  0  0  0  0  0  0  0
   37.9670   23.4200   39.3760 C   0  0  0  0  0  0  0  0  0  0  0  0
   37.9930   24.7600   39.1180 C   0  0  0  0  0  0  0  0  0  0  0  0
   37.7330   25.6910   40.0920 C   0  0  0  0  0  0  0  0  0  0  0  0
   37.7510   27.0540   39.8730 C   0  0  0  0  0  0  0  0  0  0  0  0
   36.9890   28.1350   42.9060 H   0  0  0  0  0  0  0  0  0  0  0  0
   36.9390   25.7300   43.3780 H   0  0  0  0  0  0  0  0  0  0  0  0
   37.6240   21.9150   40.9570 H   0  0  0  0  0  0  0  0  0  0  0  0
   38.1660   22.6440   38.6350 H   0  0  0  0  0  0  0  0  0  0  0  0
   38.2290   25.1010   38.1060 H   0  0  0  0  0  0  0  0  0  0  0  0
   37.9830   27.4090   38.8680 H   0  0  0  0  0  0  0  0  0  0  0  0
   42.2530   32.1860   41.8780 C   0  0  0  0  0  0  0  0  0  0  0  0
   42.7840   33.0480   40.9380 C   0  0  0  0  0  0  0  0  0  0  0  0
   41.9900   33.3660   39.8150 C   0  0  0  0  0  0  0  0  0  0  0  0
   40.7560   32.8090   39.7250 N   0  0  0  0  0  0  0  0  0  0  0  0
   40.2710   31.9660   40.6690 C   0  0  0  0  0  0  0  0  0  0  0  0
   41.0230   31.6630   41.7330 N   0  0  0  0  0  0  0  0  0  0  0  0
   42.8680   31.9520   42.7270 H   0  0  0  0  0  0  0  0  0  0  0  0
   43.7570   33.4740   41.0330 H   0  0  0  0  0  0  0  0  0  0  0  0
   42.5480   34.2850   38.8110 C   0  0  0  0  0  2  0  0  0  0  0  0
   42.3780   33.7740   37.3910 C   0  0  0  0  0  2  0  0  0  0  0  0
   41.7660   34.4310   36.7710 H   0  0  0  0  0  0  0  0  0  0  0  0
  1  2  1  0  0  0  0
  2  3  1  0  0  0  0
  3 31  1  0  0  0  0
  3  4  2  0  0  0  0
  4  9  1  0  0  0  0
  5  4  1  0  0  0  0
  5 11  1  0  0  0  0
  6  5  2  0  0  0  0
  7  6  1  0  0  0  0
  8  2  2  0  0  0  0
  8  6  1  0  0  0  0
 10  8  1  0  0  0  0
 11 12  1  0  0  0  0
 12 13  2  0  0  0  0
 12 21  1  0  0  0  0
 13 22  1  0  0  0  0
 14 15  1  0  0  0  0
 14 13  1  0  0  0  0
 16 23  1  0  0  0  0
 16 15  2  0  0  0  0
 17 16  1  0  0  0  0
 18 17  2  0  0  0  0
 18 19  1  0  0  0  0
 19 14  2  0  0  0  0
 20 19  1  0  0  0  0
 20 11  2  0  0  0  0
 24 17  1  0  0  0  0
 25 18  1  0  0  0  0
 26 20  1  0  0  0  0
 27 33  1  0  0  0  0
 28 34  1  0  0  0  0
 28 27  2  0  0  0  0
 29 28  1  0  0  0  0
 30 29  2  0  0  0  0
 30 31  1  0  0  0  0
 31 32  2  0  0  0  0
 32 27  1  0  0  0  0
 35 29  1  0  0  0  0
 36 35  1  0  0  0  0
 37 36  1  0  0  0  0
M  END
>  <minimizedAffinity>
-5.95915556

$$$$

 OpenBabel03252506073D

 37 40  0  0  0  0  0  0  0  0999 V2000
   38.2250   34.4800   40.0290 Cl  0  0  0  0  0  0  0  0  0  0  0  0
   38.1610   32.7400   40.0090 C   0  0  0  0  0  0  0  0  0  0  0  0
   39.3180   31.9990   39.8930 C   0  0  0  0  0  0  0  0  0  0  0  0
   39.1480   30.6310   39.8880 C   0  0  0  0  0  0  0  0  0  0  0  0
   37.9340   29.9770   39.9890 C   0  0  0  0  0  0  0  0  0  0  0  0
   36.8030   30.7530   40.1030 C   0  0  0  0  0  0  0  0  0  0  0  0
   35.2890   29.8850   40.2280 Cl  0  0  0  0  0  0  0  0  0  0  0  0
   36.9180   32.1120   40.1130 C   0  0  0  0  0  0  0  0  0  0  0  0
   40.0750   30.0490   39.7950 H   0  0  0  0  0  0  0  0  0  0  0  0
   36.0020   32.6990   40.2040 H   0  0  0  0  0  0  0  0  0  0  0  0
   37.9750   28.5130   39.9620 C   0  0  0  0  0  0  0  0  0  0  0  0
   38.2940   27.7880   38.8350 C   0  0  0  0  0  0  0  0  0  0  0  0
   38.3350   26.4140   38.7970 C   0  0  0  0  0  0  0  0  0  0  0  0
   38.0460   25.6970   39.9370 C   0  0  0  0  0  0  0  0  0  0  0  0
   38.0920   24.3580   39.8790 N   0  0  0  0  0  0  0  0  0  0  0  0
   37.8230   23.5810   40.9480 C   0  0  0  0  0  0  0  0  0  0  0  0
   37.4920   24.2370   42.1270 C   0  0  0  0  0  0  0  0  0  0  0  0
   37.4450   25.6000   42.1850 C   0  0  0  0  0  0  0  0  0  0  0  0
   37.7210   26.3810   41.0920 C   0  0  0  0  0  0  0  0  0  0  0  0
   37.6840   27.7620   41.1080 C   0  0  0  0  0  0  0  0  0  0  0  0
   38.5130   28.3980   37.9690 H   0  0  0  0  0  0  0  0  0  0  0  0
   38.5990   25.9510   37.8560 H   0  0  0  0  0  0  0  0  0  0  0  0
   37.8900   22.5210   40.7920 H   0  0  0  0  0  0  0  0  0  0  0  0
   37.2810   23.5750   42.9690 H   0  0  0  0  0  0  0  0  0  0  0  0
   37.1800   26.0820   43.1300 H   0  0  0  0  0  0  0  0  0  0  0  0
   37.4220   28.2570   42.0440 H   0  0  0  0  0  0  0  0  0  0  0  0
   42.3430   33.3950   38.4150 C   0  0  0  0  0  0  0  0  0  0  0  0
   43.0950   33.7880   39.5060 C   0  0  0  0  0  0  0  0  0  0  0  0
   42.5530   33.5690   40.7910 C   0  0  0  0  0  0  0  0  0  0  0  0
   41.3300   32.9880   40.8790 N   0  0  0  0  0  0  0  0  0  0  0  0
   40.6230   32.6170   39.7840 C   0  0  0  0  0  0  0  0  0  0  0  0
   41.1360   32.8250   38.5660 N   0  0  0  0  0  0  0  0  0  0  0  0
   42.7680   33.5680   37.4440 H   0  0  0  0  0  0  0  0  0  0  0  0
   44.0550   34.2420   39.4100 H   0  0  0  0  0  0  0  0  0  0  0  0
   43.3470   33.9840   41.9570 C   0  0  0  0  0  2  0  0  0  0  0  0
   43.2450   35.4730   42.2370 C   0  0  0  0  0  2  0  0  0  0  0  0
   42.8110   35.6960   43.2120 H   0  0  0  0  0  0  0  0  0  0  0  0
  2  1  1  0  0  0  0
  2  8  1  0  0  0  0
  3  2  2  0  0  0  0
  4  3  1  0  0  0  0
  4  5  2  0  0  0  0
  5  6  1  0  0  0  0
  6  8  2  0  0  0  0
  6  7  1  0  0  0  0
  8 10  1  0  0  0  0
  9  4  1  0  0  0  0
 11  5  1  0  0  0  0
 11 20  1  0  0  0  0
 12 11  2  0  0  0  0
 13 12  1  0  0  0  0
 13 14  2  0  0  0  0
 14 19  1  0  0  0  0
 15 14  1  0  0  0  0
 15 16  2  0  0  0  0
 16 17  1  0  0  0  0
 17 18  2  0  0  0  0
 17 24  1  0  0  0  0
 18 25  1  0  0  0  0
 19 20  2  0  0  0  0
 19 18  1  0  0  0  0
 20 26  1  0  0  0  0
 21 12  1  0  0  0  0
 22 13  1  0  0  0  0
 23 16  1  0  0  0  0
 27 32  2  0  0  0  0
 27 28  1  0  0  0  0
 28 29  2  0  0  0  0
 29 30  1  0  0  0  0
 29 35  1  0  0  0  0
 31  3  1  0  0  0  0
 31 30  2  0  0  0  0
 32 31  1  0  0  0  0
 33 27  1  0  0  0  0
 34 28  1  0  0  0  0
 35 36  1  0  0  0  0
 36 37  1  0  0  0  0
M  END
>  <minimizedAffinity>
-5.92351198

$$$$

 OpenBabel03252506073D

 37 40  0  0  0  0  0  0  0  0999 V2000
   40.9810   35.4730   39.5620 Cl  0  0  0  0  0  0  0  0  0  0  0  0
   40.3760   33.9350   40.1110 C   0  0  0  0  0  0  0  0  0  0  0  0
   41.2360   32.9970   40.6440 C   0  0  0  0  0  0  0  0  0  0  0  0
   40.6480   31.8170   41.0460 C   0  0  0  0  0  0  0  0  0  0  0  0
   39.3000   31.5240   40.9530 C   0  0  0  0  0  0  0  0  0  0  0  0
   38.4760   32.4870   40.4160 C   0  0  0  0  0  0  0  0  0  0  0  0
   36.7790   32.0750   40.3170 Cl  0  0  0  0  0  0  0  0  0  0  0  0
   39.0090   33.6720   40.0030 C   0  0  0  0  0  0  0  0  0  0  0  0
   41.3400   31.0750   41.4690 H   0  0  0  0  0  0  0  0  0  0  0  0
   38.3300   34.4150   39.5810 H   0  0  0  0  0  0  0  0  0  0  0  0
   38.8800   30.2060   41.4390 C   0  0  0  0  0  0  0  0  0  0  0  0
   38.7630   29.8990   42.7770 C   0  0  0  0  0  0  0  0  0  0  0  0
   38.3710   28.6670   43.2460 C   0  0  0  0  0  0  0  0  0  0  0  0
   38.0710   27.6660   42.3480 C   0  0  0  0  0  0  0  0  0  0  0  0
   37.6910   26.4720   42.8260 N   0  0  0  0  0  0  0  0  0  0  0  0
   37.3800   25.4380   42.0170 C   0  0  0  0  0  0  0  0  0  0  0  0
   37.4730   25.6670   40.6500 C   0  0  0  0  0  0  0  0  0  0  0  0
   37.8610   26.8830   40.1650 C   0  0  0  0  0  0  0  0  0  0  0  0
   38.1750   27.9280   40.9960 C   0  0  0  0  0  0  0  0  0  0  0  0
   38.5710   29.1720   40.5460 C   0  0  0  0  0  0  0  0  0  0  0  0
   39.0090   30.7190   43.4380 H   0  0  0  0  0  0  0  0  0  0  0  0
   38.3140   28.5390   44.3180 H   0  0  0  0  0  0  0  0  0  0  0  0
   37.0880   24.5280   42.5040 H   0  0  0  0  0  0  0  0  0  0  0  0
   37.2150   24.8080   40.0290 H   0  0  0  0  0  0  0  0  0  0  0  0
   37.9240   27.0270   39.0830 H   0  0  0  0  0  0  0  0  0  0  0  0
   38.6370   29.3310   39.4700 H   0  0  0  0  0  0  0  0  0  0  0  0
   44.4410   33.9440   42.0970 C   0  0  0  0  0  0  0  0  0  0  0  0
   45.3480   33.7120   41.0810 C   0  0  0  0  0  0  0  0  0  0  0  0
   44.8500   33.2150   39.8570 C   0  0  0  0  0  0  0  0  0  0  0  0
   43.5150   32.9970   39.7510 N   0  0  0  0  0  0  0  0  0  0  0  0
   42.6580   33.2360   40.7720 C   0  0  0  0  0  0  0  0  0  0  0  0
   43.1290   33.7060   41.9330 N   0  0  0  0  0  0  0  0  0  0  0  0
   44.8330   34.3220   43.0240 H   0  0  0  0  0  0  0  0  0  0  0  0
   46.3920   33.8940   41.1910 H   0  0  0  0  0  0  0  0  0  0  0  0
   45.8090   32.9660   38.7700 C   0  0  0  0  0  2  0  0  0  0  0  0
   45.2120   33.2070   37.3950 C   0  0  0  0  0  2  0  0  0  0  0  0
   45.7160   34.0020   36.8440 H   0  0  0  0  0  0  0  0  0  0  0  0
  1  2  1  0  0  0  0
  2  3  1  0  0  0  0
  3 31  1  0  0  0  0
  3  4  2  0  0  0  0
  4  9  1  0  0  0  0
  5  4  1  0  0  0  0
  5 11  1  0  0  0  0
  6  5  2  0  0  0  0
  7  6  1  0  0  0  0
  8  2  2  0  0  0  0
  8  6  1  0  0  0  0
 10  8  1  0  0  0  0
 11 12  1  0  0  0  0
 12 13  2  0  0  0  0
 12 21  1  0  0  0  0
 13 22  1  0  0  0  0
 14 15  1  0  0  0  0
 14 13  1  0  0  0  0
 16 23  1  0  0  0  0
 16 15  2  0  0  0  0
 17 16  1  0  0  0  0
 18 17  2  0  0  0  0
 18 19  1  0  0  0  0
 19 14  2  0  0  0  0
 20 19  1  0  0  0  0
 20 11  2  0  0  0  0
 24 17  1  0  0  0  0
 25 18  1  0  0  0  0
 26 20  1  0  0  0  0
 27 33  1  0  0  0  0
 28 34  1  0  0  0  0
 28 27  2  0  0  0  0
 29 28  1  0  0  0  0
 30 29  2  0  0  0  0
 30 31  1  0  0  0  0
 31 32  2  0  0  0  0
 32 27  1  0  0  0  0
 35 29  1  0  0  0  0
 36 35  1  0  0  0  0
 37 36  1  0  0  0  0
M  END
>  <minimizedAffinity>
-5.90540743

$$$$
