
 OpenBabel03252508233D

 42 44  0  0  0  0  0  0  0  0999 V2000
   45.7560   33.7430   40.6730 C   0  0  0  0  0  0  0  0  0  0  0  0
   46.2670   33.4200   39.4330 C   0  0  0  0  0  0  0  0  0  0  0  0
   47.5060   33.7870   38.9800 C   0  0  0  0  0  0  0  0  0  0  0  0
   48.2800   34.5450   39.8720 C   0  0  0  0  0  0  0  0  0  0  0  0
   47.8240   34.8950   41.1160 C   0  0  0  0  0  0  0  0  0  0  0  0
   46.5820   34.5060   41.5240 C   0  0  0  0  0  0  0  0  0  0  0  0
   45.7420   32.8310   38.6970 H   0  0  0  0  0  0  0  0  0  0  0  0
   47.9330   33.5600   38.0370 H   0  0  0  0  0  0  0  0  0  0  0  0
   49.2810   34.8700   39.5660 H   0  0  0  0  0  0  0  0  0  0  0  0
   48.4880   35.4840   41.7460 H   0  0  0  0  0  0  0  0  0  0  0  0
   46.2050   34.9070   42.8170 N   0  0  0  0  0  0  0  0  0  0  0  0
   45.3390   36.0170   43.0970 C   0  0  0  0  0  0  0  0  0  0  0  0
   44.7530   35.9190   44.4830 C   0  0  0  0  0  0  0  0  0  0  0  0
   44.4060   34.5990   44.8910 N   0  0  0  0  0  0  0  0  0  0  0  0
   45.4520   33.6490   44.7730 C   0  0  0  0  0  0  0  0  0  0  0  0
   46.6360   34.2610   44.0670 C   0  0  0  0  0  0  0  0  0  0  0  0
   46.0420   36.9020   43.1560 H   0  0  0  0  0  0  0  0  0  0  0  0
   44.6350   36.3020   42.3080 H   0  0  0  0  0  0  0  0  0  0  0  0
   45.4430   36.3280   45.2520 H   0  0  0  0  0  0  0  0  0  0  0  0
   43.8190   36.5190   44.4690 H   0  0  0  0  0  0  0  0  0  0  0  0
   43.9440   34.6690   45.8070 H   0  0  0  0  0  0  0  0  0  0  0  0
   45.0920   32.8130   44.1050 H   0  0  0  0  0  0  0  0  0  0  0  0
   45.7670   33.2550   45.7410 H   0  0  0  0  0  0  0  0  0  0  0  0
   47.3950   33.4850   43.8600 H   0  0  0  0  0  0  0  0  0  0  0  0
   47.0630   35.0340   44.7490 H   0  0  0  0  0  0  0  0  0  0  0  0
   44.4280   33.3520   41.1490 C   0  0  0  0  0  0  0  0  0  0  0  0
   44.5710   32.3530   41.6540 H   0  0  0  0  0  0  0  0  0  0  0  0
   44.0090   33.9980   41.9210 H   0  0  0  0  0  0  0  0  0  0  0  0
   43.4460   33.2190   40.0030 C   0  0  0  0  0  0  0  0  0  0  0  0
   43.0790   32.1500   39.9770 H   0  0  0  0  0  0  0  0  0  0  0  0
   43.8100   33.5130   39.0330 H   0  0  0  0  0  0  0  0  0  0  0  0
   41.1910   35.9910   41.2180 C   0  0  0  0  0  0  0  0  0  0  0  0
   42.3630   35.2460   40.9560 C   0  0  0  0  0  0  0  0  0  0  0  0
   42.2350   34.0200   40.2980 C   0  0  0  0  0  0  0  0  0  0  0  0
   40.9780   33.6040   39.9430 N   0  0  0  0  0  0  0  0  0  0  0  0
   39.8920   34.3390   40.2090 C   0  0  0  0  0  0  0  0  0  0  0  0
   39.9950   35.5250   40.8420 N   0  0  0  0  0  0  0  0  0  0  0  0
   41.2930   36.9420   41.7290 H   0  0  0  0  0  0  0  0  0  0  0  0
   43.3220   35.6300   41.2630 H   0  0  0  0  0  0  0  0  0  0  0  0
   38.5180   33.9090   39.8330 C   0  0  0  0  0  0  0  0  0  0  0  0
   38.3610   32.4500   40.2440 C   0  0  0  0  0  0  0  0  0  0  0  0
   39.3480   32.0140   40.5610 H   0  0  0  0  0  0  0  0  0  0  0  0
  1 26  1  0  0  0  0
  1  6  1  0  0  0  0
  2  1  2  0  0  0  0
  3  2  1  0  0  0  0
  3  4  2  0  0  0  0
  4  5  1  0  0  0  0
  5  6  2  0  0  0  0
  5 10  1  0  0  0  0
  6 11  1  0  0  0  0
  7  2  1  0  0  0  0
  8  3  1  0  0  0  0
  9  4  1  0  0  0  0
 11 12  1  0  0  0  0
 11 16  1  0  0  0  0
 12 17  1  0  0  0  0
 12 13  1  0  0  0  0
 13 14  1  0  0  0  0
 13 19  1  0  0  0  0
 14 21  1  0  0  0  0
 15 14  1  0  0  0  0
 15 23  1  0  0  0  0
 16 25  1  0  0  0  0
 16 15  1  0  0  0  0
 18 12  1  0  0  0  0
 20 13  1  0  0  0  0
 22 15  1  0  0  0  0
 24 16  1  0  0  0  0
 26 27  1  0  0  0  0
 26 28  1  0  0  0  0
 29 34  1  0  0  0  0
 29 26  1  0  0  0  0
 30 29  1  0  0  0  0
 31 29  1  0  0  0  0
 32 38  1  0  0  0  0
 33 32  1  0  0  0  0
 33 39  1  0  0  0  0
 34 33  2  0  0  0  0
 35 36  2  0  0  0  0
 35 34  1  0  0  0  0
 36 37  1  0  0  0  0
 37 32  2  0  0  0  0
 40 36  1  0  0  0  0
 40 41  1  0  0  0  0
 41 42  1  0  0  0  0
M  END
>  <minimizedAffinity>
-5.78617764

>  <minimizedRMSD>
1.32248175

$$$$
