
 OpenBabel03252503113D

 28 30  0  0  0  0  0  0  0  0999 V2000
   45.3960   36.2110   43.3670 C   0  0  0  0  0  0  0  0  0  0  0  0
   46.0440   35.0040   43.0680 C   0  0  0  0  0  0  0  0  0  0  0  0
   45.8970   34.0020   44.0310 C   0  0  0  0  0  0  0  0  0  0  0  0
   45.1890   34.1870   45.1530 N   0  0  0  0  0  0  0  0  0  0  0  0
   44.5800   35.3830   45.3910 C   0  0  0  0  0  0  0  0  0  0  0  0
   44.6850   36.3810   44.5040 N   0  0  0  0  0  0  0  0  0  0  0  0
   45.4580   37.0440   42.6740 H   0  0  0  0  0  0  0  0  0  0  0  0
   44.0200   35.4770   46.3160 H   0  0  0  0  0  0  0  0  0  0  0  0
   46.5190   32.7640   43.8090 C   0  0  0  0  0  0  0  0  0  0  0  0
   47.7950   32.2960   43.9660 C   0  0  0  0  0  0  0  0  0  0  0  0
   48.1320   31.0440   43.6730 C   0  0  0  0  0  0  0  0  0  0  0  0
   47.1460   30.2300   43.2030 C   0  0  0  0  0  0  0  0  0  0  0  0
   45.6650   31.3390   43.1880 S   0  0  0  0  0  0  0  0  0  0  0  0
   48.5200   33.0420   44.3550 H   0  0  0  0  0  0  0  0  0  0  0  0
   49.1170   30.6080   43.7710 H   0  0  0  0  0  0  0  0  0  0  0  0
   47.1410   29.1900   42.8930 H   0  0  0  0  0  0  0  0  0  0  0  0
   46.7780   34.8680   41.8620 C   0  0  0  0  0  0  0  0  0  0  0  0
   47.9530   35.3390   41.8670 O   0  0  0  0  0  0  0  0  0  0  0  0
   46.1520   34.1960   40.6730 C   0  0  0  0  0  0  0  0  0  0  0  0
   44.8080   34.0660   40.4180 C   0  0  0  0  0  0  0  0  0  0  0  0
   44.7240   33.4000   39.2520 N   0  0  0  0  0  0  0  0  0  0  0  0
   45.9830   33.1320   38.8120 C   0  0  0  0  0  0  0  0  0  0  0  0
   46.8740   33.6260   39.6940 N   0  0  0  0  0  0  0  0  0  0  0  0
   43.9960   34.4170   41.0150 H   0  0  0  0  0  0  0  0  0  0  0  0
   43.8790   33.1180   38.7430 H   0  0  0  0  0  0  0  0  0  0  0  0
   46.4430   32.4230   37.5830 C   0  0  0  0  0  0  0  0  0  0  0  0
   45.5870   32.7780   36.3790 C   0  0  0  0  0  0  0  0  0  0  0  0
   46.1590   33.0180   35.4810 H   0  0  0  0  0  0  0  0  0  0  0  0
  1  6  1  0  0  0  0
  2  1  2  0  0  0  0
  2  3  1  0  0  0  0
  3  4  2  0  0  0  0
  4  5  1  0  0  0  0
  5  8  1  0  0  0  0
  6  5  2  0  0  0  0
  7  1  1  0  0  0  0
  9 10  2  0  0  0  0
  9  3  1  0  0  0  0
 10 14  1  0  0  0  0
 11 15  1  0  0  0  0
 11 10  1  0  0  0  0
 12 11  2  0  0  0  0
 13 12  1  0  0  0  0
 13  9  1  0  0  0  0
 16 12  1  0  0  0  0
 17 18  2  0  0  0  0
 17  2  1  0  0  0  0
 19 17  1  0  0  0  0
 20 19  2  0  0  0  0
 20 24  1  0  0  0  0
 21 20  1  0  0  0  0
 22 21  1  0  0  0  0
 22 23  2  0  0  0  0
 23 19  1  0  0  0  0
 25 21  1  0  0  0  0
 26 22  1  0  0  0  0
 27 26  1  0  0  0  0
 28 27  1  0  0  0  0
M  END
>  <minimizedAffinity>
-4.39989662

>  <minimizedRMSD>
0.445279002

$$$$
