
 OpenBabel03252509233D

 21 22  0  0  1  0  0  0  0  0999 V2000
   44.8210   35.1280   44.9920 C   0  0  0  0  0  0  0  0  0  0  0  0
   45.3030   35.5350   43.7080 C   0  0  0  0  0  0  0  0  0  0  0  0
   46.3520   34.7920   43.2340 C   0  0  0  0  0  0  0  0  0  0  0  0
   46.8990   33.7310   43.9510 N   0  0  0  0  0  0  0  0  0  0  0  0
   46.3990   33.4060   45.1450 C   0  0  0  0  0  0  0  0  0  0  0  0
   45.3570   34.1040   45.6710 N   0  0  0  0  0  0  0  0  0  0  0  0
   43.9910   35.6870   45.4080 H   0  0  0  0  0  0  0  0  0  0  0  0
   46.9200   32.5670   45.5840 H   0  0  0  0  0  0  0  0  0  0  0  0
   46.8630   35.0940   41.8440 C   0  0  1  0  0  0  0  0  0  0  0  0
   48.3550   35.5160   41.9050 C   0  0  0  0  0  0  0  0  0  0  0  0
   47.8010   34.2170   41.2470 C   0  0  2  0  0  0  0  0  0  0  0  0
   46.2470   35.8090   41.2710 H   0  0  0  0  0  0  0  0  0  0  0  0
   48.6960   36.2820   41.1930 H   0  0  0  0  0  0  0  0  0  0  0  0
   48.9070   35.4160   42.8350 H   0  0  0  0  0  0  0  0  0  0  0  0
   48.2230   33.3050   41.7180 H   0  0  0  0  0  0  0  0  0  0  0  0
   47.8580   34.1830   39.7260 C   0  0  0  0  0  2  0  0  0  0  0  0
   46.7380   33.3470   39.1860 C   0  0  0  0  0  2  0  0  0  0  0  0
   47.1370   32.3740   38.8540 H   0  0  0  0  0  0  0  0  0  0  0  0
   44.7660   36.6440   42.9970 N   0  0  0  0  0  0  0  0  0  0  0  0
   44.5820   37.5400   43.5360 H   0  0  0  0  0  0  0  0  0  0  0  0
   44.5400   36.6520   42.0030 H   0  0  0  0  0  0  0  0  0  0  0  0
  1  7  1  0  0  0  0
  1  6  1  0  0  0  0
  2  1  2  0  0  0  0
  3  2  1  0  0  0  0
  3  4  2  0  0  0  0
  4  5  1  0  0  0  0
  5  8  1  0  0  0  0
  5  6  2  0  0  0  0
  9 12  1  6  0  0  0
  9 10  1  0  0  0  0
  9  3  1  0  0  0  0
 10 14  1  0  0  0  0
 11 15  1  1  0  0  0
 11  9  1  0  0  0  0
 11 10  1  0  0  0  0
 13 10  1  0  0  0  0
 16 11  1  0  0  0  0
 17 16  1  0  0  0  0
 18 17  1  0  0  0  0
 19 20  1  0  0  0  0
 19  2  1  0  0  0  0
 21 19  1  0  0  0  0
M  END
>  <minimizedAffinity>
-4.27550888

>  <minimizedRMSD>
0.656501591

$$$$
