
 OpenBabel03252509233D

 21 22  0  0  1  0  0  0  0  0999 V2000
   44.5510   35.5320   45.0000 C   0  0  0  0  0  0  0  0  0  0  0  0
   45.1920   35.6220   43.7240 C   0  0  0  0  0  0  0  0  0  0  0  0
   46.1620   34.6790   43.5080 C   0  0  0  0  0  0  0  0  0  0  0  0
   46.4930   33.7180   44.4600 N   0  0  0  0  0  0  0  0  0  0  0  0
   45.8550   33.6930   45.6320 C   0  0  0  0  0  0  0  0  0  0  0  0
   44.8800   34.6010   45.9060 N   0  0  0  0  0  0  0  0  0  0  0  0
   43.7760   36.2570   45.2160 H   0  0  0  0  0  0  0  0  0  0  0  0
   46.2150   32.8970   46.2680 H   0  0  0  0  0  0  0  0  0  0  0  0
   46.8250   34.6430   42.1510 C   0  0  1  0  0  0  0  0  0  0  0  0
   48.3090   35.0830   42.2700 C   0  0  0  0  0  0  0  0  0  0  0  0
   47.8080   33.6580   41.8880 C   0  0  2  0  0  0  0  0  0  0  0  0
   46.2860   35.1930   41.3580 H   0  0  0  0  0  0  0  0  0  0  0  0
   48.7360   35.6580   41.4360 H   0  0  0  0  0  0  0  0  0  0  0  0
   48.7550   35.2160   43.2500 H   0  0  0  0  0  0  0  0  0  0  0  0
   48.1610   32.8900   42.6060 H   0  0  0  0  0  0  0  0  0  0  0  0
   48.0280   33.2590   40.4350 C   0  0  0  0  0  2  0  0  0  0  0  0
   48.0230   34.4750   39.5600 C   0  0  0  0  0  2  0  0  0  0  0  0
   47.0650   34.5270   39.0140 H   0  0  0  0  0  0  0  0  0  0  0  0
   44.8760   36.6300   42.7710 N   0  0  0  0  0  0  0  0  0  0  0  0
   44.7750   37.6280   43.1160 H   0  0  0  0  0  0  0  0  0  0  0  0
   44.7370   36.4730   41.7730 H   0  0  0  0  0  0  0  0  0  0  0  0
  1  7  1  0  0  0  0
  1  6  1  0  0  0  0
  2  1  2  0  0  0  0
  3  2  1  0  0  0  0
  3  4  2  0  0  0  0
  4  5  1  0  0  0  0
  5  6  2  0  0  0  0
  5  8  1  0  0  0  0
  9 12  1  6  0  0  0
  9 10  1  0  0  0  0
  9  3  1  0  0  0  0
 10 14  1  0  0  0  0
 11  9  1  0  0  0  0
 11 10  1  0  0  0  0
 11 15  1  1  0  0  0
 13 10  1  0  0  0  0
 16 11  1  0  0  0  0
 17 16  1  0  0  0  0
 18 17  1  0  0  0  0
 19 20  1  0  0  0  0
 19  2  1  0  0  0  0
 21 19  1  0  0  0  0
M  END
>  <minimizedAffinity>
-4.11861944

>  <minimizedRMSD>
0.524673522

$$$$
