
 OpenBabel03252509233D

 21 22  0  0  1  0  0  0  0  0999 V2000
   44.8250   35.1230   44.9780 C   0  0  0  0  0  0  0  0  0  0  0  0
   45.3110   35.5340   43.6970 C   0  0  0  0  0  0  0  0  0  0  0  0
   46.3620   34.7950   43.2240 C   0  0  0  0  0  0  0  0  0  0  0  0
   46.9100   33.7330   43.9400 N   0  0  0  0  0  0  0  0  0  0  0  0
   46.4060   33.4050   45.1320 C   0  0  0  0  0  0  0  0  0  0  0  0
   45.3610   34.0990   45.6560 N   0  0  0  0  0  0  0  0  0  0  0  0
   43.9930   35.6790   45.3930 H   0  0  0  0  0  0  0  0  0  0  0  0
   46.9290   32.5660   45.5700 H   0  0  0  0  0  0  0  0  0  0  0  0
   46.8770   35.1020   41.8370 C   0  0  1  0  0  0  0  0  0  0  0  0
   48.3680   35.5270   41.9040 C   0  0  0  0  0  0  0  0  0  0  0  0
   47.8190   34.2280   41.2410 C   0  0  2  0  0  0  0  0  0  0  0  0
   46.2610   35.8180   41.2630 H   0  0  0  0  0  0  0  0  0  0  0  0
   48.7100   36.2950   41.1950 H   0  0  0  0  0  0  0  0  0  0  0  0
   48.9170   35.4260   42.8340 H   0  0  0  0  0  0  0  0  0  0  0  0
   48.2410   33.3160   41.7100 H   0  0  0  0  0  0  0  0  0  0  0  0
   47.8810   34.1990   39.7190 C   0  0  0  0  0  2  0  0  0  0  0  0
   48.4600   32.8990   39.2520 C   0  0  0  0  0  2  0  0  0  0  0  0
   49.5000   33.0630   38.9210 H   0  0  0  0  0  0  0  0  0  0  0  0
   44.7720   36.6440   42.9870 N   0  0  0  0  0  0  0  0  0  0  0  0
   44.5850   37.5380   43.5270 H   0  0  0  0  0  0  0  0  0  0  0  0
   44.5500   36.6540   41.9920 H   0  0  0  0  0  0  0  0  0  0  0  0
  1  7  1  0  0  0  0
  1  6  1  0  0  0  0
  2  1  2  0  0  0  0
  3  2  1  0  0  0  0
  3  4  2  0  0  0  0
  4  5  1  0  0  0  0
  5  8  1  0  0  0  0
  5  6  2  0  0  0  0
  9 12  1  6  0  0  0
  9 10  1  0  0  0  0
  9  3  1  0  0  0  0
 10 14  1  0  0  0  0
 11 15  1  1  0  0  0
 11  9  1  0  0  0  0
 11 10  1  0  0  0  0
 13 10  1  0  0  0  0
 16 11  1  0  0  0  0
 17 16  1  0  0  0  0
 18 17  1  0  0  0  0
 19 20  1  0  0  0  0
 19  2  1  0  0  0  0
 21 19  1  0  0  0  0
M  END
>  <minimizedAffinity>
-4.23584557

>  <minimizedRMSD>
0.667221725

$$$$
