
 OpenBabel03242518303D

 22 23  0  0  0  0  0  0  0  0999 V2000
   47.2580   34.7790   42.0120 C   0  0  0  0  0  0  0  0  0  0  0  0
   48.1950   35.5400   41.7140 O   0  0  0  0  0  0  0  0  0  0  0  0
   46.4050   34.8300   43.1560 C   0  0  0  0  0  0  0  0  0  0  0  0
   45.5110   35.9000   43.1310 C   0  0  0  0  0  0  0  0  0  0  0  0
   44.6380   36.0210   44.2150 C   0  0  0  0  0  0  0  0  0  0  0  0
   44.7060   35.1040   45.2250 N   0  0  0  0  0  0  0  0  0  0  0  0
   45.5970   34.0870   45.1910 C   0  0  0  0  0  0  0  0  0  0  0  0
   46.4600   33.9400   44.1510 N   0  0  0  0  0  0  0  0  0  0  0  0
   45.4460   36.6300   42.3450 H   0  0  0  0  0  0  0  0  0  0  0  0
   43.9190   36.8290   44.2600 H   0  0  0  0  0  0  0  0  0  0  0  0
   45.6110   33.3810   46.0230 H   0  0  0  0  0  0  0  0  0  0  0  0
   46.9950   33.7310   41.1160 O   0  0  0  0  0  0  0  0  0  0  0  0
   47.3700   33.8360   39.7700 C   0  0  0  0  0  0  0  0  0  0  0  0
   48.3150   34.6130   39.1470 C   0  0  0  0  0  0  0  0  0  0  0  0
   48.2990   34.3450   37.7830 C   0  0  0  0  0  0  0  0  0  0  0  0
   47.3180   33.3930   37.6540 C   0  0  0  0  0  0  0  0  0  0  0  0
   46.7850   33.1060   38.8140 O   0  0  0  0  0  0  0  0  0  0  0  0
   48.9450   35.3090   39.6870 H   0  0  0  0  0  0  0  0  0  0  0  0
   48.9480   34.8220   37.0510 H   0  0  0  0  0  0  0  0  0  0  0  0
   46.9340   32.7900   36.3470 C   0  0  0  0  0  0  0  0  0  0  0  0
   45.4430   32.6220   36.2300 C   0  0  0  0  0  0  0  0  0  0  0  0
   45.2080   32.4960   35.1520 H   0  0  0  0  0  0  0  0  0  0  0  0
  1  3  1  0  0  0  0
  2  1  2  0  0  0  0
  3  8  1  0  0  0  0
  4  3  2  0  0  0  0
  4  5  1  0  0  0  0
  5 10  1  0  0  0  0
  5  6  2  0  0  0  0
  7  6  1  0  0  0  0
  7 11  1  0  0  0  0
  8  7  2  0  0  0  0
  9  4  1  0  0  0  0
 12  1  1  0  0  0  0
 13 12  1  0  0  0  0
 14 18  1  0  0  0  0
 14 13  2  0  0  0  0
 15 14  1  0  0  0  0
 16 15  2  0  0  0  0
 16 17  1  0  0  0  0
 17 13  1  0  0  0  0
 19 15  1  0  0  0  0
 20 16  1  0  0  0  0
 21 20  1  0  0  0  0
 22 21  1  0  0  0  0
M  END
>  <minimizedAffinity>
-4.34546137

>  <minimizedRMSD>
0.467106909

$$$$
