
 OpenBabel03252504453D

 15 15  0  0  0  0  0  0  0  0999 V2000
   37.1870   26.8910   42.2470 C   0  0  0  0  0  0  0  0  0  0  0  0
   37.9680   27.4670   43.2690 C   0  0  0  0  0  0  0  0  0  0  0  0
   38.0240   28.8720   43.3350 C   0  0  0  0  0  0  0  0  0  0  0  0
   37.3210   29.5900   42.4100 N   0  0  0  0  0  0  0  0  0  0  0  0
   36.5870   28.9830   41.4490 C   0  0  0  0  0  0  0  0  0  0  0  0
   36.5190   27.6440   41.3660 N   0  0  0  0  0  0  0  0  0  0  0  0
   38.5080   26.8520   43.9800 H   0  0  0  0  0  0  0  0  0  0  0  0
   38.6140   29.3670   44.1080 H   0  0  0  0  0  0  0  0  0  0  0  0
   37.1340   25.4000   42.1850 C   0  0  0  0  0  0  0  0  0  0  0  0
   37.2400   25.0220   43.2280 H   0  0  0  0  0  0  0  0  0  0  0  0
   38.0680   25.0840   41.6650 H   0  0  0  0  0  0  0  0  0  0  0  0
   36.2100   25.0250   41.7200 H   0  0  0  0  0  0  0  0  0  0  0  0
   35.8600   29.8790   40.4900 C   0  0  0  0  0  2  0  0  0  0  0  0
   34.7260   29.1750   39.8200 C   0  0  0  0  0  2  0  0  0  0  0  0
   34.9070   28.0730   39.7580 H   0  0  0  0  0  0  0  0  0  0  0  0
  1  2  1  0  0  0  0
  2  3  2  0  0  0  0
  2  7  1  0  0  0  0
  3  8  1  0  0  0  0
  4  3  1  0  0  0  0
  5  4  2  0  0  0  0
  6  5  1  0  0  0  0
  6  1  2  0  0  0  0
  9  1  1  0  0  0  0
  9 10  1  0  0  0  0
 11  9  1  0  0  0  0
 12  9  1  0  0  0  0
 13  5  1  0  0  0  0
 14 13  1  0  0  0  0
 15 14  1  0  0  0  0
M  END
>  <minimizedAffinity>
-3.35813332

$$$$

 OpenBabel03252504453D

 15 15  0  0  0  0  0  0  0  0999 V2000
   37.2580   28.5830   42.6900 C   0  0  0  0  0  0  0  0  0  0  0  0
   38.5470   28.9060   43.1610 C   0  0  0  0  0  0  0  0  0  0  0  0
   39.1830   30.0310   42.6040 C   0  0  0  0  0  0  0  0  0  0  0  0
   38.5180   30.7390   41.6430 N   0  0  0  0  0  0  0  0  0  0  0  0
   37.2810   30.3820   41.2280 C   0  0  0  0  0  0  0  0  0  0  0  0
   36.6530   29.3130   41.7460 N   0  0  0  0  0  0  0  0  0  0  0  0
   39.0320   28.3110   43.9260 H   0  0  0  0  0  0  0  0  0  0  0  0
   40.1810   30.3230   42.9340 H   0  0  0  0  0  0  0  0  0  0  0  0
   36.5910   27.3890   43.2870 C   0  0  0  0  0  0  0  0  0  0  0  0
   36.9510   27.3010   44.3390 H   0  0  0  0  0  0  0  0  0  0  0  0
   37.0180   26.5050   42.7590 H   0  0  0  0  0  0  0  0  0  0  0  0
   35.4930   27.4490   43.2490 H   0  0  0  0  0  0  0  0  0  0  0  0
   36.6540   31.2390   40.1670 C   0  0  0  0  0  2  0  0  0  0  0  0
   37.3720   32.5380   40.0030 C   0  0  0  0  0  2  0  0  0  0  0  0
   37.8830   32.8470   40.9490 H   0  0  0  0  0  0  0  0  0  0  0  0
  1  2  1  0  0  0  0
  1  9  1  0  0  0  0
  2  7  1  0  0  0  0
  3  8  1  0  0  0  0
  3  2  2  0  0  0  0
  4  3  1  0  0  0  0
  5  4  2  0  0  0  0
  5  6  1  0  0  0  0
  6  1  2  0  0  0  0
  9 10  1  0  0  0  0
 11  9  1  0  0  0  0
 12  9  1  0  0  0  0
 13  5  1  0  0  0  0
 14 13  1  0  0  0  0
 14 15  1  0  0  0  0
M  END
>  <minimizedAffinity>
-3.35654044

$$$$

 OpenBabel03252504453D

 15 15  0  0  0  0  0  0  0  0999 V2000
   37.3160   29.0590   42.2290 C   0  0  0  0  0  0  0  0  0  0  0  0
   36.2260   28.3420   41.6920 C   0  0  0  0  0  0  0  0  0  0  0  0
   35.4810   28.9580   40.6700 C   0  0  0  0  0  0  0  0  0  0  0  0
   35.8540   30.2070   40.2600 N   0  0  0  0  0  0  0  0  0  0  0  0
   36.9100   30.8480   40.8120 C   0  0  0  0  0  0  0  0  0  0  0  0
   37.6370   30.2800   41.7900 N   0  0  0  0  0  0  0  0  0  0  0  0
   35.9710   27.3530   42.0530 H   0  0  0  0  0  0  0  0  0  0  0  0
   34.6280   28.4470   40.2210 H   0  0  0  0  0  0  0  0  0  0  0  0
   38.1010   28.3970   43.3130 C   0  0  0  0  0  0  0  0  0  0  0  0
   38.0590   27.2990   43.1280 H   0  0  0  0  0  0  0  0  0  0  0  0
   37.5200   28.5560   44.2500 H   0  0  0  0  0  0  0  0  0  0  0  0
   39.1420   28.7500   43.3630 H   0  0  0  0  0  0  0  0  0  0  0  0
   37.2220   32.2150   40.2780 C   0  0  0  0  0  2  0  0  0  0  0  0
   37.2210   32.2440   38.7840 C   0  0  0  0  0  2  0  0  0  0  0  0
   37.4760   31.2430   38.3550 H   0  0  0  0  0  0  0  0  0  0  0  0
  1  9  1  0  0  0  0
  2  7  1  0  0  0  0
  2  1  2  0  0  0  0
  3  2  1  0  0  0  0
  4  3  2  0  0  0  0
  4  5  1  0  0  0  0
  5  6  2  0  0  0  0
  6  1  1  0  0  0  0
  8  3  1  0  0  0  0
  9 12  1  0  0  0  0
  9 11  1  0  0  0  0
 10  9  1  0  0  0  0
 13  5  1  0  0  0  0
 14 13  1  0  0  0  0
 15 14  1  0  0  0  0
M  END
>  <minimizedAffinity>
-3.29520679

$$$$

 OpenBabel03252504453D

 15 15  0  0  0  0  0  0  0  0999 V2000
   36.9100   30.7970   40.8400 C   0  0  0  0  0  0  0  0  0  0  0  0
   35.8510   30.1180   40.2040 C   0  0  0  0  0  0  0  0  0  0  0  0
   35.5090   28.8420   40.6890 C   0  0  0  0  0  0  0  0  0  0  0  0
   36.2200   28.3380   41.7410 N   0  0  0  0  0  0  0  0  0  0  0  0
   37.2290   29.0350   42.3130 C   0  0  0  0  0  0  0  0  0  0  0  0
   37.5730   30.2560   41.8680 N   0  0  0  0  0  0  0  0  0  0  0  0
   35.3170   30.5610   39.3710 H   0  0  0  0  0  0  0  0  0  0  0  0
   34.6970   28.2750   40.2310 H   0  0  0  0  0  0  0  0  0  0  0  0
   37.2650   32.1500   40.3190 C   0  0  0  0  0  0  0  0  0  0  0  0
   36.3280   32.6080   39.9250 H   0  0  0  0  0  0  0  0  0  0  0  0
   37.9020   31.9740   39.4220 H   0  0  0  0  0  0  0  0  0  0  0  0
   37.7300   32.7930   41.0820 H   0  0  0  0  0  0  0  0  0  0  0  0
   37.9360   28.3780   43.4610 C   0  0  0  0  0  2  0  0  0  0  0  0
   39.3120   27.9320   43.0870 C   0  0  0  0  0  2  0  0  0  0  0  0
   39.3890   27.7150   41.9930 H   0  0  0  0  0  0  0  0  0  0  0  0
  1  6  1  0  0  0  0
  2  3  1  0  0  0  0
  2  1  2  0  0  0  0
  3  4  2  0  0  0  0
  4  5  1  0  0  0  0
  5 13  1  0  0  0  0
  6  5  2  0  0  0  0
  7  2  1  0  0  0  0
  8  3  1  0  0  0  0
  9  1  1  0  0  0  0
  9 12  1  0  0  0  0
 10  9  1  0  0  0  0
 11  9  1  0  0  0  0
 14 13  1  0  0  0  0
 15 14  1  0  0  0  0
M  END
>  <minimizedAffinity>
-3.2793076

$$$$

 OpenBabel03252504453D

 15 15  0  0  0  0  0  0  0  0999 V2000
   37.5350   30.7790   41.1080 C   0  0  0  0  0  0  0  0  0  0  0  0
   38.8560   31.2340   41.3020 C   0  0  0  0  0  0  0  0  0  0  0  0
   39.6170   30.6170   42.3120 C   0  0  0  0  0  0  0  0  0  0  0  0
   39.0350   29.6200   43.0420 N   0  0  0  0  0  0  0  0  0  0  0  0
   37.7620   29.2240   42.8120 C   0  0  0  0  0  0  0  0  0  0  0  0
   37.0150   29.7980   41.8530 N   0  0  0  0  0  0  0  0  0  0  0  0
   39.2720   32.0300   40.6950 H   0  0  0  0  0  0  0  0  0  0  0  0
   40.6440   30.9330   42.5020 H   0  0  0  0  0  0  0  0  0  0  0  0
   36.7360   31.4390   40.0340 C   0  0  0  0  0  0  0  0  0  0  0  0
   37.4490   31.7540   39.2370 H   0  0  0  0  0  0  0  0  0  0  0  0
   36.3560   32.3880   40.4760 H   0  0  0  0  0  0  0  0  0  0  0  0
   35.9500   30.7860   39.6240 H   0  0  0  0  0  0  0  0  0  0  0  0
   37.2330   28.1200   43.6800 C   0  0  0  0  0  2  0  0  0  0  0  0
   36.8920   26.9020   42.8840 C   0  0  0  0  0  2  0  0  0  0  0  0
   36.6220   27.1630   41.8300 H   0  0  0  0  0  0  0  0  0  0  0  0
  1  2  2  0  0  0  0
  1  6  1  0  0  0  0
  2  3  1  0  0  0  0
  3  8  1  0  0  0  0
  3  4  2  0  0  0  0
  5  4  1  0  0  0  0
  5 13  1  0  0  0  0
  6  5  2  0  0  0  0
  7  2  1  0  0  0  0
  9 11  1  0  0  0  0
  9  1  1  0  0  0  0
 10  9  1  0  0  0  0
 12  9  1  0  0  0  0
 14 13  1  0  0  0  0
 15 14  1  0  0  0  0
M  END
>  <minimizedAffinity>
-3.23301888

$$$$

 OpenBabel03252504453D

 15 15  0  0  0  0  0  0  0  0999 V2000
   35.5490   29.3210   40.4550 C   0  0  0  0  0  0  0  0  0  0  0  0
   36.2880   30.5160   40.3290 C   0  0  0  0  0  0  0  0  0  0  0  0
   37.3600   30.7160   41.2180 C   0  0  0  0  0  0  0  0  0  0  0  0
   37.6200   29.7470   42.1450 N   0  0  0  0  0  0  0  0  0  0  0  0
   36.8770   28.6200   42.2200 C   0  0  0  0  0  0  0  0  0  0  0  0
   35.8480   28.4060   41.3830 N   0  0  0  0  0  0  0  0  0  0  0  0
   36.0400   31.2540   39.5750 H   0  0  0  0  0  0  0  0  0  0  0  0
   37.9630   31.6230   41.1620 H   0  0  0  0  0  0  0  0  0  0  0  0
   34.4130   29.1170   39.5080 C   0  0  0  0  0  0  0  0  0  0  0  0
   34.6810   29.6320   38.5560 H   0  0  0  0  0  0  0  0  0  0  0  0
   33.5600   29.7020   39.9240 H   0  0  0  0  0  0  0  0  0  0  0  0
   34.1880   28.0540   39.3340 H   0  0  0  0  0  0  0  0  0  0  0  0
   37.2600   27.6300   43.2810 C   0  0  0  0  0  2  0  0  0  0  0  0
   38.7430   27.5080   43.4200 C   0  0  0  0  0  2  0  0  0  0  0  0
   39.2660   27.7560   42.4640 H   0  0  0  0  0  0  0  0  0  0  0  0
  1  6  1  0  0  0  0
  2  1  2  0  0  0  0
  2  3  1  0  0  0  0
  3  4  2  0  0  0  0
  4  5  1  0  0  0  0
  5 13  1  0  0  0  0
  6  5  2  0  0  0  0
  7  2  1  0  0  0  0
  8  3  1  0  0  0  0
  9 11  1  0  0  0  0
  9  1  1  0  0  0  0
 10  9  1  0  0  0  0
 12  9  1  0  0  0  0
 13 14  1  0  0  0  0
 15 14  1  0  0  0  0
M  END
>  <minimizedAffinity>
-3.23039174

$$$$

 OpenBabel03252504453D

 15 15  0  0  0  0  0  0  0  0999 V2000
   37.7290   25.1610   42.2010 C   0  0  0  0  0  0  0  0  0  0  0  0
   38.9520   24.6140   42.6430 C   0  0  0  0  0  0  0  0  0  0  0  0
   39.7960   25.4380   43.4090 C   0  0  0  0  0  0  0  0  0  0  0  0
   39.3850   26.7130   43.6780 N   0  0  0  0  0  0  0  0  0  0  0  0
   38.2010   27.1850   43.2270 C   0  0  0  0  0  0  0  0  0  0  0  0
   37.3770   26.4170   42.4940 N   0  0  0  0  0  0  0  0  0  0  0  0
   39.2320   23.5950   42.4020 H   0  0  0  0  0  0  0  0  0  0  0  0
   40.7530   25.0620   43.7750 H   0  0  0  0  0  0  0  0  0  0  0  0
   36.8400   24.2790   41.3880 C   0  0  0  0  0  0  0  0  0  0  0  0
   37.0090   23.2320   41.7330 H   0  0  0  0  0  0  0  0  0  0  0  0
   37.2430   24.3120   40.3500 H   0  0  0  0  0  0  0  0  0  0  0  0
   35.7770   24.5550   41.4680 H   0  0  0  0  0  0  0  0  0  0  0  0
   37.8590   28.6010   43.5880 C   0  0  0  0  0  2  0  0  0  0  0  0
   37.4090   29.3860   42.3980 C   0  0  0  0  0  2  0  0  0  0  0  0
   37.8490   28.9840   41.4520 H   0  0  0  0  0  0  0  0  0  0  0  0
  1  6  2  0  0  0  0
  1  2  1  0  0  0  0
  2  3  2  0  0  0  0
  3  4  1  0  0  0  0
  3  8  1  0  0  0  0
  5 13  1  0  0  0  0
  5  4  2  0  0  0  0
  6  5  1  0  0  0  0
  7  2  1  0  0  0  0
  9 12  1  0  0  0  0
  9 10  1  0  0  0  0
  9  1  1  0  0  0  0
 11  9  1  0  0  0  0
 14 13  1  0  0  0  0
 15 14  1  0  0  0  0
M  END
>  <minimizedAffinity>
-3.21115756

$$$$

 OpenBabel03252504453D

 15 15  0  0  0  0  0  0  0  0999 V2000
   38.6160   31.8320   40.9110 C   0  0  0  0  0  0  0  0  0  0  0  0
   37.2820   31.9300   40.4620 C   0  0  0  0  0  0  0  0  0  0  0  0
   36.3700   30.9570   40.9110 C   0  0  0  0  0  0  0  0  0  0  0  0
   36.8280   29.9790   41.7480 N   0  0  0  0  0  0  0  0  0  0  0  0
   38.1200   29.9340   42.1460 C   0  0  0  0  0  0  0  0  0  0  0  0
   39.0090   30.8520   41.7320 N   0  0  0  0  0  0  0  0  0  0  0  0
   36.9690   32.7260   39.7970 H   0  0  0  0  0  0  0  0  0  0  0  0
   35.3270   30.9880   40.5930 H   0  0  0  0  0  0  0  0  0  0  0  0
   39.5760   32.8690   40.4300 C   0  0  0  0  0  0  0  0  0  0  0  0
   38.9970   33.8100   40.2790 H   0  0  0  0  0  0  0  0  0  0  0  0
   39.8840   32.5500   39.4080 H   0  0  0  0  0  0  0  0  0  0  0  0
   40.4150   33.0290   41.1250 H   0  0  0  0  0  0  0  0  0  0  0  0
   38.5020   28.8130   43.0670 C   0  0  0  0  0  2  0  0  0  0  0  0
   37.3050   28.1600   43.6780 C   0  0  0  0  0  2  0  0  0  0  0  0
   36.4440   28.8700   43.7500 H   0  0  0  0  0  0  0  0  0  0  0  0
  1  6  1  0  0  0  0
  2  1  2  0  0  0  0
  2  3  1  0  0  0  0
  3  4  2  0  0  0  0
  4  5  1  0  0  0  0
  5 13  1  0  0  0  0
  6  5  2  0  0  0  0
  7  2  1  0  0  0  0
  8  3  1  0  0  0  0
  9  1  1  0  0  0  0
  9 12  1  0  0  0  0
 10  9  1  0  0  0  0
 11  9  1  0  0  0  0
 13 14  1  0  0  0  0
 14 15  1  0  0  0  0
M  END
>  <minimizedAffinity>
-3.21005392

$$$$

 OpenBabel03252504453D

 15 15  0  0  0  0  0  0  0  0999 V2000
   38.3750   27.2720   43.1370 C   0  0  0  0  0  0  0  0  0  0  0  0
   39.5820   26.7830   43.6790 C   0  0  0  0  0  0  0  0  0  0  0  0
   39.8890   25.4260   43.4670 C   0  0  0  0  0  0  0  0  0  0  0  0
   39.0050   24.6670   42.7530 N   0  0  0  0  0  0  0  0  0  0  0  0
   37.8610   25.1910   42.2560 C   0  0  0  0  0  0  0  0  0  0  0  0
   37.5460   26.4830   42.4460 N   0  0  0  0  0  0  0  0  0  0  0  0
   40.2500   27.4270   44.2390 H   0  0  0  0  0  0  0  0  0  0  0  0
   40.8100   24.9980   43.8660 H   0  0  0  0  0  0  0  0  0  0  0  0
   38.0580   28.7130   43.3670 C   0  0  0  0  0  0  0  0  0  0  0  0
   39.0280   29.2600   43.4220 H   0  0  0  0  0  0  0  0  0  0  0  0
   37.6330   28.7710   44.3950 H   0  0  0  0  0  0  0  0  0  0  0  0
   37.4080   29.1370   42.5860 H   0  0  0  0  0  0  0  0  0  0  0  0
   36.9710   24.2570   41.4890 C   0  0  0  0  0  2  0  0  0  0  0  0
   37.7490   23.1800   40.8060 C   0  0  0  0  0  2  0  0  0  0  0  0
   38.7910   23.5120   40.5740 H   0  0  0  0  0  0  0  0  0  0  0  0
  1  9  1  0  0  0  0
  1  2  1  0  0  0  0
  2  7  1  0  0  0  0
  3  2  2  0  0  0  0
  3  8  1  0  0  0  0
  4  3  1  0  0  0  0
  5  6  1  0  0  0  0
  5  4  2  0  0  0  0
  6  1  2  0  0  0  0
  9 10  1  0  0  0  0
  9 11  1  0  0  0  0
 12  9  1  0  0  0  0
 13  5  1  0  0  0  0
 14 13  1  0  0  0  0
 15 14  1  0  0  0  0
M  END
>  <minimizedAffinity>
-3.20924878

$$$$
