
 OpenBabel03242518043D

 14 14  0  0  0  0  0  0  0  0999 V2000
   45.0320   35.7150   43.8530 C   0  0  0  0  0  0  0  0  0  0  0  0
   46.0040   34.8030   43.3890 C   0  0  0  0  0  0  0  0  0  0  0  0
   46.4300   33.7610   44.2300 C   0  0  0  0  0  0  0  0  0  0  0  0
   45.8620   33.7100   45.4630 N   0  0  0  0  0  0  0  0  0  0  0  0
   44.9370   34.5810   45.8990 C   0  0  0  0  0  0  0  0  0  0  0  0
   44.5310   35.5790   45.0840 N   0  0  0  0  0  0  0  0  0  0  0  0
   44.6230   36.7530   42.9900 N   0  0  0  0  0  0  0  0  0  0  0  0
   47.1850   33.0680   43.8600 H   0  0  0  0  0  0  0  0  0  0  0  0
   44.5540   34.4370   46.9060 H   0  0  0  0  0  0  0  0  0  0  0  0
   45.0210   37.6880   42.7430 H   0  0  0  0  0  0  0  0  0  0  0  0
   43.7200   36.3340   42.6030 H   0  0  0  0  0  0  0  0  0  0  0  0
   46.5300   34.9960   42.0000 C   0  0  0  0  0  0  0  0  0  0  0  0
   48.0040   35.2260   41.9540 C   0  0  0  0  0  0  0  0  0  0  0  0
   48.5180   35.2160   42.9330 H   0  0  0  0  0  0  0  0  0  0  0  0
  1  6  1  0  0  0  0
  2  1  2  0  0  0  0
  2  3  1  0  0  0  0
  3  4  2  0  0  0  0
  4  5  1  0  0  0  0
  5  9  1  0  0  0  0
  6  5  2  0  0  0  0
  7  1  1  0  0  0  0
  8  3  1  0  0  0  0
 10  7  1  0  0  0  0
 11  7  1  0  0  0  0
 12  2  1  0  0  0  0
 13 12  1  0  0  0  0
 13 14  1  0  0  0  0
M  END
>  <minimizedAffinity>
-3.68834949

>  <minimizedRMSD>
0.937850356

$$$$
