
 OpenBabel03252504153D

 29 30  0  0  0  0  0  0  0  0999 V2000
   37.0720   27.0670   40.7880 C   0  0  0  0  0  0  0  0  0  0  0  0
   37.3090   28.1040   41.6840 C   0  0  0  0  0  0  0  0  0  0  0  0
   36.7350   29.3490   41.3840 C   0  0  0  0  0  0  0  0  0  0  0  0
   35.9910   29.4930   40.2590 N   0  0  0  0  0  0  0  0  0  0  0  0
   35.7960   28.4470   39.4250 C   0  0  0  0  0  0  0  0  0  0  0  0
   36.3310   27.2350   39.6800 N   0  0  0  0  0  0  0  0  0  0  0  0
   36.9120   30.1630   42.0750 H   0  0  0  0  0  0  0  0  0  0  0  0
   33.0940   29.3020   39.4490 F   0  0  0  0  0  0  0  0  0  0  0  0
   33.6790   29.0010   38.2420 C   0  0  0  0  0  0  0  0  0  0  0  0
   34.9910   28.5810   38.2010 C   0  0  0  0  0  0  0  0  0  0  0  0
   35.5170   28.2920   36.9450 C   0  0  0  0  0  0  0  0  0  0  0  0
   34.7420   28.4250   35.8110 C   0  0  0  0  0  0  0  0  0  0  0  0
   33.4220   28.8530   35.9150 C   0  0  0  0  0  0  0  0  0  0  0  0
   32.8680   29.1490   37.1450 C   0  0  0  0  0  0  0  0  0  0  0  0
   36.5410   27.9600   36.8750 H   0  0  0  0  0  0  0  0  0  0  0  0
   35.1420   28.2020   34.8230 H   0  0  0  0  0  0  0  0  0  0  0  0
   32.8220   28.9540   35.0140 H   0  0  0  0  0  0  0  0  0  0  0  0
   31.4590   29.6120   37.2740 C   0  0  0  0  0  2  0  0  0  0  0  0
   31.0260   30.4450   36.1040 C   0  0  0  0  0  2  0  0  0  0  0  0
   30.3780   29.9000   35.3910 H   0  0  0  0  0  0  0  0  0  0  0  0
   38.1320   27.8630   42.8870 C   0  0  0  0  0  0  0  0  0  0  0  0
   39.4320   27.5980   42.5250 F   0  0  0  0  0  0  0  0  0  0  0  0
   38.1460   29.0330   43.6290 F   0  0  0  0  0  0  0  0  0  0  0  0
   37.6980   26.8440   43.6760 F   0  0  0  0  0  0  0  0  0  0  0  0
   37.6310   25.8610   41.0810 O   0  0  0  0  0  0  0  0  0  0  0  0
   36.9530   24.6700   41.3870 C   0  0  0  0  0  0  0  0  0  0  0  0
   37.9110   23.6500   41.4610 F   0  0  0  0  0  0  0  0  0  0  0  0
   36.2480   24.8150   42.5510 F   0  0  0  0  0  0  0  0  0  0  0  0
   36.1460   24.3110   40.3290 F   0  0  0  0  0  0  0  0  0  0  0  0
  1 25  1  0  0  0  0
  1  2  1  0  0  0  0
  2 21  1  0  0  0  0
  3  2  2  0  0  0  0
  3  7  1  0  0  0  0
  4  3  1  0  0  0  0
  5  6  1  0  0  0  0
  5  4  2  0  0  0  0
  6  1  2  0  0  0  0
  9  8  1  0  0  0  0
 10  9  1  0  0  0  0
 10  5  1  0  0  0  0
 11 10  2  0  0  0  0
 12 13  2  0  0  0  0
 12 11  1  0  0  0  0
 13 14  1  0  0  0  0
 14 18  1  0  0  0  0
 14  9  2  0  0  0  0
 15 11  1  0  0  0  0
 16 12  1  0  0  0  0
 17 13  1  0  0  0  0
 19 18  1  0  0  0  0
 20 19  1  0  0  0  0
 21 23  1  0  0  0  0
 21 24  1  0  0  0  0
 22 21  1  0  0  0  0
 25 26  1  0  0  0  0
 26 27  1  0  0  0  0
 26 28  1  0  0  0  0
 29 26  1  0  0  0  0
M  END
>  <minimizedAffinity>
-5.66302395

$$$$

 OpenBabel03252504153D

 29 30  0  0  0  0  0  0  0  0999 V2000
   39.0270   31.2510   39.6030 C   0  0  0  0  0  0  0  0  0  0  0  0
   39.9330   32.0200   40.3270 C   0  0  0  0  0  0  0  0  0  0  0  0
   40.1890   31.6260   41.6490 C   0  0  0  0  0  0  0  0  0  0  0  0
   39.5620   30.5380   42.1600 N   0  0  0  0  0  0  0  0  0  0  0  0
   38.6910   29.8290   41.4080 C   0  0  0  0  0  0  0  0  0  0  0  0
   38.4190   30.1780   40.1330 N   0  0  0  0  0  0  0  0  0  0  0  0
   40.8930   32.2170   42.2220 H   0  0  0  0  0  0  0  0  0  0  0  0
   38.4910   27.3910   39.9770 F   0  0  0  0  0  0  0  0  0  0  0  0
   37.9190   27.4720   41.2250 C   0  0  0  0  0  0  0  0  0  0  0  0
   38.0010   28.6460   41.9420 C   0  0  0  0  0  0  0  0  0  0  0  0
   37.3980   28.6560   43.1970 C   0  0  0  0  0  0  0  0  0  0  0  0
   36.7550   27.5330   43.6770 C   0  0  0  0  0  0  0  0  0  0  0  0
   36.7050   26.3760   42.9060 C   0  0  0  0  0  0  0  0  0  0  0  0
   37.2930   26.3300   41.6570 C   0  0  0  0  0  0  0  0  0  0  0  0
   37.4410   29.5590   43.7860 H   0  0  0  0  0  0  0  0  0  0  0  0
   36.2800   27.5290   44.6560 H   0  0  0  0  0  0  0  0  0  0  0  0
   36.1960   25.4980   43.2950 H   0  0  0  0  0  0  0  0  0  0  0  0
   37.2530   25.0990   40.8210 C   0  0  0  0  0  2  0  0  0  0  0  0
   37.5290   23.8600   41.6210 C   0  0  0  0  0  2  0  0  0  0  0  0
   36.6190   23.2730   41.8510 H   0  0  0  0  0  0  0  0  0  0  0  0
   40.5740   33.1910   39.6940 C   0  0  0  0  0  0  0  0  0  0  0  0
   39.6330   34.1580   39.4250 F   0  0  0  0  0  0  0  0  0  0  0  0
   41.4620   33.7320   40.6100 F   0  0  0  0  0  0  0  0  0  0  0  0
   41.2400   32.9200   38.5410 F   0  0  0  0  0  0  0  0  0  0  0  0
   38.7800   31.6370   38.3210 O   0  0  0  0  0  0  0  0  0  0  0  0
   37.5300   31.9440   37.7610 C   0  0  0  0  0  0  0  0  0  0  0  0
   37.0010   33.0240   38.4800 F   0  0  0  0  0  0  0  0  0  0  0  0
   37.6670   32.2180   36.4270 F   0  0  0  0  0  0  0  0  0  0  0  0
   36.6510   30.9090   37.9930 F   0  0  0  0  0  0  0  0  0  0  0  0
  1  6  2  0  0  0  0
  1  2  1  0  0  0  0
  2  3  2  0  0  0  0
  3  4  1  0  0  0  0
  3  7  1  0  0  0  0
  5 10  1  0  0  0  0
  5  4  2  0  0  0  0
  6  5  1  0  0  0  0
  8  9  1  0  0  0  0
  9 14  2  0  0  0  0
  9 10  1  0  0  0  0
 10 11  2  0  0  0  0
 11 12  1  0  0  0  0
 11 15  1  0  0  0  0
 12 16  1  0  0  0  0
 13 17  1  0  0  0  0
 13 12  2  0  0  0  0
 14 13  1  0  0  0  0
 18 19  1  0  0  0  0
 18 14  1  0  0  0  0
 19 20  1  0  0  0  0
 21  2  1  0  0  0  0
 21 23  1  0  0  0  0
 22 21  1  0  0  0  0
 24 21  1  0  0  0  0
 25  1  1  0  0  0  0
 26 29  1  0  0  0  0
 26 25  1  0  0  0  0
 26 27  1  0  0  0  0
 28 26  1  0  0  0  0
M  END
>  <minimizedAffinity>
-5.52480268

$$$$

 OpenBabel03252504153D

 29 30  0  0  0  0  0  0  0  0999 V2000
   37.7070   28.2770   40.7680 C   0  0  0  0  0  0  0  0  0  0  0  0
   37.9760   29.4870   41.4000 C   0  0  0  0  0  0  0  0  0  0  0  0
   37.4380   30.6440   40.8180 C   0  0  0  0  0  0  0  0  0  0  0  0
   36.6940   30.5450   39.6890 N   0  0  0  0  0  0  0  0  0  0  0  0
   36.4650   29.3410   39.1190 C   0  0  0  0  0  0  0  0  0  0  0  0
   36.9660   28.2060   39.6500 N   0  0  0  0  0  0  0  0  0  0  0  0
   37.6410   31.5900   41.3030 H   0  0  0  0  0  0  0  0  0  0  0  0
   37.5500   29.6830   36.5240 F   0  0  0  0  0  0  0  0  0  0  0  0
   36.2140   29.3820   36.6450 C   0  0  0  0  0  0  0  0  0  0  0  0
   35.6600   29.2120   37.8950 C   0  0  0  0  0  0  0  0  0  0  0  0
   34.3010   28.9110   37.9410 C   0  0  0  0  0  0  0  0  0  0  0  0
   33.5670   28.7960   36.7790 C   0  0  0  0  0  0  0  0  0  0  0  0
   34.1820   28.9790   35.5450 C   0  0  0  0  0  0  0  0  0  0  0  0
   35.5280   29.2790   35.4610 C   0  0  0  0  0  0  0  0  0  0  0  0
   33.8330   28.7720   38.9040 H   0  0  0  0  0  0  0  0  0  0  0  0
   32.5040   28.5610   36.8030 H   0  0  0  0  0  0  0  0  0  0  0  0
   33.5930   28.8860   34.6360 H   0  0  0  0  0  0  0  0  0  0  0  0
   36.2030   29.4730   34.1490 C   0  0  0  0  0  2  0  0  0  0  0  0
   36.1960   30.9090   33.7140 C   0  0  0  0  0  2  0  0  0  0  0  0
   37.1690   31.4170   33.8560 H   0  0  0  0  0  0  0  0  0  0  0  0
   38.7970   29.5060   42.6290 C   0  0  0  0  0  0  0  0  0  0  0  0
   39.2000   30.7920   42.9080 F   0  0  0  0  0  0  0  0  0  0  0  0
   37.9920   29.0950   43.6790 F   0  0  0  0  0  0  0  0  0  0  0  0
   39.9030   28.7180   42.5850 F   0  0  0  0  0  0  0  0  0  0  0  0
   38.2310   27.1560   41.3340 O   0  0  0  0  0  0  0  0  0  0  0  0
   37.5330   26.1600   42.0330 C   0  0  0  0  0  0  0  0  0  0  0  0
   36.5480   26.7980   42.8010 F   0  0  0  0  0  0  0  0  0  0  0  0
   37.0070   25.2490   41.1570 F   0  0  0  0  0  0  0  0  0  0  0  0
   38.3660   25.5720   42.9590 F   0  0  0  0  0  0  0  0  0  0  0  0
  1 25  1  0  0  0  0
  1  2  1  0  0  0  0
  2 21  1  0  0  0  0
  3  7  1  0  0  0  0
  3  2  2  0  0  0  0
  4  3  1  0  0  0  0
  5  6  1  0  0  0  0
  5  4  2  0  0  0  0
  6  1  2  0  0  0  0
  8  9  1  0  0  0  0
  9 10  1  0  0  0  0
 10 11  2  0  0  0  0
 10  5  1  0  0  0  0
 11 15  1  0  0  0  0
 12 16  1  0  0  0  0
 12 11  1  0  0  0  0
 13 12  2  0  0  0  0
 14 13  1  0  0  0  0
 14  9  2  0  0  0  0
 17 13  1  0  0  0  0
 18 14  1  0  0  0  0
 19 20  1  0  0  0  0
 19 18  1  0  0  0  0
 21 22  1  0  0  0  0
 21 23  1  0  0  0  0
 24 21  1  0  0  0  0
 25 26  1  0  0  0  0
 26 27  1  0  0  0  0
 26 29  1  0  0  0  0
 28 26  1  0  0  0  0
M  END
>  <minimizedAffinity>
-5.46879435

$$$$

 OpenBabel03252504153D

 29 30  0  0  0  0  0  0  0  0999 V2000
   37.6670   28.3140   40.7540 C   0  0  0  0  0  0  0  0  0  0  0  0
   37.9420   29.5180   41.3960 C   0  0  0  0  0  0  0  0  0  0  0  0
   37.4270   30.6840   40.8100 C   0  0  0  0  0  0  0  0  0  0  0  0
   36.6990   30.5990   39.6690 N   0  0  0  0  0  0  0  0  0  0  0  0
   36.4640   29.4000   39.0910 C   0  0  0  0  0  0  0  0  0  0  0  0
   36.9430   28.2570   39.6250 N   0  0  0  0  0  0  0  0  0  0  0  0
   37.6340   31.6260   41.3020 H   0  0  0  0  0  0  0  0  0  0  0  0
   33.6400   29.1650   39.0860 F   0  0  0  0  0  0  0  0  0  0  0  0
   34.3030   29.1730   37.8810 C   0  0  0  0  0  0  0  0  0  0  0  0
   35.6760   29.2850   37.8550 C   0  0  0  0  0  0  0  0  0  0  0  0
   36.2800   29.2850   36.6000 C   0  0  0  0  0  0  0  0  0  0  0  0
   35.5190   29.1750   35.4540 C   0  0  0  0  0  0  0  0  0  0  0  0
   34.1350   29.0650   35.5440 C   0  0  0  0  0  0  0  0  0  0  0  0
   33.5030   29.0620   36.7720 C   0  0  0  0  0  0  0  0  0  0  0  0
   37.3540   29.3700   36.5410 H   0  0  0  0  0  0  0  0  0  0  0  0
   35.9800   29.1740   34.4680 H   0  0  0  0  0  0  0  0  0  0  0  0
   33.5470   28.9790   34.6340 H   0  0  0  0  0  0  0  0  0  0  0  0
   32.0230   28.9500   36.8860 C   0  0  0  0  0  2  0  0  0  0  0  0
   31.3270   30.2340   36.5450 C   0  0  0  0  0  2  0  0  0  0  0  0
   30.8660   30.2310   35.5390 H   0  0  0  0  0  0  0  0  0  0  0  0
   38.7440   29.5220   42.6370 C   0  0  0  0  0  0  0  0  0  0  0  0
   39.1920   30.7950   42.9050 F   0  0  0  0  0  0  0  0  0  0  0  0
   37.9080   29.1570   43.6800 F   0  0  0  0  0  0  0  0  0  0  0  0
   39.8200   28.6920   42.6200 F   0  0  0  0  0  0  0  0  0  0  0  0
   38.1690   27.1840   41.3240 O   0  0  0  0  0  0  0  0  0  0  0  0
   37.4650   26.2410   42.0870 C   0  0  0  0  0  0  0  0  0  0  0  0
   38.3880   25.6150   42.9360 F   0  0  0  0  0  0  0  0  0  0  0  0
   36.4510   26.8530   42.7740 F   0  0  0  0  0  0  0  0  0  0  0  0
   37.0060   25.2310   41.2700 F   0  0  0  0  0  0  0  0  0  0  0  0
  1 25  1  0  0  0  0
  1  2  1  0  0  0  0
  2 21  1  0  0  0  0
  3  7  1  0  0  0  0
  3  2  2  0  0  0  0
  4  3  1  0  0  0  0
  5  6  1  0  0  0  0
  5  4  2  0  0  0  0
  6  1  2  0  0  0  0
  9  8  1  0  0  0  0
 10  9  1  0  0  0  0
 10  5  1  0  0  0  0
 11 10  2  0  0  0  0
 12 13  2  0  0  0  0
 12 11  1  0  0  0  0
 13 14  1  0  0  0  0
 14 18  1  0  0  0  0
 14  9  2  0  0  0  0
 15 11  1  0  0  0  0
 16 12  1  0  0  0  0
 17 13  1  0  0  0  0
 19 18  1  0  0  0  0
 20 19  1  0  0  0  0
 21 22  1  0  0  0  0
 21 23  1  0  0  0  0
 24 21  1  0  0  0  0
 25 26  1  0  0  0  0
 26 28  1  0  0  0  0
 26 27  1  0  0  0  0
 29 26  1  0  0  0  0
M  END
>  <minimizedAffinity>
-5.42908192

$$$$

 OpenBabel03252504153D

 29 30  0  0  0  0  0  0  0  0999 V2000
   38.2170   29.3850   42.3690 C   0  0  0  0  0  0  0  0  0  0  0  0
   38.4850   28.0410   42.6130 C   0  0  0  0  0  0  0  0  0  0  0  0
   39.8280   27.6840   42.8060 C   0  0  0  0  0  0  0  0  0  0  0  0
   40.7920   28.6360   42.7500 N   0  0  0  0  0  0  0  0  0  0  0  0
   40.4710   29.9270   42.5090 C   0  0  0  0  0  0  0  0  0  0  0  0
   39.1910   30.3080   42.3180 N   0  0  0  0  0  0  0  0  0  0  0  0
   40.0480   26.6410   42.9980 H   0  0  0  0  0  0  0  0  0  0  0  0
   40.5140   31.9140   40.4900 F   0  0  0  0  0  0  0  0  0  0  0  0
   41.4970   31.9300   41.4510 C   0  0  0  0  0  0  0  0  0  0  0  0
   41.5010   30.9740   42.4440 C   0  0  0  0  0  0  0  0  0  0  0  0
   42.5270   31.0510   43.3830 C   0  0  0  0  0  0  0  0  0  0  0  0
   43.4820   32.0440   43.3000 C   0  0  0  0  0  0  0  0  0  0  0  0
   43.4260   32.9810   42.2730 C   0  0  0  0  0  0  0  0  0  0  0  0
   42.4220   32.9350   41.3250 C   0  0  0  0  0  0  0  0  0  0  0  0
   42.5610   30.3180   44.1740 H   0  0  0  0  0  0  0  0  0  0  0  0
   44.2890   32.1140   44.0280 H   0  0  0  0  0  0  0  0  0  0  0  0
   44.1850   33.7580   42.2200 H   0  0  0  0  0  0  0  0  0  0  0  0
   42.3450   33.9330   40.2230 C   0  0  0  0  0  2  0  0  0  0  0  0
   43.4700   33.7840   39.2420 C   0  0  0  0  0  2  0  0  0  0  0  0
   43.1700   33.2890   38.2990 H   0  0  0  0  0  0  0  0  0  0  0  0
   37.3750   27.0670   42.6590 C   0  0  0  0  0  0  0  0  0  0  0  0
   36.7470   27.0080   41.4370 F   0  0  0  0  0  0  0  0  0  0  0  0
   37.9220   25.8160   42.8960 F   0  0  0  0  0  0  0  0  0  0  0  0
   36.4330   27.3250   43.6050 F   0  0  0  0  0  0  0  0  0  0  0  0
   36.9140   29.7280   42.1810 O   0  0  0  0  0  0  0  0  0  0  0  0
   36.3310   30.2060   40.9970 C   0  0  0  0  0  0  0  0  0  0  0  0
   35.1010   29.5520   40.8410 F   0  0  0  0  0  0  0  0  0  0  0  0
   36.1980   31.5670   41.0530 F   0  0  0  0  0  0  0  0  0  0  0  0
   37.0790   29.7990   39.9140 F   0  0  0  0  0  0  0  0  0  0  0  0
  1  2  1  0  0  0  0
  2 21  1  0  0  0  0
  2  3  2  0  0  0  0
  3  7  1  0  0  0  0
  4  3  1  0  0  0  0
  5  4  2  0  0  0  0
  6  1  2  0  0  0  0
  6  5  1  0  0  0  0
  8  9  1  0  0  0  0
  9 10  1  0  0  0  0
 10  5  1  0  0  0  0
 10 11  2  0  0  0  0
 11 15  1  0  0  0  0
 12 11  1  0  0  0  0
 12 16  1  0  0  0  0
 13 12  2  0  0  0  0
 14  9  2  0  0  0  0
 14 13  1  0  0  0  0
 17 13  1  0  0  0  0
 18 14  1  0  0  0  0
 19 18  1  0  0  0  0
 20 19  1  0  0  0  0
 21 23  1  0  0  0  0
 21 24  1  0  0  0  0
 22 21  1  0  0  0  0
 25  1  1  0  0  0  0
 26 28  1  0  0  0  0
 26 25  1  0  0  0  0
 27 26  1  0  0  0  0
 29 26  1  0  0  0  0
M  END
>  <minimizedAffinity>
-5.40586185

$$$$

 OpenBabel03252504153D

 29 30  0  0  0  0  0  0  0  0999 V2000
   38.7900   30.3970   40.8010 C   0  0  0  0  0  0  0  0  0  0  0  0
   37.7930   31.2890   40.4200 C   0  0  0  0  0  0  0  0  0  0  0  0
   36.5070   30.7610   40.2240 C   0  0  0  0  0  0  0  0  0  0  0  0
   36.2890   29.4350   40.4070 N   0  0  0  0  0  0  0  0  0  0  0  0
   37.2990   28.6170   40.7780 C   0  0  0  0  0  0  0  0  0  0  0  0
   38.5480   29.0870   40.9760 N   0  0  0  0  0  0  0  0  0  0  0  0
   35.7230   31.4470   39.9290 H   0  0  0  0  0  0  0  0  0  0  0  0
   36.6080   26.8530   38.6710 F   0  0  0  0  0  0  0  0  0  0  0  0
   36.7490   26.3410   39.9390 C   0  0  0  0  0  0  0  0  0  0  0  0
   37.0840   27.1770   40.9830 C   0  0  0  0  0  0  0  0  0  0  0  0
   37.2080   26.5890   42.2390 C   0  0  0  0  0  0  0  0  0  0  0  0
   37.0010   25.2350   42.4060 C   0  0  0  0  0  0  0  0  0  0  0  0
   36.6650   24.4420   41.3130 C   0  0  0  0  0  0  0  0  0  0  0  0
   36.5330   24.9910   40.0530 C   0  0  0  0  0  0  0  0  0  0  0  0
   37.4680   27.2140   43.0800 H   0  0  0  0  0  0  0  0  0  0  0  0
   37.0950   24.7650   43.3830 H   0  0  0  0  0  0  0  0  0  0  0  0
   36.5040   23.3770   41.4580 H   0  0  0  0  0  0  0  0  0  0  0  0
   36.1780   24.1560   38.8720 C   0  0  0  0  0  2  0  0  0  0  0  0
   34.9800   23.2900   39.1280 C   0  0  0  0  0  2  0  0  0  0  0  0
   34.0540   23.6690   38.6570 H   0  0  0  0  0  0  0  0  0  0  0  0
   38.1150   32.7200   40.2430 C   0  0  0  0  0  0  0  0  0  0  0  0
   39.0410   32.8740   39.2370 F   0  0  0  0  0  0  0  0  0  0  0  0
   36.9590   33.3640   39.8330 F   0  0  0  0  0  0  0  0  0  0  0  0
   38.5940   33.3360   41.3550 F   0  0  0  0  0  0  0  0  0  0  0  0
   40.0360   30.9110   40.9890 O   0  0  0  0  0  0  0  0  0  0  0  0
   40.7210   31.0350   42.2080 C   0  0  0  0  0  0  0  0  0  0  0  0
   41.6640   32.0610   42.0550 F   0  0  0  0  0  0  0  0  0  0  0  0
   39.8370   31.2820   43.2230 F   0  0  0  0  0  0  0  0  0  0  0  0
   41.4740   29.9040   42.4350 F   0  0  0  0  0  0  0  0  0  0  0  0
  1  6  1  0  0  0  0
  1 25  1  0  0  0  0
  2  1  2  0  0  0  0
  3  4  2  0  0  0  0
  3  2  1  0  0  0  0
  4  5  1  0  0  0  0
  5  6  2  0  0  0  0
  5 10  1  0  0  0  0
  7  3  1  0  0  0  0
  8  9  1  0  0  0  0
  9 14  2  0  0  0  0
  9 10  1  0  0  0  0
 10 11  2  0  0  0  0
 11 12  1  0  0  0  0
 11 15  1  0  0  0  0
 12 16  1  0  0  0  0
 13 17  1  0  0  0  0
 13 12  2  0  0  0  0
 14 13  1  0  0  0  0
 18 19  1  0  0  0  0
 18 14  1  0  0  0  0
 20 19  1  0  0  0  0
 21  2  1  0  0  0  0
 21 24  1  0  0  0  0
 22 21  1  0  0  0  0
 23 21  1  0  0  0  0
 25 26  1  0  0  0  0
 26 29  1  0  0  0  0
 26 28  1  0  0  0  0
 27 26  1  0  0  0  0
M  END
>  <minimizedAffinity>
-5.31562138

$$$$

 OpenBabel03252504153D

 29 30  0  0  0  0  0  0  0  0999 V2000
   38.0220   26.4660   41.4210 C   0  0  0  0  0  0  0  0  0  0  0  0
   37.1350   25.6310   40.7480 C   0  0  0  0  0  0  0  0  0  0  0  0
   36.6580   26.0770   39.5060 C   0  0  0  0  0  0  0  0  0  0  0  0
   37.0680   27.2740   39.0180 N   0  0  0  0  0  0  0  0  0  0  0  0
   37.9330   28.0420   39.7180 C   0  0  0  0  0  0  0  0  0  0  0  0
   38.4130   27.6480   40.9160 N   0  0  0  0  0  0  0  0  0  0  0  0
   35.9680   25.4350   38.9740 H   0  0  0  0  0  0  0  0  0  0  0  0
   36.5060   30.4510   40.1530 F   0  0  0  0  0  0  0  0  0  0  0  0
   37.6770   30.4990   39.4340 C   0  0  0  0  0  0  0  0  0  0  0  0
   38.3900   29.3420   39.2060 C   0  0  0  0  0  0  0  0  0  0  0  0
   39.5650   29.4670   38.4700 C   0  0  0  0  0  0  0  0  0  0  0  0
   39.9740   30.6990   38.0000 C   0  0  0  0  0  0  0  0  0  0  0  0
   39.2100   31.8320   38.2620 C   0  0  0  0  0  0  0  0  0  0  0  0
   38.0390   31.7460   38.9890 C   0  0  0  0  0  0  0  0  0  0  0  0
   40.1490   28.5810   38.2710 H   0  0  0  0  0  0  0  0  0  0  0  0
   40.8900   30.8080   37.4230 H   0  0  0  0  0  0  0  0  0  0  0  0
   39.5430   32.7960   37.8860 H   0  0  0  0  0  0  0  0  0  0  0  0
   37.2130   32.9490   39.2820 C   0  0  0  0  0  2  0  0  0  0  0  0
   38.0180   34.0530   39.9030 C   0  0  0  0  0  2  0  0  0  0  0  0
   38.2660   34.8680   39.1960 H   0  0  0  0  0  0  0  0  0  0  0  0
   36.7390   24.3420   41.3510 C   0  0  0  0  0  0  0  0  0  0  0  0
   37.8120   23.4810   41.3730 F   0  0  0  0  0  0  0  0  0  0  0  0
   36.3840   24.5830   42.6680 F   0  0  0  0  0  0  0  0  0  0  0  0
   35.7100   23.7140   40.7230 F   0  0  0  0  0  0  0  0  0  0  0  0
   38.4820   26.0320   42.6260 O   0  0  0  0  0  0  0  0  0  0  0  0
   39.7810   25.5940   42.9240 C   0  0  0  0  0  0  0  0  0  0  0  0
   40.4380   26.6440   43.5810 F   0  0  0  0  0  0  0  0  0  0  0  0
   39.7330   24.4510   43.6760 F   0  0  0  0  0  0  0  0  0  0  0  0
   40.4910   25.4190   41.7560 F   0  0  0  0  0  0  0  0  0  0  0  0
  1 25  1  0  0  0  0
  2 21  1  0  0  0  0
  2  1  2  0  0  0  0
  3  2  1  0  0  0  0
  4  3  2  0  0  0  0
  4  5  1  0  0  0  0
  5  6  2  0  0  0  0
  6  1  1  0  0  0  0
  7  3  1  0  0  0  0
  9  8  1  0  0  0  0
 10  9  1  0  0  0  0
 10  5  1  0  0  0  0
 11 10  2  0  0  0  0
 12 13  2  0  0  0  0
 12 11  1  0  0  0  0
 13 14  1  0  0  0  0
 14 18  1  0  0  0  0
 14  9  2  0  0  0  0
 15 11  1  0  0  0  0
 16 12  1  0  0  0  0
 17 13  1  0  0  0  0
 18 19  1  0  0  0  0
 20 19  1  0  0  0  0
 21 22  1  0  0  0  0
 21 23  1  0  0  0  0
 24 21  1  0  0  0  0
 25 26  1  0  0  0  0
 26 27  1  0  0  0  0
 26 28  1  0  0  0  0
 29 26  1  0  0  0  0
M  END
>  <minimizedAffinity>
-5.28630447

$$$$

 OpenBabel03252504153D

 29 30  0  0  0  0  0  0  0  0999 V2000
   37.2150   29.6990   40.9510 C   0  0  0  0  0  0  0  0  0  0  0  0
   37.5260   28.4770   41.5400 C   0  0  0  0  0  0  0  0  0  0  0  0
   37.0200   27.3240   40.9210 C   0  0  0  0  0  0  0  0  0  0  0  0
   36.2650   27.4390   39.8010 N   0  0  0  0  0  0  0  0  0  0  0  0
   35.9950   28.6540   39.2740 C   0  0  0  0  0  0  0  0  0  0  0  0
   36.4650   29.7850   39.8410 N   0  0  0  0  0  0  0  0  0  0  0  0
   37.2570   26.3680   41.3700 H   0  0  0  0  0  0  0  0  0  0  0  0
   33.2130   29.1850   39.3480 F   0  0  0  0  0  0  0  0  0  0  0  0
   33.8280   29.0600   38.1240 C   0  0  0  0  0  0  0  0  0  0  0  0
   35.1800   28.8010   38.0600 C   0  0  0  0  0  0  0  0  0  0  0  0
   35.7340   28.6850   36.7870 C   0  0  0  0  0  0  0  0  0  0  0  0
   34.9470   28.8260   35.6620 C   0  0  0  0  0  0  0  0  0  0  0  0
   33.5860   29.0870   35.7920 C   0  0  0  0  0  0  0  0  0  0  0  0
   33.0030   29.2080   37.0380 C   0  0  0  0  0  0  0  0  0  0  0  0
   36.7900   28.4810   36.6980 H   0  0  0  0  0  0  0  0  0  0  0  0
   35.3690   28.7370   34.6630 H   0  0  0  0  0  0  0  0  0  0  0  0
   32.9780   29.1960   34.8980 H   0  0  0  0  0  0  0  0  0  0  0  0
   31.5500   29.4920   37.1940 C   0  0  0  0  0  2  0  0  0  0  0  0
   31.0970   30.6300   36.3280 C   0  0  0  0  0  2  0  0  0  0  0  0
   30.5460   30.3050   35.4260 H   0  0  0  0  0  0  0  0  0  0  0  0
   38.3560   28.4400   42.7620 C   0  0  0  0  0  0  0  0  0  0  0  0
   38.2380   27.2160   43.3780 F   0  0  0  0  0  0  0  0  0  0  0  0
   39.6800   28.5750   42.3760 F   0  0  0  0  0  0  0  0  0  0  0  0
   38.0630   29.4020   43.6770 F   0  0  0  0  0  0  0  0  0  0  0  0
   37.7060   30.8160   41.5550 O   0  0  0  0  0  0  0  0  0  0  0  0
   38.8150   31.5740   41.1480 C   0  0  0  0  0  0  0  0  0  0  0  0
   38.3490   32.8540   40.8180 F   0  0  0  0  0  0  0  0  0  0  0  0
   39.7590   31.5990   42.1390 F   0  0  0  0  0  0  0  0  0  0  0  0
   39.3130   31.0710   39.9660 F   0  0  0  0  0  0  0  0  0  0  0  0
  1  2  1  0  0  0  0
  1 25  1  0  0  0  0
  2 21  1  0  0  0  0
  3  7  1  0  0  0  0
  3  2  2  0  0  0  0
  4  3  1  0  0  0  0
  5  4  2  0  0  0  0
  5  6  1  0  0  0  0
  6  1  2  0  0  0  0
  9  8  1  0  0  0  0
 10  9  1  0  0  0  0
 10  5  1  0  0  0  0
 11 10  2  0  0  0  0
 12 13  2  0  0  0  0
 12 11  1  0  0  0  0
 13 14  1  0  0  0  0
 14 18  1  0  0  0  0
 14  9  2  0  0  0  0
 15 11  1  0  0  0  0
 16 12  1  0  0  0  0
 17 13  1  0  0  0  0
 19 18  1  0  0  0  0
 20 19  1  0  0  0  0
 21 22  1  0  0  0  0
 21 24  1  0  0  0  0
 23 21  1  0  0  0  0
 26 25  1  0  0  0  0
 26 28  1  0  0  0  0
 27 26  1  0  0  0  0
 29 26  1  0  0  0  0
M  END
>  <minimizedAffinity>
-5.28165102

$$$$

 OpenBabel03252504153D

 29 30  0  0  0  0  0  0  0  0999 V2000
   37.2190   29.5330   40.9350 C   0  0  0  0  0  0  0  0  0  0  0  0
   37.4430   28.2870   41.5110 C   0  0  0  0  0  0  0  0  0  0  0  0
   36.9400   27.1690   40.8280 C   0  0  0  0  0  0  0  0  0  0  0  0
   36.2700   27.3400   39.6610 N   0  0  0  0  0  0  0  0  0  0  0  0
   36.0830   28.5760   39.1500 C   0  0  0  0  0  0  0  0  0  0  0  0
   36.5520   29.6750   39.7780 N   0  0  0  0  0  0  0  0  0  0  0  0
   37.1100   26.1940   41.2670 H   0  0  0  0  0  0  0  0  0  0  0  0
   37.4010   29.0400   36.6850 F   0  0  0  0  0  0  0  0  0  0  0  0
   36.0270   29.0050   36.7010 C   0  0  0  0  0  0  0  0  0  0  0  0
   35.3600   28.7830   37.8860 C   0  0  0  0  0  0  0  0  0  0  0  0
   33.9690   28.7630   37.8270 C   0  0  0  0  0  0  0  0  0  0  0  0
   33.3130   28.9600   36.6290 C   0  0  0  0  0  0  0  0  0  0  0  0
   34.0420   29.1800   35.4640 C   0  0  0  0  0  0  0  0  0  0  0  0
   35.4230   29.2070   35.4850 C   0  0  0  0  0  0  0  0  0  0  0  0
   33.4140   28.5930   38.7370 H   0  0  0  0  0  0  0  0  0  0  0  0
   32.2260   28.9470   36.5700 H   0  0  0  0  0  0  0  0  0  0  0  0
   33.5130   29.3340   34.5260 H   0  0  0  0  0  0  0  0  0  0  0  0
   36.2170   29.4360   34.2480 C   0  0  0  0  0  2  0  0  0  0  0  0
   36.1610   30.8650   33.7930 C   0  0  0  0  0  2  0  0  0  0  0  0
   37.0780   31.4380   34.0290 H   0  0  0  0  0  0  0  0  0  0  0  0
   38.1840   28.1890   42.7860 C   0  0  0  0  0  0  0  0  0  0  0  0
   39.4890   28.5850   42.6060 F   0  0  0  0  0  0  0  0  0  0  0  0
   37.6080   29.0800   43.6770 F   0  0  0  0  0  0  0  0  0  0  0  0
   38.1930   26.9500   43.3430 F   0  0  0  0  0  0  0  0  0  0  0  0
   37.7070   30.6160   41.6000 O   0  0  0  0  0  0  0  0  0  0  0  0
   38.7710   31.4390   41.2020 C   0  0  0  0  0  0  0  0  0  0  0  0
   39.5950   31.6290   42.3210 F   0  0  0  0  0  0  0  0  0  0  0  0
   39.4380   30.8740   40.1490 F   0  0  0  0  0  0  0  0  0  0  0  0
   38.2970   32.6980   40.9040 F   0  0  0  0  0  0  0  0  0  0  0  0
  1  2  1  0  0  0  0
  1 25  1  0  0  0  0
  2 21  1  0  0  0  0
  3  7  1  0  0  0  0
  3  2  2  0  0  0  0
  4  3  1  0  0  0  0
  5  4  2  0  0  0  0
  5  6  1  0  0  0  0
  6  1  2  0  0  0  0
  8  9  1  0  0  0  0
  9 10  1  0  0  0  0
 10  5  1  0  0  0  0
 11 10  2  0  0  0  0
 11 15  1  0  0  0  0
 12 11  1  0  0  0  0
 13 14  1  0  0  0  0
 13 12  2  0  0  0  0
 14  9  2  0  0  0  0
 16 12  1  0  0  0  0
 17 13  1  0  0  0  0
 18 14  1  0  0  0  0
 19 20  1  0  0  0  0
 19 18  1  0  0  0  0
 21 24  1  0  0  0  0
 21 23  1  0  0  0  0
 22 21  1  0  0  0  0
 26 25  1  0  0  0  0
 26 27  1  0  0  0  0
 28 26  1  0  0  0  0
 29 26  1  0  0  0  0
M  END
>  <minimizedAffinity>
-5.2156868

$$$$
