
 OpenBabel03252506013D

 22 23  0  0  0  0  0  0  0  0999 V2000
   44.9370   36.3030   43.2040 Cl  0  0  0  0  0  0  0  0  0  0  0  0
   45.5270   34.9720   44.1530 C   0  0  0  0  0  0  0  0  0  0  0  0
   46.5200   34.1620   43.6640 C   0  0  0  0  0  0  0  0  0  0  0  0
   46.9200   33.1380   44.4880 C   0  0  0  0  0  0  0  0  0  0  0  0
   46.4190   32.8640   45.7340 C   0  0  0  0  0  0  0  0  0  0  0  0
   45.4200   33.7010   46.1940 C   0  0  0  0  0  0  0  0  0  0  0  0
   44.7690   33.3610   47.7950 Cl  0  0  0  0  0  0  0  0  0  0  0  0
   44.9760   34.7520   45.4070 C   0  0  0  0  0  0  0  0  0  0  0  0
   47.7100   32.4870   44.1060 H   0  0  0  0  0  0  0  0  0  0  0  0
   44.1840   35.3970   45.8000 H   0  0  0  0  0  0  0  0  0  0  0  0
   48.7750   35.4000   41.0690 C   0  0  0  0  0  0  0  0  0  0  0  0
   48.3010   34.7950   39.9070 C   0  0  0  0  0  0  0  0  0  0  0  0
   47.1840   33.9430   40.0180 C   0  0  0  0  0  0  0  0  0  0  0  0
   46.6330   33.7610   41.2460 N   0  0  0  0  0  0  0  0  0  0  0  0
   47.1240   34.3670   42.3450 C   0  0  0  0  0  0  0  0  0  0  0  0
   48.2000   35.1930   42.2670 N   0  0  0  0  0  0  0  0  0  0  0  0
   49.6310   36.0710   41.0730 H   0  0  0  0  0  0  0  0  0  0  0  0
   48.8050   35.0030   38.9830 H   0  0  0  0  0  0  0  0  0  0  0  0
   46.8230   33.4820   39.1320 H   0  0  0  0  0  0  0  0  0  0  0  0
   46.9010   31.7340   46.5730 C   0  0  0  0  0  0  0  0  0  0  0  0
   47.6460   32.2490   47.7870 C   0  0  0  0  0  0  0  0  0  0  0  0
   48.5690   32.7250   47.4320 H   0  0  0  0  0  0  0  0  0  0  0  0
  1  2  1  0  0  0  0
  2  8  1  0  0  0  0
  3  2  2  0  0  0  0
  3  4  1  0  0  0  0
  4  5  2  0  0  0  0
  5  6  1  0  0  0  0
  5 20  1  0  0  0  0
  6  7  1  0  0  0  0
  8 10  1  0  0  0  0
  8  6  2  0  0  0  0
  9  4  1  0  0  0  0
 11 17  1  0  0  0  0
 11 16  1  0  0  0  0
 12 13  1  0  0  0  0
 12 11  2  0  0  0  0
 13 14  2  0  0  0  0
 14 15  1  0  0  0  0
 15  3  1  0  0  0  0
 16 15  2  0  0  0  0
 18 12  1  0  0  0  0
 19 13  1  0  0  0  0
 20 21  1  0  0  0  0
 22 21  1  0  0  0  0
M  END
>  <minimizedAffinity>
-4.9336071

>  <minimizedRMSD>
0.407755762

$$$$
