
 OpenBabel03252509113D

 25 27  0  0  0  0  0  0  0  0999 V2000
   47.6010   31.8620   44.2560 C   0  0  0  0  0  0  0  0  0  0  0  0
   47.0950   33.1200   43.9400 C   0  0  0  0  0  0  0  0  0  0  0  0
   46.2330   33.8020   44.7690 C   0  0  0  0  0  0  0  0  0  0  0  0
   45.8460   33.2150   45.9800 C   0  0  0  0  0  0  0  0  0  0  0  0
   45.0390   33.5880   47.0100 N   0  0  0  0  0  0  0  0  0  0  0  0
   45.0460   32.5860   47.9400 C   0  0  0  0  0  0  0  0  0  0  0  0
   45.8610   31.6080   47.4630 N   0  0  0  0  0  0  0  0  0  0  0  0
   46.3650   31.9680   46.2630 C   0  0  0  0  0  0  0  0  0  0  0  0
   47.2250   31.2650   45.4560 C   0  0  0  0  0  0  0  0  0  0  0  0
   48.2640   31.3740   43.5850 H   0  0  0  0  0  0  0  0  0  0  0  0
   44.5160   34.4870   47.0600 H   0  0  0  0  0  0  0  0  0  0  0  0
   44.4710   32.6530   48.8560 H   0  0  0  0  0  0  0  0  0  0  0  0
   47.5950   30.2850   45.7420 H   0  0  0  0  0  0  0  0  0  0  0  0
   47.2240   34.0520   40.3900 C   0  0  0  0  0  0  0  0  0  0  0  0
   48.2760   34.9630   40.3430 C   0  0  0  0  0  0  0  0  0  0  0  0
   48.9380   35.2510   41.5410 C   0  0  0  0  0  0  0  0  0  0  0  0
   48.5280   34.6360   42.6930 N   0  0  0  0  0  0  0  0  0  0  0  0
   47.4970   33.7520   42.7010 C   0  0  0  0  0  0  0  0  0  0  0  0
   46.8730   33.4840   41.5590 N   0  0  0  0  0  0  0  0  0  0  0  0
   46.6580   33.7760   39.5010 H   0  0  0  0  0  0  0  0  0  0  0  0
   48.5650   35.4250   39.4170 H   0  0  0  0  0  0  0  0  0  0  0  0
   49.7740   35.9610   41.5650 H   0  0  0  0  0  0  0  0  0  0  0  0
   45.6080   35.1290   44.5380 C   0  0  0  0  0  0  0  0  0  0  0  0
   44.4140   35.0860   43.6360 C   0  0  0  0  0  0  0  0  0  0  0  0
   43.4880   35.3430   44.2130 H   0  0  0  0  0  0  0  0  0  0  0  0
  1  9  1  0  0  0  0
  2  1  2  0  0  0  0
  2  3  1  0  0  0  0
  3  4  2  0  0  0  0
  4  8  1  0  0  0  0
  4  5  1  0  0  0  0
  5 11  1  0  0  0  0
  5  6  1  0  0  0  0
  6 12  1  0  0  0  0
  7  6  2  0  0  0  0
  8  7  1  0  0  0  0
  9 13  1  0  0  0  0
  9  8  2  0  0  0  0
 10  1  1  0  0  0  0
 14 19  1  0  0  0  0
 15 14  2  0  0  0  0
 15 16  1  0  0  0  0
 16 22  1  0  0  0  0
 16 17  2  0  0  0  0
 17 18  1  0  0  0  0
 18  2  1  0  0  0  0
 19 18  2  0  0  0  0
 20 14  1  0  0  0  0
 21 15  1  0  0  0  0
 23  3  1  0  0  0  0
 24 25  1  0  0  0  0
 24 23  1  0  0  0  0
M  END
>  <minimizedAffinity>
-4.76170635

>  <minimizedRMSD>
1.6006763

$$$$
