
 OpenBabel03252506583D

 32 35  0  0  0  0  0  0  0  0999 V2000
   37.7240   29.0560   39.9030 C   0  0  0  0  0  0  0  0  0  0  0  0
   38.3590   29.4210   41.0800 C   0  0  0  0  0  0  0  0  0  0  0  0
   38.5220   30.7470   41.4520 C   0  0  0  0  0  0  0  0  0  0  0  0
   38.0430   31.7650   40.6400 C   0  0  0  0  0  0  0  0  0  0  0  0
   38.0270   33.1270   40.6860 N   0  0  0  0  0  0  0  0  0  0  0  0
   37.4020   33.5840   39.5750 C   0  0  0  0  0  0  0  0  0  0  0  0
   37.0360   32.4940   38.8490 N   0  0  0  0  0  0  0  0  0  0  0  0
   37.4220   31.3660   39.4860 C   0  0  0  0  0  0  0  0  0  0  0  0
   37.2420   30.0810   39.0850 C   0  0  0  0  0  0  0  0  0  0  0  0
   37.6070   28.0170   39.6320 H   0  0  0  0  0  0  0  0  0  0  0  0
   39.0160   31.0240   42.3650 H   0  0  0  0  0  0  0  0  0  0  0  0
   38.4590   33.6420   41.5010 H   0  0  0  0  0  0  0  0  0  0  0  0
   37.2610   34.6420   39.3800 H   0  0  0  0  0  0  0  0  0  0  0  0
   38.6780   26.2880   42.9660 C   0  0  0  0  0  0  0  0  0  0  0  0
   39.8810   26.4550   43.6360 C   0  0  0  0  0  0  0  0  0  0  0  0
   40.5830   27.6450   43.4400 C   0  0  0  0  0  0  0  0  0  0  0  0
   40.0470   28.5790   42.5990 N   0  0  0  0  0  0  0  0  0  0  0  0
   38.8750   28.3880   41.9600 C   0  0  0  0  0  0  0  0  0  0  0  0
   38.1870   27.2460   42.1390 N   0  0  0  0  0  0  0  0  0  0  0  0
   38.1550   25.3470   43.1390 H   0  0  0  0  0  0  0  0  0  0  0  0
   40.3050   25.7140   44.3020 H   0  0  0  0  0  0  0  0  0  0  0  0
   41.5060   27.7860   43.9490 H   0  0  0  0  0  0  0  0  0  0  0  0
   36.5570   29.7680   37.8220 C   0  0  0  0  0  0  0  0  0  0  0  0
   35.2670   29.2690   37.7290 C   0  0  0  0  0  0  0  0  0  0  0  0
   35.0460   29.1300   36.3610 C   0  0  0  0  0  0  0  0  0  0  0  0
   36.1920   29.5460   35.7070 C   0  0  0  0  0  0  0  0  0  0  0  0
   37.0610   29.9160   36.6350 O   0  0  0  0  0  0  0  0  0  0  0  0
   34.6350   29.0580   38.5670 H   0  0  0  0  0  0  0  0  0  0  0  0
   34.1300   28.7610   35.9210 H   0  0  0  0  0  0  0  0  0  0  0  0
   36.4390   29.5840   34.2500 C   0  0  0  0  0  2  0  0  0  0  0  0
   36.1630   30.9870   33.6900 C   0  0  0  0  0  2  0  0  0  0  0  0
   36.6110   31.7250   34.4180 H   0  0  0  0  0  0  0  0  0  0  0  0
  1  2  1  0  0  0  0
  2  3  2  0  0  0  0
  2 18  1  0  0  0  0
  3 11  1  0  0  0  0
  4  5  1  0  0  0  0
  4  3  1  0  0  0  0
  5 12  1  0  0  0  0
  6  5  1  0  0  0  0
  7  8  1  0  0  0  0
  7  6  2  0  0  0  0
  8  4  2  0  0  0  0
  9  8  1  0  0  0  0
  9  1  2  0  0  0  0
 10  1  1  0  0  0  0
 13  6  1  0  0  0  0
 14 20  1  0  0  0  0
 14 15  1  0  0  0  0
 15 21  1  0  0  0  0
 16 15  2  0  0  0  0
 16 22  1  0  0  0  0
 17 16  1  0  0  0  0
 18 19  1  0  0  0  0
 18 17  2  0  0  0  0
 19 14  2  0  0  0  0
 23  9  1  0  0  0  0
 24 23  2  0  0  0  0
 24 28  1  0  0  0  0
 25 24  1  0  0  0  0
 26 25  2  0  0  0  0
 26 27  1  0  0  0  0
 27 23  1  0  0  0  0
 29 25  1  0  0  0  0
 30 26  1  0  0  0  0
 31 30  1  0  0  0  0
 31 32  1  0  0  0  0
M  END
>  <minimizedAffinity>
-5.53648138

$$$$

 OpenBabel03252506583D

 32 35  0  0  0  0  0  0  0  0999 V2000
   37.2220   29.4570   39.2330 C   0  0  0  0  0  0  0  0  0  0  0  0
   36.9590   30.2400   38.1200 C   0  0  0  0  0  0  0  0  0  0  0  0
   37.3240   31.5770   38.0540 C   0  0  0  0  0  0  0  0  0  0  0  0
   37.9760   32.1780   39.1220 C   0  0  0  0  0  0  0  0  0  0  0  0
   38.4640   33.4200   39.3960 N   0  0  0  0  0  0  0  0  0  0  0  0
   39.0080   33.4000   40.6360 C   0  0  0  0  0  0  0  0  0  0  0  0
   38.8510   32.1380   41.1190 N   0  0  0  0  0  0  0  0  0  0  0  0
   38.2180   31.3720   40.2040 C   0  0  0  0  0  0  0  0  0  0  0  0
   37.8770   30.0610   40.3090 C   0  0  0  0  0  0  0  0  0  0  0  0
   36.9290   28.4170   39.2640 H   0  0  0  0  0  0  0  0  0  0  0  0
   37.1180   32.1800   37.1890 H   0  0  0  0  0  0  0  0  0  0  0  0
   38.3790   34.1980   38.6880 H   0  0  0  0  0  0  0  0  0  0  0  0
   39.4660   34.2760   41.0840 H   0  0  0  0  0  0  0  0  0  0  0  0
   34.3640   28.7370   36.0040 C   0  0  0  0  0  0  0  0  0  0  0  0
   35.0260   28.5430   34.8000 C   0  0  0  0  0  0  0  0  0  0  0  0
   36.3640   28.9280   34.7150 C   0  0  0  0  0  0  0  0  0  0  0  0
   36.9490   29.4750   35.8220 N   0  0  0  0  0  0  0  0  0  0  0  0
   36.2800   29.6530   36.9800 C   0  0  0  0  0  0  0  0  0  0  0  0
   34.9890   29.2860   37.0770 N   0  0  0  0  0  0  0  0  0  0  0  0
   33.3190   28.4260   36.0380 H   0  0  0  0  0  0  0  0  0  0  0  0
   34.5620   28.1080   33.9230 H   0  0  0  0  0  0  0  0  0  0  0  0
   36.8830   28.7840   33.7990 H   0  0  0  0  0  0  0  0  0  0  0  0
   38.1890   29.2900   41.5220 C   0  0  0  0  0  0  0  0  0  0  0  0
   37.3240   29.1250   42.5930 C   0  0  0  0  0  0  0  0  0  0  0  0
   38.0360   28.3360   43.4940 C   0  0  0  0  0  0  0  0  0  0  0  0
   39.2710   28.0690   42.9320 C   0  0  0  0  0  0  0  0  0  0  0  0
   39.3030   28.6670   41.7520 O   0  0  0  0  0  0  0  0  0  0  0  0
   36.3400   29.5420   42.6500 H   0  0  0  0  0  0  0  0  0  0  0  0
   37.6590   28.0080   44.4530 H   0  0  0  0  0  0  0  0  0  0  0  0
   40.3740   27.2700   43.5100 C   0  0  0  0  0  2  0  0  0  0  0  0
   39.9490   25.8040   43.6800 C   0  0  0  0  0  2  0  0  0  0  0  0
   39.3930   25.5120   42.7410 H   0  0  0  0  0  0  0  0  0  0  0  0
  1 10  1  0  0  0  0
  1  9  1  0  0  0  0
  2  1  2  0  0  0  0
  3  2  1  0  0  0  0
  3  4  2  0  0  0  0
  4  5  1  0  0  0  0
  4  8  1  0  0  0  0
  5  6  1  0  0  0  0
  6 13  1  0  0  0  0
  6  7  2  0  0  0  0
  8  9  2  0  0  0  0
  8  7  1  0  0  0  0
  9 23  1  0  0  0  0
 11  3  1  0  0  0  0
 12  5  1  0  0  0  0
 14 20  1  0  0  0  0
 14 19  1  0  0  0  0
 15 14  2  0  0  0  0
 16 15  1  0  0  0  0
 16 17  2  0  0  0  0
 17 18  1  0  0  0  0
 18 19  2  0  0  0  0
 18  2  1  0  0  0  0
 21 15  1  0  0  0  0
 22 16  1  0  0  0  0
 23 27  1  0  0  0  0
 23 24  2  0  0  0  0
 24 28  1  0  0  0  0
 24 25  1  0  0  0  0
 25 29  1  0  0  0  0
 26 25  2  0  0  0  0
 26 30  1  0  0  0  0
 27 26  1  0  0  0  0
 30 31  1  0  0  0  0
 32 31  1  0  0  0  0
M  END
>  <minimizedAffinity>
-5.45512438

$$$$

 OpenBabel03252506583D

 32 35  0  0  0  0  0  0  0  0999 V2000
   36.4610   30.5780   38.7270 C   0  0  0  0  0  0  0  0  0  0  0  0
   35.6330   29.4660   38.7330 C   0  0  0  0  0  0  0  0  0  0  0  0
   35.5390   28.6200   39.8290 C   0  0  0  0  0  0  0  0  0  0  0  0
   36.2860   28.8700   40.9710 C   0  0  0  0  0  0  0  0  0  0  0  0
   36.4400   28.2760   42.1880 N   0  0  0  0  0  0  0  0  0  0  0  0
   37.3340   28.9980   42.9050 C   0  0  0  0  0  0  0  0  0  0  0  0
   37.7250   30.0380   42.1200 N   0  0  0  0  0  0  0  0  0  0  0  0
   37.0930   29.9770   40.9270 C   0  0  0  0  0  0  0  0  0  0  0  0
   37.2140   30.8290   39.8770 C   0  0  0  0  0  0  0  0  0  0  0  0
   36.5190   31.2240   37.8630 H   0  0  0  0  0  0  0  0  0  0  0  0
   34.8950   27.7600   39.8280 H   0  0  0  0  0  0  0  0  0  0  0  0
   35.9040   27.3990   42.4290 H   0  0  0  0  0  0  0  0  0  0  0  0
   37.6260   28.7260   43.9140 H   0  0  0  0  0  0  0  0  0  0  0  0
   34.6320   28.9100   35.2460 C   0  0  0  0  0  0  0  0  0  0  0  0
   33.2860   28.5980   35.3600 C   0  0  0  0  0  0  0  0  0  0  0  0
   32.7210   28.5790   36.6350 C   0  0  0  0  0  0  0  0  0  0  0  0
   33.5250   28.8690   37.7010 N   0  0  0  0  0  0  0  0  0  0  0  0
   34.8320   29.1680   37.5600 C   0  0  0  0  0  0  0  0  0  0  0  0
   35.3910   29.1900   36.3370 N   0  0  0  0  0  0  0  0  0  0  0  0
   35.0440   28.9160   34.2360 H   0  0  0  0  0  0  0  0  0  0  0  0
   32.6490   28.3690   34.5140 H   0  0  0  0  0  0  0  0  0  0  0  0
   31.6890   28.3420   36.7360 H   0  0  0  0  0  0  0  0  0  0  0  0
   38.1140   31.9900   39.9410 C   0  0  0  0  0  0  0  0  0  0  0  0
   37.6960   33.3000   40.1180 C   0  0  0  0  0  0  0  0  0  0  0  0
   38.8740   34.0430   40.1140 C   0  0  0  0  0  0  0  0  0  0  0  0
   39.9260   33.1610   39.9400 C   0  0  0  0  0  0  0  0  0  0  0  0
   39.4070   31.9470   39.8420 O   0  0  0  0  0  0  0  0  0  0  0  0
   36.6750   33.6040   40.2250 H   0  0  0  0  0  0  0  0  0  0  0  0
   38.9230   35.1170   40.2310 H   0  0  0  0  0  0  0  0  0  0  0  0
   41.3690   33.4760   39.8700 C   0  0  0  0  0  2  0  0  0  0  0  0
   41.7290   34.0690   38.5000 C   0  0  0  0  0  2  0  0  0  0  0  0
   40.9160   34.8080   38.2380 H   0  0  0  0  0  0  0  0  0  0  0  0
  1  2  2  0  0  0  0
  1  9  1  0  0  0  0
  2  3  1  0  0  0  0
  3  4  2  0  0  0  0
  4  5  1  0  0  0  0
  5 12  1  0  0  0  0
  5  6  1  0  0  0  0
  6 13  1  0  0  0  0
  7  6  2  0  0  0  0
  8  4  1  0  0  0  0
  8  7  1  0  0  0  0
  9 23  1  0  0  0  0
  9  8  2  0  0  0  0
 10  1  1  0  0  0  0
 11  3  1  0  0  0  0
 14 15  2  0  0  0  0
 14 19  1  0  0  0  0
 15 16  1  0  0  0  0
 16 22  1  0  0  0  0
 16 17  2  0  0  0  0
 18 17  1  0  0  0  0
 18  2  1  0  0  0  0
 19 18  2  0  0  0  0
 20 14  1  0  0  0  0
 21 15  1  0  0  0  0
 23 24  2  0  0  0  0
 24 28  1  0  0  0  0
 25 24  1  0  0  0  0
 25 29  1  0  0  0  0
 26 25  2  0  0  0  0
 27 26  1  0  0  0  0
 27 23  1  0  0  0  0
 30 26  1  0  0  0  0
 31 30  1  0  0  0  0
 32 31  1  0  0  0  0
M  END
>  <minimizedAffinity>
-5.36397171

$$$$

 OpenBabel03252506583D

 32 35  0  0  0  0  0  0  0  0999 V2000
   38.0510   29.8260   40.2890 C   0  0  0  0  0  0  0  0  0  0  0  0
   37.9520   30.8290   39.3380 C   0  0  0  0  0  0  0  0  0  0  0  0
   37.0430   30.7690   38.2920 C   0  0  0  0  0  0  0  0  0  0  0  0
   36.1900   29.6820   38.1670 C   0  0  0  0  0  0  0  0  0  0  0  0
   35.2100   29.3020   37.3010 N   0  0  0  0  0  0  0  0  0  0  0  0
   34.7230   28.1040   37.7060 C   0  0  0  0  0  0  0  0  0  0  0  0
   35.4110   27.7550   38.8260 N   0  0  0  0  0  0  0  0  0  0  0  0
   36.3180   28.7100   39.1260 C   0  0  0  0  0  0  0  0  0  0  0  0
   37.1940   28.7300   40.1640 C   0  0  0  0  0  0  0  0  0  0  0  0
   38.7670   29.8920   41.0960 H   0  0  0  0  0  0  0  0  0  0  0  0
   36.9700   31.5500   37.5570 H   0  0  0  0  0  0  0  0  0  0  0  0
   34.9510   29.9140   36.4810 H   0  0  0  0  0  0  0  0  0  0  0  0
   33.9290   27.5900   37.1760 H   0  0  0  0  0  0  0  0  0  0  0  0
   39.2750   34.1350   40.2320 C   0  0  0  0  0  0  0  0  0  0  0  0
   40.4980   34.1610   39.5790 C   0  0  0  0  0  0  0  0  0  0  0  0
   40.8690   33.0440   38.8310 C   0  0  0  0  0  0  0  0  0  0  0  0
   40.0070   31.9850   38.7830 N   0  0  0  0  0  0  0  0  0  0  0  0
   38.8240   31.9860   39.4290 C   0  0  0  0  0  0  0  0  0  0  0  0
   38.4520   33.0570   40.1540 N   0  0  0  0  0  0  0  0  0  0  0  0
   39.0140   35.0220   40.8090 H   0  0  0  0  0  0  0  0  0  0  0  0
   41.1810   35.0010   39.6170 H   0  0  0  0  0  0  0  0  0  0  0  0
   41.8050   33.0520   38.3250 H   0  0  0  0  0  0  0  0  0  0  0  0
   37.2430   27.6290   41.1370 C   0  0  0  0  0  0  0  0  0  0  0  0
   36.6350   27.6510   42.3820 C   0  0  0  0  0  0  0  0  0  0  0  0
   36.9470   26.4140   42.9430 C   0  0  0  0  0  0  0  0  0  0  0  0
   37.7130   25.7190   42.0250 C   0  0  0  0  0  0  0  0  0  0  0  0
   37.8570   26.4980   40.9640 O   0  0  0  0  0  0  0  0  0  0  0  0
   36.0660   28.4730   42.7660 H   0  0  0  0  0  0  0  0  0  0  0  0
   36.6290   26.0870   43.9230 H   0  0  0  0  0  0  0  0  0  0  0  0
   38.2820   24.3620   42.1640 C   0  0  0  0  0  2  0  0  0  0  0  0
   39.5680   24.3970   43.0020 C   0  0  0  0  0  2  0  0  0  0  0  0
   39.3720   25.0830   43.8770 H   0  0  0  0  0  0  0  0  0  0  0  0
  1 10  1  0  0  0  0
  2 18  1  0  0  0  0
  2  1  2  0  0  0  0
  3  2  1  0  0  0  0
  4  3  2  0  0  0  0
  4  8  1  0  0  0  0
  5  6  1  0  0  0  0
  5  4  1  0  0  0  0
  6  7  2  0  0  0  0
  7  8  1  0  0  0  0
  8  9  2  0  0  0  0
  9  1  1  0  0  0  0
  9 23  1  0  0  0  0
 11  3  1  0  0  0  0
 12  5  1  0  0  0  0
 13  6  1  0  0  0  0
 14 20  1  0  0  0  0
 15 21  1  0  0  0  0
 15 14  2  0  0  0  0
 16 15  1  0  0  0  0
 17 16  2  0  0  0  0
 17 18  1  0  0  0  0
 18 19  2  0  0  0  0
 19 14  1  0  0  0  0
 22 16  1  0  0  0  0
 23 24  2  0  0  0  0
 24 28  1  0  0  0  0
 24 25  1  0  0  0  0
 25 29  1  0  0  0  0
 26 30  1  0  0  0  0
 26 25  2  0  0  0  0
 27 23  1  0  0  0  0
 27 26  1  0  0  0  0
 30 31  1  0  0  0  0
 31 32  1  0  0  0  0
M  END
>  <minimizedAffinity>
-5.29010201

$$$$

 OpenBabel03252506583D

 32 35  0  0  0  0  0  0  0  0999 V2000
   41.2350   30.4080   39.2370 C   0  0  0  0  0  0  0  0  0  0  0  0
   41.6790   31.3730   38.3460 C   0  0  0  0  0  0  0  0  0  0  0  0
   41.1660   32.6620   38.3370 C   0  0  0  0  0  0  0  0  0  0  0  0
   40.1760   33.0280   39.2380 C   0  0  0  0  0  0  0  0  0  0  0  0
   39.4680   34.1610   39.5050 N   0  0  0  0  0  0  0  0  0  0  0  0
   38.6170   33.9000   40.5260 C   0  0  0  0  0  0  0  0  0  0  0  0
   38.8100   32.6020   40.8830 N   0  0  0  0  0  0  0  0  0  0  0  0
   39.7640   32.0480   40.1020 C   0  0  0  0  0  0  0  0  0  0  0  0
   40.2380   30.7760   40.1440 C   0  0  0  0  0  0  0  0  0  0  0  0
   41.6480   29.4090   39.2280 H   0  0  0  0  0  0  0  0  0  0  0  0
   41.5140   33.4060   37.6440 H   0  0  0  0  0  0  0  0  0  0  0  0
   39.6330   35.0420   38.9470 H   0  0  0  0  0  0  0  0  0  0  0  0
   37.9410   34.6490   40.9260 H   0  0  0  0  0  0  0  0  0  0  0  0
   43.3950   29.9720   35.4200 C   0  0  0  0  0  0  0  0  0  0  0  0
   44.6990   30.4110   35.5910 C   0  0  0  0  0  0  0  0  0  0  0  0
   44.9900   31.1890   36.7120 C   0  0  0  0  0  0  0  0  0  0  0  0
   43.9740   31.4750   37.5790 N   0  0  0  0  0  0  0  0  0  0  0  0
   42.7140   31.0350   37.3870 C   0  0  0  0  0  0  0  0  0  0  0  0
   42.4180   30.2830   36.3100 N   0  0  0  0  0  0  0  0  0  0  0  0
   43.2000   29.3670   34.5340 H   0  0  0  0  0  0  0  0  0  0  0  0
   45.5040   30.1840   34.9030 H   0  0  0  0  0  0  0  0  0  0  0  0
   45.9860   31.5320   36.8550 H   0  0  0  0  0  0  0  0  0  0  0  0
   39.7200   29.8040   41.1180 C   0  0  0  0  0  0  0  0  0  0  0  0
   40.2430   29.6060   42.3870 C   0  0  0  0  0  0  0  0  0  0  0  0
   39.4460   28.6060   42.9380 C   0  0  0  0  0  0  0  0  0  0  0  0
   38.4980   28.2560   41.9940 C   0  0  0  0  0  0  0  0  0  0  0  0
   38.7130   29.0080   40.9260 O   0  0  0  0  0  0  0  0  0  0  0  0
   41.0790   30.1390   42.7900 H   0  0  0  0  0  0  0  0  0  0  0  0
   39.5720   28.1990   43.9320 H   0  0  0  0  0  0  0  0  0  0  0  0
   37.4300   27.2410   42.1160 C   0  0  0  0  0  2  0  0  0  0  0  0
   36.6070   27.4710   43.3930 C   0  0  0  0  0  2  0  0  0  0  0  0
   36.4220   28.5830   43.4680 H   0  0  0  0  0  0  0  0  0  0  0  0
  1  9  1  0  0  0  0
  2  1  2  0  0  0  0
  3  2  1  0  0  0  0
  3  4  2  0  0  0  0
  4  5  1  0  0  0  0
  4  8  1  0  0  0  0
  5  6  1  0  0  0  0
  6  7  2  0  0  0  0
  6 13  1  0  0  0  0
  8  9  2  0  0  0  0
  8  7  1  0  0  0  0
  9 23  1  0  0  0  0
 10  1  1  0  0  0  0
 11  3  1  0  0  0  0
 12  5  1  0  0  0  0
 14 15  2  0  0  0  0
 14 19  1  0  0  0  0
 15 16  1  0  0  0  0
 16 22  1  0  0  0  0
 16 17  2  0  0  0  0
 18 17  1  0  0  0  0
 18  2  1  0  0  0  0
 19 18  2  0  0  0  0
 20 14  1  0  0  0  0
 21 15  1  0  0  0  0
 23 24  2  0  0  0  0
 24 28  1  0  0  0  0
 24 25  1  0  0  0  0
 25 29  1  0  0  0  0
 26 30  1  0  0  0  0
 26 25  2  0  0  0  0
 27 23  1  0  0  0  0
 27 26  1  0  0  0  0
 30 31  1  0  0  0  0
 31 32  1  0  0  0  0
M  END
>  <minimizedAffinity>
-5.28815031

$$$$

 OpenBabel03252506583D

 32 35  0  0  0  0  0  0  0  0999 V2000
   38.4270   28.9000   41.3000 C   0  0  0  0  0  0  0  0  0  0  0  0
   39.1340   30.0870   41.4070 C   0  0  0  0  0  0  0  0  0  0  0  0
   40.3500   30.1660   42.0700 C   0  0  0  0  0  0  0  0  0  0  0  0
   40.9020   29.0350   42.6570 C   0  0  0  0  0  0  0  0  0  0  0  0
   42.0330   28.7530   43.3620 N   0  0  0  0  0  0  0  0  0  0  0  0
   42.0200   27.4360   43.6780 C   0  0  0  0  0  0  0  0  0  0  0  0
   40.8750   26.9140   43.1610 N   0  0  0  0  0  0  0  0  0  0  0  0
   40.1730   27.8820   42.5300 C   0  0  0  0  0  0  0  0  0  0  0  0
   38.9810   27.7620   41.8910 C   0  0  0  0  0  0  0  0  0  0  0  0
   37.4810   28.8600   40.7780 H   0  0  0  0  0  0  0  0  0  0  0  0
   40.8950   31.0890   42.1500 H   0  0  0  0  0  0  0  0  0  0  0  0
   42.7380   29.5100   43.5730 H   0  0  0  0  0  0  0  0  0  0  0  0
   42.8190   26.9650   44.2420 H   0  0  0  0  0  0  0  0  0  0  0  0
   37.0710   32.3550   39.3880 C   0  0  0  0  0  0  0  0  0  0  0  0
   37.6010   33.6000   39.6910 C   0  0  0  0  0  0  0  0  0  0  0  0
   38.6670   33.6620   40.5880 C   0  0  0  0  0  0  0  0  0  0  0  0
   39.1310   32.4920   41.1190 N   0  0  0  0  0  0  0  0  0  0  0  0
   38.5950   31.2940   40.8080 C   0  0  0  0  0  0  0  0  0  0  0  0
   37.5670   31.2190   39.9430 N   0  0  0  0  0  0  0  0  0  0  0  0
   36.2390   32.3400   38.6840 H   0  0  0  0  0  0  0  0  0  0  0  0
   37.2330   34.5280   39.2690 H   0  0  0  0  0  0  0  0  0  0  0  0
   39.0830   34.6110   40.8280 H   0  0  0  0  0  0  0  0  0  0  0  0
   38.2860   26.4680   41.8160 C   0  0  0  0  0  0  0  0  0  0  0  0
   37.1760   26.1260   42.5740 C   0  0  0  0  0  0  0  0  0  0  0  0
   36.8690   24.8280   42.1730 C   0  0  0  0  0  0  0  0  0  0  0  0
   37.7900   24.4580   41.2100 C   0  0  0  0  0  0  0  0  0  0  0  0
   38.6130   25.4810   41.0390 O   0  0  0  0  0  0  0  0  0  0  0  0
   36.7100   26.7670   43.2930 H   0  0  0  0  0  0  0  0  0  0  0  0
   36.0480   24.2430   42.5640 H   0  0  0  0  0  0  0  0  0  0  0  0
   37.8740   23.1720   40.4850 C   0  0  0  0  0  2  0  0  0  0  0  0
   36.6340   22.9650   39.6040 C   0  0  0  0  0  2  0  0  0  0  0  0
   36.4210   23.9520   39.0990 H   0  0  0  0  0  0  0  0  0  0  0  0
  1  2  2  0  0  0  0
  1  9  1  0  0  0  0
  2  3  1  0  0  0  0
  3 11  1  0  0  0  0
  3  4  2  0  0  0  0
  4  5  1  0  0  0  0
  5 12  1  0  0  0  0
  5  6  1  0  0  0  0
  6 13  1  0  0  0  0
  7  6  2  0  0  0  0
  8  4  1  0  0  0  0
  8  7  1  0  0  0  0
  9  8  2  0  0  0  0
 10  1  1  0  0  0  0
 14 15  2  0  0  0  0
 14 19  1  0  0  0  0
 15 16  1  0  0  0  0
 16 22  1  0  0  0  0
 16 17  2  0  0  0  0
 18 17  1  0  0  0  0
 18  2  1  0  0  0  0
 19 18  2  0  0  0  0
 20 14  1  0  0  0  0
 21 15  1  0  0  0  0
 23  9  1  0  0  0  0
 23 24  2  0  0  0  0
 24 28  1  0  0  0  0
 25 29  1  0  0  0  0
 25 24  1  0  0  0  0
 26 25  2  0  0  0  0
 27 26  1  0  0  0  0
 27 23  1  0  0  0  0
 30 26  1  0  0  0  0
 31 30  1  0  0  0  0
 32 31  1  0  0  0  0
M  END
>  <minimizedAffinity>
-5.16950846

$$$$

 OpenBabel03252506583D

 32 35  0  0  0  0  0  0  0  0999 V2000
   39.7000   30.1880   41.0620 C   0  0  0  0  0  0  0  0  0  0  0  0
   38.3560   29.8890   41.2210 C   0  0  0  0  0  0  0  0  0  0  0  0
   37.3570   30.8120   40.9500 C   0  0  0  0  0  0  0  0  0  0  0  0
   37.6810   32.0850   40.5040 C   0  0  0  0  0  0  0  0  0  0  0  0
   36.9890   33.2050   40.1540 N   0  0  0  0  0  0  0  0  0  0  0  0
   37.8780   34.1600   39.7930 C   0  0  0  0  0  0  0  0  0  0  0  0
   39.1190   33.6180   39.9230 N   0  0  0  0  0  0  0  0  0  0  0  0
   39.0200   32.3430   40.3600 C   0  0  0  0  0  0  0  0  0  0  0  0
   40.0290   31.4700   40.6140 C   0  0  0  0  0  0  0  0  0  0  0  0
   40.4640   29.4540   41.2780 H   0  0  0  0  0  0  0  0  0  0  0  0
   36.3160   30.5740   41.0750 H   0  0  0  0  0  0  0  0  0  0  0  0
   35.9340   33.2180   40.1950 H   0  0  0  0  0  0  0  0  0  0  0  0
   37.5700   35.1490   39.4700 H   0  0  0  0  0  0  0  0  0  0  0  0
   36.7030   27.1960   43.0880 C   0  0  0  0  0  0  0  0  0  0  0  0
   37.2640   26.0530   42.5390 C   0  0  0  0  0  0  0  0  0  0  0  0
   38.2110   26.2070   41.5260 C   0  0  0  0  0  0  0  0  0  0  0  0
   38.5340   27.4750   41.1320 N   0  0  0  0  0  0  0  0  0  0  0  0
   37.9700   28.5690   41.6840 C   0  0  0  0  0  0  0  0  0  0  0  0
   37.0550   28.4360   42.6620 N   0  0  0  0  0  0  0  0  0  0  0  0
   35.9650   27.0430   43.8770 H   0  0  0  0  0  0  0  0  0  0  0  0
   37.0080   25.0480   42.8520 H   0  0  0  0  0  0  0  0  0  0  0  0
   38.6490   25.3390   41.0970 H   0  0  0  0  0  0  0  0  0  0  0  0
   41.4340   31.8570   40.4220 C   0  0  0  0  0  0  0  0  0  0  0  0
   42.2960   32.2250   41.4440 C   0  0  0  0  0  0  0  0  0  0  0  0
   43.4990   32.5020   40.8000 C   0  0  0  0  0  0  0  0  0  0  0  0
   43.3090   32.2910   39.4470 C   0  0  0  0  0  0  0  0  0  0  0  0
   42.0530   31.9060   39.2820 O   0  0  0  0  0  0  0  0  0  0  0  0
   42.0270   32.2670   42.4800 H   0  0  0  0  0  0  0  0  0  0  0  0
   44.4030   32.8220   41.3000 H   0  0  0  0  0  0  0  0  0  0  0  0
   44.2960   32.4530   38.3580 C   0  0  0  0  0  2  0  0  0  0  0  0
   43.7830   31.8120   37.0610 C   0  0  0  0  0  2  0  0  0  0  0  0
   42.6940   32.0960   36.9620 H   0  0  0  0  0  0  0  0  0  0  0  0
  1  2  1  0  0  0  0
  1 10  1  0  0  0  0
  2 18  1  0  0  0  0
  3 11  1  0  0  0  0
  3  2  2  0  0  0  0
  4  3  1  0  0  0  0
  5 12  1  0  0  0  0
  5  4  1  0  0  0  0
  6  7  2  0  0  0  0
  6  5  1  0  0  0  0
  7  8  1  0  0  0  0
  8  4  2  0  0  0  0
  8  9  1  0  0  0  0
  9  1  2  0  0  0  0
 13  6  1  0  0  0  0
 14 20  1  0  0  0  0
 15 21  1  0  0  0  0
 15 14  2  0  0  0  0
 16 15  1  0  0  0  0
 17 16  2  0  0  0  0
 17 18  1  0  0  0  0
 18 19  2  0  0  0  0
 19 14  1  0  0  0  0
 22 16  1  0  0  0  0
 23  9  1  0  0  0  0
 23 24  2  0  0  0  0
 24 28  1  0  0  0  0
 25 29  1  0  0  0  0
 25 24  1  0  0  0  0
 26 25  2  0  0  0  0
 27 26  1  0  0  0  0
 27 23  1  0  0  0  0
 30 26  1  0  0  0  0
 31 30  1  0  0  0  0
 32 31  1  0  0  0  0
M  END
>  <minimizedAffinity>
-5.16178513

$$$$

 OpenBabel03252506583D

 32 35  0  0  0  0  0  0  0  0999 V2000
   37.5430   28.7590   40.1190 C   0  0  0  0  0  0  0  0  0  0  0  0
   38.3160   29.0930   41.2190 C   0  0  0  0  0  0  0  0  0  0  0  0
   38.5950   30.4090   41.5560 C   0  0  0  0  0  0  0  0  0  0  0  0
   38.0970   31.4490   40.7840 C   0  0  0  0  0  0  0  0  0  0  0  0
   38.1660   32.8090   40.8140 N   0  0  0  0  0  0  0  0  0  0  0  0
   37.4590   33.2960   39.7660 C   0  0  0  0  0  0  0  0  0  0  0  0
   36.9560   32.2250   39.0960 N   0  0  0  0  0  0  0  0  0  0  0  0
   37.3370   31.0800   39.7040 C   0  0  0  0  0  0  0  0  0  0  0  0
   37.0410   29.8060   39.3410 C   0  0  0  0  0  0  0  0  0  0  0  0
   37.3370   27.7270   39.8740 H   0  0  0  0  0  0  0  0  0  0  0  0
   39.1960   30.6620   42.4100 H   0  0  0  0  0  0  0  0  0  0  0  0
   38.7100   33.3030   41.5730 H   0  0  0  0  0  0  0  0  0  0  0  0
   37.3630   34.3590   39.5730 H   0  0  0  0  0  0  0  0  0  0  0  0
   40.3770   27.2990   43.6720 C   0  0  0  0  0  0  0  0  0  0  0  0
   39.8590   26.0140   43.6240 C   0  0  0  0  0  0  0  0  0  0  0  0
   38.8020   25.7620   42.7500 C   0  0  0  0  0  0  0  0  0  0  0  0
   38.3350   26.7960   41.9880 N   0  0  0  0  0  0  0  0  0  0  0  0
   38.8570   28.0370   42.0560 C   0  0  0  0  0  0  0  0  0  0  0  0
   39.8770   28.2950   42.8940 N   0  0  0  0  0  0  0  0  0  0  0  0
   41.2010   27.4640   44.3650 H   0  0  0  0  0  0  0  0  0  0  0  0
   40.2300   25.1940   44.2280 H   0  0  0  0  0  0  0  0  0  0  0  0
   38.3960   24.7800   42.7030 H   0  0  0  0  0  0  0  0  0  0  0  0
   36.2120   29.5260   38.1590 C   0  0  0  0  0  0  0  0  0  0  0  0
   36.6860   29.4870   36.8560 C   0  0  0  0  0  0  0  0  0  0  0  0
   35.5620   29.1930   36.0880 C   0  0  0  0  0  0  0  0  0  0  0  0
   34.4860   29.0710   36.9470 C   0  0  0  0  0  0  0  0  0  0  0  0
   34.9380   29.2810   38.1740 O   0  0  0  0  0  0  0  0  0  0  0  0
   37.7050   29.6570   36.5750 H   0  0  0  0  0  0  0  0  0  0  0  0
   35.5660   29.0860   35.0120 H   0  0  0  0  0  0  0  0  0  0  0  0
   33.0820   28.7640   36.6010 C   0  0  0  0  0  2  0  0  0  0  0  0
   32.9240   27.2790   36.2430 C   0  0  0  0  0  2  0  0  0  0  0  0
   33.5210   26.6930   37.0020 H   0  0  0  0  0  0  0  0  0  0  0  0
  1  2  1  0  0  0  0
  2  3  2  0  0  0  0
  2 18  1  0  0  0  0
  3 11  1  0  0  0  0
  4  5  1  0  0  0  0
  4  3  1  0  0  0  0
  5 12  1  0  0  0  0
  6  5  1  0  0  0  0
  7  8  1  0  0  0  0
  7  6  2  0  0  0  0
  8  4  2  0  0  0  0
  9  8  1  0  0  0  0
  9  1  2  0  0  0  0
 10  1  1  0  0  0  0
 13  6  1  0  0  0  0
 14 20  1  0  0  0  0
 15 14  1  0  0  0  0
 15 21  1  0  0  0  0
 16 15  2  0  0  0  0
 17 18  2  0  0  0  0
 17 16  1  0  0  0  0
 18 19  1  0  0  0  0
 19 14  2  0  0  0  0
 22 16  1  0  0  0  0
 23 27  1  0  0  0  0
 23  9  1  0  0  0  0
 24 23  2  0  0  0  0
 25 24  1  0  0  0  0
 25 26  2  0  0  0  0
 26 27  1  0  0  0  0
 28 24  1  0  0  0  0
 29 25  1  0  0  0  0
 30 26  1  0  0  0  0
 31 30  1  0  0  0  0
 31 32  1  0  0  0  0
M  END
>  <minimizedAffinity>
-5.06967163

$$$$

 OpenBabel03252506583D

 32 35  0  0  0  0  0  0  0  0999 V2000
   35.7380   27.1880   38.7880 C   0  0  0  0  0  0  0  0  0  0  0  0
   35.1760   28.4520   38.6980 C   0  0  0  0  0  0  0  0  0  0  0  0
   35.3590   29.4150   39.6790 C   0  0  0  0  0  0  0  0  0  0  0  0
   36.1270   29.1330   40.8000 C   0  0  0  0  0  0  0  0  0  0  0  0
   36.5070   29.8090   41.9200 N   0  0  0  0  0  0  0  0  0  0  0  0
   37.2770   28.9880   42.6740 C   0  0  0  0  0  0  0  0  0  0  0  0
   37.3660   27.8060   42.0070 N   0  0  0  0  0  0  0  0  0  0  0  0
   36.6660   27.8740   40.8540 C   0  0  0  0  0  0  0  0  0  0  0  0
   36.5100   26.9040   39.9160 C   0  0  0  0  0  0  0  0  0  0  0  0
   35.5820   26.4530   38.0110 H   0  0  0  0  0  0  0  0  0  0  0  0
   34.9210   30.3930   39.6050 H   0  0  0  0  0  0  0  0  0  0  0  0
   36.1960   30.8060   42.0770 H   0  0  0  0  0  0  0  0  0  0  0  0
   37.7040   29.2990   43.6210 H   0  0  0  0  0  0  0  0  0  0  0  0
   32.3040   29.3600   36.5990 C   0  0  0  0  0  0  0  0  0  0  0  0
   32.8610   29.4280   35.3310 C   0  0  0  0  0  0  0  0  0  0  0  0
   34.2240   29.1610   35.1960 C   0  0  0  0  0  0  0  0  0  0  0  0
   34.9350   28.8480   36.3200 N   0  0  0  0  0  0  0  0  0  0  0  0
   34.3660   28.7910   37.5420 C   0  0  0  0  0  0  0  0  0  0  0  0
   33.0520   29.0450   37.6870 N   0  0  0  0  0  0  0  0  0  0  0  0
   31.2370   29.5740   36.6710 H   0  0  0  0  0  0  0  0  0  0  0  0
   32.2980   29.6750   34.4390 H   0  0  0  0  0  0  0  0  0  0  0  0
   34.6640   29.2090   34.2290 H   0  0  0  0  0  0  0  0  0  0  0  0
   37.1380   25.5840   40.0780 C   0  0  0  0  0  0  0  0  0  0  0  0
   36.8140   24.6750   41.0730 C   0  0  0  0  0  0  0  0  0  0  0  0
   37.6510   23.5870   40.8350 C   0  0  0  0  0  0  0  0  0  0  0  0
   38.4230   23.8870   39.7280 C   0  0  0  0  0  0  0  0  0  0  0  0
   38.0710   25.0960   39.3190 O   0  0  0  0  0  0  0  0  0  0  0  0
   36.0730   24.8390   41.8290 H   0  0  0  0  0  0  0  0  0  0  0  0
   37.6660   22.6830   41.4290 H   0  0  0  0  0  0  0  0  0  0  0  0
   39.4570   23.0430   39.0910 C   0  0  0  0  0  2  0  0  0  0  0  0
   40.5640   23.9130   38.4780 C   0  0  0  0  0  2  0  0  0  0  0  0
   40.7970   24.7250   39.2270 H   0  0  0  0  0  0  0  0  0  0  0  0
  1  9  1  0  0  0  0
  2  1  2  0  0  0  0
  2  3  1  0  0  0  0
  3  4  2  0  0  0  0
  4  8  1  0  0  0  0
  4  5  1  0  0  0  0
  5 12  1  0  0  0  0
  5  6  1  0  0  0  0
  6 13  1  0  0  0  0
  7  6  2  0  0  0  0
  8  7  1  0  0  0  0
  9 23  1  0  0  0  0
  9  8  2  0  0  0  0
 10  1  1  0  0  0  0
 11  3  1  0  0  0  0
 14 20  1  0  0  0  0
 14 19  1  0  0  0  0
 15 14  2  0  0  0  0
 16 15  1  0  0  0  0
 16 17  2  0  0  0  0
 17 18  1  0  0  0  0
 18 19  2  0  0  0  0
 18  2  1  0  0  0  0
 21 15  1  0  0  0  0
 22 16  1  0  0  0  0
 23 24  2  0  0  0  0
 24 28  1  0  0  0  0
 25 24  1  0  0  0  0
 25 29  1  0  0  0  0
 26 25  2  0  0  0  0
 27 26  1  0  0  0  0
 27 23  1  0  0  0  0
 30 26  1  0  0  0  0
 31 30  1  0  0  0  0
 31 32  1  0  0  0  0
M  END
>  <minimizedAffinity>
-5.0458107

$$$$
