
 OpenBabel03252508413D

 22 23  0  0  0  0  0  0  0  0999 V2000
   46.4950   34.3560   41.3360 C   0  0  0  0  0  0  0  0  0  0  0  0
   47.7390   34.8400   41.0500 C   0  0  0  0  0  0  0  0  0  0  0  0
   48.3180   34.5780   39.8170 C   0  0  0  0  0  0  0  0  0  0  0  0
   47.6190   33.8290   38.8990 C   0  0  0  0  0  0  0  0  0  0  0  0
   46.3660   33.3150   39.1270 C   0  0  0  0  0  0  0  0  0  0  0  0
   45.8390   33.6140   40.3860 C   0  0  0  0  0  0  0  0  0  0  0  0
   49.3050   34.9410   39.5420 H   0  0  0  0  0  0  0  0  0  0  0  0
   48.0740   33.6250   37.9330 H   0  0  0  0  0  0  0  0  0  0  0  0
   45.8240   32.7290   38.4010 H   0  0  0  0  0  0  0  0  0  0  0  0
   44.8430   33.2180   40.5970 H   0  0  0  0  0  0  0  0  0  0  0  0
   44.6990   36.0200   44.2120 C   0  0  0  0  0  0  0  0  0  0  0  0
   45.2020   35.8230   42.9000 C   0  0  0  0  0  0  0  0  0  0  0  0
   45.9390   34.6590   42.6360 C   0  0  0  0  0  0  0  0  0  0  0  0
   46.1220   33.7980   43.6550 N   0  0  0  0  0  0  0  0  0  0  0  0
   45.6380   33.9990   44.8990 C   0  0  0  0  0  0  0  0  0  0  0  0
   44.9240   35.1120   45.1800 N   0  0  0  0  0  0  0  0  0  0  0  0
   44.1530   36.9540   44.2720 H   0  0  0  0  0  0  0  0  0  0  0  0
   45.0640   36.4950   42.0860 H   0  0  0  0  0  0  0  0  0  0  0  0
   45.8170   33.2700   45.6800 H   0  0  0  0  0  0  0  0  0  0  0  0
   48.4820   35.6480   42.0510 C   0  0  0  0  0  0  0  0  0  0  0  0
   49.7460   34.9400   42.4730 C   0  0  0  0  0  0  0  0  0  0  0  0
   49.5100   33.9850   42.9500 H   0  0  0  0  0  0  0  0  0  0  0  0
  1 13  1  0  0  0  0
  2  1  1  0  0  0  0
  2 20  1  0  0  0  0
  3  2  2  0  0  0  0
  4  5  2  0  0  0  0
  4  3  1  0  0  0  0
  5  6  1  0  0  0  0
  6 10  1  0  0  0  0
  6  1  2  0  0  0  0
  7  3  1  0  0  0  0
  8  4  1  0  0  0  0
  9  5  1  0  0  0  0
 11 17  1  0  0  0  0
 11 16  1  0  0  0  0
 12 11  2  0  0  0  0
 13 12  1  0  0  0  0
 13 14  2  0  0  0  0
 14 15  1  0  0  0  0
 15 16  2  0  0  0  0
 15 19  1  0  0  0  0
 18 12  1  0  0  0  0
 20 21  1  0  0  0  0
 21 22  1  0  0  0  0
M  END
>  <minimizedAffinity>
-5.02370119

>  <minimizedRMSD>
0.905136824

$$$$
