
 OpenBabel03252504213D

 13 13  0  0  0  0  0  0  0  0999 V2000
   37.2550   26.7160   42.1570 C   0  0  0  0  0  0  0  0  0  0  0  0
   38.0020   27.2370   43.2180 C   0  0  0  0  0  0  0  0  0  0  0  0
   38.0190   28.6270   43.4040 C   0  0  0  0  0  0  0  0  0  0  0  0
   37.3030   29.3960   42.5340 N   0  0  0  0  0  0  0  0  0  0  0  0
   36.5960   28.8590   41.5250 C   0  0  0  0  0  0  0  0  0  0  0  0
   36.5620   27.5310   41.3240 N   0  0  0  0  0  0  0  0  0  0  0  0
   38.5670   26.6030   43.9030 H   0  0  0  0  0  0  0  0  0  0  0  0
   38.5680   29.0800   44.1920 H   0  0  0  0  0  0  0  0  0  0  0  0
   37.3000   24.9270   42.0090 S   0  0  0  0  0  0  0  0  0  0  0  0
   36.0070   24.4610   42.3570 H   0  0  0  0  0  0  0  0  0  0  0  0
   35.8430   29.7720   40.6230 C   0  0  0  0  0  2  0  0  0  0  0  0
   36.4990   31.1510   40.6500 C   0  0  0  0  0  2  0  0  0  0  0  0
   36.5890   31.4330   41.7330 H   0  0  0  0  0  0  0  0  0  0  0  0
  1  2  1  0  0  0  0
  2  3  2  0  0  0  0
  2  7  1  0  0  0  0
  3  8  1  0  0  0  0
  4  3  1  0  0  0  0
  5  4  2  0  0  0  0
  6  5  1  0  0  0  0
  6  1  2  0  0  0  0
  9  1  1  0  0  0  0
  9 10  1  0  0  0  0
 11 12  1  0  0  0  0
 11  5  1  0  0  0  0
 12 13  1  0  0  0  0
M  END
>  <minimizedAffinity>
-3.18336225

$$$$

 OpenBabel03252504213D

 13 13  0  0  0  0  0  0  0  0999 V2000
   37.8210   31.3040   40.9160 C   0  0  0  0  0  0  0  0  0  0  0  0
   36.6380   31.1490   40.1880 C   0  0  0  0  0  0  0  0  0  0  0  0
   35.8250   30.0410   40.4620 C   0  0  0  0  0  0  0  0  0  0  0  0
   36.2360   29.1710   41.4290 N   0  0  0  0  0  0  0  0  0  0  0  0
   37.3800   29.3520   42.1100 C   0  0  0  0  0  0  0  0  0  0  0  0
   38.1790   30.4060   41.8680 N   0  0  0  0  0  0  0  0  0  0  0  0
   36.3280   31.8580   39.4190 H   0  0  0  0  0  0  0  0  0  0  0  0
   34.9150   29.8700   39.9420 H   0  0  0  0  0  0  0  0  0  0  0  0
   38.7880   32.7550   40.4880 S   0  0  0  0  0  0  0  0  0  0  0  0
   38.7010   33.6390   41.5930 H   0  0  0  0  0  0  0  0  0  0  0  0
   37.7530   28.3550   43.1490 C   0  0  0  0  0  2  0  0  0  0  0  0
   36.5740   27.4110   43.3790 C   0  0  0  0  0  2  0  0  0  0  0  0
   35.6820   28.0650   43.5700 H   0  0  0  0  0  0  0  0  0  0  0  0
  1  6  1  0  0  0  0
  2  3  1  0  0  0  0
  2  1  2  0  0  0  0
  3  4  2  0  0  0  0
  4  5  1  0  0  0  0
  5 11  1  0  0  0  0
  6  5  2  0  0  0  0
  7  2  1  0  0  0  0
  8  3  1  0  0  0  0
  9  1  1  0  0  0  0
  9 10  1  0  0  0  0
 11 12  1  0  0  0  0
 12 13  1  0  0  0  0
M  END
>  <minimizedAffinity>
-3.17719746

$$$$

 OpenBabel03252504213D

 13 13  0  0  0  0  0  0  0  0999 V2000
   37.3480   28.9600   42.1100 C   0  0  0  0  0  0  0  0  0  0  0  0
   36.1970   28.3740   41.5730 C   0  0  0  0  0  0  0  0  0  0  0  0
   35.4420   29.1070   40.6470 C   0  0  0  0  0  0  0  0  0  0  0  0
   35.8760   30.3580   40.3200 N   0  0  0  0  0  0  0  0  0  0  0  0
   36.9880   30.8900   40.8550 C   0  0  0  0  0  0  0  0  0  0  0  0
   37.7300   30.2090   41.7450 N   0  0  0  0  0  0  0  0  0  0  0  0
   35.8690   27.3700   41.8490 H   0  0  0  0  0  0  0  0  0  0  0  0
   34.5600   28.7150   40.2070 H   0  0  0  0  0  0  0  0  0  0  0  0
   38.2400   27.9360   43.2840 S   0  0  0  0  0  0  0  0  0  0  0  0
   39.4530   27.5620   42.6540 H   0  0  0  0  0  0  0  0  0  0  0  0
   37.3890   32.2620   40.4420 C   0  0  0  0  0  2  0  0  0  0  0  0
   37.1610   32.4150   38.9390 C   0  0  0  0  0  2  0  0  0  0  0  0
   37.6780   31.5450   38.4540 H   0  0  0  0  0  0  0  0  0  0  0  0
  1  9  1  0  0  0  0
  2  7  1  0  0  0  0
  2  1  2  0  0  0  0
  3  2  1  0  0  0  0
  4  3  2  0  0  0  0
  4  5  1  0  0  0  0
  5  6  2  0  0  0  0
  6  1  1  0  0  0  0
  8  3  1  0  0  0  0
 10  9  1  0  0  0  0
 11  5  1  0  0  0  0
 12 11  1  0  0  0  0
 13 12  1  0  0  0  0
M  END
>  <minimizedAffinity>
-3.17254114

$$$$

 OpenBabel03252504213D

 13 13  0  0  0  0  0  0  0  0999 V2000
   37.5230   30.4020   41.2390 C   0  0  0  0  0  0  0  0  0  0  0  0
   38.8010   30.7180   41.7090 C   0  0  0  0  0  0  0  0  0  0  0  0
   39.3580   29.9220   42.7200 C   0  0  0  0  0  0  0  0  0  0  0  0
   38.6160   28.8780   43.1900 N   0  0  0  0  0  0  0  0  0  0  0  0
   37.3900   28.6030   42.7130 C   0  0  0  0  0  0  0  0  0  0  0  0
   36.8330   29.3500   41.7450 N   0  0  0  0  0  0  0  0  0  0  0  0
   39.3770   31.5580   41.3180 H   0  0  0  0  0  0  0  0  0  0  0  0
   40.3230   30.1130   43.1170 H   0  0  0  0  0  0  0  0  0  0  0  0
   36.9050   31.4830   39.9450 S   0  0  0  0  0  0  0  0  0  0  0  0
   36.8770   30.7140   38.7550 H   0  0  0  0  0  0  0  0  0  0  0  0
   36.6510   27.4440   43.2830 C   0  0  0  0  0  2  0  0  0  0  0  0
   37.0070   26.1880   42.4900 C   0  0  0  0  0  2  0  0  0  0  0  0
   36.8400   26.4420   41.4100 H   0  0  0  0  0  0  0  0  0  0  0  0
  1  2  2  0  0  0  0
  1  6  1  0  0  0  0
  2  3  1  0  0  0  0
  3  8  1  0  0  0  0
  3  4  2  0  0  0  0
  5  4  1  0  0  0  0
  5 11  1  0  0  0  0
  6  5  2  0  0  0  0
  7  2  1  0  0  0  0
  9  1  1  0  0  0  0
 10  9  1  0  0  0  0
 12 11  1  0  0  0  0
 13 12  1  0  0  0  0
M  END
>  <minimizedAffinity>
-3.12907767

$$$$

 OpenBabel03252504213D

 13 13  0  0  0  0  0  0  0  0999 V2000
   36.9790   29.1670   41.6320 C   0  0  0  0  0  0  0  0  0  0  0  0
   37.6880   29.2480   42.8340 C   0  0  0  0  0  0  0  0  0  0  0  0
   38.1780   28.0640   43.4020 C   0  0  0  0  0  0  0  0  0  0  0  0
   37.9340   26.8930   42.7460 N   0  0  0  0  0  0  0  0  0  0  0  0
   37.2480   26.8530   41.5910 C   0  0  0  0  0  0  0  0  0  0  0  0
   36.7670   27.9730   41.0240 N   0  0  0  0  0  0  0  0  0  0  0  0
   37.8730   30.1960   43.3410 H   0  0  0  0  0  0  0  0  0  0  0  0
   38.7230   28.0630   44.3130 H   0  0  0  0  0  0  0  0  0  0  0  0
   36.3970   30.7400   40.9900 S   0  0  0  0  0  0  0  0  0  0  0  0
   37.1590   31.0080   39.8250 H   0  0  0  0  0  0  0  0  0  0  0  0
   37.0270   25.5330   40.9420 C   0  0  0  0  0  2  0  0  0  0  0  0
   37.0080   24.4480   42.0170 C   0  0  0  0  0  2  0  0  0  0  0  0
   37.9430   24.5900   42.6210 H   0  0  0  0  0  0  0  0  0  0  0  0
  1  2  1  0  0  0  0
  2  7  1  0  0  0  0
  2  3  2  0  0  0  0
  3  8  1  0  0  0  0
  4  3  1  0  0  0  0
  5  4  2  0  0  0  0
  6  5  1  0  0  0  0
  6  1  2  0  0  0  0
  9  1  1  0  0  0  0
 10  9  1  0  0  0  0
 11  5  1  0  0  0  0
 11 12  1  0  0  0  0
 12 13  1  0  0  0  0
M  END
>  <minimizedAffinity>
-3.12893224

$$$$

 OpenBabel03252504213D

 13 13  0  0  0  0  0  0  0  0999 V2000
   37.5100   29.0330   42.4960 C   0  0  0  0  0  0  0  0  0  0  0  0
   38.7810   29.4020   42.9470 C   0  0  0  0  0  0  0  0  0  0  0  0
   39.3980   30.5200   42.3680 C   0  0  0  0  0  0  0  0  0  0  0  0
   38.7190   31.1890   41.3920 N   0  0  0  0  0  0  0  0  0  0  0  0
   37.4970   30.8060   40.9840 C   0  0  0  0  0  0  0  0  0  0  0  0
   36.8830   29.7380   41.5220 N   0  0  0  0  0  0  0  0  0  0  0  0
   39.3060   28.8520   43.7300 H   0  0  0  0  0  0  0  0  0  0  0  0
   40.3620   30.8470   42.6680 H   0  0  0  0  0  0  0  0  0  0  0  0
   36.8120   27.5900   43.3040 S   0  0  0  0  0  0  0  0  0  0  0  0
   35.7350   28.0530   44.1000 H   0  0  0  0  0  0  0  0  0  0  0  0
   36.8270   31.5930   39.9140 C   0  0  0  0  0  2  0  0  0  0  0  0
   37.4840   32.9690   39.8230 C   0  0  0  0  0  2  0  0  0  0  0  0
   37.4830   33.3850   40.8650 H   0  0  0  0  0  0  0  0  0  0  0  0
  1  2  1  0  0  0  0
  1  9  1  0  0  0  0
  2  7  1  0  0  0  0
  3  8  1  0  0  0  0
  3  2  2  0  0  0  0
  4  3  1  0  0  0  0
  5  4  2  0  0  0  0
  5  6  1  0  0  0  0
  6  1  2  0  0  0  0
  9 10  1  0  0  0  0
 11  5  1  0  0  0  0
 12 11  1  0  0  0  0
 12 13  1  0  0  0  0
M  END
>  <minimizedAffinity>
-3.1020329

$$$$

 OpenBabel03252504213D

 13 13  0  0  0  0  0  0  0  0999 V2000
   38.4160   29.6980   42.3530 C   0  0  0  0  0  0  0  0  0  0  0  0
   38.4300   28.6570   43.2860 C   0  0  0  0  0  0  0  0  0  0  0  0
   37.3790   27.7280   43.2690 C   0  0  0  0  0  0  0  0  0  0  0  0
   36.3970   27.8940   42.3370 N   0  0  0  0  0  0  0  0  0  0  0  0
   36.4160   28.9080   41.4540 C   0  0  0  0  0  0  0  0  0  0  0  0
   37.4110   29.8110   41.4480 N   0  0  0  0  0  0  0  0  0  0  0  0
   39.2260   28.5420   44.0230 H   0  0  0  0  0  0  0  0  0  0  0  0
   37.3350   26.9180   43.9520 H   0  0  0  0  0  0  0  0  0  0  0  0
   39.8060   30.8280   42.4610 S   0  0  0  0  0  0  0  0  0  0  0  0
   40.5970   30.6090   41.3060 H   0  0  0  0  0  0  0  0  0  0  0  0
   35.3050   29.0140   40.4710 C   0  0  0  0  0  2  0  0  0  0  0  0
   35.8220   29.6970   39.2060 C   0  0  0  0  0  2  0  0  0  0  0  0
   36.3210   30.6440   39.5440 H   0  0  0  0  0  0  0  0  0  0  0  0
  1  9  1  0  0  0  0
  1  2  1  0  0  0  0
  2  7  1  0  0  0  0
  3  2  2  0  0  0  0
  3  8  1  0  0  0  0
  4  3  1  0  0  0  0
  5  4  2  0  0  0  0
  6  5  1  0  0  0  0
  6  1  2  0  0  0  0
 10  9  1  0  0  0  0
 11  5  1  0  0  0  0
 12 13  1  0  0  0  0
 12 11  1  0  0  0  0
M  END
>  <minimizedAffinity>
-3.02989554

$$$$

 OpenBabel03252504213D

 13 13  0  0  0  0  0  0  0  0999 V2000
   35.9190   29.6910   38.0510 C   0  0  0  0  0  0  0  0  0  0  0  0
   35.1090   28.9300   38.9000 C   0  0  0  0  0  0  0  0  0  0  0  0
   35.0660   29.2640   40.2600 C   0  0  0  0  0  0  0  0  0  0  0  0
   35.8210   30.3190   40.6820 N   0  0  0  0  0  0  0  0  0  0  0  0
   36.5890   31.0280   39.8380 C   0  0  0  0  0  0  0  0  0  0  0  0
   36.6490   30.7300   38.5290 N   0  0  0  0  0  0  0  0  0  0  0  0
   34.5110   28.0910   38.5400 H   0  0  0  0  0  0  0  0  0  0  0  0
   34.4690   28.7240   40.9520 H   0  0  0  0  0  0  0  0  0  0  0  0
   35.9010   29.1800   36.3300 S   0  0  0  0  0  0  0  0  0  0  0  0
   35.2280   30.2000   35.6130 H   0  0  0  0  0  0  0  0  0  0  0  0
   37.3820   32.1630   40.3830 C   0  0  0  0  0  2  0  0  0  0  0  0
   37.2550   33.3570   39.4380 C   0  0  0  0  0  2  0  0  0  0  0  0
   37.5140   32.9750   38.4150 H   0  0  0  0  0  0  0  0  0  0  0  0
  1  6  2  0  0  0  0
  1  2  1  0  0  0  0
  2  3  2  0  0  0  0
  3  4  1  0  0  0  0
  3  8  1  0  0  0  0
  5 11  1  0  0  0  0
  5  4  2  0  0  0  0
  6  5  1  0  0  0  0
  7  2  1  0  0  0  0
  9  1  1  0  0  0  0
 10  9  1  0  0  0  0
 12 11  1  0  0  0  0
 13 12  1  0  0  0  0
M  END
>  <minimizedAffinity>
-2.96350574

$$$$

 OpenBabel03252504213D

 13 13  0  0  0  0  0  0  0  0999 V2000
   38.8250   27.6180   42.9120 C   0  0  0  0  0  0  0  0  0  0  0  0
   39.9720   27.0890   43.5120 C   0  0  0  0  0  0  0  0  0  0  0  0
   40.1380   25.6970   43.5250 C   0  0  0  0  0  0  0  0  0  0  0  0
   39.1670   24.9330   42.9480 N   0  0  0  0  0  0  0  0  0  0  0  0
   38.0770   25.4770   42.3790 C   0  0  0  0  0  0  0  0  0  0  0  0
   37.8920   26.8080   42.3520 N   0  0  0  0  0  0  0  0  0  0  0  0
   40.7370   27.7200   43.9680 H   0  0  0  0  0  0  0  0  0  0  0  0
   40.9870   25.2380   43.9670 H   0  0  0  0  0  0  0  0  0  0  0  0
   38.7110   29.4090   42.9490 S   0  0  0  0  0  0  0  0  0  0  0  0
   38.8830   29.8530   41.6140 H   0  0  0  0  0  0  0  0  0  0  0  0
   37.0670   24.5690   41.7710 C   0  0  0  0  0  2  0  0  0  0  0  0
   37.7870   23.4040   41.0950 C   0  0  0  0  0  2  0  0  0  0  0  0
   38.5590   23.8630   40.4210 H   0  0  0  0  0  0  0  0  0  0  0  0
  1  9  1  0  0  0  0
  1  2  1  0  0  0  0
  2  3  2  0  0  0  0
  2  7  1  0  0  0  0
  3  8  1  0  0  0  0
  4  3  1  0  0  0  0
  5  4  2  0  0  0  0
  6  5  1  0  0  0  0
  6  1  2  0  0  0  0
 10  9  1  0  0  0  0
 11  5  1  0  0  0  0
 12 11  1  0  0  0  0
 13 12  1  0  0  0  0
M  END
>  <minimizedAffinity>
-2.94781995

$$$$
