
 OpenBabel03242518203D

 24 25  0  0  0  0  0  0  0  0999 V2000
   39.2690   29.7500   42.5370 C   0  0  0  0  0  0  0  0  0  0  0  0
   40.2290   29.4380   42.1200 H   0  0  0  0  0  0  0  0  0  0  0  0
   39.4720   30.2070   43.5420 H   0  0  0  0  0  0  0  0  0  0  0  0
   38.7620   32.9110   40.7420 C   0  0  0  0  0  0  0  0  0  0  0  0
   37.5310   32.7470   40.1070 C   0  0  0  0  0  0  0  0  0  0  0  0
   36.8810   31.5470   40.2970 C   0  0  0  0  0  0  0  0  0  0  0  0
   37.4420   30.6040   41.0720 N   0  0  0  0  0  0  0  0  0  0  0  0
   38.6420   30.7910   41.6790 C   0  0  0  0  0  0  0  0  0  0  0  0
   39.3140   31.9670   41.5100 N   0  0  0  0  0  0  0  0  0  0  0  0
   39.3730   33.8190   40.6670 H   0  0  0  0  0  0  0  0  0  0  0  0
   35.9460   31.4440   39.8050 H   0  0  0  0  0  0  0  0  0  0  0  0
   37.0830   33.8400   39.3280 N   0  0  0  0  0  0  0  0  0  0  0  0
   37.7510   34.4210   38.8050 H   0  0  0  0  0  0  0  0  0  0  0  0
   36.0720   34.0110   39.3210 H   0  0  0  0  0  0  0  0  0  0  0  0
   38.3460   28.5760   42.6930 C   0  0  0  0  0  0  0  0  0  0  0  0
   37.3990   28.4810   43.6800 C   0  0  0  0  0  0  0  0  0  0  0  0
   36.7330   27.2630   43.5140 C   0  0  0  0  0  0  0  0  0  0  0  0
   37.3330   26.6820   42.4120 C   0  0  0  0  0  0  0  0  0  0  0  0
   38.2440   27.4910   41.9970 O   0  0  0  0  0  0  0  0  0  0  0  0
   37.1330   29.1710   44.4910 H   0  0  0  0  0  0  0  0  0  0  0  0
   35.9290   26.7980   44.0660 H   0  0  0  0  0  0  0  0  0  0  0  0
   37.0090   25.3600   41.7860 C   0  0  0  0  0  2  0  0  0  0  0  0
   38.0630   24.3660   42.2300 C   0  0  0  0  0  2  0  0  0  0  0  0
   38.9960   24.9410   42.4610 H   0  0  0  0  0  0  0  0  0  0  0  0
  1 15  1  0  0  0  0
  1  3  1  0  0  0  0
  2  1  1  0  0  0  0
  4  9  1  0  0  0  0
  5  6  1  0  0  0  0
  5  4  2  0  0  0  0
  6  7  2  0  0  0  0
  7  8  1  0  0  0  0
  8  1  1  0  0  0  0
  9  8  2  0  0  0  0
 10  4  1  0  0  0  0
 11  6  1  0  0  0  0
 12  5  1  0  0  0  0
 13 12  1  0  0  0  0
 14 12  1  0  0  0  0
 15 16  2  0  0  0  0
 16 20  1  0  0  0  0
 17 16  1  0  0  0  0
 17 21  1  0  0  0  0
 18 17  2  0  0  0  0
 19 18  1  0  0  0  0
 19 15  1  0  0  0  0
 22 23  1  0  0  0  0
 22 18  1  0  0  0  0
 23 24  1  0  0  0  0
M  END
>  <minimizedAffinity>
-5.01750183

$$$$

 OpenBabel03242518203D

 24 25  0  0  0  0  0  0  0  0999 V2000
   36.3470   31.0380   40.9260 C   0  0  0  0  0  0  0  0  0  0  0  0
   36.3210   31.8040   41.7030 H   0  0  0  0  0  0  0  0  0  0  0  0
   35.3320   31.0100   40.4470 H   0  0  0  0  0  0  0  0  0  0  0  0
   37.8820   31.4780   37.6210 C   0  0  0  0  0  0  0  0  0  0  0  0
   39.1310   32.0360   37.8990 C   0  0  0  0  0  0  0  0  0  0  0  0
   39.4380   32.2610   39.2220 C   0  0  0  0  0  0  0  0  0  0  0  0
   38.5470   31.9390   40.1740 N   0  0  0  0  0  0  0  0  0  0  0  0
   37.3380   31.3960   39.8750 C   0  0  0  0  0  0  0  0  0  0  0  0
   37.0010   31.1620   38.5740 N   0  0  0  0  0  0  0  0  0  0  0  0
   37.5240   31.2530   36.6080 H   0  0  0  0  0  0  0  0  0  0  0  0
   40.3920   32.6860   39.4100 H   0  0  0  0  0  0  0  0  0  0  0  0
   39.9490   32.3140   36.7780 N   0  0  0  0  0  0  0  0  0  0  0  0
   39.5360   32.6300   35.8910 H   0  0  0  0  0  0  0  0  0  0  0  0
   40.9580   32.1820   36.9070 H   0  0  0  0  0  0  0  0  0  0  0  0
   36.6660   29.6920   41.5090 C   0  0  0  0  0  0  0  0  0  0  0  0
   36.0330   28.5340   41.1380 C   0  0  0  0  0  0  0  0  0  0  0  0
   36.5860   27.4890   41.8840 C   0  0  0  0  0  0  0  0  0  0  0  0
   37.5430   28.0940   42.6790 C   0  0  0  0  0  0  0  0  0  0  0  0
   37.5300   29.3520   42.4080 O   0  0  0  0  0  0  0  0  0  0  0  0
   35.2340   28.3540   40.4080 H   0  0  0  0  0  0  0  0  0  0  0  0
   36.3810   26.4290   41.9050 H   0  0  0  0  0  0  0  0  0  0  0  0
   38.4450   27.4390   43.6800 C   0  0  0  0  0  2  0  0  0  0  0  0
   39.8750   27.7640   43.2980 C   0  0  0  0  0  2  0  0  0  0  0  0
   39.8960   27.9510   42.1940 H   0  0  0  0  0  0  0  0  0  0  0  0
  1 15  1  0  0  0  0
  1  2  1  0  0  0  0
  3  1  1  0  0  0  0
  4  5  2  0  0  0  0
  4  9  1  0  0  0  0
  5  6  1  0  0  0  0
  6 11  1  0  0  0  0
  6  7  2  0  0  0  0
  8  7  1  0  0  0  0
  8  1  1  0  0  0  0
  9  8  2  0  0  0  0
 10  4  1  0  0  0  0
 12 14  1  0  0  0  0
 12  5  1  0  0  0  0
 13 12  1  0  0  0  0
 15 19  1  0  0  0  0
 16 15  2  0  0  0  0
 16 17  1  0  0  0  0
 17 21  1  0  0  0  0
 17 18  2  0  0  0  0
 18 22  1  0  0  0  0
 19 18  1  0  0  0  0
 20 16  1  0  0  0  0
 23 22  1  0  0  0  0
 24 23  1  0  0  0  0
M  END
>  <minimizedAffinity>
-4.86893702

$$$$

 OpenBabel03242518203D

 24 25  0  0  0  0  0  0  0  0999 V2000
   35.6390   29.6550   40.6160 C   0  0  0  0  0  0  0  0  0  0  0  0
   35.1840   30.4140   41.2550 H   0  0  0  0  0  0  0  0  0  0  0  0
   34.8090   29.0320   40.1890 H   0  0  0  0  0  0  0  0  0  0  0  0
   37.4640   32.1550   38.6430 C   0  0  0  0  0  0  0  0  0  0  0  0
   37.6980   31.5190   37.4230 C   0  0  0  0  0  0  0  0  0  0  0  0
   37.2280   30.2320   37.2850 C   0  0  0  0  0  0  0  0  0  0  0  0
   36.5750   29.6510   38.3050 N   0  0  0  0  0  0  0  0  0  0  0  0
   36.3610   30.2940   39.4820 C   0  0  0  0  0  0  0  0  0  0  0  0
   36.8150   31.5690   39.6530 N   0  0  0  0  0  0  0  0  0  0  0  0
   37.7890   33.1780   38.8730 H   0  0  0  0  0  0  0  0  0  0  0  0
   37.4180   29.7680   36.3500 H   0  0  0  0  0  0  0  0  0  0  0  0
   38.4010   32.2750   36.4550 N   0  0  0  0  0  0  0  0  0  0  0  0
   39.1430   32.9290   36.7360 H   0  0  0  0  0  0  0  0  0  0  0  0
   38.1280   32.1290   35.4770 H   0  0  0  0  0  0  0  0  0  0  0  0
   36.5720   28.7810   41.4030 C   0  0  0  0  0  0  0  0  0  0  0  0
   37.3480   29.2370   42.4370 C   0  0  0  0  0  0  0  0  0  0  0  0
   38.0820   28.1530   42.9280 C   0  0  0  0  0  0  0  0  0  0  0  0
   37.6960   27.0830   42.1410 C   0  0  0  0  0  0  0  0  0  0  0  0
   36.8320   27.5190   41.2940 O   0  0  0  0  0  0  0  0  0  0  0  0
   37.4480   30.2380   42.8740 H   0  0  0  0  0  0  0  0  0  0  0  0
   38.8040   28.0710   43.7280 H   0  0  0  0  0  0  0  0  0  0  0  0
   38.1720   25.6650   42.2300 C   0  0  0  0  0  2  0  0  0  0  0  0
   36.9630   24.7600   42.1030 C   0  0  0  0  0  2  0  0  0  0  0  0
   36.0710   25.3350   42.4620 H   0  0  0  0  0  0  0  0  0  0  0  0
  1  2  1  0  0  0  0
  1 15  1  0  0  0  0
  3  1  1  0  0  0  0
  4 10  1  0  0  0  0
  4  9  1  0  0  0  0
  5  4  2  0  0  0  0
  6  5  1  0  0  0  0
  6  7  2  0  0  0  0
  7  8  1  0  0  0  0
  8  9  2  0  0  0  0
  8  1  1  0  0  0  0
 11  6  1  0  0  0  0
 12 13  1  0  0  0  0
 12  5  1  0  0  0  0
 14 12  1  0  0  0  0
 15 16  2  0  0  0  0
 16 20  1  0  0  0  0
 16 17  1  0  0  0  0
 17 21  1  0  0  0  0
 18 22  1  0  0  0  0
 18 17  2  0  0  0  0
 19 15  1  0  0  0  0
 19 18  1  0  0  0  0
 23 22  1  0  0  0  0
 23 24  1  0  0  0  0
M  END
>  <minimizedAffinity>
-4.69957876

$$$$

 OpenBabel03242518203D

 24 25  0  0  0  0  0  0  0  0999 V2000
   36.3370   30.6450   41.1060 C   0  0  0  0  0  0  0  0  0  0  0  0
   36.1840   31.4410   41.8370 H   0  0  0  0  0  0  0  0  0  0  0  0
   35.3380   30.4090   40.6520 H   0  0  0  0  0  0  0  0  0  0  0  0
   37.8840   30.9520   37.7920 C   0  0  0  0  0  0  0  0  0  0  0  0
   38.8740   31.9200   37.9680 C   0  0  0  0  0  0  0  0  0  0  0  0
   39.0030   32.4640   39.2260 C   0  0  0  0  0  0  0  0  0  0  0  0
   38.1930   32.0510   40.2150 N   0  0  0  0  0  0  0  0  0  0  0  0
   37.2380   31.1070   40.0150 C   0  0  0  0  0  0  0  0  0  0  0  0
   37.0810   30.5480   38.7800 N   0  0  0  0  0  0  0  0  0  0  0  0
   37.6840   30.4470   36.8380 H   0  0  0  0  0  0  0  0  0  0  0  0
   39.7620   33.1980   39.3370 H   0  0  0  0  0  0  0  0  0  0  0  0
   39.6410   32.2390   36.8220 N   0  0  0  0  0  0  0  0  0  0  0  0
   39.2110   32.2420   35.8870 H   0  0  0  0  0  0  0  0  0  0  0  0
   40.6290   32.4610   36.9820 H   0  0  0  0  0  0  0  0  0  0  0  0
   36.8970   29.4160   41.7610 C   0  0  0  0  0  0  0  0  0  0  0  0
   37.9010   29.4440   42.6940 C   0  0  0  0  0  0  0  0  0  0  0  0
   38.1610   28.1250   43.0780 C   0  0  0  0  0  0  0  0  0  0  0  0
   37.2770   27.3620   42.3360 C   0  0  0  0  0  0  0  0  0  0  0  0
   36.5890   28.1700   41.6080 O   0  0  0  0  0  0  0  0  0  0  0  0
   38.4600   30.2840   43.1240 H   0  0  0  0  0  0  0  0  0  0  0  0
   38.8660   27.7010   43.7800 H   0  0  0  0  0  0  0  0  0  0  0  0
   37.1200   25.8720   42.3510 C   0  0  0  0  0  2  0  0  0  0  0  0
   37.0340   25.4000   40.9140 C   0  0  0  0  0  2  0  0  0  0  0  0
   36.6300   26.2470   40.3030 H   0  0  0  0  0  0  0  0  0  0  0  0
  1 15  1  0  0  0  0
  1  2  1  0  0  0  0
  3  1  1  0  0  0  0
  4  5  2  0  0  0  0
  4  9  1  0  0  0  0
  5  6  1  0  0  0  0
  6 11  1  0  0  0  0
  6  7  2  0  0  0  0
  8  7  1  0  0  0  0
  8  1  1  0  0  0  0
  9  8  2  0  0  0  0
 10  4  1  0  0  0  0
 12 14  1  0  0  0  0
 12  5  1  0  0  0  0
 13 12  1  0  0  0  0
 15 16  2  0  0  0  0
 16 17  1  0  0  0  0
 16 20  1  0  0  0  0
 17 21  1  0  0  0  0
 18 22  1  0  0  0  0
 18 17  2  0  0  0  0
 19 15  1  0  0  0  0
 19 18  1  0  0  0  0
 23 22  1  0  0  0  0
 24 23  1  0  0  0  0
M  END
>  <minimizedAffinity>
-4.67594242

$$$$

 OpenBabel03242518203D

 24 25  0  0  0  0  0  0  0  0999 V2000
   38.8980   28.9680   42.8900 C   0  0  0  0  0  0  0  0  0  0  0  0
   39.9740   29.1070   43.0090 H   0  0  0  0  0  0  0  0  0  0  0  0
   38.4370   29.0250   43.9120 H   0  0  0  0  0  0  0  0  0  0  0  0
   38.6370   32.0750   40.9540 C   0  0  0  0  0  0  0  0  0  0  0  0
   37.3040   32.1080   40.5430 C   0  0  0  0  0  0  0  0  0  0  0  0
   36.5000   31.0600   40.9340 C   0  0  0  0  0  0  0  0  0  0  0  0
   37.0170   30.0690   41.6790 N   0  0  0  0  0  0  0  0  0  0  0  0
   38.3190   30.0630   42.0650 C   0  0  0  0  0  0  0  0  0  0  0  0
   39.1430   31.0860   41.6940 N   0  0  0  0  0  0  0  0  0  0  0  0
   39.3730   32.8510   40.7060 H   0  0  0  0  0  0  0  0  0  0  0  0
   35.4900   31.1050   40.6100 H   0  0  0  0  0  0  0  0  0  0  0  0
   36.9220   33.2260   39.7630 N   0  0  0  0  0  0  0  0  0  0  0  0
   37.5780   33.6460   39.0920 H   0  0  0  0  0  0  0  0  0  0  0  0
   35.9700   33.5780   39.9080 H   0  0  0  0  0  0  0  0  0  0  0  0
   38.5950   27.6330   42.2730 C   0  0  0  0  0  0  0  0  0  0  0  0
   39.2070   27.1640   41.1400 C   0  0  0  0  0  0  0  0  0  0  0  0
   38.6770   25.9000   40.8630 C   0  0  0  0  0  0  0  0  0  0  0  0
   37.7560   25.6770   41.8700 C   0  0  0  0  0  0  0  0  0  0  0  0
   37.7650   26.7110   42.6370 O   0  0  0  0  0  0  0  0  0  0  0  0
   39.9750   27.6140   40.4990 H   0  0  0  0  0  0  0  0  0  0  0  0
   38.8770   25.1900   40.0740 H   0  0  0  0  0  0  0  0  0  0  0  0
   36.8900   24.4700   42.0650 C   0  0  0  0  0  2  0  0  0  0  0  0
   36.4240   24.0070   40.7000 C   0  0  0  0  0  2  0  0  0  0  0  0
   36.4220   24.8990   40.0230 H   0  0  0  0  0  0  0  0  0  0  0  0
  1  2  1  0  0  0  0
  1  3  1  0  0  0  0
  4  9  1  0  0  0  0
  5  6  1  0  0  0  0
  5  4  2  0  0  0  0
  6  7  2  0  0  0  0
  7  8  1  0  0  0  0
  8  1  1  0  0  0  0
  9  8  2  0  0  0  0
 10  4  1  0  0  0  0
 11  6  1  0  0  0  0
 12 14  1  0  0  0  0
 12  5  1  0  0  0  0
 13 12  1  0  0  0  0
 15 19  1  0  0  0  0
 15  1  1  0  0  0  0
 16 15  2  0  0  0  0
 17 16  1  0  0  0  0
 17 18  2  0  0  0  0
 18 22  1  0  0  0  0
 18 19  1  0  0  0  0
 20 16  1  0  0  0  0
 21 17  1  0  0  0  0
 23 22  1  0  0  0  0
 24 23  1  0  0  0  0
M  END
>  <minimizedAffinity>
-4.53411484

$$$$

 OpenBabel03242518203D

 24 25  0  0  0  0  0  0  0  0999 V2000
   37.7480   28.5710   43.6800 C   0  0  0  0  0  0  0  0  0  0  0  0
   36.7600   28.6820   44.1310 H   0  0  0  0  0  0  0  0  0  0  0  0
   38.5080   28.7290   44.4910 H   0  0  0  0  0  0  0  0  0  0  0  0
   39.3020   25.3440   42.8780 C   0  0  0  0  0  0  0  0  0  0  0  0
   38.3080   24.6510   42.1860 C   0  0  0  0  0  0  0  0  0  0  0  0
   37.1060   25.2970   42.0000 C   0  0  0  0  0  0  0  0  0  0  0  0
   36.9410   26.5420   42.4780 N   0  0  0  0  0  0  0  0  0  0  0  0
   37.9260   27.1930   43.1470 C   0  0  0  0  0  0  0  0  0  0  0  0
   39.1290   26.5810   43.3510 N   0  0  0  0  0  0  0  0  0  0  0  0
   40.2990   24.9360   43.0890 H   0  0  0  0  0  0  0  0  0  0  0  0
   36.3650   24.7520   41.4710 H   0  0  0  0  0  0  0  0  0  0  0  0
   38.6490   23.3490   41.7500 N   0  0  0  0  0  0  0  0  0  0  0  0
   39.2610   22.7480   42.3180 H   0  0  0  0  0  0  0  0  0  0  0  0
   38.2530   23.0500   40.8520 H   0  0  0  0  0  0  0  0  0  0  0  0
   37.9560   29.5830   42.5900 C   0  0  0  0  0  0  0  0  0  0  0  0
   39.1560   30.1980   42.3450 C   0  0  0  0  0  0  0  0  0  0  0  0
   38.9750   31.0690   41.2660 C   0  0  0  0  0  0  0  0  0  0  0  0
   37.6450   30.9240   40.9170 C   0  0  0  0  0  0  0  0  0  0  0  0
   37.1290   30.0580   41.7170 O   0  0  0  0  0  0  0  0  0  0  0  0
   40.1310   30.0970   42.8390 H   0  0  0  0  0  0  0  0  0  0  0  0
   39.6530   31.7380   40.7550 H   0  0  0  0  0  0  0  0  0  0  0  0
   36.9070   31.6250   39.8180 C   0  0  0  0  0  2  0  0  0  0  0  0
   37.4240   33.0470   39.7450 C   0  0  0  0  0  2  0  0  0  0  0  0
   37.8060   33.3210   40.7620 H   0  0  0  0  0  0  0  0  0  0  0  0
  1  2  1  0  0  0  0
  1  3  1  0  0  0  0
  4 10  1  0  0  0  0
  4  9  1  0  0  0  0
  5  4  2  0  0  0  0
  6  5  1  0  0  0  0
  6  7  2  0  0  0  0
  7  8  1  0  0  0  0
  8  9  2  0  0  0  0
  8  1  1  0  0  0  0
 11  6  1  0  0  0  0
 12  5  1  0  0  0  0
 12 13  1  0  0  0  0
 14 12  1  0  0  0  0
 15  1  1  0  0  0  0
 16 15  2  0  0  0  0
 16 20  1  0  0  0  0
 17 16  1  0  0  0  0
 18 17  2  0  0  0  0
 18 19  1  0  0  0  0
 19 15  1  0  0  0  0
 21 17  1  0  0  0  0
 22 18  1  0  0  0  0
 23 22  1  0  0  0  0
 23 24  1  0  0  0  0
M  END
>  <minimizedAffinity>
-4.50699043

$$$$

 OpenBabel03242518203D

 24 25  0  0  0  0  0  0  0  0999 V2000
   35.8350   29.2390   41.0510 C   0  0  0  0  0  0  0  0  0  0  0  0
   35.2580   28.5400   40.4420 H   0  0  0  0  0  0  0  0  0  0  0  0
   35.1430   29.6590   41.8280 H   0  0  0  0  0  0  0  0  0  0  0  0
   37.8570   26.5180   42.4580 C   0  0  0  0  0  0  0  0  0  0  0  0
   38.9440   27.1700   43.0420 C   0  0  0  0  0  0  0  0  0  0  0  0
   38.9770   28.5440   42.9480 C   0  0  0  0  0  0  0  0  0  0  0  0
   37.9840   29.1890   42.3140 N   0  0  0  0  0  0  0  0  0  0  0  0
   36.9370   28.5290   41.7550 C   0  0  0  0  0  0  0  0  0  0  0  0
   36.8740   27.1680   41.8290 N   0  0  0  0  0  0  0  0  0  0  0  0
   37.7200   25.4290   42.4670 H   0  0  0  0  0  0  0  0  0  0  0  0
   39.8120   29.0190   43.3990 H   0  0  0  0  0  0  0  0  0  0  0  0
   39.9010   26.3390   43.6710 N   0  0  0  0  0  0  0  0  0  0  0  0
   40.1250   25.4120   43.2870 H   0  0  0  0  0  0  0  0  0  0  0  0
   40.3460   26.7150   44.5150 H   0  0  0  0  0  0  0  0  0  0  0  0
   36.3860   30.3540   40.2100 C   0  0  0  0  0  0  0  0  0  0  0  0
   36.7740   30.2000   38.9040 C   0  0  0  0  0  0  0  0  0  0  0  0
   37.2310   31.4400   38.4470 C   0  0  0  0  0  0  0  0  0  0  0  0
   37.0870   32.2880   39.5300 C   0  0  0  0  0  0  0  0  0  0  0  0
   36.5980   31.5960   40.4990 O   0  0  0  0  0  0  0  0  0  0  0  0
   36.7690   29.3180   38.2520 H   0  0  0  0  0  0  0  0  0  0  0  0
   37.6220   31.7590   37.4920 H   0  0  0  0  0  0  0  0  0  0  0  0
   37.4240   33.7460   39.6000 C   0  0  0  0  0  2  0  0  0  0  0  0
   38.7050   33.8890   40.3970 C   0  0  0  0  0  2  0  0  0  0  0  0
   38.7720   33.0110   41.0910 H   0  0  0  0  0  0  0  0  0  0  0  0
  1  8  1  0  0  0  0
  1  3  1  0  0  0  0
  2  1  1  0  0  0  0
  4 10  1  0  0  0  0
  4  5  1  0  0  0  0
  5 12  1  0  0  0  0
  6  5  2  0  0  0  0
  6 11  1  0  0  0  0
  7  6  1  0  0  0  0
  8  9  1  0  0  0  0
  8  7  2  0  0  0  0
  9  4  2  0  0  0  0
 12 14  1  0  0  0  0
 13 12  1  0  0  0  0
 15 19  1  0  0  0  0
 15  1  1  0  0  0  0
 16 15  2  0  0  0  0
 17 16  1  0  0  0  0
 17 18  2  0  0  0  0
 18 22  1  0  0  0  0
 18 19  1  0  0  0  0
 20 16  1  0  0  0  0
 21 17  1  0  0  0  0
 22 23  1  0  0  0  0
 23 24  1  0  0  0  0
M  END
>  <minimizedAffinity>
-4.39889574

$$$$

 OpenBabel03242518203D

 24 25  0  0  0  0  0  0  0  0999 V2000
   37.5600   28.2710   42.9890 C   0  0  0  0  0  0  0  0  0  0  0  0
   36.8660   28.2280   43.8310 H   0  0  0  0  0  0  0  0  0  0  0  0
   38.5340   28.6740   43.3750 H   0  0  0  0  0  0  0  0  0  0  0  0
   37.0780   24.7190   42.2010 C   0  0  0  0  0  0  0  0  0  0  0  0
   38.2230   24.3720   41.4830 C   0  0  0  0  0  0  0  0  0  0  0  0
   39.1560   25.3640   41.2720 C   0  0  0  0  0  0  0  0  0  0  0  0
   38.9350   26.5970   41.7550 N   0  0  0  0  0  0  0  0  0  0  0  0
   37.8110   26.9060   42.4520 C   0  0  0  0  0  0  0  0  0  0  0  0
   36.8660   25.9480   42.6780 N   0  0  0  0  0  0  0  0  0  0  0  0
   36.2660   24.0180   42.4320 H   0  0  0  0  0  0  0  0  0  0  0  0
   40.0190   25.0780   40.7230 H   0  0  0  0  0  0  0  0  0  0  0  0
   38.2990   23.0280   41.0460 N   0  0  0  0  0  0  0  0  0  0  0  0
   37.4520   22.5220   40.7550 H   0  0  0  0  0  0  0  0  0  0  0  0
   39.2320   22.6030   41.0380 H   0  0  0  0  0  0  0  0  0  0  0  0
   37.0360   29.1700   41.9070 C   0  0  0  0  0  0  0  0  0  0  0  0
   35.9340   28.8780   41.1460 C   0  0  0  0  0  0  0  0  0  0  0  0
   35.7450   29.9340   40.2490 C   0  0  0  0  0  0  0  0  0  0  0  0
   36.7690   30.8200   40.5290 C   0  0  0  0  0  0  0  0  0  0  0  0
   37.4640   30.3150   41.4870 O   0  0  0  0  0  0  0  0  0  0  0  0
   35.2600   28.0120   41.1580 H   0  0  0  0  0  0  0  0  0  0  0  0
   35.0050   30.1060   39.4810 H   0  0  0  0  0  0  0  0  0  0  0  0
   37.0490   32.1320   39.8630 C   0  0  0  0  0  2  0  0  0  0  0  0
   37.4020   31.8530   38.4160 C   0  0  0  0  0  2  0  0  0  0  0  0
   37.8250   30.8170   38.3650 H   0  0  0  0  0  0  0  0  0  0  0  0
  1  3  1  0  0  0  0
  1  2  1  0  0  0  0
  4 10  1  0  0  0  0
  4  9  1  0  0  0  0
  5  4  2  0  0  0  0
  6  5  1  0  0  0  0
  6  7  2  0  0  0  0
  7  8  1  0  0  0  0
  8  9  2  0  0  0  0
  8  1  1  0  0  0  0
 11  6  1  0  0  0  0
 12  5  1  0  0  0  0
 13 12  1  0  0  0  0
 14 12  1  0  0  0  0
 15  1  1  0  0  0  0
 16 20  1  0  0  0  0
 16 15  2  0  0  0  0
 17 18  2  0  0  0  0
 17 16  1  0  0  0  0
 18 19  1  0  0  0  0
 19 15  1  0  0  0  0
 21 17  1  0  0  0  0
 22 18  1  0  0  0  0
 23 22  1  0  0  0  0
 24 23  1  0  0  0  0
M  END
>  <minimizedAffinity>
-4.37164068

$$$$

 OpenBabel03242518203D

 24 25  0  0  0  0  0  0  0  0999 V2000
   36.9020   27.0420   42.9700 C   0  0  0  0  0  0  0  0  0  0  0  0
   37.5660   27.1790   43.8260 H   0  0  0  0  0  0  0  0  0  0  0  0
   35.8860   26.7810   43.3700 H   0  0  0  0  0  0  0  0  0  0  0  0
   37.6050   30.4270   41.7380 C   0  0  0  0  0  0  0  0  0  0  0  0
   36.5980   30.6630   40.8020 C   0  0  0  0  0  0  0  0  0  0  0  0
   35.6820   29.6550   40.5970 C   0  0  0  0  0  0  0  0  0  0  0  0
   35.7880   28.5110   41.2910 N   0  0  0  0  0  0  0  0  0  0  0  0
   36.7790   28.3080   42.1980 C   0  0  0  0  0  0  0  0  0  0  0  0
   37.7040   29.2850   42.4240 N   0  0  0  0  0  0  0  0  0  0  0  0
   38.3910   31.1510   41.9880 H   0  0  0  0  0  0  0  0  0  0  0  0
   34.9260   29.8560   39.8800 H   0  0  0  0  0  0  0  0  0  0  0  0
   36.6320   31.9240   40.1590 N   0  0  0  0  0  0  0  0  0  0  0  0
   37.5280   32.3750   39.9350 H   0  0  0  0  0  0  0  0  0  0  0  0
   35.7240   32.3460   39.9370 H   0  0  0  0  0  0  0  0  0  0  0  0
   37.3930   25.9350   42.0830 C   0  0  0  0  0  0  0  0  0  0  0  0
   36.8570   24.6730   42.0760 C   0  0  0  0  0  0  0  0  0  0  0  0
   37.5610   23.9170   41.1330 C   0  0  0  0  0  0  0  0  0  0  0  0
   38.5010   24.7890   40.6150 C   0  0  0  0  0  0  0  0  0  0  0  0
   38.3430   25.9220   41.2060 O   0  0  0  0  0  0  0  0  0  0  0  0
   36.0350   24.2370   42.6580 H   0  0  0  0  0  0  0  0  0  0  0  0
   37.4670   22.8890   40.8140 H   0  0  0  0  0  0  0  0  0  0  0  0
   39.5280   24.5060   39.5620 C   0  0  0  0  0  2  0  0  0  0  0  0
   40.8570   25.0420   40.0520 C   0  0  0  0  0  2  0  0  0  0  0  0
   40.6420   25.8800   40.7640 H   0  0  0  0  0  0  0  0  0  0  0  0
  1  3  1  0  0  0  0
  1  2  1  0  0  0  0
  4 10  1  0  0  0  0
  4  9  1  0  0  0  0
  5  4  2  0  0  0  0
  6  5  1  0  0  0  0
  6  7  2  0  0  0  0
  7  8  1  0  0  0  0
  8  9  2  0  0  0  0
  8  1  1  0  0  0  0
 11  6  1  0  0  0  0
 12  5  1  0  0  0  0
 13 12  1  0  0  0  0
 14 12  1  0  0  0  0
 15  1  1  0  0  0  0
 16 15  2  0  0  0  0
 16 20  1  0  0  0  0
 17 16  1  0  0  0  0
 18 17  2  0  0  0  0
 18 19  1  0  0  0  0
 19 15  1  0  0  0  0
 21 17  1  0  0  0  0
 22 23  1  0  0  0  0
 22 18  1  0  0  0  0
 23 24  1  0  0  0  0
M  END
>  <minimizedAffinity>
-4.35366964

$$$$
