
 OpenBabel03252509163D

 19 20  0  0  0  0  0  0  0  0999 V2000
   45.8720   33.1000   46.1290 C   0  0  0  0  0  0  0  0  0  0  0  0
   45.3390   32.9400   47.4350 C   0  0  0  0  0  0  0  0  0  0  0  0
   45.7560   31.8630   48.1500 C   0  0  0  0  0  0  0  0  0  0  0  0
   46.6830   30.9610   47.5790 C   0  0  0  0  0  0  0  0  0  0  0  0
   46.9900   31.6730   45.9290 S   0  0  0  0  0  0  0  0  0  0  0  0
   44.6430   33.6590   47.8050 H   0  0  0  0  0  0  0  0  0  0  0  0
   45.4150   31.6490   49.1450 H   0  0  0  0  0  0  0  0  0  0  0  0
   44.4780   36.1530   44.5420 C   0  0  0  0  0  0  0  0  0  0  0  0
   45.1280   36.0910   43.2900 C   0  0  0  0  0  0  0  0  0  0  0  0
   46.0100   35.0210   43.0360 C   0  0  0  0  0  0  0  0  0  0  0  0
   46.1820   34.0960   44.0360 N   0  0  0  0  0  0  0  0  0  0  0  0
   45.5350   34.2040   45.2120 C   0  0  0  0  0  0  0  0  0  0  0  0
   44.6820   35.2260   45.4770 N   0  0  0  0  0  0  0  0  0  0  0  0
   43.8170   36.9750   44.7010 H   0  0  0  0  0  0  0  0  0  0  0  0
   44.9950   36.8140   42.5070 H   0  0  0  0  0  0  0  0  0  0  0  0
   46.5490   34.8920   42.1120 H   0  0  0  0  0  0  0  0  0  0  0  0
   47.2690   29.7780   48.1010 C   0  0  0  0  0  2  0  0  0  0  0  0
   46.9190   28.5540   47.3030 C   0  0  0  0  0  2  0  0  0  0  0  0
   46.3370   28.7950   46.3750 H   0  0  0  0  0  0  0  0  0  0  0  0
  1  2  2  0  0  0  0
  2  6  1  0  0  0  0
  2  3  1  0  0  0  0
  3  7  1  0  0  0  0
  4 17  1  0  0  0  0
  4  3  2  0  0  0  0
  5  1  1  0  0  0  0
  5  4  1  0  0  0  0
  8 14  1  0  0  0  0
  8 13  1  0  0  0  0
  9  8  2  0  0  0  0
 10  9  1  0  0  0  0
 10 11  2  0  0  0  0
 11 12  1  0  0  0  0
 12 13  2  0  0  0  0
 12  1  1  0  0  0  0
 15  9  1  0  0  0  0
 16 10  1  0  0  0  0
 18 17  1  0  0  0  0
 19 18  1  0  0  0  0
M  END
>  <minimizedAffinity>
-4.01849556

>  <minimizedRMSD>
0.769272745

$$$$
