
 OpenBabel03252503303D

 31 32  0  0  1  0  0  0  0  0999 V2000
   45.2070   34.7760   42.3960 C   0  0  0  0  0  0  0  0  0  0  0  0
   46.3500   35.2140   41.6900 C   0  0  0  0  0  0  0  0  0  0  0  0
   47.6030   34.9020   42.2290 C   0  0  0  0  0  0  0  0  0  0  0  0
   47.6200   34.2020   43.3880 N   0  0  0  0  0  0  0  0  0  0  0  0
   46.5200   33.7980   44.0370 C   0  0  0  0  0  0  0  0  0  0  0  0
   45.3130   34.0920   43.5290 N   0  0  0  0  0  0  0  0  0  0  0  0
   43.5660   34.2090   40.8260 C   0  0  0  0  0  0  0  0  0  0  0  0
   44.4200   33.3860   40.4130 O   0  0  0  0  0  0  0  0  0  0  0  0
   43.8900   35.0500   41.9190 N   0  0  0  0  0  0  0  0  0  0  0  0
   42.3180   34.2330   40.1500 N   0  0  0  0  0  0  0  0  0  0  0  0
   42.1630   33.5960   38.8440 C   0  0  0  0  0  0  0  0  0  0  0  0
   41.1350   34.4740   38.1910 C   0  0  0  0  0  0  0  0  0  0  0  0
   40.6500   35.4600   39.2230 C   0  0  0  0  0  0  0  0  0  0  0  0
   41.0480   34.8070   40.5130 C   0  0  1  0  0  0  0  0  0  0  0  0
   46.2010   35.7660   40.7750 H   0  0  0  0  0  0  0  0  0  0  0  0
   46.6120   33.2400   44.9630 H   0  0  0  0  0  0  0  0  0  0  0  0
   43.1640   35.7150   42.2050 H   0  0  0  0  0  0  0  0  0  0  0  0
   43.1140   33.6170   38.2680 H   0  0  0  0  0  0  0  0  0  0  0  0
   41.8640   32.5350   38.9420 H   0  0  0  0  0  0  0  0  0  0  0  0
   40.3120   33.8940   37.7260 H   0  0  0  0  0  0  0  0  0  0  0  0
   41.6190   35.0560   37.3700 H   0  0  0  0  0  0  0  0  0  0  0  0
   41.0360   36.4800   39.0880 H   0  0  0  0  0  0  0  0  0  0  0  0
   39.5430   35.5060   39.1180 H   0  0  0  0  0  0  0  0  0  0  0  0
   41.2320   35.5520   41.2980 H   0  0  0  0  0  0  0  0  0  0  0  0
   48.7530   35.3760   41.4640 C   0  0  0  0  0  0  0  0  0  0  0  0
   49.8520   34.5850   41.7650 F   0  0  0  0  0  0  0  0  0  0  0  0
   49.0730   36.6360   41.9490 F   0  0  0  0  0  0  0  0  0  0  0  0
   48.5580   35.3570   40.1100 F   0  0  0  0  0  0  0  0  0  0  0  0
   40.0430   33.8180   41.0260 C   0  0  0  0  0  0  0  0  0  0  0  0
   38.7210   34.0910   40.3430 C   0  0  0  0  0  0  0  0  0  0  0  0
   38.8110   34.8880   39.5850 H   0  0  0  0  0  0  0  0  0  0  0  0
  1  6  1  0  0  0  0
  2  3  1  0  0  0  0
  2  1  2  0  0  0  0
  3  4  2  0  0  0  0
  4  5  1  0  0  0  0
  5 16  1  0  0  0  0
  6  5  2  0  0  0  0
  7  9  1  0  0  0  0
  8  7  2  0  0  0  0
  9 17  1  0  0  0  0
  9  1  1  0  0  0  0
 10 14  1  0  0  0  0
 10  7  1  0  0  0  0
 11 19  1  0  0  0  0
 11 10  1  0  0  0  0
 12 11  1  0  0  0  0
 12 13  1  0  0  0  0
 13 14  1  0  0  0  0
 14 29  1  0  0  0  0
 14 24  1  1  0  0  0
 15  2  1  0  0  0  0
 18 11  1  0  0  0  0
 20 12  1  0  0  0  0
 21 12  1  0  0  0  0
 22 13  1  0  0  0  0
 23 13  1  0  0  0  0
 25 26  1  0  0  0  0
 25 27  1  0  0  0  0
 25  3  1  0  0  0  0
 28 25  1  0  0  0  0
 30 29  1  0  0  0  0
 31 30  1  0  0  0  0
M  END
>  <minimizedAffinity>
-6.16928673

>  <minimizedRMSD>
0.964817822

$$$$
