
 OpenBabel03252509213D

 19 20  0  0  0  0  0  0  0  0999 V2000
   36.5810   31.0280   40.2480 C   0  0  0  0  0  0  0  0  0  0  0  0
   36.1070   29.7850   40.7080 C   0  0  0  0  0  0  0  0  0  0  0  0
   36.9530   29.1590   41.6220 C   0  0  0  0  0  0  0  0  0  0  0  0
   38.1450   29.7490   42.0110 N   0  0  0  0  0  0  0  0  0  0  0  0
   38.5370   30.9390   41.5340 C   0  0  0  0  0  0  0  0  0  0  0  0
   37.7360   31.5740   40.6410 N   0  0  0  0  0  0  0  0  0  0  0  0
   35.9650   31.5820   39.5210 H   0  0  0  0  0  0  0  0  0  0  0  0
   39.4730   31.2460   41.9350 H   0  0  0  0  0  0  0  0  0  0  0  0
   36.4830   27.8630   42.2440 C   0  0  0  0  0  0  0  0  0  0  0  0
   37.6850   26.9530   42.5540 C   0  0  0  0  0  0  0  0  0  0  0  0
   36.7790   27.6330   43.6300 C   0  0  0  0  0  0  0  0  0  0  0  0
   35.7730   27.2610   41.6390 H   0  0  0  0  0  0  0  0  0  0  0  0
   38.6940   27.3840   42.4460 H   0  0  0  0  0  0  0  0  0  0  0  0
   37.5520   25.8620   42.4630 H   0  0  0  0  0  0  0  0  0  0  0  0
   36.2040   26.9210   44.2740 H   0  0  0  0  0  0  0  0  0  0  0  0
   37.2870   28.4600   44.2090 H   0  0  0  0  0  0  0  0  0  0  0  0
   34.8410   29.2100   40.2630 C   0  0  0  0  0  2  0  0  0  0  0  0
   34.7390   28.9040   38.8080 C   0  0  0  0  0  2  0  0  0  0  0  0
   35.6060   29.2470   38.2060 H   0  0  0  0  0  0  0  0  0  0  0  0
  1  6  2  0  0  0  0
  1  2  1  0  0  0  0
  2  3  2  0  0  0  0
  3  4  1  0  0  0  0
  3  9  1  0  0  0  0
  5  8  1  0  0  0  0
  5  4  2  0  0  0  0
  6  5  1  0  0  0  0
  7  1  1  0  0  0  0
  9 10  1  0  0  0  0
  9 11  1  0  0  0  0
 10 11  1  0  0  0  0
 11 16  1  0  0  0  0
 11 15  1  0  0  0  0
 12  9  1  0  0  0  0
 13 10  1  0  0  0  0
 14 10  1  0  0  0  0
 17  2  1  0  0  0  0
 18 17  1  0  0  0  0
 19 18  1  0  0  0  0
M  END
>  <minimizedAffinity>
-3.77010322

$$$$

 OpenBabel03252509213D

 19 20  0  0  0  0  0  0  0  0999 V2000
   39.2560   30.1380   42.9190 C   0  0  0  0  0  0  0  0  0  0  0  0
   38.1550   29.2720   42.7740 C   0  0  0  0  0  0  0  0  0  0  0  0
   37.3300   29.5810   41.6940 C   0  0  0  0  0  0  0  0  0  0  0  0
   37.6120   30.6550   40.8650 N   0  0  0  0  0  0  0  0  0  0  0  0
   38.6810   31.4400   41.0580 C   0  0  0  0  0  0  0  0  0  0  0  0
   39.5040   31.1670   42.1020 N   0  0  0  0  0  0  0  0  0  0  0  0
   39.9530   29.9560   43.7530 H   0  0  0  0  0  0  0  0  0  0  0  0
   38.7490   32.2150   40.3330 H   0  0  0  0  0  0  0  0  0  0  0  0
   36.1740   28.6500   41.4020 C   0  0  0  0  0  0  0  0  0  0  0  0
   35.2740   29.2450   40.3040 C   0  0  0  0  0  0  0  0  0  0  0  0
   36.1590   27.9680   40.1390 C   0  0  0  0  0  0  0  0  0  0  0  0
   35.5140   28.4080   42.2610 H   0  0  0  0  0  0  0  0  0  0  0  0
   35.6380   30.1420   39.7760 H   0  0  0  0  0  0  0  0  0  0  0  0
   34.1900   29.0500   40.3550 H   0  0  0  0  0  0  0  0  0  0  0  0
   35.5860   27.0240   39.9550 H   0  0  0  0  0  0  0  0  0  0  0  0
   37.0460   28.1030   39.4520 H   0  0  0  0  0  0  0  0  0  0  0  0
   37.9070   28.1550   43.6800 C   0  0  0  0  0  2  0  0  0  0  0  0
   38.8820   27.0300   43.6120 C   0  0  0  0  0  2  0  0  0  0  0  0
   39.6330   27.1240   42.8000 H   0  0  0  0  0  0  0  0  0  0  0  0
  1  7  1  0  0  0  0
  2  1  1  0  0  0  0
  2 17  1  0  0  0  0
  3  2  2  0  0  0  0
  4  5  2  0  0  0  0
  4  3  1  0  0  0  0
  5  6  1  0  0  0  0
  6  1  2  0  0  0  0
  8  5  1  0  0  0  0
  9  3  1  0  0  0  0
  9 12  1  0  0  0  0
 10 14  1  0  0  0  0
 10  9  1  0  0  0  0
 11 10  1  0  0  0  0
 11  9  1  0  0  0  0
 13 10  1  0  0  0  0
 15 11  1  0  0  0  0
 16 11  1  0  0  0  0
 18 17  1  0  0  0  0
 19 18  1  0  0  0  0
M  END
>  <minimizedAffinity>
-3.62593603

$$$$

 OpenBabel03252509213D

 19 20  0  0  0  0  0  0  0  0999 V2000
   35.6090   28.7800   40.9570 C   0  0  0  0  0  0  0  0  0  0  0  0
   36.6510   28.6420   41.8930 C   0  0  0  0  0  0  0  0  0  0  0  0
   37.5730   29.6880   41.8710 C   0  0  0  0  0  0  0  0  0  0  0  0
   37.4320   30.7460   40.9880 N   0  0  0  0  0  0  0  0  0  0  0  0
   36.4120   30.8160   40.1210 C   0  0  0  0  0  0  0  0  0  0  0  0
   35.4970   29.8140   40.1160 N   0  0  0  0  0  0  0  0  0  0  0  0
   34.8400   27.9910   40.9150 H   0  0  0  0  0  0  0  0  0  0  0  0
   36.4550   31.6910   39.5190 H   0  0  0  0  0  0  0  0  0  0  0  0
   38.6760   29.6740   42.9060 C   0  0  0  0  0  0  0  0  0  0  0  0
   39.9920   29.1810   42.2770 C   0  0  0  0  0  0  0  0  0  0  0  0
   39.7320   30.6380   42.7790 C   0  0  0  0  0  0  0  0  0  0  0  0
   38.4950   29.0470   43.8040 H   0  0  0  0  0  0  0  0  0  0  0  0
   40.0200   29.0580   41.1820 H   0  0  0  0  0  0  0  0  0  0  0  0
   40.6840   28.5950   42.9050 H   0  0  0  0  0  0  0  0  0  0  0  0
   40.3800   30.9600   43.6340 H   0  0  0  0  0  0  0  0  0  0  0  0
   39.6540   31.4060   41.9540 H   0  0  0  0  0  0  0  0  0  0  0  0
   36.7500   27.5040   42.8010 C   0  0  0  0  0  2  0  0  0  0  0  0
   37.2130   26.2230   42.1940 C   0  0  0  0  0  2  0  0  0  0  0  0
   37.3320   26.2550   41.0920 H   0  0  0  0  0  0  0  0  0  0  0  0
  1  2  1  0  0  0  0
  2 17  1  0  0  0  0
  3  2  2  0  0  0  0
  3  9  1  0  0  0  0
  4  3  1  0  0  0  0
  5  4  2  0  0  0  0
  6  5  1  0  0  0  0
  6  1  2  0  0  0  0
  7  1  1  0  0  0  0
  8  5  1  0  0  0  0
  9 12  1  0  0  0  0
 10 11  1  0  0  0  0
 10 14  1  0  0  0  0
 10  9  1  0  0  0  0
 11  9  1  0  0  0  0
 11 15  1  0  0  0  0
 13 10  1  0  0  0  0
 16 11  1  0  0  0  0
 18 17  1  0  0  0  0
 19 18  1  0  0  0  0
M  END
>  <minimizedAffinity>
-3.62371087

$$$$

 OpenBabel03252509213D

 19 20  0  0  0  0  0  0  0  0999 V2000
   38.6840   31.2320   41.1550 C   0  0  0  0  0  0  0  0  0  0  0  0
   38.9100   30.1780   42.0600 C   0  0  0  0  0  0  0  0  0  0  0  0
   37.7610   29.4620   42.3930 C   0  0  0  0  0  0  0  0  0  0  0  0
   36.5300   29.7970   41.8530 N   0  0  0  0  0  0  0  0  0  0  0  0
   36.3850   30.8150   40.9930 C   0  0  0  0  0  0  0  0  0  0  0  0
   37.4840   31.5330   40.6490 N   0  0  0  0  0  0  0  0  0  0  0  0
   39.5470   31.8450   40.8450 H   0  0  0  0  0  0  0  0  0  0  0  0
   35.3770   30.9350   40.6760 H   0  0  0  0  0  0  0  0  0  0  0  0
   37.9200   28.2520   43.2860 C   0  0  0  0  0  0  0  0  0  0  0  0
   36.5840   27.4970   43.4050 C   0  0  0  0  0  0  0  0  0  0  0  0
   37.8560   26.9530   42.6800 C   0  0  0  0  0  0  0  0  0  0  0  0
   38.2680   28.4520   44.3210 H   0  0  0  0  0  0  0  0  0  0  0  0
   35.7600   27.8090   42.7420 H   0  0  0  0  0  0  0  0  0  0  0  0
   36.3490   26.9980   44.3600 H   0  0  0  0  0  0  0  0  0  0  0  0
   38.2990   26.0340   43.1410 H   0  0  0  0  0  0  0  0  0  0  0  0
   37.7600   26.8950   41.5550 H   0  0  0  0  0  0  0  0  0  0  0  0
   40.2310   29.8710   42.5970 C   0  0  0  0  0  2  0  0  0  0  0  0
   41.1760   31.0180   42.7060 C   0  0  0  0  0  2  0  0  0  0  0  0
   40.7990   31.9640   42.2650 H   0  0  0  0  0  0  0  0  0  0  0  0
  1  2  1  0  0  0  0
  2  3  2  0  0  0  0
  2 17  1  0  0  0  0
  3  9  1  0  0  0  0
  4  3  1  0  0  0  0
  5  4  2  0  0  0  0
  6  5  1  0  0  0  0
  6  1  2  0  0  0  0
  7  1  1  0  0  0  0
  8  5  1  0  0  0  0
  9 10  1  0  0  0  0
  9 12  1  0  0  0  0
 10 14  1  0  0  0  0
 11 15  1  0  0  0  0
 11  9  1  0  0  0  0
 11 10  1  0  0  0  0
 13 10  1  0  0  0  0
 16 11  1  0  0  0  0
 17 18  1  0  0  0  0
 19 18  1  0  0  0  0
M  END
>  <minimizedAffinity>
-3.61490321

$$$$

 OpenBabel03252509213D

 19 20  0  0  0  0  0  0  0  0999 V2000
   39.3210   24.3650   42.2970 C   0  0  0  0  0  0  0  0  0  0  0  0
   38.1190   25.0980   42.3180 C   0  0  0  0  0  0  0  0  0  0  0  0
   38.2010   26.2970   43.0240 C   0  0  0  0  0  0  0  0  0  0  0  0
   39.3820   26.6890   43.6320 N   0  0  0  0  0  0  0  0  0  0  0  0
   40.4940   25.9420   43.5720 C   0  0  0  0  0  0  0  0  0  0  0  0
   40.4480   24.7680   42.8930 N   0  0  0  0  0  0  0  0  0  0  0  0
   39.3340   23.4040   41.7570 H   0  0  0  0  0  0  0  0  0  0  0  0
   41.3080   26.3880   44.0900 H   0  0  0  0  0  0  0  0  0  0  0  0
   36.9860   27.1980   43.0230 C   0  0  0  0  0  0  0  0  0  0  0  0
   37.3220   28.5490   43.6800 C   0  0  0  0  0  0  0  0  0  0  0  0
   36.9990   28.3480   42.1640 C   0  0  0  0  0  0  0  0  0  0  0  0
   36.0860   26.8050   43.5420 H   0  0  0  0  0  0  0  0  0  0  0  0
   38.3800   28.7540   43.9130 H   0  0  0  0  0  0  0  0  0  0  0  0
   36.5330   29.0620   44.2540 H   0  0  0  0  0  0  0  0  0  0  0  0
   36.0720   28.8670   41.8120 H   0  0  0  0  0  0  0  0  0  0  0  0
   37.8860   28.4880   41.4780 H   0  0  0  0  0  0  0  0  0  0  0  0
   36.9030   24.6350   41.6590 C   0  0  0  0  0  2  0  0  0  0  0  0
   36.8780   24.7580   40.1740 C   0  0  0  0  0  2  0  0  0  0  0  0
   37.7530   25.2870   39.7430 H   0  0  0  0  0  0  0  0  0  0  0  0
  1  2  2  0  0  0  0
  1  6  1  0  0  0  0
  2  3  1  0  0  0  0
  3  4  2  0  0  0  0
  5  4  1  0  0  0  0
  5  8  1  0  0  0  0
  6  5  2  0  0  0  0
  7  1  1  0  0  0  0
  9  3  1  0  0  0  0
  9 12  1  0  0  0  0
  9 10  1  0  0  0  0
 10 13  1  0  0  0  0
 10 14  1  0  0  0  0
 11  9  1  0  0  0  0
 11 10  1  0  0  0  0
 15 11  1  0  0  0  0
 16 11  1  0  0  0  0
 17  2  1  0  0  0  0
 18 17  1  0  0  0  0
 19 18  1  0  0  0  0
M  END
>  <minimizedAffinity>
-3.61259532

$$$$

 OpenBabel03252509213D

 19 20  0  0  0  0  0  0  0  0999 V2000
   40.1970   26.9840   43.6790 C   0  0  0  0  0  0  0  0  0  0  0  0
   38.8630   26.9080   43.2360 C   0  0  0  0  0  0  0  0  0  0  0  0
   38.5480   25.7120   42.5930 C   0  0  0  0  0  0  0  0  0  0  0  0
   39.4980   24.7170   42.4300 N   0  0  0  0  0  0  0  0  0  0  0  0
   40.7540   24.8540   42.8790 C   0  0  0  0  0  0  0  0  0  0  0  0
   41.0940   26.0070   43.5090 N   0  0  0  0  0  0  0  0  0  0  0  0
   40.5210   27.9010   44.1980 H   0  0  0  0  0  0  0  0  0  0  0  0
   41.3510   23.9990   42.6720 H   0  0  0  0  0  0  0  0  0  0  0  0
   37.1130   25.5010   42.1650 C   0  0  0  0  0  0  0  0  0  0  0  0
   36.9910   25.6090   40.6340 C   0  0  0  0  0  0  0  0  0  0  0  0
   36.7910   24.2940   41.4560 C   0  0  0  0  0  0  0  0  0  0  0  0
   36.3670   26.2010   42.5950 H   0  0  0  0  0  0  0  0  0  0  0  0
   37.9250   25.6610   40.0500 H   0  0  0  0  0  0  0  0  0  0  0  0
   36.0650   26.0330   40.2120 H   0  0  0  0  0  0  0  0  0  0  0  0
   35.7580   23.8660   41.4050 H   0  0  0  0  0  0  0  0  0  0  0  0
   37.6090   23.5280   41.3130 H   0  0  0  0  0  0  0  0  0  0  0  0
   37.9040   27.9890   43.4350 C   0  0  0  0  0  2  0  0  0  0  0  0
   38.1500   29.2340   42.6530 C   0  0  0  0  0  2  0  0  0  0  0  0
   39.1010   29.2350   42.0810 H   0  0  0  0  0  0  0  0  0  0  0  0
  1  7  1  0  0  0  0
  2 17  1  0  0  0  0
  2  1  2  0  0  0  0
  3  2  1  0  0  0  0
  4  3  2  0  0  0  0
  4  5  1  0  0  0  0
  5  6  2  0  0  0  0
  6  1  1  0  0  0  0
  8  5  1  0  0  0  0
  9  3  1  0  0  0  0
  9 12  1  0  0  0  0
 10 11  1  0  0  0  0
 10  9  1  0  0  0  0
 11  9  1  0  0  0  0
 13 10  1  0  0  0  0
 14 10  1  0  0  0  0
 15 11  1  0  0  0  0
 16 11  1  0  0  0  0
 18 17  1  0  0  0  0
 19 18  1  0  0  0  0
M  END
>  <minimizedAffinity>
-3.58641887

$$$$

 OpenBabel03252509213D

 19 20  0  0  0  0  0  0  0  0999 V2000
   36.4720   28.1080   41.7670 C   0  0  0  0  0  0  0  0  0  0  0  0
   36.0830   29.2240   41.0020 C   0  0  0  0  0  0  0  0  0  0  0  0
   36.9360   30.3190   41.1250 C   0  0  0  0  0  0  0  0  0  0  0  0
   38.0550   30.2640   41.9390 N   0  0  0  0  0  0  0  0  0  0  0  0
   38.3700   29.1670   42.6420 C   0  0  0  0  0  0  0  0  0  0  0  0
   37.5590   28.0830   42.5460 N   0  0  0  0  0  0  0  0  0  0  0  0
   35.8450   27.2020   41.7220 H   0  0  0  0  0  0  0  0  0  0  0  0
   39.2570   29.2940   43.2130 H   0  0  0  0  0  0  0  0  0  0  0  0
   36.6520   31.5320   40.2670 C   0  0  0  0  0  0  0  0  0  0  0  0
   37.8140   32.5370   40.3610 C   0  0  0  0  0  0  0  0  0  0  0  0
   37.4410   31.7200   39.0820 C   0  0  0  0  0  0  0  0  0  0  0  0
   35.7240   32.0920   40.5060 H   0  0  0  0  0  0  0  0  0  0  0  0
   38.7310   32.2090   40.8780 H   0  0  0  0  0  0  0  0  0  0  0  0
   37.5810   33.6130   40.3050 H   0  0  0  0  0  0  0  0  0  0  0  0
   37.1090   32.3420   38.2120 H   0  0  0  0  0  0  0  0  0  0  0  0
   38.1880   30.9180   38.8090 H   0  0  0  0  0  0  0  0  0  0  0  0
   34.8910   29.2250   40.1600 C   0  0  0  0  0  2  0  0  0  0  0  0
   35.0370   28.5840   38.8220 C   0  0  0  0  0  2  0  0  0  0  0  0
   36.0710   28.2680   38.5750 H   0  0  0  0  0  0  0  0  0  0  0  0
  1  6  1  0  0  0  0
  2  3  1  0  0  0  0
  2  1  2  0  0  0  0
  3  4  2  0  0  0  0
  4  5  1  0  0  0  0
  5  8  1  0  0  0  0
  6  5  2  0  0  0  0
  7  1  1  0  0  0  0
  9 10  1  0  0  0  0
  9 12  1  0  0  0  0
  9  3  1  0  0  0  0
 10 13  1  0  0  0  0
 11  9  1  0  0  0  0
 11 10  1  0  0  0  0
 14 10  1  0  0  0  0
 15 11  1  0  0  0  0
 16 11  1  0  0  0  0
 17  2  1  0  0  0  0
 18 17  1  0  0  0  0
 19 18  1  0  0  0  0
M  END
>  <minimizedAffinity>
-3.57297373

$$$$

 OpenBabel03252509213D

 19 20  0  0  0  0  0  0  0  0999 V2000
   36.0830   29.0650   39.2000 C   0  0  0  0  0  0  0  0  0  0  0  0
   36.3450   29.3800   40.5470 C   0  0  0  0  0  0  0  0  0  0  0  0
   36.6950   28.2790   41.3270 C   0  0  0  0  0  0  0  0  0  0  0  0
   36.7670   27.0090   40.7790 N   0  0  0  0  0  0  0  0  0  0  0  0
   36.5060   26.7780   39.4850 C   0  0  0  0  0  0  0  0  0  0  0  0
   36.1600   27.8280   38.6970 N   0  0  0  0  0  0  0  0  0  0  0  0
   35.7990   29.8850   38.5210 H   0  0  0  0  0  0  0  0  0  0  0  0
   36.6070   25.7510   39.2300 H   0  0  0  0  0  0  0  0  0  0  0  0
   37.0870   28.5330   42.7660 C   0  0  0  0  0  0  0  0  0  0  0  0
   36.5000   27.4400   43.6790 C   0  0  0  0  0  0  0  0  0  0  0  0
   38.0220   27.6330   43.3800 C   0  0  0  0  0  0  0  0  0  0  0  0
   36.7730   29.5080   43.1930 H   0  0  0  0  0  0  0  0  0  0  0  0
   36.0320   26.5680   43.1950 H   0  0  0  0  0  0  0  0  0  0  0  0
   36.1930   27.7220   44.7000 H   0  0  0  0  0  0  0  0  0  0  0  0
   38.6420   27.9020   44.2720 H   0  0  0  0  0  0  0  0  0  0  0  0
   38.4760   26.8200   42.7390 H   0  0  0  0  0  0  0  0  0  0  0  0
   36.2540   30.7380   41.0710 C   0  0  0  0  0  2  0  0  0  0  0  0
   36.9980   31.7820   40.3110 C   0  0  0  0  0  2  0  0  0  0  0  0
   37.6270   31.3880   39.4860 H   0  0  0  0  0  0  0  0  0  0  0  0
  1  2  1  0  0  0  0
  2 17  1  0  0  0  0
  2  3  2  0  0  0  0
  3  9  1  0  0  0  0
  4  3  1  0  0  0  0
  5  4  2  0  0  0  0
  6  1  2  0  0  0  0
  6  5  1  0  0  0  0
  7  1  1  0  0  0  0
  8  5  1  0  0  0  0
  9 12  1  0  0  0  0
  9 11  1  0  0  0  0
  9 10  1  0  0  0  0
 10 14  1  0  0  0  0
 11 10  1  0  0  0  0
 11 15  1  0  0  0  0
 13 10  1  0  0  0  0
 16 11  1  0  0  0  0
 18 17  1  0  0  0  0
 19 18  1  0  0  0  0
M  END
>  <minimizedAffinity>
-3.56966901

$$$$

 OpenBabel03252509213D

 19 20  0  0  0  0  0  0  0  0999 V2000
   37.9700   26.7660   42.8320 C   0  0  0  0  0  0  0  0  0  0  0  0
   37.2060   26.7740   41.6500 C   0  0  0  0  0  0  0  0  0  0  0  0
   36.7630   28.0400   41.2710 C   0  0  0  0  0  0  0  0  0  0  0  0
   37.0740   29.1610   42.0240 N   0  0  0  0  0  0  0  0  0  0  0  0
   37.8090   29.0830   43.1420 C   0  0  0  0  0  0  0  0  0  0  0  0
   38.2550   27.8650   43.5400 N   0  0  0  0  0  0  0  0  0  0  0  0
   38.3550   25.8000   43.1960 H   0  0  0  0  0  0  0  0  0  0  0  0
   37.9540   30.0330   43.5960 H   0  0  0  0  0  0  0  0  0  0  0  0
   36.0140   28.1610   39.9620 C   0  0  0  0  0  0  0  0  0  0  0  0
   34.8980   29.2150   40.0810 C   0  0  0  0  0  0  0  0  0  0  0  0
   36.1800   29.3660   39.1980 C   0  0  0  0  0  0  0  0  0  0  0  0
   35.5380   27.2320   39.5850 H   0  0  0  0  0  0  0  0  0  0  0  0
   34.8780   29.8360   40.9910 H   0  0  0  0  0  0  0  0  0  0  0  0
   33.9660   29.0560   39.5140 H   0  0  0  0  0  0  0  0  0  0  0  0
   35.9840   29.4310   38.0980 H   0  0  0  0  0  0  0  0  0  0  0  0
   36.9150   30.1370   39.5750 H   0  0  0  0  0  0  0  0  0  0  0  0
   36.9090   25.5610   40.8960 C   0  0  0  0  0  2  0  0  0  0  0  0
   36.9410   24.2870   41.6680 C   0  0  0  0  0  2  0  0  0  0  0  0
   37.2920   24.3950   42.7160 H   0  0  0  0  0  0  0  0  0  0  0  0
  1  7  1  0  0  0  0
  1  6  1  0  0  0  0
  2  1  2  0  0  0  0
  3  2  1  0  0  0  0
  3  4  2  0  0  0  0
  4  5  1  0  0  0  0
  5  6  2  0  0  0  0
  5  8  1  0  0  0  0
  9 10  1  0  0  0  0
  9  3  1  0  0  0  0
 10 13  1  0  0  0  0
 11 16  1  0  0  0  0
 11  9  1  0  0  0  0
 11 10  1  0  0  0  0
 12  9  1  0  0  0  0
 14 10  1  0  0  0  0
 15 11  1  0  0  0  0
 17  2  1  0  0  0  0
 17 18  1  0  0  0  0
 18 19  1  0  0  0  0
M  END
>  <minimizedAffinity>
-3.56753016

$$$$
