
 OpenBabel03252507213D

 38 40  0  0  1  0  0  0  0  0999 V2000
   39.0570   29.2870   40.3710 C   0  0  0  0  0  0  0  0  0  0  0  0
   39.6600   28.8130   39.3540 O   0  0  0  0  0  0  0  0  0  0  0  0
   38.5810   28.4790   41.4490 N   0  0  0  0  0  0  0  0  0  0  0  0
   38.6760   28.6890   42.8970 C   0  0  0  0  0  0  0  0  0  0  0  0
   37.2870   28.5570   43.5100 C   0  0  0  0  0  0  0  0  0  0  0  0
   36.7480   27.1710   43.3110 C   0  0  0  0  0  0  0  0  0  0  0  0
   37.6340   26.4380   42.3240 C   0  0  0  0  0  0  0  0  0  0  0  0
   37.8970   27.2670   41.0990 C   0  0  2  0  0  0  0  0  0  0  0  0
   38.9390   29.7710   43.0900 H   0  0  0  0  0  0  0  0  0  0  0  0
   39.4250   28.0540   43.3750 H   0  0  0  0  0  0  0  0  0  0  0  0
   37.3340   28.8690   44.5660 H   0  0  0  0  0  0  0  0  0  0  0  0
   36.6530   29.2590   42.8940 H   0  0  0  0  0  0  0  0  0  0  0  0
   36.7290   26.6510   44.2720 H   0  0  0  0  0  0  0  0  0  0  0  0
   35.7290   27.1420   42.8950 H   0  0  0  0  0  0  0  0  0  0  0  0
   38.5610   26.2060   42.8930 H   0  0  0  0  0  0  0  0  0  0  0  0
   37.1950   25.4840   41.9920 H   0  0  0  0  0  0  0  0  0  0  0  0
   36.9180   27.5330   40.6580 H   0  0  0  0  0  0  0  0  0  0  0  0
   39.9190   31.5180   40.8960 C   0  0  0  0  0  0  0  0  0  0  0  0
   38.8520   30.7160   40.4250 C   0  0  0  0  0  0  0  0  0  0  0  0
   37.6800   31.3080   40.0450 C   0  0  0  0  0  0  0  0  0  0  0  0
   37.5800   32.6500   40.1330 N   0  0  0  0  0  0  0  0  0  0  0  0
   38.5890   33.4370   40.5810 C   0  0  0  0  0  0  0  0  0  0  0  0
   39.7410   32.8470   40.9530 N   0  0  0  0  0  0  0  0  0  0  0  0
   40.8410   31.0240   41.1930 H   0  0  0  0  0  0  0  0  0  0  0  0
   38.4160   34.5050   40.6150 H   0  0  0  0  0  0  0  0  0  0  0  0
   36.5990   30.4690   39.5700 C   0  0  0  0  0  0  0  0  0  0  0  0
   35.6500   30.0060   40.4340 C   0  0  0  0  0  0  0  0  0  0  0  0
   34.6330   29.2110   39.9500 C   0  0  0  0  0  0  0  0  0  0  0  0
   34.5230   28.8520   38.6190 C   0  0  0  0  0  0  0  0  0  0  0  0
   35.5130   29.3470   37.7810 C   0  0  0  0  0  0  0  0  0  0  0  0
   36.4910   30.1190   38.2770 N   0  0  0  0  0  0  0  0  0  0  0  0
   35.6060   30.1940   41.4710 H   0  0  0  0  0  0  0  0  0  0  0  0
   33.8490   28.8140   40.5910 H   0  0  0  0  0  0  0  0  0  0  0  0
   33.7240   28.2250   38.2330 H   0  0  0  0  0  0  0  0  0  0  0  0
   35.5200   29.1260   36.7210 H   0  0  0  0  0  0  0  0  0  0  0  0
   38.5750   26.3580   40.1270 C   0  0  0  0  0  2  0  0  0  0  0  0
   39.5880   25.4290   40.7050 C   0  0  0  0  0  2  0  0  0  0  0  0
   39.2500   24.9150   41.6170 H   0  0  0  0  0  0  0  0  0  0  0  0
  1 19  1  0  0  0  0
  1  3  1  0  0  0  0
  2  1  2  0  0  0  0
  3  4  1  0  0  0  0
  4  9  1  0  0  0  0
  4 10  1  0  0  0  0
  4  5  1  0  0  0  0
  5 11  1  0  0  0  0
  6  5  1  0  0  0  0
  6 13  1  0  0  0  0
  7 15  1  0  0  0  0
  7  6  1  0  0  0  0
  8 17  1  6  0  0  0
  8  3  1  0  0  0  0
  8  7  1  0  0  0  0
 12  5  1  0  0  0  0
 14  6  1  0  0  0  0
 16  7  1  0  0  0  0
 18 23  1  0  0  0  0
 18 24  1  0  0  0  0
 19 18  2  0  0  0  0
 20 21  2  0  0  0  0
 20 19  1  0  0  0  0
 21 22  1  0  0  0  0
 22 25  1  0  0  0  0
 22 23  2  0  0  0  0
 26 20  1  0  0  0  0
 26 27  1  0  0  0  0
 27 32  1  0  0  0  0
 28 27  2  0  0  0  0
 28 33  1  0  0  0  0
 29 28  1  0  0  0  0
 30 31  1  0  0  0  0
 30 29  2  0  0  0  0
 31 26  2  0  0  0  0
 34 29  1  0  0  0  0
 35 30  1  0  0  0  0
 36 37  1  0  0  0  0
 36  8  1  0  0  0  0
 37 38  1  0  0  0  0
M  END
>  <minimizedAffinity>
-5.65232754

$$$$

 OpenBabel03252507213D

 38 40  0  0  1  0  0  0  0  0999 V2000
   39.3100   29.8840   40.1290 C   0  0  0  0  0  0  0  0  0  0  0  0
   39.9990   29.4900   39.1340 O   0  0  0  0  0  0  0  0  0  0  0  0
   38.9020   29.0220   41.1940 N   0  0  0  0  0  0  0  0  0  0  0  0
   38.9240   29.2390   42.6430 C   0  0  0  0  0  0  0  0  0  0  0  0
   37.5420   28.9360   43.2110 C   0  0  0  0  0  0  0  0  0  0  0  0
   37.1840   27.4950   42.9980 C   0  0  0  0  0  0  0  0  0  0  0  0
   38.1840   26.8780   42.0420 C   0  0  0  0  0  0  0  0  0  0  0  0
   38.3830   27.7360   40.8240 C   0  0  2  0  0  0  0  0  0  0  0  0
   39.0450   30.3450   42.8430 H   0  0  0  0  0  0  0  0  0  0  0  0
   39.7290   28.6990   43.1470 H   0  0  0  0  0  0  0  0  0  0  0  0
   37.5160   29.2490   44.2670 H   0  0  0  0  0  0  0  0  0  0  0  0
   36.8470   29.5570   42.5740 H   0  0  0  0  0  0  0  0  0  0  0  0
   37.1980   26.9750   43.9590 H   0  0  0  0  0  0  0  0  0  0  0  0
   36.1900   27.3420   42.5490 H   0  0  0  0  0  0  0  0  0  0  0  0
   39.1140   26.7610   42.6400 H   0  0  0  0  0  0  0  0  0  0  0  0
   37.8770   25.8780   41.6980 H   0  0  0  0  0  0  0  0  0  0  0  0
   37.3940   27.8800   40.3510 H   0  0  0  0  0  0  0  0  0  0  0  0
   39.9160   32.2190   40.5530 C   0  0  0  0  0  0  0  0  0  0  0  0
   38.9290   31.2770   40.1740 C   0  0  0  0  0  0  0  0  0  0  0  0
   37.6680   31.7070   39.8710 C   0  0  0  0  0  0  0  0  0  0  0  0
   37.4050   33.0280   39.9420 N   0  0  0  0  0  0  0  0  0  0  0  0
   38.3350   33.9470   40.3030 C   0  0  0  0  0  0  0  0  0  0  0  0
   39.5760   33.5160   40.6000 N   0  0  0  0  0  0  0  0  0  0  0  0
   40.9120   31.8520   40.7900 H   0  0  0  0  0  0  0  0  0  0  0  0
   38.0300   34.9850   40.3310 H   0  0  0  0  0  0  0  0  0  0  0  0
   36.6720   30.7270   39.4890 C   0  0  0  0  0  0  0  0  0  0  0  0
   36.5910   30.2860   38.2010 C   0  0  0  0  0  0  0  0  0  0  0  0
   35.6340   29.3520   37.8700 C   0  0  0  0  0  0  0  0  0  0  0  0
   34.7380   28.8320   38.7870 C   0  0  0  0  0  0  0  0  0  0  0  0
   34.8590   29.3120   40.0830 C   0  0  0  0  0  0  0  0  0  0  0  0
   35.8010   30.2210   40.3790 N   0  0  0  0  0  0  0  0  0  0  0  0
   37.2020   30.5940   37.3970 H   0  0  0  0  0  0  0  0  0  0  0  0
   35.5220   28.9640   36.8600 H   0  0  0  0  0  0  0  0  0  0  0  0
   33.9810   28.0960   38.5300 H   0  0  0  0  0  0  0  0  0  0  0  0
   34.2080   28.9700   40.8770 H   0  0  0  0  0  0  0  0  0  0  0  0
   39.1990   26.9190   39.8760 C   0  0  0  0  0  2  0  0  0  0  0  0
   38.4590   26.3360   38.7190 C   0  0  0  0  0  2  0  0  0  0  0  0
   37.7920   27.0500   38.2140 H   0  0  0  0  0  0  0  0  0  0  0  0
  1 19  1  0  0  0  0
  1  3  1  0  0  0  0
  2  1  2  0  0  0  0
  3  4  1  0  0  0  0
  4  9  1  0  0  0  0
  4 10  1  0  0  0  0
  4  5  1  0  0  0  0
  5 11  1  0  0  0  0
  6  5  1  0  0  0  0
  6 13  1  0  0  0  0
  7 15  1  0  0  0  0
  7  6  1  0  0  0  0
  8 17  1  6  0  0  0
  8  3  1  0  0  0  0
  8  7  1  0  0  0  0
 12  5  1  0  0  0  0
 14  6  1  0  0  0  0
 16  7  1  0  0  0  0
 18 23  1  0  0  0  0
 18 24  1  0  0  0  0
 19 18  2  0  0  0  0
 20 21  2  0  0  0  0
 20 19  1  0  0  0  0
 21 22  1  0  0  0  0
 22 25  1  0  0  0  0
 22 23  2  0  0  0  0
 26 20  1  0  0  0  0
 26 31  1  0  0  0  0
 27 26  2  0  0  0  0
 28 27  1  0  0  0  0
 28 29  2  0  0  0  0
 29 30  1  0  0  0  0
 30 31  2  0  0  0  0
 30 35  1  0  0  0  0
 32 27  1  0  0  0  0
 33 28  1  0  0  0  0
 34 29  1  0  0  0  0
 36  8  1  0  0  0  0
 37 36  1  0  0  0  0
 38 37  1  0  0  0  0
M  END
>  <minimizedAffinity>
-5.39461374

$$$$

 OpenBabel03252507213D

 38 40  0  0  1  0  0  0  0  0999 V2000
   37.0230   30.3360   39.7580 C   0  0  0  0  0  0  0  0  0  0  0  0
   36.2940   30.9150   40.6250 O   0  0  0  0  0  0  0  0  0  0  0  0
   38.3050   30.8230   39.3560 N   0  0  0  0  0  0  0  0  0  0  0  0
   39.5650   30.1040   39.1520 C   0  0  0  0  0  0  0  0  0  0  0  0
   40.1170   30.4500   37.7740 C   0  0  0  0  0  0  0  0  0  0  0  0
   40.4380   31.9120   37.6820 C   0  0  0  0  0  0  0  0  0  0  0  0
   39.8480   32.6200   38.8850 C   0  0  0  0  0  0  0  0  0  0  0  0
   38.4120   32.2320   39.1020 C   0  0  2  0  0  0  0  0  0  0  0  0
   39.3430   28.9990   39.0690 H   0  0  0  0  0  0  0  0  0  0  0  0
   40.2850   30.2590   39.9600 H   0  0  0  0  0  0  0  0  0  0  0  0
   40.9750   29.7920   37.5600 H   0  0  0  0  0  0  0  0  0  0  0  0
   39.2510   30.2470   37.0790 H   0  0  0  0  0  0  0  0  0  0  0  0
   41.5230   32.0420   37.6520 H   0  0  0  0  0  0  0  0  0  0  0  0
   40.0170   32.4070   36.7930 H   0  0  0  0  0  0  0  0  0  0  0  0
   40.5040   32.3300   39.7340 H   0  0  0  0  0  0  0  0  0  0  0  0
   39.8850   33.7160   38.7880 H   0  0  0  0  0  0  0  0  0  0  0  0
   37.8590   32.4630   38.1740 H   0  0  0  0  0  0  0  0  0  0  0  0
   35.9220   29.2190   37.8770 C   0  0  0  0  0  0  0  0  0  0  0  0
   36.5190   29.1230   39.1570 C   0  0  0  0  0  0  0  0  0  0  0  0
   36.5950   27.9060   39.7750 C   0  0  0  0  0  0  0  0  0  0  0  0
   36.0960   26.8280   39.1370 N   0  0  0  0  0  0  0  0  0  0  0  0
   35.5200   26.8980   37.9110 C   0  0  0  0  0  0  0  0  0  0  0  0
   35.4480   28.1000   37.3080 N   0  0  0  0  0  0  0  0  0  0  0  0
   35.8720   30.1980   37.4060 H   0  0  0  0  0  0  0  0  0  0  0  0
   35.1480   25.9790   37.4780 H   0  0  0  0  0  0  0  0  0  0  0  0
   37.2060   27.8290   41.0860 C   0  0  0  0  0  0  0  0  0  0  0  0
   36.4420   27.9160   42.2130 C   0  0  0  0  0  0  0  0  0  0  0  0
   37.0520   27.8380   43.4460 C   0  0  0  0  0  0  0  0  0  0  0  0
   38.4170   27.6740   43.6030 C   0  0  0  0  0  0  0  0  0  0  0  0
   39.1510   27.5920   42.4280 C   0  0  0  0  0  0  0  0  0  0  0  0
   38.5320   27.6700   41.2410 N   0  0  0  0  0  0  0  0  0  0  0  0
   35.3950   28.0430   42.2480 H   0  0  0  0  0  0  0  0  0  0  0  0
   36.4950   27.9010   44.3780 H   0  0  0  0  0  0  0  0  0  0  0  0
   38.9030   27.6130   44.5730 H   0  0  0  0  0  0  0  0  0  0  0  0
   40.2260   27.4640   42.4400 H   0  0  0  0  0  0  0  0  0  0  0  0
   37.8930   33.1560   40.1550 C   0  0  0  0  0  2  0  0  0  0  0  0
   38.8740   34.1420   40.6940 C   0  0  0  0  0  2  0  0  0  0  0  0
   39.4620   34.6540   39.9180 H   0  0  0  0  0  0  0  0  0  0  0  0
  1  2  2  0  0  0  0
  3  1  1  0  0  0  0
  4  3  1  0  0  0  0
  4 10  1  0  0  0  0
  5  4  1  0  0  0  0
  6  5  1  0  0  0  0
  6  7  1  0  0  0  0
  7  8  1  0  0  0  0
  7 15  1  0  0  0  0
  8 17  1  6  0  0  0
  8  3  1  0  0  0  0
  8 36  1  0  0  0  0
  9  4  1  0  0  0  0
 11  5  1  0  0  0  0
 12  5  1  0  0  0  0
 13  6  1  0  0  0  0
 14  6  1  0  0  0  0
 16  7  1  0  0  0  0
 18 19  1  0  0  0  0
 19  1  1  0  0  0  0
 19 20  2  0  0  0  0
 20 26  1  0  0  0  0
 21 20  1  0  0  0  0
 22 21  2  0  0  0  0
 23 18  2  0  0  0  0
 23 22  1  0  0  0  0
 24 18  1  0  0  0  0
 25 22  1  0  0  0  0
 26 31  2  0  0  0  0
 26 27  1  0  0  0  0
 27 32  1  0  0  0  0
 27 28  2  0  0  0  0
 28 29  1  0  0  0  0
 28 33  1  0  0  0  0
 29 34  1  0  0  0  0
 30 35  1  0  0  0  0
 30 29  2  0  0  0  0
 31 30  1  0  0  0  0
 36 37  1  0  0  0  0
 38 37  1  0  0  0  0
M  END
>  <minimizedAffinity>
-5.2913661

$$$$

 OpenBabel03252507213D

 38 40  0  0  1  0  0  0  0  0999 V2000
   39.1910   29.1950   40.1910 C   0  0  0  0  0  0  0  0  0  0  0  0
   40.4240   29.5040   40.2530 O   0  0  0  0  0  0  0  0  0  0  0  0
   38.4010   28.8790   41.3390 N   0  0  0  0  0  0  0  0  0  0  0  0
   37.0480   29.3110   41.7010 C   0  0  0  0  0  0  0  0  0  0  0  0
   36.2050   28.0830   42.0280 C   0  0  0  0  0  0  0  0  0  0  0  0
   36.7590   27.3610   43.2210 C   0  0  0  0  0  0  0  0  0  0  0  0
   38.1300   27.9210   43.5400 C   0  0  0  0  0  0  0  0  0  0  0  0
   38.9910   28.0020   42.3110 C   0  0  2  0  0  0  0  0  0  0  0  0
   36.5420   29.7300   40.7800 H   0  0  0  0  0  0  0  0  0  0  0  0
   37.0340   30.0690   42.4860 H   0  0  0  0  0  0  0  0  0  0  0  0
   35.1540   28.3940   42.1440 H   0  0  0  0  0  0  0  0  0  0  0  0
   36.3460   27.4130   41.1300 H   0  0  0  0  0  0  0  0  0  0  0  0
   36.0810   27.4940   44.0680 H   0  0  0  0  0  0  0  0  0  0  0  0
   36.8930   26.2790   43.0670 H   0  0  0  0  0  0  0  0  0  0  0  0
   37.9310   28.9180   43.9900 H   0  0  0  0  0  0  0  0  0  0  0  0
   38.6690   27.3160   44.2840 H   0  0  0  0  0  0  0  0  0  0  0  0
   39.0500   26.9870   41.8760 H   0  0  0  0  0  0  0  0  0  0  0  0
   38.3540   27.9060   38.2840 C   0  0  0  0  0  0  0  0  0  0  0  0
   38.5680   29.1690   38.8880 C   0  0  0  0  0  0  0  0  0  0  0  0
   38.1880   30.3040   38.2280 C   0  0  0  0  0  0  0  0  0  0  0  0
   37.6150   30.1810   37.0140 N   0  0  0  0  0  0  0  0  0  0  0  0
   37.4010   28.9820   36.4170 C   0  0  0  0  0  0  0  0  0  0  0  0
   37.7780   27.8670   37.0730 N   0  0  0  0  0  0  0  0  0  0  0  0
   38.6660   27.0180   38.8280 H   0  0  0  0  0  0  0  0  0  0  0  0
   36.9340   28.9830   35.4410 H   0  0  0  0  0  0  0  0  0  0  0  0
   38.4190   31.5870   38.8610 C   0  0  0  0  0  0  0  0  0  0  0  0
   37.4090   32.2290   39.5150 C   0  0  0  0  0  0  0  0  0  0  0  0
   37.6600   33.4470   40.1080 C   0  0  0  0  0  0  0  0  0  0  0  0
   38.9000   34.0610   40.0750 C   0  0  0  0  0  0  0  0  0  0  0  0
   39.8940   33.3690   39.3980 C   0  0  0  0  0  0  0  0  0  0  0  0
   39.6230   32.1840   38.8290 N   0  0  0  0  0  0  0  0  0  0  0  0
   36.4160   31.8850   39.6190 H   0  0  0  0  0  0  0  0  0  0  0  0
   36.8950   34.0050   40.6430 H   0  0  0  0  0  0  0  0  0  0  0  0
   39.1030   35.0210   40.5410 H   0  0  0  0  0  0  0  0  0  0  0  0
   40.8990   33.7610   39.3130 H   0  0  0  0  0  0  0  0  0  0  0  0
   40.3630   28.3440   42.7930 C   0  0  0  0  0  2  0  0  0  0  0  0
   41.0120   27.3310   43.6740 C   0  0  0  0  0  2  0  0  0  0  0  0
   40.9270   26.3000   43.3020 H   0  0  0  0  0  0  0  0  0  0  0  0
  1  2  2  0  0  0  0
  1  3  1  0  0  0  0
  3  4  1  0  0  0  0
  3  8  1  0  0  0  0
  4  5  1  0  0  0  0
  4 10  1  0  0  0  0
  5 11  1  0  0  0  0
  5  6  1  0  0  0  0
  6  7  1  0  0  0  0
  6 13  1  0  0  0  0
  7 15  1  0  0  0  0
  7 16  1  0  0  0  0
  8 17  1  6  0  0  0
  8 36  1  0  0  0  0
  8  7  1  0  0  0  0
  9  4  1  0  0  0  0
 12  5  1  0  0  0  0
 14  6  1  0  0  0  0
 18 24  1  0  0  0  0
 18 19  1  0  0  0  0
 19  1  1  0  0  0  0
 20 26  1  0  0  0  0
 20 19  2  0  0  0  0
 21 20  1  0  0  0  0
 22 21  2  0  0  0  0
 22 23  1  0  0  0  0
 23 18  2  0  0  0  0
 25 22  1  0  0  0  0
 26 27  1  0  0  0  0
 27 32  1  0  0  0  0
 27 28  2  0  0  0  0
 28 33  1  0  0  0  0
 29 28  1  0  0  0  0
 29 34  1  0  0  0  0
 30 29  2  0  0  0  0
 31 26  2  0  0  0  0
 31 30  1  0  0  0  0
 35 30  1  0  0  0  0
 36 37  1  0  0  0  0
 38 37  1  0  0  0  0
M  END
>  <minimizedAffinity>
-5.29074812

$$$$

 OpenBabel03252507213D

 38 40  0  0  1  0  0  0  0  0999 V2000
   36.9300   30.4710   40.1720 C   0  0  0  0  0  0  0  0  0  0  0  0
   35.8570   30.7890   40.7790 O   0  0  0  0  0  0  0  0  0  0  0  0
   36.9510   29.8250   38.8970 N   0  0  0  0  0  0  0  0  0  0  0  0
   37.7750   30.0990   37.7160 C   0  0  0  0  0  0  0  0  0  0  0  0
   38.4360   28.8020   37.2610 C   0  0  0  0  0  0  0  0  0  0  0  0
   37.4030   27.7980   36.8420 C   0  0  0  0  0  0  0  0  0  0  0  0
   36.0370   28.2920   37.2710 C   0  0  0  0  0  0  0  0  0  0  0  0
   36.0370   28.7350   38.7080 C   0  0  2  0  0  0  0  0  0  0  0  0
   38.6540   30.7380   38.0270 H   0  0  0  0  0  0  0  0  0  0  0  0
   37.2300   30.6110   36.9200 H   0  0  0  0  0  0  0  0  0  0  0  0
   39.1730   29.0360   36.4770 H   0  0  0  0  0  0  0  0  0  0  0  0
   38.9310   28.4100   38.1970 H   0  0  0  0  0  0  0  0  0  0  0  0
   37.4440   27.6710   35.7570 H   0  0  0  0  0  0  0  0  0  0  0  0
   37.5330   26.8050   37.3000 H   0  0  0  0  0  0  0  0  0  0  0  0
   35.8000   29.1190   36.5670 H   0  0  0  0  0  0  0  0  0  0  0  0
   35.2570   27.5220   37.1610 H   0  0  0  0  0  0  0  0  0  0  0  0
   36.3800   27.8810   39.3210 H   0  0  0  0  0  0  0  0  0  0  0  0
   38.7670   32.0470   40.5470 C   0  0  0  0  0  0  0  0  0  0  0  0
   38.1850   30.7840   40.8160 C   0  0  0  0  0  0  0  0  0  0  0  0
   38.8190   29.9160   41.6600 C   0  0  0  0  0  0  0  0  0  0  0  0
   39.9880   30.2960   42.2140 N   0  0  0  0  0  0  0  0  0  0  0  0
   40.5640   31.5000   41.9700 C   0  0  0  0  0  0  0  0  0  0  0  0
   39.9330   32.3510   41.1370 N   0  0  0  0  0  0  0  0  0  0  0  0
   38.2430   32.7200   39.8720 H   0  0  0  0  0  0  0  0  0  0  0  0
   41.5030   31.7160   42.4610 H   0  0  0  0  0  0  0  0  0  0  0  0
   38.2090   28.6280   41.9190 C   0  0  0  0  0  0  0  0  0  0  0  0
   37.3580   28.4640   42.9720 C   0  0  0  0  0  0  0  0  0  0  0  0
   36.7930   27.2260   43.1910 C   0  0  0  0  0  0  0  0  0  0  0  0
   37.0460   26.1270   42.3890 C   0  0  0  0  0  0  0  0  0  0  0  0
   37.9190   26.3450   41.3320 C   0  0  0  0  0  0  0  0  0  0  0  0
   38.4550   27.5600   41.1410 N   0  0  0  0  0  0  0  0  0  0  0  0
   37.0750   29.2060   43.6670 H   0  0  0  0  0  0  0  0  0  0  0  0
   36.1080   27.0350   44.0150 H   0  0  0  0  0  0  0  0  0  0  0  0
   36.6030   25.1500   42.5590 H   0  0  0  0  0  0  0  0  0  0  0  0
   38.1840   25.5520   40.6450 H   0  0  0  0  0  0  0  0  0  0  0  0
   34.6070   28.9740   39.0630 C   0  0  0  0  0  2  0  0  0  0  0  0
   33.6320   28.8740   37.9380 C   0  0  0  0  0  2  0  0  0  0  0  0
   33.7800   27.9900   37.3000 H   0  0  0  0  0  0  0  0  0  0  0  0
  1  2  2  0  0  0  0
  1 19  1  0  0  0  0
  3  1  1  0  0  0  0
  4  9  1  0  0  0  0
  4  3  1  0  0  0  0
  5  4  1  0  0  0  0
  5 12  1  0  0  0  0
  6  5  1  0  0  0  0
  6  7  1  0  0  0  0
  6 14  1  0  0  0  0
  7  8  1  0  0  0  0
  8  3  1  0  0  0  0
  8 36  1  0  0  0  0
  8 17  1  1  0  0  0
 10  4  1  0  0  0  0
 11  5  1  0  0  0  0
 13  6  1  0  0  0  0
 15  7  1  0  0  0  0
 16  7  1  0  0  0  0
 18 19  2  0  0  0  0
 18 23  1  0  0  0  0
 19 20  1  0  0  0  0
 20 26  1  0  0  0  0
 20 21  2  0  0  0  0
 22 21  1  0  0  0  0
 22 25  1  0  0  0  0
 23 22  2  0  0  0  0
 24 18  1  0  0  0  0
 26 27  1  0  0  0  0
 27 28  2  0  0  0  0
 27 32  1  0  0  0  0
 28 33  1  0  0  0  0
 29 34  1  0  0  0  0
 29 28  1  0  0  0  0
 30 29  2  0  0  0  0
 31 30  1  0  0  0  0
 31 26  2  0  0  0  0
 35 30  1  0  0  0  0
 37 36  1  0  0  0  0
 38 37  1  0  0  0  0
M  END
>  <minimizedAffinity>
-5.17278576

$$$$

 OpenBabel03252507213D

 38 40  0  0  1  0  0  0  0  0999 V2000
   37.2130   30.3580   40.9940 C   0  0  0  0  0  0  0  0  0  0  0  0
   36.2270   31.1130   41.2730 O   0  0  0  0  0  0  0  0  0  0  0  0
   38.3480   30.7910   40.2420 N   0  0  0  0  0  0  0  0  0  0  0  0
   39.7770   30.5640   40.4770 C   0  0  0  0  0  0  0  0  0  0  0  0
   40.4070   30.0070   39.2060 C   0  0  0  0  0  0  0  0  0  0  0  0
   40.3080   30.9980   38.0850 C   0  0  0  0  0  0  0  0  0  0  0  0
   39.3680   32.1130   38.4970 C   0  0  0  0  0  0  0  0  0  0  0  0
   38.0870   31.5700   39.0650 C   0  0  2  0  0  0  0  0  0  0  0  0
   39.8930   29.7150   41.2140 H   0  0  0  0  0  0  0  0  0  0  0  0
   40.2930   31.4440   40.8690 H   0  0  0  0  0  0  0  0  0  0  0  0
   41.4380   29.6900   39.4310 H   0  0  0  0  0  0  0  0  0  0  0  0
   39.7480   29.1280   38.9430 H   0  0  0  0  0  0  0  0  0  0  0  0
   41.3030   31.3940   37.8660 H   0  0  0  0  0  0  0  0  0  0  0  0
   39.9020   30.5790   37.1510 H   0  0  0  0  0  0  0  0  0  0  0  0
   39.9450   32.7110   39.2360 H   0  0  0  0  0  0  0  0  0  0  0  0
   39.1060   32.7750   37.6570 H   0  0  0  0  0  0  0  0  0  0  0  0
   37.6350   30.9100   38.3010 H   0  0  0  0  0  0  0  0  0  0  0  0
   37.5200   28.7540   42.8200 C   0  0  0  0  0  0  0  0  0  0  0  0
   37.1700   28.9940   41.4690 C   0  0  0  0  0  0  0  0  0  0  0  0
   36.8100   27.9450   40.6700 C   0  0  0  0  0  0  0  0  0  0  0  0
   36.8000   26.7050   41.2010 N   0  0  0  0  0  0  0  0  0  0  0  0
   37.1330   26.4530   42.4920 C   0  0  0  0  0  0  0  0  0  0  0  0
   37.4860   27.4920   43.2740 N   0  0  0  0  0  0  0  0  0  0  0  0
   37.8040   29.6050   43.4350 H   0  0  0  0  0  0  0  0  0  0  0  0
   37.0950   25.4260   42.8290 H   0  0  0  0  0  0  0  0  0  0  0  0
   36.4580   28.2100   39.2900 C   0  0  0  0  0  0  0  0  0  0  0  0
   35.1920   28.5960   38.9600 C   0  0  0  0  0  0  0  0  0  0  0  0
   34.8890   28.8430   37.6380 C   0  0  0  0  0  0  0  0  0  0  0  0
   35.8130   28.7180   36.6160 C   0  0  0  0  0  0  0  0  0  0  0  0
   37.0860   28.3230   37.0030 C   0  0  0  0  0  0  0  0  0  0  0  0
   37.3550   28.0900   38.2960 N   0  0  0  0  0  0  0  0  0  0  0  0
   34.3860   28.7290   39.6280 H   0  0  0  0  0  0  0  0  0  0  0  0
   33.8970   29.1530   37.3150 H   0  0  0  0  0  0  0  0  0  0  0  0
   35.5780   28.9110   35.5730 H   0  0  0  0  0  0  0  0  0  0  0  0
   37.8820   28.1960   36.2810 H   0  0  0  0  0  0  0  0  0  0  0  0
   37.1750   32.7440   39.2130 C   0  0  0  0  0  2  0  0  0  0  0  0
   37.7780   33.9610   39.8300 C   0  0  0  0  0  2  0  0  0  0  0  0
   38.7630   34.2250   39.4190 H   0  0  0  0  0  0  0  0  0  0  0  0
  1  2  2  0  0  0  0
  1 19  1  0  0  0  0
  3  4  1  0  0  0  0
  3  1  1  0  0  0  0
  4 10  1  0  0  0  0
  4  9  1  0  0  0  0
  5 11  1  0  0  0  0
  5  4  1  0  0  0  0
  6  7  1  0  0  0  0
  6  5  1  0  0  0  0
  7  8  1  0  0  0  0
  7 15  1  0  0  0  0
  8 17  1  6  0  0  0
  8 36  1  0  0  0  0
  8  3  1  0  0  0  0
 12  5  1  0  0  0  0
 13  6  1  0  0  0  0
 14  6  1  0  0  0  0
 16  7  1  0  0  0  0
 18 23  1  0  0  0  0
 18 24  1  0  0  0  0
 19 18  2  0  0  0  0
 20 21  2  0  0  0  0
 20 19  1  0  0  0  0
 21 22  1  0  0  0  0
 22 25  1  0  0  0  0
 22 23  2  0  0  0  0
 26 20  1  0  0  0  0
 27 26  1  0  0  0  0
 27 32  1  0  0  0  0
 28 27  2  0  0  0  0
 29 30  2  0  0  0  0
 29 28  1  0  0  0  0
 30 31  1  0  0  0  0
 31 26  2  0  0  0  0
 33 28  1  0  0  0  0
 34 29  1  0  0  0  0
 35 30  1  0  0  0  0
 36 37  1  0  0  0  0
 38 37  1  0  0  0  0
M  END
>  <minimizedAffinity>
-5.11942673

$$$$

 OpenBabel03252507213D

 38 40  0  0  1  0  0  0  0  0999 V2000
   38.9350   29.4180   39.7490 C   0  0  0  0  0  0  0  0  0  0  0  0
   38.2910   28.5480   39.0790 O   0  0  0  0  0  0  0  0  0  0  0  0
   38.4720   30.7550   39.9510 N   0  0  0  0  0  0  0  0  0  0  0  0
   38.4540   31.5720   41.1680 C   0  0  0  0  0  0  0  0  0  0  0  0
   39.1150   32.9140   40.8750 C   0  0  0  0  0  0  0  0  0  0  0  0
   38.3410   33.6720   39.8370 C   0  0  0  0  0  0  0  0  0  0  0  0
   37.3190   32.7440   39.2140 C   0  0  0  0  0  0  0  0  0  0  0  0
   37.9380   31.4360   38.8060 C   0  0  2  0  0  0  0  0  0  0  0  0
   39.1480   31.1060   41.9290 H   0  0  0  0  0  0  0  0  0  0  0  0
   37.4590   31.6640   41.6090 H   0  0  0  0  0  0  0  0  0  0  0  0
   39.2420   33.4610   41.8230 H   0  0  0  0  0  0  0  0  0  0  0  0
   40.1080   32.6310   40.4200 H   0  0  0  0  0  0  0  0  0  0  0  0
   37.8490   34.5270   40.3080 H   0  0  0  0  0  0  0  0  0  0  0  0
   38.9580   34.0550   39.0100 H   0  0  0  0  0  0  0  0  0  0  0  0
   36.5340   32.6230   39.9910 H   0  0  0  0  0  0  0  0  0  0  0  0
   36.8440   33.1800   38.3200 H   0  0  0  0  0  0  0  0  0  0  0  0
   38.7690   31.6610   38.1130 H   0  0  0  0  0  0  0  0  0  0  0  0
   41.3830   29.4290   39.6740 C   0  0  0  0  0  0  0  0  0  0  0  0
   40.1960   29.0210   40.3300 C   0  0  0  0  0  0  0  0  0  0  0  0
   40.2800   28.2750   41.4720 C   0  0  0  0  0  0  0  0  0  0  0  0
   41.5030   27.9500   41.9400 N   0  0  0  0  0  0  0  0  0  0  0  0
   42.6520   28.3300   41.3280 C   0  0  0  0  0  0  0  0  0  0  0  0
   42.5610   29.0660   40.2030 N   0  0  0  0  0  0  0  0  0  0  0  0
   41.2900   30.0220   38.7670 H   0  0  0  0  0  0  0  0  0  0  0  0
   43.5860   28.0230   41.7780 H   0  0  0  0  0  0  0  0  0  0  0  0
   39.0550   27.8640   42.1260 C   0  0  0  0  0  0  0  0  0  0  0  0
   38.4780   28.6540   43.0770 C   0  0  0  0  0  0  0  0  0  0  0  0
   37.3120   28.2370   43.6800 C   0  0  0  0  0  0  0  0  0  0  0  0
   36.6870   27.0420   43.3680 C   0  0  0  0  0  0  0  0  0  0  0  0
   37.3120   26.2730   42.3970 C   0  0  0  0  0  0  0  0  0  0  0  0
   38.4470   26.7040   41.8250 N   0  0  0  0  0  0  0  0  0  0  0  0
   38.8410   29.5850   43.4170 H   0  0  0  0  0  0  0  0  0  0  0  0
   36.8070   28.8240   44.4430 H   0  0  0  0  0  0  0  0  0  0  0  0
   35.7670   26.7080   43.8410 H   0  0  0  0  0  0  0  0  0  0  0  0
   36.9060   25.3220   42.0790 H   0  0  0  0  0  0  0  0  0  0  0  0
   36.8960   30.7200   38.0110 C   0  0  0  0  0  2  0  0  0  0  0  0
   37.1800   30.5710   36.5540 C   0  0  0  0  0  2  0  0  0  0  0  0
   38.2030   30.2340   36.3340 H   0  0  0  0  0  0  0  0  0  0  0  0
  1  3  1  0  0  0  0
  1 19  1  0  0  0  0
  2  1  2  0  0  0  0
  3  4  1  0  0  0  0
  4 10  1  0  0  0  0
  4  9  1  0  0  0  0
  5  4  1  0  0  0  0
  5 11  1  0  0  0  0
  6 13  1  0  0  0  0
  6  5  1  0  0  0  0
  7  6  1  0  0  0  0
  7 15  1  0  0  0  0
  8 17  1  6  0  0  0
  8  7  1  0  0  0  0
  8  3  1  0  0  0  0
 12  5  1  0  0  0  0
 14  6  1  0  0  0  0
 16  7  1  0  0  0  0
 18 23  2  0  0  0  0
 18 19  1  0  0  0  0
 19 20  2  0  0  0  0
 20 21  1  0  0  0  0
 20 26  1  0  0  0  0
 22 25  1  0  0  0  0
 22 21  2  0  0  0  0
 23 22  1  0  0  0  0
 24 18  1  0  0  0  0
 26 27  1  0  0  0  0
 27 32  1  0  0  0  0
 27 28  2  0  0  0  0
 28 33  1  0  0  0  0
 29 28  1  0  0  0  0
 29 34  1  0  0  0  0
 30 29  2  0  0  0  0
 31 26  2  0  0  0  0
 31 30  1  0  0  0  0
 35 30  1  0  0  0  0
 36  8  1  0  0  0  0
 37 36  1  0  0  0  0
 38 37  1  0  0  0  0
M  END
>  <minimizedAffinity>
-5.04328585

$$$$

 OpenBabel03252507213D

 38 40  0  0  1  0  0  0  0  0999 V2000
   39.4490   27.9770   40.2010 C   0  0  0  0  0  0  0  0  0  0  0  0
   39.7700   27.8470   38.9770 O   0  0  0  0  0  0  0  0  0  0  0  0
   40.1430   27.3300   41.2700 N   0  0  0  0  0  0  0  0  0  0  0  0
   40.5820   27.8580   42.5640 C   0  0  0  0  0  0  0  0  0  0  0  0
   40.0810   26.9380   43.6710 C   0  0  0  0  0  0  0  0  0  0  0  0
   40.6820   25.5700   43.5390 C   0  0  0  0  0  0  0  0  0  0  0  0
   41.3690   25.4650   42.1920 C   0  0  0  0  0  0  0  0  0  0  0  0
   40.4780   25.9470   41.0810 C   0  0  2  0  0  0  0  0  0  0  0  0
   40.0330   28.8250   42.7670 H   0  0  0  0  0  0  0  0  0  0  0  0
   41.6580   28.0470   42.6100 H   0  0  0  0  0  0  0  0  0  0  0  0
   40.2740   27.4170   44.6450 H   0  0  0  0  0  0  0  0  0  0  0  0
   38.9750   26.8450   43.4630 H   0  0  0  0  0  0  0  0  0  0  0  0
   41.3980   25.4110   44.3490 H   0  0  0  0  0  0  0  0  0  0  0  0
   39.9470   24.7520   43.5770 H   0  0  0  0  0  0  0  0  0  0  0  0
   42.2930   26.0740   42.2960 H   0  0  0  0  0  0  0  0  0  0  0  0
   41.6700   24.4330   41.9520 H   0  0  0  0  0  0  0  0  0  0  0  0
   39.5460   25.3530   41.1180 H   0  0  0  0  0  0  0  0  0  0  0  0
   38.5130   30.2280   40.4430 C   0  0  0  0  0  0  0  0  0  0  0  0
   38.3230   28.8270   40.5140 C   0  0  0  0  0  0  0  0  0  0  0  0
   37.1010   28.3300   40.8730 C   0  0  0  0  0  0  0  0  0  0  0  0
   36.1090   29.2010   41.1490 N   0  0  0  0  0  0  0  0  0  0  0  0
   36.2700   30.5470   41.0870 C   0  0  0  0  0  0  0  0  0  0  0  0
   37.4770   31.0290   40.7320 N   0  0  0  0  0  0  0  0  0  0  0  0
   39.4950   30.5990   40.1550 H   0  0  0  0  0  0  0  0  0  0  0  0
   35.4150   31.1660   41.3260 H   0  0  0  0  0  0  0  0  0  0  0  0
   36.9280   26.8940   40.9440 C   0  0  0  0  0  0  0  0  0  0  0  0
   36.9620   26.2500   42.1460 C   0  0  0  0  0  0  0  0  0  0  0  0
   36.7930   24.8830   42.1800 C   0  0  0  0  0  0  0  0  0  0  0  0
   36.5870   24.1190   41.0450 C   0  0  0  0  0  0  0  0  0  0  0  0
   36.5610   24.8200   39.8480 C   0  0  0  0  0  0  0  0  0  0  0  0
   36.7280   26.1510   39.8420 N   0  0  0  0  0  0  0  0  0  0  0  0
   37.1130   26.6990   43.0890 H   0  0  0  0  0  0  0  0  0  0  0  0
   36.8110   24.3160   43.1090 H   0  0  0  0  0  0  0  0  0  0  0  0
   36.4530   23.0410   41.0670 H   0  0  0  0  0  0  0  0  0  0  0  0
   36.4060   24.3170   38.9010 H   0  0  0  0  0  0  0  0  0  0  0  0
   41.1730   25.5810   39.8110 C   0  0  0  0  0  2  0  0  0  0  0  0
   42.5920   25.1420   39.9500 C   0  0  0  0  0  2  0  0  0  0  0  0
   42.7540   24.4150   40.7590 H   0  0  0  0  0  0  0  0  0  0  0  0
  1 19  1  0  0  0  0
  1  3  1  0  0  0  0
  2  1  2  0  0  0  0
  3  4  1  0  0  0  0
  4 10  1  0  0  0  0
  4  9  1  0  0  0  0
  4  5  1  0  0  0  0
  5 11  1  0  0  0  0
  6 14  1  0  0  0  0
  6  5  1  0  0  0  0
  6 13  1  0  0  0  0
  7 15  1  0  0  0  0
  7  6  1  0  0  0  0
  8 17  1  1  0  0  0
  8  3  1  0  0  0  0
  8  7  1  0  0  0  0
 12  5  1  0  0  0  0
 16  7  1  0  0  0  0
 18 19  2  0  0  0  0
 18 23  1  0  0  0  0
 19 20  1  0  0  0  0
 20 26  1  0  0  0  0
 20 21  2  0  0  0  0
 22 21  1  0  0  0  0
 22 25  1  0  0  0  0
 23 22  2  0  0  0  0
 24 18  1  0  0  0  0
 26 27  1  0  0  0  0
 27 28  2  0  0  0  0
 27 32  1  0  0  0  0
 28 33  1  0  0  0  0
 29 34  1  0  0  0  0
 29 28  1  0  0  0  0
 30 29  2  0  0  0  0
 31 30  1  0  0  0  0
 31 26  2  0  0  0  0
 35 30  1  0  0  0  0
 36 37  1  0  0  0  0
 36  8  1  0  0  0  0
 37 38  1  0  0  0  0
M  END
>  <minimizedAffinity>
-4.96550703

$$$$

 OpenBabel03252507213D

 38 40  0  0  1  0  0  0  0  0999 V2000
   39.1630   27.5020   39.8320 C   0  0  0  0  0  0  0  0  0  0  0  0
   39.1260   26.4490   39.1180 O   0  0  0  0  0  0  0  0  0  0  0  0
   38.7850   27.5310   41.2100 N   0  0  0  0  0  0  0  0  0  0  0  0
   39.4420   28.1690   42.3540 C   0  0  0  0  0  0  0  0  0  0  0  0
   38.4240   29.0290   43.0950 C   0  0  0  0  0  0  0  0  0  0  0  0
   37.3180   28.1830   43.6520 C   0  0  0  0  0  0  0  0  0  0  0  0
   37.4200   26.7920   43.0590 C   0  0  0  0  0  0  0  0  0  0  0  0
   37.5790   26.8400   41.5660 C   0  0  2  0  0  0  0  0  0  0  0  0
   40.1860   28.9280   41.9690 H   0  0  0  0  0  0  0  0  0  0  0  0
   39.9640   27.4600   43.0010 H   0  0  0  0  0  0  0  0  0  0  0  0
   38.9520   29.6280   43.8550 H   0  0  0  0  0  0  0  0  0  0  0  0
   37.9810   29.6790   42.2840 H   0  0  0  0  0  0  0  0  0  0  0  0
   37.4060   28.1460   44.7400 H   0  0  0  0  0  0  0  0  0  0  0  0
   36.3090   28.5500   43.4100 H   0  0  0  0  0  0  0  0  0  0  0  0
   38.2930   26.3300   43.5690 H   0  0  0  0  0  0  0  0  0  0  0  0
   36.5350   26.1750   43.2800 H   0  0  0  0  0  0  0  0  0  0  0  0
   36.7190   27.4020   41.1560 H   0  0  0  0  0  0  0  0  0  0  0  0
   41.0040   28.8790   38.9860 C   0  0  0  0  0  0  0  0  0  0  0  0
   39.6140   28.7240   39.2070 C   0  0  0  0  0  0  0  0  0  0  0  0
   38.7560   29.7190   38.8280 C   0  0  0  0  0  0  0  0  0  0  0  0
   39.2690   30.8250   38.2520 N   0  0  0  0  0  0  0  0  0  0  0  0
   40.5970   30.9950   38.0330 C   0  0  0  0  0  0  0  0  0  0  0  0
   41.4360   30.0090   38.4080 N   0  0  0  0  0  0  0  0  0  0  0  0
   41.6660   28.0740   39.2970 H   0  0  0  0  0  0  0  0  0  0  0  0
   40.9140   31.9160   37.5630 H   0  0  0  0  0  0  0  0  0  0  0  0
   37.3380   29.5420   39.0650 C   0  0  0  0  0  0  0  0  0  0  0  0
   36.5640   28.8720   38.1650 C   0  0  0  0  0  0  0  0  0  0  0  0
   35.2180   28.7190   38.4190 C   0  0  0  0  0  0  0  0  0  0  0  0
   34.6030   29.2170   39.5550 C   0  0  0  0  0  0  0  0  0  0  0  0
   35.4330   29.8920   40.4390 C   0  0  0  0  0  0  0  0  0  0  0  0
   36.7400   30.0260   40.1680 N   0  0  0  0  0  0  0  0  0  0  0  0
   36.8910   28.4420   37.2580 H   0  0  0  0  0  0  0  0  0  0  0  0
   34.5510   28.1940   37.7390 H   0  0  0  0  0  0  0  0  0  0  0  0
   33.5430   29.1000   39.7590 H   0  0  0  0  0  0  0  0  0  0  0  0
   35.0530   30.3200   41.3580 H   0  0  0  0  0  0  0  0  0  0  0  0
   37.4360   25.4300   41.0930 C   0  0  0  0  0  2  0  0  0  0  0  0
   37.4150   24.3870   42.1600 C   0  0  0  0  0  2  0  0  0  0  0  0
   36.7550   24.6310   43.0060 H   0  0  0  0  0  0  0  0  0  0  0  0
  1  3  1  0  0  0  0
  2  1  2  0  0  0  0
  3  8  1  0  0  0  0
  3  4  1  0  0  0  0
  4 10  1  0  0  0  0
  4  5  1  0  0  0  0
  5  6  1  0  0  0  0
  5 11  1  0  0  0  0
  6 13  1  0  0  0  0
  7 16  1  0  0  0  0
  7 15  1  0  0  0  0
  7  6  1  0  0  0  0
  8 17  1  6  0  0  0
  8  7  1  0  0  0  0
  9  4  1  0  0  0  0
 12  5  1  0  0  0  0
 14  6  1  0  0  0  0
 18 19  1  0  0  0  0
 18 24  1  0  0  0  0
 19  1  1  0  0  0  0
 20 26  1  0  0  0  0
 20 19  2  0  0  0  0
 21 20  1  0  0  0  0
 22 21  2  0  0  0  0
 22 23  1  0  0  0  0
 23 18  2  0  0  0  0
 25 22  1  0  0  0  0
 26 31  1  0  0  0  0
 27 28  1  0  0  0  0
 27 26  2  0  0  0  0
 28 29  2  0  0  0  0
 29 34  1  0  0  0  0
 29 30  1  0  0  0  0
 30 35  1  0  0  0  0
 31 30  2  0  0  0  0
 32 27  1  0  0  0  0
 33 28  1  0  0  0  0
 36  8  1  0  0  0  0
 36 37  1  0  0  0  0
 37 38  1  0  0  0  0
M  END
>  <minimizedAffinity>
-4.94915533

$$$$
