
 OpenBabel03252508273D

 35 38  0  0  1  0  0  0  0  0999 V2000
   38.3760   29.3500   41.9690 C   0  0  1  0  0  0  0  0  0  0  0  0
   37.6830   29.2760   43.2640 C   0  0  0  0  0  0  0  0  0  0  0  0
   37.7010   28.0930   42.2170 C   0  0  2  0  0  0  0  0  0  0  0  0
   39.4670   29.5920   42.2260 H   0  0  0  0  0  0  0  0  0  0  0  0
   38.1700   28.9590   44.2090 H   0  0  0  0  0  0  0  0  0  0  0  0
   36.7470   29.8080   43.4430 H   0  0  0  0  0  0  0  0  0  0  0  0
   36.5970   27.9330   42.0950 H   0  0  0  0  0  0  0  0  0  0  0  0
   38.3670   26.8310   42.5640 C   0  0  0  0  0  0  0  0  0  0  0  0
   39.3700   26.6450   43.4680 C   0  0  0  0  0  0  0  0  0  0  0  0
   40.0660   25.4660   43.6760 C   0  0  0  0  0  0  0  0  0  0  0  0
   39.6960   24.3740   42.8780 C   0  0  0  0  0  0  0  0  0  0  0  0
   38.6690   24.5300   41.9440 C   0  0  0  0  0  0  0  0  0  0  0  0
   38.2950   23.4080   41.2260 C   0  0  0  0  0  0  0  0  0  0  0  0
   37.2320   23.5070   40.3420 C   0  0  0  0  0  0  0  0  0  0  0  0
   36.5530   24.6970   40.1780 C   0  0  0  0  0  0  0  0  0  0  0  0
   36.9700   25.7790   40.9170 C   0  0  0  0  0  0  0  0  0  0  0  0
   38.0280   25.7380   41.8050 C   0  0  0  0  0  0  0  0  0  0  0  0
   39.6260   27.5160   44.0640 H   0  0  0  0  0  0  0  0  0  0  0  0
   40.8460   25.3730   44.4000 H   0  0  0  0  0  0  0  0  0  0  0  0
   40.2140   23.4570   43.0140 H   0  0  0  0  0  0  0  0  0  0  0  0
   38.8510   22.4840   41.3800 H   0  0  0  0  0  0  0  0  0  0  0  0
   37.0290   22.5580   39.8270 H   0  0  0  0  0  0  0  0  0  0  0  0
   35.7640   24.5700   39.4560 H   0  0  0  0  0  0  0  0  0  0  0  0
   36.2610   26.5240   40.6880 H   0  0  0  0  0  0  0  0  0  0  0  0
   36.7710   30.4960   38.8430 C   0  0  0  0  0  0  0  0  0  0  0  0
   37.0460   31.9090   38.8690 C   0  0  0  0  0  0  0  0  0  0  0  0
   37.7640   32.4210   39.9700 C   0  0  0  0  0  0  0  0  0  0  0  0
   38.1670   31.5880   40.9520 N   0  0  0  0  0  0  0  0  0  0  0  0
   37.8770   30.2410   40.8780 C   0  0  0  0  0  0  0  0  0  0  0  0
   37.2030   29.7150   39.8590 N   0  0  0  0  0  0  0  0  0  0  0  0
   36.2260   30.0610   38.0210 H   0  0  0  0  0  0  0  0  0  0  0  0
   36.6960   32.4960   38.0570 H   0  0  0  0  0  0  0  0  0  0  0  0
   38.0400   33.8800   39.9820 C   0  0  0  0  0  2  0  0  0  0  0  0
   39.4590   34.1600   40.3830 C   0  0  0  0  0  2  0  0  0  0  0  0
   39.4850   34.5060   41.4350 H   0  0  0  0  0  0  0  0  0  0  0  0
  1  3  1  0  0  0  0
  1  4  1  1  0  0  0
  1  2  1  0  0  0  0
  2  6  1  0  0  0  0
  2  5  1  0  0  0  0
  3  7  1  6  0  0  0
  3  8  1  0  0  0  0
  3  2  1  0  0  0  0
  8  9  1  0  0  0  0
  9 10  2  0  0  0  0
  9 18  1  0  0  0  0
 10 19  1  0  0  0  0
 11 20  1  0  0  0  0
 11 10  1  0  0  0  0
 12 11  2  0  0  0  0
 13 21  1  0  0  0  0
 13 12  1  0  0  0  0
 14 13  2  0  0  0  0
 15 14  1  0  0  0  0
 15 16  2  0  0  0  0
 16 17  1  0  0  0  0
 17 12  1  0  0  0  0
 17  8  2  0  0  0  0
 22 14  1  0  0  0  0
 23 15  1  0  0  0  0
 24 16  1  0  0  0  0
 25 26  2  0  0  0  0
 25 30  1  0  0  0  0
 26 27  1  0  0  0  0
 27 33  1  0  0  0  0
 27 28  2  0  0  0  0
 29 28  1  0  0  0  0
 29  1  1  0  0  0  0
 30 29  2  0  0  0  0
 31 25  1  0  0  0  0
 32 26  1  0  0  0  0
 33 34  1  0  0  0  0
 34 35  1  0  0  0  0
M  END
>  <minimizedAffinity>
-6.0380621

$$$$

 OpenBabel03252508273D

 35 38  0  0  1  0  0  0  0  0999 V2000
   38.5020   29.3180   42.0790 C   0  0  1  0  0  0  0  0  0  0  0  0
   37.7710   29.2050   43.3500 C   0  0  0  0  0  0  0  0  0  0  0  0
   37.8380   28.0460   42.2780 C   0  0  2  0  0  0  0  0  0  0  0  0
   39.5810   29.5690   42.3750 H   0  0  0  0  0  0  0  0  0  0  0  0
   38.2330   28.8730   44.3030 H   0  0  0  0  0  0  0  0  0  0  0  0
   36.8220   29.7200   43.5120 H   0  0  0  0  0  0  0  0  0  0  0  0
   36.7400   27.8750   42.1190 H   0  0  0  0  0  0  0  0  0  0  0  0
   38.5110   26.7860   42.6170 C   0  0  0  0  0  0  0  0  0  0  0  0
   39.5530   26.6090   43.4780 C   0  0  0  0  0  0  0  0  0  0  0  0
   40.2510   25.4290   43.6760 C   0  0  0  0  0  0  0  0  0  0  0  0
   39.8380   24.3260   42.9150 C   0  0  0  0  0  0  0  0  0  0  0  0
   38.7710   24.4730   42.0260 C   0  0  0  0  0  0  0  0  0  0  0  0
   38.3580   23.3400   41.3450 C   0  0  0  0  0  0  0  0  0  0  0  0
   37.2560   23.4310   40.5080 C   0  0  0  0  0  0  0  0  0  0  0  0
   36.5780   24.6230   40.3540 C   0  0  0  0  0  0  0  0  0  0  0  0
   37.0350   25.7150   41.0540 C   0  0  0  0  0  0  0  0  0  0  0  0
   38.1310   25.6820   41.8940 C   0  0  0  0  0  0  0  0  0  0  0  0
   39.8410   27.4880   44.0470 H   0  0  0  0  0  0  0  0  0  0  0  0
   41.0610   25.3430   44.3660 H   0  0  0  0  0  0  0  0  0  0  0  0
   40.3560   23.4080   43.0440 H   0  0  0  0  0  0  0  0  0  0  0  0
   38.9140   22.4150   41.4900 H   0  0  0  0  0  0  0  0  0  0  0  0
   37.0240   22.4750   40.0210 H   0  0  0  0  0  0  0  0  0  0  0  0
   35.7570   24.4890   39.6710 H   0  0  0  0  0  0  0  0  0  0  0  0
   36.3200   26.4610   40.8430 H   0  0  0  0  0  0  0  0  0  0  0  0
   37.7700   32.3840   40.1500 C   0  0  0  0  0  0  0  0  0  0  0  0
   37.0680   31.8570   39.0090 C   0  0  0  0  0  0  0  0  0  0  0  0
   36.8820   30.4610   38.9370 C   0  0  0  0  0  0  0  0  0  0  0  0
   37.3590   29.6700   39.9210 N   0  0  0  0  0  0  0  0  0  0  0  0
   38.0240   30.2270   40.9930 C   0  0  0  0  0  0  0  0  0  0  0  0
   38.2220   31.5380   41.1030 N   0  0  0  0  0  0  0  0  0  0  0  0
   37.9340   33.4450   40.2480 H   0  0  0  0  0  0  0  0  0  0  0  0
   36.7240   32.5460   38.2790 H   0  0  0  0  0  0  0  0  0  0  0  0
   36.1560   29.9320   37.7530 C   0  0  0  0  0  2  0  0  0  0  0  0
   35.0080   29.0590   38.1680 C   0  0  0  0  0  2  0  0  0  0  0  0
   35.2840   27.9950   38.0300 H   0  0  0  0  0  0  0  0  0  0  0  0
  1  3  1  0  0  0  0
  1  4  1  1  0  0  0
  1  2  1  0  0  0  0
  2  6  1  0  0  0  0
  2  5  1  0  0  0  0
  3  7  1  6  0  0  0
  3  8  1  0  0  0  0
  3  2  1  0  0  0  0
  8  9  1  0  0  0  0
  9 10  2  0  0  0  0
  9 18  1  0  0  0  0
 10 19  1  0  0  0  0
 11 20  1  0  0  0  0
 11 10  1  0  0  0  0
 12 11  2  0  0  0  0
 13 21  1  0  0  0  0
 13 12  1  0  0  0  0
 14 13  2  0  0  0  0
 15 14  1  0  0  0  0
 15 16  2  0  0  0  0
 16 17  1  0  0  0  0
 17 12  1  0  0  0  0
 17  8  2  0  0  0  0
 22 14  1  0  0  0  0
 23 15  1  0  0  0  0
 24 16  1  0  0  0  0
 25 31  1  0  0  0  0
 25 30  1  0  0  0  0
 26 25  2  0  0  0  0
 27 26  1  0  0  0  0
 27 28  2  0  0  0  0
 28 29  1  0  0  0  0
 29 30  2  0  0  0  0
 29  1  1  0  0  0  0
 32 26  1  0  0  0  0
 33 34  1  0  0  0  0
 33 27  1  0  0  0  0
 35 34  1  0  0  0  0
M  END
>  <minimizedAffinity>
-5.94710827

$$$$

 OpenBabel03252508273D

 35 38  0  0  1  0  0  0  0  0999 V2000
   37.4740   30.8420   38.2630 C   0  0  1  0  0  0  0  0  0  0  0  0
   37.2390   32.2280   38.6920 C   0  0  0  0  0  0  0  0  0  0  0  0
   37.0380   30.9780   39.6370 C   0  0  2  0  0  0  0  0  0  0  0  0
   38.5620   30.8210   37.9000 H   0  0  0  0  0  0  0  0  0  0  0  0
   38.0290   32.8930   39.0990 H   0  0  0  0  0  0  0  0  0  0  0  0
   36.3620   32.7880   38.3630 H   0  0  0  0  0  0  0  0  0  0  0  0
   35.9720   31.1480   39.9480 H   0  0  0  0  0  0  0  0  0  0  0  0
   37.8970   30.8170   40.8160 C   0  0  0  0  0  0  0  0  0  0  0  0
   38.9750   31.5750   41.1650 C   0  0  0  0  0  0  0  0  0  0  0  0
   39.8440   31.3170   42.2130 C   0  0  0  0  0  0  0  0  0  0  0  0
   39.5790   30.1700   42.9740 C   0  0  0  0  0  0  0  0  0  0  0  0
   38.4790   29.3730   42.6450 C   0  0  0  0  0  0  0  0  0  0  0  0
   38.2210   28.2880   43.4640 C   0  0  0  0  0  0  0  0  0  0  0  0
   37.0970   27.5170   43.2120 C   0  0  0  0  0  0  0  0  0  0  0  0
   36.2460   27.8200   42.1680 C   0  0  0  0  0  0  0  0  0  0  0  0
   36.5550   28.9090   41.3870 C   0  0  0  0  0  0  0  0  0  0  0  0
   37.6660   29.7060   41.5890 C   0  0  0  0  0  0  0  0  0  0  0  0
   39.1450   32.4540   40.5490 H   0  0  0  0  0  0  0  0  0  0  0  0
   40.6750   31.9450   42.4450 H   0  0  0  0  0  0  0  0  0  0  0  0
   40.2290   29.9450   43.7820 H   0  0  0  0  0  0  0  0  0  0  0  0
   38.9100   28.0770   44.2800 H   0  0  0  0  0  0  0  0  0  0  0  0
   36.9950   26.6840   43.9210 H   0  0  0  0  0  0  0  0  0  0  0  0
   35.4370   27.1110   42.1400 H   0  0  0  0  0  0  0  0  0  0  0  0
   35.7340   28.9830   40.7310 H   0  0  0  0  0  0  0  0  0  0  0  0
   34.7000   28.8610   36.8340 C   0  0  0  0  0  0  0  0  0  0  0  0
   34.9890   28.9190   35.4250 C   0  0  0  0  0  0  0  0  0  0  0  0
   36.1220   29.6510   35.0140 C   0  0  0  0  0  0  0  0  0  0  0  0
   36.8930   30.2660   35.9360 N   0  0  0  0  0  0  0  0  0  0  0  0
   36.5720   30.1770   37.2740 C   0  0  0  0  0  0  0  0  0  0  0  0
   35.5130   29.4990   37.7070 N   0  0  0  0  0  0  0  0  0  0  0  0
   33.8450   28.3120   37.1950 H   0  0  0  0  0  0  0  0  0  0  0  0
   34.3340   28.4080   34.7650 H   0  0  0  0  0  0  0  0  0  0  0  0
   36.4060   29.7030   33.5570 C   0  0  0  0  0  2  0  0  0  0  0  0
   36.4350   31.1180   33.0600 C   0  0  0  0  0  2  0  0  0  0  0  0
   35.4900   31.3410   32.5230 H   0  0  0  0  0  0  0  0  0  0  0  0
  1  4  1  6  0  0  0
  1  2  1  0  0  0  0
  1  3  1  0  0  0  0
  2  5  1  0  0  0  0
  2  3  1  0  0  0  0
  3  7  1  1  0  0  0
  3  8  1  0  0  0  0
  6  2  1  0  0  0  0
  8  9  2  0  0  0  0
  8 17  1  0  0  0  0
  9 10  1  0  0  0  0
 10 19  1  0  0  0  0
 10 11  2  0  0  0  0
 11 20  1  0  0  0  0
 12 11  1  0  0  0  0
 12 13  1  0  0  0  0
 13 21  1  0  0  0  0
 14 13  2  0  0  0  0
 14 22  1  0  0  0  0
 15 14  1  0  0  0  0
 16 17  1  0  0  0  0
 16 15  2  0  0  0  0
 17 12  2  0  0  0  0
 18  9  1  0  0  0  0
 23 15  1  0  0  0  0
 24 16  1  0  0  0  0
 25 31  1  0  0  0  0
 25 30  1  0  0  0  0
 26 25  2  0  0  0  0
 27 26  1  0  0  0  0
 27 28  2  0  0  0  0
 28 29  1  0  0  0  0
 29 30  2  0  0  0  0
 29  1  1  0  0  0  0
 32 26  1  0  0  0  0
 33 27  1  0  0  0  0
 34 33  1  0  0  0  0
 35 34  1  0  0  0  0
M  END
>  <minimizedAffinity>
-5.85214901

$$$$

 OpenBabel03252508273D

 35 38  0  0  1  0  0  0  0  0999 V2000
   38.6310   28.7300   42.3170 C   0  0  1  0  0  0  0  0  0  0  0  0
   37.7190   28.5780   43.4610 C   0  0  0  0  0  0  0  0  0  0  0  0
   37.3170   28.2270   41.9740 C   0  0  2  0  0  0  0  0  0  0  0  0
   39.5490   28.0930   42.5800 H   0  0  0  0  0  0  0  0  0  0  0  0
   37.6680   27.6700   44.0960 H   0  0  0  0  0  0  0  0  0  0  0  0
   37.2570   29.4420   43.9430 H   0  0  0  0  0  0  0  0  0  0  0  0
   36.4020   28.8700   41.8700 H   0  0  0  0  0  0  0  0  0  0  0  0
   37.0110   26.8360   41.6160 C   0  0  0  0  0  0  0  0  0  0  0  0
   37.1510   25.7300   42.4000 C   0  0  0  0  0  0  0  0  0  0  0  0
   36.9790   24.4180   41.9900 C   0  0  0  0  0  0  0  0  0  0  0  0
   36.6300   24.2260   40.6460 C   0  0  0  0  0  0  0  0  0  0  0  0
   36.4760   25.3390   39.8160 C   0  0  0  0  0  0  0  0  0  0  0  0
   36.0680   25.1030   38.5150 C   0  0  0  0  0  0  0  0  0  0  0  0
   35.8350   26.1870   37.6830 C   0  0  0  0  0  0  0  0  0  0  0  0
   36.0000   27.4800   38.1370 C   0  0  0  0  0  0  0  0  0  0  0  0
   36.4080   27.6530   39.4400 C   0  0  0  0  0  0  0  0  0  0  0  0
   36.6630   26.6090   40.3080 C   0  0  0  0  0  0  0  0  0  0  0  0
   37.4220   25.9230   43.4340 H   0  0  0  0  0  0  0  0  0  0  0  0
   37.1000   23.5850   42.6470 H   0  0  0  0  0  0  0  0  0  0  0  0
   36.4940   23.2300   40.3030 H   0  0  0  0  0  0  0  0  0  0  0  0
   35.9450   24.0710   38.1880 H   0  0  0  0  0  0  0  0  0  0  0  0
   35.5200   25.8800   36.6770 H   0  0  0  0  0  0  0  0  0  0  0  0
   35.7680   28.1750   37.3490 H   0  0  0  0  0  0  0  0  0  0  0  0
   36.3790   28.6980   39.5710 H   0  0  0  0  0  0  0  0  0  0  0  0
   40.6310   31.7870   41.7570 C   0  0  0  0  0  0  0  0  0  0  0  0
   39.7250   32.5960   40.9830 C   0  0  0  0  0  0  0  0  0  0  0  0
   38.4610   32.0550   40.6690 C   0  0  0  0  0  0  0  0  0  0  0  0
   38.1390   30.8150   41.0950 N   0  0  0  0  0  0  0  0  0  0  0  0
   39.0440   30.0820   41.8350 C   0  0  0  0  0  0  0  0  0  0  0  0
   40.2460   30.5520   42.1540 N   0  0  0  0  0  0  0  0  0  0  0  0
   41.6070   32.1600   42.0210 H   0  0  0  0  0  0  0  0  0  0  0  0
   40.0540   33.5610   40.6880 H   0  0  0  0  0  0  0  0  0  0  0  0
   37.5390   32.9010   39.8700 C   0  0  0  0  0  2  0  0  0  0  0  0
   37.2180   32.2590   38.5520 C   0  0  0  0  0  2  0  0  0  0  0  0
   37.7990   32.7540   37.7490 H   0  0  0  0  0  0  0  0  0  0  0  0
  1  4  1  6  0  0  0
  1  2  1  0  0  0  0
  2  6  1  0  0  0  0
  2  5  1  0  0  0  0
  3  7  1  6  0  0  0
  3  1  1  0  0  0  0
  3  2  1  0  0  0  0
  8  3  1  0  0  0  0
  8  9  1  0  0  0  0
  9 18  1  0  0  0  0
 10  9  2  0  0  0  0
 10 19  1  0  0  0  0
 11 10  1  0  0  0  0
 12 17  1  0  0  0  0
 12 11  2  0  0  0  0
 13 12  1  0  0  0  0
 14 15  1  0  0  0  0
 14 13  2  0  0  0  0
 15 16  2  0  0  0  0
 16 24  1  0  0  0  0
 16 17  1  0  0  0  0
 17  8  2  0  0  0  0
 20 11  1  0  0  0  0
 21 13  1  0  0  0  0
 22 14  1  0  0  0  0
 23 15  1  0  0  0  0
 25 31  1  0  0  0  0
 25 30  1  0  0  0  0
 26 25  2  0  0  0  0
 27 26  1  0  0  0  0
 27 28  2  0  0  0  0
 28 29  1  0  0  0  0
 29 30  2  0  0  0  0
 29  1  1  0  0  0  0
 32 26  1  0  0  0  0
 33 27  1  0  0  0  0
 34 33  1  0  0  0  0
 35 34  1  0  0  0  0
M  END
>  <minimizedAffinity>
-5.68937731

$$$$

 OpenBabel03252508273D

 35 38  0  0  1  0  0  0  0  0999 V2000
   36.3830   29.4350   39.4220 C   0  0  1  0  0  0  0  0  0  0  0  0
   35.8710   30.3140   40.4840 C   0  0  0  0  0  0  0  0  0  0  0  0
   35.9110   28.7400   40.6010 C   0  0  2  0  0  0  0  0  0  0  0  0
   37.4580   29.7890   39.2330 H   0  0  0  0  0  0  0  0  0  0  0  0
   36.5070   30.7740   41.2690 H   0  0  0  0  0  0  0  0  0  0  0  0
   34.9030   30.8120   40.3970 H   0  0  0  0  0  0  0  0  0  0  0  0
   34.8300   28.5400   40.8270 H   0  0  0  0  0  0  0  0  0  0  0  0
   36.7710   28.1110   41.6120 C   0  0  0  0  0  0  0  0  0  0  0  0
   37.3260   28.7000   42.7090 C   0  0  0  0  0  0  0  0  0  0  0  0
   38.2380   28.1140   43.5700 C   0  0  0  0  0  0  0  0  0  0  0  0
   38.6180   26.7970   43.2750 C   0  0  0  0  0  0  0  0  0  0  0  0
   38.0650   26.1630   42.1590 C   0  0  0  0  0  0  0  0  0  0  0  0
   38.4200   24.8420   41.9460 C   0  0  0  0  0  0  0  0  0  0  0  0
   37.8360   24.1590   40.8910 C   0  0  0  0  0  0  0  0  0  0  0  0
   36.9160   24.7750   40.0660 C   0  0  0  0  0  0  0  0  0  0  0  0
   36.6040   26.0890   40.3260 C   0  0  0  0  0  0  0  0  0  0  0  0
   37.1610   26.8190   41.3590 C   0  0  0  0  0  0  0  0  0  0  0  0
   37.0060   29.7200   42.9010 H   0  0  0  0  0  0  0  0  0  0  0  0
   38.6430   28.6210   44.4190 H   0  0  0  0  0  0  0  0  0  0  0  0
   39.3180   26.3230   43.9170 H   0  0  0  0  0  0  0  0  0  0  0  0
   39.1470   24.3850   42.6150 H   0  0  0  0  0  0  0  0  0  0  0  0
   38.1940   23.1240   40.8160 H   0  0  0  0  0  0  0  0  0  0  0  0
   36.5790   24.0830   39.3150 H   0  0  0  0  0  0  0  0  0  0  0  0
   35.8370   26.3030   39.6350 H   0  0  0  0  0  0  0  0  0  0  0  0
   33.6670   28.7730   37.0050 C   0  0  0  0  0  0  0  0  0  0  0  0
   34.3500   28.9130   35.7450 C   0  0  0  0  0  0  0  0  0  0  0  0
   35.7210   29.2440   35.7720 C   0  0  0  0  0  0  0  0  0  0  0  0
   36.3450   29.4180   36.9560 N   0  0  0  0  0  0  0  0  0  0  0  0
   35.6440   29.2710   38.1340 C   0  0  0  0  0  0  0  0  0  0  0  0
   34.3510   28.9600   38.1570 N   0  0  0  0  0  0  0  0  0  0  0  0
   32.6200   28.5190   37.0330 H   0  0  0  0  0  0  0  0  0  0  0  0
   33.7880   28.7590   34.8580 H   0  0  0  0  0  0  0  0  0  0  0  0
   36.4110   29.3860   34.4640 C   0  0  0  0  0  2  0  0  0  0  0  0
   36.1710   30.7420   33.8680 C   0  0  0  0  0  2  0  0  0  0  0  0
   35.4170   30.6620   33.0600 H   0  0  0  0  0  0  0  0  0  0  0  0
  1  4  1  6  0  0  0
  1  2  1  0  0  0  0
  1  3  1  0  0  0  0
  2  3  1  0  0  0  0
  2  5  1  0  0  0  0
  3  7  1  6  0  0  0
  3  8  1  0  0  0  0
  6  2  1  0  0  0  0
  8  9  1  0  0  0  0
  9 18  1  0  0  0  0
  9 10  2  0  0  0  0
 10 19  1  0  0  0  0
 11 10  1  0  0  0  0
 11 20  1  0  0  0  0
 12 11  2  0  0  0  0
 13 12  1  0  0  0  0
 13 21  1  0  0  0  0
 14 13  2  0  0  0  0
 15 16  2  0  0  0  0
 15 14  1  0  0  0  0
 16 17  1  0  0  0  0
 17  8  2  0  0  0  0
 17 12  1  0  0  0  0
 22 14  1  0  0  0  0
 23 15  1  0  0  0  0
 24 16  1  0  0  0  0
 25 31  1  0  0  0  0
 25 30  1  0  0  0  0
 26 27  1  0  0  0  0
 26 25  2  0  0  0  0
 27 28  2  0  0  0  0
 28 29  1  0  0  0  0
 29 30  2  0  0  0  0
 29  1  1  0  0  0  0
 32 26  1  0  0  0  0
 33 27  1  0  0  0  0
 34 33  1  0  0  0  0
 35 34  1  0  0  0  0
M  END
>  <minimizedAffinity>
-5.66833496

$$$$

 OpenBabel03252508273D

 35 38  0  0  1  0  0  0  0  0999 V2000
   41.5110   30.4660   41.3160 C   0  0  1  0  0  0  0  0  0  0  0  0
   42.6490   30.4140   42.2450 C   0  0  0  0  0  0  0  0  0  0  0  0
   41.1690   30.0520   42.6600 C   0  0  2  0  0  0  0  0  0  0  0  0
   41.7990   29.7710   40.4490 H   0  0  0  0  0  0  0  0  0  0  0  0
   43.3090   29.5300   42.3670 H   0  0  0  0  0  0  0  0  0  0  0  0
   43.1030   31.3220   42.6450 H   0  0  0  0  0  0  0  0  0  0  0  0
   41.0400   30.7570   43.5250 H   0  0  0  0  0  0  0  0  0  0  0  0
   40.8470   28.6780   43.0650 C   0  0  0  0  0  0  0  0  0  0  0  0
   41.7190   27.6960   43.4300 C   0  0  0  0  0  0  0  0  0  0  0  0
   41.3930   26.3730   43.6790 C   0  0  0  0  0  0  0  0  0  0  0  0
   40.0420   26.0270   43.5400 C   0  0  0  0  0  0  0  0  0  0  0  0
   39.1210   27.0110   43.1700 C   0  0  0  0  0  0  0  0  0  0  0  0
   37.7900   26.6350   43.1070 C   0  0  0  0  0  0  0  0  0  0  0  0
   36.8400   27.6010   42.8150 C   0  0  0  0  0  0  0  0  0  0  0  0
   37.2050   28.9140   42.5910 C   0  0  0  0  0  0  0  0  0  0  0  0
   38.5430   29.2270   42.6650 C   0  0  0  0  0  0  0  0  0  0  0  0
   39.5310   28.3030   42.9450 C   0  0  0  0  0  0  0  0  0  0  0  0
   42.7550   28.0060   43.5260 H   0  0  0  0  0  0  0  0  0  0  0  0
   42.1170   25.6410   43.9640 H   0  0  0  0  0  0  0  0  0  0  0  0
   39.7630   25.0180   43.7220 H   0  0  0  0  0  0  0  0  0  0  0  0
   37.5350   25.5930   43.2910 H   0  0  0  0  0  0  0  0  0  0  0  0
   35.8220   27.1900   42.7890 H   0  0  0  0  0  0  0  0  0  0  0  0
   36.3300   29.5050   42.3850 H   0  0  0  0  0  0  0  0  0  0  0  0
   38.5590   30.2740   42.5460 H   0  0  0  0  0  0  0  0  0  0  0  0
   41.3820   33.9970   40.2310 C   0  0  0  0  0  0  0  0  0  0  0  0
   39.9860   34.1600   39.9200 C   0  0  0  0  0  0  0  0  0  0  0  0
   39.1390   33.0440   40.0800 C   0  0  0  0  0  0  0  0  0  0  0  0
   39.6500   31.8730   40.5160 N   0  0  0  0  0  0  0  0  0  0  0  0
   40.9950   31.7700   40.8010 C   0  0  0  0  0  0  0  0  0  0  0  0
   41.8310   32.7960   40.6640 N   0  0  0  0  0  0  0  0  0  0  0  0
   42.0660   34.8230   40.1240 H   0  0  0  0  0  0  0  0  0  0  0  0
   39.6630   35.1140   39.5840 H   0  0  0  0  0  0  0  0  0  0  0  0
   37.7010   33.2290   39.7540 C   0  0  0  0  0  2  0  0  0  0  0  0
   36.9510   31.9330   39.8590 C   0  0  0  0  0  2  0  0  0  0  0  0
   36.7650   31.5310   38.8430 H   0  0  0  0  0  0  0  0  0  0  0  0
  1  4  1  6  0  0  0
  1  2  1  0  0  0  0
  1  3  1  0  0  0  0
  2  5  1  0  0  0  0
  2  6  1  0  0  0  0
  2  3  1  0  0  0  0
  3  8  1  0  0  0  0
  3  7  1  1  0  0  0
  8  9  1  0  0  0  0
  9 18  1  0  0  0  0
  9 10  2  0  0  0  0
 10 19  1  0  0  0  0
 11 10  1  0  0  0  0
 11 20  1  0  0  0  0
 12 11  2  0  0  0  0
 13 12  1  0  0  0  0
 13 21  1  0  0  0  0
 14 13  2  0  0  0  0
 15 16  2  0  0  0  0
 15 14  1  0  0  0  0
 16 17  1  0  0  0  0
 17  8  2  0  0  0  0
 17 12  1  0  0  0  0
 22 14  1  0  0  0  0
 23 15  1  0  0  0  0
 24 16  1  0  0  0  0
 25 30  1  0  0  0  0
 26 27  1  0  0  0  0
 26 25  2  0  0  0  0
 27 28  2  0  0  0  0
 28 29  1  0  0  0  0
 29  1  1  0  0  0  0
 30 29  2  0  0  0  0
 31 25  1  0  0  0  0
 32 26  1  0  0  0  0
 33 34  1  0  0  0  0
 33 27  1  0  0  0  0
 35 34  1  0  0  0  0
M  END
>  <minimizedAffinity>
-5.56919479

$$$$

 OpenBabel03252508273D

 35 38  0  0  1  0  0  0  0  0999 V2000
   35.9720   29.3870   39.3780 C   0  0  1  0  0  0  0  0  0  0  0  0
   34.8100   29.2280   40.2640 C   0  0  0  0  0  0  0  0  0  0  0  0
   35.9960   28.1880   40.1880 C   0  0  2  0  0  0  0  0  0  0  0  0
   36.4280   30.4020   39.6600 H   0  0  0  0  0  0  0  0  0  0  0  0
   34.7440   29.6620   41.2830 H   0  0  0  0  0  0  0  0  0  0  0  0
   33.8300   28.9410   39.8770 H   0  0  0  0  0  0  0  0  0  0  0  0
   35.4140   27.2560   39.9560 H   0  0  0  0  0  0  0  0  0  0  0  0
   36.8510   27.9800   41.3640 C   0  0  0  0  0  0  0  0  0  0  0  0
   37.2950   28.9220   42.2430 C   0  0  0  0  0  0  0  0  0  0  0  0
   38.2070   28.7140   43.2640 C   0  0  0  0  0  0  0  0  0  0  0  0
   38.7100   27.4120   43.3940 C   0  0  0  0  0  0  0  0  0  0  0  0
   38.2730   26.4210   42.5110 C   0  0  0  0  0  0  0  0  0  0  0  0
   38.7490   25.1380   42.7190 C   0  0  0  0  0  0  0  0  0  0  0  0
   38.2810   24.1150   41.9090 C   0  0  0  0  0  0  0  0  0  0  0  0
   37.3570   24.3630   40.9130 C   0  0  0  0  0  0  0  0  0  0  0  0
   36.9220   25.6580   40.7520 C   0  0  0  0  0  0  0  0  0  0  0  0
   37.3610   26.7150   41.5260 C   0  0  0  0  0  0  0  0  0  0  0  0
   36.8810   29.9170   42.1060 H   0  0  0  0  0  0  0  0  0  0  0  0
   38.5220   29.4890   43.9270 H   0  0  0  0  0  0  0  0  0  0  0  0
   39.4130   27.2230   44.1670 H   0  0  0  0  0  0  0  0  0  0  0  0
   39.4750   24.9760   43.5140 H   0  0  0  0  0  0  0  0  0  0  0  0
   38.7280   23.1450   42.1630 H   0  0  0  0  0  0  0  0  0  0  0  0
   37.1190   23.4470   40.4010 H   0  0  0  0  0  0  0  0  0  0  0  0
   36.1780   25.5780   40.0100 H   0  0  0  0  0  0  0  0  0  0  0  0
   36.8220   29.2050   35.7850 C   0  0  0  0  0  0  0  0  0  0  0  0
   35.5210   29.1010   35.1780 C   0  0  0  0  0  0  0  0  0  0  0  0
   34.3960   29.0820   36.0270 C   0  0  0  0  0  0  0  0  0  0  0  0
   34.5650   29.1630   37.3640 N   0  0  0  0  0  0  0  0  0  0  0  0
   35.8340   29.2630   37.8950 C   0  0  0  0  0  0  0  0  0  0  0  0
   36.9230   29.2830   37.1320 N   0  0  0  0  0  0  0  0  0  0  0  0
   37.7110   29.2240   35.1750 H   0  0  0  0  0  0  0  0  0  0  0  0
   35.4740   29.0430   34.1190 H   0  0  0  0  0  0  0  0  0  0  0  0
   33.0610   28.9730   35.3850 C   0  0  0  0  0  2  0  0  0  0  0  0
   31.9650   29.3180   36.3510 C   0  0  0  0  0  2  0  0  0  0  0  0
   31.4780   28.3870   36.7050 H   0  0  0  0  0  0  0  0  0  0  0  0
  1  4  1  1  0  0  0
  1  3  1  0  0  0  0
  1  2  1  0  0  0  0
  2  5  1  0  0  0  0
  3  7  1  6  0  0  0
  3  2  1  0  0  0  0
  3  8  1  0  0  0  0
  6  2  1  0  0  0  0
  8 17  2  0  0  0  0
  8  9  1  0  0  0  0
  9 10  2  0  0  0  0
 10 11  1  0  0  0  0
 10 19  1  0  0  0  0
 11 20  1  0  0  0  0
 12 13  1  0  0  0  0
 12 11  2  0  0  0  0
 13 21  1  0  0  0  0
 14 22  1  0  0  0  0
 14 13  2  0  0  0  0
 15 14  1  0  0  0  0
 16 15  2  0  0  0  0
 16 17  1  0  0  0  0
 17 12  1  0  0  0  0
 18  9  1  0  0  0  0
 23 15  1  0  0  0  0
 24 16  1  0  0  0  0
 25 30  1  0  0  0  0
 26 25  2  0  0  0  0
 26 27  1  0  0  0  0
 27 28  2  0  0  0  0
 28 29  1  0  0  0  0
 29  1  1  0  0  0  0
 30 29  2  0  0  0  0
 31 25  1  0  0  0  0
 32 26  1  0  0  0  0
 33 27  1  0  0  0  0
 33 34  1  0  0  0  0
 34 35  1  0  0  0  0
M  END
>  <minimizedAffinity>
-5.56369162

$$$$

 OpenBabel03252508273D

 35 38  0  0  1  0  0  0  0  0999 V2000
   36.0250   28.8540   39.4640 C   0  0  1  0  0  0  0  0  0  0  0  0
   35.5160   29.8790   40.3860 C   0  0  0  0  0  0  0  0  0  0  0  0
   35.9540   28.4330   40.8470 C   0  0  2  0  0  0  0  0  0  0  0  0
   36.9320   29.3360   38.9510 H   0  0  0  0  0  0  0  0  0  0  0  0
   36.1540   30.6470   40.8730 H   0  0  0  0  0  0  0  0  0  0  0  0
   34.4580   30.1460   40.4180 H   0  0  0  0  0  0  0  0  0  0  0  0
   35.0110   28.1060   41.3610 H   0  0  0  0  0  0  0  0  0  0  0  0
   37.1070   28.2780   41.7430 C   0  0  0  0  0  0  0  0  0  0  0  0
   37.8370   29.2670   42.3330 C   0  0  0  0  0  0  0  0  0  0  0  0
   38.9980   29.0900   43.0660 C   0  0  0  0  0  0  0  0  0  0  0  0
   39.4520   27.7710   43.2080 C   0  0  0  0  0  0  0  0  0  0  0  0
   38.7250   26.7340   42.6190 C   0  0  0  0  0  0  0  0  0  0  0  0
   39.1760   25.4440   42.8400 C   0  0  0  0  0  0  0  0  0  0  0  0
   38.4390   24.3850   42.3330 C   0  0  0  0  0  0  0  0  0  0  0  0
   37.2760   24.6040   41.6220 C   0  0  0  0  0  0  0  0  0  0  0  0
   36.8780   25.9070   41.4320 C   0  0  0  0  0  0  0  0  0  0  0  0
   37.5780   26.9990   41.9090 C   0  0  0  0  0  0  0  0  0  0  0  0
   37.4510   30.2730   42.1980 H   0  0  0  0  0  0  0  0  0  0  0  0
   39.5340   29.9020   43.5090 H   0  0  0  0  0  0  0  0  0  0  0  0
   40.3420   27.6060   43.7630 H   0  0  0  0  0  0  0  0  0  0  0  0
   40.0960   25.3060   43.4060 H   0  0  0  0  0  0  0  0  0  0  0  0
   38.8930   23.4130   42.5660 H   0  0  0  0  0  0  0  0  0  0  0  0
   36.8520   23.6630   41.3180 H   0  0  0  0  0  0  0  0  0  0  0  0
   35.9450   25.8130   40.9520 H   0  0  0  0  0  0  0  0  0  0  0  0
   34.5680   26.3480   37.1710 C   0  0  0  0  0  0  0  0  0  0  0  0
   33.4980   27.0920   36.5590 C   0  0  0  0  0  0  0  0  0  0  0  0
   33.3070   28.4290   36.9670 C   0  0  0  0  0  0  0  0  0  0  0  0
   34.1180   28.9660   37.9040 N   0  0  0  0  0  0  0  0  0  0  0  0
   35.1280   28.2080   38.4580 C   0  0  0  0  0  0  0  0  0  0  0  0
   35.3450   26.9450   38.1030 N   0  0  0  0  0  0  0  0  0  0  0  0
   34.7520   25.3240   36.8890 H   0  0  0  0  0  0  0  0  0  0  0  0
   32.9070   26.5980   35.8300 H   0  0  0  0  0  0  0  0  0  0  0  0
   32.1990   29.1830   36.3270 C   0  0  0  0  0  2  0  0  0  0  0  0
   31.2860   29.7820   37.3560 C   0  0  0  0  0  2  0  0  0  0  0  0
   30.3600   29.1770   37.4260 H   0  0  0  0  0  0  0  0  0  0  0  0
  1  4  1  6  0  0  0
  1  2  1  0  0  0  0
  1  3  1  0  0  0  0
  2  6  1  0  0  0  0
  2  3  1  0  0  0  0
  2  5  1  0  0  0  0
  3  7  1  1  0  0  0
  3  8  1  0  0  0  0
  8 17  2  0  0  0  0
  8  9  1  0  0  0  0
  9 10  2  0  0  0  0
 10 11  1  0  0  0  0
 10 19  1  0  0  0  0
 11 20  1  0  0  0  0
 12 13  1  0  0  0  0
 12 11  2  0  0  0  0
 13 21  1  0  0  0  0
 14 22  1  0  0  0  0
 14 13  2  0  0  0  0
 15 14  1  0  0  0  0
 16 15  2  0  0  0  0
 16 17  1  0  0  0  0
 17 12  1  0  0  0  0
 18  9  1  0  0  0  0
 23 15  1  0  0  0  0
 24 16  1  0  0  0  0
 25 30  1  0  0  0  0
 26 27  1  0  0  0  0
 26 25  2  0  0  0  0
 27 28  2  0  0  0  0
 28 29  1  0  0  0  0
 29  1  1  0  0  0  0
 30 29  2  0  0  0  0
 31 25  1  0  0  0  0
 32 26  1  0  0  0  0
 33 27  1  0  0  0  0
 33 34  1  0  0  0  0
 34 35  1  0  0  0  0
M  END
>  <minimizedAffinity>
-5.54268551

$$$$

 OpenBabel03252508273D

 35 38  0  0  1  0  0  0  0  0999 V2000
   37.4750   30.7460   38.1810 C   0  0  1  0  0  0  0  0  0  0  0  0
   37.2510   32.1490   38.5610 C   0  0  0  0  0  0  0  0  0  0  0  0
   37.0380   30.9340   39.5480 C   0  0  2  0  0  0  0  0  0  0  0  0
   38.5640   30.7030   37.8210 H   0  0  0  0  0  0  0  0  0  0  0  0
   38.0470   32.8210   38.9460 H   0  0  0  0  0  0  0  0  0  0  0  0
   36.3800   32.7040   38.2100 H   0  0  0  0  0  0  0  0  0  0  0  0
   35.9730   31.1230   39.8500 H   0  0  0  0  0  0  0  0  0  0  0  0
   37.8940   30.8070   40.7340 C   0  0  0  0  0  0  0  0  0  0  0  0
   38.9650   31.5810   41.0700 C   0  0  0  0  0  0  0  0  0  0  0  0
   39.8310   31.3540   42.1260 C   0  0  0  0  0  0  0  0  0  0  0  0
   39.5720   30.2230   42.9120 C   0  0  0  0  0  0  0  0  0  0  0  0
   38.4800   29.4100   42.5970 C   0  0  0  0  0  0  0  0  0  0  0  0
   38.2270   28.3410   43.4400 C   0  0  0  0  0  0  0  0  0  0  0  0
   37.1110   27.5550   43.2010 C   0  0  0  0  0  0  0  0  0  0  0  0
   36.2620   27.8270   42.1470 C   0  0  0  0  0  0  0  0  0  0  0  0
   36.5650   28.9010   41.3430 C   0  0  0  0  0  0  0  0  0  0  0  0
   37.6680   29.7120   41.5310 C   0  0  0  0  0  0  0  0  0  0  0  0
   39.1300   32.4470   40.4350 H   0  0  0  0  0  0  0  0  0  0  0  0
   40.6560   31.9950   42.3470 H   0  0  0  0  0  0  0  0  0  0  0  0
   40.2210   30.0220   43.7280 H   0  0  0  0  0  0  0  0  0  0  0  0
   38.9150   28.1550   44.2640 H   0  0  0  0  0  0  0  0  0  0  0  0
   37.0130   26.7380   43.9290 H   0  0  0  0  0  0  0  0  0  0  0  0
   35.4580   27.1110   42.1320 H   0  0  0  0  0  0  0  0  0  0  0  0
   35.7460   28.9540   40.6820 H   0  0  0  0  0  0  0  0  0  0  0  0
   36.1090   29.3670   35.0350 C   0  0  0  0  0  0  0  0  0  0  0  0
   34.8410   28.8420   35.4680 C   0  0  0  0  0  0  0  0  0  0  0  0
   34.5060   28.9670   36.8320 C   0  0  0  0  0  0  0  0  0  0  0  0
   35.3670   29.5680   37.6810 N   0  0  0  0  0  0  0  0  0  0  0  0
   36.5690   30.0550   37.2140 C   0  0  0  0  0  0  0  0  0  0  0  0
   36.9270   29.9580   35.9360 N   0  0  0  0  0  0  0  0  0  0  0  0
   36.4080   29.2950   34.0020 H   0  0  0  0  0  0  0  0  0  0  0  0
   34.2210   28.3850   34.7380 H   0  0  0  0  0  0  0  0  0  0  0  0
   33.1940   28.4190   37.2630 C   0  0  0  0  0  2  0  0  0  0  0  0
   32.0860   29.3980   37.0020 C   0  0  0  0  0  2  0  0  0  0  0  0
   31.7930   29.8870   37.9520 H   0  0  0  0  0  0  0  0  0  0  0  0
  1  4  1  6  0  0  0
  1  2  1  0  0  0  0
  1  3  1  0  0  0  0
  2  5  1  0  0  0  0
  2  3  1  0  0  0  0
  3  7  1  1  0  0  0
  3  8  1  0  0  0  0
  6  2  1  0  0  0  0
  8  9  2  0  0  0  0
  8 17  1  0  0  0  0
  9 10  1  0  0  0  0
 10 19  1  0  0  0  0
 10 11  2  0  0  0  0
 11 20  1  0  0  0  0
 12 11  1  0  0  0  0
 12 13  1  0  0  0  0
 13 21  1  0  0  0  0
 14 13  2  0  0  0  0
 14 22  1  0  0  0  0
 15 14  1  0  0  0  0
 16 17  1  0  0  0  0
 16 15  2  0  0  0  0
 17 12  2  0  0  0  0
 18  9  1  0  0  0  0
 23 15  1  0  0  0  0
 24 16  1  0  0  0  0
 25 26  2  0  0  0  0
 25 30  1  0  0  0  0
 26 27  1  0  0  0  0
 27 33  1  0  0  0  0
 27 28  2  0  0  0  0
 29 28  1  0  0  0  0
 29  1  1  0  0  0  0
 30 29  2  0  0  0  0
 31 25  1  0  0  0  0
 32 26  1  0  0  0  0
 34 33  1  0  0  0  0
 34 35  1  0  0  0  0
M  END
>  <minimizedAffinity>
-5.53364992

$$$$
