
 OpenBabel03252509183D

 35 37  0  0  1  0  0  0  0  0999 V2000
   49.3460   28.1360   45.3980 C   0  0  1  0  0  0  0  0  0  0  0  0
   49.2120   28.5740   46.8160 C   0  0  0  0  0  0  0  0  0  0  0  0
   48.2940   27.7250   47.6500 C   0  0  0  0  0  0  0  0  0  0  0  0
   48.4570   26.2410   47.4050 C   0  0  0  0  0  0  0  0  0  0  0  0
   48.5730   25.8930   45.9440 C   0  0  0  0  0  0  0  0  0  0  0  0
   48.2260   27.1150   45.1090 C   0  0  2  0  0  0  0  0  0  0  0  0
   50.3060   27.5610   45.3010 H   0  0  0  0  0  0  0  0  0  0  0  0
   48.7600   29.6090   46.7910 H   0  0  0  0  0  0  0  0  0  0  0  0
   50.1940   28.6910   47.3440 H   0  0  0  0  0  0  0  0  0  0  0  0
   48.5690   27.9160   48.7140 H   0  0  0  0  0  0  0  0  0  0  0  0
   47.2240   27.9710   47.5320 H   0  0  0  0  0  0  0  0  0  0  0  0
   47.6200   25.7300   47.9010 H   0  0  0  0  0  0  0  0  0  0  0  0
   49.4070   25.9380   47.9290 H   0  0  0  0  0  0  0  0  0  0  0  0
   49.6140   25.6160   45.6590 H   0  0  0  0  0  0  0  0  0  0  0  0
   47.9210   25.0530   45.6540 H   0  0  0  0  0  0  0  0  0  0  0  0
   47.2900   27.5950   45.4560 H   0  0  0  0  0  0  0  0  0  0  0  0
   48.7740   31.4570   43.0760 C   0  0  0  0  0  0  0  0  0  0  0  0
   49.9790   30.8040   42.7770 C   0  0  0  0  0  0  0  0  0  0  0  0
   50.2750   29.6850   43.4780 C   0  0  0  0  0  0  0  0  0  0  0  0
   49.3910   29.2150   44.4660 C   0  0  0  0  0  0  0  0  0  0  0  0
   48.0360   30.4360   44.4090 S   0  0  0  0  0  0  0  0  0  0  0  0
   50.6560   31.1680   42.0200 H   0  0  0  0  0  0  0  0  0  0  0  0
   51.1400   29.0530   43.3950 H   0  0  0  0  0  0  0  0  0  0  0  0
   47.9940   34.1750   40.6520 C   0  0  0  0  0  0  0  0  0  0  0  0
   47.2690   35.0470   41.5090 C   0  0  0  0  0  0  0  0  0  0  0  0
   47.0860   34.6760   42.8450 C   0  0  0  0  0  0  0  0  0  0  0  0
   47.6180   33.4840   43.2530 N   0  0  0  0  0  0  0  0  0  0  0  0
   48.3000   32.6810   42.4110 C   0  0  0  0  0  0  0  0  0  0  0  0
   48.4940   33.0170   41.1040 N   0  0  0  0  0  0  0  0  0  0  0  0
   48.1520   34.4350   39.6120 H   0  0  0  0  0  0  0  0  0  0  0  0
   46.8750   35.9660   41.1400 H   0  0  0  0  0  0  0  0  0  0  0  0
   46.5440   35.3040   43.5370 H   0  0  0  0  0  0  0  0  0  0  0  0
   48.1450   26.7700   43.6430 C   0  0  0  0  0  2  0  0  0  0  0  0
   49.1700   25.6870   43.3600 C   0  0  0  0  0  2  0  0  0  0  0  0
   49.5190   25.1980   44.3180 H   0  0  0  0  0  0  0  0  0  0  0  0
  1  7  1  6  0  0  0
  1  2  1  0  0  0  0
  2  9  1  0  0  0  0
  2  3  1  0  0  0  0
  3 10  1  0  0  0  0
  4  3  1  0  0  0  0
  4 12  1  0  0  0  0
  4 13  1  0  0  0  0
  5  4  1  0  0  0  0
  6  1  1  0  0  0  0
  6 16  1  1  0  0  0
  6  5  1  0  0  0  0
  8  2  1  0  0  0  0
 11  3  1  0  0  0  0
 14  5  1  0  0  0  0
 15  5  1  0  0  0  0
 17 21  1  0  0  0  0
 18 17  2  0  0  0  0
 18 19  1  0  0  0  0
 19 20  2  0  0  0  0
 20  1  1  0  0  0  0
 21 20  1  0  0  0  0
 22 18  1  0  0  0  0
 23 19  1  0  0  0  0
 24 29  2  0  0  0  0
 24 25  1  0  0  0  0
 25 26  2  0  0  0  0
 26 27  1  0  0  0  0
 26 32  1  0  0  0  0
 28 17  1  0  0  0  0
 28 27  2  0  0  0  0
 29 28  1  0  0  0  0
 30 24  1  0  0  0  0
 31 25  1  0  0  0  0
 33  6  1  0  0  0  0
 34 33  1  0  0  0  0
 34 35  1  0  0  0  0
M  END
>  <minimizedAffinity>
-2.4460628

>  <minimizedRMSD>
5.41358471

$$$$
