
 OpenBabel03252508223D

 28 29  0  0  0  0  0  0  0  0999 V2000
   35.7340   30.1850   40.5180 C   0  0  0  0  0  0  0  0  0  0  0  0
   34.7150   30.6340   40.5480 H   0  0  0  0  0  0  0  0  0  0  0  0
   36.3510   30.7230   41.2680 H   0  0  0  0  0  0  0  0  0  0  0  0
   36.2560   30.3260   39.1500 C   0  0  0  0  0  0  0  0  0  0  0  0
   35.9510   29.4900   38.0990 C   0  0  0  0  0  0  0  0  0  0  0  0
   36.4320   29.6160   36.8230 C   0  0  0  0  0  0  0  0  0  0  0  0
   37.2980   30.6810   36.5950 C   0  0  0  0  0  0  0  0  0  0  0  0
   37.6310   31.5400   37.6180 C   0  0  0  0  0  0  0  0  0  0  0  0
   37.1290   31.3900   38.8960 C   0  0  0  0  0  0  0  0  0  0  0  0
   35.2730   28.6710   38.3130 H   0  0  0  0  0  0  0  0  0  0  0  0
   36.1600   28.9340   36.0410 H   0  0  0  0  0  0  0  0  0  0  0  0
   37.6740   30.7680   35.5730 H   0  0  0  0  0  0  0  0  0  0  0  0
   38.3110   32.3480   37.3680 H   0  0  0  0  0  0  0  0  0  0  0  0
   37.4910   32.3160   39.9840 C   0  0  0  0  0  2  0  0  0  0  0  0
   37.3210   33.7520   39.5730 C   0  0  0  0  0  2  0  0  0  0  0  0
   38.1560   34.0900   38.8960 H   0  0  0  0  0  0  0  0  0  0  0  0
   35.5560   28.7180   40.8820 C   0  0  0  0  0  0  0  0  0  0  0  0
   35.4750   28.0810   39.9870 H   0  0  0  0  0  0  0  0  0  0  0  0
   34.6250   28.6660   41.5020 H   0  0  0  0  0  0  0  0  0  0  0  0
   38.0650   26.6220   42.7490 C   0  0  0  0  0  0  0  0  0  0  0  0
   37.0060   26.9940   41.8880 C   0  0  0  0  0  0  0  0  0  0  0  0
   36.6630   28.3320   41.7820 C   0  0  0  0  0  0  0  0  0  0  0  0
   37.3900   29.2160   42.5320 N   0  0  0  0  0  0  0  0  0  0  0  0
   38.3840   28.8510   43.3370 C   0  0  0  0  0  0  0  0  0  0  0  0
   38.7310   27.5540   43.4530 N   0  0  0  0  0  0  0  0  0  0  0  0
   38.3770   25.6120   42.8750 H   0  0  0  0  0  0  0  0  0  0  0  0
   36.5070   26.2030   41.3480 H   0  0  0  0  0  0  0  0  0  0  0  0
   38.9090   29.6010   43.8940 H   0  0  0  0  0  0  0  0  0  0  0  0
  1  2  1  0  0  0  0
  1 17  1  0  0  0  0
  1  3  1  0  0  0  0
  4  1  1  0  0  0  0
  5 10  1  0  0  0  0
  5  4  2  0  0  0  0
  6  5  1  0  0  0  0
  7  6  2  0  0  0  0
  7  8  1  0  0  0  0
  8  9  2  0  0  0  0
  9  4  1  0  0  0  0
  9 14  1  0  0  0  0
 11  6  1  0  0  0  0
 12  7  1  0  0  0  0
 13  8  1  0  0  0  0
 15 14  1  0  0  0  0
 16 15  1  0  0  0  0
 17 19  1  0  0  0  0
 17 22  1  0  0  0  0
 18 17  1  0  0  0  0
 20 26  1  0  0  0  0
 20 25  1  0  0  0  0
 21 20  2  0  0  0  0
 22 21  1  0  0  0  0
 22 23  2  0  0  0  0
 23 24  1  0  0  0  0
 24 25  2  0  0  0  0
 24 28  1  0  0  0  0
 27 21  1  0  0  0  0
M  END
>  <minimizedAffinity>
-4.844594

$$$$

 OpenBabel03252508223D

 28 29  0  0  0  0  0  0  0  0999 V2000
   35.9950   28.0830   40.1580 C   0  0  0  0  0  0  0  0  0  0  0  0
   35.1320   27.3810   40.2200 H   0  0  0  0  0  0  0  0  0  0  0  0
   36.5590   27.8290   39.2370 H   0  0  0  0  0  0  0  0  0  0  0  0
   36.8010   27.9260   41.3780 C   0  0  0  0  0  0  0  0  0  0  0  0
   37.0980   28.9370   42.2650 C   0  0  0  0  0  0  0  0  0  0  0  0
   37.8460   28.7980   43.4030 C   0  0  0  0  0  0  0  0  0  0  0  0
   38.3360   27.5220   43.6630 C   0  0  0  0  0  0  0  0  0  0  0  0
   38.0640   26.4820   42.8020 C   0  0  0  0  0  0  0  0  0  0  0  0
   37.3050   26.6510   41.6620 C   0  0  0  0  0  0  0  0  0  0  0  0
   36.6990   29.9190   42.0300 H   0  0  0  0  0  0  0  0  0  0  0  0
   38.0470   29.6220   44.0580 H   0  0  0  0  0  0  0  0  0  0  0  0
   38.9330   27.4250   44.5730 H   0  0  0  0  0  0  0  0  0  0  0  0
   38.4790   25.5140   43.0680 H   0  0  0  0  0  0  0  0  0  0  0  0
   37.0190   25.5310   40.7480 C   0  0  0  0  0  2  0  0  0  0  0  0
   36.7350   24.2590   41.4970 C   0  0  0  0  0  2  0  0  0  0  0  0
   37.6810   23.7970   41.9000 H   0  0  0  0  0  0  0  0  0  0  0  0
   35.3930   29.4790   40.0830 C   0  0  0  0  0  0  0  0  0  0  0  0
   35.2920   29.9370   41.0800 H   0  0  0  0  0  0  0  0  0  0  0  0
   34.3940   29.3580   39.5910 H   0  0  0  0  0  0  0  0  0  0  0  0
   37.2520   30.5400   36.9850 C   0  0  0  0  0  0  0  0  0  0  0  0
   36.4700   29.7750   37.8830 C   0  0  0  0  0  0  0  0  0  0  0  0
   36.2100   30.2800   39.1470 C   0  0  0  0  0  0  0  0  0  0  0  0
   36.7380   31.5070   39.4410 N   0  0  0  0  0  0  0  0  0  0  0  0
   37.4710   32.2150   38.5860 C   0  0  0  0  0  0  0  0  0  0  0  0
   37.7340   31.7390   37.3530 N   0  0  0  0  0  0  0  0  0  0  0  0
   37.4870   30.2090   36.0010 H   0  0  0  0  0  0  0  0  0  0  0  0
   36.1090   28.8190   37.5330 H   0  0  0  0  0  0  0  0  0  0  0  0
   37.8510   33.1700   38.8880 H   0  0  0  0  0  0  0  0  0  0  0  0
  1  2  1  0  0  0  0
  1  4  1  0  0  0  0
  3  1  1  0  0  0  0
  4  9  2  0  0  0  0
  4  5  1  0  0  0  0
  5  6  2  0  0  0  0
  6  7  1  0  0  0  0
  6 11  1  0  0  0  0
  7 12  1  0  0  0  0
  8 13  1  0  0  0  0
  8  7  2  0  0  0  0
  9  8  1  0  0  0  0
 10  5  1  0  0  0  0
 14 15  1  0  0  0  0
 14  9  1  0  0  0  0
 15 16  1  0  0  0  0
 17  1  1  0  0  0  0
 17 18  1  0  0  0  0
 19 17  1  0  0  0  0
 20 25  2  0  0  0  0
 20 21  1  0  0  0  0
 21 22  2  0  0  0  0
 22 23  1  0  0  0  0
 22 17  1  0  0  0  0
 24 28  1  0  0  0  0
 24 23  2  0  0  0  0
 25 24  1  0  0  0  0
 26 20  1  0  0  0  0
 27 21  1  0  0  0  0
M  END
>  <minimizedAffinity>
-4.76460743

$$$$

 OpenBabel03252508223D

 28 29  0  0  0  0  0  0  0  0999 V2000
   37.0410   27.7800   42.9530 C   0  0  0  0  0  0  0  0  0  0  0  0
   37.8890   28.4530   43.2160 H   0  0  0  0  0  0  0  0  0  0  0  0
   36.3670   27.7420   43.8350 H   0  0  0  0  0  0  0  0  0  0  0  0
   37.5940   26.4610   42.6060 C   0  0  0  0  0  0  0  0  0  0  0  0
   36.9080   25.4660   41.9470 C   0  0  0  0  0  0  0  0  0  0  0  0
   37.4170   24.2380   41.6190 C   0  0  0  0  0  0  0  0  0  0  0  0
   38.7360   24.0000   41.9940 C   0  0  0  0  0  0  0  0  0  0  0  0
   39.4580   24.9680   42.6560 C   0  0  0  0  0  0  0  0  0  0  0  0
   38.9200   26.1990   42.9720 C   0  0  0  0  0  0  0  0  0  0  0  0
   35.8830   25.6860   41.6700 H   0  0  0  0  0  0  0  0  0  0  0  0
   36.8360   23.4980   41.1050 H   0  0  0  0  0  0  0  0  0  0  0  0
   39.1290   23.0160   41.7270 H   0  0  0  0  0  0  0  0  0  0  0  0
   40.4810   24.7130   42.9160 H   0  0  0  0  0  0  0  0  0  0  0  0
   39.7010   27.2280   43.6800 C   0  0  0  0  0  2  0  0  0  0  0  0
   40.9080   27.6530   42.8880 C   0  0  0  0  0  2  0  0  0  0  0  0
   41.7260   26.8800   42.9360 H   0  0  0  0  0  0  0  0  0  0  0  0
   36.3590   28.4150   41.7500 C   0  0  0  0  0  0  0  0  0  0  0  0
   35.2770   28.5420   41.9110 H   0  0  0  0  0  0  0  0  0  0  0  0
   36.5620   27.7320   40.8860 H   0  0  0  0  0  0  0  0  0  0  0  0
   37.0450   31.8910   40.4790 C   0  0  0  0  0  0  0  0  0  0  0  0
   36.3750   30.6810   40.7760 C   0  0  0  0  0  0  0  0  0  0  0  0
   37.0610   29.6780   41.4410 C   0  0  0  0  0  0  0  0  0  0  0  0
   38.3640   29.9360   41.7690 N   0  0  0  0  0  0  0  0  0  0  0  0
   38.9800   31.0790   41.4830 C   0  0  0  0  0  0  0  0  0  0  0  0
   38.3290   32.0660   40.8370 N   0  0  0  0  0  0  0  0  0  0  0  0
   36.5750   32.7000   39.9710 H   0  0  0  0  0  0  0  0  0  0  0  0
   35.3450   30.5980   40.4640 H   0  0  0  0  0  0  0  0  0  0  0  0
   40.0040   31.2080   41.7730 H   0  0  0  0  0  0  0  0  0  0  0  0
  1  2  1  0  0  0  0
  1  3  1  0  0  0  0
  4  1  1  0  0  0  0
  4  9  1  0  0  0  0
  5  4  2  0  0  0  0
  6  5  1  0  0  0  0
  6  7  2  0  0  0  0
  7  8  1  0  0  0  0
  8 13  1  0  0  0  0
  8  9  2  0  0  0  0
  9 14  1  0  0  0  0
 10  5  1  0  0  0  0
 11  6  1  0  0  0  0
 12  7  1  0  0  0  0
 15 16  1  0  0  0  0
 15 14  1  0  0  0  0
 17 18  1  0  0  0  0
 17  1  1  0  0  0  0
 19 17  1  0  0  0  0
 20 21  2  0  0  0  0
 20 25  1  0  0  0  0
 21 22  1  0  0  0  0
 22 17  1  0  0  0  0
 22 23  2  0  0  0  0
 24 23  1  0  0  0  0
 24 28  1  0  0  0  0
 25 24  2  0  0  0  0
 26 20  1  0  0  0  0
 27 21  1  0  0  0  0
M  END
>  <minimizedAffinity>
-4.73304176

$$$$

 OpenBabel03252508223D

 28 29  0  0  0  0  0  0  0  0999 V2000
   37.2900   27.4410   43.3080 C   0  0  0  0  0  0  0  0  0  0  0  0
   36.8560   27.3000   44.3240 H   0  0  0  0  0  0  0  0  0  0  0  0
   36.5060   27.1580   42.5740 H   0  0  0  0  0  0  0  0  0  0  0  0
   38.4930   26.6010   43.2040 C   0  0  0  0  0  0  0  0  0  0  0  0
   39.7400   26.9460   43.6730 C   0  0  0  0  0  0  0  0  0  0  0  0
   40.8640   26.1680   43.5820 C   0  0  0  0  0  0  0  0  0  0  0  0
   40.7070   24.9340   42.9580 C   0  0  0  0  0  0  0  0  0  0  0  0
   39.4760   24.5500   42.4730 C   0  0  0  0  0  0  0  0  0  0  0  0
   38.3600   25.3540   42.5810 C   0  0  0  0  0  0  0  0  0  0  0  0
   39.8260   27.9150   44.1540 H   0  0  0  0  0  0  0  0  0  0  0  0
   41.8120   26.4890   43.9650 H   0  0  0  0  0  0  0  0  0  0  0  0
   41.6110   24.3250   42.8900 H   0  0  0  0  0  0  0  0  0  0  0  0
   39.4280   23.5740   41.9990 H   0  0  0  0  0  0  0  0  0  0  0  0
   37.0480   24.9330   42.0590 C   0  0  0  0  0  2  0  0  0  0  0  0
   37.0870   24.7030   40.5740 C   0  0  0  0  0  2  0  0  0  0  0  0
   37.0930   25.6770   40.0050 H   0  0  0  0  0  0  0  0  0  0  0  0
   37.6500   28.9160   43.2080 C   0  0  0  0  0  0  0  0  0  0  0  0
   38.7340   29.0820   43.3070 H   0  0  0  0  0  0  0  0  0  0  0  0
   37.0860   29.4270   44.0300 H   0  0  0  0  0  0  0  0  0  0  0  0
   35.5360   29.2310   40.1080 C   0  0  0  0  0  0  0  0  0  0  0  0
   36.0760   28.7320   41.3170 C   0  0  0  0  0  0  0  0  0  0  0  0
   37.0870   29.4400   41.9460 C   0  0  0  0  0  0  0  0  0  0  0  0
   37.4980   30.5960   41.3400 N   0  0  0  0  0  0  0  0  0  0  0  0
   36.9810   31.0530   40.2040 C   0  0  0  0  0  0  0  0  0  0  0  0
   35.9970   30.3770   39.5780 N   0  0  0  0  0  0  0  0  0  0  0  0
   34.7580   28.7350   39.5770 H   0  0  0  0  0  0  0  0  0  0  0  0
   35.6670   27.8070   41.6950 H   0  0  0  0  0  0  0  0  0  0  0  0
   37.3550   31.9680   39.7890 H   0  0  0  0  0  0  0  0  0  0  0  0
  1  2  1  0  0  0  0
  3  1  1  0  0  0  0
  4  1  1  0  0  0  0
  4  5  1  0  0  0  0
  5 10  1  0  0  0  0
  6  5  2  0  0  0  0
  6 11  1  0  0  0  0
  7  6  1  0  0  0  0
  8  9  1  0  0  0  0
  8  7  2  0  0  0  0
  9  4  2  0  0  0  0
 12  7  1  0  0  0  0
 13  8  1  0  0  0  0
 14  9  1  0  0  0  0
 15 14  1  0  0  0  0
 16 15  1  0  0  0  0
 17 18  1  0  0  0  0
 17  1  1  0  0  0  0
 17 19  1  0  0  0  0
 20 21  1  0  0  0  0
 21 27  1  0  0  0  0
 21 22  2  0  0  0  0
 22 17  1  0  0  0  0
 23 22  1  0  0  0  0
 24 23  2  0  0  0  0
 25 20  2  0  0  0  0
 25 24  1  0  0  0  0
 26 20  1  0  0  0  0
 28 24  1  0  0  0  0
M  END
>  <minimizedAffinity>
-4.72982311

$$$$

 OpenBabel03252508223D

 28 29  0  0  0  0  0  0  0  0999 V2000
   37.8740   29.5780   42.4190 C   0  0  0  0  0  0  0  0  0  0  0  0
   38.1090   30.5810   42.8440 H   0  0  0  0  0  0  0  0  0  0  0  0
   36.8740   29.2860   42.8010 H   0  0  0  0  0  0  0  0  0  0  0  0
   38.9340   28.6460   42.8360 C   0  0  0  0  0  0  0  0  0  0  0  0
   40.2780   28.9450   42.8770 C   0  0  0  0  0  0  0  0  0  0  0  0
   41.2690   28.0830   43.2650 C   0  0  0  0  0  0  0  0  0  0  0  0
   40.8600   26.8080   43.6440 C   0  0  0  0  0  0  0  0  0  0  0  0
   39.5260   26.4670   43.6170 C   0  0  0  0  0  0  0  0  0  0  0  0
   38.5470   27.3570   43.2220 C   0  0  0  0  0  0  0  0  0  0  0  0
   40.5600   29.9480   42.5750 H   0  0  0  0  0  0  0  0  0  0  0  0
   42.3010   28.3700   43.2770 H   0  0  0  0  0  0  0  0  0  0  0  0
   41.6610   26.1310   43.9500 H   0  0  0  0  0  0  0  0  0  0  0  0
   39.2800   25.4550   43.9260 H   0  0  0  0  0  0  0  0  0  0  0  0
   37.1220   26.9820   43.1980 C   0  0  0  0  0  2  0  0  0  0  0  0
   36.8800   25.7710   42.3410 C   0  0  0  0  0  2  0  0  0  0  0  0
   36.9160   26.0270   41.2440 H   0  0  0  0  0  0  0  0  0  0  0  0
   37.8720   29.7530   40.9080 C   0  0  0  0  0  0  0  0  0  0  0  0
   36.9890   29.2870   40.4420 H   0  0  0  0  0  0  0  0  0  0  0  0
   38.8190   29.2810   40.5420 H   0  0  0  0  0  0  0  0  0  0  0  0
   37.2380   33.1600   39.4370 C   0  0  0  0  0  0  0  0  0  0  0  0
   37.1180   31.7790   39.7190 C   0  0  0  0  0  0  0  0  0  0  0  0
   37.9990   31.1960   40.6140 C   0  0  0  0  0  0  0  0  0  0  0  0
   38.9420   32.0150   41.1730 N   0  0  0  0  0  0  0  0  0  0  0  0
   39.0420   33.3130   40.8970 C   0  0  0  0  0  0  0  0  0  0  0  0
   38.1940   33.8970   40.0290 N   0  0  0  0  0  0  0  0  0  0  0  0
   36.5920   33.6680   38.7590 H   0  0  0  0  0  0  0  0  0  0  0  0
   36.3320   31.2390   39.2140 H   0  0  0  0  0  0  0  0  0  0  0  0
   39.8080   33.8910   41.3750 H   0  0  0  0  0  0  0  0  0  0  0  0
  1  3  1  0  0  0  0
  1  4  1  0  0  0  0
  1  2  1  0  0  0  0
  4  5  2  0  0  0  0
  4  9  1  0  0  0  0
  5  6  1  0  0  0  0
  6 11  1  0  0  0  0
  6  7  2  0  0  0  0
  7 12  1  0  0  0  0
  8  7  1  0  0  0  0
  8 13  1  0  0  0  0
  9  8  2  0  0  0  0
 10  5  1  0  0  0  0
 14  9  1  0  0  0  0
 15 14  1  0  0  0  0
 16 15  1  0  0  0  0
 17  1  1  0  0  0  0
 18 17  1  0  0  0  0
 19 17  1  0  0  0  0
 20 21  2  0  0  0  0
 20 25  1  0  0  0  0
 21 22  1  0  0  0  0
 22 17  1  0  0  0  0
 22 23  2  0  0  0  0
 24 23  1  0  0  0  0
 24 28  1  0  0  0  0
 25 24  2  0  0  0  0
 26 20  1  0  0  0  0
 27 21  1  0  0  0  0
M  END
>  <minimizedAffinity>
-4.68031502

$$$$

 OpenBabel03252508223D

 28 29  0  0  0  0  0  0  0  0999 V2000
   39.0050   29.2100   42.8570 C   0  0  0  0  0  0  0  0  0  0  0  0
   39.4640   29.7930   43.6890 H   0  0  0  0  0  0  0  0  0  0  0  0
   39.8260   28.6600   42.3510 H   0  0  0  0  0  0  0  0  0  0  0  0
   38.3180   30.1540   41.9620 C   0  0  0  0  0  0  0  0  0  0  0  0
   37.0030   30.0530   41.5660 C   0  0  0  0  0  0  0  0  0  0  0  0
   36.3570   30.9290   40.7350 C   0  0  0  0  0  0  0  0  0  0  0  0
   37.1130   31.9980   40.2630 C   0  0  0  0  0  0  0  0  0  0  0  0
   38.4320   32.1370   40.6330 C   0  0  0  0  0  0  0  0  0  0  0  0
   39.0580   31.2390   41.4750 C   0  0  0  0  0  0  0  0  0  0  0  0
   36.4450   29.2070   41.9540 H   0  0  0  0  0  0  0  0  0  0  0  0
   35.3290   30.8000   40.4600 H   0  0  0  0  0  0  0  0  0  0  0  0
   36.5850   32.6880   39.6000 H   0  0  0  0  0  0  0  0  0  0  0  0
   38.9590   32.9950   40.2270 H   0  0  0  0  0  0  0  0  0  0  0  0
   40.4700   31.3960   41.8650 C   0  0  0  0  0  2  0  0  0  0  0  0
   41.2250   32.2550   40.8880 C   0  0  0  0  0  2  0  0  0  0  0  0
   41.4630   31.6920   39.9410 H   0  0  0  0  0  0  0  0  0  0  0  0
   38.0100   28.2610   43.5100 C   0  0  0  0  0  0  0  0  0  0  0  0
   36.9730   28.4910   43.2190 H   0  0  0  0  0  0  0  0  0  0  0  0
   38.1560   28.3750   44.6140 H   0  0  0  0  0  0  0  0  0  0  0  0
   40.0180   25.0790   43.3730 C   0  0  0  0  0  0  0  0  0  0  0  0
   39.6240   26.4030   43.6790 C   0  0  0  0  0  0  0  0  0  0  0  0
   38.4190   26.8780   43.1890 C   0  0  0  0  0  0  0  0  0  0  0  0
   37.6800   26.0130   42.4280 N   0  0  0  0  0  0  0  0  0  0  0  0
   38.0630   24.7700   42.1490 C   0  0  0  0  0  0  0  0  0  0  0  0
   39.2320   24.2920   42.6180 N   0  0  0  0  0  0  0  0  0  0  0  0
   40.9310   24.6550   43.7200 H   0  0  0  0  0  0  0  0  0  0  0  0
   40.2950   26.9890   44.2900 H   0  0  0  0  0  0  0  0  0  0  0  0
   37.4300   24.1510   41.5460 H   0  0  0  0  0  0  0  0  0  0  0  0
  1 17  1  0  0  0  0
  1  2  1  0  0  0  0
  3  1  1  0  0  0  0
  4  1  1  0  0  0  0
  5 10  1  0  0  0  0
  5  4  1  0  0  0  0
  6  5  2  0  0  0  0
  7  8  2  0  0  0  0
  7  6  1  0  0  0  0
  8  9  1  0  0  0  0
  9 14  1  0  0  0  0
  9  4  2  0  0  0  0
 11  6  1  0  0  0  0
 12  7  1  0  0  0  0
 13  8  1  0  0  0  0
 15 14  1  0  0  0  0
 16 15  1  0  0  0  0
 17 19  1  0  0  0  0
 18 17  1  0  0  0  0
 20 21  1  0  0  0  0
 20 26  1  0  0  0  0
 21 27  1  0  0  0  0
 22 17  1  0  0  0  0
 22 21  2  0  0  0  0
 23 22  1  0  0  0  0
 24 23  2  0  0  0  0
 24 25  1  0  0  0  0
 25 20  2  0  0  0  0
 28 24  1  0  0  0  0
M  END
>  <minimizedAffinity>
-4.52273989

$$$$

 OpenBabel03252508223D

 28 29  0  0  0  0  0  0  0  0999 V2000
   36.1570   28.1450   41.7260 C   0  0  0  0  0  0  0  0  0  0  0  0
   36.3600   29.1570   42.1450 H   0  0  0  0  0  0  0  0  0  0  0  0
   35.1570   27.8320   42.0920 H   0  0  0  0  0  0  0  0  0  0  0  0
   37.2310   27.2430   42.1710 C   0  0  0  0  0  0  0  0  0  0  0  0
   37.3080   25.9000   41.8750 C   0  0  0  0  0  0  0  0  0  0  0  0
   38.3050   25.0550   42.2850 C   0  0  0  0  0  0  0  0  0  0  0  0
   39.3090   25.6220   43.0630 C   0  0  0  0  0  0  0  0  0  0  0  0
   39.2710   26.9610   43.3830 C   0  0  0  0  0  0  0  0  0  0  0  0
   38.2540   27.7910   42.9550 C   0  0  0  0  0  0  0  0  0  0  0  0
   36.5080   25.4920   41.2670 H   0  0  0  0  0  0  0  0  0  0  0  0
   38.3130   24.0150   42.0250 H   0  0  0  0  0  0  0  0  0  0  0  0
   40.0970   24.9370   43.3840 H   0  0  0  0  0  0  0  0  0  0  0  0
   40.0880   27.3350   43.9930 H   0  0  0  0  0  0  0  0  0  0  0  0
   38.2220   29.2220   43.3020 C   0  0  0  0  0  2  0  0  0  0  0  0
   39.3360   29.9820   42.6360 C   0  0  0  0  0  2  0  0  0  0  0  0
   40.3250   29.7950   43.1430 H   0  0  0  0  0  0  0  0  0  0  0  0
   36.1790   28.3070   40.2130 C   0  0  0  0  0  0  0  0  0  0  0  0
   35.1670   28.2560   39.7800 H   0  0  0  0  0  0  0  0  0  0  0  0
   36.8270   27.4800   39.8250 H   0  0  0  0  0  0  0  0  0  0  0  0
   37.0710   31.9620   40.0790 C   0  0  0  0  0  0  0  0  0  0  0  0
   36.3900   30.7590   40.3800 C   0  0  0  0  0  0  0  0  0  0  0  0
   36.8930   29.5620   39.8970 C   0  0  0  0  0  0  0  0  0  0  0  0
   38.0360   29.6300   39.1490 N   0  0  0  0  0  0  0  0  0  0  0  0
   38.6660   30.7690   38.8750 C   0  0  0  0  0  0  0  0  0  0  0  0
   38.1910   31.9430   39.3360 N   0  0  0  0  0  0  0  0  0  0  0  0
   36.7370   32.9140   40.4190 H   0  0  0  0  0  0  0  0  0  0  0  0
   35.4960   30.8350   40.9800 H   0  0  0  0  0  0  0  0  0  0  0  0
   39.5580   30.7440   38.2820 H   0  0  0  0  0  0  0  0  0  0  0  0
  1  3  1  0  0  0  0
  1  2  1  0  0  0  0
  1  4  1  0  0  0  0
  4  9  1  0  0  0  0
  5  4  2  0  0  0  0
  5  6  1  0  0  0  0
  6  7  2  0  0  0  0
  7  8  1  0  0  0  0
  7 12  1  0  0  0  0
  8 13  1  0  0  0  0
  9 14  1  0  0  0  0
  9  8  2  0  0  0  0
 10  5  1  0  0  0  0
 11  6  1  0  0  0  0
 15 16  1  0  0  0  0
 15 14  1  0  0  0  0
 17  1  1  0  0  0  0
 18 17  1  0  0  0  0
 19 17  1  0  0  0  0
 20 21  1  0  0  0  0
 20 26  1  0  0  0  0
 21 27  1  0  0  0  0
 22 17  1  0  0  0  0
 22 21  2  0  0  0  0
 23 22  1  0  0  0  0
 24 23  2  0  0  0  0
 24 25  1  0  0  0  0
 25 20  2  0  0  0  0
 28 24  1  0  0  0  0
M  END
>  <minimizedAffinity>
-4.48302317

$$$$

 OpenBabel03252508223D

 28 29  0  0  0  0  0  0  0  0999 V2000
   38.4840   29.3890   43.1250 C   0  0  0  0  0  0  0  0  0  0  0  0
   38.2680   28.4340   43.6570 H   0  0  0  0  0  0  0  0  0  0  0  0
   38.4250   30.2040   43.8760 H   0  0  0  0  0  0  0  0  0  0  0  0
   37.4970   29.5420   42.0440 C   0  0  0  0  0  0  0  0  0  0  0  0
   37.4070   30.6300   41.2050 C   0  0  0  0  0  0  0  0  0  0  0  0
   36.4920   30.7780   40.1970 C   0  0  0  0  0  0  0  0  0  0  0  0
   35.5900   29.7330   40.0270 C   0  0  0  0  0  0  0  0  0  0  0  0
   35.6440   28.6260   40.8450 C   0  0  0  0  0  0  0  0  0  0  0  0
   36.5790   28.5020   41.8540 C   0  0  0  0  0  0  0  0  0  0  0  0
   38.1260   31.4260   41.3660 H   0  0  0  0  0  0  0  0  0  0  0  0
   36.4680   31.6500   39.5730 H   0  0  0  0  0  0  0  0  0  0  0  0
   34.8650   29.8650   39.2200 H   0  0  0  0  0  0  0  0  0  0  0  0
   34.9090   27.8490   40.6550 H   0  0  0  0  0  0  0  0  0  0  0  0
   36.6280   27.3130   42.7230 C   0  0  0  0  0  2  0  0  0  0  0  0
   37.0510   26.0860   41.9640 C   0  0  0  0  0  2  0  0  0  0  0  0
   36.2130   25.6860   41.3250 H   0  0  0  0  0  0  0  0  0  0  0  0
   39.8880   29.2440   42.5580 C   0  0  0  0  0  0  0  0  0  0  0  0
   40.6230   29.8380   43.1240 H   0  0  0  0  0  0  0  0  0  0  0  0
   39.8270   29.5850   41.4930 H   0  0  0  0  0  0  0  0  0  0  0  0
   40.5310   25.6930   43.6290 C   0  0  0  0  0  0  0  0  0  0  0  0
   40.2210   27.0720   43.6790 C   0  0  0  0  0  0  0  0  0  0  0  0
   40.2130   27.8030   42.5030 C   0  0  0  0  0  0  0  0  0  0  0  0
   40.5130   27.1240   41.3540 N   0  0  0  0  0  0  0  0  0  0  0  0
   40.8030   25.8260   41.3220 C   0  0  0  0  0  0  0  0  0  0  0  0
   40.8150   25.1000   42.4570 N   0  0  0  0  0  0  0  0  0  0  0  0
   40.5540   25.0750   44.4970 H   0  0  0  0  0  0  0  0  0  0  0  0
   40.0010   27.4940   44.6490 H   0  0  0  0  0  0  0  0  0  0  0  0
   41.0270   25.3630   40.3820 H   0  0  0  0  0  0  0  0  0  0  0  0
  1  2  1  0  0  0  0
  1  3  1  0  0  0  0
  4  1  1  0  0  0  0
  5 10  1  0  0  0  0
  5  4  2  0  0  0  0
  6  5  1  0  0  0  0
  7  6  2  0  0  0  0
  7  8  1  0  0  0  0
  8  9  2  0  0  0  0
  9  4  1  0  0  0  0
  9 14  1  0  0  0  0
 11  6  1  0  0  0  0
 12  7  1  0  0  0  0
 13  8  1  0  0  0  0
 15 14  1  0  0  0  0
 16 15  1  0  0  0  0
 17 18  1  0  0  0  0
 17  1  1  0  0  0  0
 19 17  1  0  0  0  0
 20 21  1  0  0  0  0
 20 26  1  0  0  0  0
 21 27  1  0  0  0  0
 22 17  1  0  0  0  0
 22 21  2  0  0  0  0
 23 22  1  0  0  0  0
 24 23  2  0  0  0  0
 24 25  1  0  0  0  0
 25 20  2  0  0  0  0
 28 24  1  0  0  0  0
M  END
>  <minimizedAffinity>
-4.46052074

$$$$

 OpenBabel03252508223D

 28 29  0  0  0  0  0  0  0  0999 V2000
   39.5520   26.1220   43.6800 C   0  0  0  0  0  0  0  0  0  0  0  0
   38.4670   25.9420   43.8600 H   0  0  0  0  0  0  0  0  0  0  0  0
   40.0860   25.8710   44.6190 H   0  0  0  0  0  0  0  0  0  0  0  0
   39.7240   27.5300   43.2890 C   0  0  0  0  0  0  0  0  0  0  0  0
   40.9180   28.1070   42.9190 C   0  0  0  0  0  0  0  0  0  0  0  0
   41.0840   29.4160   42.5530 C   0  0  0  0  0  0  0  0  0  0  0  0
   39.9400   30.2070   42.5640 C   0  0  0  0  0  0  0  0  0  0  0  0
   38.7250   29.6710   42.9290 C   0  0  0  0  0  0  0  0  0  0  0  0
   38.5860   28.3460   43.2920 C   0  0  0  0  0  0  0  0  0  0  0  0
   41.7890   27.4610   42.9220 H   0  0  0  0  0  0  0  0  0  0  0  0
   42.0400   29.8130   42.2740 H   0  0  0  0  0  0  0  0  0  0  0  0
   40.0880   31.2490   42.2720 H   0  0  0  0  0  0  0  0  0  0  0  0
   37.8750   30.3460   42.9150 H   0  0  0  0  0  0  0  0  0  0  0  0
   37.2810   27.7810   43.6800 C   0  0  0  0  0  2  0  0  0  0  0  0
   36.3280   27.7320   42.5170 C   0  0  0  0  0  2  0  0  0  0  0  0
   35.9100   28.7520   42.2820 H   0  0  0  0  0  0  0  0  0  0  0  0
   39.9470   25.1920   42.5410 C   0  0  0  0  0  0  0  0  0  0  0  0
   40.3360   24.2310   42.9130 H   0  0  0  0  0  0  0  0  0  0  0  0
   40.7230   25.7420   41.9510 H   0  0  0  0  0  0  0  0  0  0  0  0
   36.5850   24.1510   41.2050 C   0  0  0  0  0  0  0  0  0  0  0  0
   37.7010   24.2900   42.0620 C   0  0  0  0  0  0  0  0  0  0  0  0
   38.7820   25.0490   41.6430 C   0  0  0  0  0  0  0  0  0  0  0  0
   38.6890   25.6210   40.4040 N   0  0  0  0  0  0  0  0  0  0  0  0
   37.6320   25.4820   39.6090 C   0  0  0  0  0  0  0  0  0  0  0  0
   36.5720   24.7470   40.0000 N   0  0  0  0  0  0  0  0  0  0  0  0
   35.7240   23.5820   41.4680 H   0  0  0  0  0  0  0  0  0  0  0  0
   37.6550   23.7890   43.0180 H   0  0  0  0  0  0  0  0  0  0  0  0
   37.6320   25.9610   38.6500 H   0  0  0  0  0  0  0  0  0  0  0  0
  1  2  1  0  0  0  0
  1  3  1  0  0  0  0
  4  9  1  0  0  0  0
  4  1  1  0  0  0  0
  5 10  1  0  0  0  0
  5  4  2  0  0  0  0
  6  7  2  0  0  0  0
  6  5  1  0  0  0  0
  7  8  1  0  0  0  0
  8  9  2  0  0  0  0
  9 14  1  0  0  0  0
 11  6  1  0  0  0  0
 12  7  1  0  0  0  0
 13  8  1  0  0  0  0
 15 14  1  0  0  0  0
 16 15  1  0  0  0  0
 17 18  1  0  0  0  0
 17  1  1  0  0  0  0
 19 17  1  0  0  0  0
 20 26  1  0  0  0  0
 20 21  1  0  0  0  0
 21 27  1  0  0  0  0
 22 21  2  0  0  0  0
 22 17  1  0  0  0  0
 23 22  1  0  0  0  0
 24 25  1  0  0  0  0
 24 23  2  0  0  0  0
 25 20  2  0  0  0  0
 28 24  1  0  0  0  0
M  END
>  <minimizedAffinity>
-4.45324183

$$$$
