
 OpenBabel03252507013D

 31 32  0  0  0  0  0  0  0  0999 V2000
   36.4060   29.0720   41.4570 N   0  0  0  0  0  0  0  0  0  0  0  0
   35.3140   28.8750   40.5730 C   0  0  0  0  0  0  0  0  0  0  0  0
   35.9900   28.0820   39.4430 C   0  0  0  0  0  0  0  0  0  0  0  0
   36.6400   26.8350   39.8700 C   0  0  0  0  0  0  0  0  0  0  0  0
   36.8890   26.6760   41.3180 C   0  0  0  0  0  0  0  0  0  0  0  0
   36.8050   27.8710   42.1870 C   0  0  0  0  0  0  0  0  0  0  0  0
   34.5700   28.1980   40.9870 H   0  0  0  0  0  0  0  0  0  0  0  0
   34.7900   29.7140   40.1630 H   0  0  0  0  0  0  0  0  0  0  0  0
   36.6530   28.8010   38.8880 H   0  0  0  0  0  0  0  0  0  0  0  0
   35.1720   27.8280   38.7180 H   0  0  0  0  0  0  0  0  0  0  0  0
   37.6290   26.7760   39.3620 H   0  0  0  0  0  0  0  0  0  0  0  0
   36.0980   25.9180   39.5720 H   0  0  0  0  0  0  0  0  0  0  0  0
   37.1690   25.7670   41.7820 H   0  0  0  0  0  0  0  0  0  0  0  0
   37.2270   30.1370   41.5370 C   0  0  0  0  0  0  0  0  0  0  0  0
   38.3010   30.0200   41.1940 H   0  0  0  0  0  0  0  0  0  0  0  0
   37.3280   30.5320   42.5940 H   0  0  0  0  0  0  0  0  0  0  0  0
   36.6870   31.2920   40.7260 C   0  0  0  0  0  0  0  0  0  0  0  0
   35.7610   30.9050   40.2220 H   0  0  0  0  0  0  0  0  0  0  0  0
   36.3650   32.1640   41.2630 H   0  0  0  0  0  0  0  0  0  0  0  0
   37.6190   31.4960   39.5980 C   0  0  0  0  0  0  0  0  0  0  0  0
   37.2000   31.4190   38.2920 C   0  0  0  0  0  0  0  0  0  0  0  0
   38.1060   31.6250   37.2480 C   0  0  0  0  0  0  0  0  0  0  0  0
   39.3930   31.8960   37.6050 N   0  0  0  0  0  0  0  0  0  0  0  0
   39.7670   31.9630   38.8820 C   0  0  0  0  0  0  0  0  0  0  0  0
   38.8820   31.7630   39.8450 N   0  0  0  0  0  0  0  0  0  0  0  0
   36.1660   31.2000   38.0910 H   0  0  0  0  0  0  0  0  0  0  0  0
   37.7690   31.5630   36.2210 H   0  0  0  0  0  0  0  0  0  0  0  0
   40.8050   32.1830   39.0880 H   0  0  0  0  0  0  0  0  0  0  0  0
   37.1810   27.8140   43.6170 C   0  0  0  0  0  2  0  0  0  0  0  0
   38.6090   27.3120   43.6790 C   0  0  0  0  0  2  0  0  0  0  0  0
   39.3200   27.9610   43.1280 H   0  0  0  0  0  0  0  0  0  0  0  0
  1 14  1  0  0  0  0
  1  6  1  0  0  0  0
  2  7  1  0  0  0  0
  2  1  1  0  0  0  0
  3  4  1  0  0  0  0
  3  2  1  0  0  0  0
  4  5  1  0  0  0  0
  5 13  1  0  0  0  0
  5  6  2  0  0  0  0
  6 29  1  0  0  0  0
  8  2  1  0  0  0  0
  9  3  1  0  0  0  0
 10  3  1  0  0  0  0
 11  4  1  0  0  0  0
 12  4  1  0  0  0  0
 14 16  1  0  0  0  0
 15 14  1  0  0  0  0
 17 19  1  0  0  0  0
 17 14  1  0  0  0  0
 18 17  1  0  0  0  0
 20 25  1  0  0  0  0
 20 17  1  0  0  0  0
 21 20  2  0  0  0  0
 22 23  2  0  0  0  0
 22 21  1  0  0  0  0
 23 24  1  0  0  0  0
 24 28  1  0  0  0  0
 24 25  2  0  0  0  0
 26 21  1  0  0  0  0
 27 22  1  0  0  0  0
 29 30  1  0  0  0  0
 31 30  1  0  0  0  0
M  END
>  <minimizedAffinity>
-4.44555473

$$$$

 OpenBabel03252507013D

 31 32  0  0  0  0  0  0  0  0999 V2000
   38.3150   26.6190   42.4260 N   0  0  0  0  0  0  0  0  0  0  0  0
   39.6980   26.8460   42.6430 C   0  0  0  0  0  0  0  0  0  0  0  0
   40.0240   25.7340   43.6520 C   0  0  0  0  0  0  0  0  0  0  0  0
   39.7100   24.3730   43.1930 C   0  0  0  0  0  0  0  0  0  0  0  0
   38.8130   24.2550   42.0250 C   0  0  0  0  0  0  0  0  0  0  0  0
   38.0240   25.4390   41.6140 C   0  0  0  0  0  0  0  0  0  0  0  0
   40.2940   26.6110   41.7630 H   0  0  0  0  0  0  0  0  0  0  0  0
   40.0410   27.7880   43.0180 H   0  0  0  0  0  0  0  0  0  0  0  0
   39.5510   26.0290   44.6300 H   0  0  0  0  0  0  0  0  0  0  0  0
   41.1290   25.8020   43.8360 H   0  0  0  0  0  0  0  0  0  0  0  0
   39.2180   23.8350   44.0350 H   0  0  0  0  0  0  0  0  0  0  0  0
   40.5980   23.7690   42.9330 H   0  0  0  0  0  0  0  0  0  0  0  0
   38.6570   23.3640   41.4760 H   0  0  0  0  0  0  0  0  0  0  0  0
   37.2710   27.2120   43.0380 C   0  0  0  0  0  0  0  0  0  0  0  0
   36.9710   26.8500   44.0700 H   0  0  0  0  0  0  0  0  0  0  0  0
   36.3120   27.1330   42.4390 H   0  0  0  0  0  0  0  0  0  0  0  0
   37.5190   28.6930   43.2050 C   0  0  0  0  0  0  0  0  0  0  0  0
   36.7770   29.0420   43.9740 H   0  0  0  0  0  0  0  0  0  0  0  0
   38.4750   28.9930   43.5890 H   0  0  0  0  0  0  0  0  0  0  0  0
   37.0490   29.3480   41.9680 C   0  0  0  0  0  0  0  0  0  0  0  0
   35.9560   28.8860   41.2760 C   0  0  0  0  0  0  0  0  0  0  0  0
   35.5330   29.5340   40.1120 C   0  0  0  0  0  0  0  0  0  0  0  0
   36.2590   30.6200   39.7240 N   0  0  0  0  0  0  0  0  0  0  0  0
   37.3140   31.0430   40.4170 C   0  0  0  0  0  0  0  0  0  0  0  0
   37.6860   30.4050   41.5150 N   0  0  0  0  0  0  0  0  0  0  0  0
   35.4350   28.0200   41.6460 H   0  0  0  0  0  0  0  0  0  0  0  0
   34.6700   29.1650   39.5720 H   0  0  0  0  0  0  0  0  0  0  0  0
   37.8400   31.9120   40.0480 H   0  0  0  0  0  0  0  0  0  0  0  0
   37.0030   25.3540   40.5470 C   0  0  0  0  0  2  0  0  0  0  0  0
   36.3760   23.9780   40.6430 C   0  0  0  0  0  2  0  0  0  0  0  0
   35.9080   23.7830   41.6300 H   0  0  0  0  0  0  0  0  0  0  0  0
  1  2  1  0  0  0  0
  1 14  1  0  0  0  0
  2  8  1  0  0  0  0
  2  3  1  0  0  0  0
  3 10  1  0  0  0  0
  3  9  1  0  0  0  0
  4  3  1  0  0  0  0
  4 11  1  0  0  0  0
  5  4  1  0  0  0  0
  6  5  2  0  0  0  0
  6  1  1  0  0  0  0
  7  2  1  0  0  0  0
 12  4  1  0  0  0  0
 13  5  1  0  0  0  0
 14 17  1  0  0  0  0
 14 15  1  0  0  0  0
 16 14  1  0  0  0  0
 17 19  1  0  0  0  0
 17 18  1  0  0  0  0
 20 17  1  0  0  0  0
 21 26  1  0  0  0  0
 21 20  2  0  0  0  0
 22 21  1  0  0  0  0
 23 22  2  0  0  0  0
 23 24  1  0  0  0  0
 24 25  2  0  0  0  0
 25 20  1  0  0  0  0
 27 22  1  0  0  0  0
 28 24  1  0  0  0  0
 29 30  1  0  0  0  0
 29  6  1  0  0  0  0
 30 31  1  0  0  0  0
M  END
>  <minimizedAffinity>
-4.42660093

$$$$

 OpenBabel03252507013D

 31 32  0  0  0  0  0  0  0  0999 V2000
   38.3740   27.6870   41.2730 N   0  0  0  0  0  0  0  0  0  0  0  0
   39.2350   27.9430   42.3720 C   0  0  0  0  0  0  0  0  0  0  0  0
   38.2890   28.6990   43.3170 C   0  0  0  0  0  0  0  0  0  0  0  0
   37.0660   27.9680   43.6790 C   0  0  0  0  0  0  0  0  0  0  0  0
   36.7140   26.8030   42.8410 C   0  0  0  0  0  0  0  0  0  0  0  0
   37.3770   26.6490   41.5260 C   0  0  0  0  0  0  0  0  0  0  0  0
   39.4980   27.0310   42.9050 H   0  0  0  0  0  0  0  0  0  0  0  0
   40.1360   28.5040   42.2350 H   0  0  0  0  0  0  0  0  0  0  0  0
   38.1230   29.7170   42.8700 H   0  0  0  0  0  0  0  0  0  0  0  0
   38.8800   28.8890   44.2520 H   0  0  0  0  0  0  0  0  0  0  0  0
   36.2130   28.6810   43.6180 H   0  0  0  0  0  0  0  0  0  0  0  0
   37.0590   27.5850   44.7160 H   0  0  0  0  0  0  0  0  0  0  0  0
   35.9820   26.0820   43.0930 H   0  0  0  0  0  0  0  0  0  0  0  0
   38.2300   28.4120   40.1470 C   0  0  0  0  0  0  0  0  0  0  0  0
   38.1980   27.8680   39.1530 H   0  0  0  0  0  0  0  0  0  0  0  0
   39.0590   29.1720   40.0070 H   0  0  0  0  0  0  0  0  0  0  0  0
   36.9510   29.2160   40.1870 C   0  0  0  0  0  0  0  0  0  0  0  0
   36.4000   28.9610   39.2410 H   0  0  0  0  0  0  0  0  0  0  0  0
   36.2570   29.0000   40.9770 H   0  0  0  0  0  0  0  0  0  0  0  0
   37.3270   30.6290   39.9820 C   0  0  0  0  0  0  0  0  0  0  0  0
   36.9300   31.3290   38.8690 C   0  0  0  0  0  0  0  0  0  0  0  0
   37.2970   32.6680   38.7100 C   0  0  0  0  0  0  0  0  0  0  0  0
   38.0550   33.2130   39.7030 N   0  0  0  0  0  0  0  0  0  0  0  0
   38.4240   32.5070   40.7700 C   0  0  0  0  0  0  0  0  0  0  0  0
   38.0570   31.2400   40.8880 N   0  0  0  0  0  0  0  0  0  0  0  0
   36.3320   30.8280   38.1270 H   0  0  0  0  0  0  0  0  0  0  0  0
   36.9800   33.2140   37.8300 H   0  0  0  0  0  0  0  0  0  0  0  0
   39.0240   33.0060   41.5170 H   0  0  0  0  0  0  0  0  0  0  0  0
   36.9710   25.5900   40.5760 C   0  0  0  0  0  2  0  0  0  0  0  0
   36.9420   24.2890   41.3510 C   0  0  0  0  0  2  0  0  0  0  0  0
   36.2420   24.3130   42.2100 H   0  0  0  0  0  0  0  0  0  0  0  0
  1  6  1  0  0  0  0
  1  2  1  0  0  0  0
  2  7  1  0  0  0  0
  2  3  1  0  0  0  0
  3  4  1  0  0  0  0
  3 10  1  0  0  0  0
  4 12  1  0  0  0  0
  5 13  1  0  0  0  0
  5  4  1  0  0  0  0
  6  5  2  0  0  0  0
  8  2  1  0  0  0  0
  9  3  1  0  0  0  0
 11  4  1  0  0  0  0
 14 17  1  0  0  0  0
 14  1  1  0  0  0  0
 15 14  1  0  0  0  0
 16 14  1  0  0  0  0
 17 19  1  0  0  0  0
 18 17  1  0  0  0  0
 20 17  1  0  0  0  0
 20 25  1  0  0  0  0
 21 20  2  0  0  0  0
 22 21  1  0  0  0  0
 22 23  2  0  0  0  0
 23 24  1  0  0  0  0
 24 25  2  0  0  0  0
 24 28  1  0  0  0  0
 26 21  1  0  0  0  0
 27 22  1  0  0  0  0
 29 30  1  0  0  0  0
 29  6  1  0  0  0  0
 30 31  1  0  0  0  0
M  END
>  <minimizedAffinity>
-4.29351139

$$$$

 OpenBabel03252507013D

 31 32  0  0  0  0  0  0  0  0999 V2000
   37.2770   31.1560   40.3900 N   0  0  0  0  0  0  0  0  0  0  0  0
   37.2950   31.6310   39.0530 C   0  0  0  0  0  0  0  0  0  0  0  0
   37.1980   33.1480   39.2790 C   0  0  0  0  0  0  0  0  0  0  0  0
   38.2580   33.7150   40.1250 C   0  0  0  0  0  0  0  0  0  0  0  0
   39.0440   32.7610   40.9350 C   0  0  0  0  0  0  0  0  0  0  0  0
   38.5190   31.3890   41.1220 C   0  0  0  0  0  0  0  0  0  0  0  0
   38.2620   31.4780   38.5780 H   0  0  0  0  0  0  0  0  0  0  0  0
   36.5440   31.3190   38.3570 H   0  0  0  0  0  0  0  0  0  0  0  0
   36.1470   33.3620   39.6210 H   0  0  0  0  0  0  0  0  0  0  0  0
   37.2670   33.6130   38.2600 H   0  0  0  0  0  0  0  0  0  0  0  0
   37.7810   34.4280   40.8350 H   0  0  0  0  0  0  0  0  0  0  0  0
   39.0100   34.3060   39.5700 H   0  0  0  0  0  0  0  0  0  0  0  0
   39.9460   32.9990   41.4330 H   0  0  0  0  0  0  0  0  0  0  0  0
   36.2170   30.7310   41.1050 C   0  0  0  0  0  0  0  0  0  0  0  0
   35.3870   31.4680   41.3350 H   0  0  0  0  0  0  0  0  0  0  0  0
   36.5100   30.3330   42.1250 H   0  0  0  0  0  0  0  0  0  0  0  0
   35.5270   29.5810   40.4080 C   0  0  0  0  0  0  0  0  0  0  0  0
   34.4990   29.5230   40.8570 H   0  0  0  0  0  0  0  0  0  0  0  0
   35.3610   29.6720   39.3510 H   0  0  0  0  0  0  0  0  0  0  0  0
   36.1700   28.3420   40.8890 C   0  0  0  0  0  0  0  0  0  0  0  0
   36.5730   27.3530   40.0250 C   0  0  0  0  0  0  0  0  0  0  0  0
   37.1860   26.1960   40.5130 C   0  0  0  0  0  0  0  0  0  0  0  0
   37.3490   26.1190   41.8630 N   0  0  0  0  0  0  0  0  0  0  0  0
   36.9480   27.0950   42.6750 C   0  0  0  0  0  0  0  0  0  0  0  0
   36.3710   28.1770   42.1780 N   0  0  0  0  0  0  0  0  0  0  0  0
   36.4080   27.4880   38.9690 H   0  0  0  0  0  0  0  0  0  0  0  0
   37.5010   25.4210   39.8250 H   0  0  0  0  0  0  0  0  0  0  0  0
   37.1110   26.9630   43.7360 H   0  0  0  0  0  0  0  0  0  0  0  0
   39.1790   30.4290   42.0350 C   0  0  0  0  0  2  0  0  0  0  0  0
   39.7360   29.3130   41.1740 C   0  0  0  0  0  2  0  0  0  0  0  0
   40.4610   29.6730   40.4160 H   0  0  0  0  0  0  0  0  0  0  0  0
  1 14  1  0  0  0  0
  1  6  1  0  0  0  0
  2  3  1  0  0  0  0
  2  1  1  0  0  0  0
  3  9  1  0  0  0  0
  3  4  1  0  0  0  0
  4 11  1  0  0  0  0
  4  5  1  0  0  0  0
  5  6  2  0  0  0  0
  5 13  1  0  0  0  0
  6 29  1  0  0  0  0
  7  2  1  0  0  0  0
  8  2  1  0  0  0  0
 10  3  1  0  0  0  0
 12  4  1  0  0  0  0
 14 15  1  0  0  0  0
 14 16  1  0  0  0  0
 17 18  1  0  0  0  0
 17 20  1  0  0  0  0
 17 14  1  0  0  0  0
 19 17  1  0  0  0  0
 20 25  1  0  0  0  0
 21 22  1  0  0  0  0
 21 20  2  0  0  0  0
 22 23  2  0  0  0  0
 23 24  1  0  0  0  0
 24 28  1  0  0  0  0
 25 24  2  0  0  0  0
 26 21  1  0  0  0  0
 27 22  1  0  0  0  0
 30 29  1  0  0  0  0
 31 30  1  0  0  0  0
M  END
>  <minimizedAffinity>
-4.27885199

$$$$

 OpenBabel03252507013D

 31 32  0  0  0  0  0  0  0  0999 V2000
   38.2580   27.3760   41.3620 N   0  0  0  0  0  0  0  0  0  0  0  0
   39.3320   28.0560   41.9920 C   0  0  0  0  0  0  0  0  0  0  0  0
   38.5800   29.1850   42.7150 C   0  0  0  0  0  0  0  0  0  0  0  0
   37.5360   28.7330   43.6450 C   0  0  0  0  0  0  0  0  0  0  0  0
   37.0850   27.3320   43.5110 C   0  0  0  0  0  0  0  0  0  0  0  0
   37.4300   26.5920   42.2760 C   0  0  0  0  0  0  0  0  0  0  0  0
   39.7810   27.4630   42.7860 H   0  0  0  0  0  0  0  0  0  0  0  0
   40.1300   28.4670   41.4100 H   0  0  0  0  0  0  0  0  0  0  0  0
   38.2360   29.9090   41.9250 H   0  0  0  0  0  0  0  0  0  0  0  0
   39.3580   29.7460   43.2980 H   0  0  0  0  0  0  0  0  0  0  0  0
   36.6400   29.3770   43.4910 H   0  0  0  0  0  0  0  0  0  0  0  0
   37.8020   28.8460   44.7120 H   0  0  0  0  0  0  0  0  0  0  0  0
   36.4900   26.8230   44.2220 H   0  0  0  0  0  0  0  0  0  0  0  0
   37.7980   27.5360   40.1060 C   0  0  0  0  0  0  0  0  0  0  0  0
   37.5500   26.6120   39.4980 H   0  0  0  0  0  0  0  0  0  0  0  0
   38.5230   28.1030   39.4450 H   0  0  0  0  0  0  0  0  0  0  0  0
   36.5270   28.3530   40.1010 C   0  0  0  0  0  0  0  0  0  0  0  0
   35.8370   27.8410   39.3770 H   0  0  0  0  0  0  0  0  0  0  0  0
   35.9720   28.4080   41.0180 H   0  0  0  0  0  0  0  0  0  0  0  0
   36.8390   29.6260   39.4200 C   0  0  0  0  0  0  0  0  0  0  0  0
   36.6620   30.8390   40.0380 C   0  0  0  0  0  0  0  0  0  0  0  0
   36.9750   32.0250   39.3670 C   0  0  0  0  0  0  0  0  0  0  0  0
   37.4510   31.8960   38.0970 N   0  0  0  0  0  0  0  0  0  0  0  0
   37.6110   30.7040   37.5250 C   0  0  0  0  0  0  0  0  0  0  0  0
   37.3050   29.6020   38.1910 N   0  0  0  0  0  0  0  0  0  0  0  0
   36.2800   30.8580   41.0450 H   0  0  0  0  0  0  0  0  0  0  0  0
   36.8330   32.9780   39.8610 H   0  0  0  0  0  0  0  0  0  0  0  0
   37.9940   30.6810   36.5150 H   0  0  0  0  0  0  0  0  0  0  0  0
   36.8940   25.2380   42.0120 C   0  0  0  0  0  2  0  0  0  0  0  0
   38.0710   24.2840   42.0330 C   0  0  0  0  0  2  0  0  0  0  0  0
   38.6170   24.2920   42.9980 H   0  0  0  0  0  0  0  0  0  0  0  0
  1  2  1  0  0  0  0
  1  6  1  0  0  0  0
  2  3  1  0  0  0  0
  2  7  1  0  0  0  0
  3 10  1  0  0  0  0
  3  4  1  0  0  0  0
  4 12  1  0  0  0  0
  5  4  1  0  0  0  0
  5 13  1  0  0  0  0
  6  5  2  0  0  0  0
  8  2  1  0  0  0  0
  9  3  1  0  0  0  0
 11  4  1  0  0  0  0
 14  1  1  0  0  0  0
 15 14  1  0  0  0  0
 16 14  1  0  0  0  0
 17 14  1  0  0  0  0
 17 19  1  0  0  0  0
 18 17  1  0  0  0  0
 20 21  1  0  0  0  0
 20 17  1  0  0  0  0
 21 26  1  0  0  0  0
 22 27  1  0  0  0  0
 22 21  2  0  0  0  0
 23 22  1  0  0  0  0
 24 23  2  0  0  0  0
 24 25  1  0  0  0  0
 25 20  2  0  0  0  0
 28 24  1  0  0  0  0
 29 30  1  0  0  0  0
 29  6  1  0  0  0  0
 30 31  1  0  0  0  0
M  END
>  <minimizedAffinity>
-4.23066282

$$$$

 OpenBabel03252507013D

 31 32  0  0  0  0  0  0  0  0999 V2000
   36.7140   29.4780   40.8430 N   0  0  0  0  0  0  0  0  0  0  0  0
   36.1600   30.7490   41.1410 C   0  0  0  0  0  0  0  0  0  0  0  0
   37.0340   31.6630   40.2680 C   0  0  0  0  0  0  0  0  0  0  0  0
   37.0290   31.3350   38.8360 C   0  0  0  0  0  0  0  0  0  0  0  0
   36.5140   30.0020   38.4600 C   0  0  0  0  0  0  0  0  0  0  0  0
   36.3690   28.9740   39.5160 C   0  0  0  0  0  0  0  0  0  0  0  0
   35.1520   30.8590   40.7450 H   0  0  0  0  0  0  0  0  0  0  0  0
   36.1470   31.1130   42.1480 H   0  0  0  0  0  0  0  0  0  0  0  0
   38.0510   31.7000   40.7470 H   0  0  0  0  0  0  0  0  0  0  0  0
   36.6190   32.6980   40.3980 H   0  0  0  0  0  0  0  0  0  0  0  0
   38.0800   31.3910   38.4710 H   0  0  0  0  0  0  0  0  0  0  0  0
   36.4590   32.0470   38.2110 H   0  0  0  0  0  0  0  0  0  0  0  0
   36.2760   29.7080   37.4720 H   0  0  0  0  0  0  0  0  0  0  0  0
   37.6620   28.8060   41.5250 C   0  0  0  0  0  0  0  0  0  0  0  0
   38.4940   29.3950   42.0200 H   0  0  0  0  0  0  0  0  0  0  0  0
   38.2140   28.0560   40.8800 H   0  0  0  0  0  0  0  0  0  0  0  0
   37.0450   27.9970   42.6430 C   0  0  0  0  0  0  0  0  0  0  0  0
   37.3670   28.4980   43.5960 H   0  0  0  0  0  0  0  0  0  0  0  0
   35.9740   27.9650   42.6960 H   0  0  0  0  0  0  0  0  0  0  0  0
   37.7660   26.7080   42.6850 C   0  0  0  0  0  0  0  0  0  0  0  0
   37.2310   25.5630   42.1480 C   0  0  0  0  0  0  0  0  0  0  0  0
   37.9420   24.3610   42.1980 C   0  0  0  0  0  0  0  0  0  0  0  0
   39.1640   24.4030   42.8000 N   0  0  0  0  0  0  0  0  0  0  0  0
   39.6550   25.5310   43.3120 C   0  0  0  0  0  0  0  0  0  0  0  0
   38.9530   26.6510   43.2460 N   0  0  0  0  0  0  0  0  0  0  0  0
   36.2580   25.6100   41.6890 H   0  0  0  0  0  0  0  0  0  0  0  0
   37.5140   23.4620   41.7720 H   0  0  0  0  0  0  0  0  0  0  0  0
   40.6310   25.4870   43.7730 H   0  0  0  0  0  0  0  0  0  0  0  0
   35.9970   27.5800   39.1900 C   0  0  0  0  0  2  0  0  0  0  0  0
   37.0630   27.0440   38.2560 C   0  0  0  0  0  2  0  0  0  0  0  0
   38.0790   27.0690   38.6990 H   0  0  0  0  0  0  0  0  0  0  0  0
  1  2  1  0  0  0  0
  1 14  1  0  0  0  0
  2  8  1  0  0  0  0
  3 10  1  0  0  0  0
  3  9  1  0  0  0  0
  3  2  1  0  0  0  0
  4  3  1  0  0  0  0
  5  4  1  0  0  0  0
  5  6  2  0  0  0  0
  6  1  1  0  0  0  0
  7  2  1  0  0  0  0
 11  4  1  0  0  0  0
 12  4  1  0  0  0  0
 13  5  1  0  0  0  0
 14 15  1  0  0  0  0
 14 17  1  0  0  0  0
 16 14  1  0  0  0  0
 17 20  1  0  0  0  0
 17 19  1  0  0  0  0
 17 18  1  0  0  0  0
 20 25  1  0  0  0  0
 21 22  1  0  0  0  0
 21 20  2  0  0  0  0
 22 23  2  0  0  0  0
 23 24  1  0  0  0  0
 24 28  1  0  0  0  0
 25 24  2  0  0  0  0
 26 21  1  0  0  0  0
 27 22  1  0  0  0  0
 29  6  1  0  0  0  0
 30 31  1  0  0  0  0
 30 29  1  0  0  0  0
M  END
>  <minimizedAffinity>
-4.22767401

$$$$

 OpenBabel03252507013D

 31 32  0  0  0  0  0  0  0  0999 V2000
   37.4460   28.9650   42.2040 N   0  0  0  0  0  0  0  0  0  0  0  0
   38.2010   28.9820   43.4040 C   0  0  0  0  0  0  0  0  0  0  0  0
   39.6340   28.9610   42.8500 C   0  0  0  0  0  0  0  0  0  0  0  0
   39.9550   30.0630   41.9320 C   0  0  0  0  0  0  0  0  0  0  0  0
   38.8150   30.8170   41.3720 C   0  0  0  0  0  0  0  0  0  0  0  0
   37.4590   30.2310   41.4740 C   0  0  0  0  0  0  0  0  0  0  0  0
   38.1150   29.9310   43.9290 H   0  0  0  0  0  0  0  0  0  0  0  0
   38.0820   28.2040   44.1310 H   0  0  0  0  0  0  0  0  0  0  0  0
   39.8130   27.9290   42.4400 H   0  0  0  0  0  0  0  0  0  0  0  0
   40.3080   29.0350   43.7440 H   0  0  0  0  0  0  0  0  0  0  0  0
   40.5150   29.6340   41.0690 H   0  0  0  0  0  0  0  0  0  0  0  0
   40.6210   30.8320   42.3650 H   0  0  0  0  0  0  0  0  0  0  0  0
   38.8990   31.7390   40.8590 H   0  0  0  0  0  0  0  0  0  0  0  0
   36.9190   27.8990   41.5690 C   0  0  0  0  0  0  0  0  0  0  0  0
   37.4500   27.4990   40.6510 H   0  0  0  0  0  0  0  0  0  0  0  0
   35.8620   28.0860   41.2060 H   0  0  0  0  0  0  0  0  0  0  0  0
   36.8190   26.7160   42.5030 C   0  0  0  0  0  0  0  0  0  0  0  0
   37.4990   26.9500   43.3670 H   0  0  0  0  0  0  0  0  0  0  0  0
   35.8640   26.5190   42.9510 H   0  0  0  0  0  0  0  0  0  0  0  0
   37.5030   25.5880   41.8390 C   0  0  0  0  0  0  0  0  0  0  0  0
   36.8650   24.3940   41.6020 C   0  0  0  0  0  0  0  0  0  0  0  0
   37.5380   23.3500   40.9640 C   0  0  0  0  0  0  0  0  0  0  0  0
   38.8310   23.5890   40.6050 N   0  0  0  0  0  0  0  0  0  0  0  0
   39.4210   24.7580   40.8490 C   0  0  0  0  0  0  0  0  0  0  0  0
   38.7520   25.7260   41.4560 N   0  0  0  0  0  0  0  0  0  0  0  0
   35.8410   24.2820   41.9160 H   0  0  0  0  0  0  0  0  0  0  0  0
   37.0290   22.4110   40.7800 H   0  0  0  0  0  0  0  0  0  0  0  0
   40.4490   24.8750   40.5360 H   0  0  0  0  0  0  0  0  0  0  0  0
   36.2940   30.8600   40.8130 C   0  0  0  0  0  2  0  0  0  0  0  0
   36.8170   31.5760   39.5840 C   0  0  0  0  0  2  0  0  0  0  0  0
   37.3330   30.8990   38.8750 H   0  0  0  0  0  0  0  0  0  0  0  0
  1  2  1  0  0  0  0
  2  7  1  0  0  0  0
  2  8  1  0  0  0  0
  3  2  1  0  0  0  0
  3 10  1  0  0  0  0
  4 12  1  0  0  0  0
  4  3  1  0  0  0  0
  5  6  2  0  0  0  0
  5  4  1  0  0  0  0
  6  1  1  0  0  0  0
  9  3  1  0  0  0  0
 11  4  1  0  0  0  0
 13  5  1  0  0  0  0
 14  1  1  0  0  0  0
 14 17  1  0  0  0  0
 15 14  1  0  0  0  0
 16 14  1  0  0  0  0
 17 19  1  0  0  0  0
 17 18  1  0  0  0  0
 20 17  1  0  0  0  0
 21 20  1  0  0  0  0
 21 26  1  0  0  0  0
 22 21  2  0  0  0  0
 23 24  2  0  0  0  0
 23 22  1  0  0  0  0
 24 25  1  0  0  0  0
 25 20  2  0  0  0  0
 27 22  1  0  0  0  0
 28 24  1  0  0  0  0
 29  6  1  0  0  0  0
 30 29  1  0  0  0  0
 31 30  1  0  0  0  0
M  END
>  <minimizedAffinity>
-4.22636795

$$$$

 OpenBabel03252507013D

 31 32  0  0  0  0  0  0  0  0999 V2000
   37.2770   26.7070   41.6240 N   0  0  0  0  0  0  0  0  0  0  0  0
   38.2240   25.7500   42.0700 C   0  0  0  0  0  0  0  0  0  0  0  0
   37.3360   24.5060   42.2230 C   0  0  0  0  0  0  0  0  0  0  0  0
   36.6190   24.1070   41.0030 C   0  0  0  0  0  0  0  0  0  0  0  0
   36.5360   25.1100   39.9220 C   0  0  0  0  0  0  0  0  0  0  0  0
   36.8500   26.5220   40.2380 C   0  0  0  0  0  0  0  0  0  0  0  0
   38.9410   25.4920   41.2930 H   0  0  0  0  0  0  0  0  0  0  0  0
   38.7770   25.9150   42.9720 H   0  0  0  0  0  0  0  0  0  0  0  0
   36.6860   24.6750   43.1260 H   0  0  0  0  0  0  0  0  0  0  0  0
   38.0270   23.6720   42.5200 H   0  0  0  0  0  0  0  0  0  0  0  0
   35.5740   23.8530   41.2910 H   0  0  0  0  0  0  0  0  0  0  0  0
   37.0230   23.1980   40.5200 H   0  0  0  0  0  0  0  0  0  0  0  0
   36.2250   24.9010   38.9320 H   0  0  0  0  0  0  0  0  0  0  0  0
   36.5850   27.5970   42.3620 C   0  0  0  0  0  0  0  0  0  0  0  0
   35.8860   27.2080   43.1650 H   0  0  0  0  0  0  0  0  0  0  0  0
   35.9220   28.2650   41.7320 H   0  0  0  0  0  0  0  0  0  0  0  0
   37.5230   28.5330   43.0890 C   0  0  0  0  0  0  0  0  0  0  0  0
   36.9390   28.9360   43.9600 H   0  0  0  0  0  0  0  0  0  0  0  0
   38.4070   28.1070   43.5240 H   0  0  0  0  0  0  0  0  0  0  0  0
   37.6960   29.7200   42.2270 C   0  0  0  0  0  0  0  0  0  0  0  0
   38.9190   30.3220   42.0610 C   0  0  0  0  0  0  0  0  0  0  0  0
   39.0500   31.4390   41.2320 C   0  0  0  0  0  0  0  0  0  0  0  0
   37.9140   31.8760   40.6190 N   0  0  0  0  0  0  0  0  0  0  0  0
   36.7420   31.2700   40.8010 C   0  0  0  0  0  0  0  0  0  0  0  0
   36.6560   30.2140   41.5930 N   0  0  0  0  0  0  0  0  0  0  0  0
   39.7710   29.9170   42.5800 H   0  0  0  0  0  0  0  0  0  0  0  0
   40.0180   31.9080   41.1060 H   0  0  0  0  0  0  0  0  0  0  0  0
   35.8840   31.6740   40.2810 H   0  0  0  0  0  0  0  0  0  0  0  0
   36.6510   27.5990   39.2430 C   0  0  0  0  0  2  0  0  0  0  0  0
   38.0240   28.1340   38.8900 C   0  0  0  0  0  2  0  0  0  0  0  0
   38.6970   27.3570   38.4760 H   0  0  0  0  0  0  0  0  0  0  0  0
  1  2  1  0  0  0  0
  1 14  1  0  0  0  0
  2  3  1  0  0  0  0
  2  8  1  0  0  0  0
  3 10  1  0  0  0  0
  3  9  1  0  0  0  0
  4 11  1  0  0  0  0
  4  3  1  0  0  0  0
  5  6  2  0  0  0  0
  5  4  1  0  0  0  0
  6  1  1  0  0  0  0
  7  2  1  0  0  0  0
 12  4  1  0  0  0  0
 13  5  1  0  0  0  0
 14 17  1  0  0  0  0
 14 15  1  0  0  0  0
 16 14  1  0  0  0  0
 17 19  1  0  0  0  0
 17 18  1  0  0  0  0
 20 17  1  0  0  0  0
 21 20  1  0  0  0  0
 21 26  1  0  0  0  0
 22 21  2  0  0  0  0
 23 24  2  0  0  0  0
 23 22  1  0  0  0  0
 24 25  1  0  0  0  0
 25 20  2  0  0  0  0
 27 22  1  0  0  0  0
 28 24  1  0  0  0  0
 29  6  1  0  0  0  0
 30 29  1  0  0  0  0
 31 30  1  0  0  0  0
M  END
>  <minimizedAffinity>
-4.22102022

$$$$

 OpenBabel03252507013D

 31 32  0  0  0  0  0  0  0  0999 V2000
   39.4030   31.6660   39.5770 N   0  0  0  0  0  0  0  0  0  0  0  0
   38.5880   31.7460   38.4180 C   0  0  0  0  0  0  0  0  0  0  0  0
   37.2910   32.3210   39.0090 C   0  0  0  0  0  0  0  0  0  0  0  0
   37.4500   33.6020   39.7130 C   0  0  0  0  0  0  0  0  0  0  0  0
   38.8260   33.9900   40.0850 C   0  0  0  0  0  0  0  0  0  0  0  0
   39.8870   32.9590   40.0550 C   0  0  0  0  0  0  0  0  0  0  0  0
   38.9410   32.5040   37.7220 H   0  0  0  0  0  0  0  0  0  0  0  0
   38.3680   30.8670   37.8480 H   0  0  0  0  0  0  0  0  0  0  0  0
   36.8130   31.5000   39.6120 H   0  0  0  0  0  0  0  0  0  0  0  0
   36.6010   32.4760   38.1380 H   0  0  0  0  0  0  0  0  0  0  0  0
   36.8620   33.5460   40.6570 H   0  0  0  0  0  0  0  0  0  0  0  0
   37.0470   34.4720   39.1630 H   0  0  0  0  0  0  0  0  0  0  0  0
   39.1070   34.9550   40.4180 H   0  0  0  0  0  0  0  0  0  0  0  0
   39.5940   30.6050   40.3840 C   0  0  0  0  0  0  0  0  0  0  0  0
   40.6520   30.2330   40.5480 H   0  0  0  0  0  0  0  0  0  0  0  0
   39.0400   29.6820   40.0310 H   0  0  0  0  0  0  0  0  0  0  0  0
   39.0640   30.8840   41.7710 C   0  0  0  0  0  0  0  0  0  0  0  0
   39.9320   30.7270   42.4680 H   0  0  0  0  0  0  0  0  0  0  0  0
   38.7230   31.8810   41.9780 H   0  0  0  0  0  0  0  0  0  0  0  0
   38.1560   29.7710   42.1150 C   0  0  0  0  0  0  0  0  0  0  0  0
   37.2270   29.2940   41.2230 C   0  0  0  0  0  0  0  0  0  0  0  0
   36.3880   28.2350   41.5770 C   0  0  0  0  0  0  0  0  0  0  0  0
   36.5500   27.7250   42.8300 N   0  0  0  0  0  0  0  0  0  0  0  0
   37.4610   28.2100   43.6730 C   0  0  0  0  0  0  0  0  0  0  0  0
   38.2390   29.2150   43.3030 N   0  0  0  0  0  0  0  0  0  0  0  0
   37.1600   29.7510   40.2500 H   0  0  0  0  0  0  0  0  0  0  0  0
   35.6580   27.8630   40.8680 H   0  0  0  0  0  0  0  0  0  0  0  0
   37.5310   27.7540   44.6500 H   0  0  0  0  0  0  0  0  0  0  0  0
   41.2530   33.2410   40.5500 C   0  0  0  0  0  2  0  0  0  0  0  0
   42.1450   33.3760   39.3330 C   0  0  0  0  0  2  0  0  0  0  0  0
   41.8190   34.1820   38.6450 H   0  0  0  0  0  0  0  0  0  0  0  0
  1  6  1  0  0  0  0
  1 14  1  0  0  0  0
  2  3  1  0  0  0  0
  2  1  1  0  0  0  0
  3  9  1  0  0  0  0
  3  4  1  0  0  0  0
  4  5  1  0  0  0  0
  4 11  1  0  0  0  0
  5 13  1  0  0  0  0
  6  5  2  0  0  0  0
  6 29  1  0  0  0  0
  7  2  1  0  0  0  0
  8  2  1  0  0  0  0
 10  3  1  0  0  0  0
 12  4  1  0  0  0  0
 14 15  1  0  0  0  0
 14 17  1  0  0  0  0
 16 14  1  0  0  0  0
 17 19  1  0  0  0  0
 17 20  1  0  0  0  0
 17 18  1  0  0  0  0
 20 25  1  0  0  0  0
 21 22  1  0  0  0  0
 21 20  2  0  0  0  0
 22 23  2  0  0  0  0
 23 24  1  0  0  0  0
 24 28  1  0  0  0  0
 25 24  2  0  0  0  0
 26 21  1  0  0  0  0
 27 22  1  0  0  0  0
 30 29  1  0  0  0  0
 31 30  1  0  0  0  0
M  END
>  <minimizedAffinity>
-4.15074587

$$$$
