
 OpenBabel03252507403D

 13 13  0  0  0  0  0  0  0  0999 V2000
   37.9880   29.8720   42.1680 C   0  0  0  0  0  0  0  0  0  0  0  0
   38.9480   30.8100   41.7730 C   0  0  0  0  0  0  0  0  0  0  0  0
   38.5730   31.8100   40.8910 C   0  0  0  0  0  0  0  0  0  0  0  0
   37.2740   31.8440   40.4370 N   0  0  0  0  0  0  0  0  0  0  0  0
   36.3840   30.9200   40.8450 C   0  0  0  0  0  0  0  0  0  0  0  0
   36.7250   29.9470   41.6940 N   0  0  0  0  0  0  0  0  0  0  0  0
   39.3360   32.5250   40.6000 H   0  0  0  0  0  0  0  0  0  0  0  0
   35.3790   31.0220   40.4380 H   0  0  0  0  0  0  0  0  0  0  0  0
   40.6240   30.7260   42.3870 S   0  0  0  0  0  0  0  0  0  0  0  0
   41.5230   30.2840   41.4130 H   0  0  0  0  0  0  0  0  0  0  0  0
   38.4590   28.8330   43.1120 C   0  0  0  0  0  2  0  0  0  0  0  0
   37.3440   27.9990   43.6790 C   0  0  0  0  0  2  0  0  0  0  0  0
   36.9720   28.3710   44.6580 H   0  0  0  0  0  0  0  0  0  0  0  0
  1 11  1  0  0  0  0
  2  1  1  0  0  0  0
  2  9  1  0  0  0  0
  3  2  2  0  0  0  0
  4  5  2  0  0  0  0
  4  3  1  0  0  0  0
  5  6  1  0  0  0  0
  6  1  2  0  0  0  0
  7  3  1  0  0  0  0
  8  5  1  0  0  0  0
 10  9  1  0  0  0  0
 11 12  1  0  0  0  0
 12 13  1  0  0  0  0
M  END
>  <minimizedAffinity>
-3.072155

$$$$

 OpenBabel03252507403D

 13 13  0  0  0  0  0  0  0  0999 V2000
   37.4290   28.8020   42.4730 C   0  0  0  0  0  0  0  0  0  0  0  0
   36.9650   29.5490   41.3860 C   0  0  0  0  0  0  0  0  0  0  0  0
   37.7080   30.6420   40.9670 C   0  0  0  0  0  0  0  0  0  0  0  0
   38.8720   30.9490   41.6340 N   0  0  0  0  0  0  0  0  0  0  0  0
   39.2810   30.2000   42.6750 C   0  0  0  0  0  0  0  0  0  0  0  0
   38.5790   29.1450   43.0950 N   0  0  0  0  0  0  0  0  0  0  0  0
   37.3260   31.2050   40.1220 H   0  0  0  0  0  0  0  0  0  0  0  0
   40.2120   30.5140   43.1440 H   0  0  0  0  0  0  0  0  0  0  0  0
   35.4460   29.1140   40.5500 S   0  0  0  0  0  0  0  0  0  0  0  0
   34.4090   30.0050   40.8390 H   0  0  0  0  0  0  0  0  0  0  0  0
   36.5850   27.6510   42.8650 C   0  0  0  0  0  2  0  0  0  0  0  0
   37.1790   26.3230   42.4830 C   0  0  0  0  0  2  0  0  0  0  0  0
   36.8140   25.9440   41.5040 H   0  0  0  0  0  0  0  0  0  0  0  0
  1 11  1  0  0  0  0
  1  6  1  0  0  0  0
  2  1  2  0  0  0  0
  3  2  1  0  0  0  0
  3  4  2  0  0  0  0
  4  5  1  0  0  0  0
  5  6  2  0  0  0  0
  5  8  1  0  0  0  0
  7  3  1  0  0  0  0
  9 10  1  0  0  0  0
  9  2  1  0  0  0  0
 12 11  1  0  0  0  0
 13 12  1  0  0  0  0
M  END
>  <minimizedAffinity>
-3.06965733

$$$$

 OpenBabel03252507403D

 13 13  0  0  0  0  0  0  0  0999 V2000
   37.5060   26.2050   42.4900 C   0  0  0  0  0  0  0  0  0  0  0  0
   38.8310   26.2480   42.9380 C   0  0  0  0  0  0  0  0  0  0  0  0
   39.3680   27.4730   43.3010 C   0  0  0  0  0  0  0  0  0  0  0  0
   38.5810   28.5980   43.2100 N   0  0  0  0  0  0  0  0  0  0  0  0
   37.3100   28.5090   42.7740 C   0  0  0  0  0  0  0  0  0  0  0  0
   36.7740   27.3390   42.4180 N   0  0  0  0  0  0  0  0  0  0  0  0
   40.3980   27.4790   43.6450 H   0  0  0  0  0  0  0  0  0  0  0  0
   36.7600   29.4480   42.7340 H   0  0  0  0  0  0  0  0  0  0  0  0
   39.8160   24.7610   43.0390 S   0  0  0  0  0  0  0  0  0  0  0  0
   40.7870   24.7000   42.0350 H   0  0  0  0  0  0  0  0  0  0  0  0
   36.9990   24.8650   42.1190 C   0  0  0  0  0  2  0  0  0  0  0  0
   36.7740   24.7050   40.6410 C   0  0  0  0  0  2  0  0  0  0  0  0
   35.7280   24.9170   40.3300 H   0  0  0  0  0  0  0  0  0  0  0  0
  1  2  1  0  0  0  0
  2  9  1  0  0  0  0
  2  3  2  0  0  0  0
  3  7  1  0  0  0  0
  4  3  1  0  0  0  0
  5  4  2  0  0  0  0
  6  1  2  0  0  0  0
  6  5  1  0  0  0  0
  8  5  1  0  0  0  0
 10  9  1  0  0  0  0
 11  1  1  0  0  0  0
 12 11  1  0  0  0  0
 13 12  1  0  0  0  0
M  END
>  <minimizedAffinity>
-3.06152582

$$$$

 OpenBabel03252507403D

 13 13  0  0  0  0  0  0  0  0999 V2000
   37.6060   29.7880   41.9080 C   0  0  0  0  0  0  0  0  0  0  0  0
   36.7480   28.6860   41.8290 C   0  0  0  0  0  0  0  0  0  0  0  0
   35.6830   28.7380   40.9430 C   0  0  0  0  0  0  0  0  0  0  0  0
   35.5100   29.8670   40.1760 N   0  0  0  0  0  0  0  0  0  0  0  0
   36.3620   30.9040   40.2860 C   0  0  0  0  0  0  0  0  0  0  0  0
   37.3940   30.8750   41.1330 N   0  0  0  0  0  0  0  0  0  0  0  0
   35.0320   27.8700   40.9010 H   0  0  0  0  0  0  0  0  0  0  0  0
   36.1510   31.7560   39.6410 H   0  0  0  0  0  0  0  0  0  0  0  0
   37.0100   27.2400   42.8450 S   0  0  0  0  0  0  0  0  0  0  0  0
   36.0720   27.1400   43.8760 H   0  0  0  0  0  0  0  0  0  0  0  0
   38.7200   29.6620   42.8740 C   0  0  0  0  0  2  0  0  0  0  0  0
   39.7840   30.7080   42.6900 C   0  0  0  0  0  2  0  0  0  0  0  0
   40.6270   30.3700   42.0490 H   0  0  0  0  0  0  0  0  0  0  0  0
  1 11  1  0  0  0  0
  2  1  1  0  0  0  0
  2  9  1  0  0  0  0
  3  2  2  0  0  0  0
  4  5  2  0  0  0  0
  4  3  1  0  0  0  0
  5  6  1  0  0  0  0
  6  1  2  0  0  0  0
  7  3  1  0  0  0  0
  8  5  1  0  0  0  0
  9 10  1  0  0  0  0
 12 11  1  0  0  0  0
 13 12  1  0  0  0  0
M  END
>  <minimizedAffinity>
-3.01502132

$$$$

 OpenBabel03252507403D

 13 13  0  0  0  0  0  0  0  0999 V2000
   36.7170   29.3540   41.4540 C   0  0  0  0  0  0  0  0  0  0  0  0
   37.9260   29.9770   41.7840 C   0  0  0  0  0  0  0  0  0  0  0  0
   38.7140   29.4100   42.7730 C   0  0  0  0  0  0  0  0  0  0  0  0
   38.2810   28.2600   43.3910 N   0  0  0  0  0  0  0  0  0  0  0  0
   37.1110   27.6950   43.0410 C   0  0  0  0  0  0  0  0  0  0  0  0
   36.3350   28.2250   42.0910 N   0  0  0  0  0  0  0  0  0  0  0  0
   39.6470   29.9120   43.0090 H   0  0  0  0  0  0  0  0  0  0  0  0
   36.8460   26.7870   43.5810 H   0  0  0  0  0  0  0  0  0  0  0  0
   38.4480   31.4710   40.9540 S   0  0  0  0  0  0  0  0  0  0  0  0
   38.3340   32.5980   41.7730 H   0  0  0  0  0  0  0  0  0  0  0  0
   35.9270   30.0140   40.3900 C   0  0  0  0  0  2  0  0  0  0  0  0
   34.7840   29.1730   39.8930 C   0  0  0  0  0  2  0  0  0  0  0  0
   35.0390   28.5740   38.9920 H   0  0  0  0  0  0  0  0  0  0  0  0
  1  2  2  0  0  0  0
  1  6  1  0  0  0  0
  2  3  1  0  0  0  0
  3  7  1  0  0  0  0
  3  4  2  0  0  0  0
  5  4  1  0  0  0  0
  5  8  1  0  0  0  0
  6  5  2  0  0  0  0
  9 10  1  0  0  0  0
  9  2  1  0  0  0  0
 11  1  1  0  0  0  0
 12 11  1  0  0  0  0
 13 12  1  0  0  0  0
M  END
>  <minimizedAffinity>
-2.99156141

$$$$

 OpenBabel03252507403D

 13 13  0  0  0  0  0  0  0  0999 V2000
   37.7040   26.9380   41.8340 C   0  0  0  0  0  0  0  0  0  0  0  0
   38.4930   27.5700   42.8010 C   0  0  0  0  0  0  0  0  0  0  0  0
   38.2680   28.9110   43.0650 C   0  0  0  0  0  0  0  0  0  0  0  0
   37.2790   29.5700   42.3710 N   0  0  0  0  0  0  0  0  0  0  0  0
   36.5440   28.9200   41.4490 C   0  0  0  0  0  0  0  0  0  0  0  0
   36.7450   27.6280   41.1780 N   0  0  0  0  0  0  0  0  0  0  0  0
   38.8930   29.3780   43.8190 H   0  0  0  0  0  0  0  0  0  0  0  0
   35.7830   29.5170   40.9470 H   0  0  0  0  0  0  0  0  0  0  0  0
   39.7660   26.6750   43.6790 S   0  0  0  0  0  0  0  0  0  0  0  0
   41.0500   27.0340   43.2590 H   0  0  0  0  0  0  0  0  0  0  0  0
   37.9990   25.5050   41.6040 C   0  0  0  0  0  2  0  0  0  0  0  0
   36.8990   24.5920   42.0680 C   0  0  0  0  0  2  0  0  0  0  0  0
   37.0540   24.2050   43.0990 H   0  0  0  0  0  0  0  0  0  0  0  0
  1  2  1  0  0  0  0
  2  3  2  0  0  0  0
  2  9  1  0  0  0  0
  3  7  1  0  0  0  0
  4  3  1  0  0  0  0
  5  4  2  0  0  0  0
  6  5  1  0  0  0  0
  6  1  2  0  0  0  0
  8  5  1  0  0  0  0
 10  9  1  0  0  0  0
 11  1  1  0  0  0  0
 11 12  1  0  0  0  0
 12 13  1  0  0  0  0
M  END
>  <minimizedAffinity>
-2.97792196

$$$$

 OpenBabel03252507403D

 13 13  0  0  0  0  0  0  0  0999 V2000
   38.6230   26.6240   42.8310 C   0  0  0  0  0  0  0  0  0  0  0  0
   38.9180   25.2830   42.5660 C   0  0  0  0  0  0  0  0  0  0  0  0
   40.1810   24.8080   42.8800 C   0  0  0  0  0  0  0  0  0  0  0  0
   41.0950   25.6700   43.4410 N   0  0  0  0  0  0  0  0  0  0  0  0
   40.7660   26.9540   43.6800 C   0  0  0  0  0  0  0  0  0  0  0  0
   39.5550   27.4320   43.3830 N   0  0  0  0  0  0  0  0  0  0  0  0
   40.3850   23.7640   42.6650 H   0  0  0  0  0  0  0  0  0  0  0  0
   41.5500   27.5650   44.1260 H   0  0  0  0  0  0  0  0  0  0  0  0
   37.7000   24.1990   41.8350 S   0  0  0  0  0  0  0  0  0  0  0  0
   37.9860   23.9050   40.4990 H   0  0  0  0  0  0  0  0  0  0  0  0
   37.2550   27.0610   42.4690 C   0  0  0  0  0  2  0  0  0  0  0  0
   36.4160   27.4280   43.6620 C   0  0  0  0  0  2  0  0  0  0  0  0
   35.7860   26.5900   44.0300 H   0  0  0  0  0  0  0  0  0  0  0  0
  1  6  1  0  0  0  0
  2  1  2  0  0  0  0
  2  3  1  0  0  0  0
  3  4  2  0  0  0  0
  4  5  1  0  0  0  0
  5  8  1  0  0  0  0
  6  5  2  0  0  0  0
  7  3  1  0  0  0  0
  9  2  1  0  0  0  0
 10  9  1  0  0  0  0
 11  1  1  0  0  0  0
 11 12  1  0  0  0  0
 12 13  1  0  0  0  0
M  END
>  <minimizedAffinity>
-2.97299242

$$$$

 OpenBabel03252507403D

 13 13  0  0  0  0  0  0  0  0999 V2000
   37.1900   26.6920   42.2940 C   0  0  0  0  0  0  0  0  0  0  0  0
   36.9920   27.4470   41.1330 C   0  0  0  0  0  0  0  0  0  0  0  0
   37.0990   28.8260   41.2140 C   0  0  0  0  0  0  0  0  0  0  0  0
   37.3950   29.4000   42.4290 N   0  0  0  0  0  0  0  0  0  0  0  0
   37.5780   28.6330   43.5200 C   0  0  0  0  0  0  0  0  0  0  0  0
   37.4790   27.3030   43.4640 N   0  0  0  0  0  0  0  0  0  0  0  0
   36.9410   29.3890   40.2990 H   0  0  0  0  0  0  0  0  0  0  0  0
   37.8090   29.1700   44.4390 H   0  0  0  0  0  0  0  0  0  0  0  0
   36.6080   26.6580   39.5760 S   0  0  0  0  0  0  0  0  0  0  0  0
   35.2730   26.8420   39.2050 H   0  0  0  0  0  0  0  0  0  0  0  0
   37.0600   25.2260   42.1340 C   0  0  0  0  0  2  0  0  0  0  0  0
   38.3640   24.4950   42.2970 C   0  0  0  0  0  2  0  0  0  0  0  0
   38.8870   24.3070   41.3350 H   0  0  0  0  0  0  0  0  0  0  0  0
  1  6  1  0  0  0  0
  2  3  1  0  0  0  0
  2  1  2  0  0  0  0
  3  4  2  0  0  0  0
  4  5  1  0  0  0  0
  5  8  1  0  0  0  0
  6  5  2  0  0  0  0
  7  3  1  0  0  0  0
  9  2  1  0  0  0  0
 10  9  1  0  0  0  0
 11  1  1  0  0  0  0
 11 12  1  0  0  0  0
 13 12  1  0  0  0  0
M  END
>  <minimizedAffinity>
-2.94096899

$$$$

 OpenBabel03252507403D

 13 13  0  0  0  0  0  0  0  0999 V2000
   38.5240   29.4070   42.4670 C   0  0  0  0  0  0  0  0  0  0  0  0
   37.2220   29.2590   41.9790 C   0  0  0  0  0  0  0  0  0  0  0  0
   36.5510   28.0720   42.2310 C   0  0  0  0  0  0  0  0  0  0  0  0
   37.1890   27.0880   42.9500 N   0  0  0  0  0  0  0  0  0  0  0  0
   38.4440   27.2750   43.4010 C   0  0  0  0  0  0  0  0  0  0  0  0
   39.1080   28.4100   43.1680 N   0  0  0  0  0  0  0  0  0  0  0  0
   35.5420   27.9820   41.8420 H   0  0  0  0  0  0  0  0  0  0  0  0
   38.8720   26.4440   43.9610 H   0  0  0  0  0  0  0  0  0  0  0  0
   36.4330   30.5650   41.0500 S   0  0  0  0  0  0  0  0  0  0  0  0
   36.3370   30.2620   39.6890 H   0  0  0  0  0  0  0  0  0  0  0  0
   39.1790   30.6990   42.1610 C   0  0  0  0  0  2  0  0  0  0  0  0
   40.6140   30.7560   42.6060 C   0  0  0  0  0  2  0  0  0  0  0  0
   40.7440   31.2090   43.6130 H   0  0  0  0  0  0  0  0  0  0  0  0
  1  6  1  0  0  0  0
  2  3  1  0  0  0  0
  2  1  2  0  0  0  0
  3  4  2  0  0  0  0
  4  5  1  0  0  0  0
  5  8  1  0  0  0  0
  6  5  2  0  0  0  0
  7  3  1  0  0  0  0
  9  2  1  0  0  0  0
 10  9  1  0  0  0  0
 11  1  1  0  0  0  0
 11 12  1  0  0  0  0
 12 13  1  0  0  0  0
M  END
>  <minimizedAffinity>
-2.9208653

$$$$
