
 OpenBabel03252509183D

 35 37  0  0  1  0  0  0  0  0999 V2000
   46.7620   29.2040   45.3970 C   0  0  1  0  0  0  0  0  0  0  0  0
   48.2110   29.5460   45.4600 C   0  0  0  0  0  0  0  0  0  0  0  0
   48.8200   29.4470   46.8300 C   0  0  0  0  0  0  0  0  0  0  0  0
   48.3720   28.2250   47.6030 C   0  0  0  0  0  0  0  0  0  0  0  0
   46.8930   27.9670   47.4900 C   0  0  0  0  0  0  0  0  0  0  0  0
   46.2210   29.1670   46.8420 C   0  0  2  0  0  0  0  0  0  0  0  0
   46.6690   28.1520   45.0170 H   0  0  0  0  0  0  0  0  0  0  0  0
   48.3000   30.6260   45.1450 H   0  0  0  0  0  0  0  0  0  0  0  0
   48.8400   28.9710   44.7300 H   0  0  0  0  0  0  0  0  0  0  0  0
   49.9220   29.3560   46.6800 H   0  0  0  0  0  0  0  0  0  0  0  0
   48.6430   30.3330   47.4660 H   0  0  0  0  0  0  0  0  0  0  0  0
   48.7070   28.3510   48.6420 H   0  0  0  0  0  0  0  0  0  0  0  0
   48.9300   27.3520   47.1620 H   0  0  0  0  0  0  0  0  0  0  0  0
   46.6660   27.0990   46.8290 H   0  0  0  0  0  0  0  0  0  0  0  0
   46.4210   27.7650   48.4660 H   0  0  0  0  0  0  0  0  0  0  0  0
   46.5480   30.1190   47.3060 H   0  0  0  0  0  0  0  0  0  0  0  0
   45.0070   32.2290   43.2740 C   0  0  0  0  0  0  0  0  0  0  0  0
   44.5780   30.9640   42.8440 C   0  0  0  0  0  0  0  0  0  0  0  0
   45.0870   29.8830   43.4790 C   0  0  0  0  0  0  0  0  0  0  0  0
   46.0100   30.0480   44.5270 C   0  0  0  0  0  0  0  0  0  0  0  0
   46.1800   31.8620   44.6340 S   0  0  0  0  0  0  0  0  0  0  0  0
   43.8710   30.8410   42.0390 H   0  0  0  0  0  0  0  0  0  0  0  0
   44.8840   28.8430   43.2980 H   0  0  0  0  0  0  0  0  0  0  0  0
   43.3950   34.8950   41.2310 C   0  0  0  0  0  0  0  0  0  0  0  0
   43.9230   36.0390   41.8880 C   0  0  0  0  0  0  0  0  0  0  0  0
   44.7870   35.8520   42.9720 C   0  0  0  0  0  0  0  0  0  0  0  0
   45.0750   34.5670   43.3430 N   0  0  0  0  0  0  0  0  0  0  0  0
   44.5540   33.5040   42.6950 C   0  0  0  0  0  0  0  0  0  0  0  0
   43.7090   33.6570   41.6360 N   0  0  0  0  0  0  0  0  0  0  0  0
   42.7230   35.0070   40.3880 H   0  0  0  0  0  0  0  0  0  0  0  0
   43.6670   37.0200   41.5590 H   0  0  0  0  0  0  0  0  0  0  0  0
   45.2160   36.6890   43.5040 H   0  0  0  0  0  0  0  0  0  0  0  0
   44.7190   29.0380   46.8770 C   0  0  0  0  0  2  0  0  0  0  0  0
   44.3760   27.5600   46.8340 C   0  0  0  0  0  2  0  0  0  0  0  0
   45.2770   26.9280   47.0870 H   0  0  0  0  0  0  0  0  0  0  0  0
  1  7  1  6  0  0  0
  1  2  1  0  0  0  0
  1  6  1  0  0  0  0
  2  3  1  0  0  0  0
  3 11  1  0  0  0  0
  3  4  1  0  0  0  0
  4 12  1  0  0  0  0
  5  4  1  0  0  0  0
  5 15  1  0  0  0  0
  6 33  1  0  0  0  0
  6 16  1  1  0  0  0
  6  5  1  0  0  0  0
  8  2  1  0  0  0  0
  9  2  1  0  0  0  0
 10  3  1  0  0  0  0
 13  4  1  0  0  0  0
 14  5  1  0  0  0  0
 17 21  1  0  0  0  0
 18 17  2  0  0  0  0
 18 19  1  0  0  0  0
 19 20  2  0  0  0  0
 20 21  1  0  0  0  0
 20  1  1  0  0  0  0
 22 18  1  0  0  0  0
 23 19  1  0  0  0  0
 24 29  2  0  0  0  0
 24 25  1  0  0  0  0
 25 26  2  0  0  0  0
 26 27  1  0  0  0  0
 26 32  1  0  0  0  0
 28 17  1  0  0  0  0
 28 27  2  0  0  0  0
 29 28  1  0  0  0  0
 30 24  1  0  0  0  0
 31 25  1  0  0  0  0
 34 33  1  0  0  0  0
 34 35  1  0  0  0  0
M  END
>  <minimizedAffinity>
-3.33821511

>  <minimizedRMSD>
3.99511647

$$$$
