
 OpenBabel03252508383D

 35 37  0  0  0  0  0  0  0  0999 V2000
   45.1300   33.9590   40.7270 C   0  0  0  0  0  0  0  0  0  0  0  0
   44.0900   33.6360   39.8920 C   0  0  0  0  0  0  0  0  0  0  0  0
   44.3930   33.1390   38.6570 C   0  0  0  0  0  0  0  0  0  0  0  0
   45.6770   32.9460   38.2070 C   0  0  0  0  0  0  0  0  0  0  0  0
   46.7050   33.2730   39.0550 C   0  0  0  0  0  0  0  0  0  0  0  0
   46.4530   33.7810   40.3230 C   0  0  0  0  0  0  0  0  0  0  0  0
   43.5380   32.8970   38.0320 H   0  0  0  0  0  0  0  0  0  0  0  0
   45.8620   32.5520   37.2250 H   0  0  0  0  0  0  0  0  0  0  0  0
   47.7270   33.1240   38.7140 H   0  0  0  0  0  0  0  0  0  0  0  0
   40.8030   35.2530   40.7930 C   0  0  0  0  0  0  0  0  0  0  0  0
   42.1010   35.0950   40.2790 C   0  0  0  0  0  0  0  0  0  0  0  0
   42.7510   33.8520   40.4060 C   0  0  0  0  0  0  0  0  0  0  0  0
   42.0360   32.8800   41.0400 N   0  0  0  0  0  0  0  0  0  0  0  0
   40.8030   33.0610   41.5170 C   0  0  0  0  0  0  0  0  0  0  0  0
   40.1900   34.2550   41.3910 N   0  0  0  0  0  0  0  0  0  0  0  0
   40.2010   36.5240   40.6370 N   0  0  0  0  0  0  0  0  0  0  0  0
   42.6320   35.9010   39.7830 H   0  0  0  0  0  0  0  0  0  0  0  0
   40.2470   32.2800   42.0200 H   0  0  0  0  0  0  0  0  0  0  0  0
   40.7660   37.3870   40.4820 H   0  0  0  0  0  0  0  0  0  0  0  0
   39.1890   36.7430   40.6580 H   0  0  0  0  0  0  0  0  0  0  0  0
   47.6040   34.0990   41.1410 C   0  0  0  0  0  0  0  0  0  0  0  0
   48.1450   35.3570   40.9350 C   0  0  0  0  0  0  0  0  0  0  0  0
   49.2530   35.8440   41.6260 C   0  0  0  0  0  0  0  0  0  0  0  0
   49.8290   35.0080   42.5650 C   0  0  0  0  0  0  0  0  0  0  0  0
   49.3030   33.7570   42.7810 C   0  0  0  0  0  0  0  0  0  0  0  0
   48.1930   33.2930   42.0740 C   0  0  0  0  0  0  0  0  0  0  0  0
   47.7250   36.0620   40.1980 H   0  0  0  0  0  0  0  0  0  0  0  0
   49.6400   36.8330   41.4280 H   0  0  0  0  0  0  0  0  0  0  0  0
   50.6870   35.4140   43.0830 H   0  0  0  0  0  0  0  0  0  0  0  0
   49.7950   33.1460   43.5260 H   0  0  0  0  0  0  0  0  0  0  0  0
   47.6670   31.9310   42.3170 C   0  0  0  0  0  2  0  0  0  0  0  0
   48.6380   30.9370   42.8290 C   0  0  0  0  0  2  0  0  0  0  0  0
   48.3940   29.9030   42.4470 H   0  0  0  0  0  0  0  0  0  0  0  0
   44.7110   34.9070   43.1120 N   0  0  0  0  0  0  0  0  0  0  0  0
   44.8970   34.4880   42.0380 C   0  0  0  0  0  0  0  0  0  0  0  0
  1 35  1  0  0  0  0
  2 12  1  0  0  0  0
  2  1  2  0  0  0  0
  3  2  1  0  0  0  0
  4  3  2  0  0  0  0
  4  5  1  0  0  0  0
  5  6  2  0  0  0  0
  6  1  1  0  0  0  0
  6 21  1  0  0  0  0
  7  3  1  0  0  0  0
  8  4  1  0  0  0  0
  9  5  1  0  0  0  0
 10 15  1  0  0  0  0
 11 12  1  0  0  0  0
 11 10  2  0  0  0  0
 12 13  2  0  0  0  0
 13 14  1  0  0  0  0
 14 18  1  0  0  0  0
 15 14  2  0  0  0  0
 16 20  1  0  0  0  0
 16 10  1  0  0  0  0
 17 11  1  0  0  0  0
 19 16  1  0  0  0  0
 21 26  1  0  0  0  0
 22 21  2  0  0  0  0
 22 23  1  0  0  0  0
 23 24  2  0  0  0  0
 24 25  1  0  0  0  0
 24 29  1  0  0  0  0
 25 30  1  0  0  0  0
 26 31  1  0  0  0  0
 26 25  2  0  0  0  0
 27 22  1  0  0  0  0
 28 23  1  0  0  0  0
 31 32  1  0  0  0  0
 33 32  1  0  0  0  0
 35 34  3  0  0  0  0
M  END
>  <minimizedAffinity>
-5.82354021

>  <minimizedRMSD>
0.0841754675

$$$$
