
 OpenBabel03252505043D

 28 29  0  0  1  0  0  0  0  0999 V2000
   36.6240   29.2550   39.8410 C   0  0  2  0  0  0  0  0  0  0  0  0
   37.5950   29.0010   38.7390 C   0  0  0  0  0  0  0  0  0  0  0  0
   38.5200   30.1040   38.4160 C   0  0  0  0  0  0  0  0  0  0  0  0
   37.6430   31.3130   38.1300 C   0  0  0  0  0  0  0  0  0  0  0  0
   36.8960   31.7630   39.3100 C   0  0  0  0  0  0  0  0  0  0  0  0
   36.3800   30.6480   40.1840 C   0  0  0  0  0  0  0  0  0  0  0  0
   35.6460   28.7780   39.5790 H   0  0  0  0  0  0  0  0  0  0  0  0
   37.0270   28.7570   37.8120 H   0  0  0  0  0  0  0  0  0  0  0  0
   38.2130   28.0840   38.9230 H   0  0  0  0  0  0  0  0  0  0  0  0
   39.0320   29.8750   37.4600 H   0  0  0  0  0  0  0  0  0  0  0  0
   39.2110   30.3210   39.2410 H   0  0  0  0  0  0  0  0  0  0  0  0
   38.3790   32.1370   37.9340 H   0  0  0  0  0  0  0  0  0  0  0  0
   36.9900   31.1160   37.2730 H   0  0  0  0  0  0  0  0  0  0  0  0
   36.6500   32.7510   39.6720 H   0  0  0  0  0  0  0  0  0  0  0  0
   38.2450   28.4370   43.0680 C   0  0  0  0  0  0  0  0  0  0  0  0
   37.9850   27.0460   43.1740 C   0  0  0  0  0  0  0  0  0  0  0  0
   37.2590   26.4170   42.1340 C   0  0  0  0  0  0  0  0  0  0  0  0
   36.8530   27.1830   41.0920 N   0  0  0  0  0  0  0  0  0  0  0  0
   37.1140   28.4920   41.0210 C   0  0  0  0  0  0  0  0  0  0  0  0
   37.8060   29.1280   41.9980 N   0  0  0  0  0  0  0  0  0  0  0  0
   38.7970   28.9500   43.8440 H   0  0  0  0  0  0  0  0  0  0  0  0
   38.3430   26.5220   44.0290 H   0  0  0  0  0  0  0  0  0  0  0  0
   36.9770   24.9750   42.2200 C   0  0  0  0  0  2  0  0  0  0  0  0
   36.6880   24.3670   40.8560 C   0  0  0  0  0  2  0  0  0  0  0  0
   36.8140   23.2860   40.8470 H   0  0  0  0  0  0  0  0  0  0  0  0
   35.6450   30.9600   41.3540 N   0  0  0  0  0  0  0  0  0  0  0  0
   34.5970   30.9780   41.3740 H   0  0  0  0  0  0  0  0  0  0  0  0
   35.9330   31.2120   42.3440 H   0  0  0  0  0  0  0  0  0  0  0  0
  1  7  1  6  0  0  0
  1  6  1  0  0  0  0
  1 19  1  0  0  0  0
  2  9  1  0  0  0  0
  2  1  1  0  0  0  0
  3  2  1  0  0  0  0
  3 11  1  0  0  0  0
  4  3  1  0  0  0  0
  4  5  1  0  0  0  0
  5 14  1  0  0  0  0
  5  6  2  0  0  0  0
  6 26  1  0  0  0  0
  8  2  1  0  0  0  0
 10  3  1  0  0  0  0
 12  4  1  0  0  0  0
 13  4  1  0  0  0  0
 15 16  1  0  0  0  0
 15 21  1  0  0  0  0
 16 22  1  0  0  0  0
 17 23  1  0  0  0  0
 17 16  2  0  0  0  0
 18 17  1  0  0  0  0
 19 18  2  0  0  0  0
 19 20  1  0  0  0  0
 20 15  2  0  0  0  0
 24 23  1  0  0  0  0
 25 24  1  0  0  0  0
 26 27  1  0  0  0  0
 26 28  1  0  0  0  0
M  END
>  <minimizedAffinity>
-5.02645254

$$$$

 OpenBabel03252505043D

 28 29  0  0  1  0  0  0  0  0999 V2000
   36.5660   29.1590   40.1140 C   0  0  2  0  0  0  0  0  0  0  0  0
   37.4540   28.7000   39.0070 C   0  0  0  0  0  0  0  0  0  0  0  0
   38.3710   29.7090   38.4440 C   0  0  0  0  0  0  0  0  0  0  0  0
   37.4950   30.8770   38.0190 C   0  0  0  0  0  0  0  0  0  0  0  0
   36.8410   31.5370   39.1540 C   0  0  0  0  0  0  0  0  0  0  0  0
   36.3690   30.5960   40.2340 C   0  0  0  0  0  0  0  0  0  0  0  0
   35.5660   28.6730   40.0020 H   0  0  0  0  0  0  0  0  0  0  0  0
   36.8180   28.3210   38.1750 H   0  0  0  0  0  0  0  0  0  0  0  0
   38.0690   27.8100   39.3010 H   0  0  0  0  0  0  0  0  0  0  0  0
   38.8110   29.3100   37.5070 H   0  0  0  0  0  0  0  0  0  0  0  0
   39.1210   30.0400   39.1720 H   0  0  0  0  0  0  0  0  0  0  0  0
   38.2280   31.6370   37.6390 H   0  0  0  0  0  0  0  0  0  0  0  0
   36.7810   30.5590   37.2520 H   0  0  0  0  0  0  0  0  0  0  0  0
   36.6360   32.5770   39.3610 H   0  0  0  0  0  0  0  0  0  0  0  0
   36.8150   27.4620   43.3960 C   0  0  0  0  0  0  0  0  0  0  0  0
   38.2080   27.5500   43.6580 C   0  0  0  0  0  0  0  0  0  0  0  0
   39.0320   28.1920   42.7020 C   0  0  0  0  0  0  0  0  0  0  0  0
   38.4410   28.6880   41.5880 N   0  0  0  0  0  0  0  0  0  0  0  0
   37.1270   28.5900   41.3690 C   0  0  0  0  0  0  0  0  0  0  0  0
   36.3060   27.9820   42.2620 N   0  0  0  0  0  0  0  0  0  0  0  0
   36.1570   26.9790   44.1030 H   0  0  0  0  0  0  0  0  0  0  0  0
   38.5860   27.1320   44.5610 H   0  0  0  0  0  0  0  0  0  0  0  0
   40.4790   28.2970   42.9510 C   0  0  0  0  0  2  0  0  0  0  0  0
   41.0250   27.0760   43.6740 C   0  0  0  0  0  2  0  0  0  0  0  0
   42.1030   26.9740   43.5650 H   0  0  0  0  0  0  0  0  0  0  0  0
   35.7240   31.1180   41.3820 N   0  0  0  0  0  0  0  0  0  0  0  0
   34.6810   31.1670   41.4690 H   0  0  0  0  0  0  0  0  0  0  0  0
   36.0840   31.5230   42.2950 H   0  0  0  0  0  0  0  0  0  0  0  0
  1  7  1  6  0  0  0
  1  6  1  0  0  0  0
  1 19  1  0  0  0  0
  2  9  1  0  0  0  0
  2  1  1  0  0  0  0
  3  2  1  0  0  0  0
  3 11  1  0  0  0  0
  4  3  1  0  0  0  0
  4  5  1  0  0  0  0
  5 14  1  0  0  0  0
  5  6  2  0  0  0  0
  6 26  1  0  0  0  0
  8  2  1  0  0  0  0
 10  3  1  0  0  0  0
 12  4  1  0  0  0  0
 13  4  1  0  0  0  0
 15 16  1  0  0  0  0
 15 21  1  0  0  0  0
 16 22  1  0  0  0  0
 17 23  1  0  0  0  0
 17 16  2  0  0  0  0
 18 17  1  0  0  0  0
 19 18  2  0  0  0  0
 19 20  1  0  0  0  0
 20 15  2  0  0  0  0
 23 24  1  0  0  0  0
 25 24  1  0  0  0  0
 26 27  1  0  0  0  0
 26 28  1  0  0  0  0
M  END
>  <minimizedAffinity>
-4.88232851

$$$$

 OpenBabel03252505043D

 28 29  0  0  1  0  0  0  0  0999 V2000
   36.6030   29.8980   39.3720 C   0  0  2  0  0  0  0  0  0  0  0  0
   37.6490   29.9890   38.3130 C   0  0  0  0  0  0  0  0  0  0  0  0
   38.7020   31.0010   38.5200 C   0  0  0  0  0  0  0  0  0  0  0  0
   37.9770   32.3230   38.7130 C   0  0  0  0  0  0  0  0  0  0  0  0
   37.1650   32.3510   39.9340 C   0  0  0  0  0  0  0  0  0  0  0  0
   36.4610   31.0540   40.2450 C   0  0  0  0  0  0  0  0  0  0  0  0
   35.6150   29.6960   38.8890 H   0  0  0  0  0  0  0  0  0  0  0  0
   37.1540   30.2130   37.3410 H   0  0  0  0  0  0  0  0  0  0  0  0
   38.1560   29.0040   38.1340 H   0  0  0  0  0  0  0  0  0  0  0  0
   39.2810   31.1130   37.5800 H   0  0  0  0  0  0  0  0  0  0  0  0
   39.3260   30.7780   39.3940 H   0  0  0  0  0  0  0  0  0  0  0  0
   38.8030   33.0560   38.9100 H   0  0  0  0  0  0  0  0  0  0  0  0
   37.3950   32.5730   37.8190 H   0  0  0  0  0  0  0  0  0  0  0  0
   36.9800   33.1320   40.6580 H   0  0  0  0  0  0  0  0  0  0  0  0
   36.7720   26.3460   40.4060 C   0  0  0  0  0  0  0  0  0  0  0  0
   37.4810   26.4400   41.6320 C   0  0  0  0  0  0  0  0  0  0  0  0
   37.8860   27.7200   42.0790 C   0  0  0  0  0  0  0  0  0  0  0  0
   37.5700   28.7890   41.3060 N   0  0  0  0  0  0  0  0  0  0  0  0
   36.9010   28.6690   40.1560 C   0  0  0  0  0  0  0  0  0  0  0  0
   36.4980   27.4590   39.6960 N   0  0  0  0  0  0  0  0  0  0  0  0
   36.4480   25.3840   40.0350 H   0  0  0  0  0  0  0  0  0  0  0  0
   37.6860   25.5460   42.1740 H   0  0  0  0  0  0  0  0  0  0  0  0
   38.6230   27.8440   43.3470 C   0  0  0  0  0  2  0  0  0  0  0  0
   39.4410   26.6010   43.6560 C   0  0  0  0  0  2  0  0  0  0  0  0
   40.2330   26.7920   44.3780 H   0  0  0  0  0  0  0  0  0  0  0  0
   35.6490   30.9590   41.4010 N   0  0  0  0  0  0  0  0  0  0  0  0
   34.6110   31.1000   41.3740 H   0  0  0  0  0  0  0  0  0  0  0  0
   35.8610   30.7520   42.4200 H   0  0  0  0  0  0  0  0  0  0  0  0
  1  7  1  6  0  0  0
  1 19  1  0  0  0  0
  1  6  1  0  0  0  0
  2  3  1  0  0  0  0
  2  1  1  0  0  0  0
  3  4  1  0  0  0  0
  3 11  1  0  0  0  0
  4 12  1  0  0  0  0
  4  5  1  0  0  0  0
  5  6  2  0  0  0  0
  5 14  1  0  0  0  0
  6 26  1  0  0  0  0
  8  2  1  0  0  0  0
  9  2  1  0  0  0  0
 10  3  1  0  0  0  0
 13  4  1  0  0  0  0
 15 16  1  0  0  0  0
 16 17  2  0  0  0  0
 16 22  1  0  0  0  0
 17 23  1  0  0  0  0
 18 17  1  0  0  0  0
 19 18  2  0  0  0  0
 20 19  1  0  0  0  0
 20 15  2  0  0  0  0
 21 15  1  0  0  0  0
 23 24  1  0  0  0  0
 24 25  1  0  0  0  0
 26 28  1  0  0  0  0
 27 26  1  0  0  0  0
M  END
>  <minimizedAffinity>
-4.83587742

$$$$

 OpenBabel03252505043D

 28 29  0  0  1  0  0  0  0  0999 V2000
   36.0260   29.8190   40.3610 C   0  0  2  0  0  0  0  0  0  0  0  0
   34.8180   29.0600   39.9280 C   0  0  0  0  0  0  0  0  0  0  0  0
   34.9070   28.3780   38.6230 C   0  0  0  0  0  0  0  0  0  0  0  0
   35.2900   29.4520   37.6170 C   0  0  0  0  0  0  0  0  0  0  0  0
   36.6280   30.0050   37.8600 C   0  0  0  0  0  0  0  0  0  0  0  0
   36.9740   30.1800   39.3170 C   0  0  0  0  0  0  0  0  0  0  0  0
   35.6990   30.7540   40.8810 H   0  0  0  0  0  0  0  0  0  0  0  0
   33.9530   29.7610   39.8820 H   0  0  0  0  0  0  0  0  0  0  0  0
   34.5030   28.2970   40.6870 H   0  0  0  0  0  0  0  0  0  0  0  0
   33.8940   28.0400   38.3250 H   0  0  0  0  0  0  0  0  0  0  0  0
   35.6540   27.5740   38.6250 H   0  0  0  0  0  0  0  0  0  0  0  0
   35.3910   28.8910   36.6510 H   0  0  0  0  0  0  0  0  0  0  0  0
   34.5190   30.2290   37.5760 H   0  0  0  0  0  0  0  0  0  0  0  0
   37.4150   30.3080   37.1850 H   0  0  0  0  0  0  0  0  0  0  0  0
   37.9400   28.8770   43.3870 C   0  0  0  0  0  0  0  0  0  0  0  0
   37.8580   27.4600   43.3470 C   0  0  0  0  0  0  0  0  0  0  0  0
   37.1480   26.8580   42.2820 C   0  0  0  0  0  0  0  0  0  0  0  0
   36.5850   27.6730   41.3550 N   0  0  0  0  0  0  0  0  0  0  0  0
   36.6800   29.0040   41.4200 C   0  0  0  0  0  0  0  0  0  0  0  0
   37.3520   29.6160   42.4260 N   0  0  0  0  0  0  0  0  0  0  0  0
   38.4750   29.3700   44.1870 H   0  0  0  0  0  0  0  0  0  0  0  0
   38.3310   26.8990   44.1180 H   0  0  0  0  0  0  0  0  0  0  0  0
   37.0480   25.3910   42.2180 C   0  0  0  0  0  2  0  0  0  0  0  0
   36.8710   24.8920   40.7920 C   0  0  0  0  0  2  0  0  0  0  0  0
   37.1330   23.8410   40.6830 H   0  0  0  0  0  0  0  0  0  0  0  0
   38.2410   30.7030   39.6760 N   0  0  0  0  0  0  0  0  0  0  0  0
   38.3910   31.7180   39.8890 H   0  0  0  0  0  0  0  0  0  0  0  0
   39.1980   30.2630   39.8000 H   0  0  0  0  0  0  0  0  0  0  0  0
  1  7  1  1  0  0  0
  1 19  1  0  0  0  0
  2  1  1  0  0  0  0
  2  9  1  0  0  0  0
  3 11  1  0  0  0  0
  3  2  1  0  0  0  0
  4  5  1  0  0  0  0
  4  3  1  0  0  0  0
  5  6  2  0  0  0  0
  6 26  1  0  0  0  0
  6  1  1  0  0  0  0
  8  2  1  0  0  0  0
 10  3  1  0  0  0  0
 12  4  1  0  0  0  0
 13  4  1  0  0  0  0
 14  5  1  0  0  0  0
 15 21  1  0  0  0  0
 16 15  1  0  0  0  0
 16 22  1  0  0  0  0
 17 16  2  0  0  0  0
 18 19  2  0  0  0  0
 18 17  1  0  0  0  0
 19 20  1  0  0  0  0
 20 15  2  0  0  0  0
 23 17  1  0  0  0  0
 24 23  1  0  0  0  0
 25 24  1  0  0  0  0
 26 28  1  0  0  0  0
 26 27  1  0  0  0  0
M  END
>  <minimizedAffinity>
-4.71674395

$$$$

 OpenBabel03252505043D

 28 29  0  0  1  0  0  0  0  0999 V2000
   37.2070   27.1070   42.6010 C   0  0  2  0  0  0  0  0  0  0  0  0
   38.1230   27.5830   43.6770 C   0  0  0  0  0  0  0  0  0  0  0  0
   39.5550   27.2770   43.4990 C   0  0  0  0  0  0  0  0  0  0  0  0
   39.6390   25.7700   43.3110 C   0  0  0  0  0  0  0  0  0  0  0  0
   38.9870   25.3170   42.0770 C   0  0  0  0  0  0  0  0  0  0  0  0
   37.7130   26.0470   41.7400 C   0  0  0  0  0  0  0  0  0  0  0  0
   36.2520   26.7590   43.0660 H   0  0  0  0  0  0  0  0  0  0  0  0
   37.8010   27.1330   44.6440 H   0  0  0  0  0  0  0  0  0  0  0  0
   38.0320   28.6870   43.8520 H   0  0  0  0  0  0  0  0  0  0  0  0
   40.0870   27.4880   44.4490 H   0  0  0  0  0  0  0  0  0  0  0  0
   39.9850   27.7940   42.6320 H   0  0  0  0  0  0  0  0  0  0  0  0
   40.7310   25.5830   43.1360 H   0  0  0  0  0  0  0  0  0  0  0  0
   39.2590   25.2530   44.1980 H   0  0  0  0  0  0  0  0  0  0  0  0
   39.2560   24.5540   41.3600 H   0  0  0  0  0  0  0  0  0  0  0  0
   37.2490   30.5100   41.1430 C   0  0  0  0  0  0  0  0  0  0  0  0
   36.0940   30.4820   40.3190 C   0  0  0  0  0  0  0  0  0  0  0  0
   35.3230   29.2950   40.2820 C   0  0  0  0  0  0  0  0  0  0  0  0
   35.7350   28.2490   41.0400 N   0  0  0  0  0  0  0  0  0  0  0  0
   36.8280   28.3060   41.8070 C   0  0  0  0  0  0  0  0  0  0  0  0
   37.5910   29.4260   41.8670 N   0  0  0  0  0  0  0  0  0  0  0  0
   37.8600   31.4000   41.1950 H   0  0  0  0  0  0  0  0  0  0  0  0
   35.8450   31.3510   39.7570 H   0  0  0  0  0  0  0  0  0  0  0  0
   34.1200   29.2400   39.4350 C   0  0  0  0  0  2  0  0  0  0  0  0
   34.4200   28.6860   38.0520 C   0  0  0  0  0  2  0  0  0  0  0  0
   33.5270   28.3240   37.5460 H   0  0  0  0  0  0  0  0  0  0  0  0
   36.9950   25.6980   40.5700 N   0  0  0  0  0  0  0  0  0  0  0  0
   36.1870   25.0310   40.5820 H   0  0  0  0  0  0  0  0  0  0  0  0
   37.0860   25.9830   39.5520 H   0  0  0  0  0  0  0  0  0  0  0  0
  1  7  1  1  0  0  0
  1  2  1  0  0  0  0
  2  9  1  0  0  0  0
  2  8  1  0  0  0  0
  3  2  1  0  0  0  0
  3 10  1  0  0  0  0
  4  3  1  0  0  0  0
  4 13  1  0  0  0  0
  5  4  1  0  0  0  0
  6  5  2  0  0  0  0
  6  1  1  0  0  0  0
 11  3  1  0  0  0  0
 12  4  1  0  0  0  0
 14  5  1  0  0  0  0
 15 21  1  0  0  0  0
 15 20  1  0  0  0  0
 16 15  2  0  0  0  0
 17 16  1  0  0  0  0
 17 18  2  0  0  0  0
 18 19  1  0  0  0  0
 19 20  2  0  0  0  0
 19  1  1  0  0  0  0
 22 16  1  0  0  0  0
 23 17  1  0  0  0  0
 24 23  1  0  0  0  0
 25 24  1  0  0  0  0
 26 27  1  0  0  0  0
 26  6  1  0  0  0  0
 28 26  1  0  0  0  0
M  END
>  <minimizedAffinity>
-4.70189667

$$$$

 OpenBabel03252505043D

 28 29  0  0  1  0  0  0  0  0999 V2000
   39.1670   30.1340   42.5860 C   0  0  2  0  0  0  0  0  0  0  0  0
   40.5370   29.7720   42.1230 C   0  0  0  0  0  0  0  0  0  0  0  0
   40.7630   28.3500   41.8000 C   0  0  0  0  0  0  0  0  0  0  0  0
   40.3610   27.5710   43.0430 C   0  0  0  0  0  0  0  0  0  0  0  0
   38.9280   27.6810   43.3410 C   0  0  0  0  0  0  0  0  0  0  0  0
   38.3400   29.0450   43.0840 C   0  0  0  0  0  0  0  0  0  0  0  0
   39.2480   30.9120   43.3850 H   0  0  0  0  0  0  0  0  0  0  0  0
   41.2670   30.0570   42.9150 H   0  0  0  0  0  0  0  0  0  0  0  0
   40.8570   30.3760   41.2350 H   0  0  0  0  0  0  0  0  0  0  0  0
   41.8520   28.1780   41.6810 H   0  0  0  0  0  0  0  0  0  0  0  0
   40.1710   28.0220   40.9370 H   0  0  0  0  0  0  0  0  0  0  0  0
   40.5030   26.4990   42.7450 H   0  0  0  0  0  0  0  0  0  0  0  0
   40.9870   27.8610   43.8930 H   0  0  0  0  0  0  0  0  0  0  0  0
   38.2130   26.9590   43.7080 H   0  0  0  0  0  0  0  0  0  0  0  0
   38.1490   32.7720   40.1940 C   0  0  0  0  0  0  0  0  0  0  0  0
   37.2750   32.0560   39.3350 C   0  0  0  0  0  0  0  0  0  0  0  0
   37.0520   30.6830   39.5950 C   0  0  0  0  0  0  0  0  0  0  0  0
   37.6890   30.1280   40.6560 N   0  0  0  0  0  0  0  0  0  0  0  0
   38.5070   30.8290   41.4470 C   0  0  0  0  0  0  0  0  0  0  0  0
   38.7440   32.1460   41.2280 N   0  0  0  0  0  0  0  0  0  0  0  0
   38.3420   33.8220   40.0240 H   0  0  0  0  0  0  0  0  0  0  0  0
   36.8170   32.5740   38.5250 H   0  0  0  0  0  0  0  0  0  0  0  0
   36.1490   29.9180   38.7190 C   0  0  0  0  0  2  0  0  0  0  0  0
   35.6500   28.6450   39.3840 C   0  0  0  0  0  2  0  0  0  0  0  0
   34.7490   28.2560   38.9150 H   0  0  0  0  0  0  0  0  0  0  0  0
   36.9640   29.2710   43.3330 N   0  0  0  0  0  0  0  0  0  0  0  0
   36.6140   29.6840   44.2300 H   0  0  0  0  0  0  0  0  0  0  0  0
   36.0870   29.1040   42.7590 H   0  0  0  0  0  0  0  0  0  0  0  0
  1  6  1  0  0  0  0
  1  7  1  1  0  0  0
  2  1  1  0  0  0  0
  2  8  1  0  0  0  0
  3  2  1  0  0  0  0
  3  4  1  0  0  0  0
  4  5  1  0  0  0  0
  4 13  1  0  0  0  0
  5 14  1  0  0  0  0
  6 26  1  0  0  0  0
  6  5  2  0  0  0  0
  9  2  1  0  0  0  0
 10  3  1  0  0  0  0
 11  3  1  0  0  0  0
 12  4  1  0  0  0  0
 15 20  1  0  0  0  0
 16 17  1  0  0  0  0
 16 15  2  0  0  0  0
 17 18  2  0  0  0  0
 18 19  1  0  0  0  0
 19  1  1  0  0  0  0
 20 19  2  0  0  0  0
 21 15  1  0  0  0  0
 22 16  1  0  0  0  0
 23 24  1  0  0  0  0
 23 17  1  0  0  0  0
 25 24  1  0  0  0  0
 26 27  1  0  0  0  0
 28 26  1  0  0  0  0
M  END
>  <minimizedAffinity>
-4.59606123

$$$$

 OpenBabel03252505043D

 28 29  0  0  1  0  0  0  0  0999 V2000
   38.2030   28.2480   41.5640 C   0  0  2  0  0  0  0  0  0  0  0  0
   38.2460   27.0690   40.6530 C   0  0  0  0  0  0  0  0  0  0  0  0
   37.1430   26.0990   40.7870 C   0  0  0  0  0  0  0  0  0  0  0  0
   37.1300   25.6830   42.2500 C   0  0  0  0  0  0  0  0  0  0  0  0
   36.7870   26.7890   43.1510 C   0  0  0  0  0  0  0  0  0  0  0  0
   37.3710   28.1210   42.7520 C   0  0  0  0  0  0  0  0  0  0  0  0
   39.2450   28.4950   41.8870 H   0  0  0  0  0  0  0  0  0  0  0  0
   39.2000   26.5200   40.8260 H   0  0  0  0  0  0  0  0  0  0  0  0
   38.3020   27.3700   39.5740 H   0  0  0  0  0  0  0  0  0  0  0  0
   37.4010   25.1820   40.2200 H   0  0  0  0  0  0  0  0  0  0  0  0
   36.1740   26.5300   40.5050 H   0  0  0  0  0  0  0  0  0  0  0  0
   36.2560   24.9830   42.3220 H   0  0  0  0  0  0  0  0  0  0  0  0
   38.0770   25.2040   42.5190 H   0  0  0  0  0  0  0  0  0  0  0  0
   36.1880   26.8270   44.0490 H   0  0  0  0  0  0  0  0  0  0  0  0
   37.6270   31.7210   40.4160 C   0  0  0  0  0  0  0  0  0  0  0  0
   36.9850   31.5060   39.1680 C   0  0  0  0  0  0  0  0  0  0  0  0
   36.7630   30.1730   38.7470 C   0  0  0  0  0  0  0  0  0  0  0  0
   37.1760   29.1740   39.5650 N   0  0  0  0  0  0  0  0  0  0  0  0
   37.7780   29.4080   40.7350 C   0  0  0  0  0  0  0  0  0  0  0  0
   38.0080   30.6720   41.1700 N   0  0  0  0  0  0  0  0  0  0  0  0
   37.8130   32.7260   40.7680 H   0  0  0  0  0  0  0  0  0  0  0  0
   36.6930   32.3520   38.5910 H   0  0  0  0  0  0  0  0  0  0  0  0
   36.0990   29.9240   37.4570 C   0  0  0  0  0  2  0  0  0  0  0  0
   34.9080   28.9890   37.5990 C   0  0  0  0  0  2  0  0  0  0  0  0
   34.2200   29.0610   36.7590 H   0  0  0  0  0  0  0  0  0  0  0  0
   37.1070   29.2650   43.5440 N   0  0  0  0  0  0  0  0  0  0  0  0
   37.7670   29.6030   44.2850 H   0  0  0  0  0  0  0  0  0  0  0  0
   36.3010   29.9550   43.5750 H   0  0  0  0  0  0  0  0  0  0  0  0
  1  7  1  1  0  0  0
  1  6  1  0  0  0  0
  2  3  1  0  0  0  0
  2  8  1  0  0  0  0
  2  1  1  0  0  0  0
  3  4  1  0  0  0  0
  4 12  1  0  0  0  0
  4 13  1  0  0  0  0
  4  5  1  0  0  0  0
  5 14  1  0  0  0  0
  6  5  2  0  0  0  0
  6 26  1  0  0  0  0
  9  2  1  0  0  0  0
 10  3  1  0  0  0  0
 11  3  1  0  0  0  0
 15 21  1  0  0  0  0
 15 20  1  0  0  0  0
 16 15  2  0  0  0  0
 17 16  1  0  0  0  0
 17 18  2  0  0  0  0
 18 19  1  0  0  0  0
 19 20  2  0  0  0  0
 19  1  1  0  0  0  0
 22 16  1  0  0  0  0
 23 24  1  0  0  0  0
 23 17  1  0  0  0  0
 25 24  1  0  0  0  0
 26 28  1  0  0  0  0
 26 27  1  0  0  0  0
M  END
>  <minimizedAffinity>
-4.59142494

$$$$

 OpenBabel03252505043D

 28 29  0  0  1  0  0  0  0  0999 V2000
   37.1570   27.2540   42.5800 C   0  0  2  0  0  0  0  0  0  0  0  0
   38.0830   27.6520   43.6790 C   0  0  0  0  0  0  0  0  0  0  0  0
   39.4930   27.2480   43.5250 C   0  0  0  0  0  0  0  0  0  0  0  0
   39.4740   25.7410   43.3180 C   0  0  0  0  0  0  0  0  0  0  0  0
   38.8170   25.3490   42.0660 C   0  0  0  0  0  0  0  0  0  0  0  0
   37.6040   26.1720   41.7150 C   0  0  0  0  0  0  0  0  0  0  0  0
   36.1700   26.9700   43.0220 H   0  0  0  0  0  0  0  0  0  0  0  0
   37.7100   27.2150   44.6340 H   0  0  0  0  0  0  0  0  0  0  0  0
   38.0650   28.7570   43.8670 H   0  0  0  0  0  0  0  0  0  0  0  0
   40.0190   27.4100   44.4870 H   0  0  0  0  0  0  0  0  0  0  0  0
   39.9750   27.7430   42.6730 H   0  0  0  0  0  0  0  0  0  0  0  0
   40.5540   25.4790   43.1620 H   0  0  0  0  0  0  0  0  0  0  0  0
   39.0400   25.2420   44.1910 H   0  0  0  0  0  0  0  0  0  0  0  0
   39.0450   24.5780   41.3450 H   0  0  0  0  0  0  0  0  0  0  0  0
   35.4640   29.7240   40.4010 C   0  0  0  0  0  0  0  0  0  0  0  0
   36.4140   30.7780   40.3720 C   0  0  0  0  0  0  0  0  0  0  0  0
   37.6170   30.6190   41.1020 C   0  0  0  0  0  0  0  0  0  0  0  0
   37.7930   29.4620   41.7870 N   0  0  0  0  0  0  0  0  0  0  0  0
   36.8800   28.4870   41.7940 C   0  0  0  0  0  0  0  0  0  0  0  0
   35.7160   28.6050   41.1080 N   0  0  0  0  0  0  0  0  0  0  0  0
   34.5350   29.8120   39.8550 H   0  0  0  0  0  0  0  0  0  0  0  0
   36.1920   31.6520   39.8060 H   0  0  0  0  0  0  0  0  0  0  0  0
   38.6180   31.6980   41.0890 C   0  0  0  0  0  2  0  0  0  0  0  0
   39.8700   31.3250   41.8680 C   0  0  0  0  0  2  0  0  0  0  0  0
   40.7270   31.9370   41.5950 H   0  0  0  0  0  0  0  0  0  0  0  0
   36.8870   25.8880   40.5260 N   0  0  0  0  0  0  0  0  0  0  0  0
   36.0340   25.2800   40.5140 H   0  0  0  0  0  0  0  0  0  0  0  0
   37.0190   26.1790   39.5140 H   0  0  0  0  0  0  0  0  0  0  0  0
  1  7  1  1  0  0  0
  1  2  1  0  0  0  0
  2  9  1  0  0  0  0
  2  8  1  0  0  0  0
  3  2  1  0  0  0  0
  3 10  1  0  0  0  0
  4  3  1  0  0  0  0
  4 13  1  0  0  0  0
  5  4  1  0  0  0  0
  6  5  2  0  0  0  0
  6  1  1  0  0  0  0
 11  3  1  0  0  0  0
 12  4  1  0  0  0  0
 14  5  1  0  0  0  0
 15 20  1  0  0  0  0
 16 15  2  0  0  0  0
 16 17  1  0  0  0  0
 17 18  2  0  0  0  0
 18 19  1  0  0  0  0
 19  1  1  0  0  0  0
 20 19  2  0  0  0  0
 21 15  1  0  0  0  0
 22 16  1  0  0  0  0
 23 17  1  0  0  0  0
 23 24  1  0  0  0  0
 25 24  1  0  0  0  0
 26  6  1  0  0  0  0
 27 26  1  0  0  0  0
 28 26  1  0  0  0  0
M  END
>  <minimizedAffinity>
-4.55843353

$$$$

 OpenBabel03252505043D

 28 29  0  0  1  0  0  0  0  0999 V2000
   38.6340   29.4320   42.8440 C   0  0  2  0  0  0  0  0  0  0  0  0
   40.1030   29.3680   42.5990 C   0  0  0  0  0  0  0  0  0  0  0  0
   40.6710   28.0240   42.3820 C   0  0  0  0  0  0  0  0  0  0  0  0
   40.2630   27.1990   43.5930 C   0  0  0  0  0  0  0  0  0  0  0  0
   38.8120   26.9990   43.6800 C   0  0  0  0  0  0  0  0  0  0  0  0
   37.9930   28.1980   43.2750 C   0  0  0  0  0  0  0  0  0  0  0  0
   38.4280   30.2230   43.6080 H   0  0  0  0  0  0  0  0  0  0  0  0
   40.6300   29.8190   43.4710 H   0  0  0  0  0  0  0  0  0  0  0  0
   40.4160   30.0110   41.7360 H   0  0  0  0  0  0  0  0  0  0  0  0
   41.7770   28.0910   42.4270 H   0  0  0  0  0  0  0  0  0  0  0  0
   40.2980   27.5590   41.4610 H   0  0  0  0  0  0  0  0  0  0  0  0
   40.6730   26.1780   43.3720 H   0  0  0  0  0  0  0  0  0  0  0  0
   40.6800   27.6330   44.5080 H   0  0  0  0  0  0  0  0  0  0  0  0
   38.2200   26.1460   43.9780 H   0  0  0  0  0  0  0  0  0  0  0  0
   36.1980   30.9020   40.4740 C   0  0  0  0  0  0  0  0  0  0  0  0
   36.9350   30.8850   39.2610 C   0  0  0  0  0  0  0  0  0  0  0  0
   38.2520   30.3680   39.2810 C   0  0  0  0  0  0  0  0  0  0  0  0
   38.7360   29.9160   40.4650 N   0  0  0  0  0  0  0  0  0  0  0  0
   38.0180   29.9450   41.5910 C   0  0  0  0  0  0  0  0  0  0  0  0
   36.7530   30.4340   41.6090 N   0  0  0  0  0  0  0  0  0  0  0  0
   35.1890   31.2900   40.4940 H   0  0  0  0  0  0  0  0  0  0  0  0
   36.4740   31.2610   38.3770 H   0  0  0  0  0  0  0  0  0  0  0  0
   39.0370   30.3390   38.0360 C   0  0  0  0  0  2  0  0  0  0  0  0
   39.6630   31.6890   37.7240 C   0  0  0  0  0  2  0  0  0  0  0  0
   40.4960   31.6110   37.0280 H   0  0  0  0  0  0  0  0  0  0  0  0
   36.5790   28.1240   43.3150 N   0  0  0  0  0  0  0  0  0  0  0  0
   36.0190   28.4670   44.1320 H   0  0  0  0  0  0  0  0  0  0  0  0
   35.8530   27.7600   42.6320 H   0  0  0  0  0  0  0  0  0  0  0  0
  1  6  1  0  0  0  0
  1  7  1  1  0  0  0
  2  1  1  0  0  0  0
  2  8  1  0  0  0  0
  3 10  1  0  0  0  0
  3  2  1  0  0  0  0
  3  4  1  0  0  0  0
  4  5  1  0  0  0  0
  4 13  1  0  0  0  0
  5 14  1  0  0  0  0
  6 26  1  0  0  0  0
  6  5  2  0  0  0  0
  9  2  1  0  0  0  0
 11  3  1  0  0  0  0
 12  4  1  0  0  0  0
 15 21  1  0  0  0  0
 15 20  1  0  0  0  0
 16 17  1  0  0  0  0
 16 15  2  0  0  0  0
 17 18  2  0  0  0  0
 18 19  1  0  0  0  0
 19 20  2  0  0  0  0
 19  1  1  0  0  0  0
 22 16  1  0  0  0  0
 23 17  1  0  0  0  0
 24 23  1  0  0  0  0
 25 24  1  0  0  0  0
 26 27  1  0  0  0  0
 28 26  1  0  0  0  0
M  END
>  <minimizedAffinity>
-4.48661137

$$$$
