
 OpenBabel03252509183D

 35 37  0  0  1  0  0  0  0  0999 V2000
   47.6710   30.0240   48.3130 C   0  0  1  0  0  0  0  0  0  0  0  0
   47.6160   28.8350   47.4160 C   0  0  0  0  0  0  0  0  0  0  0  0
   48.9150   28.0940   47.2750 C   0  0  0  0  0  0  0  0  0  0  0  0
   49.6600   27.9290   48.5820 C   0  0  0  0  0  0  0  0  0  0  0  0
   49.6740   29.1830   49.4150 C   0  0  0  0  0  0  0  0  0  0  0  0
   49.1570   30.3450   48.5820 C   0  0  2  0  0  0  0  0  0  0  0  0
   47.2460   29.7270   49.3090 H   0  0  0  0  0  0  0  0  0  0  0  0
   47.3520   29.2210   46.3880 H   0  0  0  0  0  0  0  0  0  0  0  0
   46.8000   28.1110   47.6800 H   0  0  0  0  0  0  0  0  0  0  0  0
   48.6570   27.0720   46.9110 H   0  0  0  0  0  0  0  0  0  0  0  0
   49.6110   28.5430   46.5430 H   0  0  0  0  0  0  0  0  0  0  0  0
   50.6690   27.5630   48.3420 H   0  0  0  0  0  0  0  0  0  0  0  0
   49.1240   27.1190   49.1500 H   0  0  0  0  0  0  0  0  0  0  0  0
   48.9910   29.1120   50.2930 H   0  0  0  0  0  0  0  0  0  0  0  0
   50.6780   29.4260   49.8010 H   0  0  0  0  0  0  0  0  0  0  0  0
   49.6380   30.3790   47.5840 H   0  0  0  0  0  0  0  0  0  0  0  0
   45.9730   33.1360   46.2720 C   0  0  0  0  0  0  0  0  0  0  0  0
   45.3760   32.9380   47.5260 C   0  0  0  0  0  0  0  0  0  0  0  0
   45.8590   31.9370   48.2980 C   0  0  0  0  0  0  0  0  0  0  0  0
   46.9220   31.1390   47.8360 C   0  0  0  0  0  0  0  0  0  0  0  0
   47.2730   31.8460   46.1910 S   0  0  0  0  0  0  0  0  0  0  0  0
   44.5600   33.5510   47.8760 H   0  0  0  0  0  0  0  0  0  0  0  0
   45.5390   31.6330   49.2770 H   0  0  0  0  0  0  0  0  0  0  0  0
   44.4200   36.0500   44.5470 C   0  0  0  0  0  0  0  0  0  0  0  0
   45.0670   35.9430   43.2870 C   0  0  0  0  0  0  0  0  0  0  0  0
   45.9830   34.9040   43.0880 C   0  0  0  0  0  0  0  0  0  0  0  0
   46.2050   34.0440   44.1280 N   0  0  0  0  0  0  0  0  0  0  0  0
   45.5710   34.1760   45.3110 C   0  0  0  0  0  0  0  0  0  0  0  0
   44.6740   35.1790   45.5330 N   0  0  0  0  0  0  0  0  0  0  0  0
   43.7050   36.8430   44.7320 H   0  0  0  0  0  0  0  0  0  0  0  0
   44.8580   36.6410   42.5090 H   0  0  0  0  0  0  0  0  0  0  0  0
   46.5010   34.7800   42.1480 H   0  0  0  0  0  0  0  0  0  0  0  0
   49.3250   31.6560   49.3070 C   0  0  0  0  0  2  0  0  0  0  0  0
   50.3260   31.4440   50.4300 C   0  0  0  0  0  2  0  0  0  0  0  0
   50.9100   30.4890   50.2770 H   0  0  0  0  0  0  0  0  0  0  0  0
  1  6  1  0  0  0  0
  1  7  1  1  0  0  0
  2  9  1  0  0  0  0
  2  1  1  0  0  0  0
  3  2  1  0  0  0  0
  3  4  1  0  0  0  0
  4 13  1  0  0  0  0
  4  5  1  0  0  0  0
  5 15  1  0  0  0  0
  5 14  1  0  0  0  0
  6 16  1  6  0  0  0
  6 33  1  0  0  0  0
  6  5  1  0  0  0  0
  8  2  1  0  0  0  0
 10  3  1  0  0  0  0
 11  3  1  0  0  0  0
 12  4  1  0  0  0  0
 17 18  2  0  0  0  0
 18 22  1  0  0  0  0
 18 19  1  0  0  0  0
 19 23  1  0  0  0  0
 20 19  2  0  0  0  0
 20  1  1  0  0  0  0
 21 17  1  0  0  0  0
 21 20  1  0  0  0  0
 24 30  1  0  0  0  0
 24 29  1  0  0  0  0
 25 24  2  0  0  0  0
 26 25  1  0  0  0  0
 26 27  2  0  0  0  0
 27 28  1  0  0  0  0
 28 29  2  0  0  0  0
 28 17  1  0  0  0  0
 31 25  1  0  0  0  0
 32 26  1  0  0  0  0
 33 34  1  0  0  0  0
 35 34  1  0  0  0  0
M  END
>  <minimizedAffinity>
-5.09008455

>  <minimizedRMSD>
1.11331189

$$$$
