
 OpenBabel03252508253D

 35 38  0  0  1  0  0  0  0  0999 V2000
   46.6910   32.4450   45.7170 C   0  0  1  0  0  0  0  0  0  0  0  0
   47.0450   32.7450   47.1120 C   0  0  0  0  0  0  0  0  0  0  0  0
   45.6740   32.0880   46.6840 C   0  0  2  0  0  0  0  0  0  0  0  0
   47.5290   31.7610   45.3360 H   0  0  0  0  0  0  0  0  0  0  0  0
   47.6130   32.0540   47.7690 H   0  0  0  0  0  0  0  0  0  0  0  0
   47.0440   33.7670   47.4960 H   0  0  0  0  0  0  0  0  0  0  0  0
   44.9610   32.8190   47.1510 H   0  0  0  0  0  0  0  0  0  0  0  0
   45.3610   30.7190   47.1150 C   0  0  0  0  0  0  0  0  0  0  0  0
   45.2410   30.2610   48.3930 C   0  0  0  0  0  0  0  0  0  0  0  0
   45.0760   28.9380   48.7680 C   0  0  0  0  0  0  0  0  0  0  0  0
   45.0310   27.9960   47.7300 C   0  0  0  0  0  0  0  0  0  0  0  0
   45.1480   28.4340   46.4080 C   0  0  0  0  0  0  0  0  0  0  0  0
   45.0330   27.4760   45.4160 C   0  0  0  0  0  0  0  0  0  0  0  0
   45.0720   27.8820   44.0910 C   0  0  0  0  0  0  0  0  0  0  0  0
   45.2190   29.2140   43.7600 C   0  0  0  0  0  0  0  0  0  0  0  0
   45.3300   30.1210   44.7890 C   0  0  0  0  0  0  0  0  0  0  0  0
   45.3060   29.7690   46.1250 C   0  0  0  0  0  0  0  0  0  0  0  0
   45.2820   31.0220   49.1660 H   0  0  0  0  0  0  0  0  0  0  0  0
   44.9850   28.6310   49.7870 H   0  0  0  0  0  0  0  0  0  0  0  0
   44.9080   26.9740   47.9880 H   0  0  0  0  0  0  0  0  0  0  0  0
   44.9160   26.4340   45.7100 H   0  0  0  0  0  0  0  0  0  0  0  0
   44.9750   27.0400   43.3940 H   0  0  0  0  0  0  0  0  0  0  0  0
   45.2230   29.3260   42.6890 H   0  0  0  0  0  0  0  0  0  0  0  0
   45.3450   31.0520   44.2970 H   0  0  0  0  0  0  0  0  0  0  0  0
   45.0910   35.3330   44.0560 C   0  0  0  0  0  0  0  0  0  0  0  0
   45.9090   35.4900   42.8810 C   0  0  0  0  0  0  0  0  0  0  0  0
   46.9920   34.6040   42.7090 C   0  0  0  0  0  0  0  0  0  0  0  0
   47.2290   33.6480   43.6320 N   0  0  0  0  0  0  0  0  0  0  0  0
   46.4140   33.5410   44.7400 C   0  0  0  0  0  0  0  0  0  0  0  0
   45.3820   34.3550   44.9430 N   0  0  0  0  0  0  0  0  0  0  0  0
   44.2520   35.9870   44.2290 H   0  0  0  0  0  0  0  0  0  0  0  0
   45.6550   36.2660   42.2020 H   0  0  0  0  0  0  0  0  0  0  0  0
   47.8260   34.7790   41.4920 C   0  0  0  0  0  0  0  0  0  0  0  0
   48.9440   35.7500   41.7370 C   0  0  0  0  0  0  0  0  0  0  0  0
   48.6940   36.7260   41.2740 H   0  0  0  0  0  0  0  0  0  0  0  0
  1  4  1  6  0  0  0
  1  3  1  0  0  0  0
  1  2  1  0  0  0  0
  2  6  1  0  0  0  0
  2  5  1  0  0  0  0
  3  2  1  0  0  0  0
  3  8  1  0  0  0  0
  3  7  1  1  0  0  0
  8  9  1  0  0  0  0
  9 10  2  0  0  0  0
  9 18  1  0  0  0  0
 10 19  1  0  0  0  0
 11 20  1  0  0  0  0
 11 10  1  0  0  0  0
 12 11  2  0  0  0  0
 13 21  1  0  0  0  0
 13 12  1  0  0  0  0
 14 13  2  0  0  0  0
 15 14  1  0  0  0  0
 15 16  2  0  0  0  0
 16 17  1  0  0  0  0
 17 12  1  0  0  0  0
 17  8  2  0  0  0  0
 22 14  1  0  0  0  0
 23 15  1  0  0  0  0
 24 16  1  0  0  0  0
 25 31  1  0  0  0  0
 25 30  1  0  0  0  0
 26 25  2  0  0  0  0
 27 26  1  0  0  0  0
 27 28  2  0  0  0  0
 28 29  1  0  0  0  0
 29 30  2  0  0  0  0
 29  1  1  0  0  0  0
 32 26  1  0  0  0  0
 33 34  1  0  0  0  0
 33 27  1  0  0  0  0
 35 34  1  0  0  0  0
M  END
>  <minimizedAffinity>
-5.10852146

>  <minimizedRMSD>
0.780915022

$$$$
