
 OpenBabel03252505203D

 28 30  0  0  0  0  0  0  0  0999 V2000
   40.0260   27.0440   43.6740 C   0  0  0  0  0  0  0  0  0  0  0  0
   39.6510   25.7160   43.4390 C   0  0  0  0  0  0  0  0  0  0  0  0
   38.5920   25.5430   42.5780 C   0  0  0  0  0  0  0  0  0  0  0  0
   37.9610   26.6240   42.0000 N   0  0  0  0  0  0  0  0  0  0  0  0
   38.3730   27.8990   42.2680 C   0  0  0  0  0  0  0  0  0  0  0  0
   39.4020   28.1040   43.1020 N   0  0  0  0  0  0  0  0  0  0  0  0
   40.8500   27.2460   44.3410 H   0  0  0  0  0  0  0  0  0  0  0  0
   40.1510   24.8940   43.8950 H   0  0  0  0  0  0  0  0  0  0  0  0
   37.6830   29.0110   41.6150 C   0  0  0  0  0  0  0  0  0  0  0  0
   36.3740   28.8200   41.2170 C   0  0  0  0  0  0  0  0  0  0  0  0
   35.6920   29.8590   40.6010 C   0  0  0  0  0  0  0  0  0  0  0  0
   36.3600   31.0480   40.4110 C   0  0  0  0  0  0  0  0  0  0  0  0
   37.6770   31.1830   40.8320 C   0  0  0  0  0  0  0  0  0  0  0  0
   38.3430   30.1680   41.4350 N   0  0  0  0  0  0  0  0  0  0  0  0
   35.8870   27.8710   41.3850 H   0  0  0  0  0  0  0  0  0  0  0  0
   34.6640   29.7550   40.2710 H   0  0  0  0  0  0  0  0  0  0  0  0
   35.8940   31.8890   39.9430 H   0  0  0  0  0  0  0  0  0  0  0  0
   38.4870   32.4260   40.6740 C   0  0  0  0  0  2  0  0  0  0  0  0
   37.7900   33.5070   39.9200 C   0  0  0  0  0  2  0  0  0  0  0  0
   37.2680   33.1720   39.0050 H   0  0  0  0  0  0  0  0  0  0  0  0
   38.1090   24.1640   42.2150 C   0  0  0  0  0  0  0  0  0  0  0  0
   36.7730   24.1870   41.4650 C   0  0  0  0  0  0  0  0  0  0  0  0
   38.1310   23.7420   40.8400 C   0  0  0  0  0  0  0  0  0  0  0  0
   38.1620   23.3900   43.0320 H   0  0  0  0  0  0  0  0  0  0  0  0
   36.0580   23.3720   41.6060 H   0  0  0  0  0  0  0  0  0  0  0  0
   36.3660   25.1460   41.1500 H   0  0  0  0  0  0  0  0  0  0  0  0
   38.4610   24.4080   40.0190 H   0  0  0  0  0  0  0  0  0  0  0  0
   38.2260   22.6580   40.6110 H   0  0  0  0  0  0  0  0  0  0  0  0
  1  7  1  0  0  0  0
  2  1  1  0  0  0  0
  2  8  1  0  0  0  0
  3  2  2  0  0  0  0
  4  5  2  0  0  0  0
  4  3  1  0  0  0  0
  5  6  1  0  0  0  0
  6  1  2  0  0  0  0
  9  5  1  0  0  0  0
 10 15  1  0  0  0  0
 10  9  2  0  0  0  0
 11 10  1  0  0  0  0
 12 11  2  0  0  0  0
 12 13  1  0  0  0  0
 13 14  2  0  0  0  0
 14  9  1  0  0  0  0
 16 11  1  0  0  0  0
 17 12  1  0  0  0  0
 18 13  1  0  0  0  0
 19 18  1  0  0  0  0
 20 19  1  0  0  0  0
 21  3  1  0  0  0  0
 21 24  1  0  0  0  0
 22 25  1  0  0  0  0
 22 21  1  0  0  0  0
 23 22  1  0  0  0  0
 23 21  1  0  0  0  0
 26 22  1  0  0  0  0
 27 23  1  0  0  0  0
 28 23  1  0  0  0  0
M  END
>  <minimizedAffinity>
-4.96956015

$$$$

 OpenBabel03252505203D

 28 30  0  0  0  0  0  0  0  0999 V2000
   37.7290   28.7260   43.6560 C   0  0  0  0  0  0  0  0  0  0  0  0
   37.4790   27.3500   43.5990 C   0  0  0  0  0  0  0  0  0  0  0  0
   37.1840   26.8520   42.3510 C   0  0  0  0  0  0  0  0  0  0  0  0
   37.1460   27.6780   41.2470 N   0  0  0  0  0  0  0  0  0  0  0  0
   37.4000   29.0140   41.3650 C   0  0  0  0  0  0  0  0  0  0  0  0
   37.6900   29.5330   42.5670 N   0  0  0  0  0  0  0  0  0  0  0  0
   37.9650   29.1770   44.6080 H   0  0  0  0  0  0  0  0  0  0  0  0
   37.5130   26.7290   44.4630 H   0  0  0  0  0  0  0  0  0  0  0  0
   37.3640   29.8440   40.1610 C   0  0  0  0  0  0  0  0  0  0  0  0
   37.3730   29.2110   38.9340 C   0  0  0  0  0  0  0  0  0  0  0  0
   37.3330   29.9730   37.7750 C   0  0  0  0  0  0  0  0  0  0  0  0
   37.2890   31.3430   37.9030 C   0  0  0  0  0  0  0  0  0  0  0  0
   37.2830   31.9260   39.1630 C   0  0  0  0  0  0  0  0  0  0  0  0
   37.3200   31.1820   40.2960 N   0  0  0  0  0  0  0  0  0  0  0  0
   37.4080   28.1330   38.8790 H   0  0  0  0  0  0  0  0  0  0  0  0
   37.3390   29.5190   36.7900 H   0  0  0  0  0  0  0  0  0  0  0  0
   37.2570   31.9890   37.0510 H   0  0  0  0  0  0  0  0  0  0  0  0
   37.2350   33.3960   39.4100 C   0  0  0  0  0  2  0  0  0  0  0  0
   38.4020   33.9150   40.1800 C   0  0  0  0  0  2  0  0  0  0  0  0
   38.6890   33.3050   41.0550 H   0  0  0  0  0  0  0  0  0  0  0  0
   36.9270   25.3830   42.1450 C   0  0  0  0  0  0  0  0  0  0  0  0
   36.8720   24.9960   40.6640 C   0  0  0  0  0  0  0  0  0  0  0  0
   37.9830   24.5370   41.6580 C   0  0  0  0  0  0  0  0  0  0  0  0
   36.0990   24.9350   42.7650 H   0  0  0  0  0  0  0  0  0  0  0  0
   36.2060   24.1940   40.3370 H   0  0  0  0  0  0  0  0  0  0  0  0
   37.1440   25.7420   39.9180 H   0  0  0  0  0  0  0  0  0  0  0  0
   38.9830   24.9290   41.3910 H   0  0  0  0  0  0  0  0  0  0  0  0
   37.9760   23.4580   41.9270 H   0  0  0  0  0  0  0  0  0  0  0  0
  1  7  1  0  0  0  0
  2  1  1  0  0  0  0
  2  8  1  0  0  0  0
  3  2  2  0  0  0  0
  4  5  2  0  0  0  0
  4  3  1  0  0  0  0
  5  6  1  0  0  0  0
  6  1  2  0  0  0  0
  9 14  1  0  0  0  0
  9  5  1  0  0  0  0
 10  9  2  0  0  0  0
 11 12  2  0  0  0  0
 11 10  1  0  0  0  0
 12 13  1  0  0  0  0
 13 18  1  0  0  0  0
 13 14  2  0  0  0  0
 15 10  1  0  0  0  0
 16 11  1  0  0  0  0
 17 12  1  0  0  0  0
 18 19  1  0  0  0  0
 19 20  1  0  0  0  0
 21  3  1  0  0  0  0
 21 24  1  0  0  0  0
 22 23  1  0  0  0  0
 22 21  1  0  0  0  0
 23 28  1  0  0  0  0
 23 21  1  0  0  0  0
 25 22  1  0  0  0  0
 26 22  1  0  0  0  0
 27 23  1  0  0  0  0
M  END
>  <minimizedAffinity>
-4.93681955

$$$$

 OpenBabel03252505203D

 28 30  0  0  0  0  0  0  0  0999 V2000
   35.6160   29.6810   40.6740 C   0  0  0  0  0  0  0  0  0  0  0  0
   36.1900   30.9330   40.4260 C   0  0  0  0  0  0  0  0  0  0  0  0
   37.5020   31.0710   40.8190 C   0  0  0  0  0  0  0  0  0  0  0  0
   38.1790   30.0280   41.4150 N   0  0  0  0  0  0  0  0  0  0  0  0
   37.5640   28.8280   41.6310 C   0  0  0  0  0  0  0  0  0  0  0  0
   36.2860   28.6590   41.2610 N   0  0  0  0  0  0  0  0  0  0  0  0
   34.5880   29.5110   40.3890 H   0  0  0  0  0  0  0  0  0  0  0  0
   35.6510   31.7260   39.9640 H   0  0  0  0  0  0  0  0  0  0  0  0
   38.3300   27.7480   42.2510 C   0  0  0  0  0  0  0  0  0  0  0  0
   39.3880   28.0880   43.0710 C   0  0  0  0  0  0  0  0  0  0  0  0
   40.1300   27.0850   43.6770 C   0  0  0  0  0  0  0  0  0  0  0  0
   39.7730   25.7780   43.4290 C   0  0  0  0  0  0  0  0  0  0  0  0
   38.7000   25.4940   42.5950 C   0  0  0  0  0  0  0  0  0  0  0  0
   37.9750   26.4750   42.0030 N   0  0  0  0  0  0  0  0  0  0  0  0
   39.6340   29.1260   43.2390 H   0  0  0  0  0  0  0  0  0  0  0  0
   40.9690   27.3050   44.3280 H   0  0  0  0  0  0  0  0  0  0  0  0
   40.3020   24.9560   43.8630 H   0  0  0  0  0  0  0  0  0  0  0  0
   38.2340   24.1170   42.2640 C   0  0  0  0  0  2  0  0  0  0  0  0
   37.1110   24.0810   41.2830 C   0  0  0  0  0  2  0  0  0  0  0  0
   36.3050   24.8120   41.4740 H   0  0  0  0  0  0  0  0  0  0  0  0
   38.2500   32.3560   40.5800 C   0  0  0  0  0  0  0  0  0  0  0  0
   38.7440   32.4910   39.1370 C   0  0  0  0  0  0  0  0  0  0  0  0
   37.6480   33.3910   39.7840 C   0  0  0  0  0  0  0  0  0  0  0  0
   39.0210   32.6300   41.3550 H   0  0  0  0  0  0  0  0  0  0  0  0
   39.6840   33.0090   38.9310 H   0  0  0  0  0  0  0  0  0  0  0  0
   38.4190   31.7550   38.4020 H   0  0  0  0  0  0  0  0  0  0  0  0
   36.6580   33.2720   39.3030 H   0  0  0  0  0  0  0  0  0  0  0  0
   37.9370   34.4490   39.9680 H   0  0  0  0  0  0  0  0  0  0  0  0
  1  6  1  0  0  0  0
  2  1  2  0  0  0  0
  2  3  1  0  0  0  0
  3  4  2  0  0  0  0
  4  5  1  0  0  0  0
  5  9  1  0  0  0  0
  6  5  2  0  0  0  0
  7  1  1  0  0  0  0
  8  2  1  0  0  0  0
  9 10  1  0  0  0  0
 10 15  1  0  0  0  0
 10 11  2  0  0  0  0
 11 16  1  0  0  0  0
 12 11  1  0  0  0  0
 12 17  1  0  0  0  0
 13 12  2  0  0  0  0
 14  9  2  0  0  0  0
 14 13  1  0  0  0  0
 18 13  1  0  0  0  0
 19 20  1  0  0  0  0
 19 18  1  0  0  0  0
 21  3  1  0  0  0  0
 21 24  1  0  0  0  0
 22 23  1  0  0  0  0
 22 21  1  0  0  0  0
 23 28  1  0  0  0  0
 23 21  1  0  0  0  0
 25 22  1  0  0  0  0
 26 22  1  0  0  0  0
 27 23  1  0  0  0  0
M  END
>  <minimizedAffinity>
-4.89432764

$$$$

 OpenBabel03252505203D

 28 30  0  0  0  0  0  0  0  0999 V2000
   37.4250   28.4990   43.4870 C   0  0  0  0  0  0  0  0  0  0  0  0
   37.3200   27.1540   43.1150 C   0  0  0  0  0  0  0  0  0  0  0  0
   37.2020   26.9210   41.7640 C   0  0  0  0  0  0  0  0  0  0  0  0
   37.1910   27.9630   40.8610 N   0  0  0  0  0  0  0  0  0  0  0  0
   37.2980   29.2560   41.2850 C   0  0  0  0  0  0  0  0  0  0  0  0
   37.4140   29.5200   42.5950 N   0  0  0  0  0  0  0  0  0  0  0  0
   37.5200   28.7470   44.5340 H   0  0  0  0  0  0  0  0  0  0  0  0
   37.3300   26.3630   43.8270 H   0  0  0  0  0  0  0  0  0  0  0  0
   37.2990   30.3250   40.2870 C   0  0  0  0  0  0  0  0  0  0  0  0
   37.3730   31.6300   40.7310 C   0  0  0  0  0  0  0  0  0  0  0  0
   37.3820   32.6650   39.8070 C   0  0  0  0  0  0  0  0  0  0  0  0
   37.3150   32.3380   38.4710 C   0  0  0  0  0  0  0  0  0  0  0  0
   37.2420   31.0080   38.0810 C   0  0  0  0  0  0  0  0  0  0  0  0
   37.2340   29.9970   38.9840 N   0  0  0  0  0  0  0  0  0  0  0  0
   37.4250   31.8430   41.7890 H   0  0  0  0  0  0  0  0  0  0  0  0
   37.4380   33.7050   40.1090 H   0  0  0  0  0  0  0  0  0  0  0  0
   37.3170   33.0860   37.7060 H   0  0  0  0  0  0  0  0  0  0  0  0
   37.1660   30.5490   36.6640 C   0  0  0  0  0  2  0  0  0  0  0  0
   36.2380   29.4010   36.4510 C   0  0  0  0  0  2  0  0  0  0  0  0
   36.3230   28.5920   37.1990 H   0  0  0  0  0  0  0  0  0  0  0  0
   37.1140   25.5170   41.2260 C   0  0  0  0  0  0  0  0  0  0  0  0
   38.3200   24.6590   41.6190 C   0  0  0  0  0  0  0  0  0  0  0  0
   36.8650   24.4250   42.1280 C   0  0  0  0  0  0  0  0  0  0  0  0
   36.8170   25.4200   40.1430 H   0  0  0  0  0  0  0  0  0  0  0  0
   38.6840   23.8880   40.9340 H   0  0  0  0  0  0  0  0  0  0  0  0
   39.0410   25.0630   42.3280 H   0  0  0  0  0  0  0  0  0  0  0  0
   36.7670   24.5670   43.2210 H   0  0  0  0  0  0  0  0  0  0  0  0
   36.3590   23.5130   41.7420 H   0  0  0  0  0  0  0  0  0  0  0  0
  1  7  1  0  0  0  0
  2  1  1  0  0  0  0
  2  8  1  0  0  0  0
  3  2  2  0  0  0  0
  4  5  2  0  0  0  0
  4  3  1  0  0  0  0
  5  6  1  0  0  0  0
  6  1  2  0  0  0  0
  9 10  1  0  0  0  0
  9  5  1  0  0  0  0
 10 15  1  0  0  0  0
 11 16  1  0  0  0  0
 11 10  2  0  0  0  0
 12 11  1  0  0  0  0
 13 12  2  0  0  0  0
 13 14  1  0  0  0  0
 14  9  2  0  0  0  0
 17 12  1  0  0  0  0
 18 13  1  0  0  0  0
 19 18  1  0  0  0  0
 19 20  1  0  0  0  0
 21 22  1  0  0  0  0
 21  3  1  0  0  0  0
 21 23  1  0  0  0  0
 22 23  1  0  0  0  0
 22 26  1  0  0  0  0
 23 27  1  0  0  0  0
 24 21  1  0  0  0  0
 25 22  1  0  0  0  0
 28 23  1  0  0  0  0
M  END
>  <minimizedAffinity>
-4.87756634

$$$$

 OpenBabel03252505203D

 28 30  0  0  0  0  0  0  0  0999 V2000
   36.7630   29.6010   37.8140 C   0  0  0  0  0  0  0  0  0  0  0  0
   37.2590   30.9090   37.7990 C   0  0  0  0  0  0  0  0  0  0  0  0
   37.7420   31.3730   39.0020 C   0  0  0  0  0  0  0  0  0  0  0  0
   37.7240   30.5790   40.1290 N   0  0  0  0  0  0  0  0  0  0  0  0
   37.2260   29.3080   40.0810 C   0  0  0  0  0  0  0  0  0  0  0  0
   36.7470   28.8240   38.9250 N   0  0  0  0  0  0  0  0  0  0  0  0
   36.3690   29.1800   36.9000 H   0  0  0  0  0  0  0  0  0  0  0  0
   37.2650   31.5070   36.9180 H   0  0  0  0  0  0  0  0  0  0  0  0
   37.2450   28.5000   41.2990 C   0  0  0  0  0  0  0  0  0  0  0  0
   37.4210   29.1480   42.5060 C   0  0  0  0  0  0  0  0  0  0  0  0
   37.4380   28.4080   43.6790 C   0  0  0  0  0  0  0  0  0  0  0  0
   37.2780   27.0430   43.5850 C   0  0  0  0  0  0  0  0  0  0  0  0
   37.1050   26.4450   42.3450 C   0  0  0  0  0  0  0  0  0  0  0  0
   37.0880   27.1690   41.1980 N   0  0  0  0  0  0  0  0  0  0  0  0
   37.5430   30.2200   42.5350 H   0  0  0  0  0  0  0  0  0  0  0  0
   37.5750   28.8730   44.6500 H   0  0  0  0  0  0  0  0  0  0  0  0
   37.2820   26.4130   44.4500 H   0  0  0  0  0  0  0  0  0  0  0  0
   36.9230   24.9800   42.1350 C   0  0  0  0  0  2  0  0  0  0  0  0
   38.2010   24.2110   42.1120 C   0  0  0  0  0  2  0  0  0  0  0  0
   39.0070   24.6710   41.5120 H   0  0  0  0  0  0  0  0  0  0  0  0
   38.3350   32.7520   39.1160 C   0  0  0  0  0  0  0  0  0  0  0  0
   37.2970   33.8080   39.5090 C   0  0  0  0  0  0  0  0  0  0  0  0
   38.4840   33.3560   40.4130 C   0  0  0  0  0  0  0  0  0  0  0  0
   39.0140   33.0700   38.2750 H   0  0  0  0  0  0  0  0  0  0  0  0
   37.3890   34.8280   39.1270 H   0  0  0  0  0  0  0  0  0  0  0  0
   36.2980   33.4800   39.7930 H   0  0  0  0  0  0  0  0  0  0  0  0
   38.1480   32.8580   41.3430 H   0  0  0  0  0  0  0  0  0  0  0  0
   39.2890   34.1080   40.5670 H   0  0  0  0  0  0  0  0  0  0  0  0
  1  6  1  0  0  0  0
  2  1  2  0  0  0  0
  2  3  1  0  0  0  0
  3 21  1  0  0  0  0
  3  4  2  0  0  0  0
  5  4  1  0  0  0  0
  5  9  1  0  0  0  0
  6  5  2  0  0  0  0
  7  1  1  0  0  0  0
  8  2  1  0  0  0  0
  9 10  1  0  0  0  0
 10 15  1  0  0  0  0
 10 11  2  0  0  0  0
 11 16  1  0  0  0  0
 12 11  1  0  0  0  0
 12 17  1  0  0  0  0
 13 12  2  0  0  0  0
 14  9  2  0  0  0  0
 14 13  1  0  0  0  0
 18 13  1  0  0  0  0
 19 18  1  0  0  0  0
 20 19  1  0  0  0  0
 21 22  1  0  0  0  0
 21 23  1  0  0  0  0
 22 26  1  0  0  0  0
 22 23  1  0  0  0  0
 23 28  1  0  0  0  0
 23 27  1  0  0  0  0
 24 21  1  0  0  0  0
 25 22  1  0  0  0  0
M  END
>  <minimizedAffinity>
-4.80358839

$$$$

 OpenBabel03252505203D

 28 30  0  0  0  0  0  0  0  0999 V2000
   37.0770   30.9640   40.7860 C   0  0  0  0  0  0  0  0  0  0  0  0
   37.0830   30.0040   41.8040 C   0  0  0  0  0  0  0  0  0  0  0  0
   36.4780   28.8070   41.4930 C   0  0  0  0  0  0  0  0  0  0  0  0
   35.9120   28.5980   40.2530 N   0  0  0  0  0  0  0  0  0  0  0  0
   35.9380   29.5750   39.2990 C   0  0  0  0  0  0  0  0  0  0  0  0
   36.5190   30.7530   39.5680 N   0  0  0  0  0  0  0  0  0  0  0  0
   37.5370   31.9240   40.9700 H   0  0  0  0  0  0  0  0  0  0  0  0
   37.5250   30.1840   42.7550 H   0  0  0  0  0  0  0  0  0  0  0  0
   35.3400   29.2980   37.9940 C   0  0  0  0  0  0  0  0  0  0  0  0
   34.0240   28.8810   37.9570 C   0  0  0  0  0  0  0  0  0  0  0  0
   33.4280   28.6160   36.7320 C   0  0  0  0  0  0  0  0  0  0  0  0
   34.1870   28.7820   35.5950 C   0  0  0  0  0  0  0  0  0  0  0  0
   35.5060   29.2030   35.6920 C   0  0  0  0  0  0  0  0  0  0  0  0
   36.0880   29.4620   36.8880 N   0  0  0  0  0  0  0  0  0  0  0  0
   33.4640   28.7650   38.8730 H   0  0  0  0  0  0  0  0  0  0  0  0
   32.3980   28.2860   36.6540 H   0  0  0  0  0  0  0  0  0  0  0  0
   33.7900   28.5950   34.6190 H   0  0  0  0  0  0  0  0  0  0  0  0
   36.4100   29.4130   34.5240 C   0  0  0  0  0  2  0  0  0  0  0  0
   36.1740   30.6970   33.8030 C   0  0  0  0  0  2  0  0  0  0  0  0
   35.1120   30.9360   33.6190 H   0  0  0  0  0  0  0  0  0  0  0  0
   36.4430   27.6770   42.4870 C   0  0  0  0  0  0  0  0  0  0  0  0
   37.4780   26.5900   42.1790 C   0  0  0  0  0  0  0  0  0  0  0  0
   37.5200   27.5240   43.4280 C   0  0  0  0  0  0  0  0  0  0  0  0
   35.4210   27.2760   42.7440 H   0  0  0  0  0  0  0  0  0  0  0  0
   37.2530   25.5460   42.4100 H   0  0  0  0  0  0  0  0  0  0  0  0
   38.2090   26.7720   41.3930 H   0  0  0  0  0  0  0  0  0  0  0  0
   38.4030   28.1910   43.4330 H   0  0  0  0  0  0  0  0  0  0  0  0
   37.3150   27.0340   44.4050 H   0  0  0  0  0  0  0  0  0  0  0  0
  1  7  1  0  0  0  0
  1  2  1  0  0  0  0
  2  8  1  0  0  0  0
  3  2  2  0  0  0  0
  3 21  1  0  0  0  0
  4  3  1  0  0  0  0
  5  6  1  0  0  0  0
  5  4  2  0  0  0  0
  6  1  2  0  0  0  0
  9  5  1  0  0  0  0
 10  9  1  0  0  0  0
 10 15  1  0  0  0  0
 11 10  2  0  0  0  0
 12 13  2  0  0  0  0
 12 11  1  0  0  0  0
 13 14  1  0  0  0  0
 14  9  2  0  0  0  0
 16 11  1  0  0  0  0
 17 12  1  0  0  0  0
 18 13  1  0  0  0  0
 19 18  1  0  0  0  0
 20 19  1  0  0  0  0
 21 24  1  0  0  0  0
 21 23  1  0  0  0  0
 22 25  1  0  0  0  0
 22 21  1  0  0  0  0
 22 23  1  0  0  0  0
 23 27  1  0  0  0  0
 23 28  1  0  0  0  0
 26 22  1  0  0  0  0
M  END
>  <minimizedAffinity>
-4.566113

$$$$

 OpenBabel03252505203D

 28 30  0  0  0  0  0  0  0  0999 V2000
   37.9280   30.7000   38.1590 C   0  0  0  0  0  0  0  0  0  0  0  0
   36.8990   30.3690   37.2710 C   0  0  0  0  0  0  0  0  0  0  0  0
   36.0230   29.4040   37.7130 C   0  0  0  0  0  0  0  0  0  0  0  0
   36.1740   28.8200   38.9520 N   0  0  0  0  0  0  0  0  0  0  0  0
   37.2000   29.1860   39.7760 C   0  0  0  0  0  0  0  0  0  0  0  0
   38.0730   30.1230   39.3780 N   0  0  0  0  0  0  0  0  0  0  0  0
   38.6480   31.4510   37.8700 H   0  0  0  0  0  0  0  0  0  0  0  0
   36.7980   30.8310   36.3170 H   0  0  0  0  0  0  0  0  0  0  0  0
   37.3070   28.5490   41.0890 C   0  0  0  0  0  0  0  0  0  0  0  0
   37.6060   29.3470   42.1760 C   0  0  0  0  0  0  0  0  0  0  0  0
   37.7080   28.7720   43.4340 C   0  0  0  0  0  0  0  0  0  0  0  0
   37.5060   27.4140   43.5430 C   0  0  0  0  0  0  0  0  0  0  0  0
   37.2090   26.6610   42.4150 C   0  0  0  0  0  0  0  0  0  0  0  0
   37.1080   27.2230   41.1850 N   0  0  0  0  0  0  0  0  0  0  0  0
   37.7570   30.4080   42.0460 H   0  0  0  0  0  0  0  0  0  0  0  0
   37.9420   29.3590   44.3160 H   0  0  0  0  0  0  0  0  0  0  0  0
   37.5700   26.9070   44.4820 H   0  0  0  0  0  0  0  0  0  0  0  0
   36.9710   25.1890   42.4250 C   0  0  0  0  0  2  0  0  0  0  0  0
   36.8560   24.5880   41.0650 C   0  0  0  0  0  2  0  0  0  0  0  0
   36.2240   25.1570   40.3590 H   0  0  0  0  0  0  0  0  0  0  0  0
   34.8510   28.9790   36.8680 C   0  0  0  0  0  0  0  0  0  0  0  0
   34.2820   27.6210   37.2910 C   0  0  0  0  0  0  0  0  0  0  0  0
   33.5290   28.9780   37.4340 C   0  0  0  0  0  0  0  0  0  0  0  0
   34.9770   29.0950   35.7540 H   0  0  0  0  0  0  0  0  0  0  0  0
   33.8580   26.9510   36.5380 H   0  0  0  0  0  0  0  0  0  0  0  0
   34.6580   27.1570   38.2030 H   0  0  0  0  0  0  0  0  0  0  0  0
   33.3350   29.2500   38.4900 H   0  0  0  0  0  0  0  0  0  0  0  0
   32.6550   29.1200   36.7610 H   0  0  0  0  0  0  0  0  0  0  0  0
  1  6  1  0  0  0  0
  2  3  1  0  0  0  0
  2  1  2  0  0  0  0
  3  4  2  0  0  0  0
  4  5  1  0  0  0  0
  5  9  1  0  0  0  0
  6  5  2  0  0  0  0
  7  1  1  0  0  0  0
  8  2  1  0  0  0  0
  9 14  2  0  0  0  0
  9 10  1  0  0  0  0
 10 11  2  0  0  0  0
 11 12  1  0  0  0  0
 11 16  1  0  0  0  0
 12 17  1  0  0  0  0
 13 18  1  0  0  0  0
 13 12  2  0  0  0  0
 14 13  1  0  0  0  0
 15 10  1  0  0  0  0
 19 18  1  0  0  0  0
 20 19  1  0  0  0  0
 21 22  1  0  0  0  0
 21 23  1  0  0  0  0
 21  3  1  0  0  0  0
 22 23  1  0  0  0  0
 22 26  1  0  0  0  0
 23 27  1  0  0  0  0
 24 21  1  0  0  0  0
 25 22  1  0  0  0  0
 28 23  1  0  0  0  0
M  END
>  <minimizedAffinity>
-4.56527281

$$$$

 OpenBabel03252505203D

 28 30  0  0  0  0  0  0  0  0999 V2000
   38.1750   30.3640   38.0170 C   0  0  0  0  0  0  0  0  0  0  0  0
   37.0360   30.1070   37.2450 C   0  0  0  0  0  0  0  0  0  0  0  0
   36.1060   29.2730   37.8210 C   0  0  0  0  0  0  0  0  0  0  0  0
   36.3090   28.7390   39.0760 N   0  0  0  0  0  0  0  0  0  0  0  0
   37.4420   29.0270   39.7820 C   0  0  0  0  0  0  0  0  0  0  0  0
   38.3700   29.8370   39.2520 N   0  0  0  0  0  0  0  0  0  0  0  0
   38.9420   31.0110   37.6200 H   0  0  0  0  0  0  0  0  0  0  0  0
   36.8980   30.5280   36.2770 H   0  0  0  0  0  0  0  0  0  0  0  0
   37.6020   28.4510   41.1170 C   0  0  0  0  0  0  0  0  0  0  0  0
   36.4630   28.0970   41.8130 C   0  0  0  0  0  0  0  0  0  0  0  0
   36.5840   27.5420   43.0790 C   0  0  0  0  0  0  0  0  0  0  0  0
   37.8510   27.3700   43.5910 C   0  0  0  0  0  0  0  0  0  0  0  0
   38.9610   27.7440   42.8460 C   0  0  0  0  0  0  0  0  0  0  0  0
   38.8430   28.2850   41.6080 N   0  0  0  0  0  0  0  0  0  0  0  0
   35.4880   28.2490   41.3750 H   0  0  0  0  0  0  0  0  0  0  0  0
   35.7180   27.2500   43.6630 H   0  0  0  0  0  0  0  0  0  0  0  0
   38.0160   26.9490   44.5600 H   0  0  0  0  0  0  0  0  0  0  0  0
   40.3720   27.5990   43.3070 C   0  0  0  0  0  2  0  0  0  0  0  0
   40.7460   26.2010   43.6680 C   0  0  0  0  0  2  0  0  0  0  0  0
   39.9980   25.6640   44.2790 H   0  0  0  0  0  0  0  0  0  0  0  0
   34.8200   28.9410   37.1100 C   0  0  0  0  0  0  0  0  0  0  0  0
   34.2580   27.5760   37.5170 C   0  0  0  0  0  0  0  0  0  0  0  0
   33.5830   28.9430   37.8420 C   0  0  0  0  0  0  0  0  0  0  0  0
   34.8070   29.1290   35.9990 H   0  0  0  0  0  0  0  0  0  0  0  0
   33.7160   26.9720   36.7840 H   0  0  0  0  0  0  0  0  0  0  0  0
   34.7280   27.0400   38.3400 H   0  0  0  0  0  0  0  0  0  0  0  0
   33.5350   29.1480   38.9290 H   0  0  0  0  0  0  0  0  0  0  0  0
   32.6360   29.1560   37.2980 H   0  0  0  0  0  0  0  0  0  0  0  0
  1  6  1  0  0  0  0
  2  3  1  0  0  0  0
  2  1  2  0  0  0  0
  3  4  2  0  0  0  0
  4  5  1  0  0  0  0
  5  9  1  0  0  0  0
  6  5  2  0  0  0  0
  7  1  1  0  0  0  0
  8  2  1  0  0  0  0
  9 14  2  0  0  0  0
  9 10  1  0  0  0  0
 10 11  2  0  0  0  0
 11 12  1  0  0  0  0
 11 16  1  0  0  0  0
 12 17  1  0  0  0  0
 13 18  1  0  0  0  0
 13 12  2  0  0  0  0
 14 13  1  0  0  0  0
 15 10  1  0  0  0  0
 18 19  1  0  0  0  0
 19 20  1  0  0  0  0
 21 22  1  0  0  0  0
 21  3  1  0  0  0  0
 21 23  1  0  0  0  0
 22 23  1  0  0  0  0
 22 26  1  0  0  0  0
 23 27  1  0  0  0  0
 24 21  1  0  0  0  0
 25 22  1  0  0  0  0
 28 23  1  0  0  0  0
M  END
>  <minimizedAffinity>
-4.50652075

$$$$

 OpenBabel03252505203D

 28 30  0  0  0  0  0  0  0  0999 V2000
   38.1240   27.7300   38.9110 C   0  0  0  0  0  0  0  0  0  0  0  0
   37.8060   27.0370   40.0840 C   0  0  0  0  0  0  0  0  0  0  0  0
   37.6710   27.8130   41.2120 C   0  0  0  0  0  0  0  0  0  0  0  0
   37.8440   29.1800   41.1600 N   0  0  0  0  0  0  0  0  0  0  0  0
   38.1550   29.8010   39.9830 C   0  0  0  0  0  0  0  0  0  0  0  0
   38.2940   29.0750   38.8650 N   0  0  0  0  0  0  0  0  0  0  0  0
   38.2440   27.1770   37.9910 H   0  0  0  0  0  0  0  0  0  0  0  0
   37.6760   25.9810   40.1040 H   0  0  0  0  0  0  0  0  0  0  0  0
   38.3110   31.2550   39.9770 C   0  0  0  0  0  0  0  0  0  0  0  0
   37.1950   32.0270   39.7190 C   0  0  0  0  0  0  0  0  0  0  0  0
   37.3110   33.4100   39.7130 C   0  0  0  0  0  0  0  0  0  0  0  0
   38.5500   33.9550   39.9640 C   0  0  0  0  0  0  0  0  0  0  0  0
   39.6380   33.1300   40.2160 C   0  0  0  0  0  0  0  0  0  0  0  0
   39.5240   31.7790   40.2230 N   0  0  0  0  0  0  0  0  0  0  0  0
   36.2410   31.5590   39.5270 H   0  0  0  0  0  0  0  0  0  0  0  0
   36.4630   34.0560   39.5150 H   0  0  0  0  0  0  0  0  0  0  0  0
   38.7100   35.0130   39.9730 H   0  0  0  0  0  0  0  0  0  0  0  0
   41.0180   33.6190   40.4990 C   0  0  0  0  0  2  0  0  0  0  0  0
   41.9110   32.5870   41.1010 C   0  0  0  0  0  2  0  0  0  0  0  0
   41.4520   31.9920   41.9100 H   0  0  0  0  0  0  0  0  0  0  0  0
   37.2980   27.1970   42.5340 C   0  0  0  0  0  0  0  0  0  0  0  0
   38.4370   27.2630   43.5570 C   0  0  0  0  0  0  0  0  0  0  0  0
   37.0920   28.0420   43.6800 C   0  0  0  0  0  0  0  0  0  0  0  0
   36.7850   26.1950   42.4860 H   0  0  0  0  0  0  0  0  0  0  0  0
   38.5560   26.4600   44.2890 H   0  0  0  0  0  0  0  0  0  0  0  0
   39.3290   27.8380   43.3110 H   0  0  0  0  0  0  0  0  0  0  0  0
   37.2290   29.1400   43.6410 H   0  0  0  0  0  0  0  0  0  0  0  0
   36.4060   27.6990   44.4850 H   0  0  0  0  0  0  0  0  0  0  0  0
  1  2  1  0  0  0  0
  2  8  1  0  0  0  0
  2  3  2  0  0  0  0
  3 21  1  0  0  0  0
  4  3  1  0  0  0  0
  5  4  2  0  0  0  0
  6  1  2  0  0  0  0
  6  5  1  0  0  0  0
  7  1  1  0  0  0  0
  9  5  1  0  0  0  0
  9 14  1  0  0  0  0
 10  9  2  0  0  0  0
 11 10  1  0  0  0  0
 11 12  2  0  0  0  0
 12 17  1  0  0  0  0
 12 13  1  0  0  0  0
 13 14  2  0  0  0  0
 13 18  1  0  0  0  0
 15 10  1  0  0  0  0
 16 11  1  0  0  0  0
 18 19  1  0  0  0  0
 19 20  1  0  0  0  0
 21 22  1  0  0  0  0
 21 23  1  0  0  0  0
 22 23  1  0  0  0  0
 22 25  1  0  0  0  0
 23 28  1  0  0  0  0
 24 21  1  0  0  0  0
 26 22  1  0  0  0  0
 27 23  1  0  0  0  0
M  END
>  <minimizedAffinity>
-4.50598097

$$$$
