
 OpenBabel03252507003D

 31 32  0  0  0  0  0  0  0  0999 V2000
   48.3640   32.7340   42.5230 N   0  0  0  0  0  0  0  0  0  0  0  0
   48.7140   31.5080   43.1460 C   0  0  0  0  0  0  0  0  0  0  0  0
   49.5910   30.8660   42.0590 C   0  0  0  0  0  0  0  0  0  0  0  0
   50.7470   31.6730   41.6450 C   0  0  0  0  0  0  0  0  0  0  0  0
   50.7320   33.1010   42.0230 C   0  0  0  0  0  0  0  0  0  0  0  0
   49.4540   33.7040   42.4640 C   0  0  0  0  0  0  0  0  0  0  0  0
   49.3790   31.6550   43.9940 H   0  0  0  0  0  0  0  0  0  0  0  0
   47.9530   30.8190   43.4520 H   0  0  0  0  0  0  0  0  0  0  0  0
   48.9030   30.5520   41.2260 H   0  0  0  0  0  0  0  0  0  0  0  0
   49.9660   29.9040   42.4990 H   0  0  0  0  0  0  0  0  0  0  0  0
   50.8100   31.6320   40.5340 H   0  0  0  0  0  0  0  0  0  0  0  0
   51.7180   31.2910   42.0120 H   0  0  0  0  0  0  0  0  0  0  0  0
   51.5690   33.7460   41.9610 H   0  0  0  0  0  0  0  0  0  0  0  0
   47.2550   33.0160   41.8120 C   0  0  0  0  0  0  0  0  0  0  0  0
   47.1010   32.4930   40.8180 H   0  0  0  0  0  0  0  0  0  0  0  0
   47.1730   34.1150   41.5500 H   0  0  0  0  0  0  0  0  0  0  0  0
   46.0120   32.7000   42.6110 C   0  0  0  0  0  0  0  0  0  0  0  0
   45.2040   32.5060   41.8540 H   0  0  0  0  0  0  0  0  0  0  0  0
   46.0300   31.8200   43.2250 H   0  0  0  0  0  0  0  0  0  0  0  0
   45.5780   33.9620   43.2440 C   0  0  0  0  0  0  0  0  0  0  0  0
   45.5220   35.1410   42.5430 C   0  0  0  0  0  0  0  0  0  0  0  0
   45.1000   36.3160   43.1710 C   0  0  0  0  0  0  0  0  0  0  0  0
   44.7600   36.2120   44.4870 N   0  0  0  0  0  0  0  0  0  0  0  0
   44.8250   35.0530   45.1390 C   0  0  0  0  0  0  0  0  0  0  0  0
   45.2290   33.9600   44.5120 N   0  0  0  0  0  0  0  0  0  0  0  0
   45.8080   35.1420   41.5050 H   0  0  0  0  0  0  0  0  0  0  0  0
   45.0580   37.2420   42.6120 H   0  0  0  0  0  0  0  0  0  0  0  0
   44.5390   35.0480   46.1820 H   0  0  0  0  0  0  0  0  0  0  0  0
   49.3340   35.1570   42.7200 C   0  0  0  0  0  0  0  0  0  0  0  0
   49.0850   35.8220   41.3820 C   0  0  0  0  0  0  0  0  0  0  0  0
   48.1700   35.4510   40.8770 H   0  0  0  0  0  0  0  0  0  0  0  0
  1  2  1  0  0  0  0
  2  8  1  0  0  0  0
  2  7  1  0  0  0  0
  3 10  1  0  0  0  0
  3  2  1  0  0  0  0
  4 12  1  0  0  0  0
  4  5  1  0  0  0  0
  4  3  1  0  0  0  0
  5  6  2  0  0  0  0
  6  1  1  0  0  0  0
  6 29  1  0  0  0  0
  9  3  1  0  0  0  0
 11  4  1  0  0  0  0
 13  5  1  0  0  0  0
 14  1  1  0  0  0  0
 14 17  1  0  0  0  0
 15 14  1  0  0  0  0
 16 14  1  0  0  0  0
 17 19  1  0  0  0  0
 17 20  1  0  0  0  0
 18 17  1  0  0  0  0
 20 25  1  0  0  0  0
 21 22  1  0  0  0  0
 21 20  2  0  0  0  0
 22 23  2  0  0  0  0
 23 24  1  0  0  0  0
 24 28  1  0  0  0  0
 25 24  2  0  0  0  0
 26 21  1  0  0  0  0
 27 22  1  0  0  0  0
 30 29  1  0  0  0  0
 31 30  1  0  0  0  0
M  END
>  <minimizedAffinity>
-4.32162571

>  <minimizedRMSD>
0.945638478

$$$$
