
 OpenBabel03242520143D

 19 20  0  0  0  0  0  0  0  0999 V2000
   43.9470   34.6580   41.4620 C   0  0  0  0  0  0  0  0  0  0  0  0
   42.7330   35.3020   41.1130 C   0  0  0  0  0  0  0  0  0  0  0  0
   42.1710   35.0300   39.8580 C   0  0  0  0  0  0  0  0  0  0  0  0
   42.8390   34.1490   39.0370 N   0  0  0  0  0  0  0  0  0  0  0  0
   44.0010   33.5610   39.4240 C   0  0  0  0  0  0  0  0  0  0  0  0
   44.5520   33.8020   40.6090 N   0  0  0  0  0  0  0  0  0  0  0  0
   42.2810   35.9740   41.8140 H   0  0  0  0  0  0  0  0  0  0  0  0
   44.4490   32.8730   38.6880 H   0  0  0  0  0  0  0  0  0  0  0  0
   44.5450   34.9640   42.7880 C   0  0  0  0  0  0  0  0  0  0  0  0
   46.0540   35.3010   42.6930 C   0  0  0  0  0  0  0  0  0  0  0  0
   45.0260   36.2840   43.1330 C   0  0  0  0  0  0  0  0  0  0  0  0
   44.2590   34.2540   43.5720 H   0  0  0  0  0  0  0  0  0  0  0  0
   46.4970   35.3880   41.6990 H   0  0  0  0  0  0  0  0  0  0  0  0
   46.6470   34.8720   43.5170 H   0  0  0  0  0  0  0  0  0  0  0  0
   44.9640   36.6170   44.1840 H   0  0  0  0  0  0  0  0  0  0  0  0
   44.8530   37.1170   42.4040 H   0  0  0  0  0  0  0  0  0  0  0  0
   40.9050   35.6830   39.4590 C   0  0  0  0  0  0  0  0  0  0  0  0
   40.2150   36.3360   40.6480 C   0  0  0  0  0  0  0  0  0  0  0  0
   40.8270   37.1480   41.0640 H   0  0  0  0  0  0  0  0  0  0  0  0
  1  9  1  0  0  0  0
  2  1  1  0  0  0  0
  2  7  1  0  0  0  0
  3  2  2  0  0  0  0
  4  5  2  0  0  0  0
  4  3  1  0  0  0  0
  5  6  1  0  0  0  0
  6  1  2  0  0  0  0
  8  5  1  0  0  0  0
  9 11  1  0  0  0  0
  9 12  1  0  0  0  0
 10  9  1  0  0  0  0
 10 11  1  0  0  0  0
 10 14  1  0  0  0  0
 11 15  1  0  0  0  0
 13 10  1  0  0  0  0
 16 11  1  0  0  0  0
 17  3  1  0  0  0  0
 17 18  1  0  0  0  0
 18 19  1  0  0  0  0
M  END
>  <minimizedAffinity>
-3.66995072

>  <minimizedRMSD>
6.51741886

$$$$
