
 OpenBabel03252508583D

 33 34  0  0  1  0  0  0  0  0999 V2000
   48.3780   34.1500   41.0250 N   0  0  0  0  0  0  0  0  0  0  0  0
   49.5110   33.9680   41.8670 C   0  0  0  0  0  0  0  0  0  0  0  0
   50.0910   32.5930   41.9590 C   0  0  0  0  0  0  0  0  0  0  0  0
   49.9530   31.7600   40.7160 C   0  0  0  0  0  0  0  0  0  0  0  0
   49.3220   32.5070   39.6100 C   0  0  0  0  0  0  0  0  0  0  0  0
   48.0050   33.1310   40.1510 C   0  0  2  0  0  0  0  0  0  0  0  0
   49.2960   34.3280   42.8930 H   0  0  0  0  0  0  0  0  0  0  0  0
   50.3120   34.6350   41.4770 H   0  0  0  0  0  0  0  0  0  0  0  0
   51.1500   32.7080   42.3020 H   0  0  0  0  0  0  0  0  0  0  0  0
   49.5280   32.0580   42.7750 H   0  0  0  0  0  0  0  0  0  0  0  0
   49.5040   30.7650   40.9110 H   0  0  0  0  0  0  0  0  0  0  0  0
   51.0080   31.5210   40.3910 H   0  0  0  0  0  0  0  0  0  0  0  0
   49.9950   33.3190   39.2690 H   0  0  0  0  0  0  0  0  0  0  0  0
   49.1080   31.7720   38.8050 H   0  0  0  0  0  0  0  0  0  0  0  0
   47.4870   32.2440   40.5590 H   0  0  0  0  0  0  0  0  0  0  0  0
   47.3600   34.9680   41.5880 C   0  0  0  0  0  0  0  0  0  0  0  0
   47.1670   35.8790   41.0130 H   0  0  0  0  0  0  0  0  0  0  0  0
   47.7670   35.3390   42.5730 H   0  0  0  0  0  0  0  0  0  0  0  0
   46.1200   34.1990   41.8510 C   0  0  0  0  0  0  0  0  0  0  0  0
   46.1650   33.1190   41.7900 H   0  0  0  0  0  0  0  0  0  0  0  0
   45.3220   34.6710   41.1940 H   0  0  0  0  0  0  0  0  0  0  0  0
   44.4590   35.9540   44.7280 C   0  0  0  0  0  0  0  0  0  0  0  0
   44.9210   35.6490   43.4450 C   0  0  0  0  0  0  0  0  0  0  0  0
   45.6430   34.4960   43.2350 C   0  0  0  0  0  0  0  0  0  0  0  0
   45.8690   33.7070   44.2960 N   0  0  0  0  0  0  0  0  0  0  0  0
   45.4190   34.0120   45.5310 C   0  0  0  0  0  0  0  0  0  0  0  0
   44.7140   35.1310   45.7550 N   0  0  0  0  0  0  0  0  0  0  0  0
   43.9000   36.8470   44.8930 H   0  0  0  0  0  0  0  0  0  0  0  0
   44.6700   36.3760   42.6590 H   0  0  0  0  0  0  0  0  0  0  0  0
   45.6390   33.3250   46.3520 H   0  0  0  0  0  0  0  0  0  0  0  0
   47.3990   33.6140   38.8290 C   0  0  0  0  0  2  0  0  0  0  0  0
   48.4190   34.4330   38.0370 C   0  0  0  0  0  2  0  0  0  0  0  0
   49.4320   34.0010   38.1000 H   0  0  0  0  0  0  0  0  0  0  0  0
  1 16  1  0  0  0  0
  1  2  1  0  0  0  0
  2  3  1  0  0  0  0
  2  7  1  0  0  0  0
  3  9  1  0  0  0  0
  3 10  1  0  0  0  0
  4 11  1  0  0  0  0
  4  3  1  0  0  0  0
  5  6  1  0  0  0  0
  5  4  1  0  0  0  0
  6 15  1  1  0  0  0
  6  1  1  0  0  0  0
  8  2  1  0  0  0  0
 12  4  1  0  0  0  0
 13  5  1  0  0  0  0
 14  5  1  0  0  0  0
 16 19  1  0  0  0  0
 16 18  1  0  0  0  0
 17 16  1  0  0  0  0
 19 24  1  0  0  0  0
 20 19  1  0  0  0  0
 21 19  1  0  0  0  0
 22 28  1  0  0  0  0
 22 27  1  0  0  0  0
 23 22  2  0  0  0  0
 24 23  1  0  0  0  0
 24 25  2  0  0  0  0
 25 26  1  0  0  0  0
 26 27  2  0  0  0  0
 26 30  1  0  0  0  0
 29 23  1  0  0  0  0
 31  6  1  0  0  0  0
 32 33  1  0  0  0  0
 32 31  1  0  0  0  0
M  END
>  <minimizedAffinity>
-4.17008495

>  <minimizedRMSD>
1.24965394

$$$$
