
 OpenBabel03252507033D

 32 33  0  0  0  0  0  0  0  0999 V2000
   36.5320   27.8080   42.1210 C   0  0  0  0  0  0  0  0  0  0  0  0
   36.0600   28.6230   41.4780 H   0  0  0  0  0  0  0  0  0  0  0  0
   35.6380   27.4450   42.6840 H   0  0  0  0  0  0  0  0  0  0  0  0
   37.1530   26.7970   41.5250 N   0  0  0  0  0  0  0  0  0  0  0  0
   38.0660   25.8650   42.0810 C   0  0  0  0  0  0  0  0  0  0  0  0
   37.1070   24.6540   42.2170 C   0  0  0  0  0  0  0  0  0  0  0  0
   36.5750   24.2000   40.9300 C   0  0  0  0  0  0  0  0  0  0  0  0
   36.5230   25.1470   39.8180 C   0  0  0  0  0  0  0  0  0  0  0  0
   36.8150   26.5810   40.1130 C   0  0  0  0  0  0  0  0  0  0  0  0
   38.9470   25.5780   41.5390 H   0  0  0  0  0  0  0  0  0  0  0  0
   38.3670   26.1250   43.1110 H   0  0  0  0  0  0  0  0  0  0  0  0
   37.6860   23.8710   42.7520 H   0  0  0  0  0  0  0  0  0  0  0  0
   36.3330   25.0000   42.9550 H   0  0  0  0  0  0  0  0  0  0  0  0
   35.5580   23.7460   41.1070 H   0  0  0  0  0  0  0  0  0  0  0  0
   37.2080   23.3330   40.5820 H   0  0  0  0  0  0  0  0  0  0  0  0
   36.2770   24.9340   38.8130 H   0  0  0  0  0  0  0  0  0  0  0  0
   36.7000   27.8290   38.8630 S   0  0  0  0  0  0  0  0  0  0  0  0
   35.3580   28.2460   38.7230 H   0  0  0  0  0  0  0  0  0  0  0  0
   37.3890   28.5260   43.1190 C   0  0  0  0  0  0  0  0  0  0  0  0
   38.1740   27.8680   43.5310 H   0  0  0  0  0  0  0  0  0  0  0  0
   36.7600   28.9510   43.9290 H   0  0  0  0  0  0  0  0  0  0  0  0
   38.0060   29.6810   42.4110 C   0  0  0  0  0  0  0  0  0  0  0  0
   39.2750   30.1330   42.7180 C   0  0  0  0  0  0  0  0  0  0  0  0
   39.7700   31.2310   42.0100 C   0  0  0  0  0  0  0  0  0  0  0  0
   38.9810   31.7980   41.0570 N   0  0  0  0  0  0  0  0  0  0  0  0
   37.7640   31.3320   40.7900 C   0  0  0  0  0  0  0  0  0  0  0  0
   37.2910   30.2810   41.4690 N   0  0  0  0  0  0  0  0  0  0  0  0
   39.8430   29.6480   43.4740 H   0  0  0  0  0  0  0  0  0  0  0  0
   40.7570   31.5850   42.2460 H   0  0  0  0  0  0  0  0  0  0  0  0
   37.0070   32.0440   39.7240 C   0  0  0  0  0  2  0  0  0  0  0  0
   37.4770   33.4790   39.6580 C   0  0  0  0  0  2  0  0  0  0  0  0
   36.8210   34.1560   40.2540 H   0  0  0  0  0  0  0  0  0  0  0  0
  1  3  1  0  0  0  0
  1 19  1  0  0  0  0
  2  1  1  0  0  0  0
  4  5  1  0  0  0  0
  4  1  1  0  0  0  0
  5  6  1  0  0  0  0
  5 11  1  0  0  0  0
  6 12  1  0  0  0  0
  6 13  1  0  0  0  0
  7 14  1  0  0  0  0
  7  6  1  0  0  0  0
  8  9  2  0  0  0  0
  8  7  1  0  0  0  0
  9  4  1  0  0  0  0
 10  5  1  0  0  0  0
 15  7  1  0  0  0  0
 16  8  1  0  0  0  0
 17  9  1  0  0  0  0
 18 17  1  0  0  0  0
 19 20  1  0  0  0  0
 19 21  1  0  0  0  0
 22 23  1  0  0  0  0
 22 19  1  0  0  0  0
 23 28  1  0  0  0  0
 24 29  1  0  0  0  0
 24 23  2  0  0  0  0
 25 24  1  0  0  0  0
 26 25  2  0  0  0  0
 26 27  1  0  0  0  0
 27 22  2  0  0  0  0
 30 26  1  0  0  0  0
 31 30  1  0  0  0  0
 31 32  1  0  0  0  0
M  END
>  <minimizedAffinity>
-4.77251291

$$$$

 OpenBabel03252507033D

 32 33  0  0  0  0  0  0  0  0999 V2000
   36.5970   28.0780   40.6130 C   0  0  0  0  0  0  0  0  0  0  0  0
   36.9020   27.7050   39.5790 H   0  0  0  0  0  0  0  0  0  0  0  0
   35.9890   27.2120   40.9730 H   0  0  0  0  0  0  0  0  0  0  0  0
   37.5440   28.3840   41.4920 N   0  0  0  0  0  0  0  0  0  0  0  0
   37.4180   29.0640   42.7310 C   0  0  0  0  0  0  0  0  0  0  0  0
   37.5140   27.8400   43.6780 C   0  0  0  0  0  0  0  0  0  0  0  0
   38.7910   27.1310   43.5670 C   0  0  0  0  0  0  0  0  0  0  0  0
   39.5570   27.2520   42.3290 C   0  0  0  0  0  0  0  0  0  0  0  0
   38.8960   27.9160   41.1650 C   0  0  0  0  0  0  0  0  0  0  0  0
   38.1370   29.8080   43.0170 H   0  0  0  0  0  0  0  0  0  0  0  0
   36.4090   29.4840   42.8860 H   0  0  0  0  0  0  0  0  0  0  0  0
   37.3180   28.2330   44.6980 H   0  0  0  0  0  0  0  0  0  0  0  0
   36.6080   27.2250   43.4230 H   0  0  0  0  0  0  0  0  0  0  0  0
   38.6180   26.0450   43.8170 H   0  0  0  0  0  0  0  0  0  0  0  0
   39.4630   27.5020   44.3960 H   0  0  0  0  0  0  0  0  0  0  0  0
   40.5370   26.8990   42.1490 H   0  0  0  0  0  0  0  0  0  0  0  0
   39.6950   28.0430   39.5910 S   0  0  0  0  0  0  0  0  0  0  0  0
   39.5200   26.8450   38.8640 H   0  0  0  0  0  0  0  0  0  0  0  0
   35.6280   29.1950   40.3700 C   0  0  0  0  0  0  0  0  0  0  0  0
   35.3370   29.6940   41.3120 H   0  0  0  0  0  0  0  0  0  0  0  0
   34.7360   28.8170   39.8280 H   0  0  0  0  0  0  0  0  0  0  0  0
   36.2990   30.1640   39.4620 C   0  0  0  0  0  0  0  0  0  0  0  0
   36.6720   29.8230   38.1760 C   0  0  0  0  0  0  0  0  0  0  0  0
   37.3070   30.7930   37.3970 C   0  0  0  0  0  0  0  0  0  0  0  0
   37.5270   32.0210   37.9420 N   0  0  0  0  0  0  0  0  0  0  0  0
   37.1510   32.3110   39.1840 C   0  0  0  0  0  0  0  0  0  0  0  0
   36.5430   31.3800   39.9290 N   0  0  0  0  0  0  0  0  0  0  0  0
   36.4740   28.8460   37.8070 H   0  0  0  0  0  0  0  0  0  0  0  0
   37.5990   30.5300   36.3960 H   0  0  0  0  0  0  0  0  0  0  0  0
   37.4500   33.6900   39.6560 C   0  0  0  0  0  2  0  0  0  0  0  0
   38.8160   33.7060   40.3040 C   0  0  0  0  0  2  0  0  0  0  0  0
   38.7480   33.5910   41.4110 H   0  0  0  0  0  0  0  0  0  0  0  0
  1  3  1  0  0  0  0
  1  4  1  0  0  0  0
  2  1  1  0  0  0  0
  4  5  1  0  0  0  0
  5 11  1  0  0  0  0
  5 10  1  0  0  0  0
  5  6  1  0  0  0  0
  6 12  1  0  0  0  0
  7  6  1  0  0  0  0
  7 14  1  0  0  0  0
  7 15  1  0  0  0  0
  8  7  1  0  0  0  0
  9  4  1  0  0  0  0
  9  8  2  0  0  0  0
 13  6  1  0  0  0  0
 16  8  1  0  0  0  0
 17  9  1  0  0  0  0
 18 17  1  0  0  0  0
 19  1  1  0  0  0  0
 19 20  1  0  0  0  0
 21 19  1  0  0  0  0
 22 27  1  0  0  0  0
 22 19  1  0  0  0  0
 23 22  2  0  0  0  0
 24 25  2  0  0  0  0
 24 23  1  0  0  0  0
 25 26  1  0  0  0  0
 26 30  1  0  0  0  0
 26 27  2  0  0  0  0
 28 23  1  0  0  0  0
 29 24  1  0  0  0  0
 30 31  1  0  0  0  0
 31 32  1  0  0  0  0
M  END
>  <minimizedAffinity>
-4.61530352

$$$$

 OpenBabel03252507033D

 32 33  0  0  0  0  0  0  0  0999 V2000
   38.3860   29.6910   42.5720 C   0  0  0  0  0  0  0  0  0  0  0  0
   39.4880   29.4030   42.6090 H   0  0  0  0  0  0  0  0  0  0  0  0
   38.4180   30.6960   43.0600 H   0  0  0  0  0  0  0  0  0  0  0  0
   37.7770   29.7610   41.3940 N   0  0  0  0  0  0  0  0  0  0  0  0
   36.4150   30.0430   41.1140 C   0  0  0  0  0  0  0  0  0  0  0  0
   36.5730   31.5150   40.6540 C   0  0  0  0  0  0  0  0  0  0  0  0
   37.4190   31.6540   39.4660 C   0  0  0  0  0  0  0  0  0  0  0  0
   38.4000   30.6110   39.1760 C   0  0  0  0  0  0  0  0  0  0  0  0
   38.6350   29.5680   40.2190 C   0  0  0  0  0  0  0  0  0  0  0  0
   35.8860   29.4790   40.3690 H   0  0  0  0  0  0  0  0  0  0  0  0
   35.7910   30.0800   42.0240 H   0  0  0  0  0  0  0  0  0  0  0  0
   35.5410   31.8950   40.5040 H   0  0  0  0  0  0  0  0  0  0  0  0
   36.9510   32.0480   41.5690 H   0  0  0  0  0  0  0  0  0  0  0  0
   37.9200   32.6640   39.5020 H   0  0  0  0  0  0  0  0  0  0  0  0
   36.7400   31.7150   38.5660 H   0  0  0  0  0  0  0  0  0  0  0  0
   38.9900   30.5170   38.3040 H   0  0  0  0  0  0  0  0  0  0  0  0
   39.8580   28.3060   40.0130 S   0  0  0  0  0  0  0  0  0  0  0  0
   41.1280   28.8020   40.3810 H   0  0  0  0  0  0  0  0  0  0  0  0
   37.6970   28.7800   43.5440 C   0  0  0  0  0  0  0  0  0  0  0  0
   36.5980   28.8410   43.4510 H   0  0  0  0  0  0  0  0  0  0  0  0
   38.0230   29.0080   44.5800 H   0  0  0  0  0  0  0  0  0  0  0  0
   38.1610   27.3980   43.2470 C   0  0  0  0  0  0  0  0  0  0  0  0
   39.3870   26.9290   43.6790 C   0  0  0  0  0  0  0  0  0  0  0  0
   39.7450   25.6210   43.3440 C   0  0  0  0  0  0  0  0  0  0  0  0
   38.8730   24.8760   42.6130 N   0  0  0  0  0  0  0  0  0  0  0  0
   37.7000   25.3630   42.2170 C   0  0  0  0  0  0  0  0  0  0  0  0
   37.3590   26.6160   42.5370 N   0  0  0  0  0  0  0  0  0  0  0  0
   40.0260   27.5600   44.2470 H   0  0  0  0  0  0  0  0  0  0  0  0
   40.6990   25.2540   43.6790 H   0  0  0  0  0  0  0  0  0  0  0  0
   36.8400   24.4430   41.4240 C   0  0  0  0  0  2  0  0  0  0  0  0
   37.6540   23.2370   41.0130 C   0  0  0  0  0  2  0  0  0  0  0  0
   38.0750   23.3540   39.9870 H   0  0  0  0  0  0  0  0  0  0  0  0
  1  2  1  0  0  0  0
  1  3  1  0  0  0  0
  1 19  1  0  0  0  0
  4  1  1  0  0  0  0
  5  4  1  0  0  0  0
  5 11  1  0  0  0  0
  6  5  1  0  0  0  0
  6 13  1  0  0  0  0
  7 14  1  0  0  0  0
  7  6  1  0  0  0  0
  8  7  1  0  0  0  0
  8  9  2  0  0  0  0
  9  4  1  0  0  0  0
 10  5  1  0  0  0  0
 12  6  1  0  0  0  0
 15  7  1  0  0  0  0
 16  8  1  0  0  0  0
 17  9  1  0  0  0  0
 17 18  1  0  0  0  0
 19 21  1  0  0  0  0
 20 19  1  0  0  0  0
 22 19  1  0  0  0  0
 22 23  1  0  0  0  0
 23 28  1  0  0  0  0
 24 23  2  0  0  0  0
 24 29  1  0  0  0  0
 25 24  1  0  0  0  0
 26 27  1  0  0  0  0
 26 25  2  0  0  0  0
 27 22  2  0  0  0  0
 30 26  1  0  0  0  0
 31 30  1  0  0  0  0
 32 31  1  0  0  0  0
M  END
>  <minimizedAffinity>
-4.59160995

$$$$

 OpenBabel03252507033D

 32 33  0  0  0  0  0  0  0  0999 V2000
   36.4710   30.7860   41.1870 C   0  0  0  0  0  0  0  0  0  0  0  0
   36.7960   30.3090   42.1700 H   0  0  0  0  0  0  0  0  0  0  0  0
   35.7140   31.5210   41.5550 H   0  0  0  0  0  0  0  0  0  0  0  0
   37.3820   31.3900   40.4330 N   0  0  0  0  0  0  0  0  0  0  0  0
   37.2490   31.8940   39.1130 C   0  0  0  0  0  0  0  0  0  0  0  0
   37.1320   33.4030   39.4520 C   0  0  0  0  0  0  0  0  0  0  0  0
   38.3210   33.9310   40.1240 C   0  0  0  0  0  0  0  0  0  0  0  0
   39.1830   33.0060   40.8580 C   0  0  0  0  0  0  0  0  0  0  0  0
   38.6900   31.6110   41.0620 C   0  0  0  0  0  0  0  0  0  0  0  0
   38.0280   31.7380   38.3910 H   0  0  0  0  0  0  0  0  0  0  0  0
   36.2880   31.6170   38.6460 H   0  0  0  0  0  0  0  0  0  0  0  0
   36.9110   33.9100   38.4890 H   0  0  0  0  0  0  0  0  0  0  0  0
   36.1800   33.4760   40.0460 H   0  0  0  0  0  0  0  0  0  0  0  0
   38.0040   34.7830   40.7900 H   0  0  0  0  0  0  0  0  0  0  0  0
   38.9710   34.4190   39.3400 H   0  0  0  0  0  0  0  0  0  0  0  0
   40.1240   33.2190   41.2880 H   0  0  0  0  0  0  0  0  0  0  0  0
   39.6080   30.4290   42.0060 S   0  0  0  0  0  0  0  0  0  0  0  0
   39.3460   30.6050   43.3830 H   0  0  0  0  0  0  0  0  0  0  0  0
   35.7020   29.7270   40.4570 C   0  0  0  0  0  0  0  0  0  0  0  0
   35.8350   29.8080   39.3630 H   0  0  0  0  0  0  0  0  0  0  0  0
   34.6270   29.7750   40.7320 H   0  0  0  0  0  0  0  0  0  0  0  0
   36.2060   28.4130   40.9400 C   0  0  0  0  0  0  0  0  0  0  0  0
   36.5720   28.2090   42.2570 C   0  0  0  0  0  0  0  0  0  0  0  0
   37.0450   26.9450   42.6180 C   0  0  0  0  0  0  0  0  0  0  0  0
   37.1210   25.9820   41.6600 N   0  0  0  0  0  0  0  0  0  0  0  0
   36.7580   26.2170   40.4030 C   0  0  0  0  0  0  0  0  0  0  0  0
   36.3060   27.4280   40.0570 N   0  0  0  0  0  0  0  0  0  0  0  0
   36.4900   29.0020   42.9590 H   0  0  0  0  0  0  0  0  0  0  0  0
   37.3310   26.7840   43.6420 H   0  0  0  0  0  0  0  0  0  0  0  0
   36.8900   25.0770   39.4560 C   0  0  0  0  0  2  0  0  0  0  0  0
   36.3750   23.8200   40.1200 C   0  0  0  0  0  2  0  0  0  0  0  0
   37.2010   23.2310   40.5830 H   0  0  0  0  0  0  0  0  0  0  0  0
  1  3  1  0  0  0  0
  1  2  1  0  0  0  0
  4  9  1  0  0  0  0
  4  1  1  0  0  0  0
  5  6  1  0  0  0  0
  5  4  1  0  0  0  0
  6 13  1  0  0  0  0
  6  7  1  0  0  0  0
  7 14  1  0  0  0  0
  7  8  1  0  0  0  0
  8  9  2  0  0  0  0
  8 16  1  0  0  0  0
  9 17  1  0  0  0  0
 10  5  1  0  0  0  0
 11  5  1  0  0  0  0
 12  6  1  0  0  0  0
 15  7  1  0  0  0  0
 17 18  1  0  0  0  0
 19 21  1  0  0  0  0
 19 22  1  0  0  0  0
 19  1  1  0  0  0  0
 20 19  1  0  0  0  0
 22 23  1  0  0  0  0
 23 24  2  0  0  0  0
 23 28  1  0  0  0  0
 24 29  1  0  0  0  0
 25 24  1  0  0  0  0
 26 25  2  0  0  0  0
 27 26  1  0  0  0  0
 27 22  2  0  0  0  0
 30 31  1  0  0  0  0
 30 26  1  0  0  0  0
 31 32  1  0  0  0  0
M  END
>  <minimizedAffinity>
-4.57551622

$$$$

 OpenBabel03252507033D

 32 33  0  0  0  0  0  0  0  0999 V2000
   36.3570   30.3290   40.5930 C   0  0  0  0  0  0  0  0  0  0  0  0
   36.6440   30.7580   41.6090 H   0  0  0  0  0  0  0  0  0  0  0  0
   35.5280   31.0200   40.3030 H   0  0  0  0  0  0  0  0  0  0  0  0
   37.2750   30.2700   39.6350 N   0  0  0  0  0  0  0  0  0  0  0  0
   37.3340   29.4020   38.5140 C   0  0  0  0  0  0  0  0  0  0  0  0
   36.8580   30.3970   37.4250 C   0  0  0  0  0  0  0  0  0  0  0  0
   37.7500   31.5500   37.2750 C   0  0  0  0  0  0  0  0  0  0  0  0
   38.5950   31.9350   38.4030 C   0  0  0  0  0  0  0  0  0  0  0  0
   38.3480   31.2680   39.7160 C   0  0  0  0  0  0  0  0  0  0  0  0
   38.2650   28.9550   38.2230 H   0  0  0  0  0  0  0  0  0  0  0  0
   36.5680   28.6080   38.5490 H   0  0  0  0  0  0  0  0  0  0  0  0
   36.7570   29.7990   36.4950 H   0  0  0  0  0  0  0  0  0  0  0  0
   35.8050   30.6500   37.7260 H   0  0  0  0  0  0  0  0  0  0  0  0
   37.1380   32.4300   36.9250 H   0  0  0  0  0  0  0  0  0  0  0  0
   38.4470   31.3360   36.4130 H   0  0  0  0  0  0  0  0  0  0  0  0
   39.3630   32.6620   38.4040 H   0  0  0  0  0  0  0  0  0  0  0  0
   39.2520   31.7150   41.1710 S   0  0  0  0  0  0  0  0  0  0  0  0
   38.6700   32.8550   41.7670 H   0  0  0  0  0  0  0  0  0  0  0  0
   35.7130   29.0060   40.8800 C   0  0  0  0  0  0  0  0  0  0  0  0
   35.5080   28.4420   39.9520 H   0  0  0  0  0  0  0  0  0  0  0  0
   34.7840   29.1520   41.4700 H   0  0  0  0  0  0  0  0  0  0  0  0
   36.6520   28.2440   41.7470 C   0  0  0  0  0  0  0  0  0  0  0  0
   37.3150   28.8360   42.8040 C   0  0  0  0  0  0  0  0  0  0  0  0
   38.1870   28.0470   43.5570 C   0  0  0  0  0  0  0  0  0  0  0  0
   38.3400   26.7390   43.2140 N   0  0  0  0  0  0  0  0  0  0  0  0
   37.6820   26.2050   42.1890 C   0  0  0  0  0  0  0  0  0  0  0  0
   36.8480   26.9620   41.4680 N   0  0  0  0  0  0  0  0  0  0  0  0
   37.1550   29.8640   43.0220 H   0  0  0  0  0  0  0  0  0  0  0  0
   38.7050   28.5050   44.3800 H   0  0  0  0  0  0  0  0  0  0  0  0
   37.9390   24.7630   41.9220 C   0  0  0  0  0  2  0  0  0  0  0  0
   36.7230   24.1590   41.2580 C   0  0  0  0  0  2  0  0  0  0  0  0
   36.0520   23.6640   41.9980 H   0  0  0  0  0  0  0  0  0  0  0  0
  1 19  1  0  0  0  0
  1  2  1  0  0  0  0
  3  1  1  0  0  0  0
  4  9  1  0  0  0  0
  4  1  1  0  0  0  0
  5 11  1  0  0  0  0
  5  4  1  0  0  0  0
  6 13  1  0  0  0  0
  6  5  1  0  0  0  0
  7  6  1  0  0  0  0
  7  8  1  0  0  0  0
  8 16  1  0  0  0  0
  8  9  2  0  0  0  0
  9 17  1  0  0  0  0
 10  5  1  0  0  0  0
 12  6  1  0  0  0  0
 14  7  1  0  0  0  0
 15  7  1  0  0  0  0
 17 18  1  0  0  0  0
 19 21  1  0  0  0  0
 19 22  1  0  0  0  0
 20 19  1  0  0  0  0
 22 23  1  0  0  0  0
 23 28  1  0  0  0  0
 23 24  2  0  0  0  0
 24 29  1  0  0  0  0
 25 24  1  0  0  0  0
 26 25  2  0  0  0  0
 27 22  2  0  0  0  0
 27 26  1  0  0  0  0
 30 26  1  0  0  0  0
 31 30  1  0  0  0  0
 31 32  1  0  0  0  0
M  END
>  <minimizedAffinity>
-4.43175459

$$$$

 OpenBabel03252507033D

 32 33  0  0  0  0  0  0  0  0999 V2000
   39.6080   29.5560   41.8590 C   0  0  0  0  0  0  0  0  0  0  0  0
   40.7100   29.4030   41.6090 H   0  0  0  0  0  0  0  0  0  0  0  0
   39.1450   29.4020   40.8540 H   0  0  0  0  0  0  0  0  0  0  0  0
   39.0380   28.7690   42.7630 N   0  0  0  0  0  0  0  0  0  0  0  0
   37.7860   28.9240   43.4110 C   0  0  0  0  0  0  0  0  0  0  0  0
   36.9740   27.8820   42.5990 C   0  0  0  0  0  0  0  0  0  0  0  0
   37.4970   26.5210   42.7330 C   0  0  0  0  0  0  0  0  0  0  0  0
   38.9000   26.3400   43.0990 C   0  0  0  0  0  0  0  0  0  0  0  0
   39.7770   27.5480   43.1060 C   0  0  0  0  0  0  0  0  0  0  0  0
   37.6900   28.7280   44.4620 H   0  0  0  0  0  0  0  0  0  0  0  0
   37.3140   29.9000   43.2010 H   0  0  0  0  0  0  0  0  0  0  0  0
   35.9230   27.9840   42.9450 H   0  0  0  0  0  0  0  0  0  0  0  0
   36.9770   28.2900   41.5520 H   0  0  0  0  0  0  0  0  0  0  0  0
   37.2620   25.9550   41.7870 H   0  0  0  0  0  0  0  0  0  0  0  0
   36.8890   25.9950   43.5270 H   0  0  0  0  0  0  0  0  0  0  0  0
   39.3820   25.4320   43.3430 H   0  0  0  0  0  0  0  0  0  0  0  0
   41.5100   27.4370   43.4500 S   0  0  0  0  0  0  0  0  0  0  0  0
   42.2100   27.0720   42.2790 H   0  0  0  0  0  0  0  0  0  0  0  0
   39.4620   31.0160   42.1640 C   0  0  0  0  0  0  0  0  0  0  0  0
   40.4430   31.5170   42.2430 H   0  0  0  0  0  0  0  0  0  0  0  0
   38.8680   31.1560   43.0920 H   0  0  0  0  0  0  0  0  0  0  0  0
   38.6670   31.6140   41.0580 C   0  0  0  0  0  0  0  0  0  0  0  0
   38.6230   32.9790   40.8430 C   0  0  0  0  0  0  0  0  0  0  0  0
   37.8410   33.4520   39.7870 C   0  0  0  0  0  0  0  0  0  0  0  0
   37.1640   32.5500   39.0250 N   0  0  0  0  0  0  0  0  0  0  0  0
   37.2330   31.2440   39.2630 C   0  0  0  0  0  0  0  0  0  0  0  0
   37.9820   30.7920   40.2750 N   0  0  0  0  0  0  0  0  0  0  0  0
   39.1740   33.6330   41.4730 H   0  0  0  0  0  0  0  0  0  0  0  0
   37.8050   34.5130   39.6180 H   0  0  0  0  0  0  0  0  0  0  0  0
   36.4450   30.3680   38.3540 C   0  0  0  0  0  2  0  0  0  0  0  0
   36.0650   29.1040   39.0930 C   0  0  0  0  0  2  0  0  0  0  0  0
   36.7840   28.2760   38.8900 H   0  0  0  0  0  0  0  0  0  0  0  0
  1 19  1  0  0  0  0
  1  4  1  0  0  0  0
  2  1  1  0  0  0  0
  3  1  1  0  0  0  0
  4  9  1  0  0  0  0
  4  5  1  0  0  0  0
  5 10  1  0  0  0  0
  6  7  1  0  0  0  0
  6 12  1  0  0  0  0
  6  5  1  0  0  0  0
  7  8  1  0  0  0  0
  7 15  1  0  0  0  0
  8  9  2  0  0  0  0
  8 16  1  0  0  0  0
  9 17  1  0  0  0  0
 11  5  1  0  0  0  0
 13  6  1  0  0  0  0
 14  7  1  0  0  0  0
 18 17  1  0  0  0  0
 19 20  1  0  0  0  0
 19 21  1  0  0  0  0
 22 19  1  0  0  0  0
 23 22  1  0  0  0  0
 23 28  1  0  0  0  0
 24 23  2  0  0  0  0
 25 26  2  0  0  0  0
 25 24  1  0  0  0  0
 26 27  1  0  0  0  0
 27 22  2  0  0  0  0
 29 24  1  0  0  0  0
 30 31  1  0  0  0  0
 30 26  1  0  0  0  0
 32 31  1  0  0  0  0
M  END
>  <minimizedAffinity>
-4.41590691

$$$$

 OpenBabel03252507033D

 32 33  0  0  0  0  0  0  0  0999 V2000
   39.1220   27.7680   41.8620 C   0  0  0  0  0  0  0  0  0  0  0  0
   40.1970   27.7600   41.4820 H   0  0  0  0  0  0  0  0  0  0  0  0
   38.5720   27.9980   40.9170 H   0  0  0  0  0  0  0  0  0  0  0  0
   38.6340   26.6750   42.4350 N   0  0  0  0  0  0  0  0  0  0  0  0
   37.2790   26.3310   42.6790 C   0  0  0  0  0  0  0  0  0  0  0  0
   37.0880   25.3100   41.5270 C   0  0  0  0  0  0  0  0  0  0  0  0
   37.9780   24.1520   41.6380 C   0  0  0  0  0  0  0  0  0  0  0  0
   39.2220   24.2910   42.3920 C   0  0  0  0  0  0  0  0  0  0  0  0
   39.6210   25.6620   42.8280 C   0  0  0  0  0  0  0  0  0  0  0  0
   36.9900   25.8890   43.6140 H   0  0  0  0  0  0  0  0  0  0  0  0
   36.5830   27.1590   42.4620 H   0  0  0  0  0  0  0  0  0  0  0  0
   36.0120   25.0380   41.5420 H   0  0  0  0  0  0  0  0  0  0  0  0
   37.2220   25.9230   40.5940 H   0  0  0  0  0  0  0  0  0  0  0  0
   38.1900   23.7660   40.6000 H   0  0  0  0  0  0  0  0  0  0  0  0
   37.3970   23.3170   42.1300 H   0  0  0  0  0  0  0  0  0  0  0  0
   39.8970   23.5210   42.6540 H   0  0  0  0  0  0  0  0  0  0  0  0
   41.1460   25.9620   43.6730 S   0  0  0  0  0  0  0  0  0  0  0  0
   42.2000   26.0730   42.7390 H   0  0  0  0  0  0  0  0  0  0  0  0
   39.0050   28.9920   42.7200 C   0  0  0  0  0  0  0  0  0  0  0  0
   39.9970   29.3980   42.9880 H   0  0  0  0  0  0  0  0  0  0  0  0
   38.4070   28.7680   43.6280 H   0  0  0  0  0  0  0  0  0  0  0  0
   38.2330   29.9970   41.9400 C   0  0  0  0  0  0  0  0  0  0  0  0
   36.8880   29.8360   41.6690 C   0  0  0  0  0  0  0  0  0  0  0  0
   36.2460   30.8250   40.9200 C   0  0  0  0  0  0  0  0  0  0  0  0
   36.9740   31.8930   40.4960 N   0  0  0  0  0  0  0  0  0  0  0  0
   38.2680   32.0130   40.7780 C   0  0  0  0  0  0  0  0  0  0  0  0
   38.8820   31.0650   41.4950 N   0  0  0  0  0  0  0  0  0  0  0  0
   36.3730   28.9780   42.0280 H   0  0  0  0  0  0  0  0  0  0  0  0
   35.1990   30.7020   40.7070 H   0  0  0  0  0  0  0  0  0  0  0  0
   38.9460   33.2300   40.2550 C   0  0  0  0  0  2  0  0  0  0  0  0
   40.1250   32.8130   39.4050 C   0  0  0  0  0  2  0  0  0  0  0  0
   41.0750   32.8160   39.9880 H   0  0  0  0  0  0  0  0  0  0  0  0
  1  4  1  0  0  0  0
  1 19  1  0  0  0  0
  2  1  1  0  0  0  0
  3  1  1  0  0  0  0
  4  5  1  0  0  0  0
  4  9  1  0  0  0  0
  5 10  1  0  0  0  0
  6 12  1  0  0  0  0
  6  7  1  0  0  0  0
  6  5  1  0  0  0  0
  7 15  1  0  0  0  0
  7  8  1  0  0  0  0
  8 16  1  0  0  0  0
  8  9  2  0  0  0  0
  9 17  1  0  0  0  0
 11  5  1  0  0  0  0
 13  6  1  0  0  0  0
 14  7  1  0  0  0  0
 18 17  1  0  0  0  0
 19 20  1  0  0  0  0
 19 21  1  0  0  0  0
 22 19  1  0  0  0  0
 23 22  1  0  0  0  0
 23 28  1  0  0  0  0
 24 23  2  0  0  0  0
 25 26  2  0  0  0  0
 25 24  1  0  0  0  0
 26 27  1  0  0  0  0
 27 22  2  0  0  0  0
 29 24  1  0  0  0  0
 30 26  1  0  0  0  0
 31 32  1  0  0  0  0
 31 30  1  0  0  0  0
M  END
>  <minimizedAffinity>
-4.38281679

$$$$

 OpenBabel03252507033D

 32 33  0  0  0  0  0  0  0  0999 V2000
   38.2880   27.7980   40.1080 C   0  0  0  0  0  0  0  0  0  0  0  0
   39.0390   28.4730   39.5780 H   0  0  0  0  0  0  0  0  0  0  0  0
   38.4300   26.8460   39.5410 H   0  0  0  0  0  0  0  0  0  0  0  0
   38.4170   27.5900   41.4130 N   0  0  0  0  0  0  0  0  0  0  0  0
   39.2690   28.2490   42.3360 C   0  0  0  0  0  0  0  0  0  0  0  0
   38.2160   29.1680   43.0080 C   0  0  0  0  0  0  0  0  0  0  0  0
   37.1500   28.4190   43.6800 C   0  0  0  0  0  0  0  0  0  0  0  0
   36.8650   27.0560   43.2400 C   0  0  0  0  0  0  0  0  0  0  0  0
   37.5270   26.5750   41.9900 C   0  0  0  0  0  0  0  0  0  0  0  0
   39.7980   27.6880   43.0830 H   0  0  0  0  0  0  0  0  0  0  0  0
   39.9870   28.9280   41.8450 H   0  0  0  0  0  0  0  0  0  0  0  0
   38.7870   29.8280   43.6940 H   0  0  0  0  0  0  0  0  0  0  0  0
   37.8690   29.8400   42.1760 H   0  0  0  0  0  0  0  0  0  0  0  0
   36.2110   29.0430   43.6600 H   0  0  0  0  0  0  0  0  0  0  0  0
   37.4150   28.3530   44.7750 H   0  0  0  0  0  0  0  0  0  0  0  0
   36.2150   26.3610   43.7000 H   0  0  0  0  0  0  0  0  0  0  0  0
   37.1920   24.9740   41.3160 S   0  0  0  0  0  0  0  0  0  0  0  0
   36.0110   25.0160   40.5420 H   0  0  0  0  0  0  0  0  0  0  0  0
   36.9350   28.3150   39.7200 C   0  0  0  0  0  0  0  0  0  0  0  0
   36.2920   28.4780   40.6030 H   0  0  0  0  0  0  0  0  0  0  0  0
   36.4530   27.6230   38.9980 H   0  0  0  0  0  0  0  0  0  0  0  0
   37.1510   29.5990   38.9980 C   0  0  0  0  0  0  0  0  0  0  0  0
   37.2560   29.6560   37.6220 C   0  0  0  0  0  0  0  0  0  0  0  0
   37.4700   30.9030   37.0310 C   0  0  0  0  0  0  0  0  0  0  0  0
   37.5640   31.9960   37.8360 N   0  0  0  0  0  0  0  0  0  0  0  0
   37.4560   31.9000   39.1580 C   0  0  0  0  0  0  0  0  0  0  0  0
   37.2520   30.7050   39.7230 N   0  0  0  0  0  0  0  0  0  0  0  0
   37.1740   28.7660   37.0470 H   0  0  0  0  0  0  0  0  0  0  0  0
   37.5520   30.9500   35.9600 H   0  0  0  0  0  0  0  0  0  0  0  0
   37.5770   33.1720   39.9220 C   0  0  0  0  0  2  0  0  0  0  0  0
   38.7930   33.0980   40.8170 C   0  0  0  0  0  2  0  0  0  0  0  0
   38.5260   32.7730   41.8490 H   0  0  0  0  0  0  0  0  0  0  0  0
  1  4  1  0  0  0  0
  2  1  1  0  0  0  0
  3  1  1  0  0  0  0
  4  9  1  0  0  0  0
  4  5  1  0  0  0  0
  5  6  1  0  0  0  0
  5 10  1  0  0  0  0
  6  7  1  0  0  0  0
  6 12  1  0  0  0  0
  7 15  1  0  0  0  0
  8  7  1  0  0  0  0
  8 16  1  0  0  0  0
  9  8  2  0  0  0  0
 11  5  1  0  0  0  0
 13  6  1  0  0  0  0
 14  7  1  0  0  0  0
 17  9  1  0  0  0  0
 18 17  1  0  0  0  0
 19  1  1  0  0  0  0
 19 20  1  0  0  0  0
 21 19  1  0  0  0  0
 22 19  1  0  0  0  0
 22 27  1  0  0  0  0
 23 22  2  0  0  0  0
 24 23  1  0  0  0  0
 24 25  2  0  0  0  0
 25 26  1  0  0  0  0
 26 27  2  0  0  0  0
 26 30  1  0  0  0  0
 28 23  1  0  0  0  0
 29 24  1  0  0  0  0
 30 31  1  0  0  0  0
 31 32  1  0  0  0  0
M  END
>  <minimizedAffinity>
-4.35426378

$$$$

 OpenBabel03252507033D

 32 33  0  0  0  0  0  0  0  0999 V2000
   39.2620   26.7750   43.1990 C   0  0  0  0  0  0  0  0  0  0  0  0
   39.8610   26.5290   44.1370 H   0  0  0  0  0  0  0  0  0  0  0  0
   39.9100   27.5620   42.7410 H   0  0  0  0  0  0  0  0  0  0  0  0
   39.0090   25.8090   42.3240 N   0  0  0  0  0  0  0  0  0  0  0  0
   38.4880   24.5110   42.5620 C   0  0  0  0  0  0  0  0  0  0  0  0
   37.0320   24.7550   42.0860 C   0  0  0  0  0  0  0  0  0  0  0  0
   36.9490   25.1300   40.6730 C   0  0  0  0  0  0  0  0  0  0  0  0
   38.1160   25.7380   40.0370 C   0  0  0  0  0  0  0  0  0  0  0  0
   39.2550   26.1400   40.9160 C   0  0  0  0  0  0  0  0  0  0  0  0
   38.9020   23.6590   42.0580 H   0  0  0  0  0  0  0  0  0  0  0  0
   38.4140   24.2710   43.6370 H   0  0  0  0  0  0  0  0  0  0  0  0
   36.4780   23.8230   42.3250 H   0  0  0  0  0  0  0  0  0  0  0  0
   36.6350   25.5230   42.8040 H   0  0  0  0  0  0  0  0  0  0  0  0
   36.0410   25.7830   40.5310 H   0  0  0  0  0  0  0  0  0  0  0  0
   36.7140   24.1970   40.0820 H   0  0  0  0  0  0  0  0  0  0  0  0
   38.2430   25.9510   39.0100 H   0  0  0  0  0  0  0  0  0  0  0  0
   40.6830   26.9620   40.2690 S   0  0  0  0  0  0  0  0  0  0  0  0
   40.4290   28.3470   40.1520 H   0  0  0  0  0  0  0  0  0  0  0  0
   38.0290   27.4800   43.6790 C   0  0  0  0  0  0  0  0  0  0  0  0
   38.1800   27.9330   44.6750 H   0  0  0  0  0  0  0  0  0  0  0  0
   37.1660   26.7810   43.6860 H   0  0  0  0  0  0  0  0  0  0  0  0
   37.7130   28.5340   42.6770 C   0  0  0  0  0  0  0  0  0  0  0  0
   38.5330   29.6280   42.4830 C   0  0  0  0  0  0  0  0  0  0  0  0
   38.1510   30.5740   41.5290 C   0  0  0  0  0  0  0  0  0  0  0  0
   36.9950   30.3720   40.8410 N   0  0  0  0  0  0  0  0  0  0  0  0
   36.2320   29.3040   41.0550 C   0  0  0  0  0  0  0  0  0  0  0  0
   36.5990   28.3990   41.9700 N   0  0  0  0  0  0  0  0  0  0  0  0
   39.4240   29.7310   43.0530 H   0  0  0  0  0  0  0  0  0  0  0  0
   38.7880   31.4270   41.3760 H   0  0  0  0  0  0  0  0  0  0  0  0
   34.9950   29.2030   40.2340 C   0  0  0  0  0  2  0  0  0  0  0  0
   35.3100   28.4610   38.9550 C   0  0  0  0  0  2  0  0  0  0  0  0
   35.5320   29.1620   38.1160 H   0  0  0  0  0  0  0  0  0  0  0  0
  1 19  1  0  0  0  0
  1  2  1  0  0  0  0
  3  1  1  0  0  0  0
  4  5  1  0  0  0  0
  4  1  1  0  0  0  0
  5 11  1  0  0  0  0
  6 12  1  0  0  0  0
  6  5  1  0  0  0  0
  6 13  1  0  0  0  0
  7  6  1  0  0  0  0
  8  7  1  0  0  0  0
  8  9  2  0  0  0  0
  9  4  1  0  0  0  0
 10  5  1  0  0  0  0
 14  7  1  0  0  0  0
 15  7  1  0  0  0  0
 16  8  1  0  0  0  0
 17  9  1  0  0  0  0
 18 17  1  0  0  0  0
 19 21  1  0  0  0  0
 19 20  1  0  0  0  0
 22 19  1  0  0  0  0
 23 22  1  0  0  0  0
 23 28  1  0  0  0  0
 24 23  2  0  0  0  0
 25 26  2  0  0  0  0
 25 24  1  0  0  0  0
 26 27  1  0  0  0  0
 27 22  2  0  0  0  0
 29 24  1  0  0  0  0
 30 26  1  0  0  0  0
 31 30  1  0  0  0  0
 32 31  1  0  0  0  0
M  END
>  <minimizedAffinity>
-4.31253433

$$$$
