
 OpenBabel03252504503D

 18 18  0  0  0  0  0  0  0  0999 V2000
   38.5450   31.4220   41.0180 C   0  0  0  0  0  0  0  0  0  0  0  0
   37.3020   31.5890   40.4130 C   0  0  0  0  0  0  0  0  0  0  0  0
   36.2710   30.7330   40.8030 C   0  0  0  0  0  0  0  0  0  0  0  0
   36.5350   29.7840   41.7520 N   0  0  0  0  0  0  0  0  0  0  0  0
   37.7600   29.6530   42.3180 C   0  0  0  0  0  0  0  0  0  0  0  0
   38.7580   30.4690   41.9530 N   0  0  0  0  0  0  0  0  0  0  0  0
   39.3630   32.0710   40.7350 H   0  0  0  0  0  0  0  0  0  0  0  0
   35.3040   30.8230   40.3680 H   0  0  0  0  0  0  0  0  0  0  0  0
   37.1440   32.6300   39.4290 C   0  0  0  0  0  0  0  0  0  0  0  0
   37.6410   32.3110   38.4920 H   0  0  0  0  0  0  0  0  0  0  0  0
   36.0950   32.9120   39.2970 H   0  0  0  0  0  0  0  0  0  0  0  0
   37.9110   33.8560   39.8840 C   0  0  0  0  0  0  0  0  0  0  0  0
   37.6850   34.6590   39.1240 H   0  0  0  0  0  0  0  0  0  0  0  0
   37.4130   34.2100   40.8030 H   0  0  0  0  0  0  0  0  0  0  0  0
   38.9870   33.6830   40.0050 H   0  0  0  0  0  0  0  0  0  0  0  0
   37.9070   28.5820   43.3350 C   0  0  0  0  0  2  0  0  0  0  0  0
   36.7380   27.6330   43.0970 C   0  0  0  0  0  2  0  0  0  0  0  0
   36.8820   27.1150   42.1490 H   0  0  0  0  0  0  0  0  0  0  0  0
  1  6  1  0  0  0  0
  2  3  1  0  0  0  0
  2  1  2  0  0  0  0
  3  4  2  0  0  0  0
  4  5  1  0  0  0  0
  5 16  1  0  0  0  0
  6  5  2  0  0  0  0
  7  1  1  0  0  0  0
  8  3  1  0  0  0  0
  9 12  1  0  0  0  0
  9  2  1  0  0  0  0
 10  9  1  0  0  0  0
 11  9  1  0  0  0  0
 12 15  1  0  0  0  0
 12 14  1  0  0  0  0
 13 12  1  0  0  0  0
 17 16  1  0  0  0  0
 18 17  1  0  0  0  0
M  END
>  <minimizedAffinity>
-3.57991052

$$$$

 OpenBabel03252504503D

 18 18  0  0  0  0  0  0  0  0999 V2000
   36.5030   30.8030   40.9220 C   0  0  0  0  0  0  0  0  0  0  0  0
   37.4890   31.7140   40.5490 C   0  0  0  0  0  0  0  0  0  0  0  0
   38.7580   31.5600   41.1080 C   0  0  0  0  0  0  0  0  0  0  0  0
   38.9640   30.5310   41.9850 N   0  0  0  0  0  0  0  0  0  0  0  0
   37.9780   29.6640   42.3220 C   0  0  0  0  0  0  0  0  0  0  0  0
   36.7540   29.8000   41.7920 N   0  0  0  0  0  0  0  0  0  0  0  0
   35.5090   30.8980   40.5040 H   0  0  0  0  0  0  0  0  0  0  0  0
   39.5430   32.2320   40.8530 H   0  0  0  0  0  0  0  0  0  0  0  0
   37.1520   32.7550   39.6110 C   0  0  0  0  0  0  0  0  0  0  0  0
   37.4580   32.4310   38.5960 H   0  0  0  0  0  0  0  0  0  0  0  0
   36.1000   33.0460   39.6830 H   0  0  0  0  0  0  0  0  0  0  0  0
   38.0030   33.9760   39.9060 C   0  0  0  0  0  0  0  0  0  0  0  0
   37.6420   34.7790   39.2010 H   0  0  0  0  0  0  0  0  0  0  0  0
   37.6950   34.3350   40.9030 H   0  0  0  0  0  0  0  0  0  0  0  0
   39.0810   33.7930   39.8190 H   0  0  0  0  0  0  0  0  0  0  0  0
   38.3400   28.5930   43.2840 C   0  0  0  0  0  2  0  0  0  0  0  0
   37.0270   27.8970   43.6280 C   0  0  0  0  0  2  0  0  0  0  0  0
   36.6670   27.3540   42.7550 H   0  0  0  0  0  0  0  0  0  0  0  0
  1  6  1  0  0  0  0
  2  1  2  0  0  0  0
  2  3  1  0  0  0  0
  3  4  2  0  0  0  0
  4  5  1  0  0  0  0
  5 16  1  0  0  0  0
  6  5  2  0  0  0  0
  7  1  1  0  0  0  0
  8  3  1  0  0  0  0
  9 11  1  0  0  0  0
  9 12  1  0  0  0  0
  9  2  1  0  0  0  0
 10  9  1  0  0  0  0
 12 14  1  0  0  0  0
 13 12  1  0  0  0  0
 15 12  1  0  0  0  0
 16 17  1  0  0  0  0
 18 17  1  0  0  0  0
M  END
>  <minimizedAffinity>
-3.56761837

$$$$

 OpenBabel03252504503D

 18 18  0  0  0  0  0  0  0  0999 V2000
   36.9500   29.9330   41.7680 C   0  0  0  0  0  0  0  0  0  0  0  0
   38.2420   29.8030   42.2710 C   0  0  0  0  0  0  0  0  0  0  0  0
   39.1900   30.7470   41.8740 C   0  0  0  0  0  0  0  0  0  0  0  0
   38.8010   31.7410   41.0190 N   0  0  0  0  0  0  0  0  0  0  0  0
   37.5330   31.8330   40.5500 C   0  0  0  0  0  0  0  0  0  0  0  0
   36.6120   30.9340   40.9240 N   0  0  0  0  0  0  0  0  0  0  0  0
   36.1940   29.2150   42.0590 H   0  0  0  0  0  0  0  0  0  0  0  0
   40.1900   30.6890   42.2330 H   0  0  0  0  0  0  0  0  0  0  0  0
   38.5300   28.7160   43.1720 C   0  0  0  0  0  0  0  0  0  0  0  0
   39.0070   27.8970   42.5980 H   0  0  0  0  0  0  0  0  0  0  0  0
   39.1120   29.0450   44.0370 H   0  0  0  0  0  0  0  0  0  0  0  0
   37.2220   28.1350   43.6740 C   0  0  0  0  0  0  0  0  0  0  0  0
   37.5060   27.3490   44.4320 H   0  0  0  0  0  0  0  0  0  0  0  0
   36.7410   28.9260   44.2750 H   0  0  0  0  0  0  0  0  0  0  0  0
   36.5810   27.7380   42.8770 H   0  0  0  0  0  0  0  0  0  0  0  0
   37.2480   32.9620   39.6290 C   0  0  0  0  0  2  0  0  0  0  0  0
   38.1980   34.0780   40.0490 C   0  0  0  0  0  2  0  0  0  0  0  0
   39.2210   33.7920   39.8030 H   0  0  0  0  0  0  0  0  0  0  0  0
  1  7  1  0  0  0  0
  1  2  1  0  0  0  0
  2  9  1  0  0  0  0
  3  8  1  0  0  0  0
  3  2  2  0  0  0  0
  4  3  1  0  0  0  0
  5  6  1  0  0  0  0
  5  4  2  0  0  0  0
  6  1  2  0  0  0  0
  9 12  1  0  0  0  0
  9 11  1  0  0  0  0
 10  9  1  0  0  0  0
 12 14  1  0  0  0  0
 12 13  1  0  0  0  0
 15 12  1  0  0  0  0
 16 17  1  0  0  0  0
 16  5  1  0  0  0  0
 18 17  1  0  0  0  0
M  END
>  <minimizedAffinity>
-3.54146695

$$$$

 OpenBabel03252504503D

 18 18  0  0  0  0  0  0  0  0999 V2000
   39.1070   30.5650   42.0320 C   0  0  0  0  0  0  0  0  0  0  0  0
   38.0990   29.6530   42.3360 C   0  0  0  0  0  0  0  0  0  0  0  0
   36.8500   29.8450   41.7410 C   0  0  0  0  0  0  0  0  0  0  0  0
   36.6870   30.9100   40.8980 N   0  0  0  0  0  0  0  0  0  0  0  0
   37.6940   31.7750   40.6280 C   0  0  0  0  0  0  0  0  0  0  0  0
   38.8970   31.6020   41.1910 N   0  0  0  0  0  0  0  0  0  0  0  0
   40.0840   30.4410   42.4780 H   0  0  0  0  0  0  0  0  0  0  0  0
   36.0500   29.1740   41.9430 H   0  0  0  0  0  0  0  0  0  0  0  0
   38.3940   28.5660   43.2340 C   0  0  0  0  0  0  0  0  0  0  0  0
   38.9230   27.7730   42.6710 H   0  0  0  0  0  0  0  0  0  0  0  0
   38.9300   28.9060   44.1250 H   0  0  0  0  0  0  0  0  0  0  0  0
   37.0910   27.9290   43.6790 C   0  0  0  0  0  0  0  0  0  0  0  0
   37.3760   27.1460   44.4390 H   0  0  0  0  0  0  0  0  0  0  0  0
   36.5580   28.6940   44.2700 H   0  0  0  0  0  0  0  0  0  0  0  0
   36.4970   27.5180   42.8550 H   0  0  0  0  0  0  0  0  0  0  0  0
   37.3780   32.8870   39.6950 C   0  0  0  0  0  2  0  0  0  0  0  0
   38.2750   34.0430   40.1230 C   0  0  0  0  0  2  0  0  0  0  0  0
   39.3120   33.7970   39.8970 H   0  0  0  0  0  0  0  0  0  0  0  0
  1  2  1  0  0  0  0
  1  7  1  0  0  0  0
  2  9  1  0  0  0  0
  3  8  1  0  0  0  0
  3  2  2  0  0  0  0
  4  3  1  0  0  0  0
  5  4  2  0  0  0  0
  5  6  1  0  0  0  0
  6  1  2  0  0  0  0
  9 12  1  0  0  0  0
  9 11  1  0  0  0  0
 10  9  1  0  0  0  0
 12 14  1  0  0  0  0
 12 13  1  0  0  0  0
 15 12  1  0  0  0  0
 16 17  1  0  0  0  0
 16  5  1  0  0  0  0
 18 17  1  0  0  0  0
M  END
>  <minimizedAffinity>
-3.53025603

$$$$

 OpenBabel03252504503D

 18 18  0  0  0  0  0  0  0  0999 V2000
   37.6720   29.6420   42.0610 C   0  0  0  0  0  0  0  0  0  0  0  0
   36.6640   28.6860   41.9600 C   0  0  0  0  0  0  0  0  0  0  0  0
   35.7620   28.8040   40.9010 C   0  0  0  0  0  0  0  0  0  0  0  0
   35.9160   29.8450   40.0270 N   0  0  0  0  0  0  0  0  0  0  0  0
   36.9110   30.7560   40.1590 C   0  0  0  0  0  0  0  0  0  0  0  0
   37.7840   30.6530   41.1710 N   0  0  0  0  0  0  0  0  0  0  0  0
   38.3850   29.5760   42.8710 H   0  0  0  0  0  0  0  0  0  0  0  0
   34.9750   28.0970   40.7840 H   0  0  0  0  0  0  0  0  0  0  0  0
   36.6080   27.6310   42.9400 C   0  0  0  0  0  0  0  0  0  0  0  0
   35.8590   27.9020   43.7100 H   0  0  0  0  0  0  0  0  0  0  0  0
   36.4330   26.6540   42.4800 H   0  0  0  0  0  0  0  0  0  0  0  0
   37.9310   27.5780   43.6800 C   0  0  0  0  0  0  0  0  0  0  0  0
   37.8600   26.6880   44.3700 H   0  0  0  0  0  0  0  0  0  0  0  0
   38.6900   27.2800   42.9360 H   0  0  0  0  0  0  0  0  0  0  0  0
   38.1760   28.5040   44.2120 H   0  0  0  0  0  0  0  0  0  0  0  0
   36.9610   31.8330   39.1390 C   0  0  0  0  0  2  0  0  0  0  0  0
   37.5050   33.0570   39.8680 C   0  0  0  0  0  2  0  0  0  0  0  0
   38.5510   32.8890   40.1240 H   0  0  0  0  0  0  0  0  0  0  0  0
  1  7  1  0  0  0  0
  2  1  1  0  0  0  0
  2  9  1  0  0  0  0
  3  2  2  0  0  0  0
  4  5  2  0  0  0  0
  4  3  1  0  0  0  0
  5  6  1  0  0  0  0
  6  1  2  0  0  0  0
  8  3  1  0  0  0  0
  9 12  1  0  0  0  0
  9 10  1  0  0  0  0
 11  9  1  0  0  0  0
 12 15  1  0  0  0  0
 12 13  1  0  0  0  0
 14 12  1  0  0  0  0
 16 17  1  0  0  0  0
 16  5  1  0  0  0  0
 17 18  1  0  0  0  0
M  END
>  <minimizedAffinity>
-3.44083929

$$$$

 OpenBabel03252504503D

 18 18  0  0  0  0  0  0  0  0999 V2000
   37.8930   26.6860   41.9390 C   0  0  0  0  0  0  0  0  0  0  0  0
   38.6020   27.3360   42.9470 C   0  0  0  0  0  0  0  0  0  0  0  0
   38.2980   28.6750   43.1940 C   0  0  0  0  0  0  0  0  0  0  0  0
   37.3270   29.2730   42.4380 N   0  0  0  0  0  0  0  0  0  0  0  0
   36.6590   28.6060   41.4650 C   0  0  0  0  0  0  0  0  0  0  0  0
   36.9400   27.3190   41.2190 N   0  0  0  0  0  0  0  0  0  0  0  0
   38.1080   25.6470   41.7260 H   0  0  0  0  0  0  0  0  0  0  0  0
   38.8130   29.2130   43.9530 H   0  0  0  0  0  0  0  0  0  0  0  0
   39.5990   26.5980   43.6800 C   0  0  0  0  0  0  0  0  0  0  0  0
   40.5870   27.0720   43.5110 H   0  0  0  0  0  0  0  0  0  0  0  0
   39.3360   26.4920   44.7360 H   0  0  0  0  0  0  0  0  0  0  0  0
   39.7220   25.2100   43.0800 C   0  0  0  0  0  0  0  0  0  0  0  0
   40.4500   24.6540   43.7390 H   0  0  0  0  0  0  0  0  0  0  0  0
   38.7570   24.7070   43.2630 H   0  0  0  0  0  0  0  0  0  0  0  0
   40.0250   25.2100   42.0270 H   0  0  0  0  0  0  0  0  0  0  0  0
   35.6290   29.3760   40.7230 C   0  0  0  0  0  2  0  0  0  0  0  0
   36.1470   30.8090   40.6780 C   0  0  0  0  0  2  0  0  0  0  0  0
   37.0240   30.8550   40.0330 H   0  0  0  0  0  0  0  0  0  0  0  0
  1  2  1  0  0  0  0
  2  3  2  0  0  0  0
  2  9  1  0  0  0  0
  3  8  1  0  0  0  0
  4  3  1  0  0  0  0
  5  4  2  0  0  0  0
  6  5  1  0  0  0  0
  6  1  2  0  0  0  0
  7  1  1  0  0  0  0
  9 11  1  0  0  0  0
 10  9  1  0  0  0  0
 12 14  1  0  0  0  0
 12  9  1  0  0  0  0
 12 13  1  0  0  0  0
 15 12  1  0  0  0  0
 16  5  1  0  0  0  0
 17 16  1  0  0  0  0
 18 17  1  0  0  0  0
M  END
>  <minimizedAffinity>
-3.40578127

$$$$

 OpenBabel03252504503D

 18 18  0  0  0  0  0  0  0  0999 V2000
   37.8420   30.5570   41.1610 C   0  0  0  0  0  0  0  0  0  0  0  0
   36.8600   30.2920   40.2090 C   0  0  0  0  0  0  0  0  0  0  0  0
   36.0070   29.2110   40.4410 C   0  0  0  0  0  0  0  0  0  0  0  0
   36.1810   28.4770   41.5820 N   0  0  0  0  0  0  0  0  0  0  0  0
   37.1500   28.7670   42.4850 C   0  0  0  0  0  0  0  0  0  0  0  0
   37.9750   29.8030   42.2750 N   0  0  0  0  0  0  0  0  0  0  0  0
   38.5180   31.3880   41.0070 H   0  0  0  0  0  0  0  0  0  0  0  0
   35.2420   28.9710   39.7430 H   0  0  0  0  0  0  0  0  0  0  0  0
   36.7720   31.1410   39.0490 C   0  0  0  0  0  0  0  0  0  0  0  0
   37.5260   30.8090   38.3080 H   0  0  0  0  0  0  0  0  0  0  0  0
   35.7540   31.1860   38.6510 H   0  0  0  0  0  0  0  0  0  0  0  0
   37.1930   32.5460   39.4350 C   0  0  0  0  0  0  0  0  0  0  0  0
   37.0260   33.1800   38.5170 H   0  0  0  0  0  0  0  0  0  0  0  0
   36.4370   32.9100   40.1530 H   0  0  0  0  0  0  0  0  0  0  0  0
   38.2210   32.6110   39.8090 H   0  0  0  0  0  0  0  0  0  0  0  0
   37.2260   27.8890   43.6800 C   0  0  0  0  0  2  0  0  0  0  0  0
   38.6200   27.2740   43.6430 C   0  0  0  0  0  2  0  0  0  0  0  0
   39.3610   28.0490   43.8410 H   0  0  0  0  0  0  0  0  0  0  0  0
  1  6  1  0  0  0  0
  2  3  1  0  0  0  0
  2  1  2  0  0  0  0
  3  4  2  0  0  0  0
  4  5  1  0  0  0  0
  5 16  1  0  0  0  0
  6  5  2  0  0  0  0
  7  1  1  0  0  0  0
  8  3  1  0  0  0  0
  9 12  1  0  0  0  0
  9  2  1  0  0  0  0
 10  9  1  0  0  0  0
 11  9  1  0  0  0  0
 12 15  1  0  0  0  0
 12 14  1  0  0  0  0
 13 12  1  0  0  0  0
 17 16  1  0  0  0  0
 17 18  1  0  0  0  0
M  END
>  <minimizedAffinity>
-3.39826393

$$$$

 OpenBabel03252504503D

 18 18  0  0  0  0  0  0  0  0999 V2000
   36.1600   27.9800   40.2130 C   0  0  0  0  0  0  0  0  0  0  0  0
   36.0880   29.2820   39.7240 C   0  0  0  0  0  0  0  0  0  0  0  0
   36.5010   30.3150   40.5680 C   0  0  0  0  0  0  0  0  0  0  0  0
   36.9500   29.9940   41.8190 N   0  0  0  0  0  0  0  0  0  0  0  0
   37.0050   28.7130   42.2580 C   0  0  0  0  0  0  0  0  0  0  0  0
   36.6120   27.7120   41.4570 N   0  0  0  0  0  0  0  0  0  0  0  0
   35.8460   27.1600   39.5810 H   0  0  0  0  0  0  0  0  0  0  0  0
   36.4640   31.3260   40.2380 H   0  0  0  0  0  0  0  0  0  0  0  0
   35.6020   29.4950   38.3840 C   0  0  0  0  0  0  0  0  0  0  0  0
   35.3590   30.5690   38.2610 H   0  0  0  0  0  0  0  0  0  0  0  0
   36.2960   29.1110   37.6310 H   0  0  0  0  0  0  0  0  0  0  0  0
   34.2780   28.7720   38.2220 C   0  0  0  0  0  0  0  0  0  0  0  0
   33.9880   28.9030   37.1400 H   0  0  0  0  0  0  0  0  0  0  0  0
   34.5000   27.6950   38.3120 H   0  0  0  0  0  0  0  0  0  0  0  0
   33.4990   29.1200   38.9110 H   0  0  0  0  0  0  0  0  0  0  0  0
   37.5140   28.5070   43.6370 C   0  0  0  0  0  2  0  0  0  0  0  0
   38.5770   27.4200   43.5190 C   0  0  0  0  0  2  0  0  0  0  0  0
   39.4370   27.8140   42.9780 H   0  0  0  0  0  0  0  0  0  0  0  0
  1  6  1  0  0  0  0
  2  1  2  0  0  0  0
  2  3  1  0  0  0  0
  3  4  2  0  0  0  0
  4  5  1  0  0  0  0
  5 16  1  0  0  0  0
  6  5  2  0  0  0  0
  7  1  1  0  0  0  0
  8  3  1  0  0  0  0
  9  2  1  0  0  0  0
 10  9  1  0  0  0  0
 11  9  1  0  0  0  0
 12 14  1  0  0  0  0
 12  9  1  0  0  0  0
 12 15  1  0  0  0  0
 13 12  1  0  0  0  0
 17 16  1  0  0  0  0
 18 17  1  0  0  0  0
M  END
>  <minimizedAffinity>
-3.26774478

$$$$

 OpenBabel03252504503D

 18 18  0  0  0  0  0  0  0  0999 V2000
   36.5690   27.1490   40.1990 C   0  0  0  0  0  0  0  0  0  0  0  0
   36.3560   28.1070   41.1870 C   0  0  0  0  0  0  0  0  0  0  0  0
   36.6580   27.7580   42.5040 C   0  0  0  0  0  0  0  0  0  0  0  0
   37.1430   26.5030   42.7510 N   0  0  0  0  0  0  0  0  0  0  0  0
   37.3360   25.5980   41.7610 C   0  0  0  0  0  0  0  0  0  0  0  0
   37.0510   25.9210   40.4910 N   0  0  0  0  0  0  0  0  0  0  0  0
   36.3440   27.3930   39.1690 H   0  0  0  0  0  0  0  0  0  0  0  0
   36.5120   28.4570   43.2930 H   0  0  0  0  0  0  0  0  0  0  0  0
   35.8460   29.3990   40.8030 C   0  0  0  0  0  0  0  0  0  0  0  0
   35.3710   29.8700   41.6860 H   0  0  0  0  0  0  0  0  0  0  0  0
   36.6150   30.0190   40.3330 H   0  0  0  0  0  0  0  0  0  0  0  0
   34.7190   29.2050   39.8060 C   0  0  0  0  0  0  0  0  0  0  0  0
   34.4160   30.2420   39.4800 H   0  0  0  0  0  0  0  0  0  0  0  0
   35.1750   28.7630   38.9040 H   0  0  0  0  0  0  0  0  0  0  0  0
   33.8760   28.6260   40.2020 H   0  0  0  0  0  0  0  0  0  0  0  0
   37.8690   24.2740   42.1690 C   0  0  0  0  0  2  0  0  0  0  0  0
   39.2500   24.5540   42.7500 C   0  0  0  0  0  2  0  0  0  0  0  0
   39.1430   25.0940   43.6900 H   0  0  0  0  0  0  0  0  0  0  0  0
  1  6  2  0  0  0  0
  1  2  1  0  0  0  0
  2  3  2  0  0  0  0
  3  4  1  0  0  0  0
  3  8  1  0  0  0  0
  5 16  1  0  0  0  0
  5  4  2  0  0  0  0
  6  5  1  0  0  0  0
  7  1  1  0  0  0  0
  9  2  1  0  0  0  0
  9 10  1  0  0  0  0
 11  9  1  0  0  0  0
 12 15  1  0  0  0  0
 12  9  1  0  0  0  0
 13 12  1  0  0  0  0
 14 12  1  0  0  0  0
 16 17  1  0  0  0  0
 17 18  1  0  0  0  0
M  END
>  <minimizedAffinity>
-3.25521612

$$$$
