
 OpenBabel03252508583D

 33 34  0  0  1  0  0  0  0  0999 V2000
   48.6650   31.9930   42.1350 N   0  0  0  0  0  0  0  0  0  0  0  0
   48.4370   30.7400   41.5010 C   0  0  0  0  0  0  0  0  0  0  0  0
   48.8780   30.5920   40.0800 C   0  0  0  0  0  0  0  0  0  0  0  0
   50.0850   31.4030   39.7010 C   0  0  0  0  0  0  0  0  0  0  0  0
   50.6450   32.1420   40.8500 C   0  0  0  0  0  0  0  0  0  0  0  0
   49.4840   32.9350   41.5140 C   0  0  2  0  0  0  0  0  0  0  0  0
   47.3670   30.4580   41.5690 H   0  0  0  0  0  0  0  0  0  0  0  0
   48.9860   29.9750   42.0950 H   0  0  0  0  0  0  0  0  0  0  0  0
   48.9990   29.4970   39.8890 H   0  0  0  0  0  0  0  0  0  0  0  0
   48.0260   30.9560   39.4380 H   0  0  0  0  0  0  0  0  0  0  0  0
   49.9230   32.0210   38.7960 H   0  0  0  0  0  0  0  0  0  0  0  0
   50.8670   30.6530   39.3810 H   0  0  0  0  0  0  0  0  0  0  0  0
   51.0680   31.4300   41.5890 H   0  0  0  0  0  0  0  0  0  0  0  0
   51.4130   32.8340   40.4450 H   0  0  0  0  0  0  0  0  0  0  0  0
   49.0830   33.5060   40.6580 H   0  0  0  0  0  0  0  0  0  0  0  0
   47.5730   32.4570   42.9190 C   0  0  0  0  0  0  0  0  0  0  0  0
   47.8750   32.8690   43.8860 H   0  0  0  0  0  0  0  0  0  0  0  0
   46.9660   31.5410   43.1800 H   0  0  0  0  0  0  0  0  0  0  0  0
   46.7080   33.3920   42.1590 C   0  0  0  0  0  0  0  0  0  0  0  0
   45.9420   32.9740   41.5180 H   0  0  0  0  0  0  0  0  0  0  0  0
   47.4170   34.1060   41.6340 H   0  0  0  0  0  0  0  0  0  0  0  0
   45.0680   34.6120   45.3110 C   0  0  0  0  0  0  0  0  0  0  0  0
   45.7450   33.8080   44.3900 C   0  0  0  0  0  0  0  0  0  0  0  0
   45.9800   34.2770   43.1180 C   0  0  0  0  0  0  0  0  0  0  0  0
   45.5380   35.5080   42.8210 N   0  0  0  0  0  0  0  0  0  0  0  0
   44.8850   36.2750   43.7180 C   0  0  0  0  0  0  0  0  0  0  0  0
   44.6470   35.8370   44.9630 N   0  0  0  0  0  0  0  0  0  0  0  0
   44.8850   34.2510   46.2980 H   0  0  0  0  0  0  0  0  0  0  0  0
   46.0560   32.8180   44.7550 H   0  0  0  0  0  0  0  0  0  0  0  0
   44.5520   37.2700   43.4120 H   0  0  0  0  0  0  0  0  0  0  0  0
   50.2990   33.8050   42.4760 C   0  0  0  0  0  2  0  0  0  0  0  0
   49.8230   35.2580   42.4230 C   0  0  0  0  0  2  0  0  0  0  0  0
   48.7250   35.3290   42.3480 H   0  0  0  0  0  0  0  0  0  0  0  0
  1 16  1  0  0  0  0
  2  7  1  0  0  0  0
  2  8  1  0  0  0  0
  2  1  1  0  0  0  0
  3  2  1  0  0  0  0
  4  3  1  0  0  0  0
  4  5  1  0  0  0  0
  5  6  1  0  0  0  0
  5 13  1  0  0  0  0
  6 15  1  6  0  0  0
  6  1  1  0  0  0  0
  6 31  1  0  0  0  0
  9  3  1  0  0  0  0
 10  3  1  0  0  0  0
 11  4  1  0  0  0  0
 12  4  1  0  0  0  0
 14  5  1  0  0  0  0
 16 18  1  0  0  0  0
 16 17  1  0  0  0  0
 19 16  1  0  0  0  0
 19 24  1  0  0  0  0
 20 19  1  0  0  0  0
 21 19  1  0  0  0  0
 22 28  1  0  0  0  0
 23 29  1  0  0  0  0
 23 22  2  0  0  0  0
 24 23  1  0  0  0  0
 25 24  2  0  0  0  0
 25 26  1  0  0  0  0
 26 27  2  0  0  0  0
 27 22  1  0  0  0  0
 30 26  1  0  0  0  0
 32 31  1  0  0  0  0
 33 32  1  0  0  0  0
M  END
>  <minimizedAffinity>
-3.91969132

>  <minimizedRMSD>
2.65158319

$$$$
