
 OpenBabel03252508573D

 33 34  0  0  1  0  0  0  0  0999 V2000
   48.2930   33.6340   40.8280 N   0  0  0  0  0  0  0  0  0  0  0  0
   47.4140   34.7470   40.9310 C   0  0  0  0  0  0  0  0  0  0  0  0
   46.4890   34.7940   42.1040 C   0  0  0  0  0  0  0  0  0  0  0  0
   47.0170   34.1530   43.3560 C   0  0  0  0  0  0  0  0  0  0  0  0
   48.3990   33.6580   43.1910 C   0  0  0  0  0  0  0  0  0  0  0  0
   48.4350   32.7720   41.9140 C   0  0  2  0  0  0  0  0  0  0  0  0
   46.8140   34.8560   40.0050 H   0  0  0  0  0  0  0  0  0  0  0  0
   48.0530   35.6570   40.9820 H   0  0  0  0  0  0  0  0  0  0  0  0
   46.1920   35.8630   42.2430 H   0  0  0  0  0  0  0  0  0  0  0  0
   45.5640   34.2220   41.8100 H   0  0  0  0  0  0  0  0  0  0  0  0
   46.3160   33.4120   43.7910 H   0  0  0  0  0  0  0  0  0  0  0  0
   47.0530   34.9760   44.1280 H   0  0  0  0  0  0  0  0  0  0  0  0
   49.0930   34.5130   43.0590 H   0  0  0  0  0  0  0  0  0  0  0  0
   48.6370   33.0580   44.0940 H   0  0  0  0  0  0  0  0  0  0  0  0
   47.6310   32.0440   42.1240 H   0  0  0  0  0  0  0  0  0  0  0  0
   48.4010   33.0950   39.5170 C   0  0  0  0  0  0  0  0  0  0  0  0
   47.8210   32.1780   39.3740 H   0  0  0  0  0  0  0  0  0  0  0  0
   49.4760   32.7670   39.4020 H   0  0  0  0  0  0  0  0  0  0  0  0
   48.1060   34.1120   38.4780 C   0  0  0  0  0  0  0  0  0  0  0  0
   48.8670   34.8470   38.2520 H   0  0  0  0  0  0  0  0  0  0  0  0
   47.0990   34.5540   38.7610 H   0  0  0  0  0  0  0  0  0  0  0  0
   46.2540   32.3190   35.7450 C   0  0  0  0  0  0  0  0  0  0  0  0
   46.5490   32.9650   36.9480 C   0  0  0  0  0  0  0  0  0  0  0  0
   47.8250   33.4230   37.1830 C   0  0  0  0  0  0  0  0  0  0  0  0
   48.7400   33.2200   36.2230 N   0  0  0  0  0  0  0  0  0  0  0  0
   48.4440   32.5940   35.0650 C   0  0  0  0  0  0  0  0  0  0  0  0
   47.2060   32.1420   34.8180 N   0  0  0  0  0  0  0  0  0  0  0  0
   45.2660   31.9640   35.5610 H   0  0  0  0  0  0  0  0  0  0  0  0
   45.7120   33.0700   37.6550 H   0  0  0  0  0  0  0  0  0  0  0  0
   49.2370   32.4620   34.3250 H   0  0  0  0  0  0  0  0  0  0  0  0
   49.8340   32.1680   42.0730 C   0  0  0  0  0  2  0  0  0  0  0  0
   50.8680   33.2670   42.3210 C   0  0  0  0  0  2  0  0  0  0  0  0
   50.4850   34.0520   42.9950 H   0  0  0  0  0  0  0  0  0  0  0  0
  1  2  1  0  0  0  0
  1  6  1  0  0  0  0
  2  8  1  0  0  0  0
  2  3  1  0  0  0  0
  3  9  1  0  0  0  0
  3  4  1  0  0  0  0
  4 11  1  0  0  0  0
  4 12  1  0  0  0  0
  5  4  1  0  0  0  0
  5 14  1  0  0  0  0
  6 31  1  0  0  0  0
  6 15  1  1  0  0  0
  6  5  1  0  0  0  0
  7  2  1  0  0  0  0
 10  3  1  0  0  0  0
 13  5  1  0  0  0  0
 16  1  1  0  0  0  0
 17 16  1  0  0  0  0
 18 16  1  0  0  0  0
 19 21  1  0  0  0  0
 19 16  1  0  0  0  0
 20 19  1  0  0  0  0
 22 23  1  0  0  0  0
 23 24  2  0  0  0  0
 23 29  1  0  0  0  0
 24 19  1  0  0  0  0
 25 24  1  0  0  0  0
 26 25  2  0  0  0  0
 27 26  1  0  0  0  0
 27 22  2  0  0  0  0
 28 22  1  0  0  0  0
 30 26  1  0  0  0  0
 31 32  1  0  0  0  0
 32 33  1  0  0  0  0
M  END
>  <minimizedAffinity>
-3.80388331

>  <minimizedRMSD>
6.52336073

$$$$
