
 OpenBabel03252501023D

 19 20  0  0  1  0  0  0  0  0999 V2000
   38.0560   28.0840   42.7530 C   0  0  1  0  0  0  0  0  0  0  0  0
   36.8930   27.6730   43.6340 C   0  0  0  0  0  0  0  0  0  0  0  0
   37.2680   26.9280   42.3400 C   0  0  2  0  0  0  0  0  0  0  0  0
   39.0520   28.0560   43.2120 H   0  0  0  0  0  0  0  0  0  0  0  0
   37.1630   27.1140   44.5540 H   0  0  0  0  0  0  0  0  0  0  0  0
   35.9760   28.2710   43.6630 H   0  0  0  0  0  0  0  0  0  0  0  0
   36.4940   27.0390   41.5570 H   0  0  0  0  0  0  0  0  0  0  0  0
   38.5210   31.4430   41.1030 C   0  0  0  0  0  0  0  0  0  0  0  0
   38.8560   30.2720   41.8060 C   0  0  0  0  0  0  0  0  0  0  0  0
   37.8160   29.3820   42.0320 C   0  0  0  0  0  0  0  0  0  0  0  0
   36.5520   29.6730   41.5770 N   0  0  0  0  0  0  0  0  0  0  0  0
   36.2760   30.8150   40.9030 C   0  0  0  0  0  0  0  0  0  0  0  0
   37.2710   31.6930   40.6720 N   0  0  0  0  0  0  0  0  0  0  0  0
   39.2950   32.1770   40.8980 H   0  0  0  0  0  0  0  0  0  0  0  0
   39.8590   30.0680   42.1530 H   0  0  0  0  0  0  0  0  0  0  0  0
   35.2340   30.8760   40.6220 H   0  0  0  0  0  0  0  0  0  0  0  0
   37.8370   25.5380   42.4480 C   0  0  0  0  0  2  0  0  0  0  0  0
   36.8480   24.6560   41.6720 C   0  0  0  0  0  2  0  0  0  0  0  0
   35.9000   24.6000   42.2820 H   0  0  0  0  0  0  0  0  0  0  0  0
  1  4  1  1  0  0  0
  1  2  1  0  0  0  0
  2  6  1  0  0  0  0
  2  5  1  0  0  0  0
  3  7  1  6  0  0  0
  3 17  1  0  0  0  0
  3  1  1  0  0  0  0
  3  2  1  0  0  0  0
  8  9  1  0  0  0  0
  9 10  2  0  0  0  0
  9 15  1  0  0  0  0
 10  1  1  0  0  0  0
 11 10  1  0  0  0  0
 12 11  2  0  0  0  0
 13 12  1  0  0  0  0
 13  8  2  0  0  0  0
 14  8  1  0  0  0  0
 16 12  1  0  0  0  0
 18 19  1  0  0  0  0
 18 17  1  0  0  0  0
M  END
>  <minimizedAffinity>
-3.81454539

$$$$

 OpenBabel03252501023D

 19 20  0  0  1  0  0  0  0  0999 V2000
   37.7210   27.8370   42.4940 C   0  0  1  0  0  0  0  0  0  0  0  0
   36.6070   27.3880   43.4200 C   0  0  0  0  0  0  0  0  0  0  0  0
   36.9950   26.6220   42.1430 C   0  0  2  0  0  0  0  0  0  0  0  0
   38.7290   27.8850   42.9260 H   0  0  0  0  0  0  0  0  0  0  0  0
   36.9350   26.8790   44.3500 H   0  0  0  0  0  0  0  0  0  0  0  0
   35.6570   27.9310   43.4540 H   0  0  0  0  0  0  0  0  0  0  0  0
   36.1950   26.6590   41.3770 H   0  0  0  0  0  0  0  0  0  0  0  0
   35.9410   30.4590   40.4510 C   0  0  0  0  0  0  0  0  0  0  0  0
   36.1560   29.2360   41.1110 C   0  0  0  0  0  0  0  0  0  0  0  0
   37.3850   29.0910   41.7370 C   0  0  0  0  0  0  0  0  0  0  0  0
   38.3050   30.1110   41.6870 N   0  0  0  0  0  0  0  0  0  0  0  0
   38.0540   31.2740   41.0390 C   0  0  0  0  0  0  0  0  0  0  0  0
   36.8670   31.4360   40.4250 N   0  0  0  0  0  0  0  0  0  0  0  0
   34.9960   30.6290   39.9430 H   0  0  0  0  0  0  0  0  0  0  0  0
   35.4140   28.4500   41.1350 H   0  0  0  0  0  0  0  0  0  0  0  0
   38.8880   31.9600   41.1040 H   0  0  0  0  0  0  0  0  0  0  0  0
   37.6490   25.2730   42.2810 C   0  0  0  0  0  2  0  0  0  0  0  0
   36.7750   24.3320   41.4390 C   0  0  0  0  0  2  0  0  0  0  0  0
   35.7960   24.2060   41.9860 H   0  0  0  0  0  0  0  0  0  0  0  0
  1  4  1  1  0  0  0
  1  2  1  0  0  0  0
  2  6  1  0  0  0  0
  2  5  1  0  0  0  0
  3  7  1  6  0  0  0
  3 17  1  0  0  0  0
  3  1  1  0  0  0  0
  3  2  1  0  0  0  0
  8  9  1  0  0  0  0
  9 15  1  0  0  0  0
  9 10  2  0  0  0  0
 10  1  1  0  0  0  0
 11 10  1  0  0  0  0
 12 16  1  0  0  0  0
 12 11  2  0  0  0  0
 13  8  2  0  0  0  0
 13 12  1  0  0  0  0
 14  8  1  0  0  0  0
 18 19  1  0  0  0  0
 18 17  1  0  0  0  0
M  END
>  <minimizedAffinity>
-3.76612687

$$$$

 OpenBabel03252501023D

 19 20  0  0  1  0  0  0  0  0999 V2000
   38.1950   28.7930   43.3030 C   0  0  1  0  0  0  0  0  0  0  0  0
   37.1320   27.7260   43.4780 C   0  0  0  0  0  0  0  0  0  0  0  0
   38.5210   27.4350   42.8820 C   0  0  2  0  0  0  0  0  0  0  0  0
   38.5480   29.2880   44.2160 H   0  0  0  0  0  0  0  0  0  0  0  0
   37.0110   27.3370   44.5100 H   0  0  0  0  0  0  0  0  0  0  0  0
   36.2530   27.7020   42.8270 H   0  0  0  0  0  0  0  0  0  0  0  0
   38.4650   27.1610   41.8110 H   0  0  0  0  0  0  0  0  0  0  0  0
   38.3990   31.5100   40.6960 C   0  0  0  0  0  0  0  0  0  0  0  0
   38.8250   30.6320   41.7090 C   0  0  0  0  0  0  0  0  0  0  0  0
   37.8550   29.7900   42.2310 C   0  0  0  0  0  0  0  0  0  0  0  0
   36.5670   29.8470   41.7530 N   0  0  0  0  0  0  0  0  0  0  0  0
   36.2020   30.7090   40.7730 C   0  0  0  0  0  0  0  0  0  0  0  0
   37.1290   31.5360   40.2530 N   0  0  0  0  0  0  0  0  0  0  0  0
   39.1160   32.1930   40.2500 H   0  0  0  0  0  0  0  0  0  0  0  0
   39.8450   30.6080   42.0670 H   0  0  0  0  0  0  0  0  0  0  0  0
   35.1540   30.6150   40.5230 H   0  0  0  0  0  0  0  0  0  0  0  0
   39.4870   26.5990   43.6790 C   0  0  0  0  0  2  0  0  0  0  0  0
   40.8270   27.3390   43.5610 C   0  0  0  0  0  2  0  0  0  0  0  0
   41.1860   27.2140   42.4990 H   0  0  0  0  0  0  0  0  0  0  0  0
  1  2  1  0  0  0  0
  1  4  1  1  0  0  0
  2  5  1  0  0  0  0
  3  7  1  6  0  0  0
  3  1  1  0  0  0  0
  3  2  1  0  0  0  0
  3 17  1  0  0  0  0
  6  2  1  0  0  0  0
  8  9  1  0  0  0  0
  9 15  1  0  0  0  0
  9 10  2  0  0  0  0
 10  1  1  0  0  0  0
 11 10  1  0  0  0  0
 12 11  2  0  0  0  0
 13  8  2  0  0  0  0
 13 12  1  0  0  0  0
 14  8  1  0  0  0  0
 16 12  1  0  0  0  0
 18 17  1  0  0  0  0
 19 18  1  0  0  0  0
M  END
>  <minimizedAffinity>
-3.76017594

$$$$

 OpenBabel03252501023D

 19 20  0  0  1  0  0  0  0  0999 V2000
   37.0550   27.9390   42.7990 C   0  0  1  0  0  0  0  0  0  0  0  0
   37.9370   29.1040   43.2020 C   0  0  0  0  0  0  0  0  0  0  0  0
   37.3940   28.9200   41.7740 C   0  0  2  0  0  0  0  0  0  0  0  0
   36.0900   27.8530   43.3160 H   0  0  0  0  0  0  0  0  0  0  0  0
   37.4290   29.9190   43.7600 H   0  0  0  0  0  0  0  0  0  0  0  0
   39.0050   28.9560   43.3950 H   0  0  0  0  0  0  0  0  0  0  0  0
   38.2010   28.7020   41.0470 H   0  0  0  0  0  0  0  0  0  0  0  0
   38.0150   24.3440   42.1920 C   0  0  0  0  0  0  0  0  0  0  0  0
   37.2310   25.5110   42.1720 C   0  0  0  0  0  0  0  0  0  0  0  0
   37.7880   26.6280   42.7770 C   0  0  0  0  0  0  0  0  0  0  0  0
   39.0370   26.5480   43.3480 N   0  0  0  0  0  0  0  0  0  0  0  0
   39.7570   25.4000   43.3420 C   0  0  0  0  0  0  0  0  0  0  0  0
   39.2340   24.3050   42.7600 N   0  0  0  0  0  0  0  0  0  0  0  0
   37.6290   23.4380   41.7330 H   0  0  0  0  0  0  0  0  0  0  0  0
   36.2520   25.5470   41.7160 H   0  0  0  0  0  0  0  0  0  0  0  0
   40.7130   25.5220   43.8330 H   0  0  0  0  0  0  0  0  0  0  0  0
   36.3570   29.8860   41.2670 C   0  0  0  0  0  2  0  0  0  0  0  0
   35.3270   29.0030   40.5450 C   0  0  0  0  0  2  0  0  0  0  0  0
   35.8160   28.6230   39.6020 H   0  0  0  0  0  0  0  0  0  0  0  0
  1  2  1  0  0  0  0
  1  4  1  1  0  0  0
  2  6  1  0  0  0  0
  2  5  1  0  0  0  0
  3  7  1  6  0  0  0
  3  1  1  0  0  0  0
  3  2  1  0  0  0  0
  8 13  1  0  0  0  0
  9  8  2  0  0  0  0
  9 10  1  0  0  0  0
 10  1  1  0  0  0  0
 10 11  2  0  0  0  0
 12 11  1  0  0  0  0
 12 16  1  0  0  0  0
 13 12  2  0  0  0  0
 14  8  1  0  0  0  0
 15  9  1  0  0  0  0
 17  3  1  0  0  0  0
 18 17  1  0  0  0  0
 19 18  1  0  0  0  0
M  END
>  <minimizedAffinity>
-3.72528791

$$$$

 OpenBabel03252501023D

 19 20  0  0  1  0  0  0  0  0999 V2000
   36.1600   28.4420   40.9050 C   0  0  1  0  0  0  0  0  0  0  0  0
   36.4430   27.2180   40.0570 C   0  0  0  0  0  0  0  0  0  0  0  0
   37.2570   27.5720   41.3140 C   0  0  2  0  0  0  0  0  0  0  0  0
   35.1700   28.4950   41.3750 H   0  0  0  0  0  0  0  0  0  0  0  0
   35.7550   26.3600   40.2110 H   0  0  0  0  0  0  0  0  0  0  0  0
   36.9060   27.3160   39.0700 H   0  0  0  0  0  0  0  0  0  0  0  0
   38.3010   27.8480   41.0680 H   0  0  0  0  0  0  0  0  0  0  0  0
   36.8810   32.0680   40.1640 C   0  0  0  0  0  0  0  0  0  0  0  0
   36.5140   30.9310   40.9050 C   0  0  0  0  0  0  0  0  0  0  0  0
   36.5140   29.7290   40.2140 C   0  0  0  0  0  0  0  0  0  0  0  0
   36.8600   29.7020   38.8840 N   0  0  0  0  0  0  0  0  0  0  0  0
   37.2090   30.8240   38.2090 C   0  0  0  0  0  0  0  0  0  0  0  0
   37.2160   32.0020   38.8620 N   0  0  0  0  0  0  0  0  0  0  0  0
   36.8990   33.0370   40.6530 H   0  0  0  0  0  0  0  0  0  0  0  0
   36.2450   30.9800   41.9510 H   0  0  0  0  0  0  0  0  0  0  0  0
   37.4510   30.6150   37.1760 H   0  0  0  0  0  0  0  0  0  0  0  0
   37.1250   26.6950   42.5300 C   0  0  0  0  0  2  0  0  0  0  0  0
   36.8230   27.6700   43.6780 C   0  0  0  0  0  2  0  0  0  0  0  0
   37.7670   28.2540   43.8770 H   0  0  0  0  0  0  0  0  0  0  0  0
  1  3  1  0  0  0  0
  1  4  1  1  0  0  0
  2  5  1  0  0  0  0
  2  1  1  0  0  0  0
  2  3  1  0  0  0  0
  3  7  1  6  0  0  0
  3 17  1  0  0  0  0
  6  2  1  0  0  0  0
  8 14  1  0  0  0  0
  8  9  1  0  0  0  0
  9 15  1  0  0  0  0
 10  1  1  0  0  0  0
 10  9  2  0  0  0  0
 11 10  1  0  0  0  0
 12 13  1  0  0  0  0
 12 11  2  0  0  0  0
 13  8  2  0  0  0  0
 16 12  1  0  0  0  0
 17 18  1  0  0  0  0
 18 19  1  0  0  0  0
M  END
>  <minimizedAffinity>
-3.55361867

$$$$

 OpenBabel03252501023D

 19 20  0  0  1  0  0  0  0  0999 V2000
   37.2910   27.1940   42.0360 C   0  0  1  0  0  0  0  0  0  0  0  0
   36.5860   27.1580   43.3780 C   0  0  0  0  0  0  0  0  0  0  0  0
   37.9730   27.7930   43.1770 C   0  0  2  0  0  0  0  0  0  0  0  0
   36.7820   27.7380   41.2300 H   0  0  0  0  0  0  0  0  0  0  0  0
   35.7790   27.9080   43.5150 H   0  0  0  0  0  0  0  0  0  0  0  0
   36.5000   26.2210   43.9380 H   0  0  0  0  0  0  0  0  0  0  0  0
   38.7690   27.2300   43.7020 H   0  0  0  0  0  0  0  0  0  0  0  0
   37.4460   23.5260   41.1760 C   0  0  0  0  0  0  0  0  0  0  0  0
   36.9140   24.7390   41.6500 C   0  0  0  0  0  0  0  0  0  0  0  0
   37.7550   25.8390   41.5810 C   0  0  0  0  0  0  0  0  0  0  0  0
   39.0240   25.7020   41.0700 N   0  0  0  0  0  0  0  0  0  0  0  0
   39.4950   24.5120   40.6240 C   0  0  0  0  0  0  0  0  0  0  0  0
   38.6940   23.4310   40.6820 N   0  0  0  0  0  0  0  0  0  0  0  0
   36.8330   22.6300   41.2070 H   0  0  0  0  0  0  0  0  0  0  0  0
   35.9120   24.8190   42.0470 H   0  0  0  0  0  0  0  0  0  0  0  0
   40.5090   24.5920   40.2580 H   0  0  0  0  0  0  0  0  0  0  0  0
   38.1050   29.2890   43.2900 C   0  0  0  0  0  2  0  0  0  0  0  0
   39.4460   29.6110   42.6150 C   0  0  0  0  0  2  0  0  0  0  0  0
   40.2620   29.2230   43.2920 H   0  0  0  0  0  0  0  0  0  0  0  0
  1  4  1  6  0  0  0
  1  3  1  0  0  0  0
  1  2  1  0  0  0  0
  2  5  1  0  0  0  0
  2  6  1  0  0  0  0
  3 17  1  0  0  0  0
  3  2  1  0  0  0  0
  3  7  1  1  0  0  0
  8 14  1  0  0  0  0
  8  9  1  0  0  0  0
  9 15  1  0  0  0  0
 10  9  2  0  0  0  0
 10  1  1  0  0  0  0
 11 10  1  0  0  0  0
 12 13  1  0  0  0  0
 12 11  2  0  0  0  0
 13  8  2  0  0  0  0
 16 12  1  0  0  0  0
 18 17  1  0  0  0  0
 18 19  1  0  0  0  0
M  END
>  <minimizedAffinity>
-3.5200429

$$$$

 OpenBabel03252501023D

 19 20  0  0  1  0  0  0  0  0999 V2000
   37.6530   27.6490   42.0520 C   0  0  1  0  0  0  0  0  0  0  0  0
   36.6520   27.3890   43.1610 C   0  0  0  0  0  0  0  0  0  0  0  0
   36.8630   26.4260   41.9790 C   0  0  2  0  0  0  0  0  0  0  0  0
   38.7070   27.7210   42.3500 H   0  0  0  0  0  0  0  0  0  0  0  0
   37.0800   27.0120   44.1130 H   0  0  0  0  0  0  0  0  0  0  0  0
   35.7250   27.9680   43.2240 H   0  0  0  0  0  0  0  0  0  0  0  0
   35.9760   26.3800   41.3170 H   0  0  0  0  0  0  0  0  0  0  0  0
   36.8010   29.7560   39.0430 C   0  0  0  0  0  0  0  0  0  0  0  0
   37.2090   28.6300   39.7800 C   0  0  0  0  0  0  0  0  0  0  0  0
   37.2540   28.7890   41.1570 C   0  0  0  0  0  0  0  0  0  0  0  0
   36.9100   29.9950   41.7200 N   0  0  0  0  0  0  0  0  0  0  0  0
   36.5210   31.0540   40.9700 C   0  0  0  0  0  0  0  0  0  0  0  0
   36.4710   30.9210   39.6310 N   0  0  0  0  0  0  0  0  0  0  0  0
   36.7480   29.6900   37.9600 H   0  0  0  0  0  0  0  0  0  0  0  0
   37.4740   27.6930   39.3120 H   0  0  0  0  0  0  0  0  0  0  0  0
   36.2890   31.9170   41.5790 H   0  0  0  0  0  0  0  0  0  0  0  0
   37.5000   25.0880   42.2450 C   0  0  0  0  0  2  0  0  0  0  0  0
   36.7890   24.1240   41.2830 C   0  0  0  0  0  2  0  0  0  0  0  0
   35.7340   23.9930   41.6610 H   0  0  0  0  0  0  0  0  0  0  0  0
  1  4  1  1  0  0  0
  1  2  1  0  0  0  0
  2  6  1  0  0  0  0
  2  5  1  0  0  0  0
  3  7  1  6  0  0  0
  3  1  1  0  0  0  0
  3 17  1  0  0  0  0
  3  2  1  0  0  0  0
  8 13  2  0  0  0  0
  8  9  1  0  0  0  0
  9 10  2  0  0  0  0
 10 11  1  0  0  0  0
 10  1  1  0  0  0  0
 12 16  1  0  0  0  0
 12 11  2  0  0  0  0
 13 12  1  0  0  0  0
 14  8  1  0  0  0  0
 15  9  1  0  0  0  0
 18 19  1  0  0  0  0
 18 17  1  0  0  0  0
M  END
>  <minimizedAffinity>
-3.51836276

$$$$

 OpenBabel03252501023D

 19 20  0  0  1  0  0  0  0  0999 V2000
   35.4930   28.9430   40.8260 C   0  0  1  0  0  0  0  0  0  0  0  0
   35.8370   30.3000   40.2450 C   0  0  0  0  0  0  0  0  0  0  0  0
   35.7150   29.0270   39.3880 C   0  0  2  0  0  0  0  0  0  0  0  0
   34.5190   28.8550   41.3250 H   0  0  0  0  0  0  0  0  0  0  0  0
   34.9810   30.9960   40.1150 H   0  0  0  0  0  0  0  0  0  0  0  0
   36.8230   30.7450   40.4100 H   0  0  0  0  0  0  0  0  0  0  0  0
   36.6900   28.7190   38.9610 H   0  0  0  0  0  0  0  0  0  0  0  0
   38.0100   26.6070   42.3850 C   0  0  0  0  0  0  0  0  0  0  0  0
   36.9480   27.0300   41.5660 C   0  0  0  0  0  0  0  0  0  0  0  0
   36.5980   28.3680   41.6680 C   0  0  0  0  0  0  0  0  0  0  0  0
   37.2790   29.1920   42.5340 N   0  0  0  0  0  0  0  0  0  0  0  0
   38.2970   28.7400   43.3040 C   0  0  0  0  0  0  0  0  0  0  0  0
   38.6540   27.4440   43.2200 N   0  0  0  0  0  0  0  0  0  0  0  0
   38.3270   25.5690   42.3470 H   0  0  0  0  0  0  0  0  0  0  0  0
   36.4290   26.3620   40.8940 H   0  0  0  0  0  0  0  0  0  0  0  0
   38.7150   29.5240   43.9210 H   0  0  0  0  0  0  0  0  0  0  0  0
   34.5620   28.9110   38.4280 C   0  0  0  0  0  2  0  0  0  0  0  0
   35.2180   28.8440   37.0410 C   0  0  0  0  0  2  0  0  0  0  0  0
   35.6410   29.8670   36.8220 H   0  0  0  0  0  0  0  0  0  0  0  0
  1  4  1  1  0  0  0
  1 10  1  0  0  0  0
  2  6  1  0  0  0  0
  2  1  1  0  0  0  0
  3  7  1  6  0  0  0
  3  2  1  0  0  0  0
  3  1  1  0  0  0  0
  5  2  1  0  0  0  0
  8 13  1  0  0  0  0
  9 10  1  0  0  0  0
  9  8  2  0  0  0  0
 10 11  2  0  0  0  0
 11 12  1  0  0  0  0
 12 16  1  0  0  0  0
 13 12  2  0  0  0  0
 14  8  1  0  0  0  0
 15  9  1  0  0  0  0
 17  3  1  0  0  0  0
 18 17  1  0  0  0  0
 19 18  1  0  0  0  0
M  END
>  <minimizedAffinity>
-3.50455379

$$$$

 OpenBabel03252501023D

 19 20  0  0  1  0  0  0  0  0999 V2000
   36.3430   30.1970   40.4090 C   0  0  1  0  0  0  0  0  0  0  0  0
   36.8090   31.6380   40.4770 C   0  0  0  0  0  0  0  0  0  0  0  0
   37.2950   30.6510   39.4020 C   0  0  2  0  0  0  0  0  0  0  0  0
   35.2680   30.0360   40.2540 H   0  0  0  0  0  0  0  0  0  0  0  0
   36.0930   32.3920   40.0850 H   0  0  0  0  0  0  0  0  0  0  0  0
   37.5010   31.9650   41.2600 H   0  0  0  0  0  0  0  0  0  0  0  0
   38.3710   30.4120   39.5130 H   0  0  0  0  0  0  0  0  0  0  0  0
   38.3880   28.8930   43.2960 C   0  0  0  0  0  0  0  0  0  0  0  0
   37.9960   29.7450   42.2470 C   0  0  0  0  0  0  0  0  0  0  0  0
   36.8710   29.3560   41.5360 C   0  0  0  0  0  0  0  0  0  0  0  0
   36.2120   28.1980   41.8750 N   0  0  0  0  0  0  0  0  0  0  0  0
   36.6250   27.4070   42.8940 C   0  0  0  0  0  0  0  0  0  0  0  0
   37.7150   27.7670   43.5980 N   0  0  0  0  0  0  0  0  0  0  0  0
   39.2630   29.1470   43.8870 H   0  0  0  0  0  0  0  0  0  0  0  0
   38.5330   30.6500   42.0020 H   0  0  0  0  0  0  0  0  0  0  0  0
   35.9880   26.5420   43.0170 H   0  0  0  0  0  0  0  0  0  0  0  0
   36.8580   30.8630   37.9770 C   0  0  0  0  0  2  0  0  0  0  0  0
   36.1440   29.5590   37.5930 C   0  0  0  0  0  2  0  0  0  0  0  0
   36.9340   28.7580   37.5090 H   0  0  0  0  0  0  0  0  0  0  0  0
  1  4  1  6  0  0  0
  1  2  1  0  0  0  0
  1 10  1  0  0  0  0
  2  6  1  0  0  0  0
  3  7  1  1  0  0  0
  3  1  1  0  0  0  0
  3  2  1  0  0  0  0
  5  2  1  0  0  0  0
  8 13  1  0  0  0  0
  8 14  1  0  0  0  0
  9  8  2  0  0  0  0
 10 11  2  0  0  0  0
 10  9  1  0  0  0  0
 11 12  1  0  0  0  0
 12 16  1  0  0  0  0
 12 13  2  0  0  0  0
 15  9  1  0  0  0  0
 17  3  1  0  0  0  0
 18 17  1  0  0  0  0
 19 18  1  0  0  0  0
M  END
>  <minimizedAffinity>
-3.47630358

$$$$
