
 OpenBabel03252501303D

 32 33  0  0  0  0  0  0  0  0999 V2000
   36.2400   28.3520   40.5300 C   0  0  0  0  0  0  0  0  0  0  0  0
   36.2460   27.3870   39.5540 C   0  0  0  0  0  0  0  0  0  0  0  0
   36.6280   26.0980   39.7600 C   0  0  0  0  0  0  0  0  0  0  0  0
   37.0310   25.7350   41.0080 C   0  0  0  0  0  0  0  0  0  0  0  0
   37.0340   26.6850   42.0080 C   0  0  0  0  0  0  0  0  0  0  0  0
   36.6410   27.9930   41.7800 C   0  0  0  0  0  0  0  0  0  0  0  0
   35.9090   27.7500   38.5700 H   0  0  0  0  0  0  0  0  0  0  0  0
   36.5750   25.4650   38.8850 H   0  0  0  0  0  0  0  0  0  0  0  0
   37.3870   26.2140   42.9410 H   0  0  0  0  0  0  0  0  0  0  0  0
   38.0950   29.0500   43.3910 C   0  0  0  0  0  0  0  0  0  0  0  0
   39.3000   28.9660   42.9520 O   0  0  0  0  0  0  0  0  0  0  0  0
   36.7610   28.6670   43.0360 N   0  0  0  0  0  0  0  0  0  0  0  0
   38.5250   29.5880   44.2350 H   0  0  0  0  0  0  0  0  0  0  0  0
   36.1100   28.9570   43.7750 H   0  0  0  0  0  0  0  0  0  0  0  0
   35.8640   29.7650   40.4390 C   0  0  0  0  0  0  0  0  0  0  0  0
   36.1590   30.3280   41.3700 H   0  0  0  0  0  0  0  0  0  0  0  0
   34.7560   29.8250   40.4140 H   0  0  0  0  0  0  0  0  0  0  0  0
   36.5130   30.4370   39.2590 C   0  0  0  0  0  0  0  0  0  0  0  0
   37.1390   29.7020   38.6840 H   0  0  0  0  0  0  0  0  0  0  0  0
   35.7790   30.8180   38.5150 H   0  0  0  0  0  0  0  0  0  0  0  0
   37.7730   33.8320   39.8120 C   0  0  0  0  0  0  0  0  0  0  0  0
   38.8400   33.6280   40.7120 C   0  0  0  0  0  0  0  0  0  0  0  0
   39.0820   32.3040   41.0990 C   0  0  0  0  0  0  0  0  0  0  0  0
   38.3170   31.3160   40.6140 N   0  0  0  0  0  0  0  0  0  0  0  0
   37.3080   31.5820   39.7510 C   0  0  0  0  0  0  0  0  0  0  0  0
   37.0300   32.7980   39.3500 N   0  0  0  0  0  0  0  0  0  0  0  0
   37.5200   34.8330   39.4610 H   0  0  0  0  0  0  0  0  0  0  0  0
   39.3880   34.4970   41.0370 H   0  0  0  0  0  0  0  0  0  0  0  0
   39.8980   32.1460   41.7900 H   0  0  0  0  0  0  0  0  0  0  0  0
   37.4390   24.2930   41.1540 C   0  0  0  0  0  2  0  0  0  0  0  0
   38.6430   24.1700   42.0620 C   0  0  0  0  0  2  0  0  0  0  0  0
   39.1350   23.2000   41.8010 H   0  0  0  0  0  0  0  0  0  0  0  0
  1  6  1  0  0  0  0
  2  3  1  0  0  0  0
  2  1  2  0  0  0  0
  3  4  2  0  0  0  0
  4 30  1  0  0  0  0
  4  5  1  0  0  0  0
  5  9  1  0  0  0  0
  6  5  2  0  0  0  0
  6 12  1  0  0  0  0
  7  2  1  0  0  0  0
  8  3  1  0  0  0  0
 10 13  1  0  0  0  0
 11 10  2  0  0  0  0
 12 10  1  0  0  0  0
 12 14  1  0  0  0  0
 15  1  1  0  0  0  0
 15 16  1  0  0  0  0
 17 15  1  0  0  0  0
 18 25  1  0  0  0  0
 18 15  1  0  0  0  0
 19 18  1  0  0  0  0
 20 18  1  0  0  0  0
 21 22  1  0  0  0  0
 22 28  1  0  0  0  0
 22 23  2  0  0  0  0
 23 29  1  0  0  0  0
 24 23  1  0  0  0  0
 25 24  2  0  0  0  0
 26 25  1  0  0  0  0
 26 21  2  0  0  0  0
 27 21  1  0  0  0  0
 30 31  1  0  0  0  0
 32 31  1  0  0  0  0
M  END
>  <minimizedAffinity>
-5.20422745

$$$$

 OpenBabel03252501303D

 32 33  0  0  0  0  0  0  0  0999 V2000
   37.7690   29.8620   42.1280 C   0  0  0  0  0  0  0  0  0  0  0  0
   39.0000   30.4680   42.1210 C   0  0  0  0  0  0  0  0  0  0  0  0
   39.2980   31.5800   41.4000 C   0  0  0  0  0  0  0  0  0  0  0  0
   38.3190   32.1340   40.6330 C   0  0  0  0  0  0  0  0  0  0  0  0
   37.0710   31.5470   40.6220 C   0  0  0  0  0  0  0  0  0  0  0  0
   36.7870   30.4130   41.3640 C   0  0  0  0  0  0  0  0  0  0  0  0
   39.7440   29.9670   42.7620 H   0  0  0  0  0  0  0  0  0  0  0  0
   40.3150   31.9300   41.5050 H   0  0  0  0  0  0  0  0  0  0  0  0
   36.4150   32.1270   39.9520 H   0  0  0  0  0  0  0  0  0  0  0  0
   35.1820   29.1370   40.0900 C   0  0  0  0  0  0  0  0  0  0  0  0
   35.8300   28.4150   39.2470 O   0  0  0  0  0  0  0  0  0  0  0  0
   35.4100   30.1120   41.1140 N   0  0  0  0  0  0  0  0  0  0  0  0
   34.2880   28.6690   39.6810 H   0  0  0  0  0  0  0  0  0  0  0  0
   34.5120   30.4290   41.4960 H   0  0  0  0  0  0  0  0  0  0  0  0
   37.3240   28.6660   42.8470 C   0  0  0  0  0  0  0  0  0  0  0  0
   36.7050   27.9970   42.1840 H   0  0  0  0  0  0  0  0  0  0  0  0
   36.6290   28.9860   43.6510 H   0  0  0  0  0  0  0  0  0  0  0  0
   38.4880   27.8640   43.3650 C   0  0  0  0  0  0  0  0  0  0  0  0
   39.4590   28.3490   43.0740 H   0  0  0  0  0  0  0  0  0  0  0  0
   38.5250   27.8150   44.4760 H   0  0  0  0  0  0  0  0  0  0  0  0
   39.2490   24.3890   42.4940 C   0  0  0  0  0  0  0  0  0  0  0  0
   38.0710   23.9620   41.8460 C   0  0  0  0  0  0  0  0  0  0  0  0
   37.0440   24.9100   41.7360 C   0  0  0  0  0  0  0  0  0  0  0  0
   37.2170   26.1410   42.2340 N   0  0  0  0  0  0  0  0  0  0  0  0
   38.3750   26.4850   42.8450 C   0  0  0  0  0  0  0  0  0  0  0  0
   39.3730   25.6470   42.9800 N   0  0  0  0  0  0  0  0  0  0  0  0
   40.0950   23.7120   42.6200 H   0  0  0  0  0  0  0  0  0  0  0  0
   38.0430   22.9470   41.4840 H   0  0  0  0  0  0  0  0  0  0  0  0
   36.1400   24.5840   41.2400 H   0  0  0  0  0  0  0  0  0  0  0  0
   38.7270   33.3630   39.8640 C   0  0  0  0  0  2  0  0  0  0  0  0
   40.1980   33.6560   40.0700 C   0  0  0  0  0  2  0  0  0  0  0  0
   40.3340   34.7450   39.8510 H   0  0  0  0  0  0  0  0  0  0  0  0
  1 15  1  0  0  0  0
  2  1  1  0  0  0  0
  2  7  1  0  0  0  0
  3  8  1  0  0  0  0
  3  2  2  0  0  0  0
  4  3  1  0  0  0  0
  5  4  2  0  0  0  0
  5  6  1  0  0  0  0
  6  1  2  0  0  0  0
  9  5  1  0  0  0  0
 10 12  1  0  0  0  0
 11 10  2  0  0  0  0
 12  6  1  0  0  0  0
 12 14  1  0  0  0  0
 13 10  1  0  0  0  0
 15 18  1  0  0  0  0
 15 17  1  0  0  0  0
 16 15  1  0  0  0  0
 18 20  1  0  0  0  0
 19 18  1  0  0  0  0
 21 27  1  0  0  0  0
 21 26  1  0  0  0  0
 22 21  2  0  0  0  0
 23 22  1  0  0  0  0
 23 24  2  0  0  0  0
 24 25  1  0  0  0  0
 25 26  2  0  0  0  0
 25 18  1  0  0  0  0
 28 22  1  0  0  0  0
 29 23  1  0  0  0  0
 30 31  1  0  0  0  0
 30  4  1  0  0  0  0
 32 31  1  0  0  0  0
M  END
>  <minimizedAffinity>
-5.19277906

$$$$

 OpenBabel03252501303D

 32 33  0  0  0  0  0  0  0  0999 V2000
   38.5830   28.8610   42.5980 C   0  0  0  0  0  0  0  0  0  0  0  0
   39.2610   27.6920   42.8370 C   0  0  0  0  0  0  0  0  0  0  0  0
   38.6950   26.4580   42.7750 C   0  0  0  0  0  0  0  0  0  0  0  0
   37.3750   26.3670   42.4570 C   0  0  0  0  0  0  0  0  0  0  0  0
   36.6690   27.5270   42.2110 C   0  0  0  0  0  0  0  0  0  0  0  0
   37.2630   28.7760   42.2790 C   0  0  0  0  0  0  0  0  0  0  0  0
   40.3240   27.8390   43.0880 H   0  0  0  0  0  0  0  0  0  0  0  0
   39.3680   25.6400   42.9910 H   0  0  0  0  0  0  0  0  0  0  0  0
   35.6260   27.2610   41.9730 H   0  0  0  0  0  0  0  0  0  0  0  0
   35.7810   29.6690   40.5960 C   0  0  0  0  0  0  0  0  0  0  0  0
   36.0100   29.0460   39.4960 O   0  0  0  0  0  0  0  0  0  0  0  0
   36.2380   29.7200   41.9520 N   0  0  0  0  0  0  0  0  0  0  0  0
   35.0170   30.2080   40.0380 H   0  0  0  0  0  0  0  0  0  0  0  0
   35.7290   30.4500   42.4620 H   0  0  0  0  0  0  0  0  0  0  0  0
   39.0680   30.2430   42.6400 C   0  0  0  0  0  0  0  0  0  0  0  0
   39.6720   30.4360   43.5720 H   0  0  0  0  0  0  0  0  0  0  0  0
   38.1880   30.9140   42.7320 H   0  0  0  0  0  0  0  0  0  0  0  0
   39.9280   30.5670   41.4480 C   0  0  0  0  0  0  0  0  0  0  0  0
   40.7920   31.2200   41.7530 H   0  0  0  0  0  0  0  0  0  0  0  0
   40.4060   29.6690   40.9980 H   0  0  0  0  0  0  0  0  0  0  0  0
   38.3620   31.4070   38.2460 C   0  0  0  0  0  0  0  0  0  0  0  0
   37.4840   32.4560   38.5920 C   0  0  0  0  0  0  0  0  0  0  0  0
   37.4690   32.8350   39.9400 C   0  0  0  0  0  0  0  0  0  0  0  0
   38.2620   32.2070   40.8190 N   0  0  0  0  0  0  0  0  0  0  0  0
   39.0820   31.2060   40.4190 C   0  0  0  0  0  0  0  0  0  0  0  0
   39.1440   30.8060   39.1730 N   0  0  0  0  0  0  0  0  0  0  0  0
   38.4340   31.0540   37.2170 H   0  0  0  0  0  0  0  0  0  0  0  0
   36.8920   32.8880   37.8020 H   0  0  0  0  0  0  0  0  0  0  0  0
   36.7950   33.6380   40.2070 H   0  0  0  0  0  0  0  0  0  0  0  0
   36.8230   24.9670   42.4090 C   0  0  0  0  0  2  0  0  0  0  0  0
   37.6890   24.0830   41.5390 C   0  0  0  0  0  2  0  0  0  0  0  0
   37.0390   23.2350   41.2070 H   0  0  0  0  0  0  0  0  0  0  0  0
  1 15  1  0  0  0  0
  1  2  1  0  0  0  0
  2  7  1  0  0  0  0
  3  2  2  0  0  0  0
  3  8  1  0  0  0  0
  4  3  1  0  0  0  0
  5  6  1  0  0  0  0
  5  4  2  0  0  0  0
  6  1  2  0  0  0  0
  9  5  1  0  0  0  0
 10 12  1  0  0  0  0
 11 10  2  0  0  0  0
 12  6  1  0  0  0  0
 12 14  1  0  0  0  0
 13 10  1  0  0  0  0
 15 17  1  0  0  0  0
 15 16  1  0  0  0  0
 18 19  1  0  0  0  0
 18 15  1  0  0  0  0
 20 18  1  0  0  0  0
 21 22  2  0  0  0  0
 21 26  1  0  0  0  0
 22 23  1  0  0  0  0
 23 29  1  0  0  0  0
 23 24  2  0  0  0  0
 25 24  1  0  0  0  0
 25 18  1  0  0  0  0
 26 25  2  0  0  0  0
 27 21  1  0  0  0  0
 28 22  1  0  0  0  0
 30  4  1  0  0  0  0
 31 30  1  0  0  0  0
 32 31  1  0  0  0  0
M  END
>  <minimizedAffinity>
-5.06967402

$$$$

 OpenBabel03252501303D

 32 33  0  0  0  0  0  0  0  0999 V2000
   36.8090   30.6500   38.6690 C   0  0  0  0  0  0  0  0  0  0  0  0
   35.9470   29.6630   38.2630 C   0  0  0  0  0  0  0  0  0  0  0  0
   35.7720   29.2890   36.9680 C   0  0  0  0  0  0  0  0  0  0  0  0
   36.4930   29.9290   36.0080 C   0  0  0  0  0  0  0  0  0  0  0  0
   37.3680   30.9260   36.3880 C   0  0  0  0  0  0  0  0  0  0  0  0
   37.5330   31.2930   37.7120 C   0  0  0  0  0  0  0  0  0  0  0  0
   35.3950   29.1880   39.0910 H   0  0  0  0  0  0  0  0  0  0  0  0
   35.0540   28.4940   36.8190 H   0  0  0  0  0  0  0  0  0  0  0  0
   37.8590   31.3260   35.4850 H   0  0  0  0  0  0  0  0  0  0  0  0
   39.8760   31.8740   37.7210 C   0  0  0  0  0  0  0  0  0  0  0  0
   40.5550   30.7840   37.7530 O   0  0  0  0  0  0  0  0  0  0  0  0
   38.5180   32.3310   37.7150 N   0  0  0  0  0  0  0  0  0  0  0  0
   40.8400   32.3800   37.6960 H   0  0  0  0  0  0  0  0  0  0  0  0
   38.4980   33.3570   37.7150 H   0  0  0  0  0  0  0  0  0  0  0  0
   37.0820   31.1510   40.0180 C   0  0  0  0  0  0  0  0  0  0  0  0
   36.9780   32.2720   40.0670 H   0  0  0  0  0  0  0  0  0  0  0  0
   38.1500   30.9570   40.2480 H   0  0  0  0  0  0  0  0  0  0  0  0
   36.1470   30.5500   41.0330 C   0  0  0  0  0  0  0  0  0  0  0  0
   35.7170   31.3520   41.6940 H   0  0  0  0  0  0  0  0  0  0  0  0
   35.2580   30.0640   40.5740 H   0  0  0  0  0  0  0  0  0  0  0  0
   38.6900   28.8760   43.0690 C   0  0  0  0  0  0  0  0  0  0  0  0
   38.1760   27.5680   43.2010 C   0  0  0  0  0  0  0  0  0  0  0  0
   36.9500   27.3170   42.5710 C   0  0  0  0  0  0  0  0  0  0  0  0
   36.3350   28.2940   41.8920 N   0  0  0  0  0  0  0  0  0  0  0  0
   36.8860   29.5280   41.8040 C   0  0  0  0  0  0  0  0  0  0  0  0
   38.0290   29.8280   42.3690 N   0  0  0  0  0  0  0  0  0  0  0  0
   39.6390   29.1520   43.5280 H   0  0  0  0  0  0  0  0  0  0  0  0
   38.7560   26.8620   43.7710 H   0  0  0  0  0  0  0  0  0  0  0  0
   36.5530   26.3160   42.6730 H   0  0  0  0  0  0  0  0  0  0  0  0
   36.2430   29.4580   34.5990 C   0  0  0  0  0  2  0  0  0  0  0  0
   36.2500   30.6280   33.6390 C   0  0  0  0  0  2  0  0  0  0  0  0
   35.6650   30.3010   32.7430 H   0  0  0  0  0  0  0  0  0  0  0  0
  1 15  1  0  0  0  0
  2  1  1  0  0  0  0
  2  7  1  0  0  0  0
  3  2  2  0  0  0  0
  4  5  2  0  0  0  0
  4  3  1  0  0  0  0
  5  6  1  0  0  0  0
  6 12  1  0  0  0  0
  6  1  2  0  0  0  0
  8  3  1  0  0  0  0
  9  5  1  0  0  0  0
 10 11  2  0  0  0  0
 12 14  1  0  0  0  0
 12 10  1  0  0  0  0
 13 10  1  0  0  0  0
 15 16  1  0  0  0  0
 15 17  1  0  0  0  0
 15 18  1  0  0  0  0
 18 19  1  0  0  0  0
 18 25  1  0  0  0  0
 20 18  1  0  0  0  0
 21 22  1  0  0  0  0
 21 27  1  0  0  0  0
 22 28  1  0  0  0  0
 23 29  1  0  0  0  0
 23 22  2  0  0  0  0
 24 23  1  0  0  0  0
 25 24  2  0  0  0  0
 25 26  1  0  0  0  0
 26 21  2  0  0  0  0
 30  4  1  0  0  0  0
 31 30  1  0  0  0  0
 32 31  1  0  0  0  0
M  END
>  <minimizedAffinity>
-4.87972641

$$$$

 OpenBabel03252501303D

 32 33  0  0  0  0  0  0  0  0999 V2000
   38.5380   29.0650   42.6230 C   0  0  0  0  0  0  0  0  0  0  0  0
   37.2240   28.8120   42.3160 C   0  0  0  0  0  0  0  0  0  0  0  0
   36.6720   27.5700   42.2960 C   0  0  0  0  0  0  0  0  0  0  0  0
   37.4650   26.5060   42.5980 C   0  0  0  0  0  0  0  0  0  0  0  0
   38.7900   26.7320   42.9110 C   0  0  0  0  0  0  0  0  0  0  0  0
   39.3340   28.0040   42.9260 C   0  0  0  0  0  0  0  0  0  0  0  0
   36.6410   29.7180   42.0810 H   0  0  0  0  0  0  0  0  0  0  0  0
   35.6240   27.5440   42.0340 H   0  0  0  0  0  0  0  0  0  0  0  0
   39.2720   25.7630   43.1250 H   0  0  0  0  0  0  0  0  0  0  0  0
   41.5990   27.5540   42.2240 C   0  0  0  0  0  0  0  0  0  0  0  0
   41.5880   27.3470   40.9560 O   0  0  0  0  0  0  0  0  0  0  0  0
   40.7050   27.8440   43.3040 N   0  0  0  0  0  0  0  0  0  0  0  0
   42.6760   27.4060   42.1570 H   0  0  0  0  0  0  0  0  0  0  0  0
   41.2290   27.8860   44.1850 H   0  0  0  0  0  0  0  0  0  0  0  0
   39.2530   30.3430   42.6700 C   0  0  0  0  0  0  0  0  0  0  0  0
   40.0880   30.3170   43.4260 H   0  0  0  0  0  0  0  0  0  0  0  0
   38.5520   31.1150   43.0510 H   0  0  0  0  0  0  0  0  0  0  0  0
   39.8440   30.6990   41.3320 C   0  0  0  0  0  0  0  0  0  0  0  0
   40.9010   31.0600   41.4530 H   0  0  0  0  0  0  0  0  0  0  0  0
   39.9270   29.8270   40.6450 H   0  0  0  0  0  0  0  0  0  0  0  0
   37.2680   32.2860   39.2670 C   0  0  0  0  0  0  0  0  0  0  0  0
   37.4360   33.6570   39.5550 C   0  0  0  0  0  0  0  0  0  0  0  0
   38.4490   33.9810   40.4680 C   0  0  0  0  0  0  0  0  0  0  0  0
   39.1920   33.0090   41.0120 N   0  0  0  0  0  0  0  0  0  0  0  0
   38.9780   31.7110   40.6910 C   0  0  0  0  0  0  0  0  0  0  0  0
   38.0490   31.3420   39.8450 N   0  0  0  0  0  0  0  0  0  0  0  0
   36.5030   31.9510   38.5670 H   0  0  0  0  0  0  0  0  0  0  0  0
   36.7800   34.3530   39.0580 H   0  0  0  0  0  0  0  0  0  0  0  0
   38.5770   35.0310   40.6900 H   0  0  0  0  0  0  0  0  0  0  0  0
   36.7810   25.1650   42.5550 C   0  0  0  0  0  2  0  0  0  0  0  0
   37.5960   24.1780   41.7460 C   0  0  0  0  0  2  0  0  0  0  0  0
   36.8810   23.3890   41.4020 H   0  0  0  0  0  0  0  0  0  0  0  0
  1 15  1  0  0  0  0
  1  6  1  0  0  0  0
  2  1  2  0  0  0  0
  3  2  1  0  0  0  0
  3  4  2  0  0  0  0
  4  5  1  0  0  0  0
  5  6  2  0  0  0  0
  5  9  1  0  0  0  0
  6 12  1  0  0  0  0
  7  2  1  0  0  0  0
  8  3  1  0  0  0  0
 10 12  1  0  0  0  0
 11 10  2  0  0  0  0
 12 14  1  0  0  0  0
 13 10  1  0  0  0  0
 15 17  1  0  0  0  0
 15 16  1  0  0  0  0
 18 19  1  0  0  0  0
 18 15  1  0  0  0  0
 20 18  1  0  0  0  0
 21 22  2  0  0  0  0
 21 26  1  0  0  0  0
 22 23  1  0  0  0  0
 23 29  1  0  0  0  0
 23 24  2  0  0  0  0
 25 24  1  0  0  0  0
 25 18  1  0  0  0  0
 26 25  2  0  0  0  0
 27 21  1  0  0  0  0
 28 22  1  0  0  0  0
 30  4  1  0  0  0  0
 31 30  1  0  0  0  0
 32 31  1  0  0  0  0
M  END
>  <minimizedAffinity>
-4.80581951

$$$$

 OpenBabel03252501303D

 32 33  0  0  0  0  0  0  0  0999 V2000
   36.5440   29.2030   39.9960 C   0  0  0  0  0  0  0  0  0  0  0  0
   36.6470   29.8500   38.7900 C   0  0  0  0  0  0  0  0  0  0  0  0
   36.9020   31.1790   38.6570 C   0  0  0  0  0  0  0  0  0  0  0  0
   37.0660   31.9210   39.7860 C   0  0  0  0  0  0  0  0  0  0  0  0
   36.9680   31.2960   41.0120 C   0  0  0  0  0  0  0  0  0  0  0  0
   36.7080   29.9410   41.1270 C   0  0  0  0  0  0  0  0  0  0  0  0
   36.5030   29.1890   37.9190 H   0  0  0  0  0  0  0  0  0  0  0  0
   36.9520   31.5310   37.6360 H   0  0  0  0  0  0  0  0  0  0  0  0
   37.1270   32.0470   41.8040 H   0  0  0  0  0  0  0  0  0  0  0  0
   37.9570   29.2600   43.0770 C   0  0  0  0  0  0  0  0  0  0  0  0
   39.1670   29.0280   42.7110 O   0  0  0  0  0  0  0  0  0  0  0  0
   36.6950   29.6590   42.5300 N   0  0  0  0  0  0  0  0  0  0  0  0
   38.2980   29.0080   44.0810 H   0  0  0  0  0  0  0  0  0  0  0  0
   35.9850   29.6700   43.2710 H   0  0  0  0  0  0  0  0  0  0  0  0
   36.2660   27.7920   40.2750 C   0  0  0  0  0  0  0  0  0  0  0  0
   35.4810   27.3840   39.5770 H   0  0  0  0  0  0  0  0  0  0  0  0
   35.8080   27.7250   41.2830 H   0  0  0  0  0  0  0  0  0  0  0  0
   37.5020   26.9440   40.1350 C   0  0  0  0  0  0  0  0  0  0  0  0
   38.1390   27.3160   39.2870 H   0  0  0  0  0  0  0  0  0  0  0  0
   38.1680   26.9950   41.0250 H   0  0  0  0  0  0  0  0  0  0  0  0
   35.8340   23.9350   38.8810 C   0  0  0  0  0  0  0  0  0  0  0  0
   36.3840   22.9130   39.6840 C   0  0  0  0  0  0  0  0  0  0  0  0
   37.3260   23.3140   40.6400 C   0  0  0  0  0  0  0  0  0  0  0  0
   37.6550   24.6080   40.7510 N   0  0  0  0  0  0  0  0  0  0  0  0
   37.0870   25.5380   39.9470 C   0  0  0  0  0  0  0  0  0  0  0  0
   36.2000   25.2290   39.0350 N   0  0  0  0  0  0  0  0  0  0  0  0
   35.0930   23.7060   38.1140 H   0  0  0  0  0  0  0  0  0  0  0  0
   36.0450   21.9060   39.5060 H   0  0  0  0  0  0  0  0  0  0  0  0
   37.7490   22.5320   41.2550 H   0  0  0  0  0  0  0  0  0  0  0  0
   37.3450   33.3830   39.5560 C   0  0  0  0  0  2  0  0  0  0  0  0
   38.6050   33.8040   40.2800 C   0  0  0  0  0  2  0  0  0  0  0  0
   38.5270   34.9110   40.4260 H   0  0  0  0  0  0  0  0  0  0  0  0
  1 15  1  0  0  0  0
  1  6  1  0  0  0  0
  2  1  2  0  0  0  0
  3  2  1  0  0  0  0
  3  4  2  0  0  0  0
  4  5  1  0  0  0  0
  5  6  2  0  0  0  0
  5  9  1  0  0  0  0
  6 12  1  0  0  0  0
  7  2  1  0  0  0  0
  8  3  1  0  0  0  0
 10 13  1  0  0  0  0
 11 10  2  0  0  0  0
 12 10  1  0  0  0  0
 12 14  1  0  0  0  0
 15 17  1  0  0  0  0
 16 15  1  0  0  0  0
 18 15  1  0  0  0  0
 18 20  1  0  0  0  0
 19 18  1  0  0  0  0
 21 26  2  0  0  0  0
 21 22  1  0  0  0  0
 22 23  2  0  0  0  0
 23 24  1  0  0  0  0
 23 29  1  0  0  0  0
 25 18  1  0  0  0  0
 25 24  2  0  0  0  0
 26 25  1  0  0  0  0
 27 21  1  0  0  0  0
 28 22  1  0  0  0  0
 30  4  1  0  0  0  0
 30 31  1  0  0  0  0
 31 32  1  0  0  0  0
M  END
>  <minimizedAffinity>
-4.77156925

$$$$

 OpenBabel03252501303D

 32 33  0  0  0  0  0  0  0  0999 V2000
   36.5030   29.2470   39.9120 C   0  0  0  0  0  0  0  0  0  0  0  0
   36.6000   29.9200   38.7200 C   0  0  0  0  0  0  0  0  0  0  0  0
   36.8780   31.2470   38.6160 C   0  0  0  0  0  0  0  0  0  0  0  0
   37.0720   31.9580   39.7590 C   0  0  0  0  0  0  0  0  0  0  0  0
   36.9810   31.3060   40.9720 C   0  0  0  0  0  0  0  0  0  0  0  0
   36.6980   29.9540   41.0580 C   0  0  0  0  0  0  0  0  0  0  0  0
   36.4310   29.2840   37.8360 H   0  0  0  0  0  0  0  0  0  0  0  0
   36.9180   31.6230   37.6030 H   0  0  0  0  0  0  0  0  0  0  0  0
   37.1660   32.0350   41.7790 H   0  0  0  0  0  0  0  0  0  0  0  0
   37.9820   29.2910   42.9910 C   0  0  0  0  0  0  0  0  0  0  0  0
   39.2020   29.1300   42.6210 O   0  0  0  0  0  0  0  0  0  0  0  0
   36.7010   29.6370   42.4540 N   0  0  0  0  0  0  0  0  0  0  0  0
   38.3360   29.0330   43.9890 H   0  0  0  0  0  0  0  0  0  0  0  0
   35.9920   29.5940   43.1950 H   0  0  0  0  0  0  0  0  0  0  0  0
   36.2030   27.8350   40.1610 C   0  0  0  0  0  0  0  0  0  0  0  0
   35.1730   27.5640   39.7930 H   0  0  0  0  0  0  0  0  0  0  0  0
   36.1590   27.6810   41.2590 H   0  0  0  0  0  0  0  0  0  0  0  0
   37.1950   26.9280   39.4830 C   0  0  0  0  0  0  0  0  0  0  0  0
   36.6650   26.0800   38.9700 H   0  0  0  0  0  0  0  0  0  0  0  0
   37.7620   27.4320   38.6690 H   0  0  0  0  0  0  0  0  0  0  0  0
   38.6420   25.5120   42.5350 C   0  0  0  0  0  0  0  0  0  0  0  0
   40.0300   25.6070   42.2980 C   0  0  0  0  0  0  0  0  0  0  0  0
   40.4140   26.1640   41.0720 C   0  0  0  0  0  0  0  0  0  0  0  0
   39.4800   26.5720   40.2030 N   0  0  0  0  0  0  0  0  0  0  0  0
   38.1630   26.4510   40.4940 C   0  0  0  0  0  0  0  0  0  0  0  0
   37.7380   25.9400   41.6220 N   0  0  0  0  0  0  0  0  0  0  0  0
   38.2610   25.0900   43.4660 H   0  0  0  0  0  0  0  0  0  0  0  0
   40.6910   25.2460   43.0700 H   0  0  0  0  0  0  0  0  0  0  0  0
   41.4770   26.2360   40.8890 H   0  0  0  0  0  0  0  0  0  0  0  0
   37.3750   33.4200   39.5600 C   0  0  0  0  0  2  0  0  0  0  0  0
   38.6150   33.8170   40.3300 C   0  0  0  0  0  2  0  0  0  0  0  0
   38.5450   34.9220   40.4910 H   0  0  0  0  0  0  0  0  0  0  0  0
  1 15  1  0  0  0  0
  1  6  1  0  0  0  0
  2  1  2  0  0  0  0
  3  2  1  0  0  0  0
  3  4  2  0  0  0  0
  4  5  1  0  0  0  0
  5  6  2  0  0  0  0
  5  9  1  0  0  0  0
  6 12  1  0  0  0  0
  7  2  1  0  0  0  0
  8  3  1  0  0  0  0
 10 13  1  0  0  0  0
 11 10  2  0  0  0  0
 12 10  1  0  0  0  0
 12 14  1  0  0  0  0
 15 17  1  0  0  0  0
 16 15  1  0  0  0  0
 18 15  1  0  0  0  0
 18 25  1  0  0  0  0
 19 18  1  0  0  0  0
 20 18  1  0  0  0  0
 21 27  1  0  0  0  0
 22 21  1  0  0  0  0
 22 28  1  0  0  0  0
 23 22  2  0  0  0  0
 24 25  2  0  0  0  0
 24 23  1  0  0  0  0
 25 26  1  0  0  0  0
 26 21  2  0  0  0  0
 29 23  1  0  0  0  0
 30  4  1  0  0  0  0
 30 31  1  0  0  0  0
 31 32  1  0  0  0  0
M  END
>  <minimizedAffinity>
-4.73880148

$$$$

 OpenBabel03252501303D

 32 33  0  0  0  0  0  0  0  0999 V2000
   37.1800   28.0800   41.9180 C   0  0  0  0  0  0  0  0  0  0  0  0
   37.3000   26.9560   42.6950 C   0  0  0  0  0  0  0  0  0  0  0  0
   37.1400   25.6880   42.2300 C   0  0  0  0  0  0  0  0  0  0  0  0
   36.8420   25.5150   40.9140 C   0  0  0  0  0  0  0  0  0  0  0  0
   36.7160   26.6290   40.1090 C   0  0  0  0  0  0  0  0  0  0  0  0
   36.8830   27.9130   40.6010 C   0  0  0  0  0  0  0  0  0  0  0  0
   37.5420   27.1690   43.7490 H   0  0  0  0  0  0  0  0  0  0  0  0
   37.2690   24.9140   42.9740 H   0  0  0  0  0  0  0  0  0  0  0  0
   36.4750   26.2980   39.0850 H   0  0  0  0  0  0  0  0  0  0  0  0
   35.3510   29.2530   39.3030 C   0  0  0  0  0  0  0  0  0  0  0  0
   34.1790   29.1200   39.8110 O   0  0  0  0  0  0  0  0  0  0  0  0
   36.6940   28.7900   39.4860 N   0  0  0  0  0  0  0  0  0  0  0  0
   34.8790   29.9320   38.5950 H   0  0  0  0  0  0  0  0  0  0  0  0
   37.2990   29.1870   38.7580 H   0  0  0  0  0  0  0  0  0  0  0  0
   37.3170   29.4900   42.2930 C   0  0  0  0  0  0  0  0  0  0  0  0
   36.9970   29.6620   43.3600 H   0  0  0  0  0  0  0  0  0  0  0  0
   36.5990   30.0790   41.6860 H   0  0  0  0  0  0  0  0  0  0  0  0
   38.7370   29.9690   42.1470 C   0  0  0  0  0  0  0  0  0  0  0  0
   39.2170   30.0860   43.1570 H   0  0  0  0  0  0  0  0  0  0  0  0
   39.3890   29.2430   41.6130 H   0  0  0  0  0  0  0  0  0  0  0  0
   39.7750   33.1340   40.6240 C   0  0  0  0  0  0  0  0  0  0  0  0
   38.6100   33.5530   39.9470 C   0  0  0  0  0  0  0  0  0  0  0  0
   37.4960   32.7100   40.0460 C   0  0  0  0  0  0  0  0  0  0  0  0
   37.5780   31.5760   40.7550 N   0  0  0  0  0  0  0  0  0  0  0  0
   38.7290   31.2330   41.3820 C   0  0  0  0  0  0  0  0  0  0  0  0
   39.8050   31.9780   41.3290 N   0  0  0  0  0  0  0  0  0  0  0  0
   40.6840   33.7340   40.5970 H   0  0  0  0  0  0  0  0  0  0  0  0
   38.6580   34.4840   39.4060 H   0  0  0  0  0  0  0  0  0  0  0  0
   36.6030   33.0290   39.5270 H   0  0  0  0  0  0  0  0  0  0  0  0
   36.6810   24.0840   40.4770 C   0  0  0  0  0  2  0  0  0  0  0  0
   37.8640   23.2530   40.9260 C   0  0  0  0  0  2  0  0  0  0  0  0
   37.9010   22.3660   40.2450 H   0  0  0  0  0  0  0  0  0  0  0  0
  1 15  1  0  0  0  0
  1  2  1  0  0  0  0
  2  7  1  0  0  0  0
  3  2  2  0  0  0  0
  3  8  1  0  0  0  0
  4  3  1  0  0  0  0
  5  6  1  0  0  0  0
  5  4  2  0  0  0  0
  6  1  2  0  0  0  0
  9  5  1  0  0  0  0
 10 12  1  0  0  0  0
 10 11  2  0  0  0  0
 12  6  1  0  0  0  0
 13 10  1  0  0  0  0
 14 12  1  0  0  0  0
 15 16  1  0  0  0  0
 17 15  1  0  0  0  0
 18 15  1  0  0  0  0
 18 19  1  0  0  0  0
 20 18  1  0  0  0  0
 21 26  1  0  0  0  0
 22 23  1  0  0  0  0
 22 21  2  0  0  0  0
 23 24  2  0  0  0  0
 24 25  1  0  0  0  0
 25 18  1  0  0  0  0
 26 25  2  0  0  0  0
 27 21  1  0  0  0  0
 28 22  1  0  0  0  0
 29 23  1  0  0  0  0
 30  4  1  0  0  0  0
 30 31  1  0  0  0  0
 32 31  1  0  0  0  0
M  END
>  <minimizedAffinity>
-4.73616552

$$$$

 OpenBabel03252501303D

 32 33  0  0  0  0  0  0  0  0999 V2000
   37.3430   32.0920   39.0870 C   0  0  0  0  0  0  0  0  0  0  0  0
   37.7310   31.9190   37.7820 C   0  0  0  0  0  0  0  0  0  0  0  0
   37.3650   30.8600   37.0130 C   0  0  0  0  0  0  0  0  0  0  0  0
   36.5650   29.9070   37.5640 C   0  0  0  0  0  0  0  0  0  0  0  0
   36.1590   30.0560   38.8740 C   0  0  0  0  0  0  0  0  0  0  0  0
   36.5420   31.1420   39.6420 C   0  0  0  0  0  0  0  0  0  0  0  0
   38.3780   32.7260   37.4010 H   0  0  0  0  0  0  0  0  0  0  0  0
   37.7570   30.8750   36.0050 H   0  0  0  0  0  0  0  0  0  0  0  0
   35.5240   29.1970   39.1460 H   0  0  0  0  0  0  0  0  0  0  0  0
   36.6140   30.0690   41.8030 C   0  0  0  0  0  0  0  0  0  0  0  0
   37.6480   29.3060   41.8330 O   0  0  0  0  0  0  0  0  0  0  0  0
   35.9240   30.9610   40.9200 N   0  0  0  0  0  0  0  0  0  0  0  0
   36.4410   29.7390   42.8270 H   0  0  0  0  0  0  0  0  0  0  0  0
   35.0810   31.3210   41.3810 H   0  0  0  0  0  0  0  0  0  0  0  0
   37.6720   33.1720   40.0200 C   0  0  0  0  0  0  0  0  0  0  0  0
   36.7910   33.4290   40.6760 H   0  0  0  0  0  0  0  0  0  0  0  0
   37.8590   34.0920   39.4290 H   0  0  0  0  0  0  0  0  0  0  0  0
   38.8270   32.8040   40.9120 C   0  0  0  0  0  0  0  0  0  0  0  0
   38.8320   33.4480   41.8340 H   0  0  0  0  0  0  0  0  0  0  0  0
   38.7650   31.7640   41.3010 H   0  0  0  0  0  0  0  0  0  0  0  0
   41.5270   34.1610   38.8420 C   0  0  0  0  0  0  0  0  0  0  0  0
   42.4090   33.0660   38.7190 C   0  0  0  0  0  0  0  0  0  0  0  0
   42.0280   31.8860   39.3690 C   0  0  0  0  0  0  0  0  0  0  0  0
   40.8800   31.8440   40.0580 N   0  0  0  0  0  0  0  0  0  0  0  0
   40.0780   32.9330   40.1350 C   0  0  0  0  0  0  0  0  0  0  0  0
   40.3770   34.0660   39.5500 N   0  0  0  0  0  0  0  0  0  0  0  0
   41.7510   35.1160   38.3650 H   0  0  0  0  0  0  0  0  0  0  0  0
   43.3060   33.2140   38.1400 H   0  0  0  0  0  0  0  0  0  0  0  0
   42.7030   31.0460   39.2770 H   0  0  0  0  0  0  0  0  0  0  0  0
   36.2050   28.7660   36.6490 C   0  0  0  0  0  2  0  0  0  0  0  0
   37.4390   28.2280   35.9590 C   0  0  0  0  0  2  0  0  0  0  0  0
   37.0810   27.7160   35.0300 H   0  0  0  0  0  0  0  0  0  0  0  0
  1  6  1  0  0  0  0
  1 15  1  0  0  0  0
  2  1  2  0  0  0  0
  3  4  2  0  0  0  0
  3  2  1  0  0  0  0
  4  5  1  0  0  0  0
  5  9  1  0  0  0  0
  5  6  2  0  0  0  0
  6 12  1  0  0  0  0
  7  2  1  0  0  0  0
  8  3  1  0  0  0  0
 10 11  2  0  0  0  0
 10 13  1  0  0  0  0
 12 14  1  0  0  0  0
 12 10  1  0  0  0  0
 15 16  1  0  0  0  0
 15 18  1  0  0  0  0
 17 15  1  0  0  0  0
 18 20  1  0  0  0  0
 18 19  1  0  0  0  0
 21 26  1  0  0  0  0
 22 21  2  0  0  0  0
 22 23  1  0  0  0  0
 23 24  2  0  0  0  0
 24 25  1  0  0  0  0
 25 18  1  0  0  0  0
 26 25  2  0  0  0  0
 27 21  1  0  0  0  0
 28 22  1  0  0  0  0
 29 23  1  0  0  0  0
 30  4  1  0  0  0  0
 31 30  1  0  0  0  0
 32 31  1  0  0  0  0
M  END
>  <minimizedAffinity>
-4.71534204

$$$$
