
 OpenBabel03252505153D

 19 20  0  0  0  0  0  0  0  0999 V2000
   45.2120   35.1390   43.6560 C   0  0  0  0  0  0  0  0  0  0  0  0
   46.2530   35.2260   42.7170 C   0  0  0  0  0  0  0  0  0  0  0  0
   47.3590   34.4240   42.9480 C   0  0  0  0  0  0  0  0  0  0  0  0
   47.3960   33.6030   44.0500 N   0  0  0  0  0  0  0  0  0  0  0  0
   46.3690   33.5470   44.9360 C   0  0  0  0  0  0  0  0  0  0  0  0
   45.2890   34.3180   44.7240 N   0  0  0  0  0  0  0  0  0  0  0  0
   44.3370   35.7480   43.5100 H   0  0  0  0  0  0  0  0  0  0  0  0
   46.2310   35.8670   41.8500 H   0  0  0  0  0  0  0  0  0  0  0  0
   48.5170   34.4220   41.9920 C   0  0  0  0  0  0  0  0  0  0  0  0
   48.9260   35.8060   41.5360 C   0  0  0  0  0  0  0  0  0  0  0  0
   49.8050   34.9170   42.4580 C   0  0  0  0  0  0  0  0  0  0  0  0
   48.5100   33.6490   41.1780 H   0  0  0  0  0  0  0  0  0  0  0  0
   49.3310   35.9160   40.4950 H   0  0  0  0  0  0  0  0  0  0  0  0
   48.4220   36.6670   41.9710 H   0  0  0  0  0  0  0  0  0  0  0  0
   49.8910   35.3480   43.4820 H   0  0  0  0  0  0  0  0  0  0  0  0
   50.7710   34.5740   42.0330 H   0  0  0  0  0  0  0  0  0  0  0  0
   46.5770   32.6040   46.0660 C   0  0  0  0  0  0  0  0  0  0  0  0
   45.5520   32.8240   47.1610 C   0  0  0  0  0  0  0  0  0  0  0  0
   46.0080   32.5990   48.1380 H   0  0  0  0  0  0  0  0  0  0  0  0
  1  6  1  0  0  0  0
  2  3  1  0  0  0  0
  2  1  2  0  0  0  0
  3  4  2  0  0  0  0
  4  5  1  0  0  0  0
  5 17  1  0  0  0  0
  6  5  2  0  0  0  0
  7  1  1  0  0  0  0
  8  2  1  0  0  0  0
  9 11  1  0  0  0  0
  9  3  1  0  0  0  0
 10 14  1  0  0  0  0
 10  9  1  0  0  0  0
 10 11  1  0  0  0  0
 11 15  1  0  0  0  0
 12  9  1  0  0  0  0
 13 10  1  0  0  0  0
 16 11  1  0  0  0  0
 17 18  1  0  0  0  0
 18 19  1  0  0  0  0
M  END
>  <minimizedAffinity>
-4.15949345

>  <minimizedRMSD>
1.1877172

$$$$
