
 OpenBabel03252508313D

 26 27  0  0  1  0  0  0  0  0999 V2000
   45.5470   34.4690   42.2430 N   0  0  0  0  0  0  0  0  0  0  0  0
   46.8160   34.1450   41.6780 C   0  0  1  0  0  0  0  0  0  0  0  0
   46.8600   34.0060   40.2070 C   0  0  0  0  0  0  0  0  0  0  0  0
   45.6850   33.6900   39.5180 N   0  0  0  0  0  0  0  0  0  0  0  0
   44.4500   33.8890   40.1340 C   0  0  0  0  0  0  0  0  0  0  0  0
   44.5830   34.8820   41.2770 C   0  0  0  0  0  0  0  0  0  0  0  0
   47.2290   33.2510   42.1710 H   0  0  0  0  0  0  0  0  0  0  0  0
   47.2970   34.9120   39.7160 H   0  0  0  0  0  0  0  0  0  0  0  0
   47.6180   33.2000   39.9670 H   0  0  0  0  0  0  0  0  0  0  0  0
   45.7360   33.0970   38.7000 H   0  0  0  0  0  0  0  0  0  0  0  0
   44.1540   32.9240   40.6420 H   0  0  0  0  0  0  0  0  0  0  0  0
   43.6450   34.1950   39.4670 H   0  0  0  0  0  0  0  0  0  0  0  0
   45.0200   35.8060   40.7900 H   0  0  0  0  0  0  0  0  0  0  0  0
   43.5980   35.1580   41.6260 H   0  0  0  0  0  0  0  0  0  0  0  0
   44.7200   35.4200   44.2590 C   0  0  0  0  0  0  0  0  0  0  0  0
   45.3920   34.3550   43.6420 C   0  0  0  0  0  0  0  0  0  0  0  0
   45.8380   33.3190   44.4430 C   0  0  0  0  0  0  0  0  0  0  0  0
   45.6240   33.3490   45.7830 N   0  0  0  0  0  0  0  0  0  0  0  0
   44.9730   34.3860   46.3640 C   0  0  0  0  0  0  0  0  0  0  0  0
   44.5310   35.4000   45.6110 N   0  0  0  0  0  0  0  0  0  0  0  0
   44.2990   36.3120   43.8190 H   0  0  0  0  0  0  0  0  0  0  0  0
   46.3480   32.5040   43.9720 H   0  0  0  0  0  0  0  0  0  0  0  0
   44.8520   34.3160   47.4380 H   0  0  0  0  0  0  0  0  0  0  0  0
   47.7410   35.3280   42.0140 C   0  0  0  0  0  2  0  0  0  0  0  0
   48.8060   35.5170   40.9650 C   0  0  0  0  0  2  0  0  0  0  0  0
   48.6410   34.7910   40.1410 H   0  0  0  0  0  0  0  0  0  0  0  0
  1 16  1  0  0  0  0
  2 24  1  0  0  0  0
  2  7  1  1  0  0  0
  2  1  1  0  0  0  0
  3  2  1  0  0  0  0
  4  5  1  0  0  0  0
  4  3  1  0  0  0  0
  5 11  1  0  0  0  0
  5  6  1  0  0  0  0
  6 14  1  0  0  0  0
  6  1  1  0  0  0  0
  8  3  1  0  0  0  0
  9  3  1  0  0  0  0
 10  4  1  0  0  0  0
 12  5  1  0  0  0  0
 13  6  1  0  0  0  0
 15 20  1  0  0  0  0
 16 15  2  0  0  0  0
 16 17  1  0  0  0  0
 17 18  2  0  0  0  0
 18 19  1  0  0  0  0
 19 23  1  0  0  0  0
 20 19  2  0  0  0  0
 21 15  1  0  0  0  0
 22 17  1  0  0  0  0
 25 24  1  0  0  0  0
 26 25  1  0  0  0  0
M  END
>  <minimizedAffinity>
-4.32977676

>  <minimizedRMSD>
2.05711985

$$$$
