
 OpenBabel03252501273D

 36 39  0  0  0  0  0  0  0  0999 V2000
   44.4840   32.2910   40.8430 F   0  0  0  0  0  0  0  0  0  0  0  0
   44.4760   33.5100   41.3820 C   0  0  0  0  0  0  0  0  0  0  0  0
   45.3570   33.8110   42.3820 C   0  0  0  0  0  0  0  0  0  0  0  0
   45.3590   35.0900   42.9580 C   0  0  0  0  0  0  0  0  0  0  0  0
   44.4960   36.0700   42.5480 C   0  0  0  0  0  0  0  0  0  0  0  0
   43.6140   35.7420   41.5360 C   0  0  0  0  0  0  0  0  0  0  0  0
   43.5970   34.4900   40.9580 C   0  0  0  0  0  0  0  0  0  0  0  0
   46.0510   35.3550   43.7560 H   0  0  0  0  0  0  0  0  0  0  0  0
   44.5130   37.0440   43.0020 H   0  0  0  0  0  0  0  0  0  0  0  0
   42.9350   36.5240   41.2180 H   0  0  0  0  0  0  0  0  0  0  0  0
   42.6250   34.2510   39.8960 C   0  0  0  0  0  0  0  0  0  0  0  0
   42.7700   34.0280   38.5550 C   0  0  0  0  0  0  0  0  0  0  0  0
   41.5850   33.8560   37.9490 N   0  0  0  0  0  0  0  0  0  0  0  0
   40.6660   33.9730   38.9290 C   0  0  0  0  0  0  0  0  0  0  0  0
   41.2910   34.2090   40.0920 N   0  0  0  0  0  0  0  0  0  0  0  0
   43.7680   34.0040   38.0940 H   0  0  0  0  0  0  0  0  0  0  0  0
   41.4220   33.6710   36.9380 H   0  0  0  0  0  0  0  0  0  0  0  0
   39.5820   33.8950   38.8370 H   0  0  0  0  0  0  0  0  0  0  0  0
   47.2290   31.6170   44.4080 C   0  0  0  0  0  0  0  0  0  0  0  0
   47.9850   31.5990   43.2400 C   0  0  0  0  0  0  0  0  0  0  0  0
   47.3980   32.4100   42.3220 C   0  0  0  0  0  0  0  0  0  0  0  0
   46.3000   32.9210   42.9090 N   0  0  0  0  0  0  0  0  0  0  0  0
   46.2060   32.4430   44.1530 N   0  0  0  0  0  0  0  0  0  0  0  0
   48.9070   31.0270   43.0710 H   0  0  0  0  0  0  0  0  0  0  0  0
   47.7560   32.5970   41.3220 H   0  0  0  0  0  0  0  0  0  0  0  0
   48.5840   29.1030   46.6810 C   0  0  0  0  0  0  0  0  0  0  0  0
   48.0740   29.5050   47.9350 C   0  0  0  0  0  0  0  0  0  0  0  0
   47.2650   30.6470   47.9660 C   0  0  0  0  0  0  0  0  0  0  0  0
   47.0390   31.2700   46.7990 N   0  0  0  0  0  0  0  0  0  0  0  0
   47.5260   30.8840   45.6090 C   0  0  0  0  0  0  0  0  0  0  0  0
   48.3120   29.7820   45.5510 N   0  0  0  0  0  0  0  0  0  0  0  0
   49.2110   28.2060   46.6990 H   0  0  0  0  0  0  0  0  0  0  0  0
   48.2750   28.9830   48.8470 H   0  0  0  0  0  0  0  0  0  0  0  0
   46.6700   31.1700   49.2200 C   0  0  0  0  0  0  0  0  0  0  0  0
   45.1570   31.1810   49.1730 C   0  0  0  0  0  0  0  0  0  0  0  0
   44.7390   30.3490   49.7700 H   0  0  0  0  0  0  0  0  0  0  0  0
  1  2  1  0  0  0  0
  2  3  1  0  0  0  0
  3 22  1  0  0  0  0
  3  4  2  0  0  0  0
  4  8  1  0  0  0  0
  5  4  1  0  0  0  0
  5  9  1  0  0  0  0
  6  5  2  0  0  0  0
  7  2  2  0  0  0  0
  7  6  1  0  0  0  0
 10  6  1  0  0  0  0
 11 15  1  0  0  0  0
 11  7  1  0  0  0  0
 12 11  2  0  0  0  0
 13 12  1  0  0  0  0
 13 14  1  0  0  0  0
 14 15  2  0  0  0  0
 16 12  1  0  0  0  0
 17 13  1  0  0  0  0
 18 14  1  0  0  0  0
 19 30  1  0  0  0  0
 20 19  1  0  0  0  0
 21 22  1  0  0  0  0
 21 20  2  0  0  0  0
 22 23  1  0  0  0  0
 23 19  2  0  0  0  0
 24 20  1  0  0  0  0
 25 21  1  0  0  0  0
 26 32  1  0  0  0  0
 26 27  1  0  0  0  0
 27 28  2  0  0  0  0
 27 33  1  0  0  0  0
 28 34  1  0  0  0  0
 29 28  1  0  0  0  0
 30 29  2  0  0  0  0
 31 30  1  0  0  0  0
 31 26  2  0  0  0  0
 35 34  1  0  0  0  0
 35 36  1  0  0  0  0
M  END
>  <minimizedAffinity>
-5.2674818

>  <minimizedRMSD>
1.8561672

$$$$
