
 OpenBabel03252507023D

 32 33  0  0  0  0  0  0  0  0999 V2000
   44.8370   34.1630   40.7240 C   0  0  0  0  0  0  0  0  0  0  0  0
   44.2950   35.0740   41.1430 H   0  0  0  0  0  0  0  0  0  0  0  0
   44.7730   34.3700   39.6280 H   0  0  0  0  0  0  0  0  0  0  0  0
   46.0950   33.9400   41.0860 N   0  0  0  0  0  0  0  0  0  0  0  0
   47.0850   33.1680   40.4240 C   0  0  0  0  0  0  0  0  0  0  0  0
   47.9060   34.3270   39.8020 C   0  0  0  0  0  0  0  0  0  0  0  0
   48.4860   35.2190   40.8080 C   0  0  0  0  0  0  0  0  0  0  0  0
   47.8610   35.2930   42.1270 C   0  0  0  0  0  0  0  0  0  0  0  0
   46.5400   34.6190   42.3080 C   0  0  0  0  0  0  0  0  0  0  0  0
   47.7310   32.5180   40.9840 H   0  0  0  0  0  0  0  0  0  0  0  0
   46.6800   32.5970   39.5710 H   0  0  0  0  0  0  0  0  0  0  0  0
   48.6670   33.8420   39.1550 H   0  0  0  0  0  0  0  0  0  0  0  0
   47.1880   34.8190   39.0910 H   0  0  0  0  0  0  0  0  0  0  0  0
   48.5780   36.2490   40.3590 H   0  0  0  0  0  0  0  0  0  0  0  0
   49.5550   34.8960   40.9790 H   0  0  0  0  0  0  0  0  0  0  0  0
   48.2310   35.7960   42.9790 H   0  0  0  0  0  0  0  0  0  0  0  0
   45.6500   34.7140   43.8350 S   0  0  0  0  0  0  0  0  0  0  0  0
   44.9170   35.9200   43.8900 H   0  0  0  0  0  0  0  0  0  0  0  0
   43.9290   32.9980   40.9820 C   0  0  0  0  0  0  0  0  0  0  0  0
   43.5790   32.9780   42.0290 H   0  0  0  0  0  0  0  0  0  0  0  0
   44.4390   32.0490   40.7130 H   0  0  0  0  0  0  0  0  0  0  0  0
   42.7730   33.1360   40.0560 C   0  0  0  0  0  0  0  0  0  0  0  0
   42.6850   32.4140   38.8810 C   0  0  0  0  0  0  0  0  0  0  0  0
   41.5680   32.6160   38.0670 C   0  0  0  0  0  0  0  0  0  0  0  0
   40.6260   33.5110   38.4690 N   0  0  0  0  0  0  0  0  0  0  0  0
   40.7450   34.1870   39.6090 C   0  0  0  0  0  0  0  0  0  0  0  0
   41.8160   33.9930   40.3870 N   0  0  0  0  0  0  0  0  0  0  0  0
   43.4560   31.7290   38.6210 H   0  0  0  0  0  0  0  0  0  0  0  0
   41.4980   32.0550   37.1530 H   0  0  0  0  0  0  0  0  0  0  0  0
   39.6430   35.1330   39.9300 C   0  0  0  0  0  0  0  0  0  0  0  0
   40.2190   36.3440   40.6280 C   0  0  0  0  0  0  0  0  0  0  0  0
   40.1520   36.2520   41.7370 H   0  0  0  0  0  0  0  0  0  0  0  0
  1 19  1  0  0  0  0
  1  4  1  0  0  0  0
  1  2  1  0  0  0  0
  3  1  1  0  0  0  0
  4  9  1  0  0  0  0
  5 10  1  0  0  0  0
  5  4  1  0  0  0  0
  6  5  1  0  0  0  0
  6  7  1  0  0  0  0
  7 15  1  0  0  0  0
  7  8  1  0  0  0  0
  8  9  2  0  0  0  0
  8 16  1  0  0  0  0
  9 17  1  0  0  0  0
 11  5  1  0  0  0  0
 12  6  1  0  0  0  0
 13  6  1  0  0  0  0
 14  7  1  0  0  0  0
 17 18  1  0  0  0  0
 19 20  1  0  0  0  0
 21 19  1  0  0  0  0
 22 27  1  0  0  0  0
 22 19  1  0  0  0  0
 23 22  2  0  0  0  0
 24 25  2  0  0  0  0
 24 23  1  0  0  0  0
 25 26  1  0  0  0  0
 26 30  1  0  0  0  0
 26 27  2  0  0  0  0
 28 23  1  0  0  0  0
 29 24  1  0  0  0  0
 30 31  1  0  0  0  0
 31 32  1  0  0  0  0
M  END
>  <minimizedAffinity>
-4.5934062

>  <minimizedRMSD>
1.75007284

$$$$
