
 OpenBabel03252505163D

 19 20  0  0  0  0  0  0  0  0999 V2000
   35.5130   28.9250   40.6790 C   0  0  0  0  0  0  0  0  0  0  0  0
   36.2730   28.3900   41.7330 C   0  0  0  0  0  0  0  0  0  0  0  0
   37.3050   29.1810   42.2110 C   0  0  0  0  0  0  0  0  0  0  0  0
   37.5390   30.4170   41.6560 N   0  0  0  0  0  0  0  0  0  0  0  0
   36.7820   30.8990   40.6380 C   0  0  0  0  0  0  0  0  0  0  0  0
   35.7770   30.1440   40.1640 N   0  0  0  0  0  0  0  0  0  0  0  0
   34.7030   28.3380   40.2810 H   0  0  0  0  0  0  0  0  0  0  0  0
   36.0950   27.4220   42.1730 H   0  0  0  0  0  0  0  0  0  0  0  0
   38.1620   28.7150   43.3520 C   0  0  0  0  0  0  0  0  0  0  0  0
   38.3190   27.2110   43.4130 C   0  0  0  0  0  0  0  0  0  0  0  0
   39.4830   28.1760   43.0550 C   0  0  0  0  0  0  0  0  0  0  0  0
   38.0030   29.2050   44.3490 H   0  0  0  0  0  0  0  0  0  0  0  0
   38.4220   26.7360   44.4250 H   0  0  0  0  0  0  0  0  0  0  0  0
   37.8800   26.6090   42.6200 H   0  0  0  0  0  0  0  0  0  0  0  0
   39.8030   28.0570   41.9950 H   0  0  0  0  0  0  0  0  0  0  0  0
   40.3260   28.2180   43.7750 H   0  0  0  0  0  0  0  0  0  0  0  0
   37.1740   32.2510   40.1620 C   0  0  0  0  0  2  0  0  0  0  0  0
   37.2980   32.2880   38.6510 C   0  0  0  0  0  2  0  0  0  0  0  0
   38.0860   33.0020   38.3670 H   0  0  0  0  0  0  0  0  0  0  0  0
  1  2  1  0  0  0  0
  2  8  1  0  0  0  0
  2  3  2  0  0  0  0
  3  9  1  0  0  0  0
  4  3  1  0  0  0  0
  5  4  2  0  0  0  0
  6  5  1  0  0  0  0
  6  1  2  0  0  0  0
  7  1  1  0  0  0  0
  9 10  1  0  0  0  0
  9 12  1  0  0  0  0
 10 13  1  0  0  0  0
 11  9  1  0  0  0  0
 11 10  1  0  0  0  0
 11 16  1  0  0  0  0
 14 10  1  0  0  0  0
 15 11  1  0  0  0  0
 17  5  1  0  0  0  0
 18 17  1  0  0  0  0
 19 18  1  0  0  0  0
M  END
>  <minimizedAffinity>
-3.88311052

$$$$

 OpenBabel03252505163D

 19 20  0  0  0  0  0  0  0  0999 V2000
   39.3120   30.0870   42.5780 C   0  0  0  0  0  0  0  0  0  0  0  0
   38.6830   30.8910   41.6130 C   0  0  0  0  0  0  0  0  0  0  0  0
   37.4060   30.5100   41.2340 C   0  0  0  0  0  0  0  0  0  0  0  0
   36.8230   29.3990   41.7950 N   0  0  0  0  0  0  0  0  0  0  0  0
   37.4650   28.6470   42.7260 C   0  0  0  0  0  0  0  0  0  0  0  0
   38.7030   29.0040   43.1050 N   0  0  0  0  0  0  0  0  0  0  0  0
   40.3060   30.3510   42.8980 H   0  0  0  0  0  0  0  0  0  0  0  0
   39.1340   31.7640   41.1690 H   0  0  0  0  0  0  0  0  0  0  0  0
   36.6340   31.3150   40.2280 C   0  0  0  0  0  0  0  0  0  0  0  0
   37.3560   32.5650   39.7730 C   0  0  0  0  0  0  0  0  0  0  0  0
   37.1060   31.3410   38.8500 C   0  0  0  0  0  0  0  0  0  0  0  0
   35.5370   31.4550   40.4140 H   0  0  0  0  0  0  0  0  0  0  0  0
   36.7350   33.4620   39.5120 H   0  0  0  0  0  0  0  0  0  0  0  0
   38.3660   32.7440   40.1370 H   0  0  0  0  0  0  0  0  0  0  0  0
   38.0580   30.8270   38.5830 H   0  0  0  0  0  0  0  0  0  0  0  0
   36.4300   31.5090   37.9850 H   0  0  0  0  0  0  0  0  0  0  0  0
   36.6850   27.4850   43.2260 C   0  0  0  0  0  2  0  0  0  0  0  0
   37.0520   26.2160   42.4820 C   0  0  0  0  0  2  0  0  0  0  0  0
   36.1670   25.5660   42.4110 H   0  0  0  0  0  0  0  0  0  0  0  0
  1  7  1  0  0  0  0
  1  6  1  0  0  0  0
  2  1  2  0  0  0  0
  3  2  1  0  0  0  0
  3  4  2  0  0  0  0
  4  5  1  0  0  0  0
  5  6  2  0  0  0  0
  5 17  1  0  0  0  0
  8  2  1  0  0  0  0
  9 12  1  0  0  0  0
  9  3  1  0  0  0  0
 10 14  1  0  0  0  0
 10  9  1  0  0  0  0
 11 10  1  0  0  0  0
 11  9  1  0  0  0  0
 13 10  1  0  0  0  0
 15 11  1  0  0  0  0
 16 11  1  0  0  0  0
 18 17  1  0  0  0  0
 19 18  1  0  0  0  0
M  END
>  <minimizedAffinity>
-3.82943678

$$$$

 OpenBabel03252505163D

 19 20  0  0  0  0  0  0  0  0999 V2000
   39.4670   30.4490   42.5170 C   0  0  0  0  0  0  0  0  0  0  0  0
   38.6800   29.3210   42.8040 C   0  0  0  0  0  0  0  0  0  0  0  0
   37.4640   29.2370   42.1460 C   0  0  0  0  0  0  0  0  0  0  0  0
   37.0850   30.2240   41.2680 N   0  0  0  0  0  0  0  0  0  0  0  0
   37.8750   31.3000   41.0170 C   0  0  0  0  0  0  0  0  0  0  0  0
   39.0570   31.3960   41.6480 N   0  0  0  0  0  0  0  0  0  0  0  0
   40.4180   30.5500   43.0110 H   0  0  0  0  0  0  0  0  0  0  0  0
   38.9700   28.5430   43.4910 H   0  0  0  0  0  0  0  0  0  0  0  0
   36.5570   28.0590   42.3610 C   0  0  0  0  0  0  0  0  0  0  0  0
   37.2970   26.7500   42.5260 C   0  0  0  0  0  0  0  0  0  0  0  0
   36.5210   27.4410   43.6800 C   0  0  0  0  0  0  0  0  0  0  0  0
   35.6370   27.9950   41.7210 H   0  0  0  0  0  0  0  0  0  0  0  0
   36.8020   25.8170   42.1440 H   0  0  0  0  0  0  0  0  0  0  0  0
   38.3850   26.7660   42.5480 H   0  0  0  0  0  0  0  0  0  0  0  0
   37.2090   27.8040   44.4770 H   0  0  0  0  0  0  0  0  0  0  0  0
   35.6330   26.9010   44.0670 H   0  0  0  0  0  0  0  0  0  0  0  0
   37.3100   32.2680   40.0410 C   0  0  0  0  0  2  0  0  0  0  0  0
   38.1540   33.5250   39.9620 C   0  0  0  0  0  2  0  0  0  0  0  0
   37.5050   34.3870   39.7470 H   0  0  0  0  0  0  0  0  0  0  0  0
  1  2  1  0  0  0  0
  1  7  1  0  0  0  0
  2  8  1  0  0  0  0
  3  9  1  0  0  0  0
  3  2  2  0  0  0  0
  4  3  1  0  0  0  0
  5  4  2  0  0  0  0
  5  6  1  0  0  0  0
  6  1  2  0  0  0  0
  9 10  1  0  0  0  0
  9 11  1  0  0  0  0
 10 14  1  0  0  0  0
 10 11  1  0  0  0  0
 11 16  1  0  0  0  0
 11 15  1  0  0  0  0
 12  9  1  0  0  0  0
 13 10  1  0  0  0  0
 17  5  1  0  0  0  0
 18 17  1  0  0  0  0
 19 18  1  0  0  0  0
M  END
>  <minimizedAffinity>
-3.82351923

$$$$

 OpenBabel03252505163D

 19 20  0  0  0  0  0  0  0  0999 V2000
   38.4140   28.7970   43.2170 C   0  0  0  0  0  0  0  0  0  0  0  0
   38.1760   27.4130   43.2300 C   0  0  0  0  0  0  0  0  0  0  0  0
   37.1870   26.9510   42.3770 C   0  0  0  0  0  0  0  0  0  0  0  0
   36.4990   27.8330   41.5780 N   0  0  0  0  0  0  0  0  0  0  0  0
   36.7590   29.1660   41.5940 C   0  0  0  0  0  0  0  0  0  0  0  0
   37.7160   29.6280   42.4160 N   0  0  0  0  0  0  0  0  0  0  0  0
   39.1750   29.1930   43.8670 H   0  0  0  0  0  0  0  0  0  0  0  0
   38.7120   26.7150   43.8530 H   0  0  0  0  0  0  0  0  0  0  0  0
   36.8700   25.4850   42.2940 C   0  0  0  0  0  0  0  0  0  0  0  0
   36.9260   24.9350   40.8850 C   0  0  0  0  0  0  0  0  0  0  0  0
   37.9500   24.5560   41.9900 C   0  0  0  0  0  0  0  0  0  0  0  0
   36.0050   25.1110   42.9030 H   0  0  0  0  0  0  0  0  0  0  0  0
   36.2210   24.1030   40.6190 H   0  0  0  0  0  0  0  0  0  0  0  0
   37.2490   25.5940   40.0810 H   0  0  0  0  0  0  0  0  0  0  0  0
   38.9660   24.9500   41.7600 H   0  0  0  0  0  0  0  0  0  0  0  0
   37.9440   23.4980   42.3230 H   0  0  0  0  0  0  0  0  0  0  0  0
   35.9220   29.9710   40.6660 C   0  0  0  0  0  2  0  0  0  0  0  0
   34.8820   29.1090   39.9780 C   0  0  0  0  0  2  0  0  0  0  0  0
   34.6950   29.5020   38.9670 H   0  0  0  0  0  0  0  0  0  0  0  0
  1  2  1  0  0  0  0
  1  7  1  0  0  0  0
  2  8  1  0  0  0  0
  3  2  2  0  0  0  0
  4  5  2  0  0  0  0
  4  3  1  0  0  0  0
  5  6  1  0  0  0  0
  6  1  2  0  0  0  0
  9  3  1  0  0  0  0
  9 12  1  0  0  0  0
 10 11  1  0  0  0  0
 10  9  1  0  0  0  0
 11  9  1  0  0  0  0
 11 16  1  0  0  0  0
 13 10  1  0  0  0  0
 14 10  1  0  0  0  0
 15 11  1  0  0  0  0
 17  5  1  0  0  0  0
 18 17  1  0  0  0  0
 19 18  1  0  0  0  0
M  END
>  <minimizedAffinity>
-3.81163168

$$$$

 OpenBabel03252505163D

 19 20  0  0  0  0  0  0  0  0999 V2000
   39.2920   31.1340   41.8390 C   0  0  0  0  0  0  0  0  0  0  0  0
   39.2110   30.0850   42.7700 C   0  0  0  0  0  0  0  0  0  0  0  0
   38.0830   29.2840   42.6980 C   0  0  0  0  0  0  0  0  0  0  0  0
   37.1190   29.5360   41.7510 N   0  0  0  0  0  0  0  0  0  0  0  0
   37.2340   30.5610   40.8680 C   0  0  0  0  0  0  0  0  0  0  0  0
   38.3230   31.3460   40.9260 N   0  0  0  0  0  0  0  0  0  0  0  0
   40.1540   31.7780   41.8660 H   0  0  0  0  0  0  0  0  0  0  0  0
   39.9640   29.8810   43.5150 H   0  0  0  0  0  0  0  0  0  0  0  0
   37.9090   28.1190   43.6300 C   0  0  0  0  0  0  0  0  0  0  0  0
   36.5870   27.4030   43.4590 C   0  0  0  0  0  0  0  0  0  0  0  0
   37.9540   26.7730   43.0760 C   0  0  0  0  0  0  0  0  0  0  0  0
   38.2240   28.2640   44.6970 H   0  0  0  0  0  0  0  0  0  0  0  0
   36.1180   26.9450   44.3710 H   0  0  0  0  0  0  0  0  0  0  0  0
   35.9200   27.7230   42.6610 H   0  0  0  0  0  0  0  0  0  0  0  0
   38.0470   26.6330   41.9750 H   0  0  0  0  0  0  0  0  0  0  0  0
   38.2710   25.8890   43.6680 H   0  0  0  0  0  0  0  0  0  0  0  0
   36.1000   30.6860   39.9140 C   0  0  0  0  0  2  0  0  0  0  0  0
   35.1880   29.4770   39.9850 C   0  0  0  0  0  2  0  0  0  0  0  0
   34.7590   29.2860   38.9890 H   0  0  0  0  0  0  0  0  0  0  0  0
  1  7  1  0  0  0  0
  1  2  1  0  0  0  0
  2  8  1  0  0  0  0
  3  2  2  0  0  0  0
  3  9  1  0  0  0  0
  4  3  1  0  0  0  0
  5  6  1  0  0  0  0
  5  4  2  0  0  0  0
  6  1  2  0  0  0  0
  9 12  1  0  0  0  0
 10  9  1  0  0  0  0
 10 13  1  0  0  0  0
 11 10  1  0  0  0  0
 11  9  1  0  0  0  0
 11 16  1  0  0  0  0
 14 10  1  0  0  0  0
 15 11  1  0  0  0  0
 17 18  1  0  0  0  0
 17  5  1  0  0  0  0
 19 18  1  0  0  0  0
M  END
>  <minimizedAffinity>
-3.77588582

$$$$

 OpenBabel03252505163D

 19 20  0  0  0  0  0  0  0  0999 V2000
   35.5470   28.7240   40.6740 C   0  0  0  0  0  0  0  0  0  0  0  0
   35.6920   29.9880   40.0780 C   0  0  0  0  0  0  0  0  0  0  0  0
   36.6600   30.8160   40.6200 C   0  0  0  0  0  0  0  0  0  0  0  0
   37.4170   30.3870   41.6850 N   0  0  0  0  0  0  0  0  0  0  0  0
   37.2460   29.1560   42.2330 C   0  0  0  0  0  0  0  0  0  0  0  0
   36.3110   28.3420   41.7170 N   0  0  0  0  0  0  0  0  0  0  0  0
   34.8030   28.0530   40.2800 H   0  0  0  0  0  0  0  0  0  0  0  0
   35.1020   30.3310   39.2420 H   0  0  0  0  0  0  0  0  0  0  0  0
   36.9140   32.1790   40.0420 C   0  0  0  0  0  0  0  0  0  0  0  0
   38.3520   32.6310   40.1750 C   0  0  0  0  0  0  0  0  0  0  0  0
   37.6920   32.2790   38.8140 C   0  0  0  0  0  0  0  0  0  0  0  0
   36.1560   32.9770   40.2540 H   0  0  0  0  0  0  0  0  0  0  0  0
   38.5450   33.7290   40.3120 H   0  0  0  0  0  0  0  0  0  0  0  0
   39.0800   31.9390   40.5950 H   0  0  0  0  0  0  0  0  0  0  0  0
   38.1370   31.3600   38.3680 H   0  0  0  0  0  0  0  0  0  0  0  0
   37.5740   33.1150   38.0940 H   0  0  0  0  0  0  0  0  0  0  0  0
   38.1500   28.8580   43.3750 C   0  0  0  0  0  2  0  0  0  0  0  0
   38.4120   27.3690   43.4940 C   0  0  0  0  0  2  0  0  0  0  0  0
   38.5470   27.1070   44.5540 H   0  0  0  0  0  0  0  0  0  0  0  0
  1  6  1  0  0  0  0
  2  3  1  0  0  0  0
  2  1  2  0  0  0  0
  3  4  2  0  0  0  0
  4  5  1  0  0  0  0
  5 17  1  0  0  0  0
  6  5  2  0  0  0  0
  7  1  1  0  0  0  0
  8  2  1  0  0  0  0
  9 10  1  0  0  0  0
  9 12  1  0  0  0  0
  9  3  1  0  0  0  0
 10 13  1  0  0  0  0
 10 14  1  0  0  0  0
 11  9  1  0  0  0  0
 11 10  1  0  0  0  0
 15 11  1  0  0  0  0
 16 11  1  0  0  0  0
 17 18  1  0  0  0  0
 18 19  1  0  0  0  0
M  END
>  <minimizedAffinity>
-3.72510791

$$$$

 OpenBabel03252505163D

 19 20  0  0  0  0  0  0  0  0999 V2000
   37.9210   24.2970   42.1870 C   0  0  0  0  0  0  0  0  0  0  0  0
   37.0110   25.3670   42.1760 C   0  0  0  0  0  0  0  0  0  0  0  0
   37.4740   26.5740   42.6740 C   0  0  0  0  0  0  0  0  0  0  0  0
   38.7620   26.6760   43.1440 N   0  0  0  0  0  0  0  0  0  0  0  0
   39.6130   25.6180   43.1370 C   0  0  0  0  0  0  0  0  0  0  0  0
   39.1780   24.4410   42.6560 N   0  0  0  0  0  0  0  0  0  0  0  0
   37.5970   23.3430   41.8080 H   0  0  0  0  0  0  0  0  0  0  0  0
   36.0000   25.2930   41.8080 H   0  0  0  0  0  0  0  0  0  0  0  0
   36.5900   27.7880   42.6850 C   0  0  0  0  0  0  0  0  0  0  0  0
   37.3510   29.0880   42.5420 C   0  0  0  0  0  0  0  0  0  0  0  0
   36.4080   28.5270   41.4430 C   0  0  0  0  0  0  0  0  0  0  0  0
   35.7630   27.8150   43.4420 H   0  0  0  0  0  0  0  0  0  0  0  0
   36.9430   29.9930   43.0670 H   0  0  0  0  0  0  0  0  0  0  0  0
   38.4250   29.0480   42.3770 H   0  0  0  0  0  0  0  0  0  0  0  0
   36.9760   28.2230   40.5330 H   0  0  0  0  0  0  0  0  0  0  0  0
   35.4980   29.1220   41.2250 H   0  0  0  0  0  0  0  0  0  0  0  0
   40.9650   25.9080   43.6800 C   0  0  0  0  0  2  0  0  0  0  0  0
   42.0490   25.3070   42.8060 C   0  0  0  0  0  2  0  0  0  0  0  0
   42.9030   25.0120   43.4350 H   0  0  0  0  0  0  0  0  0  0  0  0
  1  6  1  0  0  0  0
  2  1  2  0  0  0  0
  2  3  1  0  0  0  0
  3  9  1  0  0  0  0
  3  4  2  0  0  0  0
  5  4  1  0  0  0  0
  5 17  1  0  0  0  0
  6  5  2  0  0  0  0
  7  1  1  0  0  0  0
  8  2  1  0  0  0  0
  9 12  1  0  0  0  0
 10  9  1  0  0  0  0
 10 13  1  0  0  0  0
 11 10  1  0  0  0  0
 11  9  1  0  0  0  0
 14 10  1  0  0  0  0
 15 11  1  0  0  0  0
 16 11  1  0  0  0  0
 18 19  1  0  0  0  0
 18 17  1  0  0  0  0
M  END
>  <minimizedAffinity>
-3.60913491

$$$$

 OpenBabel03252505163D

 19 20  0  0  0  0  0  0  0  0999 V2000
   36.2870   30.9520   40.7770 C   0  0  0  0  0  0  0  0  0  0  0  0
   37.2980   31.8760   40.4630 C   0  0  0  0  0  0  0  0  0  0  0  0
   38.5330   31.6600   41.0520 C   0  0  0  0  0  0  0  0  0  0  0  0
   38.7180   30.5870   41.8910 N   0  0  0  0  0  0  0  0  0  0  0  0
   37.7140   29.7150   42.1690 C   0  0  0  0  0  0  0  0  0  0  0  0
   36.5110   29.9110   41.6050 N   0  0  0  0  0  0  0  0  0  0  0  0
   35.3130   31.0880   40.3380 H   0  0  0  0  0  0  0  0  0  0  0  0
   37.1600   32.7190   39.8060 H   0  0  0  0  0  0  0  0  0  0  0  0
   39.6890   32.5740   40.7640 C   0  0  0  0  0  0  0  0  0  0  0  0
   39.7960   32.9710   39.3080 C   0  0  0  0  0  0  0  0  0  0  0  0
   39.4100   33.9650   40.4370 C   0  0  0  0  0  0  0  0  0  0  0  0
   40.6700   32.3310   41.2520 H   0  0  0  0  0  0  0  0  0  0  0  0
   40.8220   33.1430   38.8860 H   0  0  0  0  0  0  0  0  0  0  0  0
   39.0210   32.6390   38.6200 H   0  0  0  0  0  0  0  0  0  0  0  0
   38.3540   34.3070   40.3390 H   0  0  0  0  0  0  0  0  0  0  0  0
   40.1300   34.7860   40.6360 H   0  0  0  0  0  0  0  0  0  0  0  0
   38.0910   28.6140   43.0940 C   0  0  0  0  0  2  0  0  0  0  0  0
   36.9130   27.6990   43.3690 C   0  0  0  0  0  2  0  0  0  0  0  0
   36.9890   27.3050   44.3930 H   0  0  0  0  0  0  0  0  0  0  0  0
  1  6  1  0  0  0  0
  2  1  2  0  0  0  0
  2  3  1  0  0  0  0
  3  4  2  0  0  0  0
  4  5  1  0  0  0  0
  5 17  1  0  0  0  0
  6  5  2  0  0  0  0
  7  1  1  0  0  0  0
  8  2  1  0  0  0  0
  9  3  1  0  0  0  0
  9 12  1  0  0  0  0
 10 11  1  0  0  0  0
 10  9  1  0  0  0  0
 11 16  1  0  0  0  0
 11  9  1  0  0  0  0
 13 10  1  0  0  0  0
 14 10  1  0  0  0  0
 15 11  1  0  0  0  0
 17 18  1  0  0  0  0
 18 19  1  0  0  0  0
M  END
>  <minimizedAffinity>
-3.5706799

$$$$

 OpenBabel03252505163D

 19 20  0  0  0  0  0  0  0  0999 V2000
   38.2940   28.6240   43.2730 C   0  0  0  0  0  0  0  0  0  0  0  0
   37.2950   29.2240   42.4870 C   0  0  0  0  0  0  0  0  0  0  0  0
   36.5950   28.3830   41.6360 C   0  0  0  0  0  0  0  0  0  0  0  0
   36.8940   27.0420   41.5930 N   0  0  0  0  0  0  0  0  0  0  0  0
   37.8680   26.5010   42.3690 C   0  0  0  0  0  0  0  0  0  0  0  0
   38.5550   27.3030   43.2000 N   0  0  0  0  0  0  0  0  0  0  0  0
   38.8590   29.2460   43.9460 H   0  0  0  0  0  0  0  0  0  0  0  0
   37.0550   30.2740   42.5170 H   0  0  0  0  0  0  0  0  0  0  0  0
   35.4900   28.9170   40.7710 C   0  0  0  0  0  0  0  0  0  0  0  0
   35.9390   30.0080   39.8240 C   0  0  0  0  0  0  0  0  0  0  0  0
   35.5010   28.5950   39.3510 C   0  0  0  0  0  0  0  0  0  0  0  0
   34.4990   29.1090   41.2630 H   0  0  0  0  0  0  0  0  0  0  0  0
   35.2030   30.8170   39.5700 H   0  0  0  0  0  0  0  0  0  0  0  0
   36.9960   30.2640   39.7880 H   0  0  0  0  0  0  0  0  0  0  0  0
   36.3560   28.0230   38.9230 H   0  0  0  0  0  0  0  0  0  0  0  0
   34.5780   28.5470   38.7370 H   0  0  0  0  0  0  0  0  0  0  0  0
   38.0550   25.0370   42.1940 C   0  0  0  0  0  2  0  0  0  0  0  0
   36.8300   24.3970   41.5720 C   0  0  0  0  0  2  0  0  0  0  0  0
   36.7170   23.3720   41.9590 H   0  0  0  0  0  0  0  0  0  0  0  0
  1  7  1  0  0  0  0
  2  8  1  0  0  0  0
  2  1  2  0  0  0  0
  3  2  1  0  0  0  0
  4  3  2  0  0  0  0
  4  5  1  0  0  0  0
  5  6  2  0  0  0  0
  6  1  1  0  0  0  0
  9 12  1  0  0  0  0
  9  3  1  0  0  0  0
 10  9  1  0  0  0  0
 11 10  1  0  0  0  0
 11  9  1  0  0  0  0
 13 10  1  0  0  0  0
 14 10  1  0  0  0  0
 15 11  1  0  0  0  0
 16 11  1  0  0  0  0
 17  5  1  0  0  0  0
 18 19  1  0  0  0  0
 18 17  1  0  0  0  0
M  END
>  <minimizedAffinity>
-3.56982613

$$$$
