
 OpenBabel03252508573D

 33 34  0  0  1  0  0  0  0  0999 V2000
   48.6690   32.8530   41.0550 N   0  0  0  0  0  0  0  0  0  0  0  0
   49.8000   32.6310   41.8900 C   0  0  0  0  0  0  0  0  0  0  0  0
   50.5720   33.8290   42.3430 C   0  0  0  0  0  0  0  0  0  0  0  0
   49.7600   35.0810   42.5160 C   0  0  0  0  0  0  0  0  0  0  0  0
   48.3220   34.8540   42.2680 C   0  0  0  0  0  0  0  0  0  0  0  0
   48.1860   34.1490   40.8890 C   0  0  2  0  0  0  0  0  0  0  0  0
   50.5030   31.9180   41.4140 H   0  0  0  0  0  0  0  0  0  0  0  0
   49.4280   32.1170   42.8050 H   0  0  0  0  0  0  0  0  0  0  0  0
   51.1300   33.5280   43.2650 H   0  0  0  0  0  0  0  0  0  0  0  0
   51.3350   34.0430   41.5410 H   0  0  0  0  0  0  0  0  0  0  0  0
   50.1850   35.9500   41.9750 H   0  0  0  0  0  0  0  0  0  0  0  0
   49.8650   35.3630   43.6050 H   0  0  0  0  0  0  0  0  0  0  0  0
   47.9020   34.1950   43.0550 H   0  0  0  0  0  0  0  0  0  0  0  0
   47.8370   35.8510   42.2510 H   0  0  0  0  0  0  0  0  0  0  0  0
   48.7370   34.8410   40.2270 H   0  0  0  0  0  0  0  0  0  0  0  0
   48.5620   31.9440   39.9670 C   0  0  0  0  0  0  0  0  0  0  0  0
   47.6030   31.4150   39.9350 H   0  0  0  0  0  0  0  0  0  0  0  0
   49.3230   31.1330   40.1610 H   0  0  0  0  0  0  0  0  0  0  0  0
   48.8850   32.5930   38.6740 C   0  0  0  0  0  0  0  0  0  0  0  0
   49.1480   33.6440   38.6810 H   0  0  0  0  0  0  0  0  0  0  0  0
   48.0290   32.3310   37.9770 H   0  0  0  0  0  0  0  0  0  0  0  0
   51.0220   30.8140   36.1470 C   0  0  0  0  0  0  0  0  0  0  0  0
   49.9450   31.4650   36.7540 C   0  0  0  0  0  0  0  0  0  0  0  0
   50.0550   31.8990   38.0550 C   0  0  0  0  0  0  0  0  0  0  0  0
   51.2170   31.6700   38.6870 N   0  0  0  0  0  0  0  0  0  0  0  0
   52.2490   31.0410   38.0900 C   0  0  0  0  0  0  0  0  0  0  0  0
   52.1610   30.6100   36.8230 N   0  0  0  0  0  0  0  0  0  0  0  0
   50.9380   30.4770   35.1390 H   0  0  0  0  0  0  0  0  0  0  0  0
   49.0470   31.5920   36.1310 H   0  0  0  0  0  0  0  0  0  0  0  0
   53.1680   30.8870   38.6620 H   0  0  0  0  0  0  0  0  0  0  0  0
   46.6670   34.2460   40.7110 C   0  0  0  0  0  2  0  0  0  0  0  0
   46.0030   34.7100   42.0080 C   0  0  0  0  0  2  0  0  0  0  0  0
   46.5890   35.4950   42.5150 H   0  0  0  0  0  0  0  0  0  0  0  0
  1  2  1  0  0  0  0
  2  3  1  0  0  0  0
  2  8  1  0  0  0  0
  3  4  1  0  0  0  0
  3  9  1  0  0  0  0
  4 12  1  0  0  0  0
  5  4  1  0  0  0  0
  5 13  1  0  0  0  0
  6 15  1  6  0  0  0
  6  1  1  0  0  0  0
  6  5  1  0  0  0  0
  7  2  1  0  0  0  0
 10  3  1  0  0  0  0
 11  4  1  0  0  0  0
 14  5  1  0  0  0  0
 16 18  1  0  0  0  0
 16  1  1  0  0  0  0
 17 16  1  0  0  0  0
 19 20  1  0  0  0  0
 19 16  1  0  0  0  0
 21 19  1  0  0  0  0
 22 23  2  0  0  0  0
 22 27  1  0  0  0  0
 23 24  1  0  0  0  0
 24 19  1  0  0  0  0
 24 25  2  0  0  0  0
 26 30  1  0  0  0  0
 26 25  1  0  0  0  0
 27 26  2  0  0  0  0
 28 22  1  0  0  0  0
 29 23  1  0  0  0  0
 31  6  1  0  0  0  0
 31 32  1  0  0  0  0
 32 33  1  0  0  0  0
M  END
>  <minimizedAffinity>
-3.66050577

>  <minimizedRMSD>
6.72476101

$$$$
