
 OpenBabel03242520233D

 38 40  0  0  0  0  0  0  0  0999 V2000
   35.6440   28.9000   37.7150 C   0  0  0  0  0  0  0  0  0  0  0  0
   35.4570   29.7580   37.0460 H   0  0  0  0  0  0  0  0  0  0  0  0
   36.4900   28.2930   37.3260 H   0  0  0  0  0  0  0  0  0  0  0  0
   36.4830   28.7950   41.4100 C   0  0  0  0  0  0  0  0  0  0  0  0
   36.1160   28.3680   40.1050 C   0  0  0  0  0  0  0  0  0  0  0  0
   36.0150   29.3020   39.0940 C   0  0  0  0  0  0  0  0  0  0  0  0
   36.2860   30.6120   39.4390 N   0  0  0  0  0  0  0  0  0  0  0  0
   36.6330   30.9610   40.7070 C   0  0  0  0  0  0  0  0  0  0  0  0
   36.7300   30.0600   41.6800 N   0  0  0  0  0  0  0  0  0  0  0  0
   35.9190   27.3050   39.9250 H   0  0  0  0  0  0  0  0  0  0  0  0
   36.8130   32.0180   40.8220 H   0  0  0  0  0  0  0  0  0  0  0  0
   36.5740   27.7650   42.4920 C   0  0  0  0  0  0  0  0  0  0  0  0
   38.0420   27.1980   42.6090 C   0  0  0  0  0  0  0  0  0  0  0  0
   37.3200   27.8860   43.6790 C   0  0  0  0  0  0  0  0  0  0  0  0
   35.8120   26.9370   42.3840 H   0  0  0  0  0  0  0  0  0  0  0  0
   38.8230   27.7250   42.0640 H   0  0  0  0  0  0  0  0  0  0  0  0
   38.1250   26.0900   42.5730 H   0  0  0  0  0  0  0  0  0  0  0  0
   37.0530   27.3010   44.5710 H   0  0  0  0  0  0  0  0  0  0  0  0
   37.7350   28.8960   43.9670 H   0  0  0  0  0  0  0  0  0  0  0  0
   34.4030   28.0070   37.7620 C   0  0  0  0  0  0  0  0  0  0  0  0
   34.4240   27.4240   36.8200 H   0  0  0  0  0  0  0  0  0  0  0  0
   34.5400   27.2480   38.5770 H   0  0  0  0  0  0  0  0  0  0  0  0
   32.4640   29.0910   36.7410 C   0  0  0  0  0  0  0  0  0  0  0  0
   32.7270   28.6430   35.5920 O   0  0  0  0  0  0  0  0  0  0  0  0
   33.1890   28.7730   37.9230 N   0  0  0  0  0  0  0  0  0  0  0  0
   32.9080   29.0490   38.8730 H   0  0  0  0  0  0  0  0  0  0  0  0
   31.3240   30.0230   36.9180 C   0  0  0  0  0  0  0  0  0  0  0  0
   30.6320   30.0350   38.1130 C   0  0  0  0  0  0  0  0  0  0  0  0
   29.5620   30.8480   38.3980 C   0  0  0  0  0  0  0  0  0  0  0  0
   29.1690   31.7120   37.3830 C   0  0  0  0  0  0  0  0  0  0  0  0
   29.8750   31.6770   36.2080 C   0  0  0  0  0  0  0  0  0  0  0  0
   30.9250   30.8660   35.9540 N   0  0  0  0  0  0  0  0  0  0  0  0
   30.9800   29.3380   38.8750 H   0  0  0  0  0  0  0  0  0  0  0  0
   29.0780   30.7910   39.3650 H   0  0  0  0  0  0  0  0  0  0  0  0
   28.3430   32.3620   37.5590 H   0  0  0  0  0  0  0  0  0  0  0  0
   29.3900   32.6370   35.1670 C   0  0  0  0  0  2  0  0  0  0  0  0
   30.0640   32.3830   33.8350 C   0  0  0  0  0  2  0  0  0  0  0  0
   29.6330   31.4600   33.3710 H   0  0  0  0  0  0  0  0  0  0  0  0
  1 20  1  0  0  0  0
  1  6  1  0  0  0  0
  2  1  1  0  0  0  0
  3  1  1  0  0  0  0
  4  9  1  0  0  0  0
  4 12  1  0  0  0  0
  5  4  2  0  0  0  0
  6  7  2  0  0  0  0
  6  5  1  0  0  0  0
  7  8  1  0  0  0  0
  8 11  1  0  0  0  0
  8  9  2  0  0  0  0
 10  5  1  0  0  0  0
 12 13  1  0  0  0  0
 12 14  1  0  0  0  0
 13 14  1  0  0  0  0
 14 19  1  0  0  0  0
 14 18  1  0  0  0  0
 15 12  1  0  0  0  0
 16 13  1  0  0  0  0
 17 13  1  0  0  0  0
 20 25  1  0  0  0  0
 20 22  1  0  0  0  0
 21 20  1  0  0  0  0
 23 27  1  0  0  0  0
 23 25  1  0  0  0  0
 24 23  2  0  0  0  0
 25 26  1  0  0  0  0
 27 28  1  0  0  0  0
 28 29  2  0  0  0  0
 28 33  1  0  0  0  0
 29 34  1  0  0  0  0
 30 35  1  0  0  0  0
 30 29  1  0  0  0  0
 31 30  2  0  0  0  0
 32 31  1  0  0  0  0
 32 27  2  0  0  0  0
 36 31  1  0  0  0  0
 37 36  1  0  0  0  0
 38 37  1  0  0  0  0
M  END
>  <minimizedAffinity>
-5.34953165

$$$$

 OpenBabel03242520233D

 38 40  0  0  0  0  0  0  0  0999 V2000
   38.2480   27.5670   43.6800 C   0  0  0  0  0  0  0  0  0  0  0  0
   38.1520   26.9530   44.5930 H   0  0  0  0  0  0  0  0  0  0  0  0
   39.1480   28.2140   43.7510 H   0  0  0  0  0  0  0  0  0  0  0  0
   37.9200   24.8200   41.0880 C   0  0  0  0  0  0  0  0  0  0  0  0
   37.7460   25.5580   42.2910 C   0  0  0  0  0  0  0  0  0  0  0  0
   38.4070   26.7590   42.4460 C   0  0  0  0  0  0  0  0  0  0  0  0
   39.2080   27.1590   41.3930 N   0  0  0  0  0  0  0  0  0  0  0  0
   39.3350   26.4090   40.2650 C   0  0  0  0  0  0  0  0  0  0  0  0
   38.6970   25.2520   40.1170 N   0  0  0  0  0  0  0  0  0  0  0  0
   37.0890   25.1600   43.0730 H   0  0  0  0  0  0  0  0  0  0  0  0
   39.9920   26.8510   39.5340 H   0  0  0  0  0  0  0  0  0  0  0  0
   37.2010   23.5140   40.9490 C   0  0  0  0  0  0  0  0  0  0  0  0
   35.9000   23.6780   40.0700 C   0  0  0  0  0  0  0  0  0  0  0  0
   37.0250   22.7990   39.7500 C   0  0  0  0  0  0  0  0  0  0  0  0
   36.9760   23.0210   41.9410 H   0  0  0  0  0  0  0  0  0  0  0  0
   35.7810   24.6140   39.5280 H   0  0  0  0  0  0  0  0  0  0  0  0
   34.9660   23.2930   40.5330 H   0  0  0  0  0  0  0  0  0  0  0  0
   36.8440   21.7140   39.7670 H   0  0  0  0  0  0  0  0  0  0  0  0
   37.6240   23.0960   38.8400 H   0  0  0  0  0  0  0  0  0  0  0  0
   37.0230   28.4730   43.5400 C   0  0  0  0  0  0  0  0  0  0  0  0
   36.1810   27.7940   43.2990 H   0  0  0  0  0  0  0  0  0  0  0  0
   36.7750   28.8960   44.5490 H   0  0  0  0  0  0  0  0  0  0  0  0
   36.4130   29.4330   41.3760 C   0  0  0  0  0  0  0  0  0  0  0  0
   35.4580   28.6290   41.2070 O   0  0  0  0  0  0  0  0  0  0  0  0
   37.2200   29.5030   42.5460 N   0  0  0  0  0  0  0  0  0  0  0  0
   37.9250   30.2290   42.7290 H   0  0  0  0  0  0  0  0  0  0  0  0
   36.7580   30.3950   40.3010 C   0  0  0  0  0  0  0  0  0  0  0  0
   36.8520   29.9550   38.9950 C   0  0  0  0  0  0  0  0  0  0  0  0
   37.1640   30.7440   37.9160 C   0  0  0  0  0  0  0  0  0  0  0  0
   37.3990   32.0860   38.1930 C   0  0  0  0  0  0  0  0  0  0  0  0
   37.2990   32.4930   39.4980 C   0  0  0  0  0  0  0  0  0  0  0  0
   36.9890   31.6940   40.5420 N   0  0  0  0  0  0  0  0  0  0  0  0
   36.6590   28.8950   38.8330 H   0  0  0  0  0  0  0  0  0  0  0  0
   37.2160   30.3140   36.9240 H   0  0  0  0  0  0  0  0  0  0  0  0
   37.6440   32.7370   37.3860 H   0  0  0  0  0  0  0  0  0  0  0  0
   37.5650   33.9510   39.7130 C   0  0  0  0  0  2  0  0  0  0  0  0
   38.8380   34.1610   40.5060 C   0  0  0  0  0  2  0  0  0  0  0  0
   39.7220   33.9620   39.8500 H   0  0  0  0  0  0  0  0  0  0  0  0
  1  3  1  0  0  0  0
  1  2  1  0  0  0  0
  4  5  1  0  0  0  0
  5  6  2  0  0  0  0
  5 10  1  0  0  0  0
  6  1  1  0  0  0  0
  7  6  1  0  0  0  0
  8  7  2  0  0  0  0
  9  8  1  0  0  0  0
  9  4  2  0  0  0  0
 11  8  1  0  0  0  0
 12  4  1  0  0  0  0
 12 15  1  0  0  0  0
 13 17  1  0  0  0  0
 13 12  1  0  0  0  0
 14 18  1  0  0  0  0
 14 13  1  0  0  0  0
 14 12  1  0  0  0  0
 16 13  1  0  0  0  0
 19 14  1  0  0  0  0
 20  1  1  0  0  0  0
 20 22  1  0  0  0  0
 21 20  1  0  0  0  0
 23 25  1  0  0  0  0
 24 23  2  0  0  0  0
 25 26  1  0  0  0  0
 25 20  1  0  0  0  0
 27 32  1  0  0  0  0
 27 23  1  0  0  0  0
 28 27  2  0  0  0  0
 29 30  2  0  0  0  0
 29 28  1  0  0  0  0
 30 31  1  0  0  0  0
 31 36  1  0  0  0  0
 31 32  2  0  0  0  0
 33 28  1  0  0  0  0
 34 29  1  0  0  0  0
 35 30  1  0  0  0  0
 36 37  1  0  0  0  0
 38 37  1  0  0  0  0
M  END
>  <minimizedAffinity>
-5.28761435

$$$$

 OpenBabel03242520233D

 38 40  0  0  0  0  0  0  0  0999 V2000
   36.9500   27.7550   43.2110 C   0  0  0  0  0  0  0  0  0  0  0  0
   35.9920   27.5100   43.7030 H   0  0  0  0  0  0  0  0  0  0  0  0
   37.5580   28.4120   43.8690 H   0  0  0  0  0  0  0  0  0  0  0  0
   38.1390   24.4130   41.8760 C   0  0  0  0  0  0  0  0  0  0  0  0
   37.3050   25.5350   42.1340 C   0  0  0  0  0  0  0  0  0  0  0  0
   37.7830   26.5620   42.9220 C   0  0  0  0  0  0  0  0  0  0  0  0
   39.0670   26.4150   43.4100 N   0  0  0  0  0  0  0  0  0  0  0  0
   39.8180   25.3170   43.1280 C   0  0  0  0  0  0  0  0  0  0  0  0
   39.3570   24.3280   42.3690 N   0  0  0  0  0  0  0  0  0  0  0  0
   36.2980   25.5630   41.7030 H   0  0  0  0  0  0  0  0  0  0  0  0
   40.7980   25.3460   43.5790 H   0  0  0  0  0  0  0  0  0  0  0  0
   37.5940   23.3060   41.0270 C   0  0  0  0  0  0  0  0  0  0  0  0
   37.8480   23.5930   39.4960 C   0  0  0  0  0  0  0  0  0  0  0  0
   38.3570   22.4330   40.2300 C   0  0  0  0  0  0  0  0  0  0  0  0
   36.5070   23.0790   41.2370 H   0  0  0  0  0  0  0  0  0  0  0  0
   38.5230   24.4090   39.2480 H   0  0  0  0  0  0  0  0  0  0  0  0
   36.9470   23.5290   38.8490 H   0  0  0  0  0  0  0  0  0  0  0  0
   37.9660   21.4440   39.9510 H   0  0  0  0  0  0  0  0  0  0  0  0
   39.4780   22.4030   40.3640 H   0  0  0  0  0  0  0  0  0  0  0  0
   36.6770   28.5120   41.9100 C   0  0  0  0  0  0  0  0  0  0  0  0
   36.8620   27.7800   41.0990 H   0  0  0  0  0  0  0  0  0  0  0  0
   35.5800   28.7390   41.8520 H   0  0  0  0  0  0  0  0  0  0  0  0
   37.0320   30.7110   40.9010 C   0  0  0  0  0  0  0  0  0  0  0  0
   35.9140   30.7040   40.3180 O   0  0  0  0  0  0  0  0  0  0  0  0
   37.4900   29.7010   41.7920 N   0  0  0  0  0  0  0  0  0  0  0  0
   38.3510   29.7600   42.3510 H   0  0  0  0  0  0  0  0  0  0  0  0
   37.9710   31.8350   40.6680 C   0  0  0  0  0  0  0  0  0  0  0  0
   37.4940   33.0310   40.1700 C   0  0  0  0  0  0  0  0  0  0  0  0
   38.2600   34.1410   39.9120 C   0  0  0  0  0  0  0  0  0  0  0  0
   39.6170   34.0180   40.1830 C   0  0  0  0  0  0  0  0  0  0  0  0
   40.0620   32.8190   40.6760 C   0  0  0  0  0  0  0  0  0  0  0  0
   39.2850   31.7420   40.9220 N   0  0  0  0  0  0  0  0  0  0  0  0
   36.4230   33.0750   39.9750 H   0  0  0  0  0  0  0  0  0  0  0  0
   37.8000   35.0410   39.5210 H   0  0  0  0  0  0  0  0  0  0  0  0
   40.2510   34.8550   39.9990 H   0  0  0  0  0  0  0  0  0  0  0  0
   41.5350   32.7670   40.9420 C   0  0  0  0  0  2  0  0  0  0  0  0
   42.1660   34.1340   40.7770 C   0  0  0  0  0  2  0  0  0  0  0  0
   41.8970   34.7760   41.6530 H   0  0  0  0  0  0  0  0  0  0  0  0
  1  2  1  0  0  0  0
  1  3  1  0  0  0  0
  4  5  2  0  0  0  0
  4  9  1  0  0  0  0
  5  6  1  0  0  0  0
  6  1  1  0  0  0  0
  6  7  2  0  0  0  0
  8  7  1  0  0  0  0
  8 11  1  0  0  0  0
  9  8  2  0  0  0  0
 10  5  1  0  0  0  0
 12 15  1  0  0  0  0
 12  4  1  0  0  0  0
 13 14  1  0  0  0  0
 13 12  1  0  0  0  0
 14 19  1  0  0  0  0
 14 12  1  0  0  0  0
 16 13  1  0  0  0  0
 17 13  1  0  0  0  0
 18 14  1  0  0  0  0
 20  1  1  0  0  0  0
 21 20  1  0  0  0  0
 22 20  1  0  0  0  0
 23 25  1  0  0  0  0
 24 23  2  0  0  0  0
 25 20  1  0  0  0  0
 25 26  1  0  0  0  0
 27 23  1  0  0  0  0
 27 32  1  0  0  0  0
 28 27  2  0  0  0  0
 29 28  1  0  0  0  0
 29 30  2  0  0  0  0
 30 31  1  0  0  0  0
 31 32  2  0  0  0  0
 31 36  1  0  0  0  0
 33 28  1  0  0  0  0
 34 29  1  0  0  0  0
 35 30  1  0  0  0  0
 37 36  1  0  0  0  0
 37 38  1  0  0  0  0
M  END
>  <minimizedAffinity>
-5.21584225

$$$$

 OpenBabel03242520233D

 38 40  0  0  0  0  0  0  0  0999 V2000
   38.3040   33.7190   39.7880 C   0  0  0  0  0  0  0  0  0  0  0  0
   38.6630   34.5030   39.0970 H   0  0  0  0  0  0  0  0  0  0  0  0
   37.3170   34.0070   40.2080 H   0  0  0  0  0  0  0  0  0  0  0  0
   36.8090   30.4240   38.6610 C   0  0  0  0  0  0  0  0  0  0  0  0
   36.9540   31.6780   39.3150 C   0  0  0  0  0  0  0  0  0  0  0  0
   38.1140   32.4020   39.1320 C   0  0  0  0  0  0  0  0  0  0  0  0
   39.0680   31.8360   38.3080 N   0  0  0  0  0  0  0  0  0  0  0  0
   38.8720   30.6310   37.7080 C   0  0  0  0  0  0  0  0  0  0  0  0
   37.7540   29.9340   37.8850 N   0  0  0  0  0  0  0  0  0  0  0  0
   36.1420   32.0460   39.9520 H   0  0  0  0  0  0  0  0  0  0  0  0
   39.7040   30.3220   37.0960 H   0  0  0  0  0  0  0  0  0  0  0  0
   35.5460   29.6510   38.8840 C   0  0  0  0  0  0  0  0  0  0  0  0
   35.8500   28.2560   39.5570 C   0  0  0  0  0  0  0  0  0  0  0  0
   35.0090   29.3030   40.1380 C   0  0  0  0  0  0  0  0  0  0  0  0
   34.9220   29.5380   37.9490 H   0  0  0  0  0  0  0  0  0  0  0  0
   36.8550   28.0990   39.9440 H   0  0  0  0  0  0  0  0  0  0  0  0
   35.4170   27.3760   39.0340 H   0  0  0  0  0  0  0  0  0  0  0  0
   33.9360   29.0900   40.2470 H   0  0  0  0  0  0  0  0  0  0  0  0
   35.4230   29.7910   41.0680 H   0  0  0  0  0  0  0  0  0  0  0  0
   39.2890   33.5720   40.9500 C   0  0  0  0  0  0  0  0  0  0  0  0
   40.2950   33.6690   40.4960 H   0  0  0  0  0  0  0  0  0  0  0  0
   39.1850   34.4650   41.6210 H   0  0  0  0  0  0  0  0  0  0  0  0
   40.2450   31.4800   41.7780 C   0  0  0  0  0  0  0  0  0  0  0  0
   41.4160   31.7940   41.4320 O   0  0  0  0  0  0  0  0  0  0  0  0
   39.1080   32.3270   41.6600 N   0  0  0  0  0  0  0  0  0  0  0  0
   38.1770   32.1140   42.0430 H   0  0  0  0  0  0  0  0  0  0  0  0
   39.9880   30.1380   42.3560 C   0  0  0  0  0  0  0  0  0  0  0  0
   41.0360   29.2530   42.5190 C   0  0  0  0  0  0  0  0  0  0  0  0
   40.9260   27.9870   43.0380 C   0  0  0  0  0  0  0  0  0  0  0  0
   39.6490   27.5950   43.4190 C   0  0  0  0  0  0  0  0  0  0  0  0
   38.6290   28.4950   43.2440 C   0  0  0  0  0  0  0  0  0  0  0  0
   38.7650   29.7370   42.7300 N   0  0  0  0  0  0  0  0  0  0  0  0
   42.0170   29.6090   42.2050 H   0  0  0  0  0  0  0  0  0  0  0  0
   41.8040   27.3590   43.1310 H   0  0  0  0  0  0  0  0  0  0  0  0
   39.5150   26.6210   43.8280 H   0  0  0  0  0  0  0  0  0  0  0  0
   37.2850   27.9970   43.6790 C   0  0  0  0  0  2  0  0  0  0  0  0
   36.8380   26.8250   42.8320 C   0  0  0  0  0  2  0  0  0  0  0  0
   37.4160   25.9130   43.1250 H   0  0  0  0  0  0  0  0  0  0  0  0
  1  3  1  0  0  0  0
  1 20  1  0  0  0  0
  2  1  1  0  0  0  0
  4 12  1  0  0  0  0
  4  5  1  0  0  0  0
  5 10  1  0  0  0  0
  6  5  2  0  0  0  0
  6  1  1  0  0  0  0
  7  6  1  0  0  0  0
  8  9  1  0  0  0  0
  8  7  2  0  0  0  0
  9  4  2  0  0  0  0
 11  8  1  0  0  0  0
 12 13  1  0  0  0  0
 12 14  1  0  0  0  0
 13 16  1  0  0  0  0
 13 14  1  0  0  0  0
 14 18  1  0  0  0  0
 14 19  1  0  0  0  0
 15 12  1  0  0  0  0
 17 13  1  0  0  0  0
 20 22  1  0  0  0  0
 20 25  1  0  0  0  0
 21 20  1  0  0  0  0
 23 27  1  0  0  0  0
 24 23  2  0  0  0  0
 25 23  1  0  0  0  0
 25 26  1  0  0  0  0
 27 28  2  0  0  0  0
 27 32  1  0  0  0  0
 28 29  1  0  0  0  0
 29 34  1  0  0  0  0
 29 30  2  0  0  0  0
 30 35  1  0  0  0  0
 31 30  1  0  0  0  0
 31 36  1  0  0  0  0
 32 31  2  0  0  0  0
 33 28  1  0  0  0  0
 37 38  1  0  0  0  0
 37 36  1  0  0  0  0
M  END
>  <minimizedAffinity>
-5.18974972

$$$$

 OpenBabel03242520233D

 38 40  0  0  0  0  0  0  0  0999 V2000
   36.6500   31.1020   39.7360 C   0  0  0  0  0  0  0  0  0  0  0  0
   35.7930   31.4960   39.1610 H   0  0  0  0  0  0  0  0  0  0  0  0
   37.0200   30.1640   39.2700 H   0  0  0  0  0  0  0  0  0  0  0  0
   40.1190   32.5810   39.3610 C   0  0  0  0  0  0  0  0  0  0  0  0
   39.0430   31.6540   39.3080 C   0  0  0  0  0  0  0  0  0  0  0  0
   37.8030   32.0340   39.7800 C   0  0  0  0  0  0  0  0  0  0  0  0
   37.7040   33.3180   40.2810 N   0  0  0  0  0  0  0  0  0  0  0  0
   38.7710   34.1610   40.3050 C   0  0  0  0  0  0  0  0  0  0  0  0
   39.9650   33.7940   39.8490 N   0  0  0  0  0  0  0  0  0  0  0  0
   39.2170   30.6540   38.8930 H   0  0  0  0  0  0  0  0  0  0  0  0
   38.5390   35.1270   40.7240 H   0  0  0  0  0  0  0  0  0  0  0  0
   41.4570   32.1410   38.8530 C   0  0  0  0  0  0  0  0  0  0  0  0
   41.7200   32.7000   37.4000 C   0  0  0  0  0  0  0  0  0  0  0  0
   42.5460   32.9880   38.5730 C   0  0  0  0  0  0  0  0  0  0  0  0
   41.6080   31.0220   38.9050 H   0  0  0  0  0  0  0  0  0  0  0  0
   41.0350   33.4600   37.0280 H   0  0  0  0  0  0  0  0  0  0  0  0
   42.0130   31.9370   36.6470 H   0  0  0  0  0  0  0  0  0  0  0  0
   43.5740   32.5970   38.5790 H   0  0  0  0  0  0  0  0  0  0  0  0
   42.5170   34.0580   38.9320 H   0  0  0  0  0  0  0  0  0  0  0  0
   36.2020   30.7780   41.1630 C   0  0  0  0  0  0  0  0  0  0  0  0
   36.7230   31.5130   41.8080 H   0  0  0  0  0  0  0  0  0  0  0  0
   35.1120   31.0240   41.2600 H   0  0  0  0  0  0  0  0  0  0  0  0
   37.6850   29.1720   42.2590 C   0  0  0  0  0  0  0  0  0  0  0  0
   38.4310   30.0720   42.7300 O   0  0  0  0  0  0  0  0  0  0  0  0
   36.4900   29.4080   41.5230 N   0  0  0  0  0  0  0  0  0  0  0  0
   35.8260   28.6780   41.2360 H   0  0  0  0  0  0  0  0  0  0  0  0
   38.0420   27.7460   42.4610 C   0  0  0  0  0  0  0  0  0  0  0  0
   39.1590   27.4220   43.2060 C   0  0  0  0  0  0  0  0  0  0  0  0
   39.5930   26.1440   43.4620 C   0  0  0  0  0  0  0  0  0  0  0  0
   38.8280   25.1220   42.9160 C   0  0  0  0  0  0  0  0  0  0  0  0
   37.7250   25.4750   42.1810 C   0  0  0  0  0  0  0  0  0  0  0  0
   37.3200   26.7420   41.9440 N   0  0  0  0  0  0  0  0  0  0  0  0
   39.7250   28.2600   43.6110 H   0  0  0  0  0  0  0  0  0  0  0  0
   40.4830   25.9820   44.0580 H   0  0  0  0  0  0  0  0  0  0  0  0
   39.1260   24.1140   43.0890 H   0  0  0  0  0  0  0  0  0  0  0  0
   36.9540   24.3170   41.6270 C   0  0  0  0  0  2  0  0  0  0  0  0
   37.8830   23.2760   41.0380 C   0  0  0  0  0  2  0  0  0  0  0  0
   38.3850   22.7150   41.8660 H   0  0  0  0  0  0  0  0  0  0  0  0
  1  6  1  0  0  0  0
  1 20  1  0  0  0  0
  2  1  1  0  0  0  0
  3  1  1  0  0  0  0
  4  9  1  0  0  0  0
  5  4  2  0  0  0  0
  5  6  1  0  0  0  0
  6  7  2  0  0  0  0
  7  8  1  0  0  0  0
  8 11  1  0  0  0  0
  9  8  2  0  0  0  0
 10  5  1  0  0  0  0
 12 15  1  0  0  0  0
 12  4  1  0  0  0  0
 13 14  1  0  0  0  0
 13 12  1  0  0  0  0
 14 18  1  0  0  0  0
 14 12  1  0  0  0  0
 14 19  1  0  0  0  0
 16 13  1  0  0  0  0
 17 13  1  0  0  0  0
 20 22  1  0  0  0  0
 20 25  1  0  0  0  0
 20 21  1  0  0  0  0
 23 27  1  0  0  0  0
 23 24  2  0  0  0  0
 25 23  1  0  0  0  0
 26 25  1  0  0  0  0
 27 28  1  0  0  0  0
 28 29  2  0  0  0  0
 28 33  1  0  0  0  0
 29 34  1  0  0  0  0
 30 35  1  0  0  0  0
 30 29  1  0  0  0  0
 31 30  2  0  0  0  0
 32 31  1  0  0  0  0
 32 27  2  0  0  0  0
 36 31  1  0  0  0  0
 37 36  1  0  0  0  0
 37 38  1  0  0  0  0
M  END
>  <minimizedAffinity>
-5.18888712

$$$$

 OpenBabel03242520233D

 38 40  0  0  0  0  0  0  0  0999 V2000
   35.8030   27.5460   37.5130 C   0  0  0  0  0  0  0  0  0  0  0  0
   36.0240   28.2220   36.6670 H   0  0  0  0  0  0  0  0  0  0  0  0
   36.5160   26.6940   37.5120 H   0  0  0  0  0  0  0  0  0  0  0  0
   36.4440   28.1550   41.1990 C   0  0  0  0  0  0  0  0  0  0  0  0
   36.3210   27.4850   39.9510 C   0  0  0  0  0  0  0  0  0  0  0  0
   35.9350   28.2020   38.8370 C   0  0  0  0  0  0  0  0  0  0  0  0
   35.6900   29.5490   39.0280 N   0  0  0  0  0  0  0  0  0  0  0  0
   35.8250   30.1350   40.2480 C   0  0  0  0  0  0  0  0  0  0  0  0
   36.1970   29.4430   41.3200 N   0  0  0  0  0  0  0  0  0  0  0  0
   36.5360   26.4120   39.8960 H   0  0  0  0  0  0  0  0  0  0  0  0
   35.6000   31.1890   40.2390 H   0  0  0  0  0  0  0  0  0  0  0  0
   36.8530   27.3530   42.3950 C   0  0  0  0  0  0  0  0  0  0  0  0
   38.3120   27.7380   42.8590 C   0  0  0  0  0  0  0  0  0  0  0  0
   37.1070   27.8690   43.6800 C   0  0  0  0  0  0  0  0  0  0  0  0
   36.7420   26.2390   42.2430 H   0  0  0  0  0  0  0  0  0  0  0  0
   38.7570   28.6270   42.4150 H   0  0  0  0  0  0  0  0  0  0  0  0
   39.0120   26.8830   42.9740 H   0  0  0  0  0  0  0  0  0  0  0  0
   37.0240   27.2250   44.5680 H   0  0  0  0  0  0  0  0  0  0  0  0
   36.8000   28.9290   43.9180 H   0  0  0  0  0  0  0  0  0  0  0  0
   34.3890   26.9820   37.3630 C   0  0  0  0  0  0  0  0  0  0  0  0
   34.4290   26.3230   36.4720 H   0  0  0  0  0  0  0  0  0  0  0  0
   34.1860   26.2940   38.2250 H   0  0  0  0  0  0  0  0  0  0  0  0
   33.0630   28.4570   35.9320 C   0  0  0  0  0  0  0  0  0  0  0  0
   33.4630   27.9070   34.8710 O   0  0  0  0  0  0  0  0  0  0  0  0
   33.3980   28.0270   37.2470 N   0  0  0  0  0  0  0  0  0  0  0  0
   32.9850   28.4060   38.1090 H   0  0  0  0  0  0  0  0  0  0  0  0
   32.1780   29.6450   35.8520 C   0  0  0  0  0  0  0  0  0  0  0  0
   32.0940   30.3540   34.6690 C   0  0  0  0  0  0  0  0  0  0  0  0
   31.3140   31.4660   34.4700 C   0  0  0  0  0  0  0  0  0  0  0  0
   30.5650   31.8870   35.5630 C   0  0  0  0  0  0  0  0  0  0  0  0
   30.6710   31.1630   36.7230 C   0  0  0  0  0  0  0  0  0  0  0  0
   31.4460   30.0700   36.8910 N   0  0  0  0  0  0  0  0  0  0  0  0
   32.7000   29.9830   33.8440 H   0  0  0  0  0  0  0  0  0  0  0  0
   31.3080   31.9610   33.5070 H   0  0  0  0  0  0  0  0  0  0  0  0
   29.9450   32.7460   35.4550 H   0  0  0  0  0  0  0  0  0  0  0  0
   29.8330   31.6800   37.8520 C   0  0  0  0  0  2  0  0  0  0  0  0
   29.2630   30.5420   38.6720 C   0  0  0  0  0  2  0  0  0  0  0  0
   30.0730   30.0970   39.3030 H   0  0  0  0  0  0  0  0  0  0  0  0
  1  6  1  0  0  0  0
  2  1  1  0  0  0  0
  3  1  1  0  0  0  0
  4  9  1  0  0  0  0
  4 12  1  0  0  0  0
  5  4  2  0  0  0  0
  6  7  2  0  0  0  0
  6  5  1  0  0  0  0
  7  8  1  0  0  0  0
  8  9  2  0  0  0  0
 10  5  1  0  0  0  0
 11  8  1  0  0  0  0
 12 13  1  0  0  0  0
 12 14  1  0  0  0  0
 13 17  1  0  0  0  0
 13 14  1  0  0  0  0
 14 19  1  0  0  0  0
 14 18  1  0  0  0  0
 15 12  1  0  0  0  0
 16 13  1  0  0  0  0
 20  1  1  0  0  0  0
 20 22  1  0  0  0  0
 21 20  1  0  0  0  0
 23 25  1  0  0  0  0
 24 23  2  0  0  0  0
 25 20  1  0  0  0  0
 25 26  1  0  0  0  0
 27 23  1  0  0  0  0
 27 32  1  0  0  0  0
 28 27  2  0  0  0  0
 29 28  1  0  0  0  0
 29 30  2  0  0  0  0
 30 31  1  0  0  0  0
 31 32  2  0  0  0  0
 31 36  1  0  0  0  0
 33 28  1  0  0  0  0
 34 29  1  0  0  0  0
 35 30  1  0  0  0  0
 36 37  1  0  0  0  0
 37 38  1  0  0  0  0
M  END
>  <minimizedAffinity>
-5.15894222

$$$$

 OpenBabel03242520233D

 38 40  0  0  0  0  0  0  0  0999 V2000
   36.5860   27.2120   43.0030 C   0  0  0  0  0  0  0  0  0  0  0  0
   35.9780   27.4260   42.1060 H   0  0  0  0  0  0  0  0  0  0  0  0
   35.9480   26.7660   43.7960 H   0  0  0  0  0  0  0  0  0  0  0  0
   39.9460   25.4580   43.0600 C   0  0  0  0  0  0  0  0  0  0  0  0
   38.9270   26.4150   43.3200 C   0  0  0  0  0  0  0  0  0  0  0  0
   37.6820   26.2440   42.7510 C   0  0  0  0  0  0  0  0  0  0  0  0
   37.5190   25.1280   41.9520 N   0  0  0  0  0  0  0  0  0  0  0  0
   38.5330   24.2460   41.7400 C   0  0  0  0  0  0  0  0  0  0  0  0
   39.7330   24.4120   42.2890 N   0  0  0  0  0  0  0  0  0  0  0  0
   39.1490   27.2700   43.9680 H   0  0  0  0  0  0  0  0  0  0  0  0
   38.2550   23.4280   41.0960 H   0  0  0  0  0  0  0  0  0  0  0  0
   41.2920   25.6720   43.6790 C   0  0  0  0  0  0  0  0  0  0  0  0
   42.4260   25.6590   42.5820 C   0  0  0  0  0  0  0  0  0  0  0  0
   42.1250   26.7860   43.4660 C   0  0  0  0  0  0  0  0  0  0  0  0
   41.5150   24.9510   44.5210 H   0  0  0  0  0  0  0  0  0  0  0  0
   42.1110   25.6960   41.5410 H   0  0  0  0  0  0  0  0  0  0  0  0
   43.2690   24.9630   42.7820 H   0  0  0  0  0  0  0  0  0  0  0  0
   42.8850   27.0670   44.2080 H   0  0  0  0  0  0  0  0  0  0  0  0
   41.7010   27.6990   42.9540 H   0  0  0  0  0  0  0  0  0  0  0  0
   37.1740   28.5150   43.5470 C   0  0  0  0  0  0  0  0  0  0  0  0
   36.5700   28.7590   44.4430 H   0  0  0  0  0  0  0  0  0  0  0  0
   38.2040   28.3070   43.9380 H   0  0  0  0  0  0  0  0  0  0  0  0
   38.4250   30.1110   42.1800 C   0  0  0  0  0  0  0  0  0  0  0  0
   39.5430   29.6530   42.5400 O   0  0  0  0  0  0  0  0  0  0  0  0
   37.1650   29.5690   42.5570 N   0  0  0  0  0  0  0  0  0  0  0  0
   36.2590   29.8730   42.1770 H   0  0  0  0  0  0  0  0  0  0  0  0
   38.3720   31.3040   41.3000 C   0  0  0  0  0  0  0  0  0  0  0  0
   37.2180   31.5820   40.5950 C   0  0  0  0  0  0  0  0  0  0  0  0
   37.0470   32.6510   39.7500 C   0  0  0  0  0  0  0  0  0  0  0  0
   38.1390   33.4990   39.6160 C   0  0  0  0  0  0  0  0  0  0  0  0
   39.2710   33.1980   40.3280 C   0  0  0  0  0  0  0  0  0  0  0  0
   39.4120   32.1380   41.1530 N   0  0  0  0  0  0  0  0  0  0  0  0
   36.3920   30.8860   40.7350 H   0  0  0  0  0  0  0  0  0  0  0  0
   36.1040   32.7920   39.2360 H   0  0  0  0  0  0  0  0  0  0  0  0
   38.0520   34.3430   38.9710 H   0  0  0  0  0  0  0  0  0  0  0  0
   40.4010   34.1600   40.1290 C   0  0  0  0  0  2  0  0  0  0  0  0
   41.7020   33.5880   40.6510 C   0  0  0  0  0  2  0  0  0  0  0  0
   42.0730   32.8030   39.9450 H   0  0  0  0  0  0  0  0  0  0  0  0
  1 20  1  0  0  0  0
  1  3  1  0  0  0  0
  2  1  1  0  0  0  0
  4  5  1  0  0  0  0
  4 12  1  0  0  0  0
  5 10  1  0  0  0  0
  6  1  1  0  0  0  0
  6  5  2  0  0  0  0
  7  6  1  0  0  0  0
  8  7  2  0  0  0  0
  8  9  1  0  0  0  0
  9  4  2  0  0  0  0
 11  8  1  0  0  0  0
 12 15  1  0  0  0  0
 13 17  1  0  0  0  0
 13 14  1  0  0  0  0
 13 12  1  0  0  0  0
 14 12  1  0  0  0  0
 14 18  1  0  0  0  0
 16 13  1  0  0  0  0
 19 14  1  0  0  0  0
 20 22  1  0  0  0  0
 20 21  1  0  0  0  0
 23 24  2  0  0  0  0
 23 25  1  0  0  0  0
 25 20  1  0  0  0  0
 26 25  1  0  0  0  0
 27 23  1  0  0  0  0
 28 33  1  0  0  0  0
 28 27  2  0  0  0  0
 29 28  1  0  0  0  0
 30 29  2  0  0  0  0
 30 31  1  0  0  0  0
 31 32  2  0  0  0  0
 32 27  1  0  0  0  0
 34 29  1  0  0  0  0
 35 30  1  0  0  0  0
 36 31  1  0  0  0  0
 36 37  1  0  0  0  0
 38 37  1  0  0  0  0
M  END
>  <minimizedAffinity>
-5.11066341

$$$$

 OpenBabel03242520233D

 38 40  0  0  0  0  0  0  0  0999 V2000
   36.3240   29.6560   37.0330 C   0  0  0  0  0  0  0  0  0  0  0  0
   35.3270   29.2530   36.7800 H   0  0  0  0  0  0  0  0  0  0  0  0
   36.5890   30.4780   36.3340 H   0  0  0  0  0  0  0  0  0  0  0  0
   37.1630   31.8860   39.9800 C   0  0  0  0  0  0  0  0  0  0  0  0
   37.1290   31.3670   38.6570 C   0  0  0  0  0  0  0  0  0  0  0  0
   36.3950   30.2270   38.4000 C   0  0  0  0  0  0  0  0  0  0  0  0
   35.7340   29.6670   39.4760 N   0  0  0  0  0  0  0  0  0  0  0  0
   35.8040   30.2100   40.7210 C   0  0  0  0  0  0  0  0  0  0  0  0
   36.5120   31.3080   40.9680 N   0  0  0  0  0  0  0  0  0  0  0  0
   37.6870   31.8810   37.8660 H   0  0  0  0  0  0  0  0  0  0  0  0
   35.2370   29.6610   41.4560 H   0  0  0  0  0  0  0  0  0  0  0  0
   37.9760   33.1170   40.2370 C   0  0  0  0  0  0  0  0  0  0  0  0
   39.3310   32.7560   40.9630 C   0  0  0  0  0  0  0  0  0  0  0  0
   39.2250   33.4090   39.6570 C   0  0  0  0  0  0  0  0  0  0  0  0
   37.4060   33.9210   40.7890 H   0  0  0  0  0  0  0  0  0  0  0  0
   39.6020   31.7030   41.0150 H   0  0  0  0  0  0  0  0  0  0  0  0
   39.5350   33.3290   41.8920 H   0  0  0  0  0  0  0  0  0  0  0  0
   39.5770   34.4480   39.5790 H   0  0  0  0  0  0  0  0  0  0  0  0
   39.5830   32.7930   38.7810 H   0  0  0  0  0  0  0  0  0  0  0  0
   37.3740   28.5530   36.8870 C   0  0  0  0  0  0  0  0  0  0  0  0
   37.0140   27.9130   36.0570 H   0  0  0  0  0  0  0  0  0  0  0  0
   38.3250   29.0130   36.5080 H   0  0  0  0  0  0  0  0  0  0  0  0
   36.7970   26.6420   38.2990 C   0  0  0  0  0  0  0  0  0  0  0  0
   36.0640   26.1190   37.4160 O   0  0  0  0  0  0  0  0  0  0  0  0
   37.5700   27.8230   38.1190 N   0  0  0  0  0  0  0  0  0  0  0  0
   38.2500   28.1870   38.7980 H   0  0  0  0  0  0  0  0  0  0  0  0
   36.8880   26.0140   39.6390 C   0  0  0  0  0  0  0  0  0  0  0  0
   36.5320   24.6890   39.7980 C   0  0  0  0  0  0  0  0  0  0  0  0
   36.5720   23.9980   40.9840 C   0  0  0  0  0  0  0  0  0  0  0  0
   37.0080   24.7150   42.0910 C   0  0  0  0  0  0  0  0  0  0  0  0
   37.3530   26.0290   41.9030 C   0  0  0  0  0  0  0  0  0  0  0  0
   37.3050   26.6850   40.7230 N   0  0  0  0  0  0  0  0  0  0  0  0
   36.1980   24.1720   38.8990 H   0  0  0  0  0  0  0  0  0  0  0  0
   36.2750   22.9570   41.0160 H   0  0  0  0  0  0  0  0  0  0  0  0
   37.0550   24.2200   43.0330 H   0  0  0  0  0  0  0  0  0  0  0  0
   37.8120   26.7310   43.1430 C   0  0  0  0  0  2  0  0  0  0  0  0
   36.7540   27.6890   43.6490 C   0  0  0  0  0  2  0  0  0  0  0  0
   35.9250   27.1090   44.1270 H   0  0  0  0  0  0  0  0  0  0  0  0
  1  6  1  0  0  0  0
  2  1  1  0  0  0  0
  3  1  1  0  0  0  0
  4 12  1  0  0  0  0
  4  9  1  0  0  0  0
  5  4  2  0  0  0  0
  6  5  1  0  0  0  0
  6  7  2  0  0  0  0
  7  8  1  0  0  0  0
  8  9  2  0  0  0  0
  8 11  1  0  0  0  0
 10  5  1  0  0  0  0
 12 15  1  0  0  0  0
 12 13  1  0  0  0  0
 13 16  1  0  0  0  0
 13 17  1  0  0  0  0
 14 12  1  0  0  0  0
 14 13  1  0  0  0  0
 18 14  1  0  0  0  0
 19 14  1  0  0  0  0
 20  1  1  0  0  0  0
 20 25  1  0  0  0  0
 21 20  1  0  0  0  0
 22 20  1  0  0  0  0
 23 27  1  0  0  0  0
 24 23  2  0  0  0  0
 25 23  1  0  0  0  0
 25 26  1  0  0  0  0
 27 28  2  0  0  0  0
 27 32  1  0  0  0  0
 28 29  1  0  0  0  0
 29 34  1  0  0  0  0
 29 30  2  0  0  0  0
 30 35  1  0  0  0  0
 31 30  1  0  0  0  0
 31 36  1  0  0  0  0
 32 31  2  0  0  0  0
 33 28  1  0  0  0  0
 36 37  1  0  0  0  0
 37 38  1  0  0  0  0
M  END
>  <minimizedAffinity>
-5.10043335

$$$$

 OpenBabel03242520233D

 38 40  0  0  0  0  0  0  0  0999 V2000
   37.4300   30.7880   37.2480 C   0  0  0  0  0  0  0  0  0  0  0  0
   37.0040   31.2920   36.3620 H   0  0  0  0  0  0  0  0  0  0  0  0
   38.2410   30.0960   36.9370 H   0  0  0  0  0  0  0  0  0  0  0  0
   39.9310   32.8360   39.2260 C   0  0  0  0  0  0  0  0  0  0  0  0
   39.3970   31.9180   38.2810 C   0  0  0  0  0  0  0  0  0  0  0  0
   38.0310   31.7300   38.2240 C   0  0  0  0  0  0  0  0  0  0  0  0
   37.2720   32.4660   39.1120 N   0  0  0  0  0  0  0  0  0  0  0  0
   37.8410   33.3310   39.9940 C   0  0  0  0  0  0  0  0  0  0  0  0
   39.1560   33.5120   40.0490 N   0  0  0  0  0  0  0  0  0  0  0  0
   40.0790   31.3770   37.6160 H   0  0  0  0  0  0  0  0  0  0  0  0
   37.1200   33.8330   40.6210 H   0  0  0  0  0  0  0  0  0  0  0  0
   41.4170   33.0150   39.2770 C   0  0  0  0  0  0  0  0  0  0  0  0
   41.8810   34.1580   38.2930 C   0  0  0  0  0  0  0  0  0  0  0  0
   42.0890   34.1610   39.7410 C   0  0  0  0  0  0  0  0  0  0  0  0
   41.9870   32.0550   39.1040 H   0  0  0  0  0  0  0  0  0  0  0  0
   41.1060   34.7880   37.8620 H   0  0  0  0  0  0  0  0  0  0  0  0
   42.6870   33.8710   37.5840 H   0  0  0  0  0  0  0  0  0  0  0  0
   43.1240   34.0930   40.1070 H   0  0  0  0  0  0  0  0  0  0  0  0
   41.5100   34.9470   40.3090 H   0  0  0  0  0  0  0  0  0  0  0  0
   36.3430   29.9630   37.9390 C   0  0  0  0  0  0  0  0  0  0  0  0
   35.6060   30.7020   38.3130 H   0  0  0  0  0  0  0  0  0  0  0  0
   35.7930   29.3730   37.1600 H   0  0  0  0  0  0  0  0  0  0  0  0
   36.2330   29.1760   40.2510 C   0  0  0  0  0  0  0  0  0  0  0  0
   35.1560   29.7880   40.4850 O   0  0  0  0  0  0  0  0  0  0  0  0
   36.8810   29.1250   38.9860 N   0  0  0  0  0  0  0  0  0  0  0  0
   37.6970   28.5380   38.7690 H   0  0  0  0  0  0  0  0  0  0  0  0
   36.9100   28.4430   41.3490 C   0  0  0  0  0  0  0  0  0  0  0  0
   37.3280   29.1300   42.4720 C   0  0  0  0  0  0  0  0  0  0  0  0
   37.9650   28.5670   43.5500 C   0  0  0  0  0  0  0  0  0  0  0  0
   38.1920   27.1980   43.4750 C   0  0  0  0  0  0  0  0  0  0  0  0
   37.7660   26.5430   42.3480 C   0  0  0  0  0  0  0  0  0  0  0  0
   37.1410   27.1230   41.3000 N   0  0  0  0  0  0  0  0  0  0  0  0
   37.1260   30.2010   42.4810 H   0  0  0  0  0  0  0  0  0  0  0  0
   38.2580   29.1830   44.3920 H   0  0  0  0  0  0  0  0  0  0  0  0
   38.6830   26.7170   44.2890 H   0  0  0  0  0  0  0  0  0  0  0  0
   38.0470   25.0730   42.3430 C   0  0  0  0  0  2  0  0  0  0  0  0
   36.9600   24.3120   41.6140 C   0  0  0  0  0  2  0  0  0  0  0  0
   37.0730   24.4700   40.5110 H   0  0  0  0  0  0  0  0  0  0  0  0
  1 20  1  0  0  0  0
  1  6  1  0  0  0  0
  2  1  1  0  0  0  0
  3  1  1  0  0  0  0
  4 12  1  0  0  0  0
  4  9  1  0  0  0  0
  5  4  2  0  0  0  0
  6  5  1  0  0  0  0
  6  7  2  0  0  0  0
  7  8  1  0  0  0  0
  8  9  2  0  0  0  0
  8 11  1  0  0  0  0
 10  5  1  0  0  0  0
 12 14  1  0  0  0  0
 13 12  1  0  0  0  0
 13 14  1  0  0  0  0
 14 18  1  0  0  0  0
 14 19  1  0  0  0  0
 15 12  1  0  0  0  0
 16 13  1  0  0  0  0
 17 13  1  0  0  0  0
 20 21  1  0  0  0  0
 20 25  1  0  0  0  0
 22 20  1  0  0  0  0
 23 24  2  0  0  0  0
 23 27  1  0  0  0  0
 25 23  1  0  0  0  0
 26 25  1  0  0  0  0
 27 28  1  0  0  0  0
 28 33  1  0  0  0  0
 28 29  2  0  0  0  0
 29 34  1  0  0  0  0
 30 29  1  0  0  0  0
 30 35  1  0  0  0  0
 31 30  2  0  0  0  0
 32 27  2  0  0  0  0
 32 31  1  0  0  0  0
 36 31  1  0  0  0  0
 37 36  1  0  0  0  0
 38 37  1  0  0  0  0
M  END
>  <minimizedAffinity>
-5.07308245

$$$$
