
 OpenBabel03242519143D

 29 30  0  0  0  0  0  0  0  0999 V2000
   37.5830   27.8070   43.4940 C   0  0  0  0  0  0  0  0  0  0  0  0
   37.3350   27.8710   44.5680 H   0  0  0  0  0  0  0  0  0  0  0  0
   36.7010   27.4060   42.9300 H   0  0  0  0  0  0  0  0  0  0  0  0
   36.7520   25.2340   42.2580 Cl  0  0  0  0  0  0  0  0  0  0  0  0
   38.4110   25.5590   42.7360 C   0  0  0  0  0  0  0  0  0  0  0  0
   38.6570   26.7890   43.2960 C   0  0  0  0  0  0  0  0  0  0  0  0
   39.9530   27.0610   43.6780 C   0  0  0  0  0  0  0  0  0  0  0  0
   40.9630   26.1390   43.5060 C   0  0  0  0  0  0  0  0  0  0  0  0
   40.6840   24.8780   42.9260 C   0  0  0  0  0  0  0  0  0  0  0  0
   39.3870   24.6150   42.5480 C   0  0  0  0  0  0  0  0  0  0  0  0
   40.2290   28.0150   44.1290 H   0  0  0  0  0  0  0  0  0  0  0  0
   41.9970   26.3370   43.8010 H   0  0  0  0  0  0  0  0  0  0  0  0
   41.4580   24.1330   42.7790 H   0  0  0  0  0  0  0  0  0  0  0  0
   39.0040   23.4060   41.9680 O   0  0  0  0  0  0  0  0  0  0  0  0
   39.5260   22.9890   41.1840 H   0  0  0  0  0  0  0  0  0  0  0  0
   37.9270   29.1560   42.9700 C   0  0  0  0  0  0  0  0  0  0  0  0
   37.6560   29.9120   43.7540 H   0  0  0  0  0  0  0  0  0  0  0  0
   39.0160   29.2420   42.7920 H   0  0  0  0  0  0  0  0  0  0  0  0
   37.1540   29.4560   41.7790 C   0  0  0  0  0  0  0  0  0  0  0  0
   36.0830   28.6780   41.4090 C   0  0  0  0  0  0  0  0  0  0  0  0
   35.3120   28.9350   40.2670 C   0  0  0  0  0  0  0  0  0  0  0  0
   35.7040   30.0170   39.5470 N   0  0  0  0  0  0  0  0  0  0  0  0
   36.7640   30.7790   39.9210 C   0  0  0  0  0  0  0  0  0  0  0  0
   37.4760   30.5150   41.0050 N   0  0  0  0  0  0  0  0  0  0  0  0
   35.7530   27.8090   41.9700 H   0  0  0  0  0  0  0  0  0  0  0  0
   34.4750   28.3410   39.9640 H   0  0  0  0  0  0  0  0  0  0  0  0
   37.1200   31.9630   39.0530 C   0  0  0  0  0  2  0  0  0  0  0  0
   37.5460   33.1330   39.8990 C   0  0  0  0  0  2  0  0  0  0  0  0
   38.2060   33.7720   39.2760 H   0  0  0  0  0  0  0  0  0  0  0  0
  1  2  1  0  0  0  0
  3  1  1  0  0  0  0
  4  5  1  0  0  0  0
  5  6  1  0  0  0  0
  6  1  1  0  0  0  0
  6  7  2  0  0  0  0
  7 11  1  0  0  0  0
  8  7  1  0  0  0  0
  8 12  1  0  0  0  0
  9  8  2  0  0  0  0
 10  5  2  0  0  0  0
 10  9  1  0  0  0  0
 13  9  1  0  0  0  0
 14 10  1  0  0  0  0
 15 14  1  0  0  0  0
 16  1  1  0  0  0  0
 16 17  1  0  0  0  0
 18 16  1  0  0  0  0
 19 16  1  0  0  0  0
 20 19  1  0  0  0  0
 20 25  1  0  0  0  0
 21 20  2  0  0  0  0
 22 23  2  0  0  0  0
 22 21  1  0  0  0  0
 23 24  1  0  0  0  0
 24 19  2  0  0  0  0
 26 21  1  0  0  0  0
 27 28  1  0  0  0  0
 27 23  1  0  0  0  0
 29 28  1  0  0  0  0
M  END
>  <minimizedAffinity>
-5.37739325

$$$$

 OpenBabel03242519143D

 29 30  0  0  0  0  0  0  0  0999 V2000
   37.1620   28.4490   42.5260 C   0  0  0  0  0  0  0  0  0  0  0  0
   37.0910   27.7180   41.7010 H   0  0  0  0  0  0  0  0  0  0  0  0
   36.1310   28.7200   42.8750 H   0  0  0  0  0  0  0  0  0  0  0  0
   35.4590   30.0000   40.6470 Cl  0  0  0  0  0  0  0  0  0  0  0  0
   37.0580   30.5380   41.1350 C   0  0  0  0  0  0  0  0  0  0  0  0
   37.7370   29.7250   42.0090 C   0  0  0  0  0  0  0  0  0  0  0  0
   38.9940   30.1310   42.4020 C   0  0  0  0  0  0  0  0  0  0  0  0
   39.5490   31.3050   41.9390 C   0  0  0  0  0  0  0  0  0  0  0  0
   38.8290   32.1260   41.0380 C   0  0  0  0  0  0  0  0  0  0  0  0
   37.5740   31.7120   40.6510 C   0  0  0  0  0  0  0  0  0  0  0  0
   39.5970   29.5420   43.0940 H   0  0  0  0  0  0  0  0  0  0  0  0
   40.5440   31.6440   42.2400 H   0  0  0  0  0  0  0  0  0  0  0  0
   39.2390   33.0540   40.6570 H   0  0  0  0  0  0  0  0  0  0  0  0
   36.7800   32.4440   39.7690 O   0  0  0  0  0  0  0  0  0  0  0  0
   36.6260   33.4560   39.8880 H   0  0  0  0  0  0  0  0  0  0  0  0
   37.9230   27.8610   43.6620 C   0  0  0  0  0  0  0  0  0  0  0  0
   38.6990   28.6070   43.9820 H   0  0  0  0  0  0  0  0  0  0  0  0
   37.2590   27.6830   44.5290 H   0  0  0  0  0  0  0  0  0  0  0  0
   38.6140   26.6550   43.2460 C   0  0  0  0  0  0  0  0  0  0  0  0
   39.8890   26.3780   43.6790 C   0  0  0  0  0  0  0  0  0  0  0  0
   40.5900   25.2250   43.3000 C   0  0  0  0  0  0  0  0  0  0  0  0
   39.9120   24.3950   42.4680 N   0  0  0  0  0  0  0  0  0  0  0  0
   38.6530   24.6770   42.0450 C   0  0  0  0  0  0  0  0  0  0  0  0
   38.0120   25.7740   42.4180 N   0  0  0  0  0  0  0  0  0  0  0  0
   40.4490   27.0280   44.3440 H   0  0  0  0  0  0  0  0  0  0  0  0
   41.5820   24.9930   43.6280 H   0  0  0  0  0  0  0  0  0  0  0  0
   37.9830   23.6890   41.1200 C   0  0  0  0  0  2  0  0  0  0  0  0
   36.5220   24.0160   40.9590 C   0  0  0  0  0  2  0  0  0  0  0  0
   36.1930   23.6030   39.9840 H   0  0  0  0  0  0  0  0  0  0  0  0
  1  3  1  0  0  0  0
  1 16  1  0  0  0  0
  2  1  1  0  0  0  0
  4  5  1  0  0  0  0
  5  6  1  0  0  0  0
  6  7  2  0  0  0  0
  6  1  1  0  0  0  0
  7 11  1  0  0  0  0
  8 12  1  0  0  0  0
  8  7  1  0  0  0  0
  9  8  2  0  0  0  0
 10  9  1  0  0  0  0
 10  5  2  0  0  0  0
 13  9  1  0  0  0  0
 14 15  1  0  0  0  0
 14 10  1  0  0  0  0
 16 17  1  0  0  0  0
 16 18  1  0  0  0  0
 19 16  1  0  0  0  0
 19 20  1  0  0  0  0
 20 25  1  0  0  0  0
 21 26  1  0  0  0  0
 21 20  2  0  0  0  0
 22 21  1  0  0  0  0
 23 24  1  0  0  0  0
 23 22  2  0  0  0  0
 24 19  2  0  0  0  0
 27 23  1  0  0  0  0
 28 27  1  0  0  0  0
 29 28  1  0  0  0  0
M  END
>  <minimizedAffinity>
-5.23040342

$$$$

 OpenBabel03242519143D

 29 30  0  0  0  0  0  0  0  0999 V2000
   35.8450   30.2280   40.3250 C   0  0  0  0  0  0  0  0  0  0  0  0
   35.0020   30.9290   40.4600 H   0  0  0  0  0  0  0  0  0  0  0  0
   36.7480   30.6220   40.8590 H   0  0  0  0  0  0  0  0  0  0  0  0
   37.6870   32.3760   39.4120 Cl  0  0  0  0  0  0  0  0  0  0  0  0
   37.0800   31.1290   38.3320 C   0  0  0  0  0  0  0  0  0  0  0  0
   36.2360   30.1980   38.8850 C   0  0  0  0  0  0  0  0  0  0  0  0
   35.7510   29.2130   38.0520 C   0  0  0  0  0  0  0  0  0  0  0  0
   36.0960   29.1620   36.7190 C   0  0  0  0  0  0  0  0  0  0  0  0
   36.9690   30.1350   36.1720 C   0  0  0  0  0  0  0  0  0  0  0  0
   37.4490   31.1140   37.0120 C   0  0  0  0  0  0  0  0  0  0  0  0
   35.0760   28.4370   38.4150 H   0  0  0  0  0  0  0  0  0  0  0  0
   35.7220   28.3890   36.0430 H   0  0  0  0  0  0  0  0  0  0  0  0
   37.2580   30.1210   35.1280 H   0  0  0  0  0  0  0  0  0  0  0  0
   38.3120   32.1190   36.5770 O   0  0  0  0  0  0  0  0  0  0  0  0
   39.1530   31.9100   36.0180 H   0  0  0  0  0  0  0  0  0  0  0  0
   35.4910   28.8940   40.8810 C   0  0  0  0  0  0  0  0  0  0  0  0
   34.6190   29.0280   41.5760 H   0  0  0  0  0  0  0  0  0  0  0  0
   35.1680   28.2070   40.0770 H   0  0  0  0  0  0  0  0  0  0  0  0
   36.5930   28.3520   41.6540 C   0  0  0  0  0  0  0  0  0  0  0  0
   37.3990   29.1650   42.4140 C   0  0  0  0  0  0  0  0  0  0  0  0
   38.4730   28.6800   43.1740 C   0  0  0  0  0  0  0  0  0  0  0  0
   38.6590   27.3380   43.1030 N   0  0  0  0  0  0  0  0  0  0  0  0
   37.8570   26.5420   42.3490 C   0  0  0  0  0  0  0  0  0  0  0  0
   36.8490   27.0260   41.6390 N   0  0  0  0  0  0  0  0  0  0  0  0
   37.2680   30.2400   42.4850 H   0  0  0  0  0  0  0  0  0  0  0  0
   39.1100   29.2980   43.7720 H   0  0  0  0  0  0  0  0  0  0  0  0
   38.1470   25.0600   42.3360 C   0  0  0  0  0  2  0  0  0  0  0  0
   37.0540   24.3110   41.6210 C   0  0  0  0  0  2  0  0  0  0  0  0
   37.4920   23.3660   41.2380 H   0  0  0  0  0  0  0  0  0  0  0  0
  1  2  1  0  0  0  0
  1  3  1  0  0  0  0
  1 16  1  0  0  0  0
  5  6  1  0  0  0  0
  5  4  1  0  0  0  0
  6  1  1  0  0  0  0
  7 11  1  0  0  0  0
  7  6  2  0  0  0  0
  8  7  1  0  0  0  0
  9  8  2  0  0  0  0
  9 10  1  0  0  0  0
 10  5  2  0  0  0  0
 12  8  1  0  0  0  0
 13  9  1  0  0  0  0
 14 10  1  0  0  0  0
 15 14  1  0  0  0  0
 16 17  1  0  0  0  0
 16 19  1  0  0  0  0
 18 16  1  0  0  0  0
 19 20  1  0  0  0  0
 20 25  1  0  0  0  0
 20 21  2  0  0  0  0
 21 26  1  0  0  0  0
 22 21  1  0  0  0  0
 23 22  2  0  0  0  0
 24 19  2  0  0  0  0
 24 23  1  0  0  0  0
 27 23  1  0  0  0  0
 28 27  1  0  0  0  0
 29 28  1  0  0  0  0
M  END
>  <minimizedAffinity>
-5.21439743

$$$$

 OpenBabel03242519143D

 29 30  0  0  0  0  0  0  0  0999 V2000
   36.0160   28.9650   39.6350 C   0  0  0  0  0  0  0  0  0  0  0  0
   36.7280   28.1810   39.3220 H   0  0  0  0  0  0  0  0  0  0  0  0
   35.0920   28.9050   39.0040 H   0  0  0  0  0  0  0  0  0  0  0  0
   36.9870   29.3930   36.8580 Cl  0  0  0  0  0  0  0  0  0  0  0  0
   37.0820   30.6380   38.0930 C   0  0  0  0  0  0  0  0  0  0  0  0
   36.5970   30.3070   39.3350 C   0  0  0  0  0  0  0  0  0  0  0  0
   36.6630   31.2720   40.3160 C   0  0  0  0  0  0  0  0  0  0  0  0
   37.1940   32.5190   40.0660 C   0  0  0  0  0  0  0  0  0  0  0  0
   37.6880   32.8360   38.7770 C   0  0  0  0  0  0  0  0  0  0  0  0
   37.6170   31.8670   37.8030 C   0  0  0  0  0  0  0  0  0  0  0  0
   36.2980   31.0870   41.3270 H   0  0  0  0  0  0  0  0  0  0  0  0
   37.2550   33.2980   40.8310 H   0  0  0  0  0  0  0  0  0  0  0  0
   38.1110   33.8080   38.5500 H   0  0  0  0  0  0  0  0  0  0  0  0
   38.0740   32.0730   36.5020 O   0  0  0  0  0  0  0  0  0  0  0  0
   37.8190   32.9130   35.9620 H   0  0  0  0  0  0  0  0  0  0  0  0
   35.6470   28.7750   41.0630 C   0  0  0  0  0  0  0  0  0  0  0  0
   35.6130   29.7850   41.5510 H   0  0  0  0  0  0  0  0  0  0  0  0
   34.6360   28.3330   41.1520 H   0  0  0  0  0  0  0  0  0  0  0  0
   36.6510   27.9850   41.7520 C   0  0  0  0  0  0  0  0  0  0  0  0
   37.4660   28.5440   42.7080 C   0  0  0  0  0  0  0  0  0  0  0  0
   38.4460   27.8150   43.3940 C   0  0  0  0  0  0  0  0  0  0  0  0
   38.5330   26.5070   43.0440 N   0  0  0  0  0  0  0  0  0  0  0  0
   37.7230   25.9640   42.0980 C   0  0  0  0  0  0  0  0  0  0  0  0
   36.8040   26.6750   41.4640 N   0  0  0  0  0  0  0  0  0  0  0  0
   37.4130   29.5860   43.0030 H   0  0  0  0  0  0  0  0  0  0  0  0
   39.0890   28.2330   44.1410 H   0  0  0  0  0  0  0  0  0  0  0  0
   37.8980   24.4980   41.7800 C   0  0  0  0  0  2  0  0  0  0  0  0
   36.7150   23.9760   41.0090 C   0  0  0  0  0  2  0  0  0  0  0  0
   37.0580   23.1010   40.4220 H   0  0  0  0  0  0  0  0  0  0  0  0
  1 16  1  0  0  0  0
  2  1  1  0  0  0  0
  3  1  1  0  0  0  0
  4  5  1  0  0  0  0
  5  6  1  0  0  0  0
  6  1  1  0  0  0  0
  6  7  2  0  0  0  0
  7 11  1  0  0  0  0
  8  7  1  0  0  0  0
  8 12  1  0  0  0  0
  9  8  2  0  0  0  0
 10  5  2  0  0  0  0
 10  9  1  0  0  0  0
 13  9  1  0  0  0  0
 14 10  1  0  0  0  0
 15 14  1  0  0  0  0
 16 18  1  0  0  0  0
 16 17  1  0  0  0  0
 16 19  1  0  0  0  0
 19 20  1  0  0  0  0
 20 25  1  0  0  0  0
 20 21  2  0  0  0  0
 21 26  1  0  0  0  0
 22 21  1  0  0  0  0
 23 22  2  0  0  0  0
 24 19  2  0  0  0  0
 24 23  1  0  0  0  0
 27 23  1  0  0  0  0
 28 27  1  0  0  0  0
 29 28  1  0  0  0  0
M  END
>  <minimizedAffinity>
-5.19352913

$$$$

 OpenBabel03242519143D

 29 30  0  0  0  0  0  0  0  0999 V2000
   39.0030   29.8390   42.6320 C   0  0  0  0  0  0  0  0  0  0  0  0
   39.5130   30.5390   43.3170 H   0  0  0  0  0  0  0  0  0  0  0  0
   39.7660   29.2060   42.1090 H   0  0  0  0  0  0  0  0  0  0  0  0
   40.6370   31.9490   41.3200 Cl  0  0  0  0  0  0  0  0  0  0  0  0
   38.9760   31.6140   40.8530 C   0  0  0  0  0  0  0  0  0  0  0  0
   38.3370   30.6120   41.5420 C   0  0  0  0  0  0  0  0  0  0  0  0
   37.0340   30.3360   41.1900 C   0  0  0  0  0  0  0  0  0  0  0  0
   36.3950   31.0350   40.1880 C   0  0  0  0  0  0  0  0  0  0  0  0
   37.0760   32.0630   39.4920 C   0  0  0  0  0  0  0  0  0  0  0  0
   38.3770   32.3320   39.8510 C   0  0  0  0  0  0  0  0  0  0  0  0
   36.4580   29.5560   41.6890 H   0  0  0  0  0  0  0  0  0  0  0  0
   35.3620   30.8300   39.8940 H   0  0  0  0  0  0  0  0  0  0  0  0
   36.6000   32.6300   38.7000 H   0  0  0  0  0  0  0  0  0  0  0  0
   39.1380   33.3220   39.2320 O   0  0  0  0  0  0  0  0  0  0  0  0
   39.1960   33.4030   38.2060 H   0  0  0  0  0  0  0  0  0  0  0  0
   38.0800   28.9600   43.3980 C   0  0  0  0  0  0  0  0  0  0  0  0
   38.2180   29.1790   44.4900 H   0  0  0  0  0  0  0  0  0  0  0  0
   37.0260   29.1850   43.1480 H   0  0  0  0  0  0  0  0  0  0  0  0
   38.4060   27.5620   43.1830 C   0  0  0  0  0  0  0  0  0  0  0  0
   39.6100   27.0400   43.5920 C   0  0  0  0  0  0  0  0  0  0  0  0
   39.9610   25.6960   43.4020 C   0  0  0  0  0  0  0  0  0  0  0  0
   39.0190   24.9430   42.7800 N   0  0  0  0  0  0  0  0  0  0  0  0
   37.8320   25.4690   42.3800 C   0  0  0  0  0  0  0  0  0  0  0  0
   37.5240   26.7420   42.5710 N   0  0  0  0  0  0  0  0  0  0  0  0
   40.3770   27.6230   44.0900 H   0  0  0  0  0  0  0  0  0  0  0  0
   40.8940   25.2720   43.7140 H   0  0  0  0  0  0  0  0  0  0  0  0
   36.8490   24.5480   41.6970 C   0  0  0  0  0  2  0  0  0  0  0  0
   37.1450   24.4530   40.2240 C   0  0  0  0  0  2  0  0  0  0  0  0
   36.7460   23.4820   39.8650 H   0  0  0  0  0  0  0  0  0  0  0  0
  1  2  1  0  0  0  0
  1 16  1  0  0  0  0
  3  1  1  0  0  0  0
  5  4  1  0  0  0  0
  5  6  1  0  0  0  0
  6  1  1  0  0  0  0
  7  6  2  0  0  0  0
  7 11  1  0  0  0  0
  8  7  1  0  0  0  0
  9 10  1  0  0  0  0
  9  8  2  0  0  0  0
 10  5  2  0  0  0  0
 12  8  1  0  0  0  0
 13  9  1  0  0  0  0
 14 10  1  0  0  0  0
 15 14  1  0  0  0  0
 16 17  1  0  0  0  0
 18 16  1  0  0  0  0
 19 16  1  0  0  0  0
 19 20  1  0  0  0  0
 20 25  1  0  0  0  0
 21 20  2  0  0  0  0
 21 26  1  0  0  0  0
 22 21  1  0  0  0  0
 23 24  1  0  0  0  0
 23 22  2  0  0  0  0
 24 19  2  0  0  0  0
 27 23  1  0  0  0  0
 28 27  1  0  0  0  0
 29 28  1  0  0  0  0
M  END
>  <minimizedAffinity>
-5.121243

$$$$

 OpenBabel03242519143D

 29 30  0  0  0  0  0  0  0  0999 V2000
   36.1470   30.6690   40.3680 C   0  0  0  0  0  0  0  0  0  0  0  0
   35.3300   31.3970   40.5120 H   0  0  0  0  0  0  0  0  0  0  0  0
   37.0850   31.0610   40.8420 H   0  0  0  0  0  0  0  0  0  0  0  0
   38.0470   32.6870   39.2910 Cl  0  0  0  0  0  0  0  0  0  0  0  0
   37.3300   31.4350   38.2880 C   0  0  0  0  0  0  0  0  0  0  0  0
   36.4680   30.5680   38.9140 C   0  0  0  0  0  0  0  0  0  0  0  0
   35.8960   29.5800   38.1420 C   0  0  0  0  0  0  0  0  0  0  0  0
   36.1750   29.4640   36.7970 C   0  0  0  0  0  0  0  0  0  0  0  0
   37.0670   30.3710   36.1750 C   0  0  0  0  0  0  0  0  0  0  0  0
   37.6340   31.3540   36.9540 C   0  0  0  0  0  0  0  0  0  0  0  0
   35.2020   28.8520   38.5650 H   0  0  0  0  0  0  0  0  0  0  0  0
   35.7320   28.6870   36.1690 H   0  0  0  0  0  0  0  0  0  0  0  0
   37.3050   30.3050   35.1200 H   0  0  0  0  0  0  0  0  0  0  0  0
   38.5240   32.2980   36.4430 O   0  0  0  0  0  0  0  0  0  0  0  0
   39.3260   32.0270   35.8540 H   0  0  0  0  0  0  0  0  0  0  0  0
   35.7880   29.3700   40.9980 C   0  0  0  0  0  0  0  0  0  0  0  0
   34.9110   29.5440   41.6760 H   0  0  0  0  0  0  0  0  0  0  0  0
   35.4720   28.6370   40.2320 H   0  0  0  0  0  0  0  0  0  0  0  0
   36.8830   28.8730   41.8100 C   0  0  0  0  0  0  0  0  0  0  0  0
   36.7470   27.7370   42.5730 C   0  0  0  0  0  0  0  0  0  0  0  0
   37.7810   27.2270   43.3700 C   0  0  0  0  0  0  0  0  0  0  0  0
   38.9340   27.9410   43.3340 N   0  0  0  0  0  0  0  0  0  0  0  0
   39.0580   29.0620   42.5780 C   0  0  0  0  0  0  0  0  0  0  0  0
   38.0660   29.5240   41.8330 N   0  0  0  0  0  0  0  0  0  0  0  0
   35.8350   27.1520   42.6160 H   0  0  0  0  0  0  0  0  0  0  0  0
   37.6930   26.3440   43.9700 H   0  0  0  0  0  0  0  0  0  0  0  0
   40.3830   29.7860   42.6050 C   0  0  0  0  0  2  0  0  0  0  0  0
   40.2190   31.2130   42.1550 C   0  0  0  0  0  2  0  0  0  0  0  0
   41.0430   31.8030   42.6060 H   0  0  0  0  0  0  0  0  0  0  0  0
  1  2  1  0  0  0  0
  1  3  1  0  0  0  0
  1 16  1  0  0  0  0
  5  6  1  0  0  0  0
  5  4  1  0  0  0  0
  6  1  1  0  0  0  0
  7 11  1  0  0  0  0
  7  6  2  0  0  0  0
  8  7  1  0  0  0  0
  9  8  2  0  0  0  0
  9 10  1  0  0  0  0
 10  5  2  0  0  0  0
 12  8  1  0  0  0  0
 13  9  1  0  0  0  0
 14 10  1  0  0  0  0
 15 14  1  0  0  0  0
 16 17  1  0  0  0  0
 16 19  1  0  0  0  0
 18 16  1  0  0  0  0
 19 24  2  0  0  0  0
 19 20  1  0  0  0  0
 20 25  1  0  0  0  0
 20 21  2  0  0  0  0
 21 26  1  0  0  0  0
 22 21  1  0  0  0  0
 23 27  1  0  0  0  0
 23 22  2  0  0  0  0
 24 23  1  0  0  0  0
 28 27  1  0  0  0  0
 28 29  1  0  0  0  0
M  END
>  <minimizedAffinity>
-5.07631159

$$$$

 OpenBabel03242519143D

 29 30  0  0  0  0  0  0  0  0999 V2000
   35.6380   28.5040   38.8500 C   0  0  0  0  0  0  0  0  0  0  0  0
   34.7340   28.4420   38.2190 H   0  0  0  0  0  0  0  0  0  0  0  0
   35.3380   28.5390   39.9300 H   0  0  0  0  0  0  0  0  0  0  0  0
   35.7390   30.3990   41.1390 Cl  0  0  0  0  0  0  0  0  0  0  0  0
   36.4430   30.7720   39.5730 C   0  0  0  0  0  0  0  0  0  0  0  0
   36.3240   29.8060   38.6030 C   0  0  0  0  0  0  0  0  0  0  0  0
   36.8700   30.0820   37.3690 C   0  0  0  0  0  0  0  0  0  0  0  0
   37.5090   31.2770   37.1140 C   0  0  0  0  0  0  0  0  0  0  0  0
   37.6180   32.2560   38.1300 C   0  0  0  0  0  0  0  0  0  0  0  0
   37.0700   31.9720   39.3610 C   0  0  0  0  0  0  0  0  0  0  0  0
   36.8180   29.3670   36.5460 H   0  0  0  0  0  0  0  0  0  0  0  0
   37.9490   31.5130   36.1410 H   0  0  0  0  0  0  0  0  0  0  0  0
   38.1140   33.2040   37.9600 H   0  0  0  0  0  0  0  0  0  0  0  0
   37.1210   32.8650   40.4300 O   0  0  0  0  0  0  0  0  0  0  0  0
   37.9970   33.3320   40.7080 H   0  0  0  0  0  0  0  0  0  0  0  0
   36.5010   27.3150   38.6200 C   0  0  0  0  0  0  0  0  0  0  0  0
   35.9750   26.6400   37.8930 H   0  0  0  0  0  0  0  0  0  0  0  0
   37.4620   27.6110   38.1590 H   0  0  0  0  0  0  0  0  0  0  0  0
   36.6920   26.5730   39.8530 C   0  0  0  0  0  0  0  0  0  0  0  0
   36.5680   25.2040   39.8880 C   0  0  0  0  0  0  0  0  0  0  0  0
   36.7440   24.4530   41.0580 C   0  0  0  0  0  0  0  0  0  0  0  0
   37.0490   25.1810   42.1620 N   0  0  0  0  0  0  0  0  0  0  0  0
   37.1690   26.5330   42.1170 C   0  0  0  0  0  0  0  0  0  0  0  0
   36.9970   27.2200   40.9980 N   0  0  0  0  0  0  0  0  0  0  0  0
   36.3250   24.6040   39.0180 H   0  0  0  0  0  0  0  0  0  0  0  0
   36.6520   23.3870   41.1040 H   0  0  0  0  0  0  0  0  0  0  0  0
   37.5110   27.2520   43.4000 C   0  0  0  0  0  2  0  0  0  0  0  0
   38.9590   27.6640   43.4090 C   0  0  0  0  0  2  0  0  0  0  0  0
   39.0550   28.5350   44.0890 H   0  0  0  0  0  0  0  0  0  0  0  0
  1  3  1  0  0  0  0
  2  1  1  0  0  0  0
  5  4  1  0  0  0  0
  6  1  1  0  0  0  0
  6  5  2  0  0  0  0
  7  6  1  0  0  0  0
  8  7  2  0  0  0  0
  8  9  1  0  0  0  0
  9 10  2  0  0  0  0
 10  5  1  0  0  0  0
 10 14  1  0  0  0  0
 11  7  1  0  0  0  0
 12  8  1  0  0  0  0
 13  9  1  0  0  0  0
 14 15  1  0  0  0  0
 16  1  1  0  0  0  0
 16 19  1  0  0  0  0
 17 16  1  0  0  0  0
 18 16  1  0  0  0  0
 19 20  2  0  0  0  0
 19 24  1  0  0  0  0
 20 21  1  0  0  0  0
 21 26  1  0  0  0  0
 21 22  2  0  0  0  0
 23 22  1  0  0  0  0
 23 27  1  0  0  0  0
 24 23  2  0  0  0  0
 25 20  1  0  0  0  0
 27 28  1  0  0  0  0
 28 29  1  0  0  0  0
M  END
>  <minimizedAffinity>
-5.05226326

$$$$

 OpenBabel03242519143D

 29 30  0  0  0  0  0  0  0  0999 V2000
   37.4610   30.0700   39.4310 C   0  0  0  0  0  0  0  0  0  0  0  0
   38.3170   29.3830   39.5560 H   0  0  0  0  0  0  0  0  0  0  0  0
   37.1420   30.0780   38.3560 H   0  0  0  0  0  0  0  0  0  0  0  0
   40.1270   30.3810   40.7080 Cl  0  0  0  0  0  0  0  0  0  0  0  0
   39.1120   31.7540   40.2940 C   0  0  0  0  0  0  0  0  0  0  0  0
   37.9040   31.4680   39.7080 C   0  0  0  0  0  0  0  0  0  0  0  0
   37.0950   32.5330   39.3770 C   0  0  0  0  0  0  0  0  0  0  0  0
   37.4790   33.8330   39.6220 C   0  0  0  0  0  0  0  0  0  0  0  0
   38.7310   34.1030   40.2280 C   0  0  0  0  0  0  0  0  0  0  0  0
   39.5320   33.0330   40.5550 C   0  0  0  0  0  0  0  0  0  0  0  0
   36.1200   32.3880   38.9080 H   0  0  0  0  0  0  0  0  0  0  0  0
   36.8520   34.6910   39.3660 H   0  0  0  0  0  0  0  0  0  0  0  0
   39.0600   35.1150   40.4330 H   0  0  0  0  0  0  0  0  0  0  0  0
   40.7820   33.1850   41.1540 O   0  0  0  0  0  0  0  0  0  0  0  0
   41.4810   33.8520   40.7940 H   0  0  0  0  0  0  0  0  0  0  0  0
   36.3220   29.6200   40.2750 C   0  0  0  0  0  0  0  0  0  0  0  0
   35.8640   30.5270   40.7520 H   0  0  0  0  0  0  0  0  0  0  0  0
   35.5380   29.1430   39.6560 H   0  0  0  0  0  0  0  0  0  0  0  0
   36.7840   28.7470   41.3390 C   0  0  0  0  0  0  0  0  0  0  0  0
   37.2360   29.2560   42.5330 C   0  0  0  0  0  0  0  0  0  0  0  0
   37.6910   28.4470   43.5830 C   0  0  0  0  0  0  0  0  0  0  0  0
   37.6530   27.1140   43.3320 N   0  0  0  0  0  0  0  0  0  0  0  0
   37.2040   26.6210   42.1490 C   0  0  0  0  0  0  0  0  0  0  0  0
   36.7800   27.4070   41.1720 N   0  0  0  0  0  0  0  0  0  0  0  0
   37.2750   30.3180   42.7540 H   0  0  0  0  0  0  0  0  0  0  0  0
   38.0460   28.8250   44.5190 H   0  0  0  0  0  0  0  0  0  0  0  0
   37.2010   25.1210   41.9670 C   0  0  0  0  0  2  0  0  0  0  0  0
   36.7540   24.7550   40.5770 C   0  0  0  0  0  2  0  0  0  0  0  0
   37.1860   23.7620   40.3380 H   0  0  0  0  0  0  0  0  0  0  0  0
  1  2  1  0  0  0  0
  1  6  1  0  0  0  0
  1 16  1  0  0  0  0
  3  1  1  0  0  0  0
  5 10  1  0  0  0  0
  5  4  1  0  0  0  0
  6  5  2  0  0  0  0
  7  8  2  0  0  0  0
  7  6  1  0  0  0  0
  8  9  1  0  0  0  0
  9 13  1  0  0  0  0
  9 10  2  0  0  0  0
 10 14  1  0  0  0  0
 11  7  1  0  0  0  0
 12  8  1  0  0  0  0
 15 14  1  0  0  0  0
 16 17  1  0  0  0  0
 16 19  1  0  0  0  0
 18 16  1  0  0  0  0
 19 20  1  0  0  0  0
 20 25  1  0  0  0  0
 20 21  2  0  0  0  0
 21 26  1  0  0  0  0
 22 21  1  0  0  0  0
 23 22  2  0  0  0  0
 24 19  2  0  0  0  0
 24 23  1  0  0  0  0
 27 23  1  0  0  0  0
 28 27  1  0  0  0  0
 29 28  1  0  0  0  0
M  END
>  <minimizedAffinity>
-4.93105602

$$$$

 OpenBabel03242519143D

 29 30  0  0  0  0  0  0  0  0999 V2000
   36.1890   27.7950   40.0880 C   0  0  0  0  0  0  0  0  0  0  0  0
   35.4760   26.9530   40.0470 H   0  0  0  0  0  0  0  0  0  0  0  0
   36.8880   27.7370   39.2130 H   0  0  0  0  0  0  0  0  0  0  0  0
   39.0490   27.1770   39.5640 Cl  0  0  0  0  0  0  0  0  0  0  0  0
   38.4050   27.3580   41.1880 C   0  0  0  0  0  0  0  0  0  0  0  0
   37.0650   27.6430   41.2870 C   0  0  0  0  0  0  0  0  0  0  0  0
   36.5420   27.7880   42.5530 C   0  0  0  0  0  0  0  0  0  0  0  0
   37.3280   27.6520   43.6770 C   0  0  0  0  0  0  0  0  0  0  0  0
   38.7080   27.3580   43.5490 C   0  0  0  0  0  0  0  0  0  0  0  0
   39.2210   27.2150   42.2800 C   0  0  0  0  0  0  0  0  0  0  0  0
   35.4880   28.0160   42.7160 H   0  0  0  0  0  0  0  0  0  0  0  0
   36.9320   27.7650   44.6900 H   0  0  0  0  0  0  0  0  0  0  0  0
   39.3510   27.2450   44.4140 H   0  0  0  0  0  0  0  0  0  0  0  0
   40.5640   26.9250   42.0410 O   0  0  0  0  0  0  0  0  0  0  0  0
   41.3240   27.4450   42.5040 H   0  0  0  0  0  0  0  0  0  0  0  0
   35.4530   29.0870   40.0390 C   0  0  0  0  0  0  0  0  0  0  0  0
   34.4830   28.9140   39.5020 H   0  0  0  0  0  0  0  0  0  0  0  0
   35.2070   29.4370   41.0600 H   0  0  0  0  0  0  0  0  0  0  0  0
   36.2030   30.0770   39.2880 C   0  0  0  0  0  0  0  0  0  0  0  0
   36.6250   29.8290   38.0040 C   0  0  0  0  0  0  0  0  0  0  0  0
   37.3520   30.7590   37.2470 C   0  0  0  0  0  0  0  0  0  0  0  0
   37.6090   31.9310   37.8800 N   0  0  0  0  0  0  0  0  0  0  0  0
   37.1880   32.1670   39.1490 C   0  0  0  0  0  0  0  0  0  0  0  0
   36.5030   31.2710   39.8440 N   0  0  0  0  0  0  0  0  0  0  0  0
   36.4300   28.8990   37.4800 H   0  0  0  0  0  0  0  0  0  0  0  0
   37.6880   30.5830   36.2460 H   0  0  0  0  0  0  0  0  0  0  0  0
   37.5250   33.5040   39.7650 C   0  0  0  0  0  2  0  0  0  0  0  0
   39.0150   33.6580   39.9200 C   0  0  0  0  0  2  0  0  0  0  0  0
   39.2390   34.7440   39.9260 H   0  0  0  0  0  0  0  0  0  0  0  0
  1  6  1  0  0  0  0
  2  1  1  0  0  0  0
  3  1  1  0  0  0  0
  4  5  1  0  0  0  0
  5  6  2  0  0  0  0
  5 10  1  0  0  0  0
  6  7  1  0  0  0  0
  7 11  1  0  0  0  0
  7  8  2  0  0  0  0
  8 12  1  0  0  0  0
  9  8  1  0  0  0  0
  9 13  1  0  0  0  0
 10  9  2  0  0  0  0
 14 10  1  0  0  0  0
 14 15  1  0  0  0  0
 16  1  1  0  0  0  0
 16 18  1  0  0  0  0
 17 16  1  0  0  0  0
 19 24  1  0  0  0  0
 19 16  1  0  0  0  0
 20 19  2  0  0  0  0
 21 22  2  0  0  0  0
 21 20  1  0  0  0  0
 22 23  1  0  0  0  0
 23 27  1  0  0  0  0
 23 24  2  0  0  0  0
 25 20  1  0  0  0  0
 26 21  1  0  0  0  0
 27 28  1  0  0  0  0
 28 29  1  0  0  0  0
M  END
>  <minimizedAffinity>
-4.92677498

$$$$
