
 OpenBabel03242521263D

 36 38  0  0  0  0  0  0  0  0999 V2000
   38.2440   31.6300   40.7880 C   0  0  0  0  0  0  0  0  0  0  0  0
   37.7290   32.7890   40.2950 C   0  0  0  0  0  0  0  0  0  0  0  0
   38.4790   33.9220   40.0730 C   0  0  0  0  0  0  0  0  0  0  0  0
   39.7960   33.8350   40.3730 N   0  0  0  0  0  0  0  0  0  0  0  0
   40.3040   32.6790   40.8630 C   0  0  0  0  0  0  0  0  0  0  0  0
   39.5570   31.5780   41.0750 N   0  0  0  0  0  0  0  0  0  0  0  0
   36.6740   32.8280   40.0650 H   0  0  0  0  0  0  0  0  0  0  0  0
   38.0910   34.8480   39.6850 H   0  0  0  0  0  0  0  0  0  0  0  0
   41.7450   32.6030   41.1860 C   0  0  0  0  0  0  0  0  0  0  0  0
   42.1430   31.9520   42.3300 C   0  0  0  0  0  0  0  0  0  0  0  0
   43.4700   31.8240   42.7230 C   0  0  0  0  0  0  0  0  0  0  0  0
   44.4290   32.3920   41.8990 C   0  0  0  0  0  0  0  0  0  0  0  0
   44.0310   33.0340   40.7710 C   0  0  0  0  0  0  0  0  0  0  0  0
   42.7100   33.1580   40.3840 C   0  0  0  0  0  0  0  0  0  0  0  0
   41.3890   31.5070   42.9760 H   0  0  0  0  0  0  0  0  0  0  0  0
   43.7880   31.3180   43.6140 H   0  0  0  0  0  0  0  0  0  0  0  0
   45.4940   32.3680   42.0830 H   0  0  0  0  0  0  0  0  0  0  0  0
   44.7440   33.4930   40.0960 H   0  0  0  0  0  0  0  0  0  0  0  0
   42.2820   33.8040   39.2420 O   0  0  0  0  0  0  0  0  0  0  0  0
   42.8860   31.8260   37.6520 O   0  0  0  0  0  0  0  0  0  0  0  0
   42.0730   33.1090   37.7180 P   0  0  0  0  0  0  0  0  0  0  0  0
   40.4750   32.8120   37.3100 O   0  0  0  0  0  0  0  0  0  0  0  0
   40.4770   32.2400   36.5010 H   0  0  0  0  0  0  0  0  0  0  0  0
   42.7320   34.1610   36.5540 O   0  0  0  0  0  0  0  0  0  0  0  0
   42.1060   34.3550   35.8130 H   0  0  0  0  0  0  0  0  0  0  0  0
   35.6370   29.0930   40.3240 C   0  0  0  0  0  0  0  0  0  0  0  0
   35.8640   28.2490   41.4140 C   0  0  0  0  0  0  0  0  0  0  0  0
   36.8880   28.5380   42.2960 C   0  0  0  0  0  0  0  0  0  0  0  0
   37.6580   29.6550   42.0680 N   0  0  0  0  0  0  0  0  0  0  0  0
   37.4180   30.4540   41.0090 C   0  0  0  0  0  0  0  0  0  0  0  0
   36.4200   30.1740   40.1500 N   0  0  0  0  0  0  0  0  0  0  0  0
   34.8470   28.9100   39.6060 H   0  0  0  0  0  0  0  0  0  0  0  0
   35.2360   27.3720   41.5660 H   0  0  0  0  0  0  0  0  0  0  0  0
   37.1900   27.6970   43.4660 C   0  0  0  0  0  2  0  0  0  0  0  0
   38.4430   26.9030   43.1510 C   0  0  0  0  0  2  0  0  0  0  0  0
   38.3200   25.8720   43.5410 H   0  0  0  0  0  0  0  0  0  0  0  0
  1 30  1  0  0  0  0
  1  6  1  0  0  0  0
  2  1  2  0  0  0  0
  3  2  1  0  0  0  0
  3  4  2  0  0  0  0
  4  5  1  0  0  0  0
  5  6  2  0  0  0  0
  5  9  1  0  0  0  0
  7  2  1  0  0  0  0
  8  3  1  0  0  0  0
  9 10  1  0  0  0  0
 10 11  2  0  0  0  0
 10 15  1  0  0  0  0
 11 16  1  0  0  0  0
 12 17  1  0  0  0  0
 12 11  1  0  0  0  0
 13 12  2  0  0  0  0
 14 13  1  0  0  0  0
 14  9  2  0  0  0  0
 18 13  1  0  0  0  0
 19 14  1  0  0  0  0
 20 21  2  0  0  0  0
 21 19  1  0  0  0  0
 22 21  1  0  0  0  0
 23 22  1  0  0  0  0
 24 21  1  0  0  0  0
 25 24  1  0  0  0  0
 26 27  1  0  0  0  0
 27 33  1  0  0  0  0
 27 28  2  0  0  0  0
 28 34  1  0  0  0  0
 29 28  1  0  0  0  0
 30 29  2  0  0  0  0
 31 26  2  0  0  0  0
 31 30  1  0  0  0  0
 32 26  1  0  0  0  0
 35 34  1  0  0  0  0
 35 36  1  0  0  0  0
M  END
>  <minimizedAffinity>
-6.20965958

$$$$

 OpenBabel03242521263D

 36 38  0  0  0  0  0  0  0  0999 V2000
   37.4620   28.5300   41.3760 C   0  0  0  0  0  0  0  0  0  0  0  0
   37.3290   29.7180   42.0250 C   0  0  0  0  0  0  0  0  0  0  0  0
   36.6900   30.8120   41.4870 C   0  0  0  0  0  0  0  0  0  0  0  0
   36.1800   30.6550   40.2440 N   0  0  0  0  0  0  0  0  0  0  0  0
   36.3140   29.4690   39.6020 C   0  0  0  0  0  0  0  0  0  0  0  0
   36.9420   28.4070   40.1410 N   0  0  0  0  0  0  0  0  0  0  0  0
   37.7480   29.8140   43.0160 H   0  0  0  0  0  0  0  0  0  0  0  0
   36.5750   31.7610   41.9830 H   0  0  0  0  0  0  0  0  0  0  0  0
   35.7500   29.3160   38.2430 C   0  0  0  0  0  0  0  0  0  0  0  0
   34.4710   28.8290   38.0990 C   0  0  0  0  0  0  0  0  0  0  0  0
   33.8480   28.6480   36.8700 C   0  0  0  0  0  0  0  0  0  0  0  0
   34.5770   28.9830   35.7390 C   0  0  0  0  0  0  0  0  0  0  0  0
   35.8380   29.4630   35.8860 C   0  0  0  0  0  0  0  0  0  0  0  0
   36.4520   29.6420   37.1110 C   0  0  0  0  0  0  0  0  0  0  0  0
   33.9020   28.5660   38.9880 H   0  0  0  0  0  0  0  0  0  0  0  0
   32.8520   28.2690   36.7490 H   0  0  0  0  0  0  0  0  0  0  0  0
   34.2170   28.8940   34.7230 H   0  0  0  0  0  0  0  0  0  0  0  0
   36.4450   29.7390   35.0320 H   0  0  0  0  0  0  0  0  0  0  0  0
   37.7320   30.1280   37.2860 O   0  0  0  0  0  0  0  0  0  0  0  0
   39.6560   31.8530   37.6530 O   0  0  0  0  0  0  0  0  0  0  0  0
   38.2090   31.7450   37.1970 P   0  0  0  0  0  0  0  0  0  0  0  0
   38.0190   32.4390   35.6830 O   0  0  0  0  0  0  0  0  0  0  0  0
   38.4970   33.3050   35.6920 H   0  0  0  0  0  0  0  0  0  0  0  0
   37.2830   32.6390   38.3110 O   0  0  0  0  0  0  0  0  0  0  0  0
   36.8610   33.4370   37.9060 H   0  0  0  0  0  0  0  0  0  0  0  0
   39.6720   26.5790   43.5570 C   0  0  0  0  0  0  0  0  0  0  0  0
   39.4310   25.2760   43.1150 C   0  0  0  0  0  0  0  0  0  0  0  0
   38.5300   25.0620   42.0890 C   0  0  0  0  0  0  0  0  0  0  0  0
   37.8940   26.1480   41.5330 N   0  0  0  0  0  0  0  0  0  0  0  0
   38.1450   27.3960   41.9780 C   0  0  0  0  0  0  0  0  0  0  0  0
   39.0220   27.6060   42.9770 N   0  0  0  0  0  0  0  0  0  0  0  0
   40.3690   26.7980   44.3570 H   0  0  0  0  0  0  0  0  0  0  0  0
   39.9510   24.4370   43.5770 H   0  0  0  0  0  0  0  0  0  0  0  0
   38.2220   23.7190   41.5690 C   0  0  0  0  0  2  0  0  0  0  0  0
   36.9230   23.8150   40.7900 C   0  0  0  0  0  2  0  0  0  0  0  0
   36.3120   22.9150   41.0030 H   0  0  0  0  0  0  0  0  0  0  0  0
  1 30  1  0  0  0  0
  1  2  1  0  0  0  0
  2  7  1  0  0  0  0
  3  8  1  0  0  0  0
  3  2  2  0  0  0  0
  4  3  1  0  0  0  0
  5  6  1  0  0  0  0
  5  4  2  0  0  0  0
  6  1  2  0  0  0  0
  9  5  1  0  0  0  0
 10  9  1  0  0  0  0
 10 15  1  0  0  0  0
 11 10  2  0  0  0  0
 12 13  2  0  0  0  0
 12 11  1  0  0  0  0
 13 14  1  0  0  0  0
 14 19  1  0  0  0  0
 14  9  2  0  0  0  0
 16 11  1  0  0  0  0
 17 12  1  0  0  0  0
 18 13  1  0  0  0  0
 21 19  1  0  0  0  0
 21 20  2  0  0  0  0
 21 24  1  0  0  0  0
 22 23  1  0  0  0  0
 22 21  1  0  0  0  0
 25 24  1  0  0  0  0
 26 32  1  0  0  0  0
 27 26  1  0  0  0  0
 27 33  1  0  0  0  0
 28 27  2  0  0  0  0
 29 30  2  0  0  0  0
 29 28  1  0  0  0  0
 30 31  1  0  0  0  0
 31 26  2  0  0  0  0
 34 28  1  0  0  0  0
 35 36  1  0  0  0  0
 35 34  1  0  0  0  0
M  END
>  <minimizedAffinity>
-5.90594149

$$$$

 OpenBabel03242521263D

 36 38  0  0  0  0  0  0  0  0999 V2000
   39.1190   31.6900   39.2080 C   0  0  0  0  0  0  0  0  0  0  0  0
   38.1960   32.6880   39.2440 C   0  0  0  0  0  0  0  0  0  0  0  0
   37.0390   32.6300   39.9870 C   0  0  0  0  0  0  0  0  0  0  0  0
   36.8480   31.5000   40.7070 N   0  0  0  0  0  0  0  0  0  0  0  0
   37.7700   30.5080   40.6690 C   0  0  0  0  0  0  0  0  0  0  0  0
   38.8980   30.5800   39.9370 N   0  0  0  0  0  0  0  0  0  0  0  0
   38.3760   33.5780   38.6580 H   0  0  0  0  0  0  0  0  0  0  0  0
   36.2960   33.4080   40.0280 H   0  0  0  0  0  0  0  0  0  0  0  0
   37.5440   29.2810   41.4630 C   0  0  0  0  0  0  0  0  0  0  0  0
   37.8280   29.2920   42.8090 C   0  0  0  0  0  0  0  0  0  0  0  0
   37.6510   28.1940   43.6430 C   0  0  0  0  0  0  0  0  0  0  0  0
   37.1590   27.0340   43.0630 C   0  0  0  0  0  0  0  0  0  0  0  0
   36.8800   27.0290   41.7340 C   0  0  0  0  0  0  0  0  0  0  0  0
   37.0580   28.1240   40.9090 C   0  0  0  0  0  0  0  0  0  0  0  0
   38.2150   30.2020   43.2610 H   0  0  0  0  0  0  0  0  0  0  0  0
   37.8710   28.1940   44.6930 H   0  0  0  0  0  0  0  0  0  0  0  0
   36.9740   26.1100   43.5920 H   0  0  0  0  0  0  0  0  0  0  0  0
   36.4940   26.1470   41.2370 H   0  0  0  0  0  0  0  0  0  0  0  0
   36.7810   28.1430   39.5570 O   0  0  0  0  0  0  0  0  0  0  0  0
   35.7150   29.8460   37.8930 O   0  0  0  0  0  0  0  0  0  0  0  0
   35.3630   28.7050   38.8340 P   0  0  0  0  0  0  0  0  0  0  0  0
   34.4880   27.5260   38.0250 O   0  0  0  0  0  0  0  0  0  0  0  0
   33.7960   27.9880   37.4880 H   0  0  0  0  0  0  0  0  0  0  0  0
   34.3690   29.3670   40.0470 O   0  0  0  0  0  0  0  0  0  0  0  0
   33.4460   29.0100   40.0230 H   0  0  0  0  0  0  0  0  0  0  0  0
   42.0750   33.1060   37.5630 C   0  0  0  0  0  0  0  0  0  0  0  0
   42.6050   31.9870   36.9170 C   0  0  0  0  0  0  0  0  0  0  0  0
   41.9660   30.7660   37.0370 C   0  0  0  0  0  0  0  0  0  0  0  0
   40.8220   30.6940   37.7960 N   0  0  0  0  0  0  0  0  0  0  0  0
   40.3310   31.7890   38.4100 C   0  0  0  0  0  0  0  0  0  0  0  0
   40.9510   32.9780   38.2940 N   0  0  0  0  0  0  0  0  0  0  0  0
   42.5380   34.0830   37.4990 H   0  0  0  0  0  0  0  0  0  0  0  0
   43.5130   32.0780   36.3220 H   0  0  0  0  0  0  0  0  0  0  0  0
   42.4630   29.5420   36.3860 C   0  0  0  0  0  2  0  0  0  0  0  0
   43.4810   29.9580   35.3410 C   0  0  0  0  0  2  0  0  0  0  0  0
   43.3410   29.3310   34.4370 H   0  0  0  0  0  0  0  0  0  0  0  0
  1  2  2  0  0  0  0
  1  6  1  0  0  0  0
  2  3  1  0  0  0  0
  3  8  1  0  0  0  0
  3  4  2  0  0  0  0
  5  4  1  0  0  0  0
  5  9  1  0  0  0  0
  6  5  2  0  0  0  0
  7  2  1  0  0  0  0
  9 10  1  0  0  0  0
 10 15  1  0  0  0  0
 10 11  2  0  0  0  0
 11 16  1  0  0  0  0
 12 17  1  0  0  0  0
 12 11  1  0  0  0  0
 13 12  2  0  0  0  0
 14  9  2  0  0  0  0
 14 13  1  0  0  0  0
 18 13  1  0  0  0  0
 19 14  1  0  0  0  0
 20 21  2  0  0  0  0
 21 19  1  0  0  0  0
 21 24  1  0  0  0  0
 22 21  1  0  0  0  0
 23 22  1  0  0  0  0
 25 24  1  0  0  0  0
 26 31  1  0  0  0  0
 27 28  1  0  0  0  0
 27 26  2  0  0  0  0
 28 29  2  0  0  0  0
 29 30  1  0  0  0  0
 30  1  1  0  0  0  0
 31 30  2  0  0  0  0
 32 26  1  0  0  0  0
 33 27  1  0  0  0  0
 34 28  1  0  0  0  0
 35 34  1  0  0  0  0
 36 35  1  0  0  0  0
M  END
>  <minimizedAffinity>
-5.86264181

$$$$

 OpenBabel03242521263D

 36 38  0  0  0  0  0  0  0  0999 V2000
   37.5800   28.0540   37.3460 C   0  0  0  0  0  0  0  0  0  0  0  0
   38.8210   27.6160   37.0000 C   0  0  0  0  0  0  0  0  0  0  0  0
   39.7640   27.2020   37.9130 C   0  0  0  0  0  0  0  0  0  0  0  0
   39.3970   27.2480   39.2140 N   0  0  0  0  0  0  0  0  0  0  0  0
   38.1590   27.6840   39.5540 C   0  0  0  0  0  0  0  0  0  0  0  0
   37.2460   28.0850   38.6490 N   0  0  0  0  0  0  0  0  0  0  0  0
   39.0860   27.5920   35.9530 H   0  0  0  0  0  0  0  0  0  0  0  0
   40.7510   26.8540   37.6600 H   0  0  0  0  0  0  0  0  0  0  0  0
   37.7750   27.7260   40.9820 C   0  0  0  0  0  0  0  0  0  0  0  0
   37.4070   26.5600   41.6110 C   0  0  0  0  0  0  0  0  0  0  0  0
   37.0290   26.4910   42.9480 C   0  0  0  0  0  0  0  0  0  0  0  0
   37.0330   27.6770   43.6660 C   0  0  0  0  0  0  0  0  0  0  0  0
   37.3980   28.8250   43.0390 C   0  0  0  0  0  0  0  0  0  0  0  0
   37.7730   28.8880   41.7100 C   0  0  0  0  0  0  0  0  0  0  0  0
   37.4030   25.6310   41.0460 H   0  0  0  0  0  0  0  0  0  0  0  0
   36.7400   25.5860   43.4460 H   0  0  0  0  0  0  0  0  0  0  0  0
   36.7630   27.7680   44.7090 H   0  0  0  0  0  0  0  0  0  0  0  0
   37.4170   29.7760   43.5590 H   0  0  0  0  0  0  0  0  0  0  0  0
   38.1480   30.0420   41.0530 O   0  0  0  0  0  0  0  0  0  0  0  0
   37.7330   32.6000   40.7480 O   0  0  0  0  0  0  0  0  0  0  0  0
   37.1130   31.2400   40.4660 P   0  0  0  0  0  0  0  0  0  0  0  0
   36.7400   31.0930   38.8390 O   0  0  0  0  0  0  0  0  0  0  0  0
   36.2970   31.9330   38.5600 H   0  0  0  0  0  0  0  0  0  0  0  0
   35.6620   31.1760   41.3530 O   0  0  0  0  0  0  0  0  0  0  0  0
   34.8600   31.1400   40.7740 H   0  0  0  0  0  0  0  0  0  0  0  0
   34.3730   28.8670   35.7630 C   0  0  0  0  0  0  0  0  0  0  0  0
   34.7810   29.2890   34.4940 C   0  0  0  0  0  0  0  0  0  0  0  0
   36.1270   29.2950   34.1800 C   0  0  0  0  0  0  0  0  0  0  0  0
   37.0280   28.8850   35.1350 N   0  0  0  0  0  0  0  0  0  0  0  0
   36.6100   28.4830   36.3510 C   0  0  0  0  0  0  0  0  0  0  0  0
   35.2990   28.4760   36.6590 N   0  0  0  0  0  0  0  0  0  0  0  0
   33.3310   28.8440   36.0560 H   0  0  0  0  0  0  0  0  0  0  0  0
   34.0410   29.6070   33.7600 H   0  0  0  0  0  0  0  0  0  0  0  0
   36.6340   29.7250   32.8660 C   0  0  0  0  0  2  0  0  0  0  0  0
   36.5440   31.2380   32.8110 C   0  0  0  0  0  2  0  0  0  0  0  0
   36.2040   31.5390   31.7990 H   0  0  0  0  0  0  0  0  0  0  0  0
  1  6  1  0  0  0  0
  2  1  2  0  0  0  0
  2  3  1  0  0  0  0
  3  4  2  0  0  0  0
  4  5  1  0  0  0  0
  5  9  1  0  0  0  0
  6  5  2  0  0  0  0
  7  2  1  0  0  0  0
  8  3  1  0  0  0  0
  9 10  2  0  0  0  0
  9 14  1  0  0  0  0
 10 11  1  0  0  0  0
 11 16  1  0  0  0  0
 11 12  2  0  0  0  0
 12 17  1  0  0  0  0
 13 18  1  0  0  0  0
 13 12  1  0  0  0  0
 14 13  2  0  0  0  0
 15 10  1  0  0  0  0
 19 14  1  0  0  0  0
 21 20  2  0  0  0  0
 21 19  1  0  0  0  0
 21 24  1  0  0  0  0
 22 21  1  0  0  0  0
 23 22  1  0  0  0  0
 25 24  1  0  0  0  0
 26 32  1  0  0  0  0
 26 31  1  0  0  0  0
 27 26  2  0  0  0  0
 28 27  1  0  0  0  0
 28 29  2  0  0  0  0
 29 30  1  0  0  0  0
 30 31  2  0  0  0  0
 30  1  1  0  0  0  0
 33 27  1  0  0  0  0
 34 28  1  0  0  0  0
 35 34  1  0  0  0  0
 36 35  1  0  0  0  0
M  END
>  <minimizedAffinity>
-5.76783657

$$$$

 OpenBabel03242521263D

 36 38  0  0  0  0  0  0  0  0999 V2000
   40.1490   33.0890   39.4070 C   0  0  0  0  0  0  0  0  0  0  0  0
   39.3610   34.0030   40.0350 C   0  0  0  0  0  0  0  0  0  0  0  0
   37.9880   33.9270   40.0700 C   0  0  0  0  0  0  0  0  0  0  0  0
   37.4300   32.8710   39.4340 N   0  0  0  0  0  0  0  0  0  0  0  0
   38.2200   31.9640   38.8100 C   0  0  0  0  0  0  0  0  0  0  0  0
   39.5630   32.0510   38.7840 N   0  0  0  0  0  0  0  0  0  0  0  0
   39.8350   34.8360   40.5340 H   0  0  0  0  0  0  0  0  0  0  0  0
   37.3460   34.6400   40.5600 H   0  0  0  0  0  0  0  0  0  0  0  0
   37.5930   30.8150   38.1190 C   0  0  0  0  0  0  0  0  0  0  0  0
   37.2970   30.9180   36.7800 C   0  0  0  0  0  0  0  0  0  0  0  0
   36.7100   29.8990   36.0390 C   0  0  0  0  0  0  0  0  0  0  0  0
   36.4140   28.7220   36.7100 C   0  0  0  0  0  0  0  0  0  0  0  0
   36.7070   28.6260   38.0320 C   0  0  0  0  0  0  0  0  0  0  0  0
   37.2920   29.6420   38.7630 C   0  0  0  0  0  0  0  0  0  0  0  0
   37.5300   31.8430   36.2560 H   0  0  0  0  0  0  0  0  0  0  0  0
   36.4760   29.9720   34.9950 H   0  0  0  0  0  0  0  0  0  0  0  0
   35.9580   27.8520   36.2580 H   0  0  0  0  0  0  0  0  0  0  0  0
   36.4950   27.7260   38.5970 H   0  0  0  0  0  0  0  0  0  0  0  0
   37.6000   29.5670   40.1070 O   0  0  0  0  0  0  0  0  0  0  0  0
   35.4660   28.5380   41.2000 O   0  0  0  0  0  0  0  0  0  0  0  0
   36.5050   29.6330   41.3890 P   0  0  0  0  0  0  0  0  0  0  0  0
   37.2100   29.5140   42.9050 O   0  0  0  0  0  0  0  0  0  0  0  0
   36.4810   29.3710   43.5600 H   0  0  0  0  0  0  0  0  0  0  0  0
   35.6690   31.1130   41.3050 O   0  0  0  0  0  0  0  0  0  0  0  0
   35.6750   31.6060   42.1630 H   0  0  0  0  0  0  0  0  0  0  0  0
   43.5500   34.1220   40.3100 C   0  0  0  0  0  0  0  0  0  0  0  0
   44.3180   33.4250   39.3730 C   0  0  0  0  0  0  0  0  0  0  0  0
   43.6890   32.6160   38.4450 C   0  0  0  0  0  0  0  0  0  0  0  0
   42.3170   32.5210   38.4770 N   0  0  0  0  0  0  0  0  0  0  0  0
   41.5990   33.2040   39.3910 C   0  0  0  0  0  0  0  0  0  0  0  0
   42.2100   33.9930   40.2950 N   0  0  0  0  0  0  0  0  0  0  0  0
   43.9970   34.7680   41.0550 H   0  0  0  0  0  0  0  0  0  0  0  0
   45.4030   33.5220   39.3750 H   0  0  0  0  0  0  0  0  0  0  0  0
   44.4280   31.8510   37.4280 C   0  0  0  0  0  2  0  0  0  0  0  0
   43.4090   31.1260   36.5680 C   0  0  0  0  0  2  0  0  0  0  0  0
   43.7890   30.1090   36.3460 H   0  0  0  0  0  0  0  0  0  0  0  0
  1  2  1  0  0  0  0
  2  3  2  0  0  0  0
  2  7  1  0  0  0  0
  3  8  1  0  0  0  0
  4  3  1  0  0  0  0
  5  4  2  0  0  0  0
  6  5  1  0  0  0  0
  6  1  2  0  0  0  0
  9 14  1  0  0  0  0
  9  5  1  0  0  0  0
 10  9  2  0  0  0  0
 11 12  2  0  0  0  0
 11 10  1  0  0  0  0
 12 13  1  0  0  0  0
 13 18  1  0  0  0  0
 13 14  2  0  0  0  0
 14 19  1  0  0  0  0
 15 10  1  0  0  0  0
 16 11  1  0  0  0  0
 17 12  1  0  0  0  0
 19 21  1  0  0  0  0
 20 21  2  0  0  0  0
 21 22  1  0  0  0  0
 22 23  1  0  0  0  0
 24 21  1  0  0  0  0
 24 25  1  0  0  0  0
 26 32  1  0  0  0  0
 27 33  1  0  0  0  0
 27 26  2  0  0  0  0
 28 29  2  0  0  0  0
 28 27  1  0  0  0  0
 29 30  1  0  0  0  0
 30  1  1  0  0  0  0
 30 31  2  0  0  0  0
 31 26  1  0  0  0  0
 34 28  1  0  0  0  0
 35 34  1  0  0  0  0
 36 35  1  0  0  0  0
M  END
>  <minimizedAffinity>
-5.74725342

$$$$

 OpenBabel03242521263D

 36 38  0  0  0  0  0  0  0  0999 V2000
   39.8190   30.0690   37.6920 C   0  0  0  0  0  0  0  0  0  0  0  0
   40.4400   28.9200   37.3110 C   0  0  0  0  0  0  0  0  0  0  0  0
   39.7800   27.7290   37.1080 C   0  0  0  0  0  0  0  0  0  0  0  0
   38.4420   27.7460   37.3090 N   0  0  0  0  0  0  0  0  0  0  0  0
   37.8280   28.8920   37.6880 C   0  0  0  0  0  0  0  0  0  0  0  0
   38.4880   30.0510   37.8830 N   0  0  0  0  0  0  0  0  0  0  0  0
   41.5100   28.9370   37.1580 H   0  0  0  0  0  0  0  0  0  0  0  0
   40.2520   26.8090   36.8070 H   0  0  0  0  0  0  0  0  0  0  0  0
   36.3650   28.8910   37.9030 C   0  0  0  0  0  0  0  0  0  0  0  0
   35.5270   28.9410   36.8120 C   0  0  0  0  0  0  0  0  0  0  0  0
   34.1400   28.9440   36.9050 C   0  0  0  0  0  0  0  0  0  0  0  0
   33.5930   28.8940   38.1780 C   0  0  0  0  0  0  0  0  0  0  0  0
   34.4240   28.8450   39.2510 C   0  0  0  0  0  0  0  0  0  0  0  0
   35.8030   28.8420   39.1530 C   0  0  0  0  0  0  0  0  0  0  0  0
   35.9590   28.9810   35.8150 H   0  0  0  0  0  0  0  0  0  0  0  0
   33.4800   28.9830   36.0600 H   0  0  0  0  0  0  0  0  0  0  0  0
   32.5340   28.8900   38.3950 H   0  0  0  0  0  0  0  0  0  0  0  0
   34.0430   28.8040   40.2640 H   0  0  0  0  0  0  0  0  0  0  0  0
   36.6670   28.7920   40.2280 O   0  0  0  0  0  0  0  0  0  0  0  0
   38.2450   30.6040   41.2460 O   0  0  0  0  0  0  0  0  0  0  0  0
   36.8660   29.9840   41.4070 P   0  0  0  0  0  0  0  0  0  0  0  0
   35.6840   31.1720   41.3920 O   0  0  0  0  0  0  0  0  0  0  0  0
   35.9950   31.9060   41.9800 H   0  0  0  0  0  0  0  0  0  0  0  0
   36.8470   29.2340   42.9350 O   0  0  0  0  0  0  0  0  0  0  0  0
   36.2140   29.6610   43.5640 H   0  0  0  0  0  0  0  0  0  0  0  0
   42.2580   32.7670   37.2210 C   0  0  0  0  0  0  0  0  0  0  0  0
   41.9320   33.6320   38.2700 C   0  0  0  0  0  0  0  0  0  0  0  0
   40.8980   33.3020   39.1270 C   0  0  0  0  0  0  0  0  0  0  0  0
   40.2180   32.1250   38.9160 N   0  0  0  0  0  0  0  0  0  0  0  0
   40.5520   31.3080   37.8970 C   0  0  0  0  0  0  0  0  0  0  0  0
   41.5590   31.6280   37.0620 N   0  0  0  0  0  0  0  0  0  0  0  0
   43.0590   32.9810   36.5250 H   0  0  0  0  0  0  0  0  0  0  0  0
   42.4910   34.5560   38.4100 H   0  0  0  0  0  0  0  0  0  0  0  0
   40.4960   34.1600   40.2530 C   0  0  0  0  0  2  0  0  0  0  0  0
   39.0110   33.9500   40.4830 C   0  0  0  0  0  2  0  0  0  0  0  0
   38.5440   34.9300   40.7110 H   0  0  0  0  0  0  0  0  0  0  0  0
  1  6  1  0  0  0  0
  1 30  1  0  0  0  0
  2  1  2  0  0  0  0
  3  4  2  0  0  0  0
  3  2  1  0  0  0  0
  4  5  1  0  0  0  0
  5  6  2  0  0  0  0
  5  9  1  0  0  0  0
  7  2  1  0  0  0  0
  8  3  1  0  0  0  0
  9 14  1  0  0  0  0
 10 11  1  0  0  0  0
 10  9  2  0  0  0  0
 11 12  2  0  0  0  0
 12 17  1  0  0  0  0
 12 13  1  0  0  0  0
 13 18  1  0  0  0  0
 14 13  2  0  0  0  0
 14 19  1  0  0  0  0
 15 10  1  0  0  0  0
 16 11  1  0  0  0  0
 19 21  1  0  0  0  0
 20 21  2  0  0  0  0
 21 24  1  0  0  0  0
 22 21  1  0  0  0  0
 22 23  1  0  0  0  0
 24 25  1  0  0  0  0
 26 27  1  0  0  0  0
 27 33  1  0  0  0  0
 27 28  2  0  0  0  0
 28 34  1  0  0  0  0
 29 28  1  0  0  0  0
 30 29  2  0  0  0  0
 31 26  2  0  0  0  0
 31 30  1  0  0  0  0
 32 26  1  0  0  0  0
 34 35  1  0  0  0  0
 35 36  1  0  0  0  0
M  END
>  <minimizedAffinity>
-5.73019791

$$$$

 OpenBabel03242521263D

 36 38  0  0  0  0  0  0  0  0999 V2000
   37.0880   28.1940   41.0170 C   0  0  0  0  0  0  0  0  0  0  0  0
   36.0270   29.0430   40.9420 C   0  0  0  0  0  0  0  0  0  0  0  0
   36.1460   30.4130   40.9680 C   0  0  0  0  0  0  0  0  0  0  0  0
   37.4030   30.9030   41.0740 N   0  0  0  0  0  0  0  0  0  0  0  0
   38.4560   30.0540   41.1470 C   0  0  0  0  0  0  0  0  0  0  0  0
   38.3240   28.7140   41.1200 N   0  0  0  0  0  0  0  0  0  0  0  0
   35.0350   28.6220   40.8590 H   0  0  0  0  0  0  0  0  0  0  0  0
   35.3200   31.1020   40.9120 H   0  0  0  0  0  0  0  0  0  0  0  0
   39.8230   30.6080   41.2620 C   0  0  0  0  0  0  0  0  0  0  0  0
   40.3500   30.8380   42.5120 C   0  0  0  0  0  0  0  0  0  0  0  0
   41.6220   31.3550   42.7280 C   0  0  0  0  0  0  0  0  0  0  0  0
   42.3840   31.6460   41.6070 C   0  0  0  0  0  0  0  0  0  0  0  0
   41.8590   31.4160   40.3760 C   0  0  0  0  0  0  0  0  0  0  0  0
   40.5930   30.9020   40.1660 C   0  0  0  0  0  0  0  0  0  0  0  0
   39.7500   30.6100   43.3890 H   0  0  0  0  0  0  0  0  0  0  0  0
   42.0400   31.5380   43.6990 H   0  0  0  0  0  0  0  0  0  0  0  0
   43.3870   32.0500   41.6300 H   0  0  0  0  0  0  0  0  0  0  0  0
   42.4170   31.6270   39.4710 H   0  0  0  0  0  0  0  0  0  0  0  0
   40.0390   30.6600   38.9260 O   0  0  0  0  0  0  0  0  0  0  0  0
   38.0040   30.9680   37.3220 O   0  0  0  0  0  0  0  0  0  0  0  0
   39.1150   31.7400   38.0150 P   0  0  0  0  0  0  0  0  0  0  0  0
   38.4790   33.0170   38.8960 O   0  0  0  0  0  0  0  0  0  0  0  0
   37.8130   33.4700   38.3210 H   0  0  0  0  0  0  0  0  0  0  0  0
   40.1000   32.3820   36.7840 O   0  0  0  0  0  0  0  0  0  0  0  0
   40.0730   33.3710   36.7480 H   0  0  0  0  0  0  0  0  0  0  0  0
   37.0400   24.6910   42.1010 C   0  0  0  0  0  0  0  0  0  0  0  0
   36.6150   24.0390   40.9410 C   0  0  0  0  0  0  0  0  0  0  0  0
   36.3490   24.7800   39.8040 C   0  0  0  0  0  0  0  0  0  0  0  0
   36.5120   26.1450   39.8540 N   0  0  0  0  0  0  0  0  0  0  0  0
   36.9230   26.7500   40.9860 C   0  0  0  0  0  0  0  0  0  0  0  0
   37.1820   26.0300   42.0940 N   0  0  0  0  0  0  0  0  0  0  0  0
   37.2600   24.1550   43.0160 H   0  0  0  0  0  0  0  0  0  0  0  0
   36.4960   22.9560   40.9340 H   0  0  0  0  0  0  0  0  0  0  0  0
   35.8980   24.1660   38.5430 C   0  0  0  0  0  2  0  0  0  0  0  0
   35.4490   25.2850   37.6230 C   0  0  0  0  0  2  0  0  0  0  0  0
   34.5330   24.9610   37.0880 H   0  0  0  0  0  0  0  0  0  0  0  0
  1  6  1  0  0  0  0
  2  3  1  0  0  0  0
  2  1  2  0  0  0  0
  3  4  2  0  0  0  0
  4  5  1  0  0  0  0
  5  9  1  0  0  0  0
  6  5  2  0  0  0  0
  7  2  1  0  0  0  0
  8  3  1  0  0  0  0
  9 10  1  0  0  0  0
 10 11  2  0  0  0  0
 10 15  1  0  0  0  0
 11 16  1  0  0  0  0
 12 17  1  0  0  0  0
 12 11  1  0  0  0  0
 13 12  2  0  0  0  0
 14 13  1  0  0  0  0
 14  9  2  0  0  0  0
 18 13  1  0  0  0  0
 19 14  1  0  0  0  0
 20 21  2  0  0  0  0
 21 22  1  0  0  0  0
 21 19  1  0  0  0  0
 23 22  1  0  0  0  0
 24 21  1  0  0  0  0
 25 24  1  0  0  0  0
 26 32  1  0  0  0  0
 27 26  2  0  0  0  0
 28 29  2  0  0  0  0
 28 27  1  0  0  0  0
 29 30  1  0  0  0  0
 30  1  1  0  0  0  0
 30 31  2  0  0  0  0
 31 26  1  0  0  0  0
 33 27  1  0  0  0  0
 34 28  1  0  0  0  0
 35 34  1  0  0  0  0
 36 35  1  0  0  0  0
M  END
>  <minimizedAffinity>
-5.67955637

$$$$

 OpenBabel03242521263D

 36 38  0  0  0  0  0  0  0  0999 V2000
   38.0110   30.7030   38.8400 C   0  0  0  0  0  0  0  0  0  0  0  0
   37.0220   31.5960   39.1110 C   0  0  0  0  0  0  0  0  0  0  0  0
   37.1710   32.6590   39.9720 C   0  0  0  0  0  0  0  0  0  0  0  0
   38.3840   32.7870   40.5600 N   0  0  0  0  0  0  0  0  0  0  0  0
   39.3660   31.8950   40.2860 C   0  0  0  0  0  0  0  0  0  0  0  0
   39.2050   30.8590   39.4400 N   0  0  0  0  0  0  0  0  0  0  0  0
   36.0640   31.4680   38.6270 H   0  0  0  0  0  0  0  0  0  0  0  0
   36.4010   33.3760   40.2020 H   0  0  0  0  0  0  0  0  0  0  0  0
   40.6850   32.0500   40.9380 C   0  0  0  0  0  0  0  0  0  0  0  0
   40.9340   31.3820   42.1140 C   0  0  0  0  0  0  0  0  0  0  0  0
   42.1380   31.4600   42.8050 C   0  0  0  0  0  0  0  0  0  0  0  0
   43.1280   32.2620   42.2580 C   0  0  0  0  0  0  0  0  0  0  0  0
   42.8760   32.9200   41.0970 C   0  0  0  0  0  0  0  0  0  0  0  0
   41.6770   32.8380   40.4140 C   0  0  0  0  0  0  0  0  0  0  0  0
   40.1560   30.7540   42.5410 H   0  0  0  0  0  0  0  0  0  0  0  0
   42.3410   30.9430   43.7220 H   0  0  0  0  0  0  0  0  0  0  0  0
   44.1080   32.4130   42.6880 H   0  0  0  0  0  0  0  0  0  0  0  0
   43.6190   33.5570   40.6320 H   0  0  0  0  0  0  0  0  0  0  0  0
   41.3990   33.4960   39.2330 O   0  0  0  0  0  0  0  0  0  0  0  0
   42.7060   31.7930   37.7500 O   0  0  0  0  0  0  0  0  0  0  0  0
   41.6830   32.9160   37.6740 P   0  0  0  0  0  0  0  0  0  0  0  0
   40.3060   32.4000   36.8680 O   0  0  0  0  0  0  0  0  0  0  0  0
   40.6020   31.9120   36.0590 H   0  0  0  0  0  0  0  0  0  0  0  0
   42.3980   34.1610   36.7600 O   0  0  0  0  0  0  0  0  0  0  0  0
   41.9390   34.3160   35.8970 H   0  0  0  0  0  0  0  0  0  0  0  0
   38.7430   27.9390   36.5430 C   0  0  0  0  0  0  0  0  0  0  0  0
   37.4590   27.5040   36.2020 C   0  0  0  0  0  0  0  0  0  0  0  0
   36.3590   28.1420   36.7450 C   0  0  0  0  0  0  0  0  0  0  0  0
   36.5660   29.1910   37.6100 N   0  0  0  0  0  0  0  0  0  0  0  0
   37.8150   29.5910   37.9230 C   0  0  0  0  0  0  0  0  0  0  0  0
   38.8870   28.9710   37.3950 N   0  0  0  0  0  0  0  0  0  0  0  0
   39.6350   27.4720   36.1440 H   0  0  0  0  0  0  0  0  0  0  0  0
   37.3290   26.6710   35.5130 H   0  0  0  0  0  0  0  0  0  0  0  0
   34.9760   27.7430   36.4350 C   0  0  0  0  0  2  0  0  0  0  0  0
   34.0490   28.6400   37.2330 C   0  0  0  0  0  2  0  0  0  0  0  0
   33.2090   28.0300   37.6210 H   0  0  0  0  0  0  0  0  0  0  0  0
  1  2  2  0  0  0  0
  1  6  1  0  0  0  0
  2  3  1  0  0  0  0
  3  8  1  0  0  0  0
  3  4  2  0  0  0  0
  5  4  1  0  0  0  0
  5  9  1  0  0  0  0
  6  5  2  0  0  0  0
  7  2  1  0  0  0  0
  9 10  1  0  0  0  0
 10 15  1  0  0  0  0
 10 11  2  0  0  0  0
 11 16  1  0  0  0  0
 12 17  1  0  0  0  0
 12 11  1  0  0  0  0
 13 12  2  0  0  0  0
 14  9  2  0  0  0  0
 14 13  1  0  0  0  0
 18 13  1  0  0  0  0
 19 14  1  0  0  0  0
 21 20  2  0  0  0  0
 21 19  1  0  0  0  0
 22 21  1  0  0  0  0
 23 22  1  0  0  0  0
 24 21  1  0  0  0  0
 25 24  1  0  0  0  0
 26 31  1  0  0  0  0
 27 26  2  0  0  0  0
 27 28  1  0  0  0  0
 28 29  2  0  0  0  0
 29 30  1  0  0  0  0
 30  1  1  0  0  0  0
 31 30  2  0  0  0  0
 32 26  1  0  0  0  0
 33 27  1  0  0  0  0
 34 28  1  0  0  0  0
 34 35  1  0  0  0  0
 35 36  1  0  0  0  0
M  END
>  <minimizedAffinity>
-5.63120985

$$$$

 OpenBabel03242521263D

 36 38  0  0  0  0  0  0  0  0999 V2000
   39.3360   27.2580   42.4460 C   0  0  0  0  0  0  0  0  0  0  0  0
   38.6310   27.3670   43.6040 C   0  0  0  0  0  0  0  0  0  0  0  0
   37.3720   27.9190   43.6800 C   0  0  0  0  0  0  0  0  0  0  0  0
   36.8440   28.3660   42.5170 N   0  0  0  0  0  0  0  0  0  0  0  0
   37.5510   28.2550   41.3660 C   0  0  0  0  0  0  0  0  0  0  0  0
   38.7820   27.7120   41.3070 N   0  0  0  0  0  0  0  0  0  0  0  0
   39.0790   27.0020   44.5170 H   0  0  0  0  0  0  0  0  0  0  0  0
   36.7980   28.0150   44.5850 H   0  0  0  0  0  0  0  0  0  0  0  0
   36.9570   28.7490   40.1040 C   0  0  0  0  0  0  0  0  0  0  0  0
   36.2650   27.8720   39.3010 C   0  0  0  0  0  0  0  0  0  0  0  0
   35.6690   28.2340   38.0980 C   0  0  0  0  0  0  0  0  0  0  0  0
   35.7940   29.5580   37.7060 C   0  0  0  0  0  0  0  0  0  0  0  0
   36.4780   30.4190   38.5020 C   0  0  0  0  0  0  0  0  0  0  0  0
   37.0680   30.0540   39.6980 C   0  0  0  0  0  0  0  0  0  0  0  0
   36.1690   26.8340   39.6100 H   0  0  0  0  0  0  0  0  0  0  0  0
   35.1280   27.5560   37.4660 H   0  0  0  0  0  0  0  0  0  0  0  0
   35.3820   29.9740   36.7970 H   0  0  0  0  0  0  0  0  0  0  0  0
   36.6010   31.4620   38.2380 H   0  0  0  0  0  0  0  0  0  0  0  0
   37.7680   30.9100   40.5230 O   0  0  0  0  0  0  0  0  0  0  0  0
   39.0840   32.5100   38.9360 O   0  0  0  0  0  0  0  0  0  0  0  0
   38.2010   32.5040   40.1740 P   0  0  0  0  0  0  0  0  0  0  0  0
   36.9010   33.5430   39.9710 O   0  0  0  0  0  0  0  0  0  0  0  0
   37.2530   34.3860   39.5880 H   0  0  0  0  0  0  0  0  0  0  0  0
   39.1570   33.0930   41.4540 O   0  0  0  0  0  0  0  0  0  0  0  0
   38.8380   33.9620   41.8020 H   0  0  0  0  0  0  0  0  0  0  0  0
   42.3990   25.5500   43.5180 C   0  0  0  0  0  0  0  0  0  0  0  0
   43.1560   25.5570   42.3430 C   0  0  0  0  0  0  0  0  0  0  0  0
   42.6330   26.1350   41.2010 C   0  0  0  0  0  0  0  0  0  0  0  0
   41.3740   26.6880   41.2600 N   0  0  0  0  0  0  0  0  0  0  0  0
   40.6650   26.6680   42.4060 C   0  0  0  0  0  0  0  0  0  0  0  0
   41.1730   26.1050   43.5190 N   0  0  0  0  0  0  0  0  0  0  0  0
   42.7650   25.1100   44.4370 H   0  0  0  0  0  0  0  0  0  0  0  0
   44.1490   25.1110   42.3300 H   0  0  0  0  0  0  0  0  0  0  0  0
   43.3670   26.1820   39.9260 C   0  0  0  0  0  2  0  0  0  0  0  0
   43.6930   24.7550   39.5310 C   0  0  0  0  0  2  0  0  0  0  0  0
   44.7200   24.7260   39.1130 H   0  0  0  0  0  0  0  0  0  0  0  0
  1  2  1  0  0  0  0
  2  3  2  0  0  0  0
  2  7  1  0  0  0  0
  3  8  1  0  0  0  0
  4  3  1  0  0  0  0
  5  4  2  0  0  0  0
  6  5  1  0  0  0  0
  6  1  2  0  0  0  0
  9  5  1  0  0  0  0
 10 15  1  0  0  0  0
 10  9  2  0  0  0  0
 11 10  1  0  0  0  0
 12 11  2  0  0  0  0
 12 13  1  0  0  0  0
 13 14  2  0  0  0  0
 14  9  1  0  0  0  0
 14 19  1  0  0  0  0
 16 11  1  0  0  0  0
 17 12  1  0  0  0  0
 18 13  1  0  0  0  0
 20 21  2  0  0  0  0
 21 19  1  0  0  0  0
 21 24  1  0  0  0  0
 22 21  1  0  0  0  0
 23 22  1  0  0  0  0
 24 25  1  0  0  0  0
 26 31  1  0  0  0  0
 26 32  1  0  0  0  0
 27 26  2  0  0  0  0
 28 29  2  0  0  0  0
 28 27  1  0  0  0  0
 29 30  1  0  0  0  0
 30  1  1  0  0  0  0
 30 31  2  0  0  0  0
 33 27  1  0  0  0  0
 34 28  1  0  0  0  0
 35 34  1  0  0  0  0
 36 35  1  0  0  0  0
M  END
>  <minimizedAffinity>
-5.51878643

$$$$
