
 OpenBabel03252508583D

 33 34  0  0  1  0  0  0  0  0999 V2000
   52.9580   29.7940   43.0900 N   0  0  0  0  0  0  0  0  0  0  0  0
   54.1500   29.2650   42.5230 C   0  0  0  0  0  0  0  0  0  0  0  0
   54.0620   28.6750   41.1520 C   0  0  0  0  0  0  0  0  0  0  0  0
   53.0310   29.3000   40.2550 C   0  0  0  0  0  0  0  0  0  0  0  0
   52.3490   30.4410   40.8980 C   0  0  0  0  0  0  0  0  0  0  0  0
   51.8330   29.9630   42.2850 C   0  0  2  0  0  0  0  0  0  0  0  0
   54.6060   28.5150   43.2000 H   0  0  0  0  0  0  0  0  0  0  0  0
   54.8810   30.1030   42.4710 H   0  0  0  0  0  0  0  0  0  0  0  0
   55.0950   28.6910   40.7220 H   0  0  0  0  0  0  0  0  0  0  0  0
   53.7680   27.5950   41.2830 H   0  0  0  0  0  0  0  0  0  0  0  0
   52.3470   28.5570   39.8000 H   0  0  0  0  0  0  0  0  0  0  0  0
   53.6050   29.7150   39.3750 H   0  0  0  0  0  0  0  0  0  0  0  0
   53.0640   31.2760   41.0460 H   0  0  0  0  0  0  0  0  0  0  0  0
   51.5020   30.7240   40.2390 H   0  0  0  0  0  0  0  0  0  0  0  0
   51.2390   29.0740   42.0090 H   0  0  0  0  0  0  0  0  0  0  0  0
   52.7680   29.4620   44.4600 C   0  0  0  0  0  0  0  0  0  0  0  0
   52.5990   28.3930   44.6290 H   0  0  0  0  0  0  0  0  0  0  0  0
   51.7980   29.9520   44.7680 H   0  0  0  0  0  0  0  0  0  0  0  0
   53.8570   29.9970   45.3120 C   0  0  0  0  0  0  0  0  0  0  0  0
   54.3880   30.8770   44.9710 H   0  0  0  0  0  0  0  0  0  0  0  0
   54.5260   29.1100   45.5480 H   0  0  0  0  0  0  0  0  0  0  0  0
   51.7580   29.9040   48.4270 C   0  0  0  0  0  0  0  0  0  0  0  0
   52.3000   29.5840   47.1790 C   0  0  0  0  0  0  0  0  0  0  0  0
   53.2980   30.3680   46.6470 C   0  0  0  0  0  0  0  0  0  0  0  0
   53.7090   31.4210   47.3710 N   0  0  0  0  0  0  0  0  0  0  0  0
   53.1780   31.7200   48.5740 C   0  0  0  0  0  0  0  0  0  0  0  0
   52.2040   30.9680   49.1090 N   0  0  0  0  0  0  0  0  0  0  0  0
   50.9840   29.2980   48.8410 H   0  0  0  0  0  0  0  0  0  0  0  0
   51.8780   28.6960   46.6850 H   0  0  0  0  0  0  0  0  0  0  0  0
   53.5580   32.5920   49.1110 H   0  0  0  0  0  0  0  0  0  0  0  0
   50.9600   31.1670   42.6520 C   0  0  0  0  0  2  0  0  0  0  0  0
   51.1350   32.2910   41.6290 C   0  0  0  0  0  2  0  0  0  0  0  0
   51.2030   31.9030   40.5980 H   0  0  0  0  0  0  0  0  0  0  0  0
  1 16  1  0  0  0  0
  2  1  1  0  0  0  0
  2  7  1  0  0  0  0
  3 10  1  0  0  0  0
  3  2  1  0  0  0  0
  4  5  1  0  0  0  0
  4  3  1  0  0  0  0
  5 13  1  0  0  0  0
  5  6  1  0  0  0  0
  6 15  1  6  0  0  0
  6 31  1  0  0  0  0
  6  1  1  0  0  0  0
  8  2  1  0  0  0  0
  9  3  1  0  0  0  0
 11  4  1  0  0  0  0
 12  4  1  0  0  0  0
 14  5  1  0  0  0  0
 16 17  1  0  0  0  0
 16 18  1  0  0  0  0
 16 19  1  0  0  0  0
 19 21  1  0  0  0  0
 19 24  1  0  0  0  0
 20 19  1  0  0  0  0
 22 28  1  0  0  0  0
 22 27  1  0  0  0  0
 23 22  2  0  0  0  0
 24 23  1  0  0  0  0
 24 25  2  0  0  0  0
 25 26  1  0  0  0  0
 26 27  2  0  0  0  0
 26 30  1  0  0  0  0
 29 23  1  0  0  0  0
 32 31  1  0  0  0  0
 33 32  1  0  0  0  0
M  END
>  <minimizedAffinity>
-2.06623816

>  <minimizedRMSD>
7.85524511

$$$$
