
 OpenBabel03252504493D

 18 18  0  0  0  0  0  0  0  0999 V2000
   45.4110   34.9130   44.1600 C   0  0  0  0  0  0  0  0  0  0  0  0
   46.4540   34.4470   43.3620 C   0  0  0  0  0  0  0  0  0  0  0  0
   47.2420   33.4110   43.8650 C   0  0  0  0  0  0  0  0  0  0  0  0
   46.9500   32.9120   45.1040 N   0  0  0  0  0  0  0  0  0  0  0  0
   45.9250   33.3920   45.8510 C   0  0  0  0  0  0  0  0  0  0  0  0
   45.1600   34.3870   45.3800 N   0  0  0  0  0  0  0  0  0  0  0  0
   44.7840   35.7150   43.7960 H   0  0  0  0  0  0  0  0  0  0  0  0
   48.0500   33.0230   43.2910 H   0  0  0  0  0  0  0  0  0  0  0  0
   46.6600   35.0500   42.0700 C   0  0  0  0  0  0  0  0  0  0  0  0
   46.3400   34.3320   41.2890 H   0  0  0  0  0  0  0  0  0  0  0  0
   46.1780   36.0290   41.9930 H   0  0  0  0  0  0  0  0  0  0  0  0
   48.1490   35.2360   41.8470 C   0  0  0  0  0  0  0  0  0  0  0  0
   48.2460   35.7820   40.8650 H   0  0  0  0  0  0  0  0  0  0  0  0
   48.4860   35.9710   42.5970 H   0  0  0  0  0  0  0  0  0  0  0  0
   48.7180   34.2980   41.8640 H   0  0  0  0  0  0  0  0  0  0  0  0
   45.7190   32.7580   47.1780 C   0  0  0  0  0  0  0  0  0  0  0  0
   47.1120   32.3720   47.6630 C   0  0  0  0  0  0  0  0  0  0  0  0
   47.6780   33.2750   47.8900 H   0  0  0  0  0  0  0  0  0  0  0  0
  1  6  1  0  0  0  0
  2  3  1  0  0  0  0
  2  1  2  0  0  0  0
  3  4  2  0  0  0  0
  4  5  1  0  0  0  0
  5 16  1  0  0  0  0
  6  5  2  0  0  0  0
  7  1  1  0  0  0  0
  8  3  1  0  0  0  0
  9  2  1  0  0  0  0
 10  9  1  0  0  0  0
 11  9  1  0  0  0  0
 12 15  1  0  0  0  0
 12  9  1  0  0  0  0
 12 14  1  0  0  0  0
 13 12  1  0  0  0  0
 16 17  1  0  0  0  0
 17 18  1  0  0  0  0
M  END
>  <minimizedAffinity>
-3.53239727

>  <minimizedRMSD>
0.88234669

$$$$
