
 OpenBabel03242523243D

 37 39  0  0  1  0  0  0  0  0999 V2000
   36.7830   30.2820   40.9230 C   0  0  0  0  0  0  0  0  0  0  0  0
   36.1850   31.2360   41.3300 O   0  0  0  0  0  0  0  0  0  0  0  0
   37.6460   32.1910   38.6560 Cl  0  0  0  0  0  0  0  0  0  0  0  0
   38.7030   31.7540   39.9780 C   0  0  0  0  0  0  0  0  0  0  0  0
   38.1560   30.8760   40.9490 C   0  0  0  0  0  0  0  0  0  0  0  0
   39.0780   30.6160   41.9370 C   0  0  0  0  0  0  0  0  0  0  0  0
   40.3240   31.0390   42.0980 C   0  0  0  0  0  0  0  0  0  0  0  0
   40.7950   31.8880   41.1200 C   0  0  0  0  0  0  0  0  0  0  0  0
   40.0040   32.2510   40.0650 C   0  0  0  0  0  0  0  0  0  0  0  0
   38.7610   29.9640   42.7850 H   0  0  0  0  0  0  0  0  0  0  0  0
   40.9870   30.7750   42.9210 H   0  0  0  0  0  0  0  0  0  0  0  0
   41.8300   32.2640   41.2160 H   0  0  0  0  0  0  0  0  0  0  0  0
   40.5830   33.1000   39.1680 O   0  0  0  0  0  0  0  0  0  0  0  0
   42.3650   31.6690   37.8860 O   0  0  0  0  0  0  0  0  0  0  0  0
   41.3360   32.7610   37.6870 P   0  0  0  0  0  0  0  0  0  0  0  0
   40.1600   32.2980   36.5550 O   0  0  0  0  0  0  0  0  0  0  0  0
   40.0650   31.2940   36.5510 H   0  0  0  0  0  0  0  0  0  0  0  0
   42.0760   34.1350   37.0360 O   0  0  0  0  0  0  0  0  0  0  0  0
   41.5340   34.5780   36.3410 H   0  0  0  0  0  0  0  0  0  0  0  0
   36.8910   28.8930   40.4300 C   0  0  0  0  0  0  0  0  0  0  0  0
   36.9190   27.7920   41.1750 C   0  0  0  0  0  0  0  0  0  0  0  0
   37.0980   26.6320   40.4720 C   0  0  0  0  0  0  0  0  0  0  0  0
   37.2300   26.6970   39.0690 N   0  0  0  0  0  0  0  0  0  0  0  0
   37.1910   27.8220   38.3960 C   0  0  0  0  0  0  0  0  0  0  0  0
   37.0140   29.0130   39.0700 N   0  0  0  0  0  0  0  0  0  0  0  0
   37.1530   25.6170   40.7590 H   0  0  0  0  0  0  0  0  0  0  0  0
   37.3020   27.7900   37.2990 H   0  0  0  0  0  0  0  0  0  0  0  0
   36.6730   27.6820   42.5630 C   0  0  1  0  0  0  0  0  0  0  0  0
   36.8050   26.5930   43.3670 C   0  0  0  0  0  0  0  0  0  0  0  0
   37.8970   27.5930   43.5380 C   0  0  1  0  0  0  0  0  0  0  0  0
   35.8640   28.3870   42.9250 H   0  0  0  0  0  0  0  0  0  0  0  0
   37.1190   25.5930   42.9410 H   0  0  0  0  0  0  0  0  0  0  0  0
   36.2820   26.3740   44.3340 H   0  0  0  0  0  0  0  0  0  0  0  0
   37.8510   28.3190   44.3950 H   0  0  0  0  0  0  0  0  0  0  0  0
   39.2350   27.2550   43.0190 C   0  0  0  0  0  2  0  0  0  0  0  0
   39.7000   25.9350   43.6800 C   0  0  0  0  0  2  0  0  0  0  0  0
   39.9630   26.1180   44.7270 H   0  0  0  0  0  0  0  0  0  0  0  0
  1  5  1  0  0  0  0
  1  2  2  0  0  0  0
  3  4  1  0  0  0  0
  4  9  2  0  0  0  0
  4  5  1  0  0  0  0
  5  6  2  0  0  0  0
  6  7  1  0  0  0  0
  6 10  1  0  0  0  0
  7 11  1  0  0  0  0
  8 12  1  0  0  0  0
  8  7  2  0  0  0  0
  9  8  1  0  0  0  0
 13  9  1  0  0  0  0
 15 14  2  0  0  0  0
 15 13  1  0  0  0  0
 16 15  1  0  0  0  0
 17 16  1  0  0  0  0
 18 15  1  0  0  0  0
 19 18  1  0  0  0  0
 20  1  1  0  0  0  0
 20 21  1  0  0  0  0
 21 28  1  0  0  0  0
 22 26  1  0  0  0  0
 22 21  2  0  0  0  0
 23 22  1  0  0  0  0
 24 23  2  0  0  0  0
 24 25  1  0  0  0  0
 25 20  2  0  0  0  0
 27 24  1  0  0  0  0
 28 31  1  1  0  0  0
 28 29  1  0  0  0  0
 28 30  1  0  0  0  0
 29 30  1  0  0  0  0
 29 33  1  0  0  0  0
 30 34  1  1  0  0  0
 32 29  1  0  0  0  0
 35 30  1  0  0  0  0
 35 36  1  0  0  0  0
 36 37  1  0  0  0  0
M  END
>  <minimizedAffinity>
-6.0665288

$$$$

 OpenBabel03242523243D

 37 39  0  0  1  0  0  0  0  0999 V2000
   36.1000   28.0110   39.3030 C   0  0  0  0  0  0  0  0  0  0  0  0
   35.2070   28.4090   38.6120 O   0  0  0  0  0  0  0  0  0  0  0  0
   38.9660   28.4410   38.2390 Cl  0  0  0  0  0  0  0  0  0  0  0  0
   38.0920   29.6690   39.1230 C   0  0  0  0  0  0  0  0  0  0  0  0
   36.7780   29.3250   39.5360 C   0  0  0  0  0  0  0  0  0  0  0  0
   36.1950   30.3720   40.2110 C   0  0  0  0  0  0  0  0  0  0  0  0
   36.6570   31.5770   40.5150 C   0  0  0  0  0  0  0  0  0  0  0  0
   37.9390   31.8480   40.0880 C   0  0  0  0  0  0  0  0  0  0  0  0
   38.6600   30.9140   39.3970 C   0  0  0  0  0  0  0  0  0  0  0  0
   35.1430   30.2430   40.5610 H   0  0  0  0  0  0  0  0  0  0  0  0
   36.1170   32.3490   41.0620 H   0  0  0  0  0  0  0  0  0  0  0  0
   38.3620   32.8420   40.3200 H   0  0  0  0  0  0  0  0  0  0  0  0
   39.9130   31.3050   39.0240 O   0  0  0  0  0  0  0  0  0  0  0  0
   41.2770   33.2000   37.8340 O   0  0  0  0  0  0  0  0  0  0  0  0
   40.4510   31.9620   37.5560 P   0  0  0  0  0  0  0  0  0  0  0  0
   41.3540   30.7950   36.7190 O   0  0  0  0  0  0  0  0  0  0  0  0
   42.3330   30.8990   36.9370 H   0  0  0  0  0  0  0  0  0  0  0  0
   39.1580   32.3510   36.5390 O   0  0  0  0  0  0  0  0  0  0  0  0
   38.9850   31.6690   35.8480 H   0  0  0  0  0  0  0  0  0  0  0  0
   36.8620   26.9670   40.0200 C   0  0  0  0  0  0  0  0  0  0  0  0
   37.0970   26.9220   41.3280 C   0  0  0  0  0  0  0  0  0  0  0  0
   37.8930   25.8830   41.7290 C   0  0  0  0  0  0  0  0  0  0  0  0
   38.3750   24.9800   40.7590 N   0  0  0  0  0  0  0  0  0  0  0  0
   38.1000   25.0830   39.4800 C   0  0  0  0  0  0  0  0  0  0  0  0
   37.3030   26.1190   39.0380 N   0  0  0  0  0  0  0  0  0  0  0  0
   38.2480   25.5700   42.6730 H   0  0  0  0  0  0  0  0  0  0  0  0
   38.5150   24.3360   38.7850 H   0  0  0  0  0  0  0  0  0  0  0  0
   36.5360   27.7390   42.3360 C   0  0  1  0  0  0  0  0  0  0  0  0
   36.7420   27.6970   43.6790 C   0  0  0  0  0  0  0  0  0  0  0  0
   37.4390   28.8310   43.0070 C   0  0  1  0  0  0  0  0  0  0  0  0
   35.5010   28.1160   42.0720 H   0  0  0  0  0  0  0  0  0  0  0  0
   37.4160   26.9120   44.1380 H   0  0  0  0  0  0  0  0  0  0  0  0
   36.0650   28.0490   44.4990 H   0  0  0  0  0  0  0  0  0  0  0  0
   36.9750   29.8550   43.0310 H   0  0  0  0  0  0  0  0  0  0  0  0
   38.9060   28.7640   42.8750 C   0  0  0  0  0  2  0  0  0  0  0  0
   39.4660   30.2070   42.8650 C   0  0  0  0  0  2  0  0  0  0  0  0
   39.2290   30.6890   41.9100 H   0  0  0  0  0  0  0  0  0  0  0  0
  1  5  1  0  0  0  0
  1 20  1  0  0  0  0
  2  1  2  0  0  0  0
  3  4  1  0  0  0  0
  4  9  2  0  0  0  0
  4  5  1  0  0  0  0
  5  6  2  0  0  0  0
  6  7  1  0  0  0  0
  6 10  1  0  0  0  0
  7 11  1  0  0  0  0
  8 12  1  0  0  0  0
  8  7  2  0  0  0  0
  9  8  1  0  0  0  0
 13  9  1  0  0  0  0
 15 14  2  0  0  0  0
 15 13  1  0  0  0  0
 16 17  1  0  0  0  0
 16 15  1  0  0  0  0
 18 15  1  0  0  0  0
 19 18  1  0  0  0  0
 20 21  1  0  0  0  0
 21 22  2  0  0  0  0
 21 28  1  0  0  0  0
 22 26  1  0  0  0  0
 23 22  1  0  0  0  0
 24 23  2  0  0  0  0
 25 24  1  0  0  0  0
 25 20  2  0  0  0  0
 27 24  1  0  0  0  0
 28 31  1  6  0  0  0
 28 30  1  0  0  0  0
 28 29  1  0  0  0  0
 29 32  1  0  0  0  0
 29 33  1  0  0  0  0
 30 34  1  1  0  0  0
 30 29  1  0  0  0  0
 35 30  1  0  0  0  0
 36 35  1  0  0  0  0
 37 36  1  0  0  0  0
M  END
>  <minimizedAffinity>
-5.96758413

$$$$

 OpenBabel03242523243D

 37 39  0  0  1  0  0  0  0  0999 V2000
   36.7920   30.1500   41.2460 C   0  0  0  0  0  0  0  0  0  0  0  0
   36.1620   31.1590   41.3820 O   0  0  0  0  0  0  0  0  0  0  0  0
   37.4780   32.0360   38.9000 Cl  0  0  0  0  0  0  0  0  0  0  0  0
   38.6230   31.6400   40.1600 C   0  0  0  0  0  0  0  0  0  0  0  0
   38.1540   30.7680   41.1770 C   0  0  0  0  0  0  0  0  0  0  0  0
   39.1400   30.5410   42.1090 C   0  0  0  0  0  0  0  0  0  0  0  0
   40.3860   30.9880   42.1860 C   0  0  0  0  0  0  0  0  0  0  0  0
   40.7790   31.8280   41.1670 C   0  0  0  0  0  0  0  0  0  0  0  0
   39.9180   32.1600   40.1590 C   0  0  0  0  0  0  0  0  0  0  0  0
   38.8880   29.8970   42.9850 H   0  0  0  0  0  0  0  0  0  0  0  0
   41.1030   30.7490   42.9700 H   0  0  0  0  0  0  0  0  0  0  0  0
   41.8110   32.2240   41.1930 H   0  0  0  0  0  0  0  0  0  0  0  0
   40.4250   33.0040   39.2140 O   0  0  0  0  0  0  0  0  0  0  0  0
   42.0700   31.4700   37.8700 O   0  0  0  0  0  0  0  0  0  0  0  0
   41.1350   32.6510   37.7150 P   0  0  0  0  0  0  0  0  0  0  0  0
   39.9150   32.3230   36.5810 O   0  0  0  0  0  0  0  0  0  0  0  0
   39.7360   31.3320   36.5470 H   0  0  0  0  0  0  0  0  0  0  0  0
   41.9820   33.9770   37.1000 O   0  0  0  0  0  0  0  0  0  0  0  0
   41.4750   34.4860   36.4240 H   0  0  0  0  0  0  0  0  0  0  0  0
   36.9450   28.6860   41.1140 C   0  0  0  0  0  0  0  0  0  0  0  0
   36.9700   27.9970   39.9770 C   0  0  0  0  0  0  0  0  0  0  0  0
   37.0500   26.6390   40.1350 C   0  0  0  0  0  0  0  0  0  0  0  0
   37.1010   26.1060   41.4400 N   0  0  0  0  0  0  0  0  0  0  0  0
   37.0750   26.8490   42.5210 C   0  0  0  0  0  0  0  0  0  0  0  0
   36.9920   28.2210   42.4020 N   0  0  0  0  0  0  0  0  0  0  0  0
   37.0980   25.8360   39.4510 H   0  0  0  0  0  0  0  0  0  0  0  0
   37.1190   26.3560   43.5060 H   0  0  0  0  0  0  0  0  0  0  0  0
   37.0380   28.5040   38.6600 C   0  0  1  0  0  0  0  0  0  0  0  0
   36.5930   27.9400   37.5050 C   0  0  0  0  0  0  0  0  0  0  0  0
   35.7270   29.0500   37.9960 C   0  0  1  0  0  0  0  0  0  0  0  0
   37.9360   29.1740   38.4910 H   0  0  0  0  0  0  0  0  0  0  0  0
   36.1190   26.9120   37.5080 H   0  0  0  0  0  0  0  0  0  0  0  0
   36.9510   28.1190   36.4590 H   0  0  0  0  0  0  0  0  0  0  0  0
   35.8360   30.0740   37.5460 H   0  0  0  0  0  0  0  0  0  0  0  0
   34.4100   28.7050   38.5620 C   0  0  0  0  0  2  0  0  0  0  0  0
   33.3310   28.9360   37.4770 C   0  0  0  0  0  2  0  0  0  0  0  0
   33.1790   30.0110   37.3300 H   0  0  0  0  0  0  0  0  0  0  0  0
  1  2  2  0  0  0  0
  3  4  1  0  0  0  0
  4  5  1  0  0  0  0
  5  1  1  0  0  0  0
  5  6  2  0  0  0  0
  6  7  1  0  0  0  0
  6 10  1  0  0  0  0
  7 11  1  0  0  0  0
  8 12  1  0  0  0  0
  8  7  2  0  0  0  0
  9  4  2  0  0  0  0
  9  8  1  0  0  0  0
 13  9  1  0  0  0  0
 15 14  2  0  0  0  0
 15 13  1  0  0  0  0
 16 15  1  0  0  0  0
 17 16  1  0  0  0  0
 18 15  1  0  0  0  0
 19 18  1  0  0  0  0
 20  1  1  0  0  0  0
 20 25  1  0  0  0  0
 21 22  1  0  0  0  0
 21 20  2  0  0  0  0
 22 23  2  0  0  0  0
 23 24  1  0  0  0  0
 24 27  1  0  0  0  0
 25 24  2  0  0  0  0
 26 22  1  0  0  0  0
 28 31  1  6  0  0  0
 28 21  1  0  0  0  0
 29 32  1  0  0  0  0
 29 30  1  0  0  0  0
 29 28  1  0  0  0  0
 30 34  1  6  0  0  0
 30 35  1  0  0  0  0
 30 28  1  0  0  0  0
 33 29  1  0  0  0  0
 36 35  1  0  0  0  0
 37 36  1  0  0  0  0
M  END
>  <minimizedAffinity>
-5.88314486

$$$$

 OpenBabel03242523243D

 37 39  0  0  1  0  0  0  0  0999 V2000
   38.2580   27.2440   42.5080 C   0  0  0  0  0  0  0  0  0  0  0  0
   37.8960   27.5200   43.6150 O   0  0  0  0  0  0  0  0  0  0  0  0
   39.0200   30.2270   42.7300 Cl  0  0  0  0  0  0  0  0  0  0  0  0
   37.6640   29.6660   41.7800 C   0  0  0  0  0  0  0  0  0  0  0  0
   37.4490   28.2640   41.7680 C   0  0  0  0  0  0  0  0  0  0  0  0
   36.3640   27.9490   40.9830 C   0  0  0  0  0  0  0  0  0  0  0  0
   35.5410   28.7200   40.2850 C   0  0  0  0  0  0  0  0  0  0  0  0
   35.8030   30.0720   40.3410 C   0  0  0  0  0  0  0  0  0  0  0  0
   36.8500   30.5540   41.0760 C   0  0  0  0  0  0  0  0  0  0  0  0
   36.1070   26.8700   40.8600 H   0  0  0  0  0  0  0  0  0  0  0  0
   34.6970   28.3780   39.6880 H   0  0  0  0  0  0  0  0  0  0  0  0
   35.1410   30.7500   39.7730 H   0  0  0  0  0  0  0  0  0  0  0  0
   37.0080   31.9090   41.0450 O   0  0  0  0  0  0  0  0  0  0  0  0
   37.3240   34.0240   39.5300 O   0  0  0  0  0  0  0  0  0  0  0  0
   38.0760   32.8550   40.1280 P   0  0  0  0  0  0  0  0  0  0  0  0
   39.3460   33.3860   41.1220 O   0  0  0  0  0  0  0  0  0  0  0  0
   39.1270   34.2930   41.5020 H   0  0  0  0  0  0  0  0  0  0  0  0
   38.8070   31.9530   38.9000 O   0  0  0  0  0  0  0  0  0  0  0  0
   39.7170   31.6460   39.1280 H   0  0  0  0  0  0  0  0  0  0  0  0
   39.0380   26.4710   41.5190 C   0  0  0  0  0  0  0  0  0  0  0  0
   38.9380   25.1660   41.2830 C   0  0  0  0  0  0  0  0  0  0  0  0
   39.8290   24.6830   40.3630 C   0  0  0  0  0  0  0  0  0  0  0  0
   40.7410   25.5750   39.7630 N   0  0  0  0  0  0  0  0  0  0  0  0
   40.7830   26.8570   40.0420 C   0  0  0  0  0  0  0  0  0  0  0  0
   39.9020   27.3800   40.9660 N   0  0  0  0  0  0  0  0  0  0  0  0
   39.9960   23.7220   39.9580 H   0  0  0  0  0  0  0  0  0  0  0  0
   41.5260   27.4890   39.5290 H   0  0  0  0  0  0  0  0  0  0  0  0
   37.9630   24.2710   41.7780 C   0  0  1  0  0  0  0  0  0  0  0  0
   36.6910   24.5350   42.1820 C   0  0  0  0  0  0  0  0  0  0  0  0
   36.7640   23.8760   40.8470 C   0  0  1  0  0  0  0  0  0  0  0  0
   38.4120   23.3880   42.3260 H   0  0  0  0  0  0  0  0  0  0  0  0
   36.2920   25.5940   42.1840 H   0  0  0  0  0  0  0  0  0  0  0  0
   36.0550   23.9570   42.9000 H   0  0  0  0  0  0  0  0  0  0  0  0
   36.5930   22.7680   40.7700 H   0  0  0  0  0  0  0  0  0  0  0  0
   36.4530   24.6860   39.6550 C   0  0  0  0  0  2  0  0  0  0  0  0
   36.5630   23.7820   38.4030 C   0  0  0  0  0  2  0  0  0  0  0  0
   37.6160   23.5660   38.1950 H   0  0  0  0  0  0  0  0  0  0  0  0
  1  2  2  0  0  0  0
  4  3  1  0  0  0  0
  5  4  1  0  0  0  0
  5  1  1  0  0  0  0
  6  5  2  0  0  0  0
  7  8  2  0  0  0  0
  7  6  1  0  0  0  0
  8  9  1  0  0  0  0
  9  4  2  0  0  0  0
 10  6  1  0  0  0  0
 11  7  1  0  0  0  0
 12  8  1  0  0  0  0
 13  9  1  0  0  0  0
 14 15  2  0  0  0  0
 15 13  1  0  0  0  0
 15 16  1  0  0  0  0
 16 17  1  0  0  0  0
 18 19  1  0  0  0  0
 18 15  1  0  0  0  0
 20  1  1  0  0  0  0
 21 20  1  0  0  0  0
 21 28  1  0  0  0  0
 22 21  2  0  0  0  0
 23 24  2  0  0  0  0
 23 22  1  0  0  0  0
 24 25  1  0  0  0  0
 25 20  2  0  0  0  0
 26 22  1  0  0  0  0
 27 24  1  0  0  0  0
 28 29  1  0  0  0  0
 28 31  1  1  0  0  0
 29 32  1  0  0  0  0
 29 33  1  0  0  0  0
 30 34  1  6  0  0  0
 30 28  1  0  0  0  0
 30 29  1  0  0  0  0
 35 30  1  0  0  0  0
 36 35  1  0  0  0  0
 37 36  1  0  0  0  0
M  END
>  <minimizedAffinity>
-5.60939837

$$$$

 OpenBabel03242523243D

 37 39  0  0  1  0  0  0  0  0999 V2000
   36.9440   26.7390   39.2830 C   0  0  0  0  0  0  0  0  0  0  0  0
   36.1290   26.9730   38.4370 O   0  0  0  0  0  0  0  0  0  0  0  0
   35.6840   29.5530   39.1190 Cl  0  0  0  0  0  0  0  0  0  0  0  0
   37.4000   29.2730   38.9340 C   0  0  0  0  0  0  0  0  0  0  0  0
   37.8270   27.9250   39.0470 C   0  0  0  0  0  0  0  0  0  0  0  0
   39.1920   27.8370   38.8930 C   0  0  0  0  0  0  0  0  0  0  0  0
   40.1040   28.7710   38.6630 C   0  0  0  0  0  0  0  0  0  0  0  0
   39.6230   30.0590   38.5620 C   0  0  0  0  0  0  0  0  0  0  0  0
   38.2880   30.3220   38.6950 C   0  0  0  0  0  0  0  0  0  0  0  0
   39.6620   26.8300   38.9960 H   0  0  0  0  0  0  0  0  0  0  0  0
   41.1740   28.6050   38.5520 H   0  0  0  0  0  0  0  0  0  0  0  0
   40.3510   30.8680   38.3710 H   0  0  0  0  0  0  0  0  0  0  0  0
   37.9400   31.6370   38.5800 O   0  0  0  0  0  0  0  0  0  0  0  0
   38.8740   33.1640   40.4930 O   0  0  0  0  0  0  0  0  0  0  0  0
   37.5920   32.7740   39.7880 P   0  0  0  0  0  0  0  0  0  0  0  0
   36.8420   34.1250   39.0860 O   0  0  0  0  0  0  0  0  0  0  0  0
   37.5340   34.8210   38.8570 H   0  0  0  0  0  0  0  0  0  0  0  0
   36.4810   32.1710   40.9100 O   0  0  0  0  0  0  0  0  0  0  0  0
   35.5570   32.4750   40.7480 H   0  0  0  0  0  0  0  0  0  0  0  0
   37.5240   25.9460   40.3860 C   0  0  0  0  0  0  0  0  0  0  0  0
   37.4840   26.2500   41.6810 C   0  0  0  0  0  0  0  0  0  0  0  0
   38.1620   25.3800   42.4910 C   0  0  0  0  0  0  0  0  0  0  0  0
   38.8190   24.2760   41.9100 N   0  0  0  0  0  0  0  0  0  0  0  0
   38.8150   24.0350   40.6200 C   0  0  0  0  0  0  0  0  0  0  0  0
   38.1440   24.8900   39.7710 N   0  0  0  0  0  0  0  0  0  0  0  0
   38.3090   25.3360   43.5370 H   0  0  0  0  0  0  0  0  0  0  0  0
   39.3530   23.1490   40.2430 H   0  0  0  0  0  0  0  0  0  0  0  0
   36.7400   27.2770   42.3040 C   0  0  1  0  0  0  0  0  0  0  0  0
   36.8270   27.7370   43.5820 C   0  0  0  0  0  0  0  0  0  0  0  0
   37.4430   28.6520   42.5780 C   0  0  1  0  0  0  0  0  0  0  0  0
   35.6960   27.3860   41.8790 H   0  0  0  0  0  0  0  0  0  0  0  0
   37.5450   27.2650   44.3190 H   0  0  0  0  0  0  0  0  0  0  0  0
   36.0410   28.2510   44.1910 H   0  0  0  0  0  0  0  0  0  0  0  0
   36.8600   29.5420   42.2150 H   0  0  0  0  0  0  0  0  0  0  0  0
   38.9130   28.7540   42.5410 C   0  0  0  0  0  2  0  0  0  0  0  0
   39.2990   30.2420   42.3620 C   0  0  0  0  0  2  0  0  0  0  0  0
   39.0790   30.5600   41.3380 H   0  0  0  0  0  0  0  0  0  0  0  0
  1 20  1  0  0  0  0
  2  1  2  0  0  0  0
  4  5  1  0  0  0  0
  4  3  1  0  0  0  0
  5  1  1  0  0  0  0
  6 10  1  0  0  0  0
  6  5  2  0  0  0  0
  7  6  1  0  0  0  0
  8  7  2  0  0  0  0
  8  9  1  0  0  0  0
  9  4  2  0  0  0  0
 11  7  1  0  0  0  0
 12  8  1  0  0  0  0
 13  9  1  0  0  0  0
 13 15  1  0  0  0  0
 15 14  2  0  0  0  0
 15 18  1  0  0  0  0
 16 15  1  0  0  0  0
 17 16  1  0  0  0  0
 19 18  1  0  0  0  0
 20 21  1  0  0  0  0
 21 28  1  0  0  0  0
 21 22  2  0  0  0  0
 22 26  1  0  0  0  0
 23 22  1  0  0  0  0
 24 23  2  0  0  0  0
 25 20  2  0  0  0  0
 25 24  1  0  0  0  0
 27 24  1  0  0  0  0
 28 31  1  6  0  0  0
 28 30  1  0  0  0  0
 28 29  1  0  0  0  0
 29 33  1  0  0  0  0
 29 32  1  0  0  0  0
 30 34  1  6  0  0  0
 30 29  1  0  0  0  0
 35 30  1  0  0  0  0
 36 35  1  0  0  0  0
 37 36  1  0  0  0  0
M  END
>  <minimizedAffinity>
-5.58126211

$$$$

 OpenBabel03242523253D

 37 39  0  0  1  0  0  0  0  0999 V2000
   36.9480   26.7930   42.6770 C   0  0  0  0  0  0  0  0  0  0  0  0
   36.2040   27.2100   43.5170 O   0  0  0  0  0  0  0  0  0  0  0  0
   37.8620   29.6530   43.3950 Cl  0  0  0  0  0  0  0  0  0  0  0  0
   37.1200   29.2540   41.8640 C   0  0  0  0  0  0  0  0  0  0  0  0
   36.7660   27.8930   41.6780 C   0  0  0  0  0  0  0  0  0  0  0  0
   36.2020   27.7060   40.4370 C   0  0  0  0  0  0  0  0  0  0  0  0
   35.9550   28.5620   39.4550 C   0  0  0  0  0  0  0  0  0  0  0  0
   36.3200   29.8680   39.7000 C   0  0  0  0  0  0  0  0  0  0  0  0
   36.8980   30.2250   40.8860 C   0  0  0  0  0  0  0  0  0  0  0  0
   35.9100   26.6670   40.1500 H   0  0  0  0  0  0  0  0  0  0  0  0
   35.4970   28.3200   38.4970 H   0  0  0  0  0  0  0  0  0  0  0  0
   36.1310   30.6140   38.9070 H   0  0  0  0  0  0  0  0  0  0  0  0
   37.2200   31.5460   41.0030 O   0  0  0  0  0  0  0  0  0  0  0  0
   39.7910   31.4520   40.5060 O   0  0  0  0  0  0  0  0  0  0  0  0
   38.5950   32.3780   40.4620 P   0  0  0  0  0  0  0  0  0  0  0  0
   38.3180   32.9510   38.8880 O   0  0  0  0  0  0  0  0  0  0  0  0
   38.6590   32.2810   38.2150 H   0  0  0  0  0  0  0  0  0  0  0  0
   38.8980   33.7530   41.3970 O   0  0  0  0  0  0  0  0  0  0  0  0
   38.5740   34.5870   40.9840 H   0  0  0  0  0  0  0  0  0  0  0  0
   37.9090   25.8190   42.1180 C   0  0  0  0  0  0  0  0  0  0  0  0
   39.1930   25.7040   42.4440 C   0  0  0  0  0  0  0  0  0  0  0  0
   39.8820   24.7650   41.7250 C   0  0  0  0  0  0  0  0  0  0  0  0
   39.1980   24.0240   40.7380 N   0  0  0  0  0  0  0  0  0  0  0  0
   37.9240   24.1890   40.4700 C   0  0  0  0  0  0  0  0  0  0  0  0
   37.1980   25.1270   41.1730 N   0  0  0  0  0  0  0  0  0  0  0  0
   40.8850   24.4330   41.7470 H   0  0  0  0  0  0  0  0  0  0  0  0
   37.4620   23.5690   39.6840 H   0  0  0  0  0  0  0  0  0  0  0  0
   39.8770   26.3450   43.5020 C   0  0  1  0  0  0  0  0  0  0  0  0
   41.2170   26.5020   43.6790 C   0  0  0  0  0  0  0  0  0  0  0  0
   40.5270   27.7470   43.2360 C   0  0  1  0  0  0  0  0  0  0  0  0
   39.3180   26.2920   44.4850 H   0  0  0  0  0  0  0  0  0  0  0  0
   41.9540   26.0610   42.9410 H   0  0  0  0  0  0  0  0  0  0  0  0
   41.7790   26.6520   44.6360 H   0  0  0  0  0  0  0  0  0  0  0  0
   40.2560   28.5270   43.9970 H   0  0  0  0  0  0  0  0  0  0  0  0
   40.7510   28.2100   41.8540 C   0  0  0  0  0  2  0  0  0  0  0  0
   42.1740   28.8120   41.7610 C   0  0  0  0  0  2  0  0  0  0  0  0
   42.2010   29.7790   42.2730 H   0  0  0  0  0  0  0  0  0  0  0  0
  1  2  2  0  0  0  0
  4  3  1  0  0  0  0
  5  4  1  0  0  0  0
  5  1  1  0  0  0  0
  6  5  2  0  0  0  0
  7  8  2  0  0  0  0
  7  6  1  0  0  0  0
  8  9  1  0  0  0  0
  9 13  1  0  0  0  0
  9  4  2  0  0  0  0
 10  6  1  0  0  0  0
 11  7  1  0  0  0  0
 12  8  1  0  0  0  0
 15 14  2  0  0  0  0
 15 13  1  0  0  0  0
 15 18  1  0  0  0  0
 16 15  1  0  0  0  0
 17 16  1  0  0  0  0
 19 18  1  0  0  0  0
 20 21  1  0  0  0  0
 20  1  1  0  0  0  0
 21 28  1  0  0  0  0
 22 26  1  0  0  0  0
 22 21  2  0  0  0  0
 23 22  1  0  0  0  0
 24 23  2  0  0  0  0
 24 25  1  0  0  0  0
 25 20  2  0  0  0  0
 27 24  1  0  0  0  0
 28 29  1  0  0  0  0
 28 31  1  1  0  0  0
 29 33  1  0  0  0  0
 30 28  1  0  0  0  0
 30 29  1  0  0  0  0
 30 34  1  1  0  0  0
 32 29  1  0  0  0  0
 35 30  1  0  0  0  0
 36 35  1  0  0  0  0
 36 37  1  0  0  0  0
M  END
>  <minimizedAffinity>
-5.5368042

$$$$

 OpenBabel03242523253D

 37 39  0  0  1  0  0  0  0  0999 V2000
   36.3670   26.5860   38.4670 C   0  0  0  0  0  0  0  0  0  0  0  0
   35.2930   26.6220   37.9390 O   0  0  0  0  0  0  0  0  0  0  0  0
   37.6990   28.7950   36.7710 Cl  0  0  0  0  0  0  0  0  0  0  0  0
   36.9720   29.1090   38.3300 C   0  0  0  0  0  0  0  0  0  0  0  0
   36.3880   27.9910   38.9820 C   0  0  0  0  0  0  0  0  0  0  0  0
   35.8450   28.3670   40.1880 C   0  0  0  0  0  0  0  0  0  0  0  0
   35.7950   29.5470   40.7920 C   0  0  0  0  0  0  0  0  0  0  0  0
   36.3810   30.5890   40.1070 C   0  0  0  0  0  0  0  0  0  0  0  0
   36.9660   30.3880   38.8880 C   0  0  0  0  0  0  0  0  0  0  0  0
   35.3210   27.5850   40.7880 H   0  0  0  0  0  0  0  0  0  0  0  0
   35.3400   29.7510   41.7590 H   0  0  0  0  0  0  0  0  0  0  0  0
   36.3620   31.5900   40.5740 H   0  0  0  0  0  0  0  0  0  0  0  0
   37.5050   31.5000   38.3090 O   0  0  0  0  0  0  0  0  0  0  0  0
   40.0110   30.9340   38.8260 O   0  0  0  0  0  0  0  0  0  0  0  0
   39.1210   32.0080   38.2380 P   0  0  0  0  0  0  0  0  0  0  0  0
   39.5350   32.3330   36.6240 O   0  0  0  0  0  0  0  0  0  0  0  0
   39.9440   31.5130   36.2040 H   0  0  0  0  0  0  0  0  0  0  0  0
   39.3540   33.4620   39.0670 O   0  0  0  0  0  0  0  0  0  0  0  0
   39.3720   34.2510   38.4760 H   0  0  0  0  0  0  0  0  0  0  0  0
   37.6290   25.9300   38.8670 C   0  0  0  0  0  0  0  0  0  0  0  0
   37.8680   25.3230   40.0260 C   0  0  0  0  0  0  0  0  0  0  0  0
   39.1470   24.8590   40.1730 C   0  0  0  0  0  0  0  0  0  0  0  0
   40.0690   25.0520   39.1230 N   0  0  0  0  0  0  0  0  0  0  0  0
   39.7620   25.6600   38.0010 C   0  0  0  0  0  0  0  0  0  0  0  0
   38.4840   26.1440   37.8170 N   0  0  0  0  0  0  0  0  0  0  0  0
   39.6400   24.3380   40.9490 H   0  0  0  0  0  0  0  0  0  0  0  0
   40.5390   25.7710   37.2270 H   0  0  0  0  0  0  0  0  0  0  0  0
   36.9410   25.0120   41.0460 C   0  0  1  0  0  0  0  0  0  0  0  0
   37.1680   24.4390   42.2590 C   0  0  0  0  0  0  0  0  0  0  0  0
   36.9110   25.9060   42.3340 C   0  0  1  0  0  0  0  0  0  0  0  0
   35.9090   24.7720   40.6450 H   0  0  0  0  0  0  0  0  0  0  0  0
   38.2090   24.1090   42.5570 H   0  0  0  0  0  0  0  0  0  0  0  0
   36.4570   23.8560   42.8970 H   0  0  0  0  0  0  0  0  0  0  0  0
   35.8850   26.2710   42.6110 H   0  0  0  0  0  0  0  0  0  0  0  0
   38.0460   26.7940   42.6460 C   0  0  0  0  0  2  0  0  0  0  0  0
   37.5730   27.8560   43.6680 C   0  0  0  0  0  2  0  0  0  0  0  0
   36.9180   28.5800   43.1720 H   0  0  0  0  0  0  0  0  0  0  0  0
  1 20  1  0  0  0  0
  1  5  1  0  0  0  0
  2  1  2  0  0  0  0
  3  4  1  0  0  0  0
  4  9  2  0  0  0  0
  4  5  1  0  0  0  0
  5  6  2  0  0  0  0
  6 10  1  0  0  0  0
  6  7  1  0  0  0  0
  7 11  1  0  0  0  0
  8 12  1  0  0  0  0
  8  7  2  0  0  0  0
  9  8  1  0  0  0  0
 13  9  1  0  0  0  0
 15 13  1  0  0  0  0
 15 14  2  0  0  0  0
 15 18  1  0  0  0  0
 16 15  1  0  0  0  0
 17 16  1  0  0  0  0
 19 18  1  0  0  0  0
 20 21  1  0  0  0  0
 21 22  2  0  0  0  0
 21 28  1  0  0  0  0
 22 26  1  0  0  0  0
 23 22  1  0  0  0  0
 24 23  2  0  0  0  0
 25 24  1  0  0  0  0
 25 20  2  0  0  0  0
 27 24  1  0  0  0  0
 28 31  1  6  0  0  0
 28 29  1  0  0  0  0
 28 30  1  0  0  0  0
 29 30  1  0  0  0  0
 29 32  1  0  0  0  0
 29 33  1  0  0  0  0
 30 34  1  1  0  0  0
 30 35  1  0  0  0  0
 35 36  1  0  0  0  0
 37 36  1  0  0  0  0
M  END
>  <minimizedAffinity>
-5.46725607

$$$$

 OpenBabel03242523253D

 37 39  0  0  1  0  0  0  0  0999 V2000
   38.2790   26.7300   39.5550 C   0  0  0  0  0  0  0  0  0  0  0  0
   38.3820   27.0610   38.4090 O   0  0  0  0  0  0  0  0  0  0  0  0
   39.9760   29.2170   40.2390 Cl  0  0  0  0  0  0  0  0  0  0  0  0
   38.2390   29.1750   40.4320 C   0  0  0  0  0  0  0  0  0  0  0  0
   37.5990   27.9630   40.0630 C   0  0  0  0  0  0  0  0  0  0  0  0
   36.2400   28.0580   40.2520 C   0  0  0  0  0  0  0  0  0  0  0  0
   35.4910   29.0550   40.7050 C   0  0  0  0  0  0  0  0  0  0  0  0
   36.1740   30.2020   41.0470 C   0  0  0  0  0  0  0  0  0  0  0  0
   37.5320   30.2770   40.9170 C   0  0  0  0  0  0  0  0  0  0  0  0
   35.6130   27.1810   39.9650 H   0  0  0  0  0  0  0  0  0  0  0  0
   34.4090   29.0380   40.8230 H   0  0  0  0  0  0  0  0  0  0  0  0
   35.5870   31.0570   41.4290 H   0  0  0  0  0  0  0  0  0  0  0  0
   38.0880   31.4680   41.2840 O   0  0  0  0  0  0  0  0  0  0  0  0
   39.1970   32.6540   39.2270 O   0  0  0  0  0  0  0  0  0  0  0  0
   38.2640   32.9000   40.3940 P   0  0  0  0  0  0  0  0  0  0  0  0
   36.7380   33.4180   39.8610 O   0  0  0  0  0  0  0  0  0  0  0  0
   36.5580   33.0580   38.9370 H   0  0  0  0  0  0  0  0  0  0  0  0
   38.8610   34.1580   41.3510 O   0  0  0  0  0  0  0  0  0  0  0  0
   38.1600   34.7730   41.6720 H   0  0  0  0  0  0  0  0  0  0  0  0
   38.4540   25.8010   40.6900 C   0  0  0  0  0  0  0  0  0  0  0  0
   37.5880   24.8750   41.0910 C   0  0  0  0  0  0  0  0  0  0  0  0
   37.9630   24.1920   42.2170 C   0  0  0  0  0  0  0  0  0  0  0  0
   39.1910   24.5130   42.8320 N   0  0  0  0  0  0  0  0  0  0  0  0
   40.0010   25.4400   42.3790 C   0  0  0  0  0  0  0  0  0  0  0  0
   39.6560   26.1510   41.2480 N   0  0  0  0  0  0  0  0  0  0  0  0
   37.5140   23.4110   42.7680 H   0  0  0  0  0  0  0  0  0  0  0  0
   40.9440   25.6310   42.9170 H   0  0  0  0  0  0  0  0  0  0  0  0
   36.4110   24.4510   40.4340 C   0  0  1  0  0  0  0  0  0  0  0  0
   36.1090   24.5040   39.1080 C   0  0  0  0  0  0  0  0  0  0  0  0
   36.4580   23.1350   39.5830 C   0  0  1  0  0  0  0  0  0  0  0  0
   35.4890   24.5270   41.0870 H   0  0  0  0  0  0  0  0  0  0  0  0
   36.8310   24.9650   38.3680 H   0  0  0  0  0  0  0  0  0  0  0  0
   35.0990   24.5360   38.6250 H   0  0  0  0  0  0  0  0  0  0  0  0
   35.6350   22.4080   39.8210 H   0  0  0  0  0  0  0  0  0  0  0  0
   37.7540   22.5660   39.1680 C   0  0  0  0  0  2  0  0  0  0  0  0
   37.7350   22.3660   37.6340 C   0  0  0  0  0  2  0  0  0  0  0  0
   37.0870   21.5210   37.3790 H   0  0  0  0  0  0  0  0  0  0  0  0
  1  5  1  0  0  0  0
  1 20  1  0  0  0  0
  2  1  2  0  0  0  0
  3  4  1  0  0  0  0
  4  9  1  0  0  0  0
  5  6  1  0  0  0  0
  5  4  2  0  0  0  0
  6  7  2  0  0  0  0
  7 11  1  0  0  0  0
  7  8  1  0  0  0  0
  8 12  1  0  0  0  0
  9  8  2  0  0  0  0
  9 13  1  0  0  0  0
 10  6  1  0  0  0  0
 14 15  2  0  0  0  0
 15 13  1  0  0  0  0
 15 18  1  0  0  0  0
 16 15  1  0  0  0  0
 17 16  1  0  0  0  0
 18 19  1  0  0  0  0
 20 21  2  0  0  0  0
 20 25  1  0  0  0  0
 21 22  1  0  0  0  0
 22 26  1  0  0  0  0
 22 23  2  0  0  0  0
 24 23  1  0  0  0  0
 24 27  1  0  0  0  0
 25 24  2  0  0  0  0
 28 31  1  1  0  0  0
 28 21  1  0  0  0  0
 29 30  1  0  0  0  0
 29 28  1  0  0  0  0
 30 34  1  1  0  0  0
 30 28  1  0  0  0  0
 32 29  1  0  0  0  0
 33 29  1  0  0  0  0
 35 30  1  0  0  0  0
 36 35  1  0  0  0  0
 37 36  1  0  0  0  0
M  END
>  <minimizedAffinity>
-5.42151499

$$$$

 OpenBabel03242523253D

 37 39  0  0  1  0  0  0  0  0999 V2000
   35.1830   28.5430   39.1360 C   0  0  0  0  0  0  0  0  0  0  0  0
   34.2860   29.2260   39.5380 O   0  0  0  0  0  0  0  0  0  0  0  0
   36.2000   30.7690   41.0180 Cl  0  0  0  0  0  0  0  0  0  0  0  0
   36.5700   30.7340   39.3100 C   0  0  0  0  0  0  0  0  0  0  0  0
   36.0390   29.6390   38.5800 C   0  0  0  0  0  0  0  0  0  0  0  0
   36.4050   29.7190   37.2560 C   0  0  0  0  0  0  0  0  0  0  0  0
   37.1310   30.6180   36.6060 C   0  0  0  0  0  0  0  0  0  0  0  0
   37.6150   31.6570   37.3720 C   0  0  0  0  0  0  0  0  0  0  0  0
   37.3460   31.7270   38.7110 C   0  0  0  0  0  0  0  0  0  0  0  0
   36.0800   28.8960   36.5760 H   0  0  0  0  0  0  0  0  0  0  0  0
   37.3690   30.6010   35.5440 H   0  0  0  0  0  0  0  0  0  0  0  0
   38.2260   32.4290   36.8700 H   0  0  0  0  0  0  0  0  0  0  0  0
   37.8860   32.7990   39.3590 O   0  0  0  0  0  0  0  0  0  0  0  0
   39.5150   34.1580   40.8970 O   0  0  0  0  0  0  0  0  0  0  0  0
   39.4900   33.0840   39.8310 P   0  0  0  0  0  0  0  0  0  0  0  0
   40.1700   31.6370   40.4000 O   0  0  0  0  0  0  0  0  0  0  0  0
   40.0580   31.5760   41.4000 H   0  0  0  0  0  0  0  0  0  0  0  0
   40.4500   33.5530   38.5220 O   0  0  0  0  0  0  0  0  0  0  0  0
   40.9870   32.8150   38.1460 H   0  0  0  0  0  0  0  0  0  0  0  0
   35.8730   27.2580   38.9010 C   0  0  0  0  0  0  0  0  0  0  0  0
   36.9230   26.7930   39.5720 C   0  0  0  0  0  0  0  0  0  0  0  0
   37.4160   25.6040   39.1060 C   0  0  0  0  0  0  0  0  0  0  0  0
   36.7920   24.9920   38.0000 N   0  0  0  0  0  0  0  0  0  0  0  0
   35.7530   25.5070   37.3850 C   0  0  0  0  0  0  0  0  0  0  0  0
   35.2290   26.7060   37.8240 N   0  0  0  0  0  0  0  0  0  0  0  0
   38.2130   24.9840   39.4170 H   0  0  0  0  0  0  0  0  0  0  0  0
   35.3210   24.9670   36.5270 H   0  0  0  0  0  0  0  0  0  0  0  0
   37.4970   27.3200   40.7510 C   0  0  1  0  0  0  0  0  0  0  0  0
   36.8860   27.6570   41.9190 C   0  0  0  0  0  0  0  0  0  0  0  0
   37.6510   26.3800   41.9960 C   0  0  1  0  0  0  0  0  0  0  0  0
   38.4160   27.9500   40.5500 H   0  0  0  0  0  0  0  0  0  0  0  0
   35.7640   27.5630   42.0330 H   0  0  0  0  0  0  0  0  0  0  0  0
   37.2220   28.3940   42.6920 H   0  0  0  0  0  0  0  0  0  0  0  0
   38.6820   26.3820   42.4440 H   0  0  0  0  0  0  0  0  0  0  0  0
   36.8910   25.1180   42.0720 C   0  0  0  0  0  2  0  0  0  0  0  0
   37.8940   23.9460   42.1880 C   0  0  0  0  0  2  0  0  0  0  0  0
   38.3940   23.7890   41.2260 H   0  0  0  0  0  0  0  0  0  0  0  0
  1  2  2  0  0  0  0
  4  3  1  0  0  0  0
  5  1  1  0  0  0  0
  5  4  2  0  0  0  0
  6  5  1  0  0  0  0
  7  6  2  0  0  0  0
  7  8  1  0  0  0  0
  8  9  2  0  0  0  0
  9  4  1  0  0  0  0
  9 13  1  0  0  0  0
 10  6  1  0  0  0  0
 11  7  1  0  0  0  0
 12  8  1  0  0  0  0
 13 15  1  0  0  0  0
 15 16  1  0  0  0  0
 15 14  2  0  0  0  0
 16 17  1  0  0  0  0
 18 15  1  0  0  0  0
 19 18  1  0  0  0  0
 20  1  1  0  0  0  0
 20 21  1  0  0  0  0
 21 28  1  0  0  0  0
 22 26  1  0  0  0  0
 22 21  2  0  0  0  0
 23 22  1  0  0  0  0
 24 25  1  0  0  0  0
 24 23  2  0  0  0  0
 25 20  2  0  0  0  0
 27 24  1  0  0  0  0
 28 31  1  6  0  0  0
 28 29  1  0  0  0  0
 28 30  1  0  0  0  0
 29 30  1  0  0  0  0
 29 32  1  0  0  0  0
 29 33  1  0  0  0  0
 30 35  1  0  0  0  0
 30 34  1  1  0  0  0
 35 36  1  0  0  0  0
 37 36  1  0  0  0  0
M  END
>  <minimizedAffinity>
-5.3993454

$$$$
