
 OpenBabel03252506303D

 41 44  0  0  0  0  0  0  0  0999 V2000
   35.9170   29.3720   37.4820 C   0  0  0  0  0  0  0  0  0  0  0  0
   35.3330   29.9200   36.7440 H   0  0  0  0  0  0  0  0  0  0  0  0
   36.2240   28.3800   37.0700 H   0  0  0  0  0  0  0  0  0  0  0  0
   38.4690   31.6250   38.5570 C   0  0  0  0  0  0  0  0  0  0  0  0
   39.2330   30.5680   38.0040 C   0  0  0  0  0  0  0  0  0  0  0  0
   38.3820   29.6230   37.5470 C   0  0  0  0  0  0  0  0  0  0  0  0
   37.1400   30.0750   37.8070 N   0  0  0  0  0  0  0  0  0  0  0  0
   37.1880   31.2680   38.4090 N   0  0  0  0  0  0  0  0  0  0  0  0
   40.3200   30.5600   37.9730 H   0  0  0  0  0  0  0  0  0  0  0  0
   38.6050   28.6710   37.0600 H   0  0  0  0  0  0  0  0  0  0  0  0
   38.7910   34.7040   40.4930 C   0  0  0  0  0  0  0  0  0  0  0  0
   40.1130   35.0950   40.2700 C   0  0  0  0  0  0  0  0  0  0  0  0
   40.8770   34.2730   39.4430 C   0  0  0  0  0  0  0  0  0  0  0  0
   40.3060   33.1770   38.9210 N   0  0  0  0  0  0  0  0  0  0  0  0
   39.0350   32.8210   39.1480 C   0  0  0  0  0  0  0  0  0  0  0  0
   38.2840   33.5970   39.9390 N   0  0  0  0  0  0  0  0  0  0  0  0
   38.1960   35.3600   41.1460 H   0  0  0  0  0  0  0  0  0  0  0  0
   40.5790   35.9800   40.6890 H   0  0  0  0  0  0  0  0  0  0  0  0
   42.2960   34.5570   39.1140 C   0  0  0  0  0  2  0  0  0  0  0  0
   42.6200   34.3020   37.6660 C   0  0  0  0  0  2  0  0  0  0  0  0
   41.6800   34.3420   37.0420 H   0  0  0  0  0  0  0  0  0  0  0  0
   35.1380   29.1020   38.7230 C   0  0  0  0  0  0  0  0  0  0  0  0
   34.8440   30.1090   39.1370 H   0  0  0  0  0  0  0  0  0  0  0  0
   34.1790   28.6160   38.4470 H   0  0  0  0  0  0  0  0  0  0  0  0
   36.3190   27.1010   39.7860 C   0  0  0  0  0  0  0  0  0  0  0  0
   35.8130   28.3840   39.7850 C   0  0  0  0  0  0  0  0  0  0  0  0
   35.9660   29.1060   40.9670 C   0  0  0  0  0  0  0  0  0  0  0  0
   36.5800   28.5810   42.0680 C   0  0  0  0  0  0  0  0  0  0  0  0
   36.8620   29.0240   43.3070 N   0  0  0  0  0  0  0  0  0  0  0  0
   37.4930   28.1080   44.0380 C   0  0  0  0  0  0  0  0  0  0  0  0
   37.6570   26.9590   43.2550 C   0  0  0  0  0  0  0  0  0  0  0  0
   37.0790   27.3060   42.0620 C   0  0  0  0  0  0  0  0  0  0  0  0
   36.9380   26.5770   40.9020 C   0  0  0  0  0  0  0  0  0  0  0  0
   36.1840   26.5700   38.8520 H   0  0  0  0  0  0  0  0  0  0  0  0
   35.6090   30.1310   41.0940 H   0  0  0  0  0  0  0  0  0  0  0  0
   36.6120   29.9920   43.6580 H   0  0  0  0  0  0  0  0  0  0  0  0
   37.8220   28.2340   45.0600 H   0  0  0  0  0  0  0  0  0  0  0  0
   38.1330   26.0620   43.5880 H   0  0  0  0  0  0  0  0  0  0  0  0
   37.4530   25.2100   40.8400 C   0  0  0  0  0  0  0  0  0  0  0  0
   36.7330   24.2310   41.1640 O   0  0  0  0  0  0  0  0  0  0  0  0
   38.4680   25.0170   40.5120 H   0  0  0  0  0  0  0  0  0  0  0  0
  1  7  1  0  0  0  0
  1 22  1  0  0  0  0
  2  1  1  0  0  0  0
  3  1  1  0  0  0  0
  4 15  1  0  0  0  0
  5  4  1  0  0  0  0
  6  7  1  0  0  0  0
  6  5  2  0  0  0  0
  7  8  1  0  0  0  0
  8  4  2  0  0  0  0
  9  5  1  0  0  0  0
 10  6  1  0  0  0  0
 11 17  1  0  0  0  0
 12 11  1  0  0  0  0
 12 18  1  0  0  0  0
 13 12  2  0  0  0  0
 14 15  2  0  0  0  0
 14 13  1  0  0  0  0
 15 16  1  0  0  0  0
 16 11  2  0  0  0  0
 19 13  1  0  0  0  0
 20 19  1  0  0  0  0
 21 20  1  0  0  0  0
 22 23  1  0  0  0  0
 22 26  1  0  0  0  0
 24 22  1  0  0  0  0
 25 33  1  0  0  0  0
 26 25  2  0  0  0  0
 26 27  1  0  0  0  0
 27 35  1  0  0  0  0
 27 28  2  0  0  0  0
 28 29  1  0  0  0  0
 29 36  1  0  0  0  0
 29 30  1  0  0  0  0
 30 37  1  0  0  0  0
 31 38  1  0  0  0  0
 31 30  2  0  0  0  0
 32 28  1  0  0  0  0
 32 31  1  0  0  0  0
 33 32  2  0  0  0  0
 34 25  1  0  0  0  0
 39 33  1  0  0  0  0
 39 40  2  0  0  0  0
 41 39  1  0  0  0  0
M  END
>  <minimizedAffinity>
-6.2790885

$$$$

 OpenBabel03252506303D

 41 44  0  0  0  0  0  0  0  0999 V2000
   39.3660   34.8140   40.7870 C   0  0  0  0  0  0  0  0  0  0  0  0
   38.7770   35.6790   41.0930 H   0  0  0  0  0  0  0  0  0  0  0  0
   40.0730   34.5230   41.6000 H   0  0  0  0  0  0  0  0  0  0  0  0
   37.6580   31.6790   40.7740 C   0  0  0  0  0  0  0  0  0  0  0  0
   37.0170   32.3610   39.7110 C   0  0  0  0  0  0  0  0  0  0  0  0
   37.5720   33.5870   39.5960 C   0  0  0  0  0  0  0  0  0  0  0  0
   38.5190   33.6640   40.5510 N   0  0  0  0  0  0  0  0  0  0  0  0
   38.5720   32.5290   41.2550 N   0  0  0  0  0  0  0  0  0  0  0  0
   36.2170   31.9310   39.1120 H   0  0  0  0  0  0  0  0  0  0  0  0
   37.3370   34.3880   38.8910 H   0  0  0  0  0  0  0  0  0  0  0  0
   35.9080   28.4930   41.1190 C   0  0  0  0  0  0  0  0  0  0  0  0
   36.7110   27.7730   42.0050 C   0  0  0  0  0  0  0  0  0  0  0  0
   37.8580   28.4120   42.4720 C   0  0  0  0  0  0  0  0  0  0  0  0
   38.1160   29.6590   42.0490 N   0  0  0  0  0  0  0  0  0  0  0  0
   37.3310   30.3320   41.1980 C   0  0  0  0  0  0  0  0  0  0  0  0
   36.2240   29.7360   40.7380 N   0  0  0  0  0  0  0  0  0  0  0  0
   35.0040   27.9800   40.7580 H   0  0  0  0  0  0  0  0  0  0  0  0
   36.5070   26.7640   42.3500 H   0  0  0  0  0  0  0  0  0  0  0  0
   38.8080   27.7740   43.4160 C   0  0  0  0  0  2  0  0  0  0  0  0
   39.1120   26.3440   43.0580 C   0  0  0  0  0  2  0  0  0  0  0  0
   38.9020   26.1610   41.9640 H   0  0  0  0  0  0  0  0  0  0  0  0
   40.1910   35.0980   39.5790 C   0  0  0  0  0  0  0  0  0  0  0  0
   39.6750   34.5860   38.7170 H   0  0  0  0  0  0  0  0  0  0  0  0
   40.1260   36.1820   39.3460 H   0  0  0  0  0  0  0  0  0  0  0  0
   42.3700   34.3260   40.6660 C   0  0  0  0  0  0  0  0  0  0  0  0
   41.5630   34.6370   39.5920 C   0  0  0  0  0  0  0  0  0  0  0  0
   42.1380   34.4910   38.3300 C   0  0  0  0  0  0  0  0  0  0  0  0
   43.4250   34.0660   38.1600 C   0  0  0  0  0  0  0  0  0  0  0  0
   44.2230   33.8380   37.1010 N   0  0  0  0  0  0  0  0  0  0  0  0
   45.4330   33.4180   37.4630 C   0  0  0  0  0  0  0  0  0  0  0  0
   45.4730   33.3520   38.8610 C   0  0  0  0  0  0  0  0  0  0  0  0
   44.2180   33.7590   39.2320 C   0  0  0  0  0  0  0  0  0  0  0  0
   43.6680   33.8960   40.4870 C   0  0  0  0  0  0  0  0  0  0  0  0
   41.8910   34.4490   41.6300 H   0  0  0  0  0  0  0  0  0  0  0  0
   41.6060   34.7050   37.4000 H   0  0  0  0  0  0  0  0  0  0  0  0
   43.9210   33.9770   36.0940 H   0  0  0  0  0  0  0  0  0  0  0  0
   46.2430   33.1710   36.7900 H   0  0  0  0  0  0  0  0  0  0  0  0
   46.3250   33.0440   39.4280 H   0  0  0  0  0  0  0  0  0  0  0  0
   44.4710   33.5820   41.6680 C   0  0  0  0  0  0  0  0  0  0  0  0
   44.1170   33.9630   42.8130 O   0  0  0  0  0  0  0  0  0  0  0  0
   45.3890   33.0140   41.5750 H   0  0  0  0  0  0  0  0  0  0  0  0
  1  2  1  0  0  0  0
  1  3  1  0  0  0  0
  4 15  1  0  0  0  0
  4  8  2  0  0  0  0
  5  4  1  0  0  0  0
  6  5  2  0  0  0  0
  6  7  1  0  0  0  0
  7  1  1  0  0  0  0
  7  8  1  0  0  0  0
  9  5  1  0  0  0  0
 10  6  1  0  0  0  0
 11 12  1  0  0  0  0
 12 18  1  0  0  0  0
 12 13  2  0  0  0  0
 13 19  1  0  0  0  0
 14 13  1  0  0  0  0
 15 14  2  0  0  0  0
 16 11  2  0  0  0  0
 16 15  1  0  0  0  0
 17 11  1  0  0  0  0
 20 19  1  0  0  0  0
 21 20  1  0  0  0  0
 22 26  1  0  0  0  0
 22  1  1  0  0  0  0
 23 22  1  0  0  0  0
 24 22  1  0  0  0  0
 25 34  1  0  0  0  0
 26 25  2  0  0  0  0
 27 26  1  0  0  0  0
 28 27  2  0  0  0  0
 28 32  1  0  0  0  0
 29 30  1  0  0  0  0
 29 28  1  0  0  0  0
 30 31  2  0  0  0  0
 31 32  1  0  0  0  0
 31 38  1  0  0  0  0
 32 33  2  0  0  0  0
 33 25  1  0  0  0  0
 33 39  1  0  0  0  0
 35 27  1  0  0  0  0
 36 29  1  0  0  0  0
 37 30  1  0  0  0  0
 39 40  2  0  0  0  0
 41 39  1  0  0  0  0
M  END
>  <minimizedAffinity>
-6.03321791

$$$$

 OpenBabel03252506303D

 41 44  0  0  0  0  0  0  0  0999 V2000
   35.8660   29.0440   40.0220 C   0  0  0  0  0  0  0  0  0  0  0  0
   34.8050   29.1840   39.8170 H   0  0  0  0  0  0  0  0  0  0  0  0
   36.2290   28.1010   39.5490 H   0  0  0  0  0  0  0  0  0  0  0  0
   37.9720   31.8430   39.3280 C   0  0  0  0  0  0  0  0  0  0  0  0
   37.5830   31.4450   38.0250 C   0  0  0  0  0  0  0  0  0  0  0  0
   36.7660   30.3740   38.1340 C   0  0  0  0  0  0  0  0  0  0  0  0
   36.6540   30.1170   39.4510 N   0  0  0  0  0  0  0  0  0  0  0  0
   37.3710   30.9900   40.1660 N   0  0  0  0  0  0  0  0  0  0  0  0
   37.9100   31.9460   37.1170 H   0  0  0  0  0  0  0  0  0  0  0  0
   36.2730   29.7990   37.3470 H   0  0  0  0  0  0  0  0  0  0  0  0
   39.2020   35.0300   40.6160 C   0  0  0  0  0  0  0  0  0  0  0  0
   40.5200   35.0820   40.1580 C   0  0  0  0  0  0  0  0  0  0  0  0
   40.9630   33.9970   39.4020 C   0  0  0  0  0  0  0  0  0  0  0  0
   40.1110   32.9890   39.1650 N   0  0  0  0  0  0  0  0  0  0  0  0
   38.8500   32.9590   39.6140 C   0  0  0  0  0  0  0  0  0  0  0  0
   38.4050   33.9910   40.3420 N   0  0  0  0  0  0  0  0  0  0  0  0
   38.8620   35.8910   41.2110 H   0  0  0  0  0  0  0  0  0  0  0  0
   41.2130   35.8950   40.3460 H   0  0  0  0  0  0  0  0  0  0  0  0
   42.3370   33.9090   38.8480 C   0  0  0  0  0  2  0  0  0  0  0  0
   42.3500   33.7470   37.3510 C   0  0  0  0  0  2  0  0  0  0  0  0
   41.3820   34.1240   36.9080 H   0  0  0  0  0  0  0  0  0  0  0  0
   36.1420   28.9290   41.4820 C   0  0  0  0  0  0  0  0  0  0  0  0
   36.6280   29.9000   41.7890 H   0  0  0  0  0  0  0  0  0  0  0  0
   35.1770   28.9090   42.0300 H   0  0  0  0  0  0  0  0  0  0  0  0
   36.8590   26.4950   41.7790 C   0  0  0  0  0  0  0  0  0  0  0  0
   37.0200   27.8580   41.9070 C   0  0  0  0  0  0  0  0  0  0  0  0
   38.1910   28.2820   42.5330 C   0  0  0  0  0  0  0  0  0  0  0  0
   39.1290   27.4040   42.9960 C   0  0  0  0  0  0  0  0  0  0  0  0
   40.3150   27.5160   43.6210 N   0  0  0  0  0  0  0  0  0  0  0  0
   40.8670   26.3310   43.8720 C   0  0  0  0  0  0  0  0  0  0  0  0
   40.0060   25.3370   43.3890 C   0  0  0  0  0  0  0  0  0  0  0  0
   38.9610   26.0520   42.8650 C   0  0  0  0  0  0  0  0  0  0  0  0
   37.8100   25.6140   42.2480 C   0  0  0  0  0  0  0  0  0  0  0  0
   35.9390   26.2020   41.2870 H   0  0  0  0  0  0  0  0  0  0  0  0
   38.4370   29.3340   42.6960 H   0  0  0  0  0  0  0  0  0  0  0  0
   40.7590   28.4420   43.8830 H   0  0  0  0  0  0  0  0  0  0  0  0
   41.8160   26.1670   44.3630 H   0  0  0  0  0  0  0  0  0  0  0  0
   40.1960   24.2870   43.4550 H   0  0  0  0  0  0  0  0  0  0  0  0
   37.5800   24.1800   42.0820 C   0  0  0  0  0  0  0  0  0  0  0  0
   37.9560   23.5800   41.0420 O   0  0  0  0  0  0  0  0  0  0  0  0
   37.0800   23.6080   42.8540 H   0  0  0  0  0  0  0  0  0  0  0  0
  1 22  1  0  0  0  0
  2  1  1  0  0  0  0
  3  1  1  0  0  0  0
  4 15  1  0  0  0  0
  4  8  2  0  0  0  0
  5  6  2  0  0  0  0
  5  4  1  0  0  0  0
  6  7  1  0  0  0  0
  7  1  1  0  0  0  0
  7  8  1  0  0  0  0
  9  5  1  0  0  0  0
 10  6  1  0  0  0  0
 11 17  1  0  0  0  0
 12 18  1  0  0  0  0
 12 11  2  0  0  0  0
 13 12  1  0  0  0  0
 14 13  2  0  0  0  0
 14 15  1  0  0  0  0
 15 16  2  0  0  0  0
 16 11  1  0  0  0  0
 19 13  1  0  0  0  0
 20 19  1  0  0  0  0
 21 20  1  0  0  0  0
 22 23  1  0  0  0  0
 22 26  1  0  0  0  0
 22 24  1  0  0  0  0
 25 26  2  0  0  0  0
 25 33  1  0  0  0  0
 26 27  1  0  0  0  0
 27 35  1  0  0  0  0
 27 28  2  0  0  0  0
 28 29  1  0  0  0  0
 29 30  1  0  0  0  0
 29 36  1  0  0  0  0
 30 37  1  0  0  0  0
 31 38  1  0  0  0  0
 31 30  2  0  0  0  0
 32 28  1  0  0  0  0
 32 31  1  0  0  0  0
 33 32  2  0  0  0  0
 34 25  1  0  0  0  0
 39 33  1  0  0  0  0
 39 41  1  0  0  0  0
 40 39  2  0  0  0  0
M  END
>  <minimizedAffinity>
-6.02751398

$$$$

 OpenBabel03252506303D

 41 44  0  0  0  0  0  0  0  0999 V2000
   36.4330   29.4500   37.4830 C   0  0  0  0  0  0  0  0  0  0  0  0
   35.8870   29.6780   36.5690 H   0  0  0  0  0  0  0  0  0  0  0  0
   37.0430   28.5250   37.3470 H   0  0  0  0  0  0  0  0  0  0  0  0
   39.2170   31.6450   37.9100 C   0  0  0  0  0  0  0  0  0  0  0  0
   38.1970   32.3340   38.6100 C   0  0  0  0  0  0  0  0  0  0  0  0
   37.0610   31.6060   38.5330 C   0  0  0  0  0  0  0  0  0  0  0  0
   37.3650   30.5090   37.8120 N   0  0  0  0  0  0  0  0  0  0  0  0
   38.6480   30.5290   37.4390 N   0  0  0  0  0  0  0  0  0  0  0  0
   38.3460   33.2870   39.1130 H   0  0  0  0  0  0  0  0  0  0  0  0
   36.0750   31.8190   38.9510 H   0  0  0  0  0  0  0  0  0  0  0  0
   42.1780   33.7680   38.1450 C   0  0  0  0  0  0  0  0  0  0  0  0
   43.1710   33.0170   37.5130 C   0  0  0  0  0  0  0  0  0  0  0  0
   42.7900   31.7740   37.0110 C   0  0  0  0  0  0  0  0  0  0  0  0
   41.5170   31.3820   37.1630 N   0  0  0  0  0  0  0  0  0  0  0  0
   40.5800   32.1190   37.7740 C   0  0  0  0  0  0  0  0  0  0  0  0
   40.9240   33.3160   38.2630 N   0  0  0  0  0  0  0  0  0  0  0  0
   42.4880   34.7490   38.5380 H   0  0  0  0  0  0  0  0  0  0  0  0
   44.2020   33.3310   37.3880 H   0  0  0  0  0  0  0  0  0  0  0  0
   43.7330   30.8640   36.3150 C   0  0  0  0  0  2  0  0  0  0  0  0
   43.0330   29.7570   35.5740 C   0  0  0  0  0  2  0  0  0  0  0  0
   41.9660   30.0500   35.3500 H   0  0  0  0  0  0  0  0  0  0  0  0
   35.5190   29.1990   38.6330 C   0  0  0  0  0  0  0  0  0  0  0  0
   35.2230   30.2120   39.0290 H   0  0  0  0  0  0  0  0  0  0  0  0
   34.5760   28.7550   38.2510 H   0  0  0  0  0  0  0  0  0  0  0  0
   36.4560   27.1260   39.7960 C   0  0  0  0  0  0  0  0  0  0  0  0
   36.0510   28.4430   39.7480 C   0  0  0  0  0  0  0  0  0  0  0  0
   36.1650   29.1640   40.9360 C   0  0  0  0  0  0  0  0  0  0  0  0
   36.6470   28.6050   42.0850 C   0  0  0  0  0  0  0  0  0  0  0  0
   36.8640   29.0390   43.3400 N   0  0  0  0  0  0  0  0  0  0  0  0
   37.3630   28.0860   44.1230 C   0  0  0  0  0  0  0  0  0  0  0  0
   37.5000   26.9200   43.3610 C   0  0  0  0  0  0  0  0  0  0  0  0
   37.0470   27.2970   42.1230 C   0  0  0  0  0  0  0  0  0  0  0  0
   36.9430   26.5680   40.9590 C   0  0  0  0  0  0  0  0  0  0  0  0
   36.3560   26.5960   38.8560 H   0  0  0  0  0  0  0  0  0  0  0  0
   35.8780   30.2140   41.0290 H   0  0  0  0  0  0  0  0  0  0  0  0
   36.6600   30.0270   43.6650 H   0  0  0  0  0  0  0  0  0  0  0  0
   37.6180   28.1970   45.1680 H   0  0  0  0  0  0  0  0  0  0  0  0
   37.8790   25.9930   43.7350 H   0  0  0  0  0  0  0  0  0  0  0  0
   37.3560   25.1660   40.9450 C   0  0  0  0  0  0  0  0  0  0  0  0
   36.5490   24.2490   41.2470 O   0  0  0  0  0  0  0  0  0  0  0  0
   38.3680   24.8910   40.6730 H   0  0  0  0  0  0  0  0  0  0  0  0
  1  7  1  0  0  0  0
  1 22  1  0  0  0  0
  2  1  1  0  0  0  0
  3  1  1  0  0  0  0
  4  5  1  0  0  0  0
  5  9  1  0  0  0  0
  6  5  2  0  0  0  0
  6 10  1  0  0  0  0
  7  6  1  0  0  0  0
  8  7  1  0  0  0  0
  8  4  2  0  0  0  0
 11 16  1  0  0  0  0
 11 17  1  0  0  0  0
 12 11  2  0  0  0  0
 13 14  2  0  0  0  0
 13 12  1  0  0  0  0
 14 15  1  0  0  0  0
 15  4  1  0  0  0  0
 15 16  2  0  0  0  0
 18 12  1  0  0  0  0
 19 13  1  0  0  0  0
 20 19  1  0  0  0  0
 21 20  1  0  0  0  0
 22 23  1  0  0  0  0
 22 26  1  0  0  0  0
 24 22  1  0  0  0  0
 25 33  1  0  0  0  0
 26 25  2  0  0  0  0
 26 27  1  0  0  0  0
 27 35  1  0  0  0  0
 27 28  2  0  0  0  0
 28 32  1  0  0  0  0
 28 29  1  0  0  0  0
 29 36  1  0  0  0  0
 29 30  1  0  0  0  0
 30 37  1  0  0  0  0
 31 38  1  0  0  0  0
 31 30  2  0  0  0  0
 32 31  1  0  0  0  0
 33 32  2  0  0  0  0
 34 25  1  0  0  0  0
 39 33  1  0  0  0  0
 39 40  2  0  0  0  0
 41 39  1  0  0  0  0
M  END
>  <minimizedAffinity>
-5.99437952

$$$$

 OpenBabel03252506303D

 41 44  0  0  0  0  0  0  0  0999 V2000
   37.0870   30.4780   37.8370 C   0  0  0  0  0  0  0  0  0  0  0  0
   36.7660   30.8270   36.8560 H   0  0  0  0  0  0  0  0  0  0  0  0
   37.8580   29.6780   37.7280 H   0  0  0  0  0  0  0  0  0  0  0  0
   39.2440   32.7000   39.6150 C   0  0  0  0  0  0  0  0  0  0  0  0
   38.0030   33.3770   39.6970 C   0  0  0  0  0  0  0  0  0  0  0  0
   37.0720   32.6370   39.0540 C   0  0  0  0  0  0  0  0  0  0  0  0
   37.7110   31.5460   38.5910 N   0  0  0  0  0  0  0  0  0  0  0  0
   39.0050   31.5800   38.9230 N   0  0  0  0  0  0  0  0  0  0  0  0
   37.8660   34.3300   40.2030 H   0  0  0  0  0  0  0  0  0  0  0  0
   36.0080   32.8390   38.9110 H   0  0  0  0  0  0  0  0  0  0  0  0
   42.0700   34.8750   40.3980 C   0  0  0  0  0  0  0  0  0  0  0  0
   42.8340   34.1130   41.2840 C   0  0  0  0  0  0  0  0  0  0  0  0
   42.3500   32.8450   41.5970 C   0  0  0  0  0  0  0  0  0  0  0  0
   41.2000   32.4400   41.0380 N   0  0  0  0  0  0  0  0  0  0  0  0
   40.4820   33.1880   40.1900 C   0  0  0  0  0  0  0  0  0  0  0  0
   40.9300   34.4100   39.8760 N   0  0  0  0  0  0  0  0  0  0  0  0
   42.4610   35.8750   40.1570 H   0  0  0  0  0  0  0  0  0  0  0  0
   43.7650   34.4360   41.7380 H   0  0  0  0  0  0  0  0  0  0  0  0
   43.0510   31.9200   42.5220 C   0  0  0  0  0  2  0  0  0  0  0  0
   42.1190   30.9380   43.1800 C   0  0  0  0  0  2  0  0  0  0  0  0
   41.1790   30.8180   42.5650 H   0  0  0  0  0  0  0  0  0  0  0  0
   35.9620   29.8910   38.6180 C   0  0  0  0  0  0  0  0  0  0  0  0
   35.4240   30.7580   39.0980 H   0  0  0  0  0  0  0  0  0  0  0  0
   35.2250   29.4540   37.9120 H   0  0  0  0  0  0  0  0  0  0  0  0
   36.5200   27.6020   39.6050 C   0  0  0  0  0  0  0  0  0  0  0  0
   36.3040   28.9620   39.6740 C   0  0  0  0  0  0  0  0  0  0  0  0
   36.4300   29.5400   40.9370 C   0  0  0  0  0  0  0  0  0  0  0  0
   36.7470   28.8080   42.0450 C   0  0  0  0  0  0  0  0  0  0  0  0
   36.9310   29.0810   43.3500 N   0  0  0  0  0  0  0  0  0  0  0  0
   37.2370   27.9950   44.0540 C   0  0  0  0  0  0  0  0  0  0  0  0
   37.2670   26.9010   43.1810 C   0  0  0  0  0  0  0  0  0  0  0  0
   36.9600   27.4580   41.9670 C   0  0  0  0  0  0  0  0  0  0  0  0
   36.8410   26.8690   40.7280 C   0  0  0  0  0  0  0  0  0  0  0  0
   36.4160   27.1870   38.6100 H   0  0  0  0  0  0  0  0  0  0  0  0
   36.2840   30.6060   41.1250 H   0  0  0  0  0  0  0  0  0  0  0  0
   36.8420   30.0520   43.7670 H   0  0  0  0  0  0  0  0  0  0  0  0
   37.4300   27.9660   45.1180 H   0  0  0  0  0  0  0  0  0  0  0  0
   37.4880   25.8980   43.4750 H   0  0  0  0  0  0  0  0  0  0  0  0
   37.0580   25.4300   40.5880 C   0  0  0  0  0  0  0  0  0  0  0  0
   38.2100   24.9650   40.3880 O   0  0  0  0  0  0  0  0  0  0  0  0
   36.2280   24.7380   40.6530 H   0  0  0  0  0  0  0  0  0  0  0  0
  1  7  1  0  0  0  0
  1 22  1  0  0  0  0
  2  1  1  0  0  0  0
  3  1  1  0  0  0  0
  4  5  1  0  0  0  0
  4 15  1  0  0  0  0
  5  9  1  0  0  0  0
  6  5  2  0  0  0  0
  7  8  1  0  0  0  0
  7  6  1  0  0  0  0
  8  4  2  0  0  0  0
 10  6  1  0  0  0  0
 11 12  1  0  0  0  0
 12 13  2  0  0  0  0
 12 18  1  0  0  0  0
 13 19  1  0  0  0  0
 14 13  1  0  0  0  0
 15 14  2  0  0  0  0
 16 15  1  0  0  0  0
 16 11  2  0  0  0  0
 17 11  1  0  0  0  0
 19 20  1  0  0  0  0
 21 20  1  0  0  0  0
 22 23  1  0  0  0  0
 22 26  1  0  0  0  0
 24 22  1  0  0  0  0
 25 26  2  0  0  0  0
 25 33  1  0  0  0  0
 26 27  1  0  0  0  0
 27 35  1  0  0  0  0
 27 28  2  0  0  0  0
 28 29  1  0  0  0  0
 29 36  1  0  0  0  0
 29 30  1  0  0  0  0
 30 37  1  0  0  0  0
 31 38  1  0  0  0  0
 31 30  2  0  0  0  0
 32 28  1  0  0  0  0
 32 31  1  0  0  0  0
 33 32  2  0  0  0  0
 34 25  1  0  0  0  0
 39 41  1  0  0  0  0
 39 33  1  0  0  0  0
 40 39  2  0  0  0  0
M  END
>  <minimizedAffinity>
-5.97736216

$$$$

 OpenBabel03252506303D

 41 44  0  0  0  0  0  0  0  0999 V2000
   37.6300   27.8060   43.9560 C   0  0  0  0  0  0  0  0  0  0  0  0
   38.0160   26.9070   44.4350 H   0  0  0  0  0  0  0  0  0  0  0  0
   37.1930   28.4930   44.7190 H   0  0  0  0  0  0  0  0  0  0  0  0
   39.7300   30.1640   42.2880 C   0  0  0  0  0  0  0  0  0  0  0  0
   40.6100   29.0670   42.4620 C   0  0  0  0  0  0  0  0  0  0  0  0
   39.9380   28.0790   43.0930 C   0  0  0  0  0  0  0  0  0  0  0  0
   38.6910   28.5440   43.3020 N   0  0  0  0  0  0  0  0  0  0  0  0
   38.5640   29.7860   42.8250 N   0  0  0  0  0  0  0  0  0  0  0  0
   41.6450   29.0630   42.1270 H   0  0  0  0  0  0  0  0  0  0  0  0
   40.2880   27.0890   43.3930 H   0  0  0  0  0  0  0  0  0  0  0  0
   41.7390   32.8910   40.9240 C   0  0  0  0  0  0  0  0  0  0  0  0
   40.7860   33.7840   40.4310 C   0  0  0  0  0  0  0  0  0  0  0  0
   39.4490   33.4200   40.5820 C   0  0  0  0  0  0  0  0  0  0  0  0
   39.1650   32.2550   41.1810 N   0  0  0  0  0  0  0  0  0  0  0  0
   40.0950   31.4120   41.6480 C   0  0  0  0  0  0  0  0  0  0  0  0
   41.3850   31.7430   41.5120 N   0  0  0  0  0  0  0  0  0  0  0  0
   42.7910   33.1880   40.8000 H   0  0  0  0  0  0  0  0  0  0  0  0
   41.0110   34.7280   39.9460 H   0  0  0  0  0  0  0  0  0  0  0  0
   38.3260   34.2660   40.1090 C   0  0  0  0  0  2  0  0  0  0  0  0
   37.2350   33.4660   39.4460 C   0  0  0  0  0  2  0  0  0  0  0  0
   37.2760   32.3910   39.7880 H   0  0  0  0  0  0  0  0  0  0  0  0
   36.5470   27.4990   42.9800 C   0  0  0  0  0  0  0  0  0  0  0  0
   35.7210   27.0050   43.5690 H   0  0  0  0  0  0  0  0  0  0  0  0
   36.1080   28.4520   42.6180 H   0  0  0  0  0  0  0  0  0  0  0  0
   36.8740   26.8640   40.5260 C   0  0  0  0  0  0  0  0  0  0  0  0
   36.8770   26.6130   41.8820 C   0  0  0  0  0  0  0  0  0  0  0  0
   37.2500   25.3260   42.2670 C   0  0  0  0  0  0  0  0  0  0  0  0
   37.5930   24.3640   41.3610 C   0  0  0  0  0  0  0  0  0  0  0  0
   37.9810   23.0780   41.4340 N   0  0  0  0  0  0  0  0  0  0  0  0
   38.2080   22.5510   40.2330 C   0  0  0  0  0  0  0  0  0  0  0  0
   37.9590   23.5350   39.2690 C   0  0  0  0  0  0  0  0  0  0  0  0
   37.5860   24.6220   40.0160 C   0  0  0  0  0  0  0  0  0  0  0  0
   37.2220   25.8880   39.6160 C   0  0  0  0  0  0  0  0  0  0  0  0
   36.5810   27.8730   40.2630 H   0  0  0  0  0  0  0  0  0  0  0  0
   37.2920   25.0010   43.3090 H   0  0  0  0  0  0  0  0  0  0  0  0
   38.0950   22.5470   42.3440 H   0  0  0  0  0  0  0  0  0  0  0  0
   38.5280   21.5370   40.0390 H   0  0  0  0  0  0  0  0  0  0  0  0
   38.0610   23.3900   38.2150 H   0  0  0  0  0  0  0  0  0  0  0  0
   37.1980   26.2180   38.1920 C   0  0  0  0  0  0  0  0  0  0  0  0
   38.1360   26.8670   37.6620 O   0  0  0  0  0  0  0  0  0  0  0  0
   36.3700   25.9070   37.5670 H   0  0  0  0  0  0  0  0  0  0  0  0
  1  2  1  0  0  0  0
  1  3  1  0  0  0  0
  4  5  1  0  0  0  0
  4  8  2  0  0  0  0
  5  6  2  0  0  0  0
  6  7  1  0  0  0  0
  6 10  1  0  0  0  0
  7  1  1  0  0  0  0
  8  7  1  0  0  0  0
  9  5  1  0  0  0  0
 11 16  1  0  0  0  0
 12 13  1  0  0  0  0
 12 11  2  0  0  0  0
 13 14  2  0  0  0  0
 14 15  1  0  0  0  0
 15  4  1  0  0  0  0
 16 15  2  0  0  0  0
 17 11  1  0  0  0  0
 18 12  1  0  0  0  0
 19 13  1  0  0  0  0
 20 21  1  0  0  0  0
 20 19  1  0  0  0  0
 22 23  1  0  0  0  0
 22  1  1  0  0  0  0
 24 22  1  0  0  0  0
 25 26  1  0  0  0  0
 26 27  2  0  0  0  0
 26 22  1  0  0  0  0
 27 35  1  0  0  0  0
 28 29  1  0  0  0  0
 28 27  1  0  0  0  0
 29 36  1  0  0  0  0
 30 29  1  0  0  0  0
 31 32  1  0  0  0  0
 31 30  2  0  0  0  0
 32 28  2  0  0  0  0
 33 32  1  0  0  0  0
 33 25  2  0  0  0  0
 34 25  1  0  0  0  0
 37 30  1  0  0  0  0
 38 31  1  0  0  0  0
 39 33  1  0  0  0  0
 40 39  2  0  0  0  0
 41 39  1  0  0  0  0
M  END
>  <minimizedAffinity>
-5.88332701

$$$$

 OpenBabel03252506303D

 41 44  0  0  0  0  0  0  0  0999 V2000
   37.5320   32.6700   40.2740 C   0  0  0  0  0  0  0  0  0  0  0  0
   37.1520   32.4620   41.2740 H   0  0  0  0  0  0  0  0  0  0  0  0
   36.8000   33.2900   39.7040 H   0  0  0  0  0  0  0  0  0  0  0  0
   40.8830   33.8900   40.4620 C   0  0  0  0  0  0  0  0  0  0  0  0
   40.1430   35.0940   40.3690 C   0  0  0  0  0  0  0  0  0  0  0  0
   38.8300   34.7810   40.2900 C   0  0  0  0  0  0  0  0  0  0  0  0
   38.7590   33.4370   40.3320 N   0  0  0  0  0  0  0  0  0  0  0  0
   39.9800   32.9020   40.4340 N   0  0  0  0  0  0  0  0  0  0  0  0
   40.5950   36.0830   40.3660 H   0  0  0  0  0  0  0  0  0  0  0  0
   37.9660   35.4450   40.2080 H   0  0  0  0  0  0  0  0  0  0  0  0
   44.4130   33.8210   39.5340 C   0  0  0  0  0  0  0  0  0  0  0  0
   45.0720   33.6950   40.7590 C   0  0  0  0  0  0  0  0  0  0  0  0
   44.2700   33.6360   41.8970 C   0  0  0  0  0  0  0  0  0  0  0  0
   42.9380   33.7020   41.7490 N   0  0  0  0  0  0  0  0  0  0  0  0
   42.3270   33.8230   40.5640 C   0  0  0  0  0  0  0  0  0  0  0  0
   43.0790   33.8810   39.4580 N   0  0  0  0  0  0  0  0  0  0  0  0
   45.0550   33.8660   38.6410 H   0  0  0  0  0  0  0  0  0  0  0  0
   46.1480   33.6410   40.8830 H   0  0  0  0  0  0  0  0  0  0  0  0
   44.8240   33.5030   43.2670 C   0  0  0  0  0  2  0  0  0  0  0  0
   45.3020   34.8150   43.8310 C   0  0  0  0  0  2  0  0  0  0  0  0
   44.7940   35.6750   43.3040 H   0  0  0  0  0  0  0  0  0  0  0  0
   37.7470   31.4220   39.4870 C   0  0  0  0  0  0  0  0  0  0  0  0
   36.9560   31.4150   38.6840 H   0  0  0  0  0  0  0  0  0  0  0  0
   38.7090   31.5050   38.9390 H   0  0  0  0  0  0  0  0  0  0  0  0
   37.7640   28.8780   39.7200 C   0  0  0  0  0  0  0  0  0  0  0  0
   37.6450   30.1660   40.1990 C   0  0  0  0  0  0  0  0  0  0  0  0
   37.3900   30.2910   41.5640 C   0  0  0  0  0  0  0  0  0  0  0  0
   37.2620   29.2080   42.3850 C   0  0  0  0  0  0  0  0  0  0  0  0
   37.0230   29.0260   43.6960 N   0  0  0  0  0  0  0  0  0  0  0  0
   36.9920   27.7380   44.0290 C   0  0  0  0  0  0  0  0  0  0  0  0
   37.2230   26.9810   42.8740 C   0  0  0  0  0  0  0  0  0  0  0  0
   37.3820   27.9330   41.9010 C   0  0  0  0  0  0  0  0  0  0  0  0
   37.6350   27.7880   40.5540 C   0  0  0  0  0  0  0  0  0  0  0  0
   37.9630   28.8180   38.6570 H   0  0  0  0  0  0  0  0  0  0  0  0
   37.2740   31.2550   42.0660 H   0  0  0  0  0  0  0  0  0  0  0  0
   36.8780   29.8190   44.3850 H   0  0  0  0  0  0  0  0  0  0  0  0
   36.8170   27.3460   45.0220 H   0  0  0  0  0  0  0  0  0  0  0  0
   37.2540   25.9130   42.8450 H   0  0  0  0  0  0  0  0  0  0  0  0
   37.7720   26.4490   39.9850 C   0  0  0  0  0  0  0  0  0  0  0  0
   38.6240   26.2090   39.0910 O   0  0  0  0  0  0  0  0  0  0  0  0
   37.1390   25.6370   40.3240 H   0  0  0  0  0  0  0  0  0  0  0  0
  1  7  1  0  0  0  0
  1  2  1  0  0  0  0
  3  1  1  0  0  0  0
  4 15  1  0  0  0  0
  5  4  1  0  0  0  0
  6  7  1  0  0  0  0
  6  5  2  0  0  0  0
  7  8  1  0  0  0  0
  8  4  2  0  0  0  0
  9  5  1  0  0  0  0
 10  6  1  0  0  0  0
 11 12  1  0  0  0  0
 12 18  1  0  0  0  0
 12 13  2  0  0  0  0
 13 19  1  0  0  0  0
 14 13  1  0  0  0  0
 15 14  2  0  0  0  0
 16 11  2  0  0  0  0
 16 15  1  0  0  0  0
 17 11  1  0  0  0  0
 19 20  1  0  0  0  0
 21 20  1  0  0  0  0
 22 26  1  0  0  0  0
 22  1  1  0  0  0  0
 23 22  1  0  0  0  0
 24 22  1  0  0  0  0
 25 26  2  0  0  0  0
 25 33  1  0  0  0  0
 26 27  1  0  0  0  0
 27 35  1  0  0  0  0
 27 28  2  0  0  0  0
 28 29  1  0  0  0  0
 29 30  1  0  0  0  0
 29 36  1  0  0  0  0
 30 37  1  0  0  0  0
 31 30  2  0  0  0  0
 32 28  1  0  0  0  0
 32 31  1  0  0  0  0
 33 32  2  0  0  0  0
 34 25  1  0  0  0  0
 38 31  1  0  0  0  0
 39 41  1  0  0  0  0
 39 33  1  0  0  0  0
 40 39  2  0  0  0  0
M  END
>  <minimizedAffinity>
-5.81224966

$$$$

 OpenBabel03252506303D

 41 44  0  0  0  0  0  0  0  0999 V2000
   37.1700   28.9890   42.0610 C   0  0  0  0  0  0  0  0  0  0  0  0
   38.1070   28.6380   42.4920 H   0  0  0  0  0  0  0  0  0  0  0  0
   36.4220   29.1770   42.8680 H   0  0  0  0  0  0  0  0  0  0  0  0
   38.3450   31.9840   40.5120 C   0  0  0  0  0  0  0  0  0  0  0  0
   36.9490   32.0740   40.2910 C   0  0  0  0  0  0  0  0  0  0  0  0
   36.3610   30.9850   40.8350 C   0  0  0  0  0  0  0  0  0  0  0  0
   37.3530   30.2490   41.3720 N   0  0  0  0  0  0  0  0  0  0  0  0
   38.5370   30.8410   41.1810 N   0  0  0  0  0  0  0  0  0  0  0  0
   36.4720   32.8990   39.7670 H   0  0  0  0  0  0  0  0  0  0  0  0
   35.3040   30.7120   40.8610 H   0  0  0  0  0  0  0  0  0  0  0  0
   40.2350   35.0980   40.2600 C   0  0  0  0  0  0  0  0  0  0  0  0
   41.1420   34.8480   39.2290 C   0  0  0  0  0  0  0  0  0  0  0  0
   41.0810   33.5900   38.6340 C   0  0  0  0  0  0  0  0  0  0  0  0
   40.1710   32.7110   39.0790 N   0  0  0  0  0  0  0  0  0  0  0  0
   39.3090   32.9720   40.0700 C   0  0  0  0  0  0  0  0  0  0  0  0
   39.3510   34.1750   40.6560 N   0  0  0  0  0  0  0  0  0  0  0  0
   40.2900   36.0950   40.7240 H   0  0  0  0  0  0  0  0  0  0  0  0
   41.8800   35.5550   38.8650 H   0  0  0  0  0  0  0  0  0  0  0  0
   41.9800   33.1780   37.5270 C   0  0  0  0  0  2  0  0  0  0  0  0
   41.8610   31.7150   37.1940 C   0  0  0  0  0  2  0  0  0  0  0  0
   40.8640   31.3140   37.5430 H   0  0  0  0  0  0  0  0  0  0  0  0
   36.5680   27.9850   41.1390 C   0  0  0  0  0  0  0  0  0  0  0  0
   35.4810   27.9030   41.4270 H   0  0  0  0  0  0  0  0  0  0  0  0
   36.5600   28.4020   40.1100 H   0  0  0  0  0  0  0  0  0  0  0  0
   38.0230   26.0930   42.0510 C   0  0  0  0  0  0  0  0  0  0  0  0
   37.1200   26.6460   41.1680 C   0  0  0  0  0  0  0  0  0  0  0  0
   36.6640   25.8090   40.1510 C   0  0  0  0  0  0  0  0  0  0  0  0
   37.0830   24.5150   40.0290 C   0  0  0  0  0  0  0  0  0  0  0  0
   36.8260   23.5040   39.1800 N   0  0  0  0  0  0  0  0  0  0  0  0
   37.5020   22.4000   39.4890 C   0  0  0  0  0  0  0  0  0  0  0  0
   38.2760   22.6660   40.6250 C   0  0  0  0  0  0  0  0  0  0  0  0
   37.9800   23.9740   40.9100 C   0  0  0  0  0  0  0  0  0  0  0  0
   38.4420   24.7860   41.9220 C   0  0  0  0  0  0  0  0  0  0  0  0
   38.3560   26.7710   42.8270 H   0  0  0  0  0  0  0  0  0  0  0  0
   35.9480   26.1260   39.3890 H   0  0  0  0  0  0  0  0  0  0  0  0
   36.1590   23.5780   38.3590 H   0  0  0  0  0  0  0  0  0  0  0  0
   37.4590   21.4620   38.9540 H   0  0  0  0  0  0  0  0  0  0  0  0
   38.9230   21.9580   41.0970 H   0  0  0  0  0  0  0  0  0  0  0  0
   39.4010   24.2580   42.8910 C   0  0  0  0  0  0  0  0  0  0  0  0
   40.6250   24.5350   42.8070 O   0  0  0  0  0  0  0  0  0  0  0  0
   39.0720   23.6180   43.7010 H   0  0  0  0  0  0  0  0  0  0  0  0
  1  2  1  0  0  0  0
  1  3  1  0  0  0  0
  4  8  2  0  0  0  0
  5  4  1  0  0  0  0
  5  6  2  0  0  0  0
  6 10  1  0  0  0  0
  6  7  1  0  0  0  0
  7  1  1  0  0  0  0
  8  7  1  0  0  0  0
  9  5  1  0  0  0  0
 11 16  1  0  0  0  0
 11 17  1  0  0  0  0
 12 11  2  0  0  0  0
 13 14  2  0  0  0  0
 13 12  1  0  0  0  0
 14 15  1  0  0  0  0
 15  4  1  0  0  0  0
 15 16  2  0  0  0  0
 18 12  1  0  0  0  0
 19 13  1  0  0  0  0
 20 19  1  0  0  0  0
 20 21  1  0  0  0  0
 22 26  1  0  0  0  0
 22 23  1  0  0  0  0
 22  1  1  0  0  0  0
 24 22  1  0  0  0  0
 25 34  1  0  0  0  0
 26 25  2  0  0  0  0
 27 26  1  0  0  0  0
 28 27  2  0  0  0  0
 28 32  1  0  0  0  0
 29 30  1  0  0  0  0
 29 28  1  0  0  0  0
 30 31  2  0  0  0  0
 31 32  1  0  0  0  0
 31 38  1  0  0  0  0
 32 33  2  0  0  0  0
 33 25  1  0  0  0  0
 33 39  1  0  0  0  0
 35 27  1  0  0  0  0
 36 29  1  0  0  0  0
 37 30  1  0  0  0  0
 39 41  1  0  0  0  0
 40 39  2  0  0  0  0
M  END
>  <minimizedAffinity>
-5.77852392

$$$$

 OpenBabel03252506303D

 41 44  0  0  0  0  0  0  0  0999 V2000
   36.6530   30.4770   38.4080 C   0  0  0  0  0  0  0  0  0  0  0  0
   37.4380   30.1980   37.7060 H   0  0  0  0  0  0  0  0  0  0  0  0
   35.6720   30.5470   37.8800 H   0  0  0  0  0  0  0  0  0  0  0  0
   36.8310   27.6630   40.5990 C   0  0  0  0  0  0  0  0  0  0  0  0
   35.7540   28.3950   41.1570 C   0  0  0  0  0  0  0  0  0  0  0  0
   35.5680   29.5100   40.4160 C   0  0  0  0  0  0  0  0  0  0  0  0
   36.4920   29.4700   39.4370 N   0  0  0  0  0  0  0  0  0  0  0  0
   37.2470   28.3720   39.5430 N   0  0  0  0  0  0  0  0  0  0  0  0
   35.1980   28.0770   42.0360 H   0  0  0  0  0  0  0  0  0  0  0  0
   34.8340   30.3080   40.5420 H   0  0  0  0  0  0  0  0  0  0  0  0
   37.2010   24.0850   41.2240 C   0  0  0  0  0  0  0  0  0  0  0  0
   38.2660   24.0180   42.1240 C   0  0  0  0  0  0  0  0  0  0  0  0
   38.8430   25.2290   42.5010 C   0  0  0  0  0  0  0  0  0  0  0  0
   38.3490   26.3640   41.9870 N   0  0  0  0  0  0  0  0  0  0  0  0
   37.3250   26.4060   41.1240 C   0  0  0  0  0  0  0  0  0  0  0  0
   36.7560   25.2540   40.7480 N   0  0  0  0  0  0  0  0  0  0  0  0
   36.7520   23.1230   40.9330 H   0  0  0  0  0  0  0  0  0  0  0  0
   38.6690   23.1020   42.5430 H   0  0  0  0  0  0  0  0  0  0  0  0
   39.9810   25.3180   43.4490 C   0  0  0  0  0  2  0  0  0  0  0  0
   40.2490   26.7270   43.9060 C   0  0  0  0  0  2  0  0  0  0  0  0
   39.3240   27.3620   43.7790 H   0  0  0  0  0  0  0  0  0  0  0  0
   36.9050   31.8070   39.0300 C   0  0  0  0  0  0  0  0  0  0  0  0
   36.2430   32.5410   38.4860 H   0  0  0  0  0  0  0  0  0  0  0  0
   36.5210   31.7950   40.0720 H   0  0  0  0  0  0  0  0  0  0  0  0
   39.2670   32.0140   38.0790 C   0  0  0  0  0  0  0  0  0  0  0  0
   38.2570   32.3220   38.9660 C   0  0  0  0  0  0  0  0  0  0  0  0
   38.5670   33.2610   39.9480 C   0  0  0  0  0  0  0  0  0  0  0  0
   39.7980   33.8470   40.0330 C   0  0  0  0  0  0  0  0  0  0  0  0
   40.3690   34.7550   40.8450 N   0  0  0  0  0  0  0  0  0  0  0  0
   41.6320   35.0080   40.5100 C   0  0  0  0  0  0  0  0  0  0  0  0
   41.9540   34.2250   39.3950 C   0  0  0  0  0  0  0  0  0  0  0  0
   40.7950   33.5350   39.1490 C   0  0  0  0  0  0  0  0  0  0  0  0
   40.5070   32.6090   38.1710 C   0  0  0  0  0  0  0  0  0  0  0  0
   38.9910   31.2820   37.3300 H   0  0  0  0  0  0  0  0  0  0  0  0
   37.8560   33.5900   40.7090 H   0  0  0  0  0  0  0  0  0  0  0  0
   39.8690   35.2160   41.6580 H   0  0  0  0  0  0  0  0  0  0  0  0
   42.2920   35.7000   41.0140 H   0  0  0  0  0  0  0  0  0  0  0  0
   42.9060   34.2240   38.9100 H   0  0  0  0  0  0  0  0  0  0  0  0
   41.5360   32.2400   37.1990 C   0  0  0  0  0  0  0  0  0  0  0  0
   42.1680   31.1580   37.3050 O   0  0  0  0  0  0  0  0  0  0  0  0
   41.7710   32.8950   36.3690 H   0  0  0  0  0  0  0  0  0  0  0  0
  1 22  1  0  0  0  0
  1  7  1  0  0  0  0
  2  1  1  0  0  0  0
  3  1  1  0  0  0  0
  4 15  1  0  0  0  0
  4  5  1  0  0  0  0
  5  9  1  0  0  0  0
  6 10  1  0  0  0  0
  6  5  2  0  0  0  0
  7  8  1  0  0  0  0
  7  6  1  0  0  0  0
  8  4  2  0  0  0  0
 11 12  1  0  0  0  0
 12 13  2  0  0  0  0
 12 18  1  0  0  0  0
 13 19  1  0  0  0  0
 14 13  1  0  0  0  0
 15 14  2  0  0  0  0
 16 15  1  0  0  0  0
 16 11  2  0  0  0  0
 17 11  1  0  0  0  0
 19 20  1  0  0  0  0
 21 20  1  0  0  0  0
 22 24  1  0  0  0  0
 23 22  1  0  0  0  0
 25 33  2  0  0  0  0
 25 26  1  0  0  0  0
 26 22  1  0  0  0  0
 26 27  2  0  0  0  0
 27 28  1  0  0  0  0
 27 35  1  0  0  0  0
 28 29  1  0  0  0  0
 29 36  1  0  0  0  0
 30 29  1  0  0  0  0
 30 37  1  0  0  0  0
 31 30  2  0  0  0  0
 32 31  1  0  0  0  0
 32 28  2  0  0  0  0
 33 32  1  0  0  0  0
 34 25  1  0  0  0  0
 38 31  1  0  0  0  0
 39 40  2  0  0  0  0
 39 33  1  0  0  0  0
 41 39  1  0  0  0  0
M  END
>  <minimizedAffinity>
-5.75811386

$$$$
