
 OpenBabel03252507533D

 32 34  0  0  1  0  0  0  0  0999 V2000
   47.0830   34.7480   42.1300 C   0  0  2  0  0  0  0  0  0  0  0  0
   46.3190   34.3960   40.8800 C   0  0  0  0  0  0  0  0  0  0  0  0
   47.5280   34.1370   39.9590 C   0  0  0  0  0  0  0  0  0  0  0  0
   48.5690   33.5110   40.8490 C   0  0  1  0  0  0  0  0  0  0  0  0
   47.9750   33.5060   42.2150 C   0  0  0  0  0  0  0  0  0  0  0  0
   47.6410   35.6700   41.9570 H   0  0  0  0  0  0  0  0  0  0  0  0
   45.7520   35.2510   40.4950 H   0  0  0  0  0  0  0  0  0  0  0  0
   45.7500   33.4810   41.0460 H   0  0  0  0  0  0  0  0  0  0  0  0
   47.2660   33.4220   39.1490 H   0  0  0  0  0  0  0  0  0  0  0  0
   47.9410   35.0880   39.6050 H   0  0  0  0  0  0  0  0  0  0  0  0
   49.5110   34.0760   40.8940 H   0  0  0  0  0  0  0  0  0  0  0  0
   47.1620   32.7730   42.3920 H   0  0  0  0  0  0  0  0  0  0  0  0
   48.6690   33.6630   43.0510 H   0  0  0  0  0  0  0  0  0  0  0  0
   44.5200   35.8730   44.6660 C   0  0  0  0  0  0  0  0  0  0  0  0
   45.2680   35.8540   43.4820 C   0  0  0  0  0  0  0  0  0  0  0  0
   46.2260   34.8450   43.3380 C   0  0  0  0  0  0  0  0  0  0  0  0
   46.4000   33.9140   44.3520 N   0  0  0  0  0  0  0  0  0  0  0  0
   45.6450   33.9830   45.4740 C   0  0  0  0  0  0  0  0  0  0  0  0
   44.7150   34.9520   45.6290 N   0  0  0  0  0  0  0  0  0  0  0  0
   43.8130   36.6950   44.6640 H   0  0  0  0  0  0  0  0  0  0  0  0
   45.1730   36.5490   42.6700 H   0  0  0  0  0  0  0  0  0  0  0  0
   45.7830   33.2630   46.2550 H   0  0  0  0  0  0  0  0  0  0  0  0
   48.8670   32.0790   40.5150 C   0  0  2  0  0  0  0  0  0  0  0  0
   48.9850   31.1320   41.6130 C   0  0  0  0  0  0  0  0  0  0  0  0
   50.1370   31.4440   40.6540 C   0  0  2  0  0  0  0  0  0  0  0  0
   48.1690   31.7500   39.6870 H   0  0  0  0  0  0  0  0  0  0  0  0
   48.5090   30.1080   41.4900 H   0  0  0  0  0  0  0  0  0  0  0  0
   49.3760   31.2020   42.6170 H   0  0  0  0  0  0  0  0  0  0  0  0
   50.3400   30.6020   39.9200 H   0  0  0  0  0  0  0  0  0  0  0  0
   51.4230   32.0220   41.1330 C   0  0  0  0  0  2  0  0  0  0  0  0
   52.6200   31.4490   40.3470 C   0  0  0  0  0  2  0  0  0  0  0  0
   53.3130   32.2350   40.0300 H   0  0  0  0  0  0  0  0  0  0  0  0
  1  6  1  6  0  0  0
  1  5  1  0  0  0  0
  1 16  1  0  0  0  0
  2  8  1  0  0  0  0
  2  1  1  0  0  0  0
  3  4  1  0  0  0  0
  3  2  1  0  0  0  0
  4 11  1  6  0  0  0
  4  5  1  0  0  0  0
  5 12  1  0  0  0  0
  5 13  1  0  0  0  0
  7  2  1  0  0  0  0
  9  3  1  0  0  0  0
 10  3  1  0  0  0  0
 14 19  1  0  0  0  0
 15 14  2  0  0  0  0
 16 15  1  0  0  0  0
 16 17  2  0  0  0  0
 17 18  1  0  0  0  0
 18 19  2  0  0  0  0
 18 22  1  0  0  0  0
 20 14  1  0  0  0  0
 21 15  1  0  0  0  0
 23 26  1  6  0  0  0
 23 25  1  0  0  0  0
 23  4  1  0  0  0  0
 23 24  1  0  0  0  0
 24 28  1  0  0  0  0
 25 29  1  6  0  0  0
 25 30  1  0  0  0  0
 25 24  1  0  0  0  0
 27 24  1  0  0  0  0
 31 30  1  0  0  0  0
 32 31  1  0  0  0  0
M  END
>  <minimizedAffinity>
-4.56628036

>  <minimizedRMSD>
1.38815022

$$$$
