
 OpenBabel03252507533D

 32 34  0  0  1  0  0  0  0  0999 V2000
   47.0870   34.7360   42.0570 C   0  0  2  0  0  0  0  0  0  0  0  0
   46.3350   34.3360   40.8150 C   0  0  0  0  0  0  0  0  0  0  0  0
   47.5530   34.0450   39.9150 C   0  0  0  0  0  0  0  0  0  0  0  0
   48.5880   33.4560   40.8380 C   0  0  1  0  0  0  0  0  0  0  0  0
   47.9820   33.5010   42.1970 C   0  0  0  0  0  0  0  0  0  0  0  0
   47.6440   35.6530   41.8540 H   0  0  0  0  0  0  0  0  0  0  0  0
   45.7700   35.1740   40.3930 H   0  0  0  0  0  0  0  0  0  0  0  0
   45.7670   33.4260   41.0110 H   0  0  0  0  0  0  0  0  0  0  0  0
   47.3000   33.2980   39.1310 H   0  0  0  0  0  0  0  0  0  0  0  0
   47.9670   34.9830   39.5300 H   0  0  0  0  0  0  0  0  0  0  0  0
   49.5270   34.0240   40.8690 H   0  0  0  0  0  0  0  0  0  0  0  0
   47.1680   32.7730   42.3950 H   0  0  0  0  0  0  0  0  0  0  0  0
   48.6670   33.6920   43.0330 H   0  0  0  0  0  0  0  0  0  0  0  0
   44.5300   35.9760   44.5460 C   0  0  0  0  0  0  0  0  0  0  0  0
   45.2920   35.9180   43.3720 C   0  0  0  0  0  0  0  0  0  0  0  0
   46.2200   34.8780   43.2530 C   0  0  0  0  0  0  0  0  0  0  0  0
   46.3520   33.9550   44.2820 N   0  0  0  0  0  0  0  0  0  0  0  0
   45.5860   34.0640   45.3940 C   0  0  0  0  0  0  0  0  0  0  0  0
   44.6850   35.0640   45.5230 N   0  0  0  0  0  0  0  0  0  0  0  0
   43.8490   36.8200   44.5240 H   0  0  0  0  0  0  0  0  0  0  0  0
   45.2280   36.6040   42.5500 H   0  0  0  0  0  0  0  0  0  0  0  0
   45.6920   33.3500   46.1860 H   0  0  0  0  0  0  0  0  0  0  0  0
   48.8920   32.0130   40.5610 C   0  0  2  0  0  0  0  0  0  0  0  0
   49.0420   31.1170   41.6970 C   0  0  0  0  0  0  0  0  0  0  0  0
   50.1700   31.3960   40.7010 C   0  0  2  0  0  0  0  0  0  0  0  0
   48.1800   31.6420   39.7630 H   0  0  0  0  0  0  0  0  0  0  0  0
   48.5730   30.0850   41.6300 H   0  0  0  0  0  0  0  0  0  0  0  0
   49.4530   31.2350   42.6890 H   0  0  0  0  0  0  0  0  0  0  0  0
   50.3670   30.5240   40.0010 H   0  0  0  0  0  0  0  0  0  0  0  0
   51.4610   32.0050   41.1270 C   0  0  0  0  0  2  0  0  0  0  0  0
   52.6420   31.4320   40.3200 C   0  0  0  0  0  2  0  0  0  0  0  0
   53.3140   32.2190   39.9630 H   0  0  0  0  0  0  0  0  0  0  0  0
  1  6  1  6  0  0  0
  1  5  1  0  0  0  0
  1 16  1  0  0  0  0
  2  8  1  0  0  0  0
  2  1  1  0  0  0  0
  3  2  1  0  0  0  0
  3  4  1  0  0  0  0
  4 11  1  6  0  0  0
  4  5  1  0  0  0  0
  5 12  1  0  0  0  0
  5 13  1  0  0  0  0
  7  2  1  0  0  0  0
  9  3  1  0  0  0  0
 10  3  1  0  0  0  0
 14 19  1  0  0  0  0
 15 14  2  0  0  0  0
 16 15  1  0  0  0  0
 16 17  2  0  0  0  0
 17 18  1  0  0  0  0
 18 19  2  0  0  0  0
 18 22  1  0  0  0  0
 20 14  1  0  0  0  0
 21 15  1  0  0  0  0
 23 26  1  6  0  0  0
 23 25  1  0  0  0  0
 23  4  1  0  0  0  0
 23 24  1  0  0  0  0
 24 28  1  0  0  0  0
 25 29  1  6  0  0  0
 25 30  1  0  0  0  0
 25 24  1  0  0  0  0
 27 24  1  0  0  0  0
 31 30  1  0  0  0  0
 32 31  1  0  0  0  0
M  END
>  <minimizedAffinity>
-4.56093502

>  <minimizedRMSD>
1.43094826

$$$$
