
 OpenBabel03252507533D

 32 34  0  0  1  0  0  0  0  0999 V2000
   46.4500   34.8850   41.9480 C   0  0  2  0  0  0  0  0  0  0  0  0
   45.8840   34.9640   43.3410 C   0  0  0  0  0  0  0  0  0  0  0  0
   44.7290   35.9420   43.0460 C   0  0  0  0  0  0  0  0  0  0  0  0
   44.2550   35.5790   41.6640 C   0  0  1  0  0  0  0  0  0  0  0  0
   45.1710   34.5000   41.1980 C   0  0  0  0  0  0  0  0  0  0  0  0
   46.8370   35.8660   41.6650 H   0  0  0  0  0  0  0  0  0  0  0  0
   46.5850   35.4370   44.0380 H   0  0  0  0  0  0  0  0  0  0  0  0
   45.5040   33.9860   43.6360 H   0  0  0  0  0  0  0  0  0  0  0  0
   43.8930   35.8000   43.7650 H   0  0  0  0  0  0  0  0  0  0  0  0
   45.1100   36.9670   42.9930 H   0  0  0  0  0  0  0  0  0  0  0  0
   44.3160   36.4060   40.9430 H   0  0  0  0  0  0  0  0  0  0  0  0
   45.0360   33.5060   41.6720 H   0  0  0  0  0  0  0  0  0  0  0  0
   45.4130   34.4920   40.1280 H   0  0  0  0  0  0  0  0  0  0  0  0
   49.0760   32.5820   40.5100 C   0  0  0  0  0  0  0  0  0  0  0  0
   48.1350   33.6180   40.5690 C   0  0  0  0  0  0  0  0  0  0  0  0
   47.4760   33.8250   41.7850 C   0  0  0  0  0  0  0  0  0  0  0  0
   47.7700   33.0140   42.8720 N   0  0  0  0  0  0  0  0  0  0  0  0
   48.6910   32.0280   42.7540 C   0  0  0  0  0  0  0  0  0  0  0  0
   49.3370   31.8150   41.5850 N   0  0  0  0  0  0  0  0  0  0  0  0
   49.5190   32.5180   39.5230 H   0  0  0  0  0  0  0  0  0  0  0  0
   47.8710   34.2710   39.7600 H   0  0  0  0  0  0  0  0  0  0  0  0
   48.9150   31.4040   43.5950 H   0  0  0  0  0  0  0  0  0  0  0  0
   42.8720   34.9980   41.6320 C   0  0  2  0  0  0  0  0  0  0  0  0
   42.7170   33.6270   41.1710 C   0  0  0  0  0  0  0  0  0  0  0  0
   42.0740   34.8230   40.4630 C   0  0  2  0  0  0  0  0  0  0  0  0
   42.3670   35.2180   42.6220 H   0  0  0  0  0  0  0  0  0  0  0  0
   42.0010   32.9500   41.7360 H   0  0  0  0  0  0  0  0  0  0  0  0
   43.2130   33.0360   40.4160 H   0  0  0  0  0  0  0  0  0  0  0  0
   40.9520   34.8830   40.6290 H   0  0  0  0  0  0  0  0  0  0  0  0
   42.3980   35.1660   39.0510 C   0  0  0  0  0  2  0  0  0  0  0  0
   41.1630   35.7200   38.3140 C   0  0  0  0  0  2  0  0  0  0  0  0
   41.4000   36.6240   37.7420 H   0  0  0  0  0  0  0  0  0  0  0  0
  1  6  1  6  0  0  0
  1  2  1  0  0  0  0
  2  8  1  0  0  0  0
  2  7  1  0  0  0  0
  3  2  1  0  0  0  0
  3  9  1  0  0  0  0
  4 11  1  6  0  0  0
  4  3  1  0  0  0  0
  5  4  1  0  0  0  0
  5 12  1  0  0  0  0
  5  1  1  0  0  0  0
 10  3  1  0  0  0  0
 13  5  1  0  0  0  0
 14 15  2  0  0  0  0
 14 19  1  0  0  0  0
 15 16  1  0  0  0  0
 16  1  1  0  0  0  0
 16 17  2  0  0  0  0
 18 17  1  0  0  0  0
 18 22  1  0  0  0  0
 19 18  2  0  0  0  0
 20 14  1  0  0  0  0
 21 15  1  0  0  0  0
 23  4  1  0  0  0  0
 23 26  1  1  0  0  0
 24 23  1  0  0  0  0
 24 27  1  0  0  0  0
 25 29  1  1  0  0  0
 25 24  1  0  0  0  0
 25 23  1  0  0  0  0
 28 24  1  0  0  0  0
 30 25  1  0  0  0  0
 31 30  1  0  0  0  0
 32 31  1  0  0  0  0
M  END
>  <minimizedAffinity>
-4.2993145

>  <minimizedRMSD>
6.48257732

$$$$
