
 OpenBabel03242512363D

 28 30  0  0  0  0  0  0  0  0999 V2000
   46.3270   33.6900   40.1900 C   0  0  0  0  0  0  0  0  0  0  0  0
   47.4740   34.4310   40.4880 C   0  0  0  0  0  0  0  0  0  0  0  0
   48.4310   34.5510   39.5140 C   0  0  0  0  0  0  0  0  0  0  0  0
   48.3420   33.9850   38.2450 C   0  0  0  0  0  0  0  0  0  0  0  0
   49.1470   33.9830   37.1660 N   0  0  0  0  0  0  0  0  0  0  0  0
   48.5650   33.2730   36.1960 C   0  0  0  0  0  0  0  0  0  0  0  0
   47.3510   32.8090   36.6720 C   0  0  0  0  0  0  0  0  0  0  0  0
   47.1950   33.2550   37.9770 C   0  0  0  0  0  0  0  0  0  0  0  0
   46.2180   33.1140   38.9240 C   0  0  0  0  0  0  0  0  0  0  0  0
   45.5810   33.5970   40.9510 H   0  0  0  0  0  0  0  0  0  0  0  0
   49.3710   35.1150   39.6480 H   0  0  0  0  0  0  0  0  0  0  0  0
   50.0780   34.4480   37.0730 H   0  0  0  0  0  0  0  0  0  0  0  0
   48.9730   33.0990   35.2230 H   0  0  0  0  0  0  0  0  0  0  0  0
   46.6240   32.1960   36.1290 H   0  0  0  0  0  0  0  0  0  0  0  0
   45.3190   32.5470   38.7280 H   0  0  0  0  0  0  0  0  0  0  0  0
   47.6920   35.0860   41.7810 C   0  0  0  0  0  0  0  0  0  0  0  0
   48.6850   35.8710   41.7720 O   0  0  0  0  0  0  0  0  0  0  0  0
   46.8290   34.8150   42.8950 C   0  0  0  0  0  0  0  0  0  0  0  0
   45.6930   35.6290   42.9910 C   0  0  0  0  0  0  0  0  0  0  0  0
   44.8430   35.3620   44.0900 C   0  0  0  0  0  0  0  0  0  0  0  0
   45.1750   34.3660   44.9510 N   0  0  0  0  0  0  0  0  0  0  0  0
   46.2890   33.6200   44.7970 C   0  0  0  0  0  0  0  0  0  0  0  0
   47.1160   33.8550   43.7560 N   0  0  0  0  0  0  0  0  0  0  0  0
   45.4600   36.4060   42.2940 H   0  0  0  0  0  0  0  0  0  0  0  0
   43.9590   35.9780   44.1840 H   0  0  0  0  0  0  0  0  0  0  0  0
   46.5390   32.5580   45.8130 C   0  0  0  0  0  0  0  0  0  0  0  0
   45.7280   32.7740   47.0660 C   0  0  0  0  0  0  0  0  0  0  0  0
   46.1110   33.6970   47.5610 H   0  0  0  0  0  0  0  0  0  0  0  0
  1  2  1  0  0  0  0
  1 10  1  0  0  0  0
  2 16  1  0  0  0  0
  3 11  1  0  0  0  0
  3  2  2  0  0  0  0
  4  3  1  0  0  0  0
  5  4  1  0  0  0  0
  6  7  2  0  0  0  0
  6  5  1  0  0  0  0
  7  8  1  0  0  0  0
  8  4  2  0  0  0  0
  8  9  1  0  0  0  0
  9  1  2  0  0  0  0
 12  5  1  0  0  0  0
 13  6  1  0  0  0  0
 14  7  1  0  0  0  0
 15  9  1  0  0  0  0
 16 18  1  0  0  0  0
 17 16  2  0  0  0  0
 18 19  2  0  0  0  0
 18 23  1  0  0  0  0
 19 20  1  0  0  0  0
 20 25  1  0  0  0  0
 20 21  2  0  0  0  0
 22 21  1  0  0  0  0
 22 26  1  0  0  0  0
 23 22  2  0  0  0  0
 24 19  1  0  0  0  0
 26 27  1  0  0  0  0
 27 28  1  0  0  0  0
M  END
>  <minimizedAffinity>
-5.63145161

>  <minimizedRMSD>
0.19799535

$$$$
