
 OpenBabel03242517443D

 23 24  0  0  0  0  0  0  0  0999 V2000
   36.4850   30.4480   39.3830 C   0  0  0  0  0  0  0  0  0  0  0  0
   35.9530   29.4860   38.5370 C   0  0  0  0  0  0  0  0  0  0  0  0
   36.2670   29.5040   37.1920 C   0  0  0  0  0  0  0  0  0  0  0  0
   37.1060   30.4600   36.6520 C   0  0  0  0  0  0  0  0  0  0  0  0
   37.6420   31.4250   37.4920 C   0  0  0  0  0  0  0  0  0  0  0  0
   37.3250   31.4050   38.8470 C   0  0  0  0  0  0  0  0  0  0  0  0
   35.3150   28.7940   39.0670 H   0  0  0  0  0  0  0  0  0  0  0  0
   35.8180   28.7350   36.6160 H   0  0  0  0  0  0  0  0  0  0  0  0
   37.2860   30.3850   35.5910 H   0  0  0  0  0  0  0  0  0  0  0  0
   38.2920   32.1490   37.0230 H   0  0  0  0  0  0  0  0  0  0  0  0
   36.2050   30.5990   41.1270 S   0  0  0  0  0  0  0  0  0  0  0  0
   36.6210   28.0380   42.1380 C   0  0  0  0  0  0  0  0  0  0  0  0
   37.1600   29.3450   41.9770 C   0  0  0  0  0  0  0  0  0  0  0  0
   38.4360   29.5990   42.4970 C   0  0  0  0  0  0  0  0  0  0  0  0
   39.0660   28.5580   43.1230 N   0  0  0  0  0  0  0  0  0  0  0  0
   38.5240   27.3500   43.2510 C   0  0  0  0  0  0  0  0  0  0  0  0
   37.3090   27.0590   42.7720 N   0  0  0  0  0  0  0  0  0  0  0  0
   35.6420   27.7820   41.7580 H   0  0  0  0  0  0  0  0  0  0  0  0
   38.7900   30.5930   42.3490 H   0  0  0  0  0  0  0  0  0  0  0  0
   39.2720   26.7620   43.7870 H   0  0  0  0  0  0  0  0  0  0  0  0
   37.9950   32.4880   39.6070 C   0  0  0  0  0  2  0  0  0  0  0  0
   37.2980   33.8270   39.4680 C   0  0  0  0  0  2  0  0  0  0  0  0
   37.1460   34.0930   38.4110 H   0  0  0  0  0  0  0  0  0  0  0  0
  1 11  1  0  0  0  0
  2  7  1  0  0  0  0
  2  1  2  0  0  0  0
  3  2  1  0  0  0  0
  4  3  2  0  0  0  0
  4  5  1  0  0  0  0
  5  6  2  0  0  0  0
  6  1  1  0  0  0  0
  6 21  1  0  0  0  0
  8  3  1  0  0  0  0
  9  4  1  0  0  0  0
 10  5  1  0  0  0  0
 11 13  1  0  0  0  0
 12 17  1  0  0  0  0
 13 12  2  0  0  0  0
 13 14  1  0  0  0  0
 14 15  2  0  0  0  0
 15 16  1  0  0  0  0
 16 20  1  0  0  0  0
 17 16  2  0  0  0  0
 18 12  1  0  0  0  0
 19 14  1  0  0  0  0
 22 21  1  0  0  0  0
 23 22  1  0  0  0  0
M  END
>  <minimizedAffinity>
-4.46019936

$$$$

 OpenBabel03242517443D

 23 24  0  0  0  0  0  0  0  0999 V2000
   38.1760   28.9250   41.3960 C   0  0  0  0  0  0  0  0  0  0  0  0
   38.7530   28.8300   42.6540 C   0  0  0  0  0  0  0  0  0  0  0  0
   38.0680   28.2090   43.6800 C   0  0  0  0  0  0  0  0  0  0  0  0
   36.8100   27.6690   43.4940 C   0  0  0  0  0  0  0  0  0  0  0  0
   36.2260   27.7590   42.2390 C   0  0  0  0  0  0  0  0  0  0  0  0
   36.9180   28.3860   41.2060 C   0  0  0  0  0  0  0  0  0  0  0  0
   39.7330   29.2840   42.6810 H   0  0  0  0  0  0  0  0  0  0  0  0
   38.5800   28.1800   44.6080 H   0  0  0  0  0  0  0  0  0  0  0  0
   36.3620   27.2070   44.3590 H   0  0  0  0  0  0  0  0  0  0  0  0
   35.2440   27.3230   42.1430 H   0  0  0  0  0  0  0  0  0  0  0  0
   38.8840   29.6810   39.9580 S   0  0  0  0  0  0  0  0  0  0  0  0
   37.4630   32.0270   39.4770 C   0  0  0  0  0  0  0  0  0  0  0  0
   38.6320   31.4510   40.0500 C   0  0  0  0  0  0  0  0  0  0  0  0
   39.5490   32.3070   40.6750 C   0  0  0  0  0  0  0  0  0  0  0  0
   39.2420   33.6400   40.6830 N   0  0  0  0  0  0  0  0  0  0  0  0
   38.1360   34.1370   40.1340 C   0  0  0  0  0  0  0  0  0  0  0  0
   37.2310   33.3600   39.5260 N   0  0  0  0  0  0  0  0  0  0  0  0
   36.7200   31.4180   38.9830 H   0  0  0  0  0  0  0  0  0  0  0  0
   40.4040   31.8230   41.0850 H   0  0  0  0  0  0  0  0  0  0  0  0
   38.1930   35.2130   40.3110 H   0  0  0  0  0  0  0  0  0  0  0  0
   36.1670   28.3790   39.9280 C   0  0  0  0  0  2  0  0  0  0  0  0
   34.9080   29.2230   39.9770 C   0  0  0  0  0  2  0  0  0  0  0  0
   34.2740   28.9490   40.8340 H   0  0  0  0  0  0  0  0  0  0  0  0
  1  2  1  0  0  0  0
  2  7  1  0  0  0  0
  2  3  2  0  0  0  0
  3  8  1  0  0  0  0
  4  3  1  0  0  0  0
  4  9  1  0  0  0  0
  5  4  2  0  0  0  0
  6  1  2  0  0  0  0
  6  5  1  0  0  0  0
 10  5  1  0  0  0  0
 11 13  1  0  0  0  0
 11  1  1  0  0  0  0
 12 17  2  0  0  0  0
 12 13  1  0  0  0  0
 13 14  2  0  0  0  0
 14 15  1  0  0  0  0
 14 19  1  0  0  0  0
 16 20  1  0  0  0  0
 16 15  2  0  0  0  0
 17 16  1  0  0  0  0
 18 12  1  0  0  0  0
 21 22  1  0  0  0  0
 21  6  1  0  0  0  0
 22 23  1  0  0  0  0
M  END
>  <minimizedAffinity>
-4.40778923

$$$$

 OpenBabel03242517443D

 23 24  0  0  0  0  0  0  0  0999 V2000
   36.6300   28.6170   41.8650 C   0  0  0  0  0  0  0  0  0  0  0  0
   35.6310   28.7270   40.9090 C   0  0  0  0  0  0  0  0  0  0  0  0
   35.5920   29.8300   40.0790 C   0  0  0  0  0  0  0  0  0  0  0  0
   36.5280   30.8430   40.1680 C   0  0  0  0  0  0  0  0  0  0  0  0
   37.5300   30.7400   41.1210 C   0  0  0  0  0  0  0  0  0  0  0  0
   37.5680   29.6270   41.9570 C   0  0  0  0  0  0  0  0  0  0  0  0
   34.9600   27.8800   40.9310 H   0  0  0  0  0  0  0  0  0  0  0  0
   34.7960   29.8360   39.3780 H   0  0  0  0  0  0  0  0  0  0  0  0
   36.4070   31.6600   39.4750 H   0  0  0  0  0  0  0  0  0  0  0  0
   38.2380   31.5550   41.1520 H   0  0  0  0  0  0  0  0  0  0  0  0
   36.8530   27.2900   43.0200 S   0  0  0  0  0  0  0  0  0  0  0  0
   38.8750   26.0440   41.5670 C   0  0  0  0  0  0  0  0  0  0  0  0
   37.5940   25.9000   42.1690 C   0  0  0  0  0  0  0  0  0  0  0  0
   36.9560   24.6560   42.0700 C   0  0  0  0  0  0  0  0  0  0  0  0
   37.6260   23.6710   41.3970 N   0  0  0  0  0  0  0  0  0  0  0  0
   38.8260   23.8490   40.8490 C   0  0  0  0  0  0  0  0  0  0  0  0
   39.4740   25.0190   40.9160 N   0  0  0  0  0  0  0  0  0  0  0  0
   39.4160   26.9790   41.6100 H   0  0  0  0  0  0  0  0  0  0  0  0
   36.0000   24.6050   42.5380 H   0  0  0  0  0  0  0  0  0  0  0  0
   39.0740   22.8870   40.3980 H   0  0  0  0  0  0  0  0  0  0  0  0
   38.7110   29.6590   42.9010 C   0  0  0  0  0  2  0  0  0  0  0  0
   39.7090   30.7560   42.5850 C   0  0  0  0  0  2  0  0  0  0  0  0
   40.0370   30.7090   41.5350 H   0  0  0  0  0  0  0  0  0  0  0  0
  1  6  1  0  0  0  0
  1 11  1  0  0  0  0
  2  7  1  0  0  0  0
  2  1  2  0  0  0  0
  3  4  2  0  0  0  0
  3  2  1  0  0  0  0
  4  5  1  0  0  0  0
  5 10  1  0  0  0  0
  5  6  2  0  0  0  0
  6 21  1  0  0  0  0
  8  3  1  0  0  0  0
  9  4  1  0  0  0  0
 12 18  1  0  0  0  0
 12 13  1  0  0  0  0
 13 11  1  0  0  0  0
 14 13  2  0  0  0  0
 14 19  1  0  0  0  0
 15 14  1  0  0  0  0
 16 17  1  0  0  0  0
 16 15  2  0  0  0  0
 17 12  2  0  0  0  0
 20 16  1  0  0  0  0
 22 21  1  0  0  0  0
 23 22  1  0  0  0  0
M  END
>  <minimizedAffinity>
-4.33028698

$$$$

 OpenBabel03242517443D

 23 24  0  0  0  0  0  0  0  0999 V2000
   37.1230   29.3610   41.9010 C   0  0  0  0  0  0  0  0  0  0  0  0
   36.5480   28.1430   42.2350 C   0  0  0  0  0  0  0  0  0  0  0  0
   37.2870   27.1990   42.9210 C   0  0  0  0  0  0  0  0  0  0  0  0
   38.5990   27.4280   43.2920 C   0  0  0  0  0  0  0  0  0  0  0  0
   39.1800   28.6440   42.9620 C   0  0  0  0  0  0  0  0  0  0  0  0
   38.4330   29.5940   42.2710 C   0  0  0  0  0  0  0  0  0  0  0  0
   35.5250   28.0770   41.8970 H   0  0  0  0  0  0  0  0  0  0  0  0
   36.7740   26.2970   43.1350 H   0  0  0  0  0  0  0  0  0  0  0  0
   39.0860   26.6270   43.8230 H   0  0  0  0  0  0  0  0  0  0  0  0
   40.2050   28.7760   43.2740 H   0  0  0  0  0  0  0  0  0  0  0  0
   36.3500   30.6960   41.0280 S   0  0  0  0  0  0  0  0  0  0  0  0
   37.4220   31.3020   38.5300 C   0  0  0  0  0  0  0  0  0  0  0  0
   36.5660   30.4380   39.2690 C   0  0  0  0  0  0  0  0  0  0  0  0
   35.9190   29.4040   38.5780 C   0  0  0  0  0  0  0  0  0  0  0  0
   36.1680   29.3090   37.2360 N   0  0  0  0  0  0  0  0  0  0  0  0
   36.9770   30.1400   36.5840 C   0  0  0  0  0  0  0  0  0  0  0  0
   37.6160   31.1420   37.1990 N   0  0  0  0  0  0  0  0  0  0  0  0
   37.9480   32.1170   39.0070 H   0  0  0  0  0  0  0  0  0  0  0  0
   35.2910   28.7890   39.1790 H   0  0  0  0  0  0  0  0  0  0  0  0
   36.9570   29.7960   35.5480 H   0  0  0  0  0  0  0  0  0  0  0  0
   39.1920   30.8430   42.0160 C   0  0  0  0  0  2  0  0  0  0  0  0
   40.5680   30.8400   42.6530 C   0  0  0  0  0  2  0  0  0  0  0  0
   40.5130   30.5970   43.7260 H   0  0  0  0  0  0  0  0  0  0  0  0
  1  2  2  0  0  0  0
  1  6  1  0  0  0  0
  2  3  1  0  0  0  0
  3  8  1  0  0  0  0
  3  4  2  0  0  0  0
  4  9  1  0  0  0  0
  5 10  1  0  0  0  0
  5  4  1  0  0  0  0
  6  5  2  0  0  0  0
  7  2  1  0  0  0  0
 11  1  1  0  0  0  0
 12 18  1  0  0  0  0
 12 13  1  0  0  0  0
 13 11  1  0  0  0  0
 14 19  1  0  0  0  0
 14 13  2  0  0  0  0
 15 14  1  0  0  0  0
 16 17  1  0  0  0  0
 16 15  2  0  0  0  0
 17 12  2  0  0  0  0
 20 16  1  0  0  0  0
 21  6  1  0  0  0  0
 21 22  1  0  0  0  0
 22 23  1  0  0  0  0
M  END
>  <minimizedAffinity>
-4.31657219

$$$$

 OpenBabel03242517443D

 23 24  0  0  0  0  0  0  0  0999 V2000
   37.8920   27.0760   42.9140 C   0  0  0  0  0  0  0  0  0  0  0  0
   36.8710   26.2900   42.4000 C   0  0  0  0  0  0  0  0  0  0  0  0
   37.1090   24.9620   42.1050 C   0  0  0  0  0  0  0  0  0  0  0  0
   38.3470   24.3800   42.3060 C   0  0  0  0  0  0  0  0  0  0  0  0
   39.3720   25.1610   42.8200 C   0  0  0  0  0  0  0  0  0  0  0  0
   39.1300   26.4990   43.1180 C   0  0  0  0  0  0  0  0  0  0  0  0
   35.9530   26.8470   42.2860 H   0  0  0  0  0  0  0  0  0  0  0  0
   36.2770   24.4330   41.7150 H   0  0  0  0  0  0  0  0  0  0  0  0
   38.4270   23.3380   42.0420 H   0  0  0  0  0  0  0  0  0  0  0  0
   40.3190   24.6620   42.9610 H   0  0  0  0  0  0  0  0  0  0  0  0
   37.7910   28.7910   43.3540 S   0  0  0  0  0  0  0  0  0  0  0  0
   36.5010   30.2830   41.3880 C   0  0  0  0  0  0  0  0  0  0  0  0
   37.7430   29.7700   41.8560 C   0  0  0  0  0  0  0  0  0  0  0  0
   38.8960   30.0610   41.1140 C   0  0  0  0  0  0  0  0  0  0  0  0
   38.7300   30.8210   39.9890 N   0  0  0  0  0  0  0  0  0  0  0  0
   37.5470   31.2810   39.5870 C   0  0  0  0  0  0  0  0  0  0  0  0
   36.4190   31.0300   40.2620 N   0  0  0  0  0  0  0  0  0  0  0  0
   35.5780   30.0930   41.9180 H   0  0  0  0  0  0  0  0  0  0  0  0
   39.7970   29.6520   41.5080 H   0  0  0  0  0  0  0  0  0  0  0  0
   37.7580   31.8410   38.6740 H   0  0  0  0  0  0  0  0  0  0  0  0
   40.3200   27.1840   43.6780 C   0  0  0  0  0  2  0  0  0  0  0  0
   41.3850   27.4670   42.6360 C   0  0  0  0  0  2  0  0  0  0  0  0
   41.6520   26.5570   42.0780 H   0  0  0  0  0  0  0  0  0  0  0  0
  1  6  1  0  0  0  0
  1 11  1  0  0  0  0
  2  1  2  0  0  0  0
  3  4  2  0  0  0  0
  3  2  1  0  0  0  0
  4  5  1  0  0  0  0
  5 10  1  0  0  0  0
  5  6  2  0  0  0  0
  6 21  1  0  0  0  0
  7  2  1  0  0  0  0
  8  3  1  0  0  0  0
  9  4  1  0  0  0  0
 12 13  1  0  0  0  0
 12 18  1  0  0  0  0
 13 11  1  0  0  0  0
 14 19  1  0  0  0  0
 14 13  2  0  0  0  0
 15 14  1  0  0  0  0
 16 15  2  0  0  0  0
 16 17  1  0  0  0  0
 17 12  2  0  0  0  0
 20 16  1  0  0  0  0
 22 21  1  0  0  0  0
 23 22  1  0  0  0  0
M  END
>  <minimizedAffinity>
-4.27991295

$$$$

 OpenBabel03242517443D

 23 24  0  0  0  0  0  0  0  0999 V2000
   36.2900   30.2980   39.9290 C   0  0  0  0  0  0  0  0  0  0  0  0
   36.6480   31.5160   40.4870 C   0  0  0  0  0  0  0  0  0  0  0  0
   37.2640   32.4750   39.7070 C   0  0  0  0  0  0  0  0  0  0  0  0
   37.5410   32.2600   38.3700 C   0  0  0  0  0  0  0  0  0  0  0  0
   37.1850   31.0440   37.8050 C   0  0  0  0  0  0  0  0  0  0  0  0
   36.5630   30.0790   38.5930 C   0  0  0  0  0  0  0  0  0  0  0  0
   36.3830   31.5720   41.5330 H   0  0  0  0  0  0  0  0  0  0  0  0
   37.5050   33.3760   40.2110 H   0  0  0  0  0  0  0  0  0  0  0  0
   38.0250   33.0720   37.8520 H   0  0  0  0  0  0  0  0  0  0  0  0
   37.4210   30.9240   36.7580 H   0  0  0  0  0  0  0  0  0  0  0  0
   35.4970   28.9440   40.7550 S   0  0  0  0  0  0  0  0  0  0  0  0
   37.3390   28.5850   42.8130 C   0  0  0  0  0  0  0  0  0  0  0  0
   36.7320   28.0150   41.6590 C   0  0  0  0  0  0  0  0  0  0  0  0
   37.1320   26.7290   41.2730 C   0  0  0  0  0  0  0  0  0  0  0  0
   38.0820   26.1200   42.0470 N   0  0  0  0  0  0  0  0  0  0  0  0
   38.6240   26.6910   43.1200 C   0  0  0  0  0  0  0  0  0  0  0  0
   38.2750   27.9170   43.5280 N   0  0  0  0  0  0  0  0  0  0  0  0
   37.0710   29.5730   43.1600 H   0  0  0  0  0  0  0  0  0  0  0  0
   36.6470   26.3510   40.4030 H   0  0  0  0  0  0  0  0  0  0  0  0
   39.3320   25.9540   43.5030 H   0  0  0  0  0  0  0  0  0  0  0  0
   36.2310   28.8490   37.8340 C   0  0  0  0  0  2  0  0  0  0  0  0
   35.2460   29.0970   36.7080 C   0  0  0  0  0  2  0  0  0  0  0  0
   34.3470   29.6210   37.0680 H   0  0  0  0  0  0  0  0  0  0  0  0
  1  2  1  0  0  0  0
  1 11  1  0  0  0  0
  2  7  1  0  0  0  0
  3  8  1  0  0  0  0
  3  2  2  0  0  0  0
  4  3  1  0  0  0  0
  5  4  2  0  0  0  0
  5  6  1  0  0  0  0
  6  1  2  0  0  0  0
  9  4  1  0  0  0  0
 10  5  1  0  0  0  0
 11 13  1  0  0  0  0
 12 18  1  0  0  0  0
 12 17  1  0  0  0  0
 13 12  2  0  0  0  0
 14 13  1  0  0  0  0
 14 15  2  0  0  0  0
 15 16  1  0  0  0  0
 16 20  1  0  0  0  0
 16 17  2  0  0  0  0
 19 14  1  0  0  0  0
 21  6  1  0  0  0  0
 22 23  1  0  0  0  0
 22 21  1  0  0  0  0
M  END
>  <minimizedAffinity>
-4.26389837

$$$$

 OpenBabel03242517443D

 23 24  0  0  0  0  0  0  0  0999 V2000
   38.1410   26.5960   43.1050 C   0  0  0  0  0  0  0  0  0  0  0  0
   39.3360   27.0030   43.6790 C   0  0  0  0  0  0  0  0  0  0  0  0
   40.4510   26.1940   43.5910 C   0  0  0  0  0  0  0  0  0  0  0  0
   40.4190   24.9750   42.9410 C   0  0  0  0  0  0  0  0  0  0  0  0
   39.2270   24.5610   42.3640 C   0  0  0  0  0  0  0  0  0  0  0  0
   38.1040   25.3780   42.4530 C   0  0  0  0  0  0  0  0  0  0  0  0
   39.2430   27.9680   44.1560 H   0  0  0  0  0  0  0  0  0  0  0  0
   41.3230   26.5790   44.0570 H   0  0  0  0  0  0  0  0  0  0  0  0
   41.3430   24.4200   42.9300 H   0  0  0  0  0  0  0  0  0  0  0  0
   39.2520   23.6030   41.8680 H   0  0  0  0  0  0  0  0  0  0  0  0
   36.6050   27.4820   43.1090 S   0  0  0  0  0  0  0  0  0  0  0  0
   37.4780   29.8470   41.9250 C   0  0  0  0  0  0  0  0  0  0  0  0
   36.6390   28.7040   41.8000 C   0  0  0  0  0  0  0  0  0  0  0  0
   35.8630   28.5810   40.6400 C   0  0  0  0  0  0  0  0  0  0  0  0
   35.9790   29.5790   39.7120 N   0  0  0  0  0  0  0  0  0  0  0  0
   36.7780   30.6320   39.8680 C   0  0  0  0  0  0  0  0  0  0  0  0
   37.5370   30.7940   40.9590 N   0  0  0  0  0  0  0  0  0  0  0  0
   38.1000   29.9970   42.7960 H   0  0  0  0  0  0  0  0  0  0  0  0
   35.2540   27.7080   40.5990 H   0  0  0  0  0  0  0  0  0  0  0  0
   36.6390   31.2280   38.9640 H   0  0  0  0  0  0  0  0  0  0  0  0
   36.9210   24.8020   41.7680 C   0  0  0  0  0  2  0  0  0  0  0  0
   37.0030   24.9070   40.2580 C   0  0  0  0  0  2  0  0  0  0  0  0
   37.2080   25.9410   39.9380 H   0  0  0  0  0  0  0  0  0  0  0  0
  1 11  1  0  0  0  0
  1  2  1  0  0  0  0
  2  7  1  0  0  0  0
  3  2  2  0  0  0  0
  3  8  1  0  0  0  0
  4  3  1  0  0  0  0
  5  6  1  0  0  0  0
  5  4  2  0  0  0  0
  6  1  2  0  0  0  0
  9  4  1  0  0  0  0
 10  5  1  0  0  0  0
 12 18  1  0  0  0  0
 13 12  1  0  0  0  0
 13 11  1  0  0  0  0
 14 13  2  0  0  0  0
 15 16  2  0  0  0  0
 15 14  1  0  0  0  0
 16 17  1  0  0  0  0
 17 12  2  0  0  0  0
 19 14  1  0  0  0  0
 20 16  1  0  0  0  0
 21  6  1  0  0  0  0
 22 21  1  0  0  0  0
 23 22  1  0  0  0  0
M  END
>  <minimizedAffinity>
-4.25622654

$$$$

 OpenBabel03242517443D

 23 24  0  0  0  0  0  0  0  0999 V2000
   38.4380   29.0180   42.3220 C   0  0  0  0  0  0  0  0  0  0  0  0
   39.7180   29.5510   42.3100 C   0  0  0  0  0  0  0  0  0  0  0  0
   40.7680   28.8320   42.8470 C   0  0  0  0  0  0  0  0  0  0  0  0
   40.5850   27.5800   43.4040 C   0  0  0  0  0  0  0  0  0  0  0  0
   39.3070   27.0400   43.4190 C   0  0  0  0  0  0  0  0  0  0  0  0
   38.2500   27.7670   42.8770 C   0  0  0  0  0  0  0  0  0  0  0  0
   39.7420   30.5290   41.8520 H   0  0  0  0  0  0  0  0  0  0  0  0
   41.7120   29.3120   42.7990 H   0  0  0  0  0  0  0  0  0  0  0  0
   41.4690   27.1040   43.7960 H   0  0  0  0  0  0  0  0  0  0  0  0
   39.2150   26.0610   43.8630 H   0  0  0  0  0  0  0  0  0  0  0  0
   36.9660   29.7770   41.6890 S   0  0  0  0  0  0  0  0  0  0  0  0
   37.0150   31.8190   39.7960 C   0  0  0  0  0  0  0  0  0  0  0  0
   37.3150   30.4550   40.0690 C   0  0  0  0  0  0  0  0  0  0  0  0
   37.8830   29.6880   39.0430 C   0  0  0  0  0  0  0  0  0  0  0  0
   38.1040   30.3210   37.8500 N   0  0  0  0  0  0  0  0  0  0  0  0
   37.8080   31.6000   37.6380 C   0  0  0  0  0  0  0  0  0  0  0  0
   37.2650   32.3730   38.5860 N   0  0  0  0  0  0  0  0  0  0  0  0
   36.5770   32.4600   40.5470 H   0  0  0  0  0  0  0  0  0  0  0  0
   38.0870   28.6750   39.3010 H   0  0  0  0  0  0  0  0  0  0  0  0
   38.1040   31.7890   36.6040 H   0  0  0  0  0  0  0  0  0  0  0  0
   36.9590   27.0410   42.9520 C   0  0  0  0  0  2  0  0  0  0  0  0
   37.0050   25.6800   42.2850 C   0  0  0  0  0  2  0  0  0  0  0  0
   37.3840   25.7510   41.2540 H   0  0  0  0  0  0  0  0  0  0  0  0
  1  6  1  0  0  0  0
  2  1  2  0  0  0  0
  2  3  1  0  0  0  0
  3  4  2  0  0  0  0
  4  5  1  0  0  0  0
  4  9  1  0  0  0  0
  5 10  1  0  0  0  0
  6 21  1  0  0  0  0
  6  5  2  0  0  0  0
  7  2  1  0  0  0  0
  8  3  1  0  0  0  0
 11  1  1  0  0  0  0
 12 13  1  0  0  0  0
 12 18  1  0  0  0  0
 13 11  1  0  0  0  0
 14 19  1  0  0  0  0
 14 13  2  0  0  0  0
 15 14  1  0  0  0  0
 16 15  2  0  0  0  0
 16 17  1  0  0  0  0
 17 12  2  0  0  0  0
 20 16  1  0  0  0  0
 22 21  1  0  0  0  0
 23 22  1  0  0  0  0
M  END
>  <minimizedAffinity>
-4.23679113

$$$$

 OpenBabel03242517443D

 23 24  0  0  0  0  0  0  0  0999 V2000
   36.4920   27.2680   40.6560 C   0  0  0  0  0  0  0  0  0  0  0  0
   36.7330   26.4170   39.5880 C   0  0  0  0  0  0  0  0  0  0  0  0
   37.3040   25.1790   39.8110 C   0  0  0  0  0  0  0  0  0  0  0  0
   37.6470   24.7520   41.0790 C   0  0  0  0  0  0  0  0  0  0  0  0
   37.4090   25.5980   42.1520 C   0  0  0  0  0  0  0  0  0  0  0  0
   36.8340   26.8450   41.9260 C   0  0  0  0  0  0  0  0  0  0  0  0
   36.4250   26.8530   38.6490 H   0  0  0  0  0  0  0  0  0  0  0  0
   37.4550   24.5910   38.9410 H   0  0  0  0  0  0  0  0  0  0  0  0
   38.0870   23.7700   41.1440 H   0  0  0  0  0  0  0  0  0  0  0  0
   37.6940   25.2200   43.1230 H   0  0  0  0  0  0  0  0  0  0  0  0
   35.7750   28.8880   40.5810 S   0  0  0  0  0  0  0  0  0  0  0  0
   38.3850   29.6820   40.0210 C   0  0  0  0  0  0  0  0  0  0  0  0
   37.0890   30.0960   40.4370 C   0  0  0  0  0  0  0  0  0  0  0  0
   36.8910   31.4540   40.7200 C   0  0  0  0  0  0  0  0  0  0  0  0
   37.9720   32.2790   40.5700 N   0  0  0  0  0  0  0  0  0  0  0  0
   39.1690   31.8490   40.1770 C   0  0  0  0  0  0  0  0  0  0  0  0
   39.4060   30.5620   39.8960 N   0  0  0  0  0  0  0  0  0  0  0  0
   38.5980   28.6480   39.7880 H   0  0  0  0  0  0  0  0  0  0  0  0
   35.9030   31.7090   41.0280 H   0  0  0  0  0  0  0  0  0  0  0  0
   39.7960   32.7420   40.1600 H   0  0  0  0  0  0  0  0  0  0  0  0
   36.6260   27.6150   43.1760 C   0  0  0  0  0  2  0  0  0  0  0  0
   37.8910   28.2860   43.6740 C   0  0  0  0  0  2  0  0  0  0  0  0
   38.7200   27.5670   43.7600 H   0  0  0  0  0  0  0  0  0  0  0  0
  1  6  1  0  0  0  0
  2  3  1  0  0  0  0
  2  1  2  0  0  0  0
  3  4  2  0  0  0  0
  4  9  1  0  0  0  0
  4  5  1  0  0  0  0
  5 10  1  0  0  0  0
  6  5  2  0  0  0  0
  6 21  1  0  0  0  0
  7  2  1  0  0  0  0
  8  3  1  0  0  0  0
 11  1  1  0  0  0  0
 12 13  1  0  0  0  0
 13 11  1  0  0  0  0
 13 14  2  0  0  0  0
 14 19  1  0  0  0  0
 15 14  1  0  0  0  0
 16 15  2  0  0  0  0
 17 12  2  0  0  0  0
 17 16  1  0  0  0  0
 18 12  1  0  0  0  0
 20 16  1  0  0  0  0
 21 22  1  0  0  0  0
 22 23  1  0  0  0  0
M  END
>  <minimizedAffinity>
-4.09730482

$$$$
