
 OpenBabel03252507533D

 32 34  0  0  1  0  0  0  0  0999 V2000
   47.0500   34.7960   42.1230 C   0  0  2  0  0  0  0  0  0  0  0  0
   46.2980   34.3840   40.8850 C   0  0  0  0  0  0  0  0  0  0  0  0
   47.5140   34.1510   39.9660 C   0  0  0  0  0  0  0  0  0  0  0  0
   48.5820   33.5890   40.8680 C   0  0  1  0  0  0  0  0  0  0  0  0
   47.9920   33.5940   42.2360 C   0  0  0  0  0  0  0  0  0  0  0  0
   47.5700   35.7360   41.9260 H   0  0  0  0  0  0  0  0  0  0  0  0
   45.6970   35.2060   40.4810 H   0  0  0  0  0  0  0  0  0  0  0  0
   45.7670   33.4510   41.0760 H   0  0  0  0  0  0  0  0  0  0  0  0
   47.2790   33.4060   39.1750 H   0  0  0  0  0  0  0  0  0  0  0  0
   47.8880   35.1090   39.5890 H   0  0  0  0  0  0  0  0  0  0  0  0
   49.5000   34.1920   40.8960 H   0  0  0  0  0  0  0  0  0  0  0  0
   47.2090   32.8330   42.4330 H   0  0  0  0  0  0  0  0  0  0  0  0
   48.6810   33.7990   43.0650 H   0  0  0  0  0  0  0  0  0  0  0  0
   44.4970   35.9200   44.6700 C   0  0  0  0  0  0  0  0  0  0  0  0
   45.2470   35.9080   43.4880 C   0  0  0  0  0  0  0  0  0  0  0  0
   46.1930   34.8890   43.3310 C   0  0  0  0  0  0  0  0  0  0  0  0
   46.3540   33.9430   44.3340 N   0  0  0  0  0  0  0  0  0  0  0  0
   45.5980   34.0070   45.4560 C   0  0  0  0  0  0  0  0  0  0  0  0
   44.6800   34.9850   45.6220 N   0  0  0  0  0  0  0  0  0  0  0  0
   43.8010   36.7510   44.6780 H   0  0  0  0  0  0  0  0  0  0  0  0
   45.1620   36.6140   42.6840 H   0  0  0  0  0  0  0  0  0  0  0  0
   45.7260   33.2750   46.2270 H   0  0  0  0  0  0  0  0  0  0  0  0
   48.9370   32.1630   40.5680 C   0  0  2  0  0  0  0  0  0  0  0  0
   48.4770   31.1360   41.4900 C   0  0  0  0  0  0  0  0  0  0  0  0
   49.9580   31.4100   41.2190 C   0  0  2  0  0  0  0  0  0  0  0  0
   48.7000   31.9540   39.4810 H   0  0  0  0  0  0  0  0  0  0  0  0
   48.0690   30.1690   41.0550 H   0  0  0  0  0  0  0  0  0  0  0  0
   48.3470   31.1020   42.5620 H   0  0  0  0  0  0  0  0  0  0  0  0
   50.4460   30.6050   40.5840 H   0  0  0  0  0  0  0  0  0  0  0  0
   50.8880   31.8370   42.3010 C   0  0  0  0  0  2  0  0  0  0  0  0
   51.6250   30.6290   42.9130 C   0  0  0  0  0  2  0  0  0  0  0  0
   52.6990   30.8170   43.0190 H   0  0  0  0  0  0  0  0  0  0  0  0
  1  6  1  6  0  0  0
  1  5  1  0  0  0  0
  1 16  1  0  0  0  0
  2  8  1  0  0  0  0
  2  1  1  0  0  0  0
  3  4  1  0  0  0  0
  3  2  1  0  0  0  0
  4 11  1  6  0  0  0
  4  5  1  0  0  0  0
  5 12  1  0  0  0  0
  5 13  1  0  0  0  0
  7  2  1  0  0  0  0
  9  3  1  0  0  0  0
 10  3  1  0  0  0  0
 14 20  1  0  0  0  0
 14 19  1  0  0  0  0
 15 14  2  0  0  0  0
 16 15  1  0  0  0  0
 16 17  2  0  0  0  0
 17 18  1  0  0  0  0
 18 19  2  0  0  0  0
 18 22  1  0  0  0  0
 21 15  1  0  0  0  0
 23 26  1  6  0  0  0
 23  4  1  0  0  0  0
 23 25  1  0  0  0  0
 23 24  1  0  0  0  0
 24 28  1  0  0  0  0
 25 29  1  6  0  0  0
 25 24  1  0  0  0  0
 25 30  1  0  0  0  0
 27 24  1  0  0  0  0
 30 31  1  0  0  0  0
 31 32  1  0  0  0  0
M  END
>  <minimizedAffinity>
-4.41053247

>  <minimizedRMSD>
1.17769444

$$$$
