
 OpenBabel03252507533D

 32 34  0  0  1  0  0  0  0  0999 V2000
   46.7510   34.7340   42.0060 C   0  0  2  0  0  0  0  0  0  0  0  0
   45.9070   34.2470   40.8570 C   0  0  0  0  0  0  0  0  0  0  0  0
   47.0520   33.9350   39.8720 C   0  0  0  0  0  0  0  0  0  0  0  0
   48.1770   33.4220   40.7310 C   0  0  1  0  0  0  0  0  0  0  0  0
   47.6890   33.5300   42.1340 C   0  0  0  0  0  0  0  0  0  0  0  0
   47.2640   35.6500   41.7060 H   0  0  0  0  0  0  0  0  0  0  0  0
   45.2850   35.0470   40.4410 H   0  0  0  0  0  0  0  0  0  0  0  0
   45.3840   33.3370   41.1500 H   0  0  0  0  0  0  0  0  0  0  0  0
   46.7530   33.1400   39.1540 H   0  0  0  0  0  0  0  0  0  0  0  0
   47.4050   34.8580   39.4010 H   0  0  0  0  0  0  0  0  0  0  0  0
   49.1000   34.0130   40.6500 H   0  0  0  0  0  0  0  0  0  0  0  0
   46.9160   32.7950   42.4410 H   0  0  0  0  0  0  0  0  0  0  0  0
   48.4380   33.7830   42.8950 H   0  0  0  0  0  0  0  0  0  0  0  0
   44.4770   36.1220   44.6830 C   0  0  0  0  0  0  0  0  0  0  0  0
   45.1450   36.0240   43.4560 C   0  0  0  0  0  0  0  0  0  0  0  0
   45.9860   34.9220   43.2630 C   0  0  0  0  0  0  0  0  0  0  0  0
   46.1280   33.9820   44.2740 N   0  0  0  0  0  0  0  0  0  0  0  0
   45.4550   34.1310   45.4390 C   0  0  0  0  0  0  0  0  0  0  0  0
   44.6380   35.1900   45.6410 N   0  0  0  0  0  0  0  0  0  0  0  0
   43.8580   37.0110   44.7160 H   0  0  0  0  0  0  0  0  0  0  0  0
   45.0700   36.7210   42.6440 H   0  0  0  0  0  0  0  0  0  0  0  0
   45.5680   33.4030   46.2170 H   0  0  0  0  0  0  0  0  0  0  0  0
   48.4970   31.9740   40.5070 C   0  0  2  0  0  0  0  0  0  0  0  0
   48.7500   31.1420   41.6730 C   0  0  0  0  0  0  0  0  0  0  0  0
   49.7970   31.3910   40.5850 C   0  0  2  0  0  0  0  0  0  0  0  0
   47.7390   31.5460   39.7840 H   0  0  0  0  0  0  0  0  0  0  0  0
   48.3030   30.0980   41.6930 H   0  0  0  0  0  0  0  0  0  0  0  0
   49.2280   31.3200   42.6250 H   0  0  0  0  0  0  0  0  0  0  0  0
   49.9640   30.4880   39.9180 H   0  0  0  0  0  0  0  0  0  0  0  0
   51.0990   32.0490   40.8840 C   0  0  0  0  0  2  0  0  0  0  0  0
   51.1110   32.6440   42.3060 C   0  0  0  0  0  2  0  0  0  0  0  0
   52.0300   32.3940   42.8450 H   0  0  0  0  0  0  0  0  0  0  0  0
  1  6  1  6  0  0  0
  1  5  1  0  0  0  0
  1 16  1  0  0  0  0
  2  8  1  0  0  0  0
  2  1  1  0  0  0  0
  3  4  1  0  0  0  0
  3  2  1  0  0  0  0
  4 11  1  6  0  0  0
  4  5  1  0  0  0  0
  5 12  1  0  0  0  0
  5 13  1  0  0  0  0
  7  2  1  0  0  0  0
  9  3  1  0  0  0  0
 10  3  1  0  0  0  0
 14 20  1  0  0  0  0
 14 19  1  0  0  0  0
 15 14  2  0  0  0  0
 16 15  1  0  0  0  0
 16 17  2  0  0  0  0
 17 18  1  0  0  0  0
 18 19  2  0  0  0  0
 18 22  1  0  0  0  0
 21 15  1  0  0  0  0
 23 26  1  6  0  0  0
 23 25  1  0  0  0  0
 23  4  1  0  0  0  0
 23 24  1  0  0  0  0
 24 27  1  0  0  0  0
 24 28  1  0  0  0  0
 25 29  1  6  0  0  0
 25 30  1  0  0  0  0
 25 24  1  0  0  0  0
 30 31  1  0  0  0  0
 31 32  1  0  0  0  0
M  END
>  <minimizedAffinity>
-4.43176126

>  <minimizedRMSD>
1.2630285

$$$$
