
 OpenBabel03252507533D

 32 34  0  0  1  0  0  0  0  0999 V2000
   43.0620   34.1930   40.1450 C   0  0  2  0  0  0  0  0  0  0  0  0
   44.2410   33.3820   40.6170 C   0  0  0  0  0  0  0  0  0  0  0  0
   45.0730   34.5410   41.2040 C   0  0  0  0  0  0  0  0  0  0  0  0
   44.0620   35.4910   41.7880 C   0  0  1  0  0  0  0  0  0  0  0  0
   42.7310   34.9090   41.4580 C   0  0  0  0  0  0  0  0  0  0  0  0
   43.3920   34.8710   39.3550 H   0  0  0  0  0  0  0  0  0  0  0  0
   44.7890   32.9360   39.7810 H   0  0  0  0  0  0  0  0  0  0  0  0
   43.9200   32.6960   41.4000 H   0  0  0  0  0  0  0  0  0  0  0  0
   45.7420   34.1800   42.0160 H   0  0  0  0  0  0  0  0  0  0  0  0
   45.5880   35.0770   40.4000 H   0  0  0  0  0  0  0  0  0  0  0  0
   44.1020   36.5010   41.3570 H   0  0  0  0  0  0  0  0  0  0  0  0
   42.4370   34.0040   42.0290 H   0  0  0  0  0  0  0  0  0  0  0  0
   41.9240   35.6220   41.2430 H   0  0  0  0  0  0  0  0  0  0  0  0
   40.6650   32.1320   38.0790 C   0  0  0  0  0  0  0  0  0  0  0  0
   41.7970   32.8930   38.3980 C   0  0  0  0  0  0  0  0  0  0  0  0
   41.9110   33.3640   39.7100 C   0  0  0  0  0  0  0  0  0  0  0  0
   40.9200   33.0660   40.6350 N   0  0  0  0  0  0  0  0  0  0  0  0
   39.8490   32.3240   40.2670 C   0  0  0  0  0  0  0  0  0  0  0  0
   39.7240   31.8620   39.0020 N   0  0  0  0  0  0  0  0  0  0  0  0
   40.6860   31.8240   37.0400 H   0  0  0  0  0  0  0  0  0  0  0  0
   42.5890   33.1510   37.7220 H   0  0  0  0  0  0  0  0  0  0  0  0
   39.0860   32.0970   40.9840 H   0  0  0  0  0  0  0  0  0  0  0  0
   44.1180   35.5900   43.2830 C   0  0  2  0  0  0  0  0  0  0  0  0
   45.0000   36.5880   43.8690 C   0  0  0  0  0  0  0  0  0  0  0  0
   45.1670   35.0850   44.1070 C   0  0  2  0  0  0  0  0  0  0  0  0
   43.0590   35.6110   43.6830 H   0  0  0  0  0  0  0  0  0  0  0  0
   44.6180   37.1850   44.7570 H   0  0  0  0  0  0  0  0  0  0  0  0
   45.9690   36.9780   43.5940 H   0  0  0  0  0  0  0  0  0  0  0  0
   44.8530   34.7660   45.1510 H   0  0  0  0  0  0  0  0  0  0  0  0
   46.4030   34.3590   43.7060 C   0  0  0  0  0  2  0  0  0  0  0  0
   46.5230   33.0100   44.4410 C   0  0  0  0  0  2  0  0  0  0  0  0
   46.7890   32.1950   43.7590 H   0  0  0  0  0  0  0  0  0  0  0  0
  1  6  1  6  0  0  0
  1  2  1  0  0  0  0
  1  5  1  0  0  0  0
  2  3  1  0  0  0  0
  2  8  1  0  0  0  0
  3  4  1  0  0  0  0
  3  9  1  0  0  0  0
  4 11  1  6  0  0  0
  4 23  1  0  0  0  0
  5  4  1  0  0  0  0
  5 12  1  0  0  0  0
  7  2  1  0  0  0  0
 10  3  1  0  0  0  0
 13  5  1  0  0  0  0
 14 15  2  0  0  0  0
 14 19  1  0  0  0  0
 15 16  1  0  0  0  0
 16  1  1  0  0  0  0
 16 17  2  0  0  0  0
 18 17  1  0  0  0  0
 18 22  1  0  0  0  0
 19 18  2  0  0  0  0
 20 14  1  0  0  0  0
 21 15  1  0  0  0  0
 23 26  1  1  0  0  0
 23 24  1  0  0  0  0
 23 25  1  0  0  0  0
 24 25  1  0  0  0  0
 24 27  1  0  0  0  0
 25 29  1  1  0  0  0
 28 24  1  0  0  0  0
 30 25  1  0  0  0  0
 30 31  1  0  0  0  0
 32 31  1  0  0  0  0
M  END
>  <minimizedAffinity>
-4.0189805

>  <minimizedRMSD>
6.19388437

$$$$
