
 OpenBabel03252507533D

 32 34  0  0  1  0  0  0  0  0999 V2000
   46.3630   35.1810   42.0140 C   0  0  2  0  0  0  0  0  0  0  0  0
   45.5390   35.2470   43.2730 C   0  0  0  0  0  0  0  0  0  0  0  0
   44.2190   35.7290   42.6380 C   0  0  0  0  0  0  0  0  0  0  0  0
   44.1610   35.0480   41.2960 C   0  0  1  0  0  0  0  0  0  0  0  0
   45.4380   34.2920   41.1770 C   0  0  0  0  0  0  0  0  0  0  0  0
   46.4740   36.1890   41.6100 H   0  0  0  0  0  0  0  0  0  0  0  0
   45.9070   36.0160   43.9610 H   0  0  0  0  0  0  0  0  0  0  0  0
   45.4300   34.2450   43.6890 H   0  0  0  0  0  0  0  0  0  0  0  0
   43.3440   35.4080   43.2450 H   0  0  0  0  0  0  0  0  0  0  0  0
   44.2660   36.8060   42.4480 H   0  0  0  0  0  0  0  0  0  0  0  0
   44.1030   35.7450   40.4490 H   0  0  0  0  0  0  0  0  0  0  0  0
   45.5290   33.3820   41.8050 H   0  0  0  0  0  0  0  0  0  0  0  0
   45.8760   34.2260   40.1720 H   0  0  0  0  0  0  0  0  0  0  0  0
   50.0660   34.5250   42.3560 C   0  0  0  0  0  0  0  0  0  0  0  0
   48.8750   35.2410   42.1870 C   0  0  0  0  0  0  0  0  0  0  0  0
   47.6770   34.5190   42.2010 C   0  0  0  0  0  0  0  0  0  0  0  0
   47.7080   33.1430   42.3800 N   0  0  0  0  0  0  0  0  0  0  0  0
   48.8930   32.5050   42.5390 C   0  0  0  0  0  0  0  0  0  0  0  0
   50.0580   33.1890   42.5280 N   0  0  0  0  0  0  0  0  0  0  0  0
   50.9240   35.1870   42.3270 H   0  0  0  0  0  0  0  0  0  0  0  0
   48.7970   36.3020   42.0450 H   0  0  0  0  0  0  0  0  0  0  0  0
   48.9120   31.4430   42.6760 H   0  0  0  0  0  0  0  0  0  0  0  0
   43.0600   34.0360   41.1790 C   0  0  2  0  0  0  0  0  0  0  0  0
   42.8970   33.3480   39.9080 C   0  0  0  0  0  0  0  0  0  0  0  0
   41.8140   34.2410   40.5170 C   0  0  2  0  0  0  0  0  0  0  0  0
   43.1050   33.3500   42.0790 H   0  0  0  0  0  0  0  0  0  0  0  0
   42.6800   32.2330   39.9260 H   0  0  0  0  0  0  0  0  0  0  0  0
   43.0190   33.6490   38.8770 H   0  0  0  0  0  0  0  0  0  0  0  0
   40.9390   33.6510   40.9360 H   0  0  0  0  0  0  0  0  0  0  0  0
   41.3150   35.4590   39.8190 C   0  0  0  0  0  0  0  0  0  0  0  0
   40.3560   36.2640   40.7180 C   0  0  0  0  0  0  0  0  0  0  0  0
   40.5880   37.3340   40.7080 H   0  0  0  0  0  0  0  0  0  0  0  0
  1  6  1  6  0  0  0
  1 16  1  0  0  0  0
  1  2  1  0  0  0  0
  2  8  1  0  0  0  0
  2  7  1  0  0  0  0
  3  9  1  0  0  0  0
  3  2  1  0  0  0  0
  4 11  1  6  0  0  0
  4  3  1  0  0  0  0
  5  4  1  0  0  0  0
  5 12  1  0  0  0  0
  5  1  1  0  0  0  0
 10  3  1  0  0  0  0
 13  5  1  0  0  0  0
 14 19  1  0  0  0  0
 15 16  1  0  0  0  0
 15 14  2  0  0  0  0
 16 17  2  0  0  0  0
 17 18  1  0  0  0  0
 18 22  1  0  0  0  0
 19 18  2  0  0  0  0
 20 14  1  0  0  0  0
 21 15  1  0  0  0  0
 23  4  1  0  0  0  0
 23 26  1  1  0  0  0
 24 27  1  0  0  0  0
 24 25  1  0  0  0  0
 24 23  1  0  0  0  0
 25 29  1  1  0  0  0
 25 23  1  0  0  0  0
 28 24  1  0  0  0  0
 30 25  1  0  0  0  0
 30 31  1  0  0  0  0
 32 31  1  0  0  0  0
M  END
>  <minimizedAffinity>
-4.72493839

>  <minimizedRMSD>
6.14678478

$$$$
