
 OpenBabel03252506283D

 41 44  0  0  0  0  0  0  0  0999 V2000
   46.9960   30.3630   48.0910 C   0  0  0  0  0  0  0  0  0  0  0  0
   47.6110   29.4680   48.1810 H   0  0  0  0  0  0  0  0  0  0  0  0
   47.3480   31.1450   48.8060 H   0  0  0  0  0  0  0  0  0  0  0  0
   46.8860   32.3550   45.1290 C   0  0  0  0  0  0  0  0  0  0  0  0
   47.6030   31.2170   44.6850 C   0  0  0  0  0  0  0  0  0  0  0  0
   47.7230   30.3590   45.7210 C   0  0  0  0  0  0  0  0  0  0  0  0
   47.1060   30.9410   46.7670 N   0  0  0  0  0  0  0  0  0  0  0  0
   46.6070   32.1310   46.4190 N   0  0  0  0  0  0  0  0  0  0  0  0
   47.9750   31.0950   43.6700 H   0  0  0  0  0  0  0  0  0  0  0  0
   48.2110   29.3820   45.7550 H   0  0  0  0  0  0  0  0  0  0  0  0
   45.1900   35.3170   43.8330 C   0  0  0  0  0  0  0  0  0  0  0  0
   45.9430   35.6600   42.7080 C   0  0  0  0  0  0  0  0  0  0  0  0
   47.0380   34.8480   42.4170 C   0  0  0  0  0  0  0  0  0  0  0  0
   47.2960   33.8050   43.2200 N   0  0  0  0  0  0  0  0  0  0  0  0
   46.5600   33.4940   44.2950 C   0  0  0  0  0  0  0  0  0  0  0  0
   45.5040   34.2620   44.5920 N   0  0  0  0  0  0  0  0  0  0  0  0
   44.3270   35.9640   44.0540 H   0  0  0  0  0  0  0  0  0  0  0  0
   45.7380   36.5010   42.0550 H   0  0  0  0  0  0  0  0  0  0  0  0
   47.9310   35.0860   41.2560 C   0  0  0  0  0  2  0  0  0  0  0  0
   49.1160   35.9470   41.6020 C   0  0  0  0  0  2  0  0  0  0  0  0
   49.3200   35.9050   42.7110 H   0  0  0  0  0  0  0  0  0  0  0  0
   45.5660   30.0950   48.4130 C   0  0  0  0  0  0  0  0  0  0  0  0
   45.5200   29.9220   49.5270 H   0  0  0  0  0  0  0  0  0  0  0  0
   44.9800   31.0220   48.2440 H   0  0  0  0  0  0  0  0  0  0  0  0
   44.9380   27.6300   48.1750 C   0  0  0  0  0  0  0  0  0  0  0  0
   44.9490   28.9500   47.7770 C   0  0  0  0  0  0  0  0  0  0  0  0
   44.2730   29.2390   46.5920 C   0  0  0  0  0  0  0  0  0  0  0  0
   43.6350   28.2770   45.8630 C   0  0  0  0  0  0  0  0  0  0  0  0
   42.9250   28.2580   44.7200 N   0  0  0  0  0  0  0  0  0  0  0  0
   42.4970   27.0360   44.4130 C   0  0  0  0  0  0  0  0  0  0  0  0
   42.9390   26.1540   45.4060 C   0  0  0  0  0  0  0  0  0  0  0  0
   43.6290   26.9680   46.2660 C   0  0  0  0  0  0  0  0  0  0  0  0
   44.2920   26.6630   47.4340 C   0  0  0  0  0  0  0  0  0  0  0  0
   45.4710   27.4410   49.0990 H   0  0  0  0  0  0  0  0  0  0  0  0
   44.2080   30.2440   46.1690 H   0  0  0  0  0  0  0  0  0  0  0  0
   42.7290   29.1190   44.1330 H   0  0  0  0  0  0  0  0  0  0  0  0
   41.9090   26.7730   43.5440 H   0  0  0  0  0  0  0  0  0  0  0  0
   42.7410   25.1040   45.4160 H   0  0  0  0  0  0  0  0  0  0  0  0
   44.3170   25.2810   47.9110 C   0  0  0  0  0  0  0  0  0  0  0  0
   45.0900   24.9300   48.8390 O   0  0  0  0  0  0  0  0  0  0  0  0
   43.6680   24.5340   47.4710 H   0  0  0  0  0  0  0  0  0  0  0  0
  1  2  1  0  0  0  0
  1 22  1  0  0  0  0
  1  3  1  0  0  0  0
  4  8  2  0  0  0  0
  5  4  1  0  0  0  0
  5  6  2  0  0  0  0
  6 10  1  0  0  0  0
  6  7  1  0  0  0  0
  7  1  1  0  0  0  0
  8  7  1  0  0  0  0
  9  5  1  0  0  0  0
 11 17  1  0  0  0  0
 11 16  1  0  0  0  0
 12 11  2  0  0  0  0
 13 12  1  0  0  0  0
 13 14  2  0  0  0  0
 14 15  1  0  0  0  0
 15 16  2  0  0  0  0
 15  4  1  0  0  0  0
 18 12  1  0  0  0  0
 19 20  1  0  0  0  0
 19 13  1  0  0  0  0
 20 21  1  0  0  0  0
 22 23  1  0  0  0  0
 24 22  1  0  0  0  0
 25 34  1  0  0  0  0
 26 25  1  0  0  0  0
 26 22  1  0  0  0  0
 27 26  2  0  0  0  0
 28 32  2  0  0  0  0
 28 27  1  0  0  0  0
 29 28  1  0  0  0  0
 30 29  1  0  0  0  0
 30 31  2  0  0  0  0
 31 38  1  0  0  0  0
 31 32  1  0  0  0  0
 32 33  1  0  0  0  0
 33 39  1  0  0  0  0
 33 25  2  0  0  0  0
 35 27  1  0  0  0  0
 36 29  1  0  0  0  0
 37 30  1  0  0  0  0
 39 40  2  0  0  0  0
 41 39  1  0  0  0  0
M  END
>  <minimizedAffinity>
-5.48080397

>  <minimizedRMSD>
0.73101455

$$$$
