
 OpenBabel03252502433D

 25 26  0  0  1  0  0  0  0  0999 V2000
   46.9740   34.7500   41.4600 C   0  0  0  0  0  0  0  0  0  0  0  0
   46.4600   34.5360   40.5200 H   0  0  0  0  0  0  0  0  0  0  0  0
   46.7310   35.7810   41.8540 H   0  0  0  0  0  0  0  0  0  0  0  0
   48.4620   34.7220   41.3190 C   0  0  1  0  0  0  0  0  0  0  0  0
   49.1990   35.9970   41.5820 C   0  0  0  0  0  0  0  0  0  0  0  0
   49.2610   34.8880   42.5520 C   0  0  2  0  0  0  0  0  0  0  0  0
   48.7830   34.0610   40.4770 H   0  0  0  0  0  0  0  0  0  0  0  0
   48.6790   36.9610   41.7580 H   0  0  0  0  0  0  0  0  0  0  0  0
   50.0350   36.1730   40.8700 H   0  0  0  0  0  0  0  0  0  0  0  0
   48.9380   34.7820   43.5560 H   0  0  0  0  0  0  0  0  0  0  0  0
   50.5740   34.1060   42.4610 C   0  0  0  0  0  0  0  0  0  0  0  0
   50.3190   32.7750   41.8050 C   0  0  0  0  0  0  0  0  0  0  0  0
   49.2810   32.4310   42.0150 H   0  0  0  0  0  0  0  0  0  0  0  0
   46.6370   33.6700   42.4620 C   0  0  0  0  0  0  0  0  0  0  0  0
   47.5840   33.5040   43.0700 H   0  0  0  0  0  0  0  0  0  0  0  0
   46.2190   32.7750   42.0280 H   0  0  0  0  0  0  0  0  0  0  0  0
   44.5690   36.0420   44.5100 C   0  0  0  0  0  0  0  0  0  0  0  0
   45.2490   35.4700   43.3890 C   0  0  0  0  0  0  0  0  0  0  0  0
   45.8730   34.2680   43.5870 C   0  0  0  0  0  0  0  0  0  0  0  0
   45.8200   33.6750   44.8130 N   0  0  0  0  0  0  0  0  0  0  0  0
   45.1870   34.2200   45.8360 C   0  0  0  0  0  0  0  0  0  0  0  0
   44.5660   35.3940   45.6900 N   0  0  0  0  0  0  0  0  0  0  0  0
   44.0480   36.9660   44.4930 H   0  0  0  0  0  0  0  0  0  0  0  0
   45.1420   36.1040   42.5330 H   0  0  0  0  0  0  0  0  0  0  0  0
   45.1780   33.7080   46.7870 H   0  0  0  0  0  0  0  0  0  0  0  0
  1  3  1  0  0  0  0
  1 14  1  0  0  0  0
  2  1  1  0  0  0  0
  4  7  1  6  0  0  0
  4  1  1  0  0  0  0
  4  5  1  0  0  0  0
  4  6  1  0  0  0  0
  5  8  1  0  0  0  0
  5  6  1  0  0  0  0
  6 10  1  1  0  0  0
  9  5  1  0  0  0  0
 11  6  1  0  0  0  0
 12 13  1  0  0  0  0
 12 11  1  0  0  0  0
 14 15  1  0  0  0  0
 14 19  1  0  0  0  0
 16 14  1  0  0  0  0
 17 22  1  0  0  0  0
 18 19  1  0  0  0  0
 18 17  2  0  0  0  0
 19 20  2  0  0  0  0
 20 21  1  0  0  0  0
 21 25  1  0  0  0  0
 22 21  2  0  0  0  0
 23 17  1  0  0  0  0
 24 18  1  0  0  0  0
M  END
>  <minimizedAffinity>
-4.71394396

>  <minimizedRMSD>
0.948989451

$$$$
