
 OpenBabel03242523193D

 31 33  0  0  0  0  0  0  0  0999 V2000
   47.3880   32.8140   44.0190 C   0  0  0  0  0  0  0  0  0  0  0  0
   48.2440   33.3120   43.1150 C   0  0  0  0  0  0  0  0  0  0  0  0
   49.0890   32.3780   42.5450 C   0  0  0  0  0  0  0  0  0  0  0  0
   48.9800   31.0390   42.9520 N   0  0  0  0  0  0  0  0  0  0  0  0
   48.1170   30.6250   43.8490 C   0  0  0  0  0  0  0  0  0  0  0  0
   47.2560   31.5260   44.4380 N   0  0  0  0  0  0  0  0  0  0  0  0
   49.8400   32.5700   41.8020 H   0  0  0  0  0  0  0  0  0  0  0  0
   48.1510   29.5610   44.0620 H   0  0  0  0  0  0  0  0  0  0  0  0
   48.4270   34.6850   42.7960 C   0  0  0  0  0  0  0  0  0  0  0  0
   49.4550   35.2760   42.1310 C   0  0  0  0  0  0  0  0  0  0  0  0
   48.2350   35.0910   41.2750 C   0  0  0  0  0  0  0  0  0  0  0  0
   47.9540   35.3740   43.5220 H   0  0  0  0  0  0  0  0  0  0  0  0
   49.7890   36.3370   42.1310 H   0  0  0  0  0  0  0  0  0  0  0  0
   50.3200   34.6400   41.7710 H   0  0  0  0  0  0  0  0  0  0  0  0
   47.5360   35.9390   41.1510 H   0  0  0  0  0  0  0  0  0  0  0  0
   48.1620   34.2130   40.6060 H   0  0  0  0  0  0  0  0  0  0  0  0
   46.3200   33.5490   44.7090 C   0  0  0  0  0  0  0  0  0  0  0  0
   45.7440   33.9410   45.6950 O   0  0  0  0  0  0  0  0  0  0  0  0
   44.5440   31.7510   42.9430 Cl  0  0  0  0  0  0  0  0  0  0  0  0
   44.5690   33.5010   42.7860 C   0  0  0  0  0  0  0  0  0  0  0  0
   45.4320   34.1720   43.6800 C   0  0  0  0  0  0  0  0  0  0  0  0
   45.3810   35.5420   43.4820 C   0  0  0  0  0  0  0  0  0  0  0  0
   44.6620   36.2570   42.6040 C   0  0  0  0  0  0  0  0  0  0  0  0
   43.8520   35.5350   41.7730 C   0  0  0  0  0  0  0  0  0  0  0  0
   43.7970   34.1890   41.8500 C   0  0  0  0  0  0  0  0  0  0  0  0
   45.9750   36.2240   44.1270 H   0  0  0  0  0  0  0  0  0  0  0  0
   44.6500   37.3150   42.4790 H   0  0  0  0  0  0  0  0  0  0  0  0
   43.2020   35.9270   41.0020 H   0  0  0  0  0  0  0  0  0  0  0  0
   42.9420   33.3000   40.9890 C   0  0  0  0  0  2  0  0  0  0  0  0
   41.4800   33.6320   41.0980 C   0  0  0  0  0  2  0  0  0  0  0  0
   40.9370   32.8000   40.5920 H   0  0  0  0  0  0  0  0  0  0  0  0
  1  6  1  0  0  0  0
  1 17  1  0  0  0  0
  2  1  2  0  0  0  0
  3  4  2  0  0  0  0
  3  2  1  0  0  0  0
  4  5  1  0  0  0  0
  5  8  1  0  0  0  0
  5  6  2  0  0  0  0
  7  3  1  0  0  0  0
  9  2  1  0  0  0  0
  9 12  1  0  0  0  0
 10 13  1  0  0  0  0
 10  9  1  0  0  0  0
 11 10  1  0  0  0  0
 11  9  1  0  0  0  0
 14 10  1  0  0  0  0
 15 11  1  0  0  0  0
 16 11  1  0  0  0  0
 17 18  2  0  0  0  0
 20 19  1  0  0  0  0
 20 21  1  0  0  0  0
 21 17  1  0  0  0  0
 22 21  2  0  0  0  0
 22 26  1  0  0  0  0
 23 22  1  0  0  0  0
 24 25  1  0  0  0  0
 24 23  2  0  0  0  0
 25 20  2  0  0  0  0
 27 23  1  0  0  0  0
 28 24  1  0  0  0  0
 29 30  1  0  0  0  0
 29 25  1  0  0  0  0
 31 30  1  0  0  0  0
M  END
>  <minimizedAffinity>
-5.00591326

>  <minimizedRMSD>
0.45635888

$$$$
