
 OpenBabel03242523193D

 31 33  0  0  0  0  0  0  0  0999 V2000
   47.3890   32.8120   44.0160 C   0  0  0  0  0  0  0  0  0  0  0  0
   48.2470   33.3120   43.1140 C   0  0  0  0  0  0  0  0  0  0  0  0
   49.0910   32.3770   42.5420 C   0  0  0  0  0  0  0  0  0  0  0  0
   48.9800   31.0380   42.9460 N   0  0  0  0  0  0  0  0  0  0  0  0
   48.1160   30.6220   43.8410 C   0  0  0  0  0  0  0  0  0  0  0  0
   47.2550   31.5230   44.4310 N   0  0  0  0  0  0  0  0  0  0  0  0
   49.8440   32.5700   41.8010 H   0  0  0  0  0  0  0  0  0  0  0  0
   48.1480   29.5580   44.0520 H   0  0  0  0  0  0  0  0  0  0  0  0
   48.4310   34.6850   42.7990 C   0  0  0  0  0  0  0  0  0  0  0  0
   49.4620   35.2760   42.1380 C   0  0  0  0  0  0  0  0  0  0  0  0
   48.2440   35.0940   41.2770 C   0  0  0  0  0  0  0  0  0  0  0  0
   47.9580   35.3720   43.5240 H   0  0  0  0  0  0  0  0  0  0  0  0
   49.7960   36.3370   42.1400 H   0  0  0  0  0  0  0  0  0  0  0  0
   50.3280   34.6400   41.7780 H   0  0  0  0  0  0  0  0  0  0  0  0
   47.5460   35.9430   41.1530 H   0  0  0  0  0  0  0  0  0  0  0  0
   48.1730   34.2170   40.6070 H   0  0  0  0  0  0  0  0  0  0  0  0
   46.3210   33.5470   44.7070 C   0  0  0  0  0  0  0  0  0  0  0  0
   45.7450   33.9380   45.6920 O   0  0  0  0  0  0  0  0  0  0  0  0
   44.5420   31.7490   42.9430 Cl  0  0  0  0  0  0  0  0  0  0  0  0
   44.5690   33.4990   42.7850 C   0  0  0  0  0  0  0  0  0  0  0  0
   45.4330   34.1700   43.6770 C   0  0  0  0  0  0  0  0  0  0  0  0
   45.3820   35.5390   43.4790 C   0  0  0  0  0  0  0  0  0  0  0  0
   44.6640   36.2550   42.6010 C   0  0  0  0  0  0  0  0  0  0  0  0
   43.8520   35.5330   41.7710 C   0  0  0  0  0  0  0  0  0  0  0  0
   43.7960   34.1870   41.8490 C   0  0  0  0  0  0  0  0  0  0  0  0
   45.9770   36.2210   44.1230 H   0  0  0  0  0  0  0  0  0  0  0  0
   44.6520   37.3130   42.4760 H   0  0  0  0  0  0  0  0  0  0  0  0
   43.2020   35.9250   41.0010 H   0  0  0  0  0  0  0  0  0  0  0  0
   42.9390   33.2980   40.9890 C   0  0  0  0  0  2  0  0  0  0  0  0
   41.4770   33.6320   41.0980 C   0  0  0  0  0  2  0  0  0  0  0  0
   40.9340   32.7990   40.5940 H   0  0  0  0  0  0  0  0  0  0  0  0
  1  6  1  0  0  0  0
  1 17  1  0  0  0  0
  2  1  2  0  0  0  0
  3  4  2  0  0  0  0
  3  2  1  0  0  0  0
  4  5  1  0  0  0  0
  5  8  1  0  0  0  0
  5  6  2  0  0  0  0
  7  3  1  0  0  0  0
  9  2  1  0  0  0  0
  9 12  1  0  0  0  0
 10 13  1  0  0  0  0
 10  9  1  0  0  0  0
 11 10  1  0  0  0  0
 11  9  1  0  0  0  0
 14 10  1  0  0  0  0
 15 11  1  0  0  0  0
 16 11  1  0  0  0  0
 17 18  2  0  0  0  0
 20 19  1  0  0  0  0
 20 21  1  0  0  0  0
 21 17  1  0  0  0  0
 22 21  2  0  0  0  0
 22 26  1  0  0  0  0
 23 22  1  0  0  0  0
 24 25  1  0  0  0  0
 24 23  2  0  0  0  0
 25 20  2  0  0  0  0
 27 23  1  0  0  0  0
 28 24  1  0  0  0  0
 29 30  1  0  0  0  0
 29 25  1  0  0  0  0
 31 30  1  0  0  0  0
M  END
>  <minimizedAffinity>
-5.00694656

>  <minimizedRMSD>
0.51177758

$$$$
