
 OpenBabel03242523203D

 31 33  0  0  0  0  0  0  0  0999 V2000
   47.5220   32.8380   43.9140 C   0  0  0  0  0  0  0  0  0  0  0  0
   48.3550   33.3870   43.0180 C   0  0  0  0  0  0  0  0  0  0  0  0
   49.2180   32.4940   42.4100 C   0  0  0  0  0  0  0  0  0  0  0  0
   49.1490   31.1410   42.7770 N   0  0  0  0  0  0  0  0  0  0  0  0
   48.3080   30.6760   43.6690 C   0  0  0  0  0  0  0  0  0  0  0  0
   47.4290   31.5350   44.2940 N   0  0  0  0  0  0  0  0  0  0  0  0
   49.9560   32.7290   41.6670 H   0  0  0  0  0  0  0  0  0  0  0  0
   48.3720   29.6080   43.8490 H   0  0  0  0  0  0  0  0  0  0  0  0
   48.4970   34.7740   42.7400 C   0  0  0  0  0  0  0  0  0  0  0  0
   49.5160   35.4160   42.1100 C   0  0  0  0  0  0  0  0  0  0  0  0
   48.3180   35.2150   41.2260 C   0  0  0  0  0  0  0  0  0  0  0  0
   47.9890   35.4260   43.4750 H   0  0  0  0  0  0  0  0  0  0  0  0
   49.8140   36.4870   42.1450 H   0  0  0  0  0  0  0  0  0  0  0  0
   50.4090   34.8190   41.7490 H   0  0  0  0  0  0  0  0  0  0  0  0
   47.5940   36.0430   41.1130 H   0  0  0  0  0  0  0  0  0  0  0  0
   48.2870   34.3540   40.5330 H   0  0  0  0  0  0  0  0  0  0  0  0
   46.4420   33.5230   44.6380 C   0  0  0  0  0  0  0  0  0  0  0  0
   45.8730   33.8780   45.6410 O   0  0  0  0  0  0  0  0  0  0  0  0
   44.6230   31.6890   42.9530 Cl  0  0  0  0  0  0  0  0  0  0  0  0
   44.6230   33.4380   42.7810 C   0  0  0  0  0  0  0  0  0  0  0  0
   45.5100   34.1270   43.6360 C   0  0  0  0  0  0  0  0  0  0  0  0
   45.4350   35.4930   43.4290 C   0  0  0  0  0  0  0  0  0  0  0  0
   44.6770   36.1930   42.5720 C   0  0  0  0  0  0  0  0  0  0  0  0
   43.8450   35.4540   41.7780 C   0  0  0  0  0  0  0  0  0  0  0  0
   43.8080   34.1080   41.8680 C   0  0  0  0  0  0  0  0  0  0  0  0
   46.0450   36.1880   44.0460 H   0  0  0  0  0  0  0  0  0  0  0  0
   44.6470   37.2500   42.4390 H   0  0  0  0  0  0  0  0  0  0  0  0
   43.1620   35.8320   41.0280 H   0  0  0  0  0  0  0  0  0  0  0  0
   42.9320   33.2020   41.0470 C   0  0  0  0  0  2  0  0  0  0  0  0
   43.4440   33.0280   39.6460 C   0  0  0  0  0  2  0  0  0  0  0  0
   42.6280   32.5190   39.0810 H   0  0  0  0  0  0  0  0  0  0  0  0
  1  6  1  0  0  0  0
  1 17  1  0  0  0  0
  2  1  2  0  0  0  0
  3  4  2  0  0  0  0
  3  2  1  0  0  0  0
  4  5  1  0  0  0  0
  5  8  1  0  0  0  0
  5  6  2  0  0  0  0
  7  3  1  0  0  0  0
  9  2  1  0  0  0  0
  9 12  1  0  0  0  0
 10 13  1  0  0  0  0
 10  9  1  0  0  0  0
 11 10  1  0  0  0  0
 11  9  1  0  0  0  0
 14 10  1  0  0  0  0
 15 11  1  0  0  0  0
 16 11  1  0  0  0  0
 17 18  2  0  0  0  0
 20 19  1  0  0  0  0
 20 21  1  0  0  0  0
 21 17  1  0  0  0  0
 22 21  2  0  0  0  0
 22 26  1  0  0  0  0
 23 22  1  0  0  0  0
 24 25  1  0  0  0  0
 24 23  2  0  0  0  0
 25 20  2  0  0  0  0
 27 23  1  0  0  0  0
 28 24  1  0  0  0  0
 29 25  1  0  0  0  0
 30 29  1  0  0  0  0
 31 30  1  0  0  0  0
M  END
>  <minimizedAffinity>
-4.89941645

>  <minimizedRMSD>
0.174288914

$$$$
