
 OpenBabel03242522273D

 32 34  0  0  0  0  0  0  0  0999 V2000
   44.8150   33.5430   41.2860 F   0  0  0  0  0  0  0  0  0  0  0  0
   46.0590   34.1120   41.1180 C   0  0  0  0  0  0  0  0  0  0  0  0
   46.6610   34.7620   42.1460 C   0  0  0  0  0  0  0  0  0  0  0  0
   47.9550   35.1940   41.9100 C   0  0  0  0  0  0  0  0  0  0  0  0
   48.6110   34.9820   40.7150 C   0  0  0  0  0  0  0  0  0  0  0  0
   47.9000   34.3120   39.7510 C   0  0  0  0  0  0  0  0  0  0  0  0
   46.6310   33.8680   39.9060 C   0  0  0  0  0  0  0  0  0  0  0  0
   48.3220   35.7120   42.8250 H   0  0  0  0  0  0  0  0  0  0  0  0
   49.5900   35.4180   40.8210 H   0  0  0  0  0  0  0  0  0  0  0  0
   48.6910   34.2870   39.0560 H   0  0  0  0  0  0  0  0  0  0  0  0
   46.0220   33.2320   38.7760 C   0  0  0  0  0  0  0  0  0  0  0  0
   44.8510   32.4990   39.0010 C   0  0  0  0  0  0  0  0  0  0  0  0
   44.3330   31.8010   37.9330 C   0  0  0  0  0  0  0  0  0  0  0  0
   44.9600   31.8250   36.6730 C   0  0  0  0  0  0  0  0  0  0  0  0
   46.1340   32.5890   36.5250 C   0  0  0  0  0  0  0  0  0  0  0  0
   46.6810   33.3050   37.5670 C   0  0  0  0  0  0  0  0  0  0  0  0
   44.2590   32.3510   39.8600 H   0  0  0  0  0  0  0  0  0  0  0  0
   43.4320   31.2000   37.9890 H   0  0  0  0  0  0  0  0  0  0  0  0
   44.4990   31.2400   35.8590 H   0  0  0  0  0  0  0  0  0  0  0  0
   46.4670   32.4880   35.5160 H   0  0  0  0  0  0  0  0  0  0  0  0
   47.8440   34.0680   37.1140 C   0  0  0  0  0  0  0  0  0  0  0  0
   48.8270   33.2540   36.2540 C   0  0  0  0  0  0  0  0  0  0  0  0
   49.8440   33.7140   36.2790 H   0  0  0  0  0  0  0  0  0  0  0  0
   44.4280   36.0340   44.9040 C   0  0  0  0  0  0  0  0  0  0  0  0
   45.0870   35.9520   43.6690 C   0  0  0  0  0  0  0  0  0  0  0  0
   45.9430   34.9120   43.3950 C   0  0  0  0  0  0  0  0  0  0  0  0
   46.0770   34.0160   44.3950 N   0  0  0  0  0  0  0  0  0  0  0  0
   45.4550   34.0890   45.5700 C   0  0  0  0  0  0  0  0  0  0  0  0
   44.6290   35.1010   45.8220 N   0  0  0  0  0  0  0  0  0  0  0  0
   43.7610   36.8410   45.1230 H   0  0  0  0  0  0  0  0  0  0  0  0
   44.9420   36.7000   42.9020 H   0  0  0  0  0  0  0  0  0  0  0  0
   45.6140   33.3280   46.3250 H   0  0  0  0  0  0  0  0  0  0  0  0
  2  1  1  0  0  0  0
  2  3  1  0  0  0  0
  3 26  1  0  0  0  0
  4  3  2  0  0  0  0
  4  8  1  0  0  0  0
  5  9  1  0  0  0  0
  5  4  1  0  0  0  0
  6  7  1  0  0  0  0
  6  5  2  0  0  0  0
  7  2  2  0  0  0  0
 10  6  1  0  0  0  0
 11 12  1  0  0  0  0
 11  7  1  0  0  0  0
 12 17  1  0  0  0  0
 13 18  1  0  0  0  0
 13 12  2  0  0  0  0
 14 13  1  0  0  0  0
 15 14  2  0  0  0  0
 15 16  1  0  0  0  0
 16 11  2  0  0  0  0
 19 14  1  0  0  0  0
 20 15  1  0  0  0  0
 21 16  1  0  0  0  0
 22 23  1  0  0  0  0
 22 21  1  0  0  0  0
 24 30  1  0  0  0  0
 24 29  1  0  0  0  0
 25 24  2  0  0  0  0
 26 25  1  0  0  0  0
 26 27  2  0  0  0  0
 27 28  1  0  0  0  0
 28 29  2  0  0  0  0
 28 32  1  0  0  0  0
 31 25  1  0  0  0  0
M  END
>  <minimizedAffinity>
-5.88532686

>  <minimizedRMSD>
0.558065891

$$$$
