
 OpenBabel03242523193D

 31 33  0  0  0  0  0  0  0  0999 V2000
   47.4990   32.8220   43.9380 C   0  0  0  0  0  0  0  0  0  0  0  0
   48.3340   33.3670   43.0400 C   0  0  0  0  0  0  0  0  0  0  0  0
   49.1910   32.4690   42.4310 C   0  0  0  0  0  0  0  0  0  0  0  0
   49.1160   31.1160   42.7980 N   0  0  0  0  0  0  0  0  0  0  0  0
   48.2740   30.6550   43.6910 C   0  0  0  0  0  0  0  0  0  0  0  0
   47.4000   31.5190   44.3180 N   0  0  0  0  0  0  0  0  0  0  0  0
   49.9290   32.7000   41.6860 H   0  0  0  0  0  0  0  0  0  0  0  0
   48.3320   29.5870   43.8710 H   0  0  0  0  0  0  0  0  0  0  0  0
   48.4830   34.7520   42.7610 C   0  0  0  0  0  0  0  0  0  0  0  0
   49.4980   35.3880   42.1180 C   0  0  0  0  0  0  0  0  0  0  0  0
   48.2860   35.1970   41.2510 C   0  0  0  0  0  0  0  0  0  0  0  0
   47.9900   35.4070   43.5040 H   0  0  0  0  0  0  0  0  0  0  0  0
   49.8050   36.4560   42.1500 H   0  0  0  0  0  0  0  0  0  0  0  0
   50.3810   34.7840   41.7440 H   0  0  0  0  0  0  0  0  0  0  0  0
   47.5670   36.0310   41.1490 H   0  0  0  0  0  0  0  0  0  0  0  0
   48.2390   34.3370   40.5570 H   0  0  0  0  0  0  0  0  0  0  0  0
   46.4240   33.5120   44.6620 C   0  0  0  0  0  0  0  0  0  0  0  0
   45.8560   33.8660   45.6660 O   0  0  0  0  0  0  0  0  0  0  0  0
   44.6220   31.7070   42.9310 Cl  0  0  0  0  0  0  0  0  0  0  0  0
   44.6220   33.4580   42.7870 C   0  0  0  0  0  0  0  0  0  0  0  0
   45.5010   34.1330   43.6620 C   0  0  0  0  0  0  0  0  0  0  0  0
   45.4290   35.5030   43.4770 C   0  0  0  0  0  0  0  0  0  0  0  0
   44.6790   36.2170   42.6250 C   0  0  0  0  0  0  0  0  0  0  0  0
   43.8550   35.4910   41.8100 C   0  0  0  0  0  0  0  0  0  0  0  0
   43.8170   34.1450   41.8780 C   0  0  0  0  0  0  0  0  0  0  0  0
   46.0330   36.1870   44.1120 H   0  0  0  0  0  0  0  0  0  0  0  0
   44.6500   37.2760   42.5090 H   0  0  0  0  0  0  0  0  0  0  0  0
   43.1790   35.8820   41.0610 H   0  0  0  0  0  0  0  0  0  0  0  0
   42.9490   33.2520   41.0340 C   0  0  0  0  0  2  0  0  0  0  0  0
   43.3180   33.3050   39.5780 C   0  0  0  0  0  2  0  0  0  0  0  0
   42.4990   32.7800   39.0340 H   0  0  0  0  0  0  0  0  0  0  0  0
  1  6  1  0  0  0  0
  1 17  1  0  0  0  0
  2  1  2  0  0  0  0
  3  4  2  0  0  0  0
  3  2  1  0  0  0  0
  4  5  1  0  0  0  0
  5  8  1  0  0  0  0
  5  6  2  0  0  0  0
  7  3  1  0  0  0  0
  9  2  1  0  0  0  0
  9 12  1  0  0  0  0
 10 13  1  0  0  0  0
 10  9  1  0  0  0  0
 11 10  1  0  0  0  0
 11  9  1  0  0  0  0
 14 10  1  0  0  0  0
 15 11  1  0  0  0  0
 16 11  1  0  0  0  0
 17 18  2  0  0  0  0
 20 19  1  0  0  0  0
 20 21  1  0  0  0  0
 21 17  1  0  0  0  0
 22 21  2  0  0  0  0
 22 26  1  0  0  0  0
 23 22  1  0  0  0  0
 24 25  1  0  0  0  0
 24 23  2  0  0  0  0
 25 20  2  0  0  0  0
 27 23  1  0  0  0  0
 28 24  1  0  0  0  0
 29 25  1  0  0  0  0
 30 29  1  0  0  0  0
 31 30  1  0  0  0  0
M  END
>  <minimizedAffinity>
-4.92330217

>  <minimizedRMSD>
0.384822309

$$$$
