
 OpenBabel03242523203D

 31 33  0  0  0  0  0  0  0  0999 V2000
   47.4070   32.7620   44.0550 C   0  0  0  0  0  0  0  0  0  0  0  0
   48.2440   33.2610   43.1340 C   0  0  0  0  0  0  0  0  0  0  0  0
   49.0820   32.3290   42.5510 C   0  0  0  0  0  0  0  0  0  0  0  0
   48.9880   30.9910   42.9640 N   0  0  0  0  0  0  0  0  0  0  0  0
   48.1440   30.5750   43.8780 C   0  0  0  0  0  0  0  0  0  0  0  0
   47.2890   31.4750   44.4800 N   0  0  0  0  0  0  0  0  0  0  0  0
   49.8190   32.5230   41.7940 H   0  0  0  0  0  0  0  0  0  0  0  0
   48.1870   29.5130   44.0950 H   0  0  0  0  0  0  0  0  0  0  0  0
   48.4130   34.6340   42.8070 C   0  0  0  0  0  0  0  0  0  0  0  0
   49.4150   35.2250   42.1030 C   0  0  0  0  0  0  0  0  0  0  0  0
   48.1630   35.0390   41.2930 C   0  0  0  0  0  0  0  0  0  0  0  0
   47.9680   35.3230   43.5490 H   0  0  0  0  0  0  0  0  0  0  0  0
   49.7480   36.2860   42.0880 H   0  0  0  0  0  0  0  0  0  0  0  0
   50.2660   34.5890   41.7100 H   0  0  0  0  0  0  0  0  0  0  0  0
   47.4600   35.8860   41.1950 H   0  0  0  0  0  0  0  0  0  0  0  0
   48.0660   34.1600   40.6280 H   0  0  0  0  0  0  0  0  0  0  0  0
   46.3480   33.4940   44.7620 C   0  0  0  0  0  0  0  0  0  0  0  0
   45.7780   33.8710   45.7560 O   0  0  0  0  0  0  0  0  0  0  0  0
   44.6060   31.7480   42.9110 Cl  0  0  0  0  0  0  0  0  0  0  0  0
   44.6170   33.5030   42.8200 C   0  0  0  0  0  0  0  0  0  0  0  0
   45.4650   34.1470   43.7470 C   0  0  0  0  0  0  0  0  0  0  0  0
   45.4030   35.5230   43.6000 C   0  0  0  0  0  0  0  0  0  0  0  0
   44.6870   36.2640   42.7430 C   0  0  0  0  0  0  0  0  0  0  0  0
   43.8920   35.5670   41.8760 C   0  0  0  0  0  0  0  0  0  0  0  0
   43.8480   34.2180   41.9030 C   0  0  0  0  0  0  0  0  0  0  0  0
   45.9840   36.1850   44.2770 H   0  0  0  0  0  0  0  0  0  0  0  0
   44.6660   37.3260   42.6570 H   0  0  0  0  0  0  0  0  0  0  0  0
   43.2460   35.9820   41.1140 H   0  0  0  0  0  0  0  0  0  0  0  0
   43.0100   33.3550   41.0000 C   0  0  0  0  0  2  0  0  0  0  0  0
   42.4510   34.1190   39.8330 C   0  0  0  0  0  2  0  0  0  0  0  0
   41.6980   33.4490   39.3590 H   0  0  0  0  0  0  0  0  0  0  0  0
  1  6  1  0  0  0  0
  1 17  1  0  0  0  0
  2  1  2  0  0  0  0
  3  4  2  0  0  0  0
  3  2  1  0  0  0  0
  4  5  1  0  0  0  0
  5  8  1  0  0  0  0
  5  6  2  0  0  0  0
  7  3  1  0  0  0  0
  9  2  1  0  0  0  0
  9 12  1  0  0  0  0
 10  9  1  0  0  0  0
 11 10  1  0  0  0  0
 11  9  1  0  0  0  0
 13 10  1  0  0  0  0
 14 10  1  0  0  0  0
 15 11  1  0  0  0  0
 16 11  1  0  0  0  0
 17 18  2  0  0  0  0
 20 19  1  0  0  0  0
 20 21  1  0  0  0  0
 21 17  1  0  0  0  0
 22 21  2  0  0  0  0
 22 26  1  0  0  0  0
 23 22  1  0  0  0  0
 24 25  1  0  0  0  0
 24 23  2  0  0  0  0
 25 20  2  0  0  0  0
 27 23  1  0  0  0  0
 28 24  1  0  0  0  0
 29 25  1  0  0  0  0
 30 29  1  0  0  0  0
 31 30  1  0  0  0  0
M  END
>  <minimizedAffinity>
-4.9994216

>  <minimizedRMSD>
0.677281678

$$$$
