
 OpenBabel03242521213D

 30 32  0  0  0  0  0  0  0  0999 V2000
   43.9890   34.4110   41.1780 C   0  0  0  0  0  0  0  0  0  0  0  0
   43.2280   35.5150   41.0440 C   0  0  0  0  0  0  0  0  0  0  0  0
   41.8600   35.5100   40.9700 C   0  0  0  0  0  0  0  0  0  0  0  0
   41.2780   34.2940   41.0420 N   0  0  0  0  0  0  0  0  0  0  0  0
   42.0070   33.1920   41.1750 C   0  0  0  0  0  0  0  0  0  0  0  0
   43.3730   33.1960   41.2480 N   0  0  0  0  0  0  0  0  0  0  0  0
   43.6930   36.5050   40.9850 H   0  0  0  0  0  0  0  0  0  0  0  0
   41.2610   36.4240   40.8610 H   0  0  0  0  0  0  0  0  0  0  0  0
   41.3590   31.8690   41.2550 C   0  0  0  0  0  0  0  0  0  0  0  0
   41.1460   31.2740   42.4730 C   0  0  0  0  0  0  0  0  0  0  0  0
   40.5500   30.0340   42.6270 C   0  0  0  0  0  0  0  0  0  0  0  0
   40.1470   29.3570   41.4860 C   0  0  0  0  0  0  0  0  0  0  0  0
   40.3540   29.9400   40.2810 C   0  0  0  0  0  0  0  0  0  0  0  0
   40.9470   31.1700   40.1540 C   0  0  0  0  0  0  0  0  0  0  0  0
   41.4620   31.8030   43.3820 H   0  0  0  0  0  0  0  0  0  0  0  0
   40.4140   29.6260   43.6350 H   0  0  0  0  0  0  0  0  0  0  0  0
   39.6770   28.3840   41.5890 H   0  0  0  0  0  0  0  0  0  0  0  0
   40.0220   29.3730   39.4190 H   0  0  0  0  0  0  0  0  0  0  0  0
   41.1150   31.7090   38.7940 C   0  0  0  0  0  2  0  0  0  0  0  0
   39.7940   32.2040   38.2940 C   0  0  0  0  0  2  0  0  0  0  0  0
   39.0690   32.2560   39.1170 H   0  0  0  0  0  0  0  0  0  0  0  0
   47.3640   35.1750   42.3990 C   0  0  0  0  0  0  0  0  0  0  0  0
   48.1700   34.5960   41.4120 C   0  0  0  0  0  0  0  0  0  0  0  0
   47.5610   33.9490   40.3420 C   0  0  0  0  0  0  0  0  0  0  0  0
   46.1890   33.9020   40.2880 N   0  0  0  0  0  0  0  0  0  0  0  0
   45.4460   34.4710   41.2540 C   0  0  0  0  0  0  0  0  0  0  0  0
   46.0210   35.0950   42.2900 N   0  0  0  0  0  0  0  0  0  0  0  0
   47.8230   35.6820   43.2380 H   0  0  0  0  0  0  0  0  0  0  0  0
   49.2560   34.6700   41.5180 H   0  0  0  0  0  0  0  0  0  0  0  0
   48.1770   33.4940   39.5660 H   0  0  0  0  0  0  0  0  0  0  0  0
  1  6  1  0  0  0  0
  1 26  1  0  0  0  0
  2  1  2  0  0  0  0
  3  4  2  0  0  0  0
  3  2  1  0  0  0  0
  4  5  1  0  0  0  0
  5  6  2  0  0  0  0
  5  9  1  0  0  0  0
  7  2  1  0  0  0  0
  8  3  1  0  0  0  0
  9 10  1  0  0  0  0
 10 11  2  0  0  0  0
 10 15  1  0  0  0  0
 11 16  1  0  0  0  0
 12 17  1  0  0  0  0
 12 11  1  0  0  0  0
 13 12  2  0  0  0  0
 14 13  1  0  0  0  0
 14  9  2  0  0  0  0
 18 13  1  0  0  0  0
 19 14  1  0  0  0  0
 20 19  1  0  0  0  0
 20 21  1  0  0  0  0
 22 28  1  0  0  0  0
 23 29  1  0  0  0  0
 23 22  2  0  0  0  0
 24 23  1  0  0  0  0
 25 24  2  0  0  0  0
 25 26  1  0  0  0  0
 26 27  2  0  0  0  0
 27 22  1  0  0  0  0
 30 24  1  0  0  0  0
M  END
>  <minimizedAffinity>
-4.37730408

>  <minimizedRMSD>
7.33194923

$$$$
