
 OpenBabel03242521213D

 30 32  0  0  0  0  0  0  0  0999 V2000
   45.8970   33.7090   44.8900 C   0  0  0  0  0  0  0  0  0  0  0  0
   45.1100   34.7750   45.1370 C   0  0  0  0  0  0  0  0  0  0  0  0
   44.7980   35.7390   44.2150 C   0  0  0  0  0  0  0  0  0  0  0  0
   45.3360   35.5670   42.9890 N   0  0  0  0  0  0  0  0  0  0  0  0
   46.1140   34.5240   42.7220 C   0  0  0  0  0  0  0  0  0  0  0  0
   46.4260   33.5610   43.6420 N   0  0  0  0  0  0  0  0  0  0  0  0
   44.6690   34.9210   46.1290 H   0  0  0  0  0  0  0  0  0  0  0  0
   44.1540   36.6000   44.4400 H   0  0  0  0  0  0  0  0  0  0  0  0
   46.6950   34.3460   41.3780 C   0  0  0  0  0  0  0  0  0  0  0  0
   46.0350   33.6040   40.4300 C   0  0  0  0  0  0  0  0  0  0  0  0
   46.5180   33.3890   39.1510 C   0  0  0  0  0  0  0  0  0  0  0  0
   47.7370   33.9550   38.8100 C   0  0  0  0  0  0  0  0  0  0  0  0
   48.3930   34.6890   39.7410 C   0  0  0  0  0  0  0  0  0  0  0  0
   47.8930   34.8880   41.0030 C   0  0  0  0  0  0  0  0  0  0  0  0
   45.0690   33.1530   40.6920 H   0  0  0  0  0  0  0  0  0  0  0  0
   45.9320   32.7840   38.4500 H   0  0  0  0  0  0  0  0  0  0  0  0
   48.1310   33.7960   37.8110 H   0  0  0  0  0  0  0  0  0  0  0  0
   49.3410   35.1110   39.4270 H   0  0  0  0  0  0  0  0  0  0  0  0
   48.6890   35.7100   41.9290 C   0  0  0  0  0  2  0  0  0  0  0  0
   49.8260   34.8940   42.4600 C   0  0  0  0  0  2  0  0  0  0  0  0
   49.9360   33.9670   41.8810 H   0  0  0  0  0  0  0  0  0  0  0  0
   46.1550   30.4660   46.5880 C   0  0  0  0  0  0  0  0  0  0  0  0
   46.7490   30.8200   47.8050 C   0  0  0  0  0  0  0  0  0  0  0  0
   47.0570   32.1560   48.0390 C   0  0  0  0  0  0  0  0  0  0  0  0
   46.7680   33.0840   47.0670 N   0  0  0  0  0  0  0  0  0  0  0  0
   46.1970   32.7070   45.9090 C   0  0  0  0  0  0  0  0  0  0  0  0
   45.8960   31.4240   45.6730 N   0  0  0  0  0  0  0  0  0  0  0  0
   45.9090   29.4300   46.3920 H   0  0  0  0  0  0  0  0  0  0  0  0
   46.9520   30.0300   48.5340 H   0  0  0  0  0  0  0  0  0  0  0  0
   47.5200   32.4460   48.9830 H   0  0  0  0  0  0  0  0  0  0  0  0
  1  2  1  0  0  0  0
  1 26  1  0  0  0  0
  2  7  1  0  0  0  0
  3  8  1  0  0  0  0
  3  2  2  0  0  0  0
  4  3  1  0  0  0  0
  5  4  2  0  0  0  0
  5  6  1  0  0  0  0
  6  1  2  0  0  0  0
  9  5  1  0  0  0  0
 10 15  1  0  0  0  0
 10  9  2  0  0  0  0
 11 10  1  0  0  0  0
 12 11  2  0  0  0  0
 12 13  1  0  0  0  0
 13 14  2  0  0  0  0
 14  9  1  0  0  0  0
 14 19  1  0  0  0  0
 16 11  1  0  0  0  0
 17 12  1  0  0  0  0
 18 13  1  0  0  0  0
 19 20  1  0  0  0  0
 21 20  1  0  0  0  0
 22 23  1  0  0  0  0
 23 24  2  0  0  0  0
 23 29  1  0  0  0  0
 24 30  1  0  0  0  0
 25 24  1  0  0  0  0
 26 25  2  0  0  0  0
 27 26  1  0  0  0  0
 27 22  2  0  0  0  0
 28 22  1  0  0  0  0
M  END
>  <minimizedAffinity>
-6.05379963

>  <minimizedRMSD>
0.918884277

$$$$
