
 OpenBabel03242521213D

 30 32  0  0  0  0  0  0  0  0999 V2000
   45.8970   33.7090   44.8900 C   0  0  0  0  0  0  0  0  0  0  0  0
   45.1100   34.7760   45.1370 C   0  0  0  0  0  0  0  0  0  0  0  0
   44.7980   35.7400   44.2140 C   0  0  0  0  0  0  0  0  0  0  0  0
   45.3370   35.5680   42.9880 N   0  0  0  0  0  0  0  0  0  0  0  0
   46.1140   34.5240   42.7220 C   0  0  0  0  0  0  0  0  0  0  0  0
   46.4260   33.5620   43.6420 N   0  0  0  0  0  0  0  0  0  0  0  0
   44.6690   34.9210   46.1290 H   0  0  0  0  0  0  0  0  0  0  0  0
   44.1550   36.6000   44.4400 H   0  0  0  0  0  0  0  0  0  0  0  0
   46.6950   34.3470   41.3770 C   0  0  0  0  0  0  0  0  0  0  0  0
   46.0360   33.6050   40.4300 C   0  0  0  0  0  0  0  0  0  0  0  0
   46.5190   33.3900   39.1510 C   0  0  0  0  0  0  0  0  0  0  0  0
   47.7380   33.9550   38.8100 C   0  0  0  0  0  0  0  0  0  0  0  0
   48.3930   34.6890   39.7410 C   0  0  0  0  0  0  0  0  0  0  0  0
   47.8930   34.8880   41.0030 C   0  0  0  0  0  0  0  0  0  0  0  0
   45.0690   33.1540   40.6910 H   0  0  0  0  0  0  0  0  0  0  0  0
   45.9330   32.7850   38.4500 H   0  0  0  0  0  0  0  0  0  0  0  0
   48.1320   33.7970   37.8100 H   0  0  0  0  0  0  0  0  0  0  0  0
   49.3420   35.1110   39.4270 H   0  0  0  0  0  0  0  0  0  0  0  0
   48.6900   35.7100   41.9290 C   0  0  0  0  0  0  0  0  0  0  0  0
   49.8270   34.8930   42.4590 C   0  0  0  0  0  0  0  0  0  0  0  0
   49.9350   33.9660   41.8810 H   0  0  0  0  0  0  0  0  0  0  0  0
   46.1540   30.4660   46.5880 C   0  0  0  0  0  0  0  0  0  0  0  0
   46.7480   30.8200   47.8050 C   0  0  0  0  0  0  0  0  0  0  0  0
   47.0580   32.1560   48.0380 C   0  0  0  0  0  0  0  0  0  0  0  0
   46.7690   33.0830   47.0660 N   0  0  0  0  0  0  0  0  0  0  0  0
   46.1970   32.7070   45.9090 C   0  0  0  0  0  0  0  0  0  0  0  0
   45.8950   31.4240   45.6730 N   0  0  0  0  0  0  0  0  0  0  0  0
   45.9070   29.4310   46.3920 H   0  0  0  0  0  0  0  0  0  0  0  0
   46.9510   30.0300   48.5330 H   0  0  0  0  0  0  0  0  0  0  0  0
   47.5210   32.4450   48.9820 H   0  0  0  0  0  0  0  0  0  0  0  0
  1  2  1  0  0  0  0
  1 26  1  0  0  0  0
  2  7  1  0  0  0  0
  3  8  1  0  0  0  0
  3  2  2  0  0  0  0
  4  3  1  0  0  0  0
  5  4  2  0  0  0  0
  5  6  1  0  0  0  0
  6  1  2  0  0  0  0
  9  5  1  0  0  0  0
 10 15  1  0  0  0  0
 10  9  2  0  0  0  0
 11 10  1  0  0  0  0
 12 11  2  0  0  0  0
 12 13  1  0  0  0  0
 13 14  2  0  0  0  0
 14  9  1  0  0  0  0
 14 19  1  0  0  0  0
 16 11  1  0  0  0  0
 17 12  1  0  0  0  0
 18 13  1  0  0  0  0
 19 20  1  0  0  0  0
 21 20  1  0  0  0  0
 22 23  1  0  0  0  0
 23 24  2  0  0  0  0
 23 29  1  0  0  0  0
 24 30  1  0  0  0  0
 25 24  1  0  0  0  0
 26 25  2  0  0  0  0
 27 26  1  0  0  0  0
 27 22  2  0  0  0  0
 28 22  1  0  0  0  0
M  END
>  <minimizedAffinity>
-6.0538497

>  <minimizedRMSD>
0.930229187

$$$$
