
 OpenBabel03252509123D

 26 28  0  0  0  0  0  0  0  0999 V2000
   46.9010   32.5040   44.4260 C   0  0  0  0  0  0  0  0  0  0  0  0
   47.9450   32.3690   43.5040 C   0  0  0  0  0  0  0  0  0  0  0  0
   48.6890   31.2070   43.3760 C   0  0  0  0  0  0  0  0  0  0  0  0
   48.3960   30.1110   44.1960 C   0  0  0  0  0  0  0  0  0  0  0  0
   48.8790   28.8600   44.3570 N   0  0  0  0  0  0  0  0  0  0  0  0
   48.1960   28.2220   45.3190 C   0  0  0  0  0  0  0  0  0  0  0  0
   47.2710   29.1060   45.7580 N   0  0  0  0  0  0  0  0  0  0  0  0
   47.3700   30.2750   45.0850 C   0  0  0  0  0  0  0  0  0  0  0  0
   46.6090   31.4070   45.2460 C   0  0  0  0  0  0  0  0  0  0  0  0
   46.3670   33.4550   44.4640 H   0  0  0  0  0  0  0  0  0  0  0  0
   49.6770   28.5430   43.7570 H   0  0  0  0  0  0  0  0  0  0  0  0
   48.3720   27.2090   45.6530 H   0  0  0  0  0  0  0  0  0  0  0  0
   45.8000   31.5230   45.9520 H   0  0  0  0  0  0  0  0  0  0  0  0
   49.5760   35.3870   42.2010 C   0  0  0  0  0  0  0  0  0  0  0  0
   48.8890   35.6240   41.0120 C   0  0  0  0  0  0  0  0  0  0  0  0
   47.8730   34.7380   40.6770 C   0  0  0  0  0  0  0  0  0  0  0  0
   47.5800   33.6790   41.5070 N   0  0  0  0  0  0  0  0  0  0  0  0
   48.2750   33.4950   42.6440 C   0  0  0  0  0  0  0  0  0  0  0  0
   49.2730   34.3410   43.0010 N   0  0  0  0  0  0  0  0  0  0  0  0
   50.3890   36.0370   42.5330 H   0  0  0  0  0  0  0  0  0  0  0  0
   49.1590   36.4720   40.3920 H   0  0  0  0  0  0  0  0  0  0  0  0
   47.3490   34.9310   39.7540 H   0  0  0  0  0  0  0  0  0  0  0  0
   50.0110   31.0420   42.1970 S   0  0  0  0  0  0  0  0  0  0  0  0
   49.2750   30.6100   40.6060 C   0  0  0  0  0  2  0  0  0  0  0  0
   49.7800   31.5980   39.5680 C   0  0  0  0  0  2  0  0  0  0  0  0
   49.4060   32.6160   39.8070 H   0  0  0  0  0  0  0  0  0  0  0  0
  1 10  1  0  0  0  0
  1  9  1  0  0  0  0
  2  1  2  0  0  0  0
  3  2  1  0  0  0  0
  3  4  2  0  0  0  0
  4  5  1  0  0  0  0
  4  8  1  0  0  0  0
  5  6  1  0  0  0  0
  6 12  1  0  0  0  0
  6  7  2  0  0  0  0
  8  9  2  0  0  0  0
  8  7  1  0  0  0  0
  9 13  1  0  0  0  0
 11  5  1  0  0  0  0
 14 20  1  0  0  0  0
 14 19  1  0  0  0  0
 15 14  2  0  0  0  0
 16 15  1  0  0  0  0
 16 17  2  0  0  0  0
 17 18  1  0  0  0  0
 18 19  2  0  0  0  0
 18  2  1  0  0  0  0
 21 15  1  0  0  0  0
 22 16  1  0  0  0  0
 23  3  1  0  0  0  0
 24 23  1  0  0  0  0
 25 26  1  0  0  0  0
 25 24  1  0  0  0  0
M  END
>  <minimizedAffinity>
-3.35316277

>  <minimizedRMSD>
4.60183191

$$$$
