
 OpenBabel03252509073D

 35 37  0  0  0  0  0  0  0  0999 V2000
   45.3810   35.3170   43.2200 Cl  0  0  0  0  0  0  0  0  0  0  0  0
   45.2110   34.5590   41.6630 C   0  0  0  0  0  0  0  0  0  0  0  0
   46.2930   34.1630   40.9550 C   0  0  0  0  0  0  0  0  0  0  0  0
   46.0460   33.5670   39.7240 C   0  0  0  0  0  0  0  0  0  0  0  0
   44.7780   33.3820   39.2310 C   0  0  0  0  0  0  0  0  0  0  0  0
   43.7050   33.7910   39.9630 C   0  0  0  0  0  0  0  0  0  0  0  0
   43.9310   34.3840   41.1890 C   0  0  0  0  0  0  0  0  0  0  0  0
   44.6000   32.9190   38.2720 H   0  0  0  0  0  0  0  0  0  0  0  0
   42.6960   33.6570   39.5990 H   0  0  0  0  0  0  0  0  0  0  0  0
   43.0700   34.7030   41.7600 H   0  0  0  0  0  0  0  0  0  0  0  0
   47.6320   31.8330   38.8710 C   0  0  0  0  0  0  0  0  0  0  0  0
   47.1710   33.1140   38.9280 C   0  0  0  0  0  0  0  0  0  0  0  0
   47.8210   34.0670   38.1650 C   0  0  0  0  0  0  0  0  0  0  0  0
   48.8940   33.7330   37.3760 C   0  0  0  0  0  0  0  0  0  0  0  0
   49.3660   32.4300   37.3130 C   0  0  0  0  0  0  0  0  0  0  0  0
   48.7160   31.4680   38.0800 C   0  0  0  0  0  0  0  0  0  0  0  0
   47.4900   35.1000   38.1790 H   0  0  0  0  0  0  0  0  0  0  0  0
   49.3830   34.4940   36.7900 H   0  0  0  0  0  0  0  0  0  0  0  0
   50.1970   32.1820   36.6980 H   0  0  0  0  0  0  0  0  0  0  0  0
   49.0790   30.4470   38.0350 H   0  0  0  0  0  0  0  0  0  0  0  0
   46.8670   30.6020   39.7520 S   0  0  0  0  0  0  0  0  0  0  0  0
   45.5600   30.1580   39.1340 O   0  0  0  0  0  0  0  0  0  0  0  0
   47.7830   29.3600   39.5800 O   0  0  0  0  0  0  0  0  0  0  0  0
   46.5950   30.6050   41.4250 C   0  0  0  0  0  2  0  0  0  0  0  0
   47.8530   29.8920   42.0210 C   0  0  0  0  0  2  0  0  0  0  0  0
   48.7220   30.5780   41.8240 H   0  0  0  0  0  0  0  0  0  0  0  0
   49.5780   35.7520   41.9200 C   0  0  0  0  0  0  0  0  0  0  0  0
   48.3020   35.5650   41.3840 C   0  0  0  0  0  0  0  0  0  0  0  0
   47.6170   34.3690   41.5030 C   0  0  0  0  0  0  0  0  0  0  0  0
   48.2780   33.4010   42.1720 N   0  0  0  0  0  0  0  0  0  0  0  0
   49.5070   33.5680   42.6930 C   0  0  0  0  0  0  0  0  0  0  0  0
   50.1420   34.7340   42.5630 N   0  0  0  0  0  0  0  0  0  0  0  0
   50.0530   36.7120   41.7900 H   0  0  0  0  0  0  0  0  0  0  0  0
   47.8440   36.3890   40.8640 H   0  0  0  0  0  0  0  0  0  0  0  0
   49.9730   32.7450   43.2180 H   0  0  0  0  0  0  0  0  0  0  0  0
  2  1  1  0  0  0  0
  3 29  1  0  0  0  0
  3  2  2  0  0  0  0
  4  3  1  0  0  0  0
  5  4  2  0  0  0  0
  5  6  1  0  0  0  0
  6  7  2  0  0  0  0
  7  2  1  0  0  0  0
  7 10  1  0  0  0  0
  8  5  1  0  0  0  0
  9  6  1  0  0  0  0
 11 12  1  0  0  0  0
 11 21  1  0  0  0  0
 12  4  1  0  0  0  0
 13 17  1  0  0  0  0
 13 12  2  0  0  0  0
 14 13  1  0  0  0  0
 15 14  2  0  0  0  0
 15 16  1  0  0  0  0
 16 11  2  0  0  0  0
 18 14  1  0  0  0  0
 19 15  1  0  0  0  0
 20 16  1  0  0  0  0
 21 24  1  0  0  0  0
 22 21  2  0  0  0  0
 23 21  2  0  0  0  0
 24 25  1  0  0  0  0
 26 25  1  0  0  0  0
 27 32  1  0  0  0  0
 28 29  1  0  0  0  0
 28 27  2  0  0  0  0
 29 30  2  0  0  0  0
 30 31  1  0  0  0  0
 31 35  1  0  0  0  0
 32 31  2  0  0  0  0
 33 27  1  0  0  0  0
 34 28  1  0  0  0  0
M  END
>  <minimizedAffinity>
-4.42106295

>  <minimizedRMSD>
0.845413268

$$$$
