
 OpenBabel03242517573D

 37 38  0  0  0  0  0  0  0  0999 V2000
   41.2350   28.0590   42.6820 C   0  0  0  0  0  0  0  0  0  0  0  0
   40.1280   27.7070   43.4700 C   0  0  0  0  0  0  0  0  0  0  0  0
   38.8830   28.1350   43.1020 C   0  0  0  0  0  0  0  0  0  0  0  0
   38.8050   28.8830   41.9840 N   0  0  0  0  0  0  0  0  0  0  0  0
   39.8550   29.2120   41.2460 C   0  0  0  0  0  0  0  0  0  0  0  0
   41.0720   28.8000   41.5950 N   0  0  0  0  0  0  0  0  0  0  0  0
   42.2000   27.7140   42.9880 H   0  0  0  0  0  0  0  0  0  0  0  0
   40.2970   27.1160   44.3260 H   0  0  0  0  0  0  0  0  0  0  0  0
   37.6510   27.8090   43.8330 C   0  0  0  0  0  0  0  0  0  0  0  0
   37.9120   27.2250   44.7380 H   0  0  0  0  0  0  0  0  0  0  0  0
   37.1880   28.7530   44.1960 H   0  0  0  0  0  0  0  0  0  0  0  0
   36.6420   27.0860   42.9990 C   0  0  0  0  0  0  0  0  0  0  0  0
   35.6750   26.8960   43.4350 H   0  0  0  0  0  0  0  0  0  0  0  0
   36.4230   27.8080   42.1510 H   0  0  0  0  0  0  0  0  0  0  0  0
   37.1690   25.8990   42.3220 C   0  0  0  0  0  3  0  0  0  0  0  0
   36.8060   24.6880   41.9210 C   0  0  0  0  0  3  0  0  0  0  0  0
   37.7090   23.6320   41.3040 C   0  0  0  0  0  0  0  0  0  0  0  0
   37.4520   22.6830   41.7820 H   0  0  0  0  0  0  0  0  0  0  0  0
   37.4830   23.6430   40.2120 H   0  0  0  0  0  0  0  0  0  0  0  0
   38.7650   23.9420   41.4110 H   0  0  0  0  0  0  0  0  0  0  0  0
   39.7720   29.9750   40.1100 O   0  0  0  0  0  0  0  0  0  0  0  0
   37.8260   31.1290   39.1350 C   0  0  0  0  0  0  0  0  0  0  0  0
   38.9360   31.0700   39.9060 C   0  0  0  0  0  0  0  0  0  0  0  0
   39.3260   32.2040   40.5960 C   0  0  0  0  0  0  0  0  0  0  0  0
   38.6350   33.3890   40.5330 C   0  0  0  0  0  0  0  0  0  0  0  0
   37.5070   33.4450   39.7490 C   0  0  0  0  0  0  0  0  0  0  0  0
   37.1090   32.3130   39.0540 C   0  0  0  0  0  0  0  0  0  0  0  0
   40.2020   32.2370   41.2350 H   0  0  0  0  0  0  0  0  0  0  0  0
   38.9210   34.2780   41.0600 H   0  0  0  0  0  0  0  0  0  0  0  0
   36.8900   34.3300   39.6290 H   0  0  0  0  0  0  0  0  0  0  0  0
   36.2300   32.2700   38.4110 H   0  0  0  0  0  0  0  0  0  0  0  0
   37.4440   29.7030   38.2240 S   0  0  0  0  0  0  0  0  0  0  0  0
   38.4910   29.3040   37.2600 O   0  0  0  0  0  0  0  0  0  0  0  0
   36.2330   30.0900   37.3460 O   0  0  0  0  0  0  0  0  0  0  0  0
   36.7440   28.3910   39.1900 C   0  0  0  0  0  2  0  0  0  0  0  0
   35.6230   29.0380   40.0280 C   0  0  0  0  0  2  0  0  0  0  0  0
   35.7400   30.1310   40.0810 H   0  0  0  0  0  0  0  0  0  0  0  0
  1  7  1  0  0  0  0
  1  2  1  0  0  0  0
  2  8  1  0  0  0  0
  3  2  2  0  0  0  0
  3  9  1  0  0  0  0
  4  3  1  0  0  0  0
  5  6  1  0  0  0  0
  5  4  2  0  0  0  0
  6  1  2  0  0  0  0
  9 11  1  0  0  0  0
  9 10  1  0  0  0  0
 12 13  1  0  0  0  0
 12  9  1  0  0  0  0
 14 12  1  0  0  0  0
 15 12  1  0  0  0  0
 16 15  2  0  0  0  0
 17 20  1  0  0  0  0
 17 18  1  0  0  0  0
 17 16  1  0  0  0  0
 19 17  1  0  0  0  0
 21  5  1  0  0  0  0
 22 23  1  0  0  0  0
 23 21  1  0  0  0  0
 23 24  2  0  0  0  0
 24 28  1  0  0  0  0
 25 24  1  0  0  0  0
 25 29  1  0  0  0  0
 26 25  2  0  0  0  0
 27 22  2  0  0  0  0
 27 26  1  0  0  0  0
 30 26  1  0  0  0  0
 31 27  1  0  0  0  0
 32 22  1  0  0  0  0
 32 35  1  0  0  0  0
 33 32  2  0  0  0  0
 34 32  2  0  0  0  0
 35 36  1  0  0  0  0
 36 37  1  0  0  0  0
M  END
>  <minimizedAffinity>
-5.1371541

$$$$

 OpenBabel03242517573D

 37 38  0  0  0  0  0  0  0  0999 V2000
   33.8750   29.1560   39.0120 C   0  0  0  0  0  0  0  0  0  0  0  0
   33.7410   28.9120   37.6360 C   0  0  0  0  0  0  0  0  0  0  0  0
   34.8080   28.4170   36.9390 C   0  0  0  0  0  0  0  0  0  0  0  0
   35.9380   28.1960   37.6370 N   0  0  0  0  0  0  0  0  0  0  0  0
   36.0570   28.4280   38.9360 C   0  0  0  0  0  0  0  0  0  0  0  0
   35.0240   28.9090   39.6250 N   0  0  0  0  0  0  0  0  0  0  0  0
   33.0290   29.5430   39.5390 H   0  0  0  0  0  0  0  0  0  0  0  0
   32.8120   29.1190   37.1840 H   0  0  0  0  0  0  0  0  0  0  0  0
   34.7780   28.1020   35.5050 C   0  0  0  0  0  0  0  0  0  0  0  0
   34.2250   27.1520   35.3550 H   0  0  0  0  0  0  0  0  0  0  0  0
   34.1950   28.8860   34.9750 H   0  0  0  0  0  0  0  0  0  0  0  0
   36.1380   28.0340   34.8850 C   0  0  0  0  0  0  0  0  0  0  0  0
   36.9690   27.7930   35.5260 H   0  0  0  0  0  0  0  0  0  0  0  0
   36.0700   27.1480   34.1790 H   0  0  0  0  0  0  0  0  0  0  0  0
   36.4470   29.1620   34.0040 C   0  0  0  0  0  3  0  0  0  0  0  0
   36.1350   30.4360   33.8010 C   0  0  0  0  0  3  0  0  0  0  0  0
   36.6120   31.3120   32.6540 C   0  0  0  0  0  0  0  0  0  0  0  0
   35.7390   31.8660   32.3010 H   0  0  0  0  0  0  0  0  0  0  0  0
   37.4000   31.9720   33.0870 H   0  0  0  0  0  0  0  0  0  0  0  0
   37.1090   30.6830   31.8930 H   0  0  0  0  0  0  0  0  0  0  0  0
   37.2100   28.2020   39.6430 O   0  0  0  0  0  0  0  0  0  0  0  0
   37.8370   29.2810   41.7660 C   0  0  0  0  0  0  0  0  0  0  0  0
   37.3570   28.2560   41.0270 C   0  0  0  0  0  0  0  0  0  0  0  0
   36.9490   27.1040   41.6740 C   0  0  0  0  0  0  0  0  0  0  0  0
   37.0100   26.9540   43.0380 C   0  0  0  0  0  0  0  0  0  0  0  0
   37.4980   27.9990   43.7870 C   0  0  0  0  0  0  0  0  0  0  0  0
   37.9090   29.1570   43.1450 C   0  0  0  0  0  0  0  0  0  0  0  0
   36.5530   26.2390   41.1530 H   0  0  0  0  0  0  0  0  0  0  0  0
   36.6990   26.0700   43.5580 H   0  0  0  0  0  0  0  0  0  0  0  0
   37.5890   27.9850   44.8690 H   0  0  0  0  0  0  0  0  0  0  0  0
   38.3080   30.0310   43.6610 H   0  0  0  0  0  0  0  0  0  0  0  0
   38.4180   30.6590   40.8880 S   0  0  0  0  0  0  0  0  0  0  0  0
   39.3810   30.3300   39.8150 O   0  0  0  0  0  0  0  0  0  0  0  0
   39.2380   31.4800   41.9080 O   0  0  0  0  0  0  0  0  0  0  0  0
   37.1580   31.8310   40.4610 C   0  0  0  0  0  2  0  0  0  0  0  0
   37.1940   31.9440   38.9230 C   0  0  0  0  0  2  0  0  0  0  0  0
   38.1420   31.5640   38.5130 H   0  0  0  0  0  0  0  0  0  0  0  0
  1  7  1  0  0  0  0
  1  6  1  0  0  0  0
  2  1  2  0  0  0  0
  3  2  1  0  0  0  0
  3  4  2  0  0  0  0
  4  5  1  0  0  0  0
  5  6  2  0  0  0  0
  5 21  1  0  0  0  0
  8  2  1  0  0  0  0
  9  3  1  0  0  0  0
 10  9  1  0  0  0  0
 11  9  1  0  0  0  0
 12  9  1  0  0  0  0
 12 13  1  0  0  0  0
 14 12  1  0  0  0  0
 15 12  1  0  0  0  0
 16 15  2  0  0  0  0
 17 19  1  0  0  0  0
 17 16  1  0  0  0  0
 18 17  1  0  0  0  0
 20 17  1  0  0  0  0
 21 23  1  0  0  0  0
 22 27  1  0  0  0  0
 23 24  1  0  0  0  0
 23 22  2  0  0  0  0
 24 25  2  0  0  0  0
 25 29  1  0  0  0  0
 25 26  1  0  0  0  0
 26 30  1  0  0  0  0
 27 31  1  0  0  0  0
 27 26  2  0  0  0  0
 28 24  1  0  0  0  0
 32 22  1  0  0  0  0
 32 34  2  0  0  0  0
 33 32  2  0  0  0  0
 35 32  1  0  0  0  0
 36 35  1  0  0  0  0
 37 36  1  0  0  0  0
M  END
>  <minimizedAffinity>
-5.02718019

$$$$

 OpenBabel03242517573D

 37 38  0  0  0  0  0  0  0  0999 V2000
   35.7510   27.1440   38.1790 C   0  0  0  0  0  0  0  0  0  0  0  0
   34.5650   27.5750   37.5650 C   0  0  0  0  0  0  0  0  0  0  0  0
   33.8840   28.6340   38.0970 C   0  0  0  0  0  0  0  0  0  0  0  0
   34.4120   29.2010   39.1990 N   0  0  0  0  0  0  0  0  0  0  0  0
   35.5330   28.7890   39.7730 C   0  0  0  0  0  0  0  0  0  0  0  0
   36.2040   27.7580   39.2620 N   0  0  0  0  0  0  0  0  0  0  0  0
   36.2680   26.3140   37.7460 H   0  0  0  0  0  0  0  0  0  0  0  0
   34.2370   27.0610   36.7040 H   0  0  0  0  0  0  0  0  0  0  0  0
   32.6480   29.1860   37.5290 C   0  0  0  0  0  0  0  0  0  0  0  0
   31.7790   28.6580   37.9710 H   0  0  0  0  0  0  0  0  0  0  0  0
   32.5530   30.2500   37.8390 H   0  0  0  0  0  0  0  0  0  0  0  0
   32.6060   29.1300   36.0350 C   0  0  0  0  0  0  0  0  0  0  0  0
   33.5320   28.9580   35.5140 H   0  0  0  0  0  0  0  0  0  0  0  0
   31.9910   28.2020   35.8150 H   0  0  0  0  0  0  0  0  0  0  0  0
   31.8360   30.2140   35.4200 C   0  0  0  0  0  3  0  0  0  0  0  0
   31.8470   31.0270   34.3710 C   0  0  0  0  0  3  0  0  0  0  0  0
   30.8760   32.1650   34.1000 C   0  0  0  0  0  0  0  0  0  0  0  0
   31.4750   33.0140   33.7630 H   0  0  0  0  0  0  0  0  0  0  0  0
   30.1800   31.7850   33.3150 H   0  0  0  0  0  0  0  0  0  0  0  0
   30.2640   32.3490   35.0020 H   0  0  0  0  0  0  0  0  0  0  0  0
   36.0660   29.3690   40.8950 O   0  0  0  0  0  0  0  0  0  0  0  0
   38.2480   30.3060   41.5470 C   0  0  0  0  0  0  0  0  0  0  0  0
   37.0450   30.3580   40.9310 C   0  0  0  0  0  0  0  0  0  0  0  0
   36.7020   31.5060   40.2400 C   0  0  0  0  0  0  0  0  0  0  0  0
   37.5300   32.5980   40.1510 C   0  0  0  0  0  0  0  0  0  0  0  0
   38.7530   32.5420   40.7780 C   0  0  0  0  0  0  0  0  0  0  0  0
   39.1040   31.3940   41.4730 C   0  0  0  0  0  0  0  0  0  0  0  0
   35.7580   31.6250   39.7190 H   0  0  0  0  0  0  0  0  0  0  0  0
   37.2820   33.4960   39.6200 H   0  0  0  0  0  0  0  0  0  0  0  0
   39.4800   33.3470   40.7710 H   0  0  0  0  0  0  0  0  0  0  0  0
   40.0510   31.2660   41.9980 H   0  0  0  0  0  0  0  0  0  0  0  0
   38.5790   28.8780   42.4730 S   0  0  0  0  0  0  0  0  0  0  0  0
   39.9560   28.8090   43.0070 O   0  0  0  0  0  0  0  0  0  0  0  0
   38.4920   27.7070   41.4680 O   0  0  0  0  0  0  0  0  0  0  0  0
   37.2890   28.4320   43.6060 C   0  0  0  0  0  2  0  0  0  0  0  0
   36.8290   27.0220   43.1850 C   0  0  0  0  0  2  0  0  0  0  0  0
   37.1430   26.7860   42.1570 H   0  0  0  0  0  0  0  0  0  0  0  0
  1  6  1  0  0  0  0
  2  3  1  0  0  0  0
  2  1  2  0  0  0  0
  3  4  2  0  0  0  0
  4  5  1  0  0  0  0
  5 21  1  0  0  0  0
  6  5  2  0  0  0  0
  7  1  1  0  0  0  0
  8  2  1  0  0  0  0
  9 11  1  0  0  0  0
  9 10  1  0  0  0  0
  9  3  1  0  0  0  0
 12  9  1  0  0  0  0
 13 12  1  0  0  0  0
 14 12  1  0  0  0  0
 15 12  1  0  0  0  0
 16 15  2  0  0  0  0
 17 16  1  0  0  0  0
 17 20  1  0  0  0  0
 18 17  1  0  0  0  0
 19 17  1  0  0  0  0
 21 23  1  0  0  0  0
 22 32  1  0  0  0  0
 23 22  2  0  0  0  0
 24 23  1  0  0  0  0
 25 24  2  0  0  0  0
 25 26  1  0  0  0  0
 26 27  2  0  0  0  0
 27 22  1  0  0  0  0
 27 31  1  0  0  0  0
 28 24  1  0  0  0  0
 29 25  1  0  0  0  0
 30 26  1  0  0  0  0
 32 33  2  0  0  0  0
 32 35  1  0  0  0  0
 34 32  2  0  0  0  0
 36 35  1  0  0  0  0
 37 36  1  0  0  0  0
M  END
>  <minimizedAffinity>
-4.99159861

$$$$

 OpenBabel03242517573D

 37 38  0  0  0  0  0  0  0  0999 V2000
   36.9600   31.1920   38.7370 C   0  0  0  0  0  0  0  0  0  0  0  0
   37.3440   32.5420   38.7870 C   0  0  0  0  0  0  0  0  0  0  0  0
   37.8780   33.0410   39.9420 C   0  0  0  0  0  0  0  0  0  0  0  0
   38.0000   32.1830   40.9740 N   0  0  0  0  0  0  0  0  0  0  0  0
   37.6360   30.9110   40.9190 C   0  0  0  0  0  0  0  0  0  0  0  0
   37.1150   30.4140   39.7990 N   0  0  0  0  0  0  0  0  0  0  0  0
   36.5440   30.8210   37.8240 H   0  0  0  0  0  0  0  0  0  0  0  0
   37.2060   33.1290   37.9220 H   0  0  0  0  0  0  0  0  0  0  0  0
   38.3370   34.4270   40.1040 C   0  0  0  0  0  0  0  0  0  0  0  0
   38.1260   34.9890   39.1720 H   0  0  0  0  0  0  0  0  0  0  0  0
   37.7350   34.9140   40.9020 H   0  0  0  0  0  0  0  0  0  0  0  0
   39.7810   34.5320   40.4800 C   0  0  0  0  0  0  0  0  0  0  0  0
   40.1150   35.4510   40.9310 H   0  0  0  0  0  0  0  0  0  0  0  0
   39.9040   33.7620   41.3040 H   0  0  0  0  0  0  0  0  0  0  0  0
   40.7020   34.0790   39.4360 C   0  0  0  0  0  3  0  0  0  0  0  0
   41.6280   34.5350   38.6010 C   0  0  0  0  0  3  0  0  0  0  0  0
   42.3450   33.7360   37.5240 C   0  0  0  0  0  0  0  0  0  0  0  0
   42.3650   34.3650   36.6310 H   0  0  0  0  0  0  0  0  0  0  0  0
   43.3620   33.5270   37.9310 H   0  0  0  0  0  0  0  0  0  0  0  0
   41.8470   32.7570   37.4000 H   0  0  0  0  0  0  0  0  0  0  0  0
   37.7610   30.0420   41.9720 O   0  0  0  0  0  0  0  0  0  0  0  0
   38.9740   27.9620   42.4880 C   0  0  0  0  0  0  0  0  0  0  0  0
   38.8910   29.2990   42.3030 C   0  0  0  0  0  0  0  0  0  0  0  0
   40.0360   30.0610   42.4460 C   0  0  0  0  0  0  0  0  0  0  0  0
   41.2570   29.5200   42.7680 C   0  0  0  0  0  0  0  0  0  0  0  0
   41.3380   28.1600   42.9540 C   0  0  0  0  0  0  0  0  0  0  0  0
   40.1950   27.3880   42.8120 C   0  0  0  0  0  0  0  0  0  0  0  0
   40.0520   31.1380   42.3130 H   0  0  0  0  0  0  0  0  0  0  0  0
   42.1550   30.0940   42.8830 H   0  0  0  0  0  0  0  0  0  0  0  0
   42.2510   27.6320   43.2110 H   0  0  0  0  0  0  0  0  0  0  0  0
   40.1700   26.3060   42.9430 H   0  0  0  0  0  0  0  0  0  0  0  0
   37.4870   27.0750   42.3860 S   0  0  0  0  0  0  0  0  0  0  0  0
   36.5050   27.4200   43.4360 O   0  0  0  0  0  0  0  0  0  0  0  0
   37.8650   25.6050   42.6750 O   0  0  0  0  0  0  0  0  0  0  0  0
   36.8390   26.9310   40.7420 C   0  0  0  0  0  2  0  0  0  0  0  0
   38.0590   26.6860   39.8300 C   0  0  0  0  0  2  0  0  0  0  0  0
   38.9970   26.9790   40.3250 H   0  0  0  0  0  0  0  0  0  0  0  0
  1  2  2  0  0  0  0
  1  6  1  0  0  0  0
  2  3  1  0  0  0  0
  3  9  1  0  0  0  0
  3  4  2  0  0  0  0
  5  4  1  0  0  0  0
  5 21  1  0  0  0  0
  6  5  2  0  0  0  0
  7  1  1  0  0  0  0
  8  2  1  0  0  0  0
  9 12  1  0  0  0  0
  9 11  1  0  0  0  0
 10  9  1  0  0  0  0
 12 13  1  0  0  0  0
 12 14  1  0  0  0  0
 15 12  1  0  0  0  0
 16 15  2  0  0  0  0
 17 19  1  0  0  0  0
 17 16  1  0  0  0  0
 18 17  1  0  0  0  0
 20 17  1  0  0  0  0
 21 23  1  0  0  0  0
 22 27  1  0  0  0  0
 23 24  1  0  0  0  0
 23 22  2  0  0  0  0
 24 25  2  0  0  0  0
 25 29  1  0  0  0  0
 25 26  1  0  0  0  0
 26 30  1  0  0  0  0
 27 31  1  0  0  0  0
 27 26  2  0  0  0  0
 28 24  1  0  0  0  0
 32 22  1  0  0  0  0
 32 34  2  0  0  0  0
 32 33  2  0  0  0  0
 35 32  1  0  0  0  0
 36 37  1  0  0  0  0
 36 35  1  0  0  0  0
M  END
>  <minimizedAffinity>
-4.98673344

$$$$

 OpenBabel03242517573D

 37 38  0  0  0  0  0  0  0  0999 V2000
   39.8820   31.4060   41.9530 C   0  0  0  0  0  0  0  0  0  0  0  0
   38.8400   31.7230   41.0670 C   0  0  0  0  0  0  0  0  0  0  0  0
   37.7620   30.8870   40.9780 C   0  0  0  0  0  0  0  0  0  0  0  0
   37.7770   29.7940   41.7640 N   0  0  0  0  0  0  0  0  0  0  0  0
   38.7640   29.5010   42.5980 C   0  0  0  0  0  0  0  0  0  0  0  0
   39.8180   30.3090   42.6930 N   0  0  0  0  0  0  0  0  0  0  0  0
   40.7160   32.0730   42.0070 H   0  0  0  0  0  0  0  0  0  0  0  0
   38.9260   32.6050   40.4960 H   0  0  0  0  0  0  0  0  0  0  0  0
   36.6050   31.1280   40.1060 C   0  0  0  0  0  0  0  0  0  0  0  0
   36.0100   31.9680   40.5180 H   0  0  0  0  0  0  0  0  0  0  0  0
   36.9680   31.4640   39.1100 H   0  0  0  0  0  0  0  0  0  0  0  0
   35.7530   29.9150   39.9050 C   0  0  0  0  0  0  0  0  0  0  0  0
   36.0240   29.0190   40.4380 H   0  0  0  0  0  0  0  0  0  0  0  0
   34.7530   30.2090   40.3540 H   0  0  0  0  0  0  0  0  0  0  0  0
   35.4400   29.6320   38.5030 C   0  0  0  0  0  3  0  0  0  0  0  0
   34.7370   28.8000   37.7450 C   0  0  0  0  0  3  0  0  0  0  0  0
   34.7350   28.7450   36.2260 C   0  0  0  0  0  0  0  0  0  0  0  0
   34.7860   27.6880   35.9520 H   0  0  0  0  0  0  0  0  0  0  0  0
   33.7820   29.2300   35.9080 H   0  0  0  0  0  0  0  0  0  0  0  0
   35.5550   29.3730   35.8340 H   0  0  0  0  0  0  0  0  0  0  0  0
   38.7750   28.3860   43.3960 O   0  0  0  0  0  0  0  0  0  0  0  0
   39.1800   26.1010   42.5720 C   0  0  0  0  0  0  0  0  0  0  0  0
   39.5420   27.2390   43.2060 C   0  0  0  0  0  0  0  0  0  0  0  0
   40.8130   27.3240   43.7440 C   0  0  0  0  0  0  0  0  0  0  0  0
   41.7270   26.3030   43.6630 C   0  0  0  0  0  0  0  0  0  0  0  0
   41.3560   25.1470   43.0170 C   0  0  0  0  0  0  0  0  0  0  0  0
   40.0830   25.0540   42.4740 C   0  0  0  0  0  0  0  0  0  0  0  0
   41.1780   28.2020   44.2660 H   0  0  0  0  0  0  0  0  0  0  0  0
   42.7160   26.3490   44.0740 H   0  0  0  0  0  0  0  0  0  0  0  0
   41.9990   24.2810   42.8970 H   0  0  0  0  0  0  0  0  0  0  0  0
   39.7090   24.1760   41.9470 H   0  0  0  0  0  0  0  0  0  0  0  0
   37.5440   26.0230   42.0020 S   0  0  0  0  0  0  0  0  0  0  0  0
   37.2830   26.8430   40.8000 O   0  0  0  0  0  0  0  0  0  0  0  0
   36.6900   26.6760   43.1120 O   0  0  0  0  0  0  0  0  0  0  0  0
   36.8600   24.3870   41.9820 C   0  0  0  0  0  2  0  0  0  0  0  0
   36.4600   24.1170   40.5170 C   0  0  0  0  0  2  0  0  0  0  0  0
   36.3820   25.0520   39.9410 H   0  0  0  0  0  0  0  0  0  0  0  0
  1  7  1  0  0  0  0
  1  6  1  0  0  0  0
  2  1  2  0  0  0  0
  3  2  1  0  0  0  0
  3  4  2  0  0  0  0
  4  5  1  0  0  0  0
  5  6  2  0  0  0  0
  5 21  1  0  0  0  0
  8  2  1  0  0  0  0
  9 10  1  0  0  0  0
  9  3  1  0  0  0  0
 11  9  1  0  0  0  0
 12  9  1  0  0  0  0
 12 14  1  0  0  0  0
 12 13  1  0  0  0  0
 15 12  1  0  0  0  0
 16 15  2  0  0  0  0
 17 16  1  0  0  0  0
 18 17  1  0  0  0  0
 19 17  1  0  0  0  0
 20 17  1  0  0  0  0
 22 23  1  0  0  0  0
 23 21  1  0  0  0  0
 23 24  2  0  0  0  0
 24 28  1  0  0  0  0
 25 24  1  0  0  0  0
 25 29  1  0  0  0  0
 26 25  2  0  0  0  0
 27 22  2  0  0  0  0
 27 26  1  0  0  0  0
 30 26  1  0  0  0  0
 31 27  1  0  0  0  0
 32 22  1  0  0  0  0
 32 34  2  0  0  0  0
 33 32  2  0  0  0  0
 35 32  1  0  0  0  0
 36 35  1  0  0  0  0
 37 36  1  0  0  0  0
M  END
>  <minimizedAffinity>
-4.96162558

$$$$

 OpenBabel03242517573D

 37 38  0  0  0  0  0  0  0  0999 V2000
   36.0660   26.7350   37.9910 C   0  0  0  0  0  0  0  0  0  0  0  0
   34.9420   26.8440   37.1580 C   0  0  0  0  0  0  0  0  0  0  0  0
   34.0080   27.8080   37.4200 C   0  0  0  0  0  0  0  0  0  0  0  0
   34.2380   28.6010   38.4840 N   0  0  0  0  0  0  0  0  0  0  0  0
   35.3020   28.4920   39.2660 C   0  0  0  0  0  0  0  0  0  0  0  0
   36.2180   27.5570   39.0190 N   0  0  0  0  0  0  0  0  0  0  0  0
   36.7850   25.9740   37.7690 H   0  0  0  0  0  0  0  0  0  0  0  0
   34.8570   26.1730   36.3490 H   0  0  0  0  0  0  0  0  0  0  0  0
   32.8060   28.0320   36.6050 C   0  0  0  0  0  0  0  0  0  0  0  0
   32.7510   27.2510   35.8200 H   0  0  0  0  0  0  0  0  0  0  0  0
   31.9080   27.8920   37.2440 H   0  0  0  0  0  0  0  0  0  0  0  0
   32.7440   29.4010   36.0070 C   0  0  0  0  0  0  0  0  0  0  0  0
   33.6610   29.9630   35.9430 H   0  0  0  0  0  0  0  0  0  0  0  0
   32.4640   29.2110   34.9230 H   0  0  0  0  0  0  0  0  0  0  0  0
   31.6430   30.2230   36.5140 C   0  0  0  0  0  3  0  0  0  0  0  0
   30.8380   31.2140   36.1530 C   0  0  0  0  0  3  0  0  0  0  0  0
   29.8220   31.9200   37.0370 C   0  0  0  0  0  0  0  0  0  0  0  0
   29.9230   32.9890   36.8360 H   0  0  0  0  0  0  0  0  0  0  0  0
   28.8270   31.5130   36.7350 H   0  0  0  0  0  0  0  0  0  0  0  0
   29.9790   31.6210   38.0890 H   0  0  0  0  0  0  0  0  0  0  0  0
   35.5320   29.3000   40.3490 O   0  0  0  0  0  0  0  0  0  0  0  0
   37.5730   29.8360   41.6180 C   0  0  0  0  0  0  0  0  0  0  0  0
   36.4750   29.0930   41.3520 C   0  0  0  0  0  0  0  0  0  0  0  0
   36.2110   27.9900   42.1440 C   0  0  0  0  0  0  0  0  0  0  0  0
   37.0170   27.6130   43.1900 C   0  0  0  0  0  0  0  0  0  0  0  0
   38.1340   28.3710   43.4580 C   0  0  0  0  0  0  0  0  0  0  0  0
   38.4040   29.4790   42.6690 C   0  0  0  0  0  0  0  0  0  0  0  0
   35.3510   27.3460   41.9960 H   0  0  0  0  0  0  0  0  0  0  0  0
   36.8300   26.7630   43.8150 H   0  0  0  0  0  0  0  0  0  0  0  0
   38.8360   28.1620   44.2590 H   0  0  0  0  0  0  0  0  0  0  0  0
   39.2660   30.1330   42.8120 H   0  0  0  0  0  0  0  0  0  0  0  0
   37.8970   31.1490   40.5330 S   0  0  0  0  0  0  0  0  0  0  0  0
   36.6970   31.9180   40.1400 O   0  0  0  0  0  0  0  0  0  0  0  0
   38.3820   30.4890   39.2220 O   0  0  0  0  0  0  0  0  0  0  0  0
   39.3240   32.1110   40.9630 C   0  0  0  0  0  2  0  0  0  0  0  0
   38.9070   33.5840   40.7790 C   0  0  0  0  0  2  0  0  0  0  0  0
   38.0100   33.6740   40.1470 H   0  0  0  0  0  0  0  0  0  0  0  0
  1  6  1  0  0  0  0
  2  3  1  0  0  0  0
  2  1  2  0  0  0  0
  3  4  2  0  0  0  0
  4  5  1  0  0  0  0
  5 21  1  0  0  0  0
  6  5  2  0  0  0  0
  7  1  1  0  0  0  0
  8  2  1  0  0  0  0
  9 11  1  0  0  0  0
  9  3  1  0  0  0  0
 10  9  1  0  0  0  0
 12 15  1  0  0  0  0
 12  9  1  0  0  0  0
 13 12  1  0  0  0  0
 14 12  1  0  0  0  0
 16 15  2  0  0  0  0
 16 17  1  0  0  0  0
 17 20  1  0  0  0  0
 18 17  1  0  0  0  0
 19 17  1  0  0  0  0
 21 23  1  0  0  0  0
 22 27  1  0  0  0  0
 23 22  2  0  0  0  0
 23 24  1  0  0  0  0
 24 25  2  0  0  0  0
 25 26  1  0  0  0  0
 25 29  1  0  0  0  0
 26 30  1  0  0  0  0
 27 31  1  0  0  0  0
 27 26  2  0  0  0  0
 28 24  1  0  0  0  0
 32 35  1  0  0  0  0
 32 22  1  0  0  0  0
 33 32  2  0  0  0  0
 34 32  2  0  0  0  0
 36 35  1  0  0  0  0
 37 36  1  0  0  0  0
M  END
>  <minimizedAffinity>
-4.95576715

$$$$

 OpenBabel03242517573D

 37 38  0  0  0  0  0  0  0  0999 V2000
   35.4690   26.0060   37.4320 C   0  0  0  0  0  0  0  0  0  0  0  0
   34.4070   26.9170   37.3150 C   0  0  0  0  0  0  0  0  0  0  0  0
   34.4360   28.0730   38.0430 C   0  0  0  0  0  0  0  0  0  0  0  0
   35.5050   28.2610   38.8400 N   0  0  0  0  0  0  0  0  0  0  0  0
   36.5040   27.3970   38.9450 C   0  0  0  0  0  0  0  0  0  0  0  0
   36.4860   26.2680   38.2400 N   0  0  0  0  0  0  0  0  0  0  0  0
   35.4270   25.1080   36.8540 H   0  0  0  0  0  0  0  0  0  0  0  0
   33.6160   26.6740   36.6610 H   0  0  0  0  0  0  0  0  0  0  0  0
   33.3950   29.1080   37.9840 C   0  0  0  0  0  0  0  0  0  0  0  0
   32.7770   29.0510   38.9030 H   0  0  0  0  0  0  0  0  0  0  0  0
   33.8810   30.1080   38.0000 H   0  0  0  0  0  0  0  0  0  0  0  0
   32.5440   29.0230   36.7580 C   0  0  0  0  0  0  0  0  0  0  0  0
   33.0380   28.8670   35.8140 H   0  0  0  0  0  0  0  0  0  0  0  0
   31.9420   28.0720   36.9110 H   0  0  0  0  0  0  0  0  0  0  0  0
   31.5250   30.0710   36.6660 C   0  0  0  0  0  3  0  0  0  0  0  0
   31.1440   31.0810   35.8940 C   0  0  0  0  0  3  0  0  0  0  0  0
   30.0320   32.0740   36.1890 C   0  0  0  0  0  0  0  0  0  0  0  0
   30.4180   33.0620   35.9300 H   0  0  0  0  0  0  0  0  0  0  0  0
   29.1720   31.7630   35.5490 H   0  0  0  0  0  0  0  0  0  0  0  0
   29.7030   31.9570   37.2380 H   0  0  0  0  0  0  0  0  0  0  0  0
   37.5900   27.5920   39.7590 O   0  0  0  0  0  0  0  0  0  0  0  0
   38.0830   29.0120   41.7100 C   0  0  0  0  0  0  0  0  0  0  0  0
   37.5640   27.9150   41.1130 C   0  0  0  0  0  0  0  0  0  0  0  0
   36.9180   26.9760   41.8970 C   0  0  0  0  0  0  0  0  0  0  0  0
   36.7800   27.1080   43.2570 C   0  0  0  0  0  0  0  0  0  0  0  0
   37.3090   28.2240   43.8610 C   0  0  0  0  0  0  0  0  0  0  0  0
   37.9580   29.1710   43.0820 C   0  0  0  0  0  0  0  0  0  0  0  0
   36.4740   26.0720   41.4940 H   0  0  0  0  0  0  0  0  0  0  0  0
   36.2830   26.3920   43.8810 H   0  0  0  0  0  0  0  0  0  0  0  0
   37.2570   28.4260   44.9260 H   0  0  0  0  0  0  0  0  0  0  0  0
   38.4050   30.0830   43.4780 H   0  0  0  0  0  0  0  0  0  0  0  0
   38.9610   30.1030   40.6870 S   0  0  0  0  0  0  0  0  0  0  0  0
   40.1940   29.5300   40.1080 O   0  0  0  0  0  0  0  0  0  0  0  0
   39.4560   31.2320   41.6190 O   0  0  0  0  0  0  0  0  0  0  0  0
   37.9420   31.0270   39.5680 C   0  0  0  0  0  2  0  0  0  0  0  0
   36.6610   31.3720   40.3540 C   0  0  0  0  0  2  0  0  0  0  0  0
   36.5420   30.7240   41.2360 H   0  0  0  0  0  0  0  0  0  0  0  0
  1  6  1  0  0  0  0
  2  1  2  0  0  0  0
  2  3  1  0  0  0  0
  3  4  2  0  0  0  0
  4  5  1  0  0  0  0
  5 21  1  0  0  0  0
  6  5  2  0  0  0  0
  7  1  1  0  0  0  0
  8  2  1  0  0  0  0
  9 11  1  0  0  0  0
  9  3  1  0  0  0  0
  9 10  1  0  0  0  0
 12 14  1  0  0  0  0
 12  9  1  0  0  0  0
 13 12  1  0  0  0  0
 15 12  1  0  0  0  0
 16 17  1  0  0  0  0
 16 15  2  0  0  0  0
 17 20  1  0  0  0  0
 18 17  1  0  0  0  0
 19 17  1  0  0  0  0
 21 23  1  0  0  0  0
 22 27  1  0  0  0  0
 23 22  2  0  0  0  0
 23 24  1  0  0  0  0
 24 25  2  0  0  0  0
 25 26  1  0  0  0  0
 25 29  1  0  0  0  0
 26 30  1  0  0  0  0
 27 31  1  0  0  0  0
 27 26  2  0  0  0  0
 28 24  1  0  0  0  0
 32 34  2  0  0  0  0
 32 22  1  0  0  0  0
 33 32  2  0  0  0  0
 35 36  1  0  0  0  0
 35 32  1  0  0  0  0
 36 37  1  0  0  0  0
M  END
>  <minimizedAffinity>
-4.93633413

$$$$

 OpenBabel03242517573D

 37 38  0  0  0  0  0  0  0  0999 V2000
   38.4780   28.6630   43.3040 C   0  0  0  0  0  0  0  0  0  0  0  0
   38.2670   27.2760   43.3110 C   0  0  0  0  0  0  0  0  0  0  0  0
   37.2940   26.7440   42.5110 C   0  0  0  0  0  0  0  0  0  0  0  0
   36.5910   27.6100   41.7560 N   0  0  0  0  0  0  0  0  0  0  0  0
   36.7960   28.9190   41.7540 C   0  0  0  0  0  0  0  0  0  0  0  0
   37.7420   29.4470   42.5290 N   0  0  0  0  0  0  0  0  0  0  0  0
   39.2440   29.0580   43.9370 H   0  0  0  0  0  0  0  0  0  0  0  0
   38.8730   26.6850   43.9390 H   0  0  0  0  0  0  0  0  0  0  0  0
   36.9990   25.3080   42.4180 C   0  0  0  0  0  0  0  0  0  0  0  0
   37.3540   24.8060   43.3400 H   0  0  0  0  0  0  0  0  0  0  0  0
   35.8960   25.1690   42.3940 H   0  0  0  0  0  0  0  0  0  0  0  0
   37.5770   24.6630   41.1990 C   0  0  0  0  0  0  0  0  0  0  0  0
   38.6120   24.8570   40.9720 H   0  0  0  0  0  0  0  0  0  0  0  0
   37.5520   23.5550   41.4410 H   0  0  0  0  0  0  0  0  0  0  0  0
   36.7340   24.7810   40.0060 C   0  0  0  0  0  3  0  0  0  0  0  0
   36.5370   25.5570   38.9490 C   0  0  0  0  0  3  0  0  0  0  0  0
   35.4340   25.4100   37.9130 C   0  0  0  0  0  0  0  0  0  0  0  0
   35.0430   26.4140   37.7290 H   0  0  0  0  0  0  0  0  0  0  0  0
   35.9220   24.9630   37.0150 H   0  0  0  0  0  0  0  0  0  0  0  0
   34.6910   24.6730   38.2690 H   0  0  0  0  0  0  0  0  0  0  0  0
   36.0770   29.7970   40.9850 O   0  0  0  0  0  0  0  0  0  0  0  0
   36.4140   29.9040   38.5470 C   0  0  0  0  0  0  0  0  0  0  0  0
   35.6970   29.6160   39.6570 C   0  0  0  0  0  0  0  0  0  0  0  0
   34.4340   29.0740   39.5090 C   0  0  0  0  0  0  0  0  0  0  0  0
   33.8720   28.8140   38.2830 C   0  0  0  0  0  0  0  0  0  0  0  0
   34.6040   29.1080   37.1560 C   0  0  0  0  0  0  0  0  0  0  0  0
   35.8730   29.6510   37.2960 C   0  0  0  0  0  0  0  0  0  0  0  0
   33.7980   28.8150   40.3490 H   0  0  0  0  0  0  0  0  0  0  0  0
   32.8950   28.3950   38.1480 H   0  0  0  0  0  0  0  0  0  0  0  0
   34.2560   28.9430   36.1410 H   0  0  0  0  0  0  0  0  0  0  0  0
   36.5190   29.9140   36.4580 H   0  0  0  0  0  0  0  0  0  0  0  0
   37.9510   30.6670   38.7990 S   0  0  0  0  0  0  0  0  0  0  0  0
   37.8910   31.8880   39.6300 O   0  0  0  0  0  0  0  0  0  0  0  0
   38.3950   31.1660   37.4050 O   0  0  0  0  0  0  0  0  0  0  0  0
   39.2670   29.5410   39.1780 C   0  0  0  0  0  2  0  0  0  0  0  0
   40.2350   30.3190   40.0920 C   0  0  0  0  0  2  0  0  0  0  0  0
   40.0720   31.4050   40.0200 H   0  0  0  0  0  0  0  0  0  0  0  0
  1  2  1  0  0  0  0
  1  7  1  0  0  0  0
  2  8  1  0  0  0  0
  3  2  2  0  0  0  0
  4  3  1  0  0  0  0
  5  4  2  0  0  0  0
  5  6  1  0  0  0  0
  6  1  2  0  0  0  0
  9  3  1  0  0  0  0
  9 10  1  0  0  0  0
 11  9  1  0  0  0  0
 12 14  1  0  0  0  0
 12  9  1  0  0  0  0
 13 12  1  0  0  0  0
 15 12  1  0  0  0  0
 16 15  2  0  0  0  0
 17 20  1  0  0  0  0
 17 16  1  0  0  0  0
 18 17  1  0  0  0  0
 19 17  1  0  0  0  0
 21  5  1  0  0  0  0
 22 32  1  0  0  0  0
 22 23  1  0  0  0  0
 23 21  1  0  0  0  0
 24 23  2  0  0  0  0
 24 28  1  0  0  0  0
 25 24  1  0  0  0  0
 26 27  1  0  0  0  0
 26 25  2  0  0  0  0
 27 22  2  0  0  0  0
 29 25  1  0  0  0  0
 30 26  1  0  0  0  0
 31 27  1  0  0  0  0
 32 35  1  0  0  0  0
 32 33  2  0  0  0  0
 34 32  2  0  0  0  0
 35 36  1  0  0  0  0
 37 36  1  0  0  0  0
M  END
>  <minimizedAffinity>
-4.87979078

$$$$

 OpenBabel03242517573D

 37 38  0  0  0  0  0  0  0  0999 V2000
   37.8070   33.2320   39.7630 C   0  0  0  0  0  0  0  0  0  0  0  0
   37.2940   32.4050   38.7510 C   0  0  0  0  0  0  0  0  0  0  0  0
   37.4130   31.0480   38.8730 C   0  0  0  0  0  0  0  0  0  0  0  0
   38.0290   30.5910   39.9800 N   0  0  0  0  0  0  0  0  0  0  0  0
   38.5100   31.3780   40.9320 C   0  0  0  0  0  0  0  0  0  0  0  0
   38.3990   32.7000   40.8230 N   0  0  0  0  0  0  0  0  0  0  0  0
   37.7040   34.2900   39.6480 H   0  0  0  0  0  0  0  0  0  0  0  0
   36.8290   32.8640   37.9240 H   0  0  0  0  0  0  0  0  0  0  0  0
   36.8960   30.0860   37.8910 C   0  0  0  0  0  0  0  0  0  0  0  0
   36.6320   30.6260   36.9600 H   0  0  0  0  0  0  0  0  0  0  0  0
   37.7080   29.3780   37.6180 H   0  0  0  0  0  0  0  0  0  0  0  0
   35.7350   29.2910   38.3980 C   0  0  0  0  0  0  0  0  0  0  0  0
   35.0100   29.7970   39.0130 H   0  0  0  0  0  0  0  0  0  0  0  0
   35.1570   29.0240   37.4570 H   0  0  0  0  0  0  0  0  0  0  0  0
   36.1050   27.9900   38.9620 C   0  0  0  0  0  3  0  0  0  0  0  0
   36.4170   27.4120   40.1140 C   0  0  0  0  0  3  0  0  0  0  0  0
   36.8710   25.9730   40.3090 C   0  0  0  0  0  0  0  0  0  0  0  0
   37.7100   26.0030   41.0080 H   0  0  0  0  0  0  0  0  0  0  0  0
   35.9850   25.4310   40.7170 H   0  0  0  0  0  0  0  0  0  0  0  0
   37.0920   25.5210   39.3250 H   0  0  0  0  0  0  0  0  0  0  0  0
   39.1370   30.9080   42.0570 O   0  0  0  0  0  0  0  0  0  0  0  0
   39.9800   28.7010   42.7530 C   0  0  0  0  0  0  0  0  0  0  0  0
   39.0120   29.6330   42.6040 C   0  0  0  0  0  0  0  0  0  0  0  0
   37.7310   29.3340   43.0310 C   0  0  0  0  0  0  0  0  0  0  0  0
   37.3970   28.1300   43.6010 C   0  0  0  0  0  0  0  0  0  0  0  0
   38.3840   27.1850   43.7530 C   0  0  0  0  0  0  0  0  0  0  0  0
   39.6710   27.4770   43.3280 C   0  0  0  0  0  0  0  0  0  0  0  0
   36.9000   30.0270   42.9460 H   0  0  0  0  0  0  0  0  0  0  0  0
   36.4110   27.8800   43.9380 H   0  0  0  0  0  0  0  0  0  0  0  0
   38.2290   26.2040   44.1900 H   0  0  0  0  0  0  0  0  0  0  0  0
   40.5120   26.7870   43.4100 H   0  0  0  0  0  0  0  0  0  0  0  0
   41.5410   29.1030   42.1140 S   0  0  0  0  0  0  0  0  0  0  0  0
   41.5660   29.2790   40.6460 O   0  0  0  0  0  0  0  0  0  0  0  0
   42.4220   27.8590   42.3710 O   0  0  0  0  0  0  0  0  0  0  0  0
   42.4180   30.3250   43.0530 C   0  0  0  0  0  2  0  0  0  0  0  0
   43.5220   29.5590   43.8100 C   0  0  0  0  0  2  0  0  0  0  0  0
   43.3070   28.4810   43.8550 H   0  0  0  0  0  0  0  0  0  0  0  0
  1  6  1  0  0  0  0
  2  3  1  0  0  0  0
  2  1  2  0  0  0  0
  3  4  2  0  0  0  0
  4  5  1  0  0  0  0
  5 21  1  0  0  0  0
  6  5  2  0  0  0  0
  7  1  1  0  0  0  0
  8  2  1  0  0  0  0
  9 12  1  0  0  0  0
  9  3  1  0  0  0  0
 10  9  1  0  0  0  0
 11  9  1  0  0  0  0
 12 15  1  0  0  0  0
 12 13  1  0  0  0  0
 14 12  1  0  0  0  0
 15 16  2  0  0  0  0
 16 17  1  0  0  0  0
 17 19  1  0  0  0  0
 17 18  1  0  0  0  0
 20 17  1  0  0  0  0
 21 23  1  0  0  0  0
 22 27  1  0  0  0  0
 23 22  2  0  0  0  0
 23 24  1  0  0  0  0
 24 25  2  0  0  0  0
 25 26  1  0  0  0  0
 25 29  1  0  0  0  0
 26 30  1  0  0  0  0
 27 31  1  0  0  0  0
 27 26  2  0  0  0  0
 28 24  1  0  0  0  0
 32 34  2  0  0  0  0
 32 22  1  0  0  0  0
 32 35  1  0  0  0  0
 33 32  2  0  0  0  0
 35 36  1  0  0  0  0
 36 37  1  0  0  0  0
M  END
>  <minimizedAffinity>
-4.87495852

$$$$
