
 OpenBabel03252506333D

 27 28  0  0  1  0  0  0  0  0999 V2000
   44.5010   35.5760   45.0800 C   0  0  0  0  0  0  0  0  0  0  0  0
   45.1660   35.5580   43.8330 C   0  0  0  0  0  0  0  0  0  0  0  0
   46.0960   34.5870   43.5920 C   0  0  0  0  0  0  0  0  0  0  0  0
   46.3210   33.6940   44.5850 N   0  0  0  0  0  0  0  0  0  0  0  0
   45.6830   33.7270   45.7560 C   0  0  0  0  0  0  0  0  0  0  0  0
   44.7620   34.6580   46.0420 N   0  0  0  0  0  0  0  0  0  0  0  0
   46.0210   32.7240   46.7090 N   0  0  0  0  0  0  0  0  0  0  0  0
   45.2320   32.4440   47.9170 C   0  0  0  0  0  0  0  0  0  0  0  0
   46.3320   32.1540   48.9330 C   0  0  0  0  0  0  0  0  0  0  0  0
   47.6190   32.0040   48.1620 C   0  0  0  0  0  0  0  0  0  0  0  0
   47.1180   31.8010   46.7540 C   0  0  1  0  0  0  0  0  0  0  0  0
   43.7380   36.2960   45.3960 H   0  0  0  0  0  0  0  0  0  0  0  0
   46.5820   34.6050   42.6300 H   0  0  0  0  0  0  0  0  0  0  0  0
   44.7210   33.3830   48.2420 H   0  0  0  0  0  0  0  0  0  0  0  0
   44.5590   31.6050   47.7450 H   0  0  0  0  0  0  0  0  0  0  0  0
   46.4110   32.9610   49.6830 H   0  0  0  0  0  0  0  0  0  0  0  0
   46.1110   31.2080   49.4550 H   0  0  0  0  0  0  0  0  0  0  0  0
   48.1640   32.9670   48.2410 H   0  0  0  0  0  0  0  0  0  0  0  0
   48.2360   31.1480   48.5020 H   0  0  0  0  0  0  0  0  0  0  0  0
   47.9100   32.1150   46.0400 H   0  0  0  0  0  0  0  0  0  0  0  0
   44.7740   36.6010   42.9310 N   0  0  0  0  0  0  0  0  0  0  0  0
   44.9540   37.6040   43.2340 H   0  0  0  0  0  0  0  0  0  0  0  0
   44.3180   36.4800   41.9870 H   0  0  0  0  0  0  0  0  0  0  0  0
   46.6190   30.0970   46.5460 S   0  0  0  0  0  0  0  0  0  0  0  0
   45.3190   29.8310   45.3460 C   0  0  0  0  0  0  0  0  0  0  0  0
   44.2450   28.8930   45.8700 C   0  0  0  0  0  0  0  0  0  0  0  0
   43.2340   29.3930   45.8470 H   0  0  0  0  0  0  0  0  0  0  0  0
  1 12  1  0  0  0  0
  1  6  1  0  0  0  0
  2  1  2  0  0  0  0
  3  2  1  0  0  0  0
  3  4  2  0  0  0  0
  4  5  1  0  0  0  0
  5  6  2  0  0  0  0
  5  7  1  0  0  0  0
  7 11  1  0  0  0  0
  7  8  1  0  0  0  0
  8 14  1  0  0  0  0
  8  9  1  0  0  0  0
  9 17  1  0  0  0  0
  9 16  1  0  0  0  0
 10 18  1  0  0  0  0
 10 19  1  0  0  0  0
 10  9  1  0  0  0  0
 11 20  1  6  0  0  0
 11 10  1  0  0  0  0
 13  3  1  0  0  0  0
 15  8  1  0  0  0  0
 21 22  1  0  0  0  0
 21  2  1  0  0  0  0
 23 21  1  0  0  0  0
 24 11  1  0  0  0  0
 25 26  1  0  0  0  0
 25 24  1  0  0  0  0
 27 26  1  0  0  0  0
M  END
>  <minimizedAffinity>
-4.78234386

>  <minimizedRMSD>
0.485629737

$$$$
