
 OpenBabel03252509123D

 26 28  0  0  0  0  0  0  0  0999 V2000
   46.1500   34.0410   44.9730 C   0  0  0  0  0  0  0  0  0  0  0  0
   46.9990   33.3020   44.1410 C   0  0  0  0  0  0  0  0  0  0  0  0
   47.3720   31.9970   44.4170 C   0  0  0  0  0  0  0  0  0  0  0  0
   46.8880   31.3740   45.5730 C   0  0  0  0  0  0  0  0  0  0  0  0
   47.0230   30.1630   46.1550 N   0  0  0  0  0  0  0  0  0  0  0  0
   46.3100   30.1150   47.2900 C   0  0  0  0  0  0  0  0  0  0  0  0
   45.7230   31.3280   47.4050 N   0  0  0  0  0  0  0  0  0  0  0  0
   46.0600   32.1230   46.3640 C   0  0  0  0  0  0  0  0  0  0  0  0
   45.6660   33.4170   46.1290 C   0  0  0  0  0  0  0  0  0  0  0  0
   45.9080   35.0640   44.6830 H   0  0  0  0  0  0  0  0  0  0  0  0
   47.6250   29.4420   45.6930 H   0  0  0  0  0  0  0  0  0  0  0  0
   46.2370   29.2650   47.9550 H   0  0  0  0  0  0  0  0  0  0  0  0
   45.0110   33.9970   46.7620 H   0  0  0  0  0  0  0  0  0  0  0  0
   49.2000   35.1470   41.8560 C   0  0  0  0  0  0  0  0  0  0  0  0
   48.5020   35.1080   40.6520 C   0  0  0  0  0  0  0  0  0  0  0  0
   47.2820   34.4450   40.6440 C   0  0  0  0  0  0  0  0  0  0  0  0
   46.8070   33.8610   41.7980 N   0  0  0  0  0  0  0  0  0  0  0  0
   47.5220   33.9270   42.9360 C   0  0  0  0  0  0  0  0  0  0  0  0
   48.7180   34.5660   42.9770 N   0  0  0  0  0  0  0  0  0  0  0  0
   50.1680   35.6480   41.9430 H   0  0  0  0  0  0  0  0  0  0  0  0
   48.9190   35.5830   39.7700 H   0  0  0  0  0  0  0  0  0  0  0  0
   46.7500   34.4220   39.7050 H   0  0  0  0  0  0  0  0  0  0  0  0
   48.4480   31.0630   43.3500 S   0  0  0  0  0  0  0  0  0  0  0  0
   47.4240   30.2880   42.0820 C   0  0  0  0  0  2  0  0  0  0  0  0
   48.0020   30.6470   40.7230 C   0  0  0  0  0  2  0  0  0  0  0  0
   47.9140   31.7420   40.5550 H   0  0  0  0  0  0  0  0  0  0  0  0
  1  9  1  0  0  0  0
  2  3  1  0  0  0  0
  2  1  2  0  0  0  0
  3  4  2  0  0  0  0
  4  5  1  0  0  0  0
  4  8  1  0  0  0  0
  5  6  1  0  0  0  0
  6  7  2  0  0  0  0
  6 12  1  0  0  0  0
  8  7  1  0  0  0  0
  9  8  2  0  0  0  0
  9 13  1  0  0  0  0
 10  1  1  0  0  0  0
 11  5  1  0  0  0  0
 14 20  1  0  0  0  0
 14 19  1  0  0  0  0
 15 14  2  0  0  0  0
 16 15  1  0  0  0  0
 16 17  2  0  0  0  0
 17 18  1  0  0  0  0
 18 19  2  0  0  0  0
 18  2  1  0  0  0  0
 21 15  1  0  0  0  0
 22 16  1  0  0  0  0
 23  3  1  0  0  0  0
 24 23  1  0  0  0  0
 25 24  1  0  0  0  0
 26 25  1  0  0  0  0
M  END
>  <minimizedAffinity>
-4.02800703

>  <minimizedRMSD>
3.66524482

$$$$
