
 OpenBabel03252508023D

 36 38  0  0  1  0  0  0  0  0999 V2000
   44.5320   34.3090   42.8840 C   0  0  0  0  0  0  0  0  0  0  0  0
   44.3040   35.6040   43.4180 C   0  0  0  0  0  0  0  0  0  0  0  0
   44.6720   35.8220   44.7430 C   0  0  0  0  0  0  0  0  0  0  0  0
   45.2210   34.7900   45.4350 N   0  0  0  0  0  0  0  0  0  0  0  0
   45.4230   33.5540   44.8770 C   0  0  0  0  0  0  0  0  0  0  0  0
   45.0760   33.3820   43.6580 N   0  0  0  0  0  0  0  0  0  0  0  0
   43.8750   36.4560   42.9150 H   0  0  0  0  0  0  0  0  0  0  0  0
   44.5290   36.7790   45.2140 H   0  0  0  0  0  0  0  0  0  0  0  0
   46.0180   32.4850   45.7100 C   0  0  1  0  0  0  0  0  0  0  0  0
   46.9480   32.8550   46.8360 C   0  0  0  0  0  0  0  0  0  0  0  0
   45.5320   32.4470   47.1060 C   0  0  1  0  0  0  0  0  0  0  0  0
   46.2190   31.5170   45.1960 H   0  0  0  0  0  0  0  0  0  0  0  0
   47.2850   33.8980   46.9100 H   0  0  0  0  0  0  0  0  0  0  0  0
   47.7480   32.1120   47.0970 H   0  0  0  0  0  0  0  0  0  0  0  0
   45.3820   31.4260   47.5380 H   0  0  0  0  0  0  0  0  0  0  0  0
   44.7200   33.5390   47.6280 N   0  0  0  0  0  0  0  0  0  0  0  0
   45.2410   34.0420   48.3680 H   0  0  0  0  0  0  0  0  0  0  0  0
   43.8160   33.1300   47.9040 H   0  0  0  0  0  0  0  0  0  0  0  0
   44.1390   34.0890   41.5200 C   0  0  0  0  0  0  0  0  0  0  0  0
   44.9600   33.7330   40.6130 O   0  0  0  0  0  0  0  0  0  0  0  0
   41.7640   33.3200   41.3430 C   0  0  0  0  0  0  0  0  0  0  0  0
   42.7050   34.3230   41.3040 C   0  0  0  0  0  0  0  0  0  0  0  0
   42.2720   35.6280   41.0540 C   0  0  0  0  0  0  0  0  0  0  0  0
   40.9360   35.9250   40.8480 C   0  0  0  0  0  0  0  0  0  0  0  0
   39.9980   34.9240   40.8870 C   0  0  0  0  0  0  0  0  0  0  0  0
   40.4280   33.6470   41.1330 C   0  0  0  0  0  0  0  0  0  0  0  0
   42.9200   36.4860   40.9960 H   0  0  0  0  0  0  0  0  0  0  0  0
   40.5930   36.9050   40.6580 H   0  0  0  0  0  0  0  0  0  0  0  0
   38.9660   35.1090   40.7350 H   0  0  0  0  0  0  0  0  0  0  0  0
   39.6800   32.8530   41.1640 H   0  0  0  0  0  0  0  0  0  0  0  0
   42.2030   31.7170   41.5720 S   0  0  0  0  0  0  0  0  0  0  0  0
   42.0810   31.0860   40.2110 O   0  0  0  0  0  0  0  0  0  0  0  0
   41.1860   31.0480   42.5300 O   0  0  0  0  0  0  0  0  0  0  0  0
   43.5740   30.9310   42.0430 C   0  0  0  0  0  0  0  0  0  0  0  0
   43.1790   29.7620   43.0220 C   0  0  0  0  0  0  0  0  0  0  0  0
   44.0660   29.1890   43.2670 H   0  0  0  0  0  0  0  0  0  0  0  0
  1  2  2  0  0  0  0
  1  6  1  0  0  0  0
  2  3  1  0  0  0  0
  3  8  1  0  0  0  0
  3  4  2  0  0  0  0
  5  4  1  0  0  0  0
  5  9  1  0  0  0  0
  6  5  2  0  0  0  0
  7  2  1  0  0  0  0
  9 12  1  6  0  0  0
  9 10  1  0  0  0  0
  9 11  1  0  0  0  0
 10 13  1  0  0  0  0
 10 14  1  0  0  0  0
 10 11  1  0  0  0  0
 11 15  1  1  0  0  0
 11 16  1  0  0  0  0
 16 18  1  0  0  0  0
 16 17  1  0  0  0  0
 19  1  1  0  0  0  0
 20 19  2  0  0  0  0
 21 31  1  0  0  0  0
 22 21  1  0  0  0  0
 22 19  1  0  0  0  0
 23 22  2  0  0  0  0
 24 25  2  0  0  0  0
 24 23  1  0  0  0  0
 25 26  1  0  0  0  0
 26 30  1  0  0  0  0
 26 21  2  0  0  0  0
 27 23  1  0  0  0  0
 28 24  1  0  0  0  0
 29 25  1  0  0  0  0
 31 34  1  0  0  0  0
 31 33  2  0  0  0  0
 32 31  2  0  0  0  0
 34 35  1  0  0  0  0
 35 36  1  0  0  0  0
M  END
>  <minimizedAffinity>
-5.65023613

>  <minimizedRMSD>
0.259817362

$$$$
