
 OpenBabel03252507473D

 31 32  0  0  0  0  0  0  0  0999 V2000
   39.9850   28.7840   40.9310 C   0  0  0  0  0  0  0  0  0  0  0  0
   41.0930   28.5710   40.9160 H   0  0  0  0  0  0  0  0  0  0  0  0
   39.5720   28.2210   40.0670 H   0  0  0  0  0  0  0  0  0  0  0  0
   39.8660   30.2560   40.7330 C   0  0  0  0  0  0  0  0  0  0  0  0
   38.7910   30.9710   41.3430 C   0  0  0  0  0  0  0  0  0  0  0  0
   39.0860   32.7040   40.8080 S   0  0  0  0  0  0  0  0  0  0  0  0
   40.6280   32.1640   39.8400 C   0  0  0  0  0  0  0  0  0  0  0  0
   40.6450   31.0390   40.0420 N   0  0  0  0  0  0  0  0  0  0  0  0
   38.0040   30.5440   41.9710 H   0  0  0  0  0  0  0  0  0  0  0  0
   41.4200   33.0570   39.1180 O   0  0  0  0  0  0  0  0  0  0  0  0
   42.5100   31.4820   37.2830 O   0  0  0  0  0  0  0  0  0  0  0  0
   41.6540   32.7330   37.4650 P   0  0  0  0  0  0  0  0  0  0  0  0
   40.1290   32.4540   36.7650 O   0  0  0  0  0  0  0  0  0  0  0  0
   40.0110   31.5110   36.5250 H   0  0  0  0  0  0  0  0  0  0  0  0
   42.3480   34.0760   36.7040 O   0  0  0  0  0  0  0  0  0  0  0  0
   43.2370   34.2150   37.1430 H   0  0  0  0  0  0  0  0  0  0  0  0
   39.4910   28.3160   42.2630 C   0  0  0  0  0  0  0  0  0  0  0  0
   40.2950   28.5430   42.9930 H   0  0  0  0  0  0  0  0  0  0  0  0
   38.6120   28.9020   42.6300 H   0  0  0  0  0  0  0  0  0  0  0  0
   39.1340   26.8810   42.2720 C   0  0  0  0  0  0  0  0  0  0  0  0
   37.7820   26.5880   42.1830 C   0  0  0  0  0  0  0  0  0  0  0  0
   37.3300   25.2780   42.1810 C   0  0  0  0  0  0  0  0  0  0  0  0
   38.2890   24.2930   42.2730 N   0  0  0  0  0  0  0  0  0  0  0  0
   39.6090   24.6270   42.3590 C   0  0  0  0  0  0  0  0  0  0  0  0
   40.0030   25.8880   42.3570 N   0  0  0  0  0  0  0  0  0  0  0  0
   36.2790   25.0300   42.1120 H   0  0  0  0  0  0  0  0  0  0  0  0
   40.2830   23.7600   42.4280 H   0  0  0  0  0  0  0  0  0  0  0  0
   36.5650   27.9110   42.0650 S   0  0  0  0  0  0  0  0  0  0  0  0
   36.2060   28.2780   40.3370 C   0  0  0  0  0  2  0  0  0  0  0  0
   35.4290   29.5640   40.2690 C   0  0  0  0  0  2  0  0  0  0  0  0
   35.6680   30.1720   39.3680 H   0  0  0  0  0  0  0  0  0  0  0  0
  1 17  1  0  0  0  0
  2  1  1  0  0  0  0
  3  1  1  0  0  0  0
  4  1  1  0  0  0  0
  4  5  2  0  0  0  0
  5  9  1  0  0  0  0
  6  5  1  0  0  0  0
  7  8  2  0  0  0  0
  7  6  1  0  0  0  0
  8  4  1  0  0  0  0
 10  7  1  0  0  0  0
 11 12  2  0  0  0  0
 12 10  1  0  0  0  0
 13 12  1  0  0  0  0
 14 13  1  0  0  0  0
 15 16  1  0  0  0  0
 15 12  1  0  0  0  0
 17 20  1  0  0  0  0
 17 19  1  0  0  0  0
 17 18  1  0  0  0  0
 20 25  1  0  0  0  0
 21 20  2  0  0  0  0
 22 21  1  0  0  0  0
 22 23  2  0  0  0  0
 23 24  1  0  0  0  0
 24 27  1  0  0  0  0
 25 24  2  0  0  0  0
 26 22  1  0  0  0  0
 28 21  1  0  0  0  0
 29 28  1  0  0  0  0
 30 29  1  0  0  0  0
 31 30  1  0  0  0  0
M  END
>  <minimizedAffinity>
-4.92589903

$$$$

 OpenBabel03252507473D

 31 32  0  0  0  0  0  0  0  0999 V2000
   38.1900   27.6900   43.5030 C   0  0  0  0  0  0  0  0  0  0  0  0
   37.8410   28.1120   44.4900 H   0  0  0  0  0  0  0  0  0  0  0  0
   38.8360   26.8280   43.7710 H   0  0  0  0  0  0  0  0  0  0  0  0
   38.9740   28.7840   42.8640 C   0  0  0  0  0  0  0  0  0  0  0  0
   40.3930   28.6750   42.7580 C   0  0  0  0  0  0  0  0  0  0  0  0
   40.8720   30.2370   41.9170 S   0  0  0  0  0  0  0  0  0  0  0  0
   39.0530   30.7810   41.8500 C   0  0  0  0  0  0  0  0  0  0  0  0
   38.5300   29.8990   42.3540 N   0  0  0  0  0  0  0  0  0  0  0  0
   41.0050   27.8390   43.1080 H   0  0  0  0  0  0  0  0  0  0  0  0
   38.6450   31.9910   41.2890 O   0  0  0  0  0  0  0  0  0  0  0  0
   37.5570   31.1060   39.0370 O   0  0  0  0  0  0  0  0  0  0  0  0
   37.2820   31.9590   40.2720 P   0  0  0  0  0  0  0  0  0  0  0  0
   35.9970   31.2590   41.1400 O   0  0  0  0  0  0  0  0  0  0  0  0
   35.7770   30.3660   40.7990 H   0  0  0  0  0  0  0  0  0  0  0  0
   36.8370   33.5370   39.8510 O   0  0  0  0  0  0  0  0  0  0  0  0
   37.6150   33.9200   39.3500 H   0  0  0  0  0  0  0  0  0  0  0  0
   36.9520   27.3200   42.7500 C   0  0  0  0  0  0  0  0  0  0  0  0
   36.1560   27.1720   43.5090 H   0  0  0  0  0  0  0  0  0  0  0  0
   36.5700   28.1530   42.1080 H   0  0  0  0  0  0  0  0  0  0  0  0
   37.1300   26.1200   41.9040 C   0  0  0  0  0  0  0  0  0  0  0  0
   36.8300   26.2710   40.5600 C   0  0  0  0  0  0  0  0  0  0  0  0
   36.9600   25.2150   39.6730 C   0  0  0  0  0  0  0  0  0  0  0  0
   37.4000   24.0180   40.1960 N   0  0  0  0  0  0  0  0  0  0  0  0
   37.6840   23.9140   41.5260 C   0  0  0  0  0  0  0  0  0  0  0  0
   37.5480   24.9450   42.3420 N   0  0  0  0  0  0  0  0  0  0  0  0
   36.7300   25.3130   38.6190 H   0  0  0  0  0  0  0  0  0  0  0  0
   38.0260   22.9140   41.8300 H   0  0  0  0  0  0  0  0  0  0  0  0
   36.2580   27.8560   39.9230 S   0  0  0  0  0  0  0  0  0  0  0  0
   36.3520   27.8770   38.1230 C   0  0  0  0  0  2  0  0  0  0  0  0
   35.1330   28.5750   37.5850 C   0  0  0  0  0  2  0  0  0  0  0  0
   35.3370   29.1610   36.6610 H   0  0  0  0  0  0  0  0  0  0  0  0
  1  3  1  0  0  0  0
  1  2  1  0  0  0  0
  4  1  1  0  0  0  0
  5  4  2  0  0  0  0
  5  9  1  0  0  0  0
  6  5  1  0  0  0  0
  7  6  1  0  0  0  0
  7  8  2  0  0  0  0
  8  4  1  0  0  0  0
 10  7  1  0  0  0  0
 11 12  2  0  0  0  0
 12 13  1  0  0  0  0
 12 10  1  0  0  0  0
 14 13  1  0  0  0  0
 15 12  1  0  0  0  0
 16 15  1  0  0  0  0
 17  1  1  0  0  0  0
 17 18  1  0  0  0  0
 19 17  1  0  0  0  0
 20 25  1  0  0  0  0
 20 17  1  0  0  0  0
 21 20  2  0  0  0  0
 22 23  2  0  0  0  0
 22 21  1  0  0  0  0
 23 24  1  0  0  0  0
 24 27  1  0  0  0  0
 24 25  2  0  0  0  0
 26 22  1  0  0  0  0
 28 21  1  0  0  0  0
 29 28  1  0  0  0  0
 30 29  1  0  0  0  0
 31 30  1  0  0  0  0
M  END
>  <minimizedAffinity>
-4.89444256

$$$$

 OpenBabel03252507473D

 31 32  0  0  0  0  0  0  0  0999 V2000
   36.8830   30.2750   39.3250 C   0  0  0  0  0  0  0  0  0  0  0  0
   37.5960   29.4730   38.9750 H   0  0  0  0  0  0  0  0  0  0  0  0
   36.1890   30.4360   38.4740 H   0  0  0  0  0  0  0  0  0  0  0  0
   37.7320   31.4740   39.5730 C   0  0  0  0  0  0  0  0  0  0  0  0
   37.1910   32.5990   40.2650 C   0  0  0  0  0  0  0  0  0  0  0  0
   38.6000   33.7780   40.3130 S   0  0  0  0  0  0  0  0  0  0  0  0
   39.6950   32.5380   39.3780 C   0  0  0  0  0  0  0  0  0  0  0  0
   38.9760   31.6620   39.2300 N   0  0  0  0  0  0  0  0  0  0  0  0
   36.1740   32.6890   40.6560 H   0  0  0  0  0  0  0  0  0  0  0  0
   41.0210   32.8040   39.0410 O   0  0  0  0  0  0  0  0  0  0  0  0
   42.3630   31.3540   37.2720 O   0  0  0  0  0  0  0  0  0  0  0  0
   41.4730   32.5850   37.4160 P   0  0  0  0  0  0  0  0  0  0  0  0
   40.0560   32.3400   36.5070 O   0  0  0  0  0  0  0  0  0  0  0  0
   39.9840   31.4130   36.1970 H   0  0  0  0  0  0  0  0  0  0  0  0
   42.2390   33.9770   36.8350 O   0  0  0  0  0  0  0  0  0  0  0  0
   43.0620   34.0940   37.3950 H   0  0  0  0  0  0  0  0  0  0  0  0
   36.2280   29.7380   40.5590 C   0  0  0  0  0  0  0  0  0  0  0  0
   35.7620   30.6060   41.0700 H   0  0  0  0  0  0  0  0  0  0  0  0
   35.3700   29.0580   40.3320 H   0  0  0  0  0  0  0  0  0  0  0  0
   37.1710   29.0240   41.4450 C   0  0  0  0  0  0  0  0  0  0  0  0
   37.3710   27.6800   41.1690 C   0  0  0  0  0  0  0  0  0  0  0  0
   38.2330   26.9110   41.9320 C   0  0  0  0  0  0  0  0  0  0  0  0
   38.8740   27.5480   42.9720 N   0  0  0  0  0  0  0  0  0  0  0  0
   38.6480   28.8720   43.2090 C   0  0  0  0  0  0  0  0  0  0  0  0
   37.8180   29.5750   42.4580 N   0  0  0  0  0  0  0  0  0  0  0  0
   38.4010   25.8600   41.7310 H   0  0  0  0  0  0  0  0  0  0  0  0
   39.2130   29.2730   44.0630 H   0  0  0  0  0  0  0  0  0  0  0  0
   36.5090   26.8910   39.7970 S   0  0  0  0  0  0  0  0  0  0  0  0
   37.5930   26.7730   38.3620 C   0  0  0  0  0  2  0  0  0  0  0  0
   36.7530   26.5080   37.1440 C   0  0  0  0  0  2  0  0  0  0  0  0
   37.1510   26.9910   36.2240 H   0  0  0  0  0  0  0  0  0  0  0  0
  1  4  1  0  0  0  0
  1 17  1  0  0  0  0
  2  1  1  0  0  0  0
  3  1  1  0  0  0  0
  4  5  2  0  0  0  0
  5  6  1  0  0  0  0
  5  9  1  0  0  0  0
  7  6  1  0  0  0  0
  8  7  2  0  0  0  0
  8  4  1  0  0  0  0
 10  7  1  0  0  0  0
 11 12  2  0  0  0  0
 12 10  1  0  0  0  0
 13 12  1  0  0  0  0
 14 13  1  0  0  0  0
 15 16  1  0  0  0  0
 15 12  1  0  0  0  0
 17 18  1  0  0  0  0
 17 20  1  0  0  0  0
 19 17  1  0  0  0  0
 20 25  1  0  0  0  0
 21 20  2  0  0  0  0
 21 22  1  0  0  0  0
 22 23  2  0  0  0  0
 23 24  1  0  0  0  0
 24 27  1  0  0  0  0
 25 24  2  0  0  0  0
 26 22  1  0  0  0  0
 28 21  1  0  0  0  0
 29 28  1  0  0  0  0
 30 29  1  0  0  0  0
 31 30  1  0  0  0  0
M  END
>  <minimizedAffinity>
-4.75817585

$$$$

 OpenBabel03252507473D

 31 32  0  0  0  0  0  0  0  0999 V2000
   35.2840   28.3420   38.8590 C   0  0  0  0  0  0  0  0  0  0  0  0
   36.1660   28.7360   38.2740 H   0  0  0  0  0  0  0  0  0  0  0  0
   35.5630   27.3040   39.1360 H   0  0  0  0  0  0  0  0  0  0  0  0
   34.1390   28.3660   37.9060 C   0  0  0  0  0  0  0  0  0  0  0  0
   34.0690   27.4050   36.8530 C   0  0  0  0  0  0  0  0  0  0  0  0
   32.5120   27.8490   35.9840 S   0  0  0  0  0  0  0  0  0  0  0  0
   32.2140   29.2750   37.2040 C   0  0  0  0  0  0  0  0  0  0  0  0
   33.1250   29.1860   37.8890 N   0  0  0  0  0  0  0  0  0  0  0  0
   34.7950   26.6120   36.6520 H   0  0  0  0  0  0  0  0  0  0  0  0
   31.1060   30.1170   37.1270 O   0  0  0  0  0  0  0  0  0  0  0  0
   29.1310   31.3040   38.4420 O   0  0  0  0  0  0  0  0  0  0  0  0
   29.9720   30.0310   38.3920 P   0  0  0  0  0  0  0  0  0  0  0  0
   28.9430   28.7120   38.0850 O   0  0  0  0  0  0  0  0  0  0  0  0
   28.0430   29.0090   37.8320 H   0  0  0  0  0  0  0  0  0  0  0  0
   30.7630   29.7530   39.8620 O   0  0  0  0  0  0  0  0  0  0  0  0
   31.3630   30.5420   40.0080 H   0  0  0  0  0  0  0  0  0  0  0  0
   35.1150   29.2650   40.0240 C   0  0  0  0  0  0  0  0  0  0  0  0
   35.1710   30.2960   39.6180 H   0  0  0  0  0  0  0  0  0  0  0  0
   34.0960   29.2030   40.4810 H   0  0  0  0  0  0  0  0  0  0  0  0
   36.1200   29.0410   41.0850 C   0  0  0  0  0  0  0  0  0  0  0  0
   37.0520   30.0500   41.2670 C   0  0  0  0  0  0  0  0  0  0  0  0
   38.0390   29.9500   42.2330 C   0  0  0  0  0  0  0  0  0  0  0  0
   38.0450   28.8020   42.9960 N   0  0  0  0  0  0  0  0  0  0  0  0
   37.1080   27.8330   42.7820 C   0  0  0  0  0  0  0  0  0  0  0  0
   36.1800   27.9650   41.8510 N   0  0  0  0  0  0  0  0  0  0  0  0
   38.7760   30.7280   42.3900 H   0  0  0  0  0  0  0  0  0  0  0  0
   37.2090   26.9640   43.4480 H   0  0  0  0  0  0  0  0  0  0  0  0
   37.0040   31.5330   40.2450 S   0  0  0  0  0  0  0  0  0  0  0  0
   38.3850   32.6180   40.6530 C   0  0  0  0  0  2  0  0  0  0  0  0
   38.1520   33.9570   40.0080 C   0  0  0  0  0  2  0  0  0  0  0  0
   38.5310   34.8080   40.6170 H   0  0  0  0  0  0  0  0  0  0  0  0
  1  3  1  0  0  0  0
  1 17  1  0  0  0  0
  2  1  1  0  0  0  0
  4  1  1  0  0  0  0
  5  4  2  0  0  0  0
  6  5  1  0  0  0  0
  6  7  1  0  0  0  0
  7  8  2  0  0  0  0
  8  4  1  0  0  0  0
  9  5  1  0  0  0  0
 10  7  1  0  0  0  0
 10 12  1  0  0  0  0
 12 11  2  0  0  0  0
 12 15  1  0  0  0  0
 13 12  1  0  0  0  0
 14 13  1  0  0  0  0
 15 16  1  0  0  0  0
 17 19  1  0  0  0  0
 17 20  1  0  0  0  0
 18 17  1  0  0  0  0
 20 21  2  0  0  0  0
 20 25  1  0  0  0  0
 21 22  1  0  0  0  0
 22 26  1  0  0  0  0
 22 23  2  0  0  0  0
 24 23  1  0  0  0  0
 24 27  1  0  0  0  0
 25 24  2  0  0  0  0
 28 29  1  0  0  0  0
 28 21  1  0  0  0  0
 30 31  1  0  0  0  0
 30 29  1  0  0  0  0
M  END
>  <minimizedAffinity>
-4.74597549

$$$$

 OpenBabel03252507473D

 31 32  0  0  0  0  0  0  0  0999 V2000
   37.6570   28.5330   43.5190 C   0  0  0  0  0  0  0  0  0  0  0  0
   36.7280   28.3360   44.1300 H   0  0  0  0  0  0  0  0  0  0  0  0
   38.2530   29.2490   44.1230 H   0  0  0  0  0  0  0  0  0  0  0  0
   37.1700   29.1550   42.2550 C   0  0  0  0  0  0  0  0  0  0  0  0
   36.2190   28.4650   41.4440 C   0  0  0  0  0  0  0  0  0  0  0  0
   35.9510   29.6210   40.0410 S   0  0  0  0  0  0  0  0  0  0  0  0
   37.1830   30.8550   40.7950 C   0  0  0  0  0  0  0  0  0  0  0  0
   37.5030   30.3070   41.7460 N   0  0  0  0  0  0  0  0  0  0  0  0
   35.7820   27.4840   41.6510 H   0  0  0  0  0  0  0  0  0  0  0  0
   37.4960   32.0740   40.1960 O   0  0  0  0  0  0  0  0  0  0  0  0
   39.7360   33.1820   39.3080 O   0  0  0  0  0  0  0  0  0  0  0  0
   39.0000   32.7690   40.5790 P   0  0  0  0  0  0  0  0  0  0  0  0
   38.7120   34.1600   41.5150 O   0  0  0  0  0  0  0  0  0  0  0  0
   38.9100   34.9780   41.0130 H   0  0  0  0  0  0  0  0  0  0  0  0
   39.9170   31.6900   41.5050 O   0  0  0  0  0  0  0  0  0  0  0  0
   40.0630   30.8840   40.9290 H   0  0  0  0  0  0  0  0  0  0  0  0
   38.3120   27.2030   43.3200 C   0  0  0  0  0  0  0  0  0  0  0  0
   38.1110   26.6140   44.2390 H   0  0  0  0  0  0  0  0  0  0  0  0
   37.8380   26.6050   42.5010 H   0  0  0  0  0  0  0  0  0  0  0  0
   39.7600   27.3100   43.0440 C   0  0  0  0  0  0  0  0  0  0  0  0
   40.4350   26.1150   42.8480 C   0  0  0  0  0  0  0  0  0  0  0  0
   41.7940   26.0940   42.5820 C   0  0  0  0  0  0  0  0  0  0  0  0
   42.4330   27.3130   42.5250 N   0  0  0  0  0  0  0  0  0  0  0  0
   41.7300   28.4650   42.7240 C   0  0  0  0  0  0  0  0  0  0  0  0
   40.4320   28.4470   42.9750 N   0  0  0  0  0  0  0  0  0  0  0  0
   42.3380   25.1700   42.4260 H   0  0  0  0  0  0  0  0  0  0  0  0
   42.3420   29.3760   42.6550 H   0  0  0  0  0  0  0  0  0  0  0  0
   39.5560   24.5450   42.9340 S   0  0  0  0  0  0  0  0  0  0  0  0
   38.8480   24.1360   41.3270 C   0  0  0  0  0  2  0  0  0  0  0  0
   37.3500   24.0990   41.4570 C   0  0  0  0  0  2  0  0  0  0  0  0
   36.8230   24.4550   40.5440 H   0  0  0  0  0  0  0  0  0  0  0  0
  1  3  1  0  0  0  0
  1  2  1  0  0  0  0
  4  1  1  0  0  0  0
  5  9  1  0  0  0  0
  5  4  2  0  0  0  0
  6  7  1  0  0  0  0
  6  5  1  0  0  0  0
  7  8  2  0  0  0  0
  8  4  1  0  0  0  0
 10 12  1  0  0  0  0
 10  7  1  0  0  0  0
 11 12  2  0  0  0  0
 12 15  1  0  0  0  0
 12 13  1  0  0  0  0
 14 13  1  0  0  0  0
 16 15  1  0  0  0  0
 17  1  1  0  0  0  0
 17 18  1  0  0  0  0
 19 17  1  0  0  0  0
 20 17  1  0  0  0  0
 21 28  1  0  0  0  0
 21 20  2  0  0  0  0
 22 21  1  0  0  0  0
 23 22  2  0  0  0  0
 23 24  1  0  0  0  0
 24 25  2  0  0  0  0
 25 20  1  0  0  0  0
 26 22  1  0  0  0  0
 27 24  1  0  0  0  0
 29 30  1  0  0  0  0
 29 28  1  0  0  0  0
 31 30  1  0  0  0  0
M  END
>  <minimizedAffinity>
-4.7179842

$$$$

 OpenBabel03252507473D

 31 32  0  0  0  0  0  0  0  0999 V2000
   38.4250   29.4630   42.9280 C   0  0  0  0  0  0  0  0  0  0  0  0
   37.7710   30.1050   43.5870 H   0  0  0  0  0  0  0  0  0  0  0  0
   39.4640   29.6760   43.2580 H   0  0  0  0  0  0  0  0  0  0  0  0
   38.1800   29.9460   41.5400 C   0  0  0  0  0  0  0  0  0  0  0  0
   36.8920   30.4430   41.1770 C   0  0  0  0  0  0  0  0  0  0  0  0
   37.1040   30.9010   39.4100 S   0  0  0  0  0  0  0  0  0  0  0  0
   38.9170   30.3370   39.4600 C   0  0  0  0  0  0  0  0  0  0  0  0
   39.0190   29.9860   40.5430 N   0  0  0  0  0  0  0  0  0  0  0  0
   36.0190   30.5150   41.8310 H   0  0  0  0  0  0  0  0  0  0  0  0
   39.7620   30.4070   38.3540 O   0  0  0  0  0  0  0  0  0  0  0  0
   41.4700   31.9790   37.0700 O   0  0  0  0  0  0  0  0  0  0  0  0
   40.0890   31.9510   37.7170 P   0  0  0  0  0  0  0  0  0  0  0  0
   38.9230   32.2830   36.5240 O   0  0  0  0  0  0  0  0  0  0  0  0
   39.3140   32.2670   35.6250 H   0  0  0  0  0  0  0  0  0  0  0  0
   39.9490   33.1200   38.9330 O   0  0  0  0  0  0  0  0  0  0  0  0
   40.6430   32.8910   39.6190 H   0  0  0  0  0  0  0  0  0  0  0  0
   37.9850   28.0520   43.1580 C   0  0  0  0  0  0  0  0  0  0  0  0
   37.4550   28.0440   44.1330 H   0  0  0  0  0  0  0  0  0  0  0  0
   37.2150   27.7120   42.4220 H   0  0  0  0  0  0  0  0  0  0  0  0
   39.1070   27.0890   43.1390 C   0  0  0  0  0  0  0  0  0  0  0  0
   38.8610   25.8770   42.5140 C   0  0  0  0  0  0  0  0  0  0  0  0
   39.8390   24.8990   42.4340 C   0  0  0  0  0  0  0  0  0  0  0  0
   41.0580   25.1940   43.0050 N   0  0  0  0  0  0  0  0  0  0  0  0
   41.2560   26.4000   43.6110 C   0  0  0  0  0  0  0  0  0  0  0  0
   40.2990   27.3100   43.6670 N   0  0  0  0  0  0  0  0  0  0  0  0
   39.6650   23.9460   41.9500 H   0  0  0  0  0  0  0  0  0  0  0  0
   42.2650   26.5250   44.0310 H   0  0  0  0  0  0  0  0  0  0  0  0
   37.2510   25.5360   41.7810 S   0  0  0  0  0  0  0  0  0  0  0  0
   37.3250   24.0420   40.7760 C   0  0  0  0  0  2  0  0  0  0  0  0
   35.9450   23.7390   40.2610 C   0  0  0  0  0  2  0  0  0  0  0  0
   35.9460   23.2900   39.2430 H   0  0  0  0  0  0  0  0  0  0  0  0
  1 17  1  0  0  0  0
  1  3  1  0  0  0  0
  1  2  1  0  0  0  0
  4  1  1  0  0  0  0
  5  4  2  0  0  0  0
  5  9  1  0  0  0  0
  6  7  1  0  0  0  0
  6  5  1  0  0  0  0
  7  8  2  0  0  0  0
  8  4  1  0  0  0  0
 10  7  1  0  0  0  0
 11 12  2  0  0  0  0
 12 10  1  0  0  0  0
 12 15  1  0  0  0  0
 13 12  1  0  0  0  0
 14 13  1  0  0  0  0
 15 16  1  0  0  0  0
 17 18  1  0  0  0  0
 19 17  1  0  0  0  0
 20 17  1  0  0  0  0
 20 25  1  0  0  0  0
 21 20  2  0  0  0  0
 22 21  1  0  0  0  0
 22 23  2  0  0  0  0
 23 24  1  0  0  0  0
 24 25  2  0  0  0  0
 24 27  1  0  0  0  0
 26 22  1  0  0  0  0
 28 21  1  0  0  0  0
 29 28  1  0  0  0  0
 30 29  1  0  0  0  0
 31 30  1  0  0  0  0
M  END
>  <minimizedAffinity>
-4.7127533

$$$$

 OpenBabel03252507473D

 31 32  0  0  0  0  0  0  0  0999 V2000
   37.1290   28.3510   39.1330 C   0  0  0  0  0  0  0  0  0  0  0  0
   38.0890   27.7670   39.0250 H   0  0  0  0  0  0  0  0  0  0  0  0
   36.6310   28.2720   38.1440 H   0  0  0  0  0  0  0  0  0  0  0  0
   37.5520   29.7500   39.4230 C   0  0  0  0  0  0  0  0  0  0  0  0
   36.6340   30.6600   40.0300 C   0  0  0  0  0  0  0  0  0  0  0  0
   37.6130   32.2080   40.1730 S   0  0  0  0  0  0  0  0  0  0  0  0
   39.1140   31.3560   39.3790 C   0  0  0  0  0  0  0  0  0  0  0  0
   38.7090   30.3040   39.1910 N   0  0  0  0  0  0  0  0  0  0  0  0
   35.6040   30.4390   40.3230 H   0  0  0  0  0  0  0  0  0  0  0  0
   40.3250   32.0100   39.1580 O   0  0  0  0  0  0  0  0  0  0  0  0
   41.7420   31.1530   37.0850 O   0  0  0  0  0  0  0  0  0  0  0  0
   40.7940   32.2590   37.5420 P   0  0  0  0  0  0  0  0  0  0  0  0
   39.3950   32.2070   36.5760 O   0  0  0  0  0  0  0  0  0  0  0  0
   39.3670   31.3970   36.0260 H   0  0  0  0  0  0  0  0  0  0  0  0
   41.4970   33.7890   37.3720 O   0  0  0  0  0  0  0  0  0  0  0  0
   42.3120   33.7860   37.9560 H   0  0  0  0  0  0  0  0  0  0  0  0
   36.3760   27.7080   40.2540 C   0  0  0  0  0  0  0  0  0  0  0  0
   36.5360   28.3460   41.1470 H   0  0  0  0  0  0  0  0  0  0  0  0
   35.2680   27.7250   40.0980 H   0  0  0  0  0  0  0  0  0  0  0  0
   36.7920   26.3100   40.4990 C   0  0  0  0  0  0  0  0  0  0  0  0
   37.1750   26.0050   41.7950 C   0  0  0  0  0  0  0  0  0  0  0  0
   37.5840   24.7280   42.1410 C   0  0  0  0  0  0  0  0  0  0  0  0
   37.5880   23.7860   41.1350 N   0  0  0  0  0  0  0  0  0  0  0  0
   37.2030   24.1300   39.8730 C   0  0  0  0  0  0  0  0  0  0  0  0
   36.8190   25.3600   39.5800 N   0  0  0  0  0  0  0  0  0  0  0  0
   37.8870   24.4710   43.1480 H   0  0  0  0  0  0  0  0  0  0  0  0
   37.2470   23.2990   39.1530 H   0  0  0  0  0  0  0  0  0  0  0  0
   37.1530   27.2710   43.0770 S   0  0  0  0  0  0  0  0  0  0  0  0
   38.7760   28.0410   43.2250 C   0  0  0  0  0  2  0  0  0  0  0  0
   38.6350   29.5150   42.9660 C   0  0  0  0  0  2  0  0  0  0  0  0
   39.3290   30.1350   43.5760 H   0  0  0  0  0  0  0  0  0  0  0  0
  1  4  1  0  0  0  0
  1 17  1  0  0  0  0
  2  1  1  0  0  0  0
  3  1  1  0  0  0  0
  4  5  2  0  0  0  0
  5  6  1  0  0  0  0
  5  9  1  0  0  0  0
  7  6  1  0  0  0  0
  8  7  2  0  0  0  0
  8  4  1  0  0  0  0
 10  7  1  0  0  0  0
 11 12  2  0  0  0  0
 12 10  1  0  0  0  0
 13 12  1  0  0  0  0
 14 13  1  0  0  0  0
 15 12  1  0  0  0  0
 15 16  1  0  0  0  0
 17 20  1  0  0  0  0
 17 18  1  0  0  0  0
 19 17  1  0  0  0  0
 20 21  1  0  0  0  0
 21 22  2  0  0  0  0
 21 28  1  0  0  0  0
 22 26  1  0  0  0  0
 23 22  1  0  0  0  0
 24 23  2  0  0  0  0
 25 24  1  0  0  0  0
 25 20  2  0  0  0  0
 27 24  1  0  0  0  0
 28 29  1  0  0  0  0
 30 29  1  0  0  0  0
 30 31  1  0  0  0  0
M  END
>  <minimizedAffinity>
-4.67353678

$$$$

 OpenBabel03252507473D

 31 32  0  0  0  0  0  0  0  0999 V2000
   36.9050   26.9160   40.1140 C   0  0  0  0  0  0  0  0  0  0  0  0
   37.8780   26.3900   39.8870 H   0  0  0  0  0  0  0  0  0  0  0  0
   36.1140   26.1830   39.8520 H   0  0  0  0  0  0  0  0  0  0  0  0
   36.8780   28.0990   39.2080 C   0  0  0  0  0  0  0  0  0  0  0  0
   36.1170   28.0530   38.0020 C   0  0  0  0  0  0  0  0  0  0  0  0
   36.4040   29.7110   37.2630 S   0  0  0  0  0  0  0  0  0  0  0  0
   37.5170   30.1910   38.7260 C   0  0  0  0  0  0  0  0  0  0  0  0
   37.4840   29.2430   39.3620 N   0  0  0  0  0  0  0  0  0  0  0  0
   35.5200   27.2090   37.6450 H   0  0  0  0  0  0  0  0  0  0  0  0
   38.1370   31.4360   38.8280 O   0  0  0  0  0  0  0  0  0  0  0  0
   38.6730   32.9480   40.9410 O   0  0  0  0  0  0  0  0  0  0  0  0
   37.5470   32.5080   40.0100 P   0  0  0  0  0  0  0  0  0  0  0  0
   36.9350   33.8810   39.2130 O   0  0  0  0  0  0  0  0  0  0  0  0
   37.5050   34.6650   39.3580 H   0  0  0  0  0  0  0  0  0  0  0  0
   36.2790   31.7840   40.8660 O   0  0  0  0  0  0  0  0  0  0  0  0
   36.6720   30.9800   41.3160 H   0  0  0  0  0  0  0  0  0  0  0  0
   36.9570   27.2730   41.5660 C   0  0  0  0  0  0  0  0  0  0  0  0
   37.0140   28.3800   41.6150 H   0  0  0  0  0  0  0  0  0  0  0  0
   36.0110   27.0210   42.1080 H   0  0  0  0  0  0  0  0  0  0  0  0
   38.0870   26.6350   42.2750 C   0  0  0  0  0  0  0  0  0  0  0  0
   38.9260   27.4860   42.9760 C   0  0  0  0  0  0  0  0  0  0  0  0
   40.0170   27.0000   43.6780 C   0  0  0  0  0  0  0  0  0  0  0  0
   40.2190   25.6380   43.6420 N   0  0  0  0  0  0  0  0  0  0  0  0
   39.3680   24.8370   42.9390 C   0  0  0  0  0  0  0  0  0  0  0  0
   38.3370   25.3370   42.2810 N   0  0  0  0  0  0  0  0  0  0  0  0
   40.6840   27.6500   44.2320 H   0  0  0  0  0  0  0  0  0  0  0  0
   39.6270   23.7690   42.9810 H   0  0  0  0  0  0  0  0  0  0  0  0
   38.6210   29.2620   42.9940 S   0  0  0  0  0  0  0  0  0  0  0  0
   40.1030   30.1570   42.4950 C   0  0  0  0  0  2  0  0  0  0  0  0
   40.4780   29.7300   41.1020 C   0  0  0  0  0  2  0  0  0  0  0  0
   40.9200   30.5520   40.4960 H   0  0  0  0  0  0  0  0  0  0  0  0
  1 17  1  0  0  0  0
  2  1  1  0  0  0  0
  3  1  1  0  0  0  0
  4  8  1  0  0  0  0
  4  1  1  0  0  0  0
  5  4  2  0  0  0  0
  6  5  1  0  0  0  0
  6  7  1  0  0  0  0
  7 10  1  0  0  0  0
  7  8  2  0  0  0  0
  9  5  1  0  0  0  0
 10 12  1  0  0  0  0
 12 15  1  0  0  0  0
 12 11  2  0  0  0  0
 13 14  1  0  0  0  0
 13 12  1  0  0  0  0
 15 16  1  0  0  0  0
 17 18  1  0  0  0  0
 17 19  1  0  0  0  0
 17 20  1  0  0  0  0
 20 25  2  0  0  0  0
 20 21  1  0  0  0  0
 21 28  1  0  0  0  0
 21 22  2  0  0  0  0
 22 26  1  0  0  0  0
 23 22  1  0  0  0  0
 24 27  1  0  0  0  0
 24 23  2  0  0  0  0
 25 24  1  0  0  0  0
 29 28  1  0  0  0  0
 30 29  1  0  0  0  0
 31 30  1  0  0  0  0
M  END
>  <minimizedAffinity>
-4.62905931

$$$$

 OpenBabel03252507473D

 31 32  0  0  0  0  0  0  0  0999 V2000
   37.4970   27.2030   38.8590 C   0  0  0  0  0  0  0  0  0  0  0  0
   38.4920   27.4370   39.3380 H   0  0  0  0  0  0  0  0  0  0  0  0
   37.6600   26.2540   38.3070 H   0  0  0  0  0  0  0  0  0  0  0  0
   37.2320   28.3380   37.9300 C   0  0  0  0  0  0  0  0  0  0  0  0
   36.7380   28.0810   36.6160 C   0  0  0  0  0  0  0  0  0  0  0  0
   36.5820   29.7630   35.8920 S   0  0  0  0  0  0  0  0  0  0  0  0
   37.2170   30.5380   37.5060 C   0  0  0  0  0  0  0  0  0  0  0  0
   37.3940   29.6120   38.1520 N   0  0  0  0  0  0  0  0  0  0  0  0
   36.5200   27.0990   36.1880 H   0  0  0  0  0  0  0  0  0  0  0  0
   37.3680   31.9140   37.6760 O   0  0  0  0  0  0  0  0  0  0  0  0
   38.8490   32.4310   39.8150 O   0  0  0  0  0  0  0  0  0  0  0  0
   37.4240   32.5010   39.2720 P   0  0  0  0  0  0  0  0  0  0  0  0
   36.9310   34.1290   39.2490 O   0  0  0  0  0  0  0  0  0  0  0  0
   37.6820   34.7340   39.4220 H   0  0  0  0  0  0  0  0  0  0  0  0
   36.3450   31.6350   40.2460 O   0  0  0  0  0  0  0  0  0  0  0  0
   36.6600   30.6840   40.2320 H   0  0  0  0  0  0  0  0  0  0  0  0
   36.5110   27.1020   39.9800 C   0  0  0  0  0  0  0  0  0  0  0  0
   35.5890   27.6130   39.6330 H   0  0  0  0  0  0  0  0  0  0  0  0
   36.1860   26.0500   40.1770 H   0  0  0  0  0  0  0  0  0  0  0  0
   37.0160   27.6810   41.2430 C   0  0  0  0  0  0  0  0  0  0  0  0
   37.3590   26.7760   42.2350 C   0  0  0  0  0  0  0  0  0  0  0  0
   37.8440   27.2040   43.4600 C   0  0  0  0  0  0  0  0  0  0  0  0
   37.9640   28.5650   43.6370 N   0  0  0  0  0  0  0  0  0  0  0  0
   37.6140   29.4200   42.6330 C   0  0  0  0  0  0  0  0  0  0  0  0
   37.1550   28.9750   41.4760 N   0  0  0  0  0  0  0  0  0  0  0  0
   38.1170   26.5120   44.2470 H   0  0  0  0  0  0  0  0  0  0  0  0
   37.7510   30.4820   42.8860 H   0  0  0  0  0  0  0  0  0  0  0  0
   37.1840   25.0040   41.9570 S   0  0  0  0  0  0  0  0  0  0  0  0
   38.8050   24.2190   41.8930 C   0  0  0  0  0  2  0  0  0  0  0  0
   39.6990   25.0300   40.9960 C   0  0  0  0  0  2  0  0  0  0  0  0
   40.7610   25.0380   41.3280 H   0  0  0  0  0  0  0  0  0  0  0  0
  1  2  1  0  0  0  0
  1 17  1  0  0  0  0
  3  1  1  0  0  0  0
  4  8  1  0  0  0  0
  4  1  1  0  0  0  0
  5  4  2  0  0  0  0
  6  5  1  0  0  0  0
  6  7  1  0  0  0  0
  7 10  1  0  0  0  0
  7  8  2  0  0  0  0
  9  5  1  0  0  0  0
 10 12  1  0  0  0  0
 12 11  2  0  0  0  0
 12 15  1  0  0  0  0
 13 12  1  0  0  0  0
 13 14  1  0  0  0  0
 16 15  1  0  0  0  0
 17 19  1  0  0  0  0
 17 20  1  0  0  0  0
 18 17  1  0  0  0  0
 20 25  2  0  0  0  0
 20 21  1  0  0  0  0
 21 22  2  0  0  0  0
 22 23  1  0  0  0  0
 22 26  1  0  0  0  0
 24 27  1  0  0  0  0
 24 23  2  0  0  0  0
 25 24  1  0  0  0  0
 28 21  1  0  0  0  0
 29 28  1  0  0  0  0
 30 31  1  0  0  0  0
 30 29  1  0  0  0  0
M  END
>  <minimizedAffinity>
-4.52512932

$$$$
