
 OpenBabel03242522203D

 39 41  0  0  0  0  0  0  0  0999 V2000
   38.0260   32.1060   39.3630 C   0  0  0  0  0  0  0  0  0  0  0  0
   38.4840   31.3350   38.7100 H   0  0  0  0  0  0  0  0  0  0  0  0
   37.1960   32.5650   38.7500 H   0  0  0  0  0  0  0  0  0  0  0  0
   41.1320   34.1160   39.6580 C   0  0  0  0  0  0  0  0  0  0  0  0
   40.6150   35.2410   40.1980 C   0  0  0  0  0  0  0  0  0  0  0  0
   38.8200   34.8020   40.3200 S   0  0  0  0  0  0  0  0  0  0  0  0
   39.1070   33.1180   39.5920 C   0  0  0  0  0  0  0  0  0  0  0  0
   40.2410   33.2080   39.4400 N   0  0  0  0  0  0  0  0  0  0  0  0
   41.0920   36.1540   40.4870 H   0  0  0  0  0  0  0  0  0  0  0  0
   44.4140   33.7350   37.8460 C   0  0  0  0  0  0  0  0  0  0  0  0
   43.0410   33.9030   38.0630 C   0  0  0  0  0  0  0  0  0  0  0  0
   42.5600   33.9430   39.3500 C   0  0  0  0  0  0  0  0  0  0  0  0
   43.5040   33.8110   40.3600 N   0  0  0  0  0  0  0  0  0  0  0  0
   44.8040   33.6520   40.1060 C   0  0  0  0  0  0  0  0  0  0  0  0
   45.2700   33.6140   38.8430 N   0  0  0  0  0  0  0  0  0  0  0  0
   44.7850   33.7050   36.8230 H   0  0  0  0  0  0  0  0  0  0  0  0
   45.4770   33.5570   40.9480 H   0  0  0  0  0  0  0  0  0  0  0  0
   42.2180   34.0220   36.9090 N   0  0  0  0  0  0  0  0  0  0  0  0
   41.7550   34.9070   36.5680 H   0  0  0  0  0  0  0  0  0  0  0  0
   42.0170   33.1970   36.3040 H   0  0  0  0  0  0  0  0  0  0  0  0
   37.5160   31.5660   40.6640 C   0  0  0  0  0  0  0  0  0  0  0  0
   38.1830   32.0020   41.4620 H   0  0  0  0  0  0  0  0  0  0  0  0
   36.5140   32.0080   40.8480 H   0  0  0  0  0  0  0  0  0  0  0  0
   37.5320   30.1300   40.8090 C   0  0  0  0  0  0  0  0  0  0  0  0
   37.6770   29.1480   39.8730 C   0  0  0  0  0  0  0  0  0  0  0  0
   37.6850   27.7850   40.0780 C   0  0  0  0  0  0  0  0  0  0  0  0
   37.5250   27.4010   41.3880 C   0  0  0  0  0  0  0  0  0  0  0  0
   37.3780   28.3700   42.3420 C   0  0  0  0  0  0  0  0  0  0  0  0
   37.3760   29.6920   42.0950 N   0  0  0  0  0  0  0  0  0  0  0  0
   37.8000   29.5480   38.8520 H   0  0  0  0  0  0  0  0  0  0  0  0
   37.8090   27.0980   39.2480 H   0  0  0  0  0  0  0  0  0  0  0  0
   37.2090   27.8490   43.7360 C   0  0  0  0  0  0  0  0  0  0  0  0
   38.3890   27.1970   44.1300 F   0  0  0  0  0  0  0  0  0  0  0  0
   36.0840   27.0880   43.9060 F   0  0  0  0  0  0  0  0  0  0  0  0
   37.0770   28.9320   44.6130 F   0  0  0  0  0  0  0  0  0  0  0  0
   37.5200   25.6590   41.7780 S   0  0  0  0  0  0  0  0  0  0  0  0
   39.1350   24.9120   41.7230 C   0  0  0  0  0  2  0  0  0  0  0  0
   39.6320   24.3620   43.0080 C   0  0  0  0  0  2  0  0  0  0  0  0
   40.1180   23.3500   42.8770 H   0  0  0  0  0  0  0  0  0  0  0  0
  1  7  1  0  0  0  0
  1 21  1  0  0  0  0
  2  1  1  0  0  0  0
  3  1  1  0  0  0  0
  4  5  2  0  0  0  0
  5  6  1  0  0  0  0
  5  9  1  0  0  0  0
  7  6  1  0  0  0  0
  8  7  2  0  0  0  0
  8  4  1  0  0  0  0
 10 11  2  0  0  0  0
 10 15  1  0  0  0  0
 11 12  1  0  0  0  0
 12  4  1  0  0  0  0
 12 13  2  0  0  0  0
 14 13  1  0  0  0  0
 14 17  1  0  0  0  0
 15 14  2  0  0  0  0
 16 10  1  0  0  0  0
 18 11  1  0  0  0  0
 19 18  1  0  0  0  0
 20 18  1  0  0  0  0
 21 24  1  0  0  0  0
 21 23  1  0  0  0  0
 21 22  1  0  0  0  0
 24 29  1  0  0  0  0
 25 26  1  0  0  0  0
 25 24  2  0  0  0  0
 26 27  2  0  0  0  0
 27 36  1  0  0  0  0
 27 28  1  0  0  0  0
 28 32  1  0  0  0  0
 29 28  2  0  0  0  0
 30 25  1  0  0  0  0
 31 26  1  0  0  0  0
 32 34  1  0  0  0  0
 32 33  1  0  0  0  0
 32 35  1  0  0  0  0
 37 36  1  0  0  0  0
 37 38  1  0  0  0  0
 39 38  1  0  0  0  0
M  END
>  <minimizedAffinity>
-6.55971909

$$$$

 OpenBabel03242522203D

 39 41  0  0  0  0  0  0  0  0999 V2000
   36.9110   30.2490   37.9990 C   0  0  0  0  0  0  0  0  0  0  0  0
   37.6640   29.5200   37.6350 H   0  0  0  0  0  0  0  0  0  0  0  0
   36.4830   30.7280   37.0700 H   0  0  0  0  0  0  0  0  0  0  0  0
   39.3400   32.6600   39.4350 C   0  0  0  0  0  0  0  0  0  0  0  0
   38.6320   33.0730   40.5070 C   0  0  0  0  0  0  0  0  0  0  0  0
   37.0760   32.0830   40.3280 S   0  0  0  0  0  0  0  0  0  0  0  0
   37.6910   31.2630   38.7790 C   0  0  0  0  0  0  0  0  0  0  0  0
   38.7120   31.7830   38.7250 N   0  0  0  0  0  0  0  0  0  0  0  0
   38.8780   33.7810   41.2710 H   0  0  0  0  0  0  0  0  0  0  0  0
   42.5080   33.5690   37.6070 C   0  0  0  0  0  0  0  0  0  0  0  0
   41.2190   33.0750   37.8440 C   0  0  0  0  0  0  0  0  0  0  0  0
   40.6850   33.1560   39.1080 C   0  0  0  0  0  0  0  0  0  0  0  0
   41.4930   33.7400   40.0760 N   0  0  0  0  0  0  0  0  0  0  0  0
   42.7160   34.1970   39.8050 C   0  0  0  0  0  0  0  0  0  0  0  0
   43.2340   34.1150   38.5640 N   0  0  0  0  0  0  0  0  0  0  0  0
   42.9210   33.4990   36.6020 H   0  0  0  0  0  0  0  0  0  0  0  0
   43.2830   34.6400   40.6130 H   0  0  0  0  0  0  0  0  0  0  0  0
   40.5340   32.5080   36.7330 N   0  0  0  0  0  0  0  0  0  0  0  0
   39.7220   32.9430   36.2200 H   0  0  0  0  0  0  0  0  0  0  0  0
   40.8130   31.5810   36.3450 H   0  0  0  0  0  0  0  0  0  0  0  0
   35.8380   29.6330   38.8450 C   0  0  0  0  0  0  0  0  0  0  0  0
   35.5750   30.4080   39.6210 H   0  0  0  0  0  0  0  0  0  0  0  0
   34.9280   29.5280   38.2180 H   0  0  0  0  0  0  0  0  0  0  0  0
   36.1900   28.4160   39.5350 C   0  0  0  0  0  0  0  0  0  0  0  0
   36.3040   27.1370   39.0730 C   0  0  0  0  0  0  0  0  0  0  0  0
   36.6470   26.0110   39.7890 C   0  0  0  0  0  0  0  0  0  0  0  0
   36.8970   26.2330   41.1220 C   0  0  0  0  0  0  0  0  0  0  0  0
   36.7880   27.5080   41.6060 C   0  0  0  0  0  0  0  0  0  0  0  0
   36.4500   28.5800   40.8680 N   0  0  0  0  0  0  0  0  0  0  0  0
   36.0860   27.0540   37.9940 H   0  0  0  0  0  0  0  0  0  0  0  0
   36.7050   25.0410   39.3070 H   0  0  0  0  0  0  0  0  0  0  0  0
   37.0800   27.6430   43.0690 C   0  0  0  0  0  0  0  0  0  0  0  0
   37.0490   29.0030   43.4210 F   0  0  0  0  0  0  0  0  0  0  0  0
   38.2250   27.0050   43.4630 F   0  0  0  0  0  0  0  0  0  0  0  0
   36.0400   27.0520   43.7970 F   0  0  0  0  0  0  0  0  0  0  0  0
   37.3530   24.8480   42.1530 S   0  0  0  0  0  0  0  0  0  0  0  0
   39.0010   24.2480   41.8510 C   0  0  0  0  0  2  0  0  0  0  0  0
   39.9260   24.2990   43.0090 C   0  0  0  0  0  2  0  0  0  0  0  0
   40.5380   23.3540   43.1060 H   0  0  0  0  0  0  0  0  0  0  0  0
  1  7  1  0  0  0  0
  1 21  1  0  0  0  0
  2  1  1  0  0  0  0
  3  1  1  0  0  0  0
  4  5  2  0  0  0  0
  5  9  1  0  0  0  0
  6  5  1  0  0  0  0
  7  6  1  0  0  0  0
  8  7  2  0  0  0  0
  8  4  1  0  0  0  0
 10 11  2  0  0  0  0
 10 15  1  0  0  0  0
 11 12  1  0  0  0  0
 12  4  1  0  0  0  0
 12 13  2  0  0  0  0
 14 13  1  0  0  0  0
 14 17  1  0  0  0  0
 15 14  2  0  0  0  0
 16 10  1  0  0  0  0
 18 11  1  0  0  0  0
 19 18  1  0  0  0  0
 20 18  1  0  0  0  0
 21 24  1  0  0  0  0
 21 22  1  0  0  0  0
 23 21  1  0  0  0  0
 24 29  1  0  0  0  0
 25 24  2  0  0  0  0
 25 26  1  0  0  0  0
 26 27  2  0  0  0  0
 27 28  1  0  0  0  0
 27 36  1  0  0  0  0
 28 32  1  0  0  0  0
 29 28  2  0  0  0  0
 30 25  1  0  0  0  0
 31 26  1  0  0  0  0
 32 33  1  0  0  0  0
 32 34  1  0  0  0  0
 32 35  1  0  0  0  0
 37 36  1  0  0  0  0
 37 38  1  0  0  0  0
 38 39  1  0  0  0  0
M  END
>  <minimizedAffinity>
-6.28527546

$$$$

 OpenBabel03242522203D

 39 41  0  0  0  0  0  0  0  0999 V2000
   35.9860   29.1250   39.5090 C   0  0  0  0  0  0  0  0  0  0  0  0
   36.0700   28.1470   38.9920 H   0  0  0  0  0  0  0  0  0  0  0  0
   35.0580   29.6100   39.0850 H   0  0  0  0  0  0  0  0  0  0  0  0
   38.7800   31.5030   38.9590 C   0  0  0  0  0  0  0  0  0  0  0  0
   39.4380   30.8480   37.9800 C   0  0  0  0  0  0  0  0  0  0  0  0
   38.3790   29.3430   37.7660 S   0  0  0  0  0  0  0  0  0  0  0  0
   37.1990   29.8970   39.0890 C   0  0  0  0  0  0  0  0  0  0  0  0
   37.7240   30.8800   39.3600 N   0  0  0  0  0  0  0  0  0  0  0  0
   40.3320   31.1050   37.4520 H   0  0  0  0  0  0  0  0  0  0  0  0
   38.8340   34.9760   40.4230 C   0  0  0  0  0  0  0  0  0  0  0  0
   38.3410   33.7720   39.9040 C   0  0  0  0  0  0  0  0  0  0  0  0
   39.2220   32.7930   39.5130 C   0  0  0  0  0  0  0  0  0  0  0  0
   40.5710   33.0860   39.6700 N   0  0  0  0  0  0  0  0  0  0  0  0
   40.9950   34.2480   40.1690 C   0  0  0  0  0  0  0  0  0  0  0  0
   40.1270   35.2040   40.5510 N   0  0  0  0  0  0  0  0  0  0  0  0
   38.1270   35.7450   40.7300 H   0  0  0  0  0  0  0  0  0  0  0  0
   42.0620   34.4000   40.2610 H   0  0  0  0  0  0  0  0  0  0  0  0
   36.9260   33.6430   39.8150 N   0  0  0  0  0  0  0  0  0  0  0  0
   36.3200   33.0360   40.4300 H   0  0  0  0  0  0  0  0  0  0  0  0
   36.3820   34.1700   39.0980 H   0  0  0  0  0  0  0  0  0  0  0  0
   35.9140   29.0100   41.0010 C   0  0  0  0  0  0  0  0  0  0  0  0
   36.0290   30.0600   41.3960 H   0  0  0  0  0  0  0  0  0  0  0  0
   34.8810   28.7090   41.2720 H   0  0  0  0  0  0  0  0  0  0  0  0
   36.9220   28.1890   41.6270 C   0  0  0  0  0  0  0  0  0  0  0  0
   37.8870   28.5100   42.5360 C   0  0  0  0  0  0  0  0  0  0  0  0
   38.8260   27.6730   43.0990 C   0  0  0  0  0  0  0  0  0  0  0  0
   38.7560   26.3670   42.6760 C   0  0  0  0  0  0  0  0  0  0  0  0
   37.7960   26.0230   41.7650 C   0  0  0  0  0  0  0  0  0  0  0  0
   36.8980   26.8770   41.2410 N   0  0  0  0  0  0  0  0  0  0  0  0
   37.8670   29.5780   42.8180 H   0  0  0  0  0  0  0  0  0  0  0  0
   39.5470   28.0480   43.8170 H   0  0  0  0  0  0  0  0  0  0  0  0
   37.8050   24.5790   41.3680 C   0  0  0  0  0  0  0  0  0  0  0  0
   37.5320   23.7890   42.4960 F   0  0  0  0  0  0  0  0  0  0  0  0
   38.9380   24.2000   40.6990 F   0  0  0  0  0  0  0  0  0  0  0  0
   36.7420   24.3430   40.4880 F   0  0  0  0  0  0  0  0  0  0  0  0
   39.9200   25.1870   43.3380 S   0  0  0  0  0  0  0  0  0  0  0  0
   41.5090   25.2270   42.5350 C   0  0  0  0  0  2  0  0  0  0  0  0
   42.6720   25.4630   43.4250 C   0  0  0  0  0  2  0  0  0  0  0  0
   43.5400   24.7810   43.1800 H   0  0  0  0  0  0  0  0  0  0  0  0
  1 21  1  0  0  0  0
  2  1  1  0  0  0  0
  3  1  1  0  0  0  0
  4  8  1  0  0  0  0
  4 12  1  0  0  0  0
  5  4  2  0  0  0  0
  6  5  1  0  0  0  0
  6  7  1  0  0  0  0
  7  8  2  0  0  0  0
  7  1  1  0  0  0  0
  9  5  1  0  0  0  0
 10 15  1  0  0  0  0
 10 16  1  0  0  0  0
 11 10  2  0  0  0  0
 12 13  2  0  0  0  0
 12 11  1  0  0  0  0
 13 14  1  0  0  0  0
 14 17  1  0  0  0  0
 14 15  2  0  0  0  0
 18 11  1  0  0  0  0
 18 19  1  0  0  0  0
 20 18  1  0  0  0  0
 21 23  1  0  0  0  0
 21 22  1  0  0  0  0
 21 24  1  0  0  0  0
 24 25  1  0  0  0  0
 25 30  1  0  0  0  0
 25 26  2  0  0  0  0
 26 31  1  0  0  0  0
 27 26  1  0  0  0  0
 27 36  1  0  0  0  0
 28 27  2  0  0  0  0
 29 24  2  0  0  0  0
 29 28  1  0  0  0  0
 32 28  1  0  0  0  0
 32 33  1  0  0  0  0
 34 32  1  0  0  0  0
 35 32  1  0  0  0  0
 37 36  1  0  0  0  0
 37 38  1  0  0  0  0
 39 38  1  0  0  0  0
M  END
>  <minimizedAffinity>
-6.02900553

$$$$

 OpenBabel03242522203D

 39 41  0  0  0  0  0  0  0  0999 V2000
   37.5970   32.2990   40.4640 C   0  0  0  0  0  0  0  0  0  0  0  0
   36.7110   32.8150   40.0410 H   0  0  0  0  0  0  0  0  0  0  0  0
   37.4450   32.3100   41.5840 H   0  0  0  0  0  0  0  0  0  0  0  0
   40.7670   33.8400   39.3040 C   0  0  0  0  0  0  0  0  0  0  0  0
   40.5460   35.1150   39.6910 C   0  0  0  0  0  0  0  0  0  0  0  0
   38.8660   34.9830   40.4580 S   0  0  0  0  0  0  0  0  0  0  0  0
   38.7660   33.1630   40.1020 C   0  0  0  0  0  0  0  0  0  0  0  0
   39.7880   33.0500   39.5930 N   0  0  0  0  0  0  0  0  0  0  0  0
   41.1590   35.9860   39.5930 H   0  0  0  0  0  0  0  0  0  0  0  0
   43.1840   32.2190   36.9090 C   0  0  0  0  0  0  0  0  0  0  0  0
   41.9750   32.6020   37.5040 C   0  0  0  0  0  0  0  0  0  0  0  0
   41.9940   33.3980   38.6240 C   0  0  0  0  0  0  0  0  0  0  0  0
   43.2500   33.7680   39.0890 N   0  0  0  0  0  0  0  0  0  0  0  0
   44.3760   33.3790   38.4900 C   0  0  0  0  0  0  0  0  0  0  0  0
   44.3510   32.6000   37.3920 N   0  0  0  0  0  0  0  0  0  0  0  0
   43.1570   31.5890   36.0220 H   0  0  0  0  0  0  0  0  0  0  0  0
   45.3150   33.7110   38.9130 H   0  0  0  0  0  0  0  0  0  0  0  0
   40.7810   32.1290   36.8920 N   0  0  0  0  0  0  0  0  0  0  0  0
   40.1010   32.7090   36.3310 H   0  0  0  0  0  0  0  0  0  0  0  0
   40.4960   31.1280   36.9690 H   0  0  0  0  0  0  0  0  0  0  0  0
   37.7820   30.9040   39.9490 C   0  0  0  0  0  0  0  0  0  0  0  0
   36.7490   30.5280   39.7000 H   0  0  0  0  0  0  0  0  0  0  0  0
   38.3120   30.9670   38.9750 H   0  0  0  0  0  0  0  0  0  0  0  0
   38.3890   29.9630   40.8580 C   0  0  0  0  0  0  0  0  0  0  0  0
   39.7020   29.7330   41.1490 C   0  0  0  0  0  0  0  0  0  0  0  0
   40.2190   28.8120   42.0350 C   0  0  0  0  0  0  0  0  0  0  0  0
   39.2780   28.0510   42.6860 C   0  0  0  0  0  0  0  0  0  0  0  0
   37.9560   28.2660   42.4100 C   0  0  0  0  0  0  0  0  0  0  0  0
   37.4960   29.1780   41.5350 N   0  0  0  0  0  0  0  0  0  0  0  0
   40.3850   30.3880   40.5810 H   0  0  0  0  0  0  0  0  0  0  0  0
   41.2910   28.7220   42.1810 H   0  0  0  0  0  0  0  0  0  0  0  0
   37.0120   27.3860   43.1700 C   0  0  0  0  0  0  0  0  0  0  0  0
   37.1100   27.6800   44.5400 F   0  0  0  0  0  0  0  0  0  0  0  0
   37.1540   26.0540   42.8880 F   0  0  0  0  0  0  0  0  0  0  0  0
   35.6980   27.7160   42.8170 F   0  0  0  0  0  0  0  0  0  0  0  0
   39.8290   26.8250   43.8610 S   0  0  0  0  0  0  0  0  0  0  0  0
   40.6710   25.4470   43.1100 C   0  0  0  0  0  2  0  0  0  0  0  0
   40.0150   24.8690   41.9120 C   0  0  0  0  0  2  0  0  0  0  0  0
   40.7560   24.6480   41.0880 H   0  0  0  0  0  0  0  0  0  0  0  0
  1  3  1  0  0  0  0
  2  1  1  0  0  0  0
  4  8  1  0  0  0  0
  4  5  2  0  0  0  0
  5  6  1  0  0  0  0
  7  6  1  0  0  0  0
  7  1  1  0  0  0  0
  8  7  2  0  0  0  0
  9  5  1  0  0  0  0
 10 15  2  0  0  0  0
 10 11  1  0  0  0  0
 11 12  2  0  0  0  0
 12 13  1  0  0  0  0
 12  4  1  0  0  0  0
 14 17  1  0  0  0  0
 14 13  2  0  0  0  0
 15 14  1  0  0  0  0
 16 10  1  0  0  0  0
 18 20  1  0  0  0  0
 18 11  1  0  0  0  0
 19 18  1  0  0  0  0
 21  1  1  0  0  0  0
 21 24  1  0  0  0  0
 22 21  1  0  0  0  0
 23 21  1  0  0  0  0
 24 25  2  0  0  0  0
 24 29  1  0  0  0  0
 25 26  1  0  0  0  0
 26 31  1  0  0  0  0
 26 27  2  0  0  0  0
 27 36  1  0  0  0  0
 28 27  1  0  0  0  0
 28 32  1  0  0  0  0
 29 28  2  0  0  0  0
 30 25  1  0  0  0  0
 32 33  1  0  0  0  0
 34 32  1  0  0  0  0
 35 32  1  0  0  0  0
 37 36  1  0  0  0  0
 38 37  1  0  0  0  0
 39 38  1  0  0  0  0
M  END
>  <minimizedAffinity>
-5.93831301

$$$$

 OpenBabel03242522203D

 39 41  0  0  0  0  0  0  0  0999 V2000
   38.7460   30.0140   42.4680 C   0  0  0  0  0  0  0  0  0  0  0  0
   38.8640   30.6130   43.3940 H   0  0  0  0  0  0  0  0  0  0  0  0
   39.6600   29.3520   42.4200 H   0  0  0  0  0  0  0  0  0  0  0  0
   39.5400   32.4400   39.7740 C   0  0  0  0  0  0  0  0  0  0  0  0
   38.2860   32.7450   39.3770 C   0  0  0  0  0  0  0  0  0  0  0  0
   37.2710   31.6950   40.5150 S   0  0  0  0  0  0  0  0  0  0  0  0
   38.7820   31.0100   41.3490 C   0  0  0  0  0  0  0  0  0  0  0  0
   39.5670   31.5830   40.7390 N   0  0  0  0  0  0  0  0  0  0  0  0
   37.9430   33.4110   38.6130 H   0  0  0  0  0  0  0  0  0  0  0  0
   42.1920   33.5130   37.3210 C   0  0  0  0  0  0  0  0  0  0  0  0
   41.0200   32.9360   37.8260 C   0  0  0  0  0  0  0  0  0  0  0  0
   40.7480   33.0210   39.1700 C   0  0  0  0  0  0  0  0  0  0  0  0
   41.6870   33.6940   39.9420 N   0  0  0  0  0  0  0  0  0  0  0  0
   42.7910   34.2290   39.4180 C   0  0  0  0  0  0  0  0  0  0  0  0
   43.0520   34.1430   38.0990 N   0  0  0  0  0  0  0  0  0  0  0  0
   42.3980   33.4400   36.2550 H   0  0  0  0  0  0  0  0  0  0  0  0
   43.4730   34.7390   40.0850 H   0  0  0  0  0  0  0  0  0  0  0  0
   40.1710   32.2830   36.8880 N   0  0  0  0  0  0  0  0  0  0  0  0
   39.2400   32.6410   36.5440 H   0  0  0  0  0  0  0  0  0  0  0  0
   40.4370   31.3660   36.4680 H   0  0  0  0  0  0  0  0  0  0  0  0
   37.4820   29.2110   42.4290 C   0  0  0  0  0  0  0  0  0  0  0  0
   37.0860   29.2080   43.4850 H   0  0  0  0  0  0  0  0  0  0  0  0
   36.7340   29.7800   41.8390 H   0  0  0  0  0  0  0  0  0  0  0  0
   37.6100   27.8390   42.0000 C   0  0  0  0  0  0  0  0  0  0  0  0
   36.9170   27.1370   41.0570 C   0  0  0  0  0  0  0  0  0  0  0  0
   37.0900   25.8190   40.6930 C   0  0  0  0  0  0  0  0  0  0  0  0
   38.0850   25.1610   41.3760 C   0  0  0  0  0  0  0  0  0  0  0  0
   38.7920   25.8460   42.3250 C   0  0  0  0  0  0  0  0  0  0  0  0
   38.5880   27.1350   42.6490 N   0  0  0  0  0  0  0  0  0  0  0  0
   36.1410   27.7450   40.5610 H   0  0  0  0  0  0  0  0  0  0  0  0
   36.4720   25.3690   39.9230 H   0  0  0  0  0  0  0  0  0  0  0  0
   39.8520   25.0400   43.0120 C   0  0  0  0  0  0  0  0  0  0  0  0
   40.9150   24.8220   42.1210 F   0  0  0  0  0  0  0  0  0  0  0  0
   39.3800   23.8920   43.5900 F   0  0  0  0  0  0  0  0  0  0  0  0
   40.3960   25.8000   44.0540 F   0  0  0  0  0  0  0  0  0  0  0  0
   38.4040   23.4480   40.9880 S   0  0  0  0  0  0  0  0  0  0  0  0
   39.0490   23.1970   39.3470 C   0  0  0  0  0  2  0  0  0  0  0  0
   40.1970   24.0580   38.9700 C   0  0  0  0  0  2  0  0  0  0  0  0
   41.0040   23.4770   38.4330 H   0  0  0  0  0  0  0  0  0  0  0  0
  1  2  1  0  0  0  0
  3  1  1  0  0  0  0
  4  8  1  0  0  0  0
  5  4  2  0  0  0  0
  5  6  1  0  0  0  0
  6  7  1  0  0  0  0
  7  1  1  0  0  0  0
  8  7  2  0  0  0  0
  9  5  1  0  0  0  0
 10 11  2  0  0  0  0
 10 15  1  0  0  0  0
 11 12  1  0  0  0  0
 12  4  1  0  0  0  0
 12 13  2  0  0  0  0
 14 13  1  0  0  0  0
 14 17  1  0  0  0  0
 15 14  2  0  0  0  0
 16 10  1  0  0  0  0
 18 11  1  0  0  0  0
 19 18  1  0  0  0  0
 20 18  1  0  0  0  0
 21  1  1  0  0  0  0
 21 22  1  0  0  0  0
 23 21  1  0  0  0  0
 24 21  1  0  0  0  0
 24 29  1  0  0  0  0
 25 24  2  0  0  0  0
 26 25  1  0  0  0  0
 26 27  2  0  0  0  0
 27 28  1  0  0  0  0
 28 29  2  0  0  0  0
 28 32  1  0  0  0  0
 30 25  1  0  0  0  0
 31 26  1  0  0  0  0
 32 34  1  0  0  0  0
 32 35  1  0  0  0  0
 33 32  1  0  0  0  0
 36 27  1  0  0  0  0
 37 36  1  0  0  0  0
 38 37  1  0  0  0  0
 39 38  1  0  0  0  0
M  END
>  <minimizedAffinity>
-5.83658552

$$$$

 OpenBabel03242522203D

 39 41  0  0  0  0  0  0  0  0999 V2000
   38.1280   32.5060   39.2850 C   0  0  0  0  0  0  0  0  0  0  0  0
   38.6170   31.5790   38.9190 H   0  0  0  0  0  0  0  0  0  0  0  0
   37.6700   32.9850   38.3700 H   0  0  0  0  0  0  0  0  0  0  0  0
   41.2850   34.0390   40.4890 C   0  0  0  0  0  0  0  0  0  0  0  0
   40.8390   35.2860   40.7480 C   0  0  0  0  0  0  0  0  0  0  0  0
   39.0520   35.1450   40.2800 S   0  0  0  0  0  0  0  0  0  0  0  0
   39.2440   33.3610   39.8020 C   0  0  0  0  0  0  0  0  0  0  0  0
   40.3610   33.2570   40.0390 N   0  0  0  0  0  0  0  0  0  0  0  0
   41.3560   36.1440   41.1230 H   0  0  0  0  0  0  0  0  0  0  0  0
   44.3980   32.4110   41.8530 C   0  0  0  0  0  0  0  0  0  0  0  0
   43.0530   32.7740   41.7170 C   0  0  0  0  0  0  0  0  0  0  0  0
   42.6780   33.6140   40.6960 C   0  0  0  0  0  0  0  0  0  0  0  0
   43.6970   34.0480   39.8570 N   0  0  0  0  0  0  0  0  0  0  0  0
   44.9670   33.6770   40.0250 C   0  0  0  0  0  0  0  0  0  0  0  0
   45.3280   32.8530   41.0270 N   0  0  0  0  0  0  0  0  0  0  0  0
   44.6850   31.7450   42.6650 H   0  0  0  0  0  0  0  0  0  0  0  0
   45.7020   34.0570   39.3280 H   0  0  0  0  0  0  0  0  0  0  0  0
   42.1430   32.2340   42.6700 N   0  0  0  0  0  0  0  0  0  0  0  0
   41.4310   31.4780   42.4850 H   0  0  0  0  0  0  0  0  0  0  0  0
   42.1310   32.5750   43.6550 H   0  0  0  0  0  0  0  0  0  0  0  0
   37.1020   32.2620   40.3490 C   0  0  0  0  0  0  0  0  0  0  0  0
   37.4300   32.8740   41.2380 H   0  0  0  0  0  0  0  0  0  0  0  0
   36.1480   32.7210   40.0160 H   0  0  0  0  0  0  0  0  0  0  0  0
   36.9470   30.8960   40.7860 C   0  0  0  0  0  0  0  0  0  0  0  0
   35.9080   30.0270   40.6210 C   0  0  0  0  0  0  0  0  0  0  0  0
   35.8210   28.7250   41.0650 C   0  0  0  0  0  0  0  0  0  0  0  0
   36.9260   28.2780   41.7510 C   0  0  0  0  0  0  0  0  0  0  0  0
   37.9780   29.1340   41.9270 C   0  0  0  0  0  0  0  0  0  0  0  0
   38.0190   30.4000   41.4750 N   0  0  0  0  0  0  0  0  0  0  0  0
   35.0670   30.4700   40.0600 H   0  0  0  0  0  0  0  0  0  0  0  0
   34.9360   28.1280   40.8710 H   0  0  0  0  0  0  0  0  0  0  0  0
   39.1310   28.5520   42.6870 C   0  0  0  0  0  0  0  0  0  0  0  0
   39.8140   27.6440   41.8630 F   0  0  0  0  0  0  0  0  0  0  0  0
   38.7790   28.0270   43.9020 F   0  0  0  0  0  0  0  0  0  0  0  0
   40.0540   29.5680   42.9600 F   0  0  0  0  0  0  0  0  0  0  0  0
   36.9310   26.6050   42.3740 S   0  0  0  0  0  0  0  0  0  0  0  0
   37.2180   25.3780   41.1160 C   0  0  0  0  0  2  0  0  0  0  0  0
   37.6050   24.0330   41.6090 C   0  0  0  0  0  2  0  0  0  0  0  0
   37.0610   23.2080   41.0590 H   0  0  0  0  0  0  0  0  0  0  0  0
  1  7  1  0  0  0  0
  1 21  1  0  0  0  0
  2  1  1  0  0  0  0
  3  1  1  0  0  0  0
  4 12  1  0  0  0  0
  4  5  2  0  0  0  0
  5  9  1  0  0  0  0
  6  5  1  0  0  0  0
  7  8  2  0  0  0  0
  7  6  1  0  0  0  0
  8  4  1  0  0  0  0
 10 16  1  0  0  0  0
 11 10  1  0  0  0  0
 11 18  1  0  0  0  0
 12 11  2  0  0  0  0
 13 14  2  0  0  0  0
 13 12  1  0  0  0  0
 14 15  1  0  0  0  0
 15 10  2  0  0  0  0
 17 14  1  0  0  0  0
 18 20  1  0  0  0  0
 19 18  1  0  0  0  0
 21 24  1  0  0  0  0
 21 22  1  0  0  0  0
 23 21  1  0  0  0  0
 24 29  1  0  0  0  0
 25 24  2  0  0  0  0
 25 26  1  0  0  0  0
 26 27  2  0  0  0  0
 27 28  1  0  0  0  0
 27 36  1  0  0  0  0
 28 32  1  0  0  0  0
 29 28  2  0  0  0  0
 30 25  1  0  0  0  0
 31 26  1  0  0  0  0
 32 35  1  0  0  0  0
 32 34  1  0  0  0  0
 33 32  1  0  0  0  0
 37 38  1  0  0  0  0
 37 36  1  0  0  0  0
 39 38  1  0  0  0  0
M  END
>  <minimizedAffinity>
-5.73795223

$$$$

 OpenBabel03242522203D

 39 41  0  0  0  0  0  0  0  0999 V2000
   36.0060   29.2880   37.0930 C   0  0  0  0  0  0  0  0  0  0  0  0
   36.8990   28.6660   36.8790 H   0  0  0  0  0  0  0  0  0  0  0  0
   35.8990   29.9760   36.2040 H   0  0  0  0  0  0  0  0  0  0  0  0
   37.3260   31.6090   39.6700 C   0  0  0  0  0  0  0  0  0  0  0  0
   36.6350   31.1660   40.7410 C   0  0  0  0  0  0  0  0  0  0  0  0
   35.6370   29.7940   39.9950 S   0  0  0  0  0  0  0  0  0  0  0  0
   36.3640   30.0840   38.3110 C   0  0  0  0  0  0  0  0  0  0  0  0
   37.0550   30.9560   38.5900 N   0  0  0  0  0  0  0  0  0  0  0  0
   36.6420   31.4980   41.7570 H   0  0  0  0  0  0  0  0  0  0  0  0
   40.4640   33.6850   39.4390 C   0  0  0  0  0  0  0  0  0  0  0  0
   39.6050   32.5810   39.3590 C   0  0  0  0  0  0  0  0  0  0  0  0
   38.2880   32.7210   39.7260 C   0  0  0  0  0  0  0  0  0  0  0  0
   37.9050   33.9850   40.1590 N   0  0  0  0  0  0  0  0  0  0  0  0
   38.7580   35.0080   40.2190 C   0  0  0  0  0  0  0  0  0  0  0  0
   40.0480   34.8650   39.8580 N   0  0  0  0  0  0  0  0  0  0  0  0
   41.5050   33.5630   39.1460 H   0  0  0  0  0  0  0  0  0  0  0  0
   38.3820   35.9610   40.5660 H   0  0  0  0  0  0  0  0  0  0  0  0
   40.1700   31.3610   38.8930 N   0  0  0  0  0  0  0  0  0  0  0  0
   39.9970   30.9200   37.9500 H   0  0  0  0  0  0  0  0  0  0  0  0
   40.8200   30.8060   39.4900 H   0  0  0  0  0  0  0  0  0  0  0  0
   34.7590   28.4890   37.3240 C   0  0  0  0  0  0  0  0  0  0  0  0
   34.9530   27.4770   36.8660 H   0  0  0  0  0  0  0  0  0  0  0  0
   34.6700   28.3020   38.4150 H   0  0  0  0  0  0  0  0  0  0  0  0
   33.5480   29.0140   36.7420 C   0  0  0  0  0  0  0  0  0  0  0  0
   33.2200   29.2440   35.4380 C   0  0  0  0  0  0  0  0  0  0  0  0
   32.0370   29.7510   34.9450 C   0  0  0  0  0  0  0  0  0  0  0  0
   31.0980   30.0500   35.9020 C   0  0  0  0  0  0  0  0  0  0  0  0
   31.4060   29.8270   37.2160 C   0  0  0  0  0  0  0  0  0  0  0  0
   32.5770   29.3300   37.6530 N   0  0  0  0  0  0  0  0  0  0  0  0
   34.0330   28.9750   34.7410 H   0  0  0  0  0  0  0  0  0  0  0  0
   31.8930   29.8910   33.8780 H   0  0  0  0  0  0  0  0  0  0  0  0
   30.3170   30.1860   38.1800 C   0  0  0  0  0  0  0  0  0  0  0  0
   29.1780   29.4170   37.8940 F   0  0  0  0  0  0  0  0  0  0  0  0
   30.0640   31.5300   38.2470 F   0  0  0  0  0  0  0  0  0  0  0  0
   30.7060   29.8020   39.4680 F   0  0  0  0  0  0  0  0  0  0  0  0
   29.5230   30.7120   35.3830 S   0  0  0  0  0  0  0  0  0  0  0  0
   29.6220   32.3750   34.7540 C   0  0  0  0  0  2  0  0  0  0  0  0
   30.1470   32.5090   33.3740 C   0  0  0  0  0  2  0  0  0  0  0  0
   29.5450   33.2440   32.7600 H   0  0  0  0  0  0  0  0  0  0  0  0
  1 21  1  0  0  0  0
  1  7  1  0  0  0  0
  2  1  1  0  0  0  0
  3  1  1  0  0  0  0
  4 12  1  0  0  0  0
  4  5  2  0  0  0  0
  5  9  1  0  0  0  0
  6  5  1  0  0  0  0
  7  8  2  0  0  0  0
  7  6  1  0  0  0  0
  8  4  1  0  0  0  0
 10 15  1  0  0  0  0
 11 10  2  0  0  0  0
 11 12  1  0  0  0  0
 12 13  2  0  0  0  0
 13 14  1  0  0  0  0
 14 17  1  0  0  0  0
 15 14  2  0  0  0  0
 16 10  1  0  0  0  0
 18 11  1  0  0  0  0
 18 20  1  0  0  0  0
 19 18  1  0  0  0  0
 21 23  1  0  0  0  0
 22 21  1  0  0  0  0
 24 21  1  0  0  0  0
 24 29  1  0  0  0  0
 25 24  2  0  0  0  0
 26 25  1  0  0  0  0
 26 27  2  0  0  0  0
 27 28  1  0  0  0  0
 28 29  2  0  0  0  0
 28 32  1  0  0  0  0
 30 25  1  0  0  0  0
 31 26  1  0  0  0  0
 32 34  1  0  0  0  0
 32 35  1  0  0  0  0
 33 32  1  0  0  0  0
 36 27  1  0  0  0  0
 37 36  1  0  0  0  0
 38 37  1  0  0  0  0
 39 38  1  0  0  0  0
M  END
>  <minimizedAffinity>
-5.67811012

$$$$

 OpenBabel03242522203D

 39 41  0  0  0  0  0  0  0  0999 V2000
   38.2130   31.5760   38.5160 C   0  0  0  0  0  0  0  0  0  0  0  0
   37.6920   32.0570   37.6630 H   0  0  0  0  0  0  0  0  0  0  0  0
   37.4020   31.3390   39.2670 H   0  0  0  0  0  0  0  0  0  0  0  0
   40.9770   33.8270   39.5470 C   0  0  0  0  0  0  0  0  0  0  0  0
   40.2730   34.7200   40.2750 C   0  0  0  0  0  0  0  0  0  0  0  0
   38.5540   34.0470   40.1250 S   0  0  0  0  0  0  0  0  0  0  0  0
   39.1230   32.6310   39.0670 C   0  0  0  0  0  0  0  0  0  0  0  0
   40.2390   32.8930   39.0470 N   0  0  0  0  0  0  0  0  0  0  0  0
   40.5960   35.5910   40.8050 H   0  0  0  0  0  0  0  0  0  0  0  0
   44.3970   34.0470   37.9800 C   0  0  0  0  0  0  0  0  0  0  0  0
   43.0030   33.9710   38.0960 C   0  0  0  0  0  0  0  0  0  0  0  0
   42.4310   33.9080   39.3440 C   0  0  0  0  0  0  0  0  0  0  0  0
   43.3090   33.9260   40.4210 N   0  0  0  0  0  0  0  0  0  0  0  0
   44.6320   33.9990   40.2630 C   0  0  0  0  0  0  0  0  0  0  0  0
   45.1870   34.0610   39.0370 N   0  0  0  0  0  0  0  0  0  0  0  0
   44.8400   34.0970   36.9870 H   0  0  0  0  0  0  0  0  0  0  0  0
   45.2490   34.0100   41.1510 H   0  0  0  0  0  0  0  0  0  0  0  0
   42.2580   33.9630   36.8840 N   0  0  0  0  0  0  0  0  0  0  0  0
   41.6730   34.7590   36.5130 H   0  0  0  0  0  0  0  0  0  0  0  0
   42.2470   33.1250   36.2650 H   0  0  0  0  0  0  0  0  0  0  0  0
   38.9840   30.3490   38.1340 C   0  0  0  0  0  0  0  0  0  0  0  0
   38.6390   30.0790   37.0950 H   0  0  0  0  0  0  0  0  0  0  0  0
   40.0500   30.6380   38.0210 H   0  0  0  0  0  0  0  0  0  0  0  0
   38.8010   29.1920   38.9770 C   0  0  0  0  0  0  0  0  0  0  0  0
   39.1580   27.8900   38.7820 C   0  0  0  0  0  0  0  0  0  0  0  0
   38.9520   26.8240   39.6320 C   0  0  0  0  0  0  0  0  0  0  0  0
   38.3120   27.1420   40.8050 C   0  0  0  0  0  0  0  0  0  0  0  0
   37.9450   28.4420   41.0210 C   0  0  0  0  0  0  0  0  0  0  0  0
   38.1660   29.4520   40.1600 N   0  0  0  0  0  0  0  0  0  0  0  0
   39.6660   27.7280   37.8150 H   0  0  0  0  0  0  0  0  0  0  0  0
   39.2840   25.8270   39.3640 H   0  0  0  0  0  0  0  0  0  0  0  0
   37.2530   28.6840   42.3270 C   0  0  0  0  0  0  0  0  0  0  0  0
   38.1880   28.5840   43.3690 F   0  0  0  0  0  0  0  0  0  0  0  0
   36.1430   27.9030   42.5130 F   0  0  0  0  0  0  0  0  0  0  0  0
   36.8020   30.0090   42.3640 F   0  0  0  0  0  0  0  0  0  0  0  0
   37.9920   25.8440   41.9880 S   0  0  0  0  0  0  0  0  0  0  0  0
   39.4680   25.1610   42.7130 C   0  0  0  0  0  2  0  0  0  0  0  0
   40.0590   25.9460   43.8240 C   0  0  0  0  0  2  0  0  0  0  0  0
   40.3800   25.2860   44.6850 H   0  0  0  0  0  0  0  0  0  0  0  0
  1  7  1  0  0  0  0
  1  3  1  0  0  0  0
  2  1  1  0  0  0  0
  4  5  2  0  0  0  0
  5  9  1  0  0  0  0
  6  5  1  0  0  0  0
  7  6  1  0  0  0  0
  8  7  2  0  0  0  0
  8  4  1  0  0  0  0
 10 11  2  0  0  0  0
 10 15  1  0  0  0  0
 11 12  1  0  0  0  0
 12  4  1  0  0  0  0
 12 13  2  0  0  0  0
 14 13  1  0  0  0  0
 14 17  1  0  0  0  0
 15 14  2  0  0  0  0
 16 10  1  0  0  0  0
 18 11  1  0  0  0  0
 19 18  1  0  0  0  0
 20 18  1  0  0  0  0
 21  1  1  0  0  0  0
 21 24  1  0  0  0  0
 22 21  1  0  0  0  0
 23 21  1  0  0  0  0
 24 29  1  0  0  0  0
 25 24  2  0  0  0  0
 25 26  1  0  0  0  0
 26 27  2  0  0  0  0
 27 28  1  0  0  0  0
 27 36  1  0  0  0  0
 28 32  1  0  0  0  0
 29 28  2  0  0  0  0
 30 25  1  0  0  0  0
 31 26  1  0  0  0  0
 32 35  1  0  0  0  0
 32 34  1  0  0  0  0
 32 33  1  0  0  0  0
 36 37  1  0  0  0  0
 37 38  1  0  0  0  0
 38 39  1  0  0  0  0
M  END
>  <minimizedAffinity>
-5.63827658

$$$$

 OpenBabel03242522203D

 39 41  0  0  0  0  0  0  0  0999 V2000
   37.5920   32.1960   39.5670 C   0  0  0  0  0  0  0  0  0  0  0  0
   37.9970   31.5210   38.7850 H   0  0  0  0  0  0  0  0  0  0  0  0
   36.7650   32.7770   39.0620 H   0  0  0  0  0  0  0  0  0  0  0  0
   40.7790   33.8870   40.4320 C   0  0  0  0  0  0  0  0  0  0  0  0
   40.3410   35.1620   40.5000 C   0  0  0  0  0  0  0  0  0  0  0  0
   38.5430   34.9560   40.1040 S   0  0  0  0  0  0  0  0  0  0  0  0
   38.7210   33.1180   39.9130 C   0  0  0  0  0  0  0  0  0  0  0  0
   39.8440   33.0480   40.1360 N   0  0  0  0  0  0  0  0  0  0  0  0
   40.8680   36.0660   40.7190 H   0  0  0  0  0  0  0  0  0  0  0  0
   43.8860   32.2420   41.7920 C   0  0  0  0  0  0  0  0  0  0  0  0
   42.5340   32.5670   41.6210 C   0  0  0  0  0  0  0  0  0  0  0  0
   42.1770   33.4940   40.6710 C   0  0  0  0  0  0  0  0  0  0  0  0
   43.2170   34.0490   39.9370 N   0  0  0  0  0  0  0  0  0  0  0  0
   44.4920   33.7100   40.1350 C   0  0  0  0  0  0  0  0  0  0  0  0
   44.8360   32.8000   41.0670 N   0  0  0  0  0  0  0  0  0  0  0  0
   44.1580   31.5070   42.5470 H   0  0  0  0  0  0  0  0  0  0  0  0
   45.2440   34.1860   39.5210 H   0  0  0  0  0  0  0  0  0  0  0  0
   41.6020   31.8990   42.4630 N   0  0  0  0  0  0  0  0  0  0  0  0
   40.9320   31.1410   42.1640 H   0  0  0  0  0  0  0  0  0  0  0  0
   41.5250   32.1360   43.4760 H   0  0  0  0  0  0  0  0  0  0  0  0
   37.0960   31.4760   40.7840 C   0  0  0  0  0  0  0  0  0  0  0  0
   37.3710   32.1290   41.6610 H   0  0  0  0  0  0  0  0  0  0  0  0
   35.9860   31.4800   40.7540 H   0  0  0  0  0  0  0  0  0  0  0  0
   37.6470   30.1640   41.0180 C   0  0  0  0  0  0  0  0  0  0  0  0
   38.4930   29.4100   40.2570 C   0  0  0  0  0  0  0  0  0  0  0  0
   38.9870   28.1550   40.5400 C   0  0  0  0  0  0  0  0  0  0  0  0
   38.5590   27.6260   41.7340 C   0  0  0  0  0  0  0  0  0  0  0  0
   37.7110   28.3650   42.5120 C   0  0  0  0  0  0  0  0  0  0  0  0
   37.2530   29.5890   42.1950 N   0  0  0  0  0  0  0  0  0  0  0  0
   38.7840   29.9140   39.3190 H   0  0  0  0  0  0  0  0  0  0  0  0
   39.6580   27.6530   39.8510 H   0  0  0  0  0  0  0  0  0  0  0  0
   37.3030   27.7000   43.7910 C   0  0  0  0  0  0  0  0  0  0  0  0
   36.6560   28.6380   44.6120 F   0  0  0  0  0  0  0  0  0  0  0  0
   38.3260   27.0420   44.4180 F   0  0  0  0  0  0  0  0  0  0  0  0
   36.3350   26.7280   43.5100 F   0  0  0  0  0  0  0  0  0  0  0  0
   39.1340   26.0040   42.2100 S   0  0  0  0  0  0  0  0  0  0  0  0
   40.8960   25.9140   42.4450 C   0  0  0  0  0  2  0  0  0  0  0  0
   41.3860   26.3130   43.7870 C   0  0  0  0  0  2  0  0  0  0  0  0
   42.1760   25.6050   44.1790 H   0  0  0  0  0  0  0  0  0  0  0  0
  1  7  1  0  0  0  0
  1 21  1  0  0  0  0
  2  1  1  0  0  0  0
  3  1  1  0  0  0  0
  4  5  2  0  0  0  0
  4 12  1  0  0  0  0
  5  9  1  0  0  0  0
  6  5  1  0  0  0  0
  7  6  1  0  0  0  0
  7  8  2  0  0  0  0
  8  4  1  0  0  0  0
 10 16  1  0  0  0  0
 11 10  1  0  0  0  0
 11 18  1  0  0  0  0
 12 11  2  0  0  0  0
 13 14  2  0  0  0  0
 13 12  1  0  0  0  0
 14 15  1  0  0  0  0
 15 10  2  0  0  0  0
 17 14  1  0  0  0  0
 18 20  1  0  0  0  0
 19 18  1  0  0  0  0
 21 24  1  0  0  0  0
 21 22  1  0  0  0  0
 23 21  1  0  0  0  0
 24 29  1  0  0  0  0
 25 26  1  0  0  0  0
 25 24  2  0  0  0  0
 26 27  2  0  0  0  0
 27 36  1  0  0  0  0
 27 28  1  0  0  0  0
 28 32  1  0  0  0  0
 29 28  2  0  0  0  0
 30 25  1  0  0  0  0
 31 26  1  0  0  0  0
 32 34  1  0  0  0  0
 32 33  1  0  0  0  0
 35 32  1  0  0  0  0
 36 37  1  0  0  0  0
 37 38  1  0  0  0  0
 38 39  1  0  0  0  0
M  END
>  <minimizedAffinity>
-5.5968914

$$$$
