
 OpenBabel03242520033D

 19 20  0  0  0  0  0  0  0  0999 V2000
   37.1380   30.4110   41.0760 C   0  0  0  0  0  0  0  0  0  0  0  0
   36.0540   29.7930   40.4410 C   0  0  0  0  0  0  0  0  0  0  0  0
   35.8080   28.6040   41.0490 C   0  0  0  0  0  0  0  0  0  0  0  0
   36.7150   28.4930   42.0320 N   0  0  0  0  0  0  0  0  0  0  0  0
   37.5010   29.5770   42.0360 N   0  0  0  0  0  0  0  0  0  0  0  0
   35.5030   30.2120   39.5920 H   0  0  0  0  0  0  0  0  0  0  0  0
   35.0230   27.9160   40.7590 H   0  0  0  0  0  0  0  0  0  0  0  0
   39.4720   33.2220   40.8030 C   0  0  0  0  0  0  0  0  0  0  0  0
   38.7660   34.1460   40.0170 C   0  0  0  0  0  0  0  0  0  0  0  0
   37.4770   33.7770   39.5910 C   0  0  0  0  0  0  0  0  0  0  0  0
   36.9950   32.5590   39.9580 N   0  0  0  0  0  0  0  0  0  0  0  0
   37.6960   31.6980   40.7110 C   0  0  0  0  0  0  0  0  0  0  0  0
   38.9390   32.0260   41.1370 N   0  0  0  0  0  0  0  0  0  0  0  0
   40.4520   33.5300   41.1150 H   0  0  0  0  0  0  0  0  0  0  0  0
   39.2100   35.0990   39.7610 H   0  0  0  0  0  0  0  0  0  0  0  0
   36.8990   34.4670   38.9810 H   0  0  0  0  0  0  0  0  0  0  0  0
   36.7740   27.3430   42.9150 C   0  0  0  0  0  2  0  0  0  0  0  0
   38.1590   27.3050   43.5120 C   0  0  0  0  0  2  0  0  0  0  0  0
   38.1150   27.0890   44.6050 H   0  0  0  0  0  0  0  0  0  0  0  0
  1  5  2  0  0  0  0
  2  3  2  0  0  0  0
  2  1  1  0  0  0  0
  3  4  1  0  0  0  0
  4  5  1  0  0  0  0
  4 17  1  0  0  0  0
  6  2  1  0  0  0  0
  7  3  1  0  0  0  0
  8 14  1  0  0  0  0
  8 13  1  0  0  0  0
  9  8  2  0  0  0  0
 10 11  2  0  0  0  0
 10  9  1  0  0  0  0
 11 12  1  0  0  0  0
 12  1  1  0  0  0  0
 12 13  2  0  0  0  0
 15  9  1  0  0  0  0
 16 10  1  0  0  0  0
 17 18  1  0  0  0  0
 18 19  1  0  0  0  0
M  END
>  <minimizedAffinity>
-3.99131632

$$$$

 OpenBabel03242520033D

 19 20  0  0  0  0  0  0  0  0999 V2000
   37.1670   30.3210   41.1340 C   0  0  0  0  0  0  0  0  0  0  0  0
   36.1850   29.6300   40.4160 C   0  0  0  0  0  0  0  0  0  0  0  0
   35.9000   28.4710   41.0630 C   0  0  0  0  0  0  0  0  0  0  0  0
   36.6850   28.4490   42.1510 N   0  0  0  0  0  0  0  0  0  0  0  0
   37.4340   29.5580   42.1810 N   0  0  0  0  0  0  0  0  0  0  0  0
   35.7280   29.9790   39.4830 H   0  0  0  0  0  0  0  0  0  0  0  0
   35.1740   27.7400   40.7260 H   0  0  0  0  0  0  0  0  0  0  0  0
   37.5070   33.6530   39.6480 C   0  0  0  0  0  0  0  0  0  0  0  0
   38.7960   34.0460   40.0410 C   0  0  0  0  0  0  0  0  0  0  0  0
   39.5360   33.1390   40.8230 C   0  0  0  0  0  0  0  0  0  0  0  0
   38.9650   31.9490   41.1500 N   0  0  0  0  0  0  0  0  0  0  0  0
   37.7300   31.6030   40.7580 C   0  0  0  0  0  0  0  0  0  0  0  0
   36.9940   32.4540   40.0060 N   0  0  0  0  0  0  0  0  0  0  0  0
   36.9660   34.3640   39.0530 H   0  0  0  0  0  0  0  0  0  0  0  0
   39.1890   35.0090   39.7460 H   0  0  0  0  0  0  0  0  0  0  0  0
   40.5380   33.4080   41.1460 H   0  0  0  0  0  0  0  0  0  0  0  0
   36.6690   27.3550   43.1050 C   0  0  0  0  0  2  0  0  0  0  0  0
   37.1740   26.1270   42.3890 C   0  0  0  0  0  2  0  0  0  0  0  0
   37.8960   25.5650   43.0270 H   0  0  0  0  0  0  0  0  0  0  0  0
  1  5  2  0  0  0  0
  2  3  2  0  0  0  0
  2  1  1  0  0  0  0
  3  4  1  0  0  0  0
  4  5  1  0  0  0  0
  4 17  1  0  0  0  0
  6  2  1  0  0  0  0
  7  3  1  0  0  0  0
  8 13  2  0  0  0  0
  8  9  1  0  0  0  0
  9 10  2  0  0  0  0
 10 16  1  0  0  0  0
 10 11  1  0  0  0  0
 12  1  1  0  0  0  0
 12 11  2  0  0  0  0
 13 12  1  0  0  0  0
 14  8  1  0  0  0  0
 15  9  1  0  0  0  0
 18 19  1  0  0  0  0
 18 17  1  0  0  0  0
M  END
>  <minimizedAffinity>
-3.97285938

$$$$

 OpenBabel03242520033D

 19 20  0  0  0  0  0  0  0  0999 V2000
   37.7640   30.8650   41.1370 C   0  0  0  0  0  0  0  0  0  0  0  0
   36.8730   31.5200   40.2790 C   0  0  0  0  0  0  0  0  0  0  0  0
   37.4050   32.7180   39.9250 C   0  0  0  0  0  0  0  0  0  0  0  0
   38.5910   32.7990   40.5490 N   0  0  0  0  0  0  0  0  0  0  0  0
   38.7910   31.6860   41.2670 N   0  0  0  0  0  0  0  0  0  0  0  0
   35.9070   31.1190   39.9530 H   0  0  0  0  0  0  0  0  0  0  0  0
   36.9260   33.4340   39.2680 H   0  0  0  0  0  0  0  0  0  0  0  0
   36.8770   27.3260   41.4830 C   0  0  0  0  0  0  0  0  0  0  0  0
   37.1350   27.0650   42.8380 C   0  0  0  0  0  0  0  0  0  0  0  0
   37.6170   28.1320   43.6190 C   0  0  0  0  0  0  0  0  0  0  0  0
   37.8040   29.3400   43.0230 N   0  0  0  0  0  0  0  0  0  0  0  0
   37.5470   29.5570   41.7250 C   0  0  0  0  0  0  0  0  0  0  0  0
   37.0820   28.5500   40.9480 N   0  0  0  0  0  0  0  0  0  0  0  0
   36.5090   26.4950   40.9120 H   0  0  0  0  0  0  0  0  0  0  0  0
   36.9640   26.0790   43.2480 H   0  0  0  0  0  0  0  0  0  0  0  0
   37.8290   27.9680   44.6730 H   0  0  0  0  0  0  0  0  0  0  0  0
   39.4670   33.9480   40.4170 C   0  0  0  0  0  2  0  0  0  0  0  0
   40.4960   33.6100   39.3660 C   0  0  0  0  0  2  0  0  0  0  0  0
   40.6490   34.4680   38.6700 H   0  0  0  0  0  0  0  0  0  0  0  0
  1  5  2  0  0  0  0
  1 12  1  0  0  0  0
  2  1  1  0  0  0  0
  3  2  2  0  0  0  0
  3  4  1  0  0  0  0
  4  5  1  0  0  0  0
  6  2  1  0  0  0  0
  7  3  1  0  0  0  0
  8  9  1  0  0  0  0
  9 15  1  0  0  0  0
  9 10  2  0  0  0  0
 10 16  1  0  0  0  0
 11 10  1  0  0  0  0
 12 11  2  0  0  0  0
 13  8  2  0  0  0  0
 13 12  1  0  0  0  0
 14  8  1  0  0  0  0
 17  4  1  0  0  0  0
 18 17  1  0  0  0  0
 19 18  1  0  0  0  0
M  END
>  <minimizedAffinity>
-3.92566967

$$$$

 OpenBabel03242520033D

 19 20  0  0  0  0  0  0  0  0999 V2000
   38.4840   30.5290   41.5870 C   0  0  0  0  0  0  0  0  0  0  0  0
   39.8110   30.9350   41.7660 C   0  0  0  0  0  0  0  0  0  0  0  0
   39.9550   32.1950   41.2810 C   0  0  0  0  0  0  0  0  0  0  0  0
   38.7490   32.5560   40.8160 N   0  0  0  0  0  0  0  0  0  0  0  0
   37.8810   31.5530   41.0060 N   0  0  0  0  0  0  0  0  0  0  0  0
   40.5970   30.3240   42.2240 H   0  0  0  0  0  0  0  0  0  0  0  0
   40.8820   32.7550   41.2890 H   0  0  0  0  0  0  0  0  0  0  0  0
   37.2940   27.7650   43.6790 C   0  0  0  0  0  0  0  0  0  0  0  0
   36.9140   26.7960   42.7370 C   0  0  0  0  0  0  0  0  0  0  0  0
   37.0790   27.1180   41.3780 C   0  0  0  0  0  0  0  0  0  0  0  0
   37.5900   28.3370   41.0570 N   0  0  0  0  0  0  0  0  0  0  0  0
   37.9440   29.2420   41.9810 C   0  0  0  0  0  0  0  0  0  0  0  0
   37.7970   28.9610   43.2970 N   0  0  0  0  0  0  0  0  0  0  0  0
   37.1580   27.4930   44.7080 H   0  0  0  0  0  0  0  0  0  0  0  0
   36.5140   25.8450   43.0620 H   0  0  0  0  0  0  0  0  0  0  0  0
   36.7960   26.3920   40.6200 H   0  0  0  0  0  0  0  0  0  0  0  0
   38.4980   33.8510   40.2130 C   0  0  0  0  0  2  0  0  0  0  0  0
   37.2120   33.7430   39.4320 C   0  0  0  0  0  2  0  0  0  0  0  0
   36.5650   34.6330   39.6070 H   0  0  0  0  0  0  0  0  0  0  0  0
  1  2  1  0  0  0  0
  1 12  1  0  0  0  0
  2  6  1  0  0  0  0
  3  7  1  0  0  0  0
  3  2  2  0  0  0  0
  4  5  1  0  0  0  0
  4  3  1  0  0  0  0
  5  1  2  0  0  0  0
  8 14  1  0  0  0  0
  9 15  1  0  0  0  0
  9  8  2  0  0  0  0
 10  9  1  0  0  0  0
 11 10  2  0  0  0  0
 11 12  1  0  0  0  0
 12 13  2  0  0  0  0
 13  8  1  0  0  0  0
 16 10  1  0  0  0  0
 17  4  1  0  0  0  0
 18 19  1  0  0  0  0
 18 17  1  0  0  0  0
M  END
>  <minimizedAffinity>
-3.85755038

$$$$

 OpenBabel03242520033D

 19 20  0  0  0  0  0  0  0  0999 V2000
   38.0160   29.1050   42.0470 C   0  0  0  0  0  0  0  0  0  0  0  0
   37.7290   28.8470   43.3920 C   0  0  0  0  0  0  0  0  0  0  0  0
   37.8110   27.5090   43.6100 C   0  0  0  0  0  0  0  0  0  0  0  0
   38.1400   26.9590   42.4310 N   0  0  0  0  0  0  0  0  0  0  0  0
   38.2600   27.9230   41.5090 N   0  0  0  0  0  0  0  0  0  0  0  0
   37.4790   29.6100   44.1380 H   0  0  0  0  0  0  0  0  0  0  0  0
   37.6340   27.0290   44.5650 H   0  0  0  0  0  0  0  0  0  0  0  0
   39.1360   32.4450   41.0380 C   0  0  0  0  0  0  0  0  0  0  0  0
   38.0630   32.9210   40.2670 C   0  0  0  0  0  0  0  0  0  0  0  0
   36.9560   32.0670   40.1080 C   0  0  0  0  0  0  0  0  0  0  0  0
   36.9890   30.8440   40.7030 N   0  0  0  0  0  0  0  0  0  0  0  0
   38.0300   30.4190   41.4330 C   0  0  0  0  0  0  0  0  0  0  0  0
   39.1100   31.2180   41.6040 N   0  0  0  0  0  0  0  0  0  0  0  0
   39.9670   33.1170   41.1420 H   0  0  0  0  0  0  0  0  0  0  0  0
   38.1040   33.9050   39.8210 H   0  0  0  0  0  0  0  0  0  0  0  0
   36.1060   32.4010   39.5180 H   0  0  0  0  0  0  0  0  0  0  0  0
   38.3220   25.5290   42.2580 C   0  0  0  0  0  2  0  0  0  0  0  0
   36.9490   24.9080   42.1800 C   0  0  0  0  0  2  0  0  0  0  0  0
   36.9020   24.1530   41.3600 H   0  0  0  0  0  0  0  0  0  0  0  0
  1  2  1  0  0  0  0
  2  3  2  0  0  0  0
  2  6  1  0  0  0  0
  3  7  1  0  0  0  0
  4  3  1  0  0  0  0
  5  1  2  0  0  0  0
  5  4  1  0  0  0  0
  8 14  1  0  0  0  0
  8 13  1  0  0  0  0
  9  8  2  0  0  0  0
 10  9  1  0  0  0  0
 10 11  2  0  0  0  0
 11 12  1  0  0  0  0
 12 13  2  0  0  0  0
 12  1  1  0  0  0  0
 15  9  1  0  0  0  0
 16 10  1  0  0  0  0
 17  4  1  0  0  0  0
 18 17  1  0  0  0  0
 19 18  1  0  0  0  0
M  END
>  <minimizedAffinity>
-3.83265948

$$$$

 OpenBabel03242520033D

 19 20  0  0  0  0  0  0  0  0999 V2000
   38.6310   30.6450   41.7630 C   0  0  0  0  0  0  0  0  0  0  0  0
   39.1840   30.0100   42.8800 C   0  0  0  0  0  0  0  0  0  0  0  0
   38.4450   28.9090   43.1710 C   0  0  0  0  0  0  0  0  0  0  0  0
   37.4640   28.8660   42.2570 N   0  0  0  0  0  0  0  0  0  0  0  0
   37.5880   29.9070   41.4230 N   0  0  0  0  0  0  0  0  0  0  0  0
   40.0700   30.3570   43.4240 H   0  0  0  0  0  0  0  0  0  0  0  0
   38.6490   28.2310   43.9920 H   0  0  0  0  0  0  0  0  0  0  0  0
   40.9730   33.1360   40.4450 C   0  0  0  0  0  0  0  0  0  0  0  0
   40.1250   34.1560   39.9840 C   0  0  0  0  0  0  0  0  0  0  0  0
   38.7400   33.9620   40.1400 C   0  0  0  0  0  0  0  0  0  0  0  0
   38.3070   32.8110   40.7200 N   0  0  0  0  0  0  0  0  0  0  0  0
   39.1440   31.8550   41.1500 C   0  0  0  0  0  0  0  0  0  0  0  0
   40.4810   32.0130   41.0140 N   0  0  0  0  0  0  0  0  0  0  0  0
   42.0240   33.3100   40.3130 H   0  0  0  0  0  0  0  0  0  0  0  0
   40.5380   35.0470   39.5300 H   0  0  0  0  0  0  0  0  0  0  0  0
   38.0530   34.7310   39.7950 H   0  0  0  0  0  0  0  0  0  0  0  0
   36.4580   27.8200   42.2380 C   0  0  0  0  0  2  0  0  0  0  0  0
   37.1820   26.4980   42.3190 C   0  0  0  0  0  2  0  0  0  0  0  0
   36.6770   25.8130   43.0390 H   0  0  0  0  0  0  0  0  0  0  0  0
  1  2  1  0  0  0  0
  2  3  2  0  0  0  0
  2  6  1  0  0  0  0
  3  7  1  0  0  0  0
  4  3  1  0  0  0  0
  5  1  2  0  0  0  0
  5  4  1  0  0  0  0
  8 13  1  0  0  0  0
  9 10  1  0  0  0  0
  9  8  2  0  0  0  0
 10 11  2  0  0  0  0
 11 12  1  0  0  0  0
 12  1  1  0  0  0  0
 13 12  2  0  0  0  0
 14  8  1  0  0  0  0
 15  9  1  0  0  0  0
 16 10  1  0  0  0  0
 17  4  1  0  0  0  0
 17 18  1  0  0  0  0
 18 19  1  0  0  0  0
M  END
>  <minimizedAffinity>
-3.76749849

$$$$

 OpenBabel03242520033D

 19 20  0  0  0  0  0  0  0  0999 V2000
   37.5340   28.1530   41.7500 C   0  0  0  0  0  0  0  0  0  0  0  0
   36.2030   28.1080   41.3210 C   0  0  0  0  0  0  0  0  0  0  0  0
   35.8400   29.3410   40.8840 C   0  0  0  0  0  0  0  0  0  0  0  0
   36.9190   30.1240   41.0390 N   0  0  0  0  0  0  0  0  0  0  0  0
   37.9210   29.4020   41.5550 N   0  0  0  0  0  0  0  0  0  0  0  0
   35.5680   27.2150   41.3410 H   0  0  0  0  0  0  0  0  0  0  0  0
   34.8600   29.5920   40.4970 H   0  0  0  0  0  0  0  0  0  0  0  0
   39.9750   26.2160   43.6790 C   0  0  0  0  0  0  0  0  0  0  0  0
   39.6980   24.8920   43.3030 C   0  0  0  0  0  0  0  0  0  0  0  0
   38.6590   24.6890   42.3760 C   0  0  0  0  0  0  0  0  0  0  0  0
   37.9890   25.7750   41.9030 N   0  0  0  0  0  0  0  0  0  0  0  0
   38.2790   27.0280   42.2830 C   0  0  0  0  0  0  0  0  0  0  0  0
   39.2730   27.2540   43.1730 N   0  0  0  0  0  0  0  0  0  0  0  0
   40.7720   26.3410   44.3870 H   0  0  0  0  0  0  0  0  0  0  0  0
   40.2700   24.0730   43.7190 H   0  0  0  0  0  0  0  0  0  0  0  0
   38.4160   23.6770   42.0610 H   0  0  0  0  0  0  0  0  0  0  0  0
   36.9220   31.5300   40.6790 C   0  0  0  0  0  2  0  0  0  0  0  0
   37.1500   31.6120   39.1890 C   0  0  0  0  0  2  0  0  0  0  0  0
   36.4630   32.3560   38.7230 H   0  0  0  0  0  0  0  0  0  0  0  0
  1 12  1  0  0  0  0
  2  6  1  0  0  0  0
  2  1  1  0  0  0  0
  3  4  1  0  0  0  0
  3  2  2  0  0  0  0
  4  5  1  0  0  0  0
  5  1  2  0  0  0  0
  7  3  1  0  0  0  0
  8 14  1  0  0  0  0
  9  8  1  0  0  0  0
  9 15  1  0  0  0  0
 10  9  2  0  0  0  0
 11 12  2  0  0  0  0
 11 10  1  0  0  0  0
 12 13  1  0  0  0  0
 13  8  2  0  0  0  0
 16 10  1  0  0  0  0
 17  4  1  0  0  0  0
 18 17  1  0  0  0  0
 19 18  1  0  0  0  0
M  END
>  <minimizedAffinity>
-3.72549796

$$$$

 OpenBabel03242520033D

 19 20  0  0  0  0  0  0  0  0999 V2000
   37.6000   26.8120   41.7960 C   0  0  0  0  0  0  0  0  0  0  0  0
   36.9080   25.6130   41.5960 C   0  0  0  0  0  0  0  0  0  0  0  0
   37.6640   24.5860   42.0640 C   0  0  0  0  0  0  0  0  0  0  0  0
   38.7900   25.1390   42.5400 N   0  0  0  0  0  0  0  0  0  0  0  0
   38.7380   26.4670   42.3740 N   0  0  0  0  0  0  0  0  0  0  0  0
   35.9170   25.5290   41.1340 H   0  0  0  0  0  0  0  0  0  0  0  0
   37.3710   23.5430   42.0340 H   0  0  0  0  0  0  0  0  0  0  0  0
   35.4580   29.4610   40.4450 C   0  0  0  0  0  0  0  0  0  0  0  0
   36.1840   30.6300   40.7250 C   0  0  0  0  0  0  0  0  0  0  0  0
   37.4180   30.4800   41.3840 C   0  0  0  0  0  0  0  0  0  0  0  0
   37.8320   29.2260   41.7100 N   0  0  0  0  0  0  0  0  0  0  0  0
   37.1140   28.1280   41.4280 C   0  0  0  0  0  0  0  0  0  0  0  0
   35.9230   28.2410   40.7940 N   0  0  0  0  0  0  0  0  0  0  0  0
   34.5210   29.6050   39.9420 H   0  0  0  0  0  0  0  0  0  0  0  0
   35.7950   31.5980   40.4380 H   0  0  0  0  0  0  0  0  0  0  0  0
   38.0080   31.3620   41.6170 H   0  0  0  0  0  0  0  0  0  0  0  0
   39.8580   24.3530   43.1300 C   0  0  0  0  0  2  0  0  0  0  0  0
   41.1510   25.0870   42.8710 C   0  0  0  0  0  2  0  0  0  0  0  0
   41.7900   25.1000   43.7850 H   0  0  0  0  0  0  0  0  0  0  0  0
  1  5  2  0  0  0  0
  2  1  1  0  0  0  0
  2  3  2  0  0  0  0
  3  4  1  0  0  0  0
  4 17  1  0  0  0  0
  5  4  1  0  0  0  0
  6  2  1  0  0  0  0
  7  3  1  0  0  0  0
  8  9  2  0  0  0  0
  8 13  1  0  0  0  0
  9 10  1  0  0  0  0
 10 16  1  0  0  0  0
 10 11  2  0  0  0  0
 12 11  1  0  0  0  0
 12  1  1  0  0  0  0
 13 12  2  0  0  0  0
 14  8  1  0  0  0  0
 15  9  1  0  0  0  0
 18 17  1  0  0  0  0
 18 19  1  0  0  0  0
M  END
>  <minimizedAffinity>
-3.66157126

$$$$

 OpenBabel03242520033D

 19 20  0  0  0  0  0  0  0  0999 V2000
   36.9660   28.2180   41.3100 C   0  0  0  0  0  0  0  0  0  0  0  0
   36.9340   28.1690   42.7080 C   0  0  0  0  0  0  0  0  0  0  0  0
   36.9390   26.8700   43.1030 C   0  0  0  0  0  0  0  0  0  0  0  0
   36.9720   26.1390   41.9790 N   0  0  0  0  0  0  0  0  0  0  0  0
   36.9880   26.9550   40.9180 N   0  0  0  0  0  0  0  0  0  0  0  0
   36.9110   29.0460   43.3660 H   0  0  0  0  0  0  0  0  0  0  0  0
   36.9180   26.5410   44.1350 H   0  0  0  0  0  0  0  0  0  0  0  0
   37.0740   31.7690   40.4110 C   0  0  0  0  0  0  0  0  0  0  0  0
   36.9880   31.7440   39.0100 C   0  0  0  0  0  0  0  0  0  0  0  0
   36.8910   30.4840   38.3920 C   0  0  0  0  0  0  0  0  0  0  0  0
   36.8880   29.3740   39.1790 N   0  0  0  0  0  0  0  0  0  0  0  0
   36.9720   29.4310   40.5160 C   0  0  0  0  0  0  0  0  0  0  0  0
   37.0660   30.6300   41.1390 N   0  0  0  0  0  0  0  0  0  0  0  0
   37.1470   32.7430   40.8550 H   0  0  0  0  0  0  0  0  0  0  0  0
   36.9960   32.6670   38.4450 H   0  0  0  0  0  0  0  0  0  0  0  0
   36.8220   30.4250   37.3090 H   0  0  0  0  0  0  0  0  0  0  0  0
   36.9870   24.6880   41.9900 C   0  0  0  0  0  2  0  0  0  0  0  0
   38.4310   24.2520   41.9800 C   0  0  0  0  0  2  0  0  0  0  0  0
   38.6020   23.4250   42.7080 H   0  0  0  0  0  0  0  0  0  0  0  0
  1  2  1  0  0  0  0
  2  3  2  0  0  0  0
  2  6  1  0  0  0  0
  3  7  1  0  0  0  0
  4 17  1  0  0  0  0
  4  3  1  0  0  0  0
  5  1  2  0  0  0  0
  5  4  1  0  0  0  0
  8 14  1  0  0  0  0
  8 13  1  0  0  0  0
  9  8  2  0  0  0  0
 10  9  1  0  0  0  0
 10 11  2  0  0  0  0
 11 12  1  0  0  0  0
 12 13  2  0  0  0  0
 12  1  1  0  0  0  0
 15  9  1  0  0  0  0
 16 10  1  0  0  0  0
 18 17  1  0  0  0  0
 18 19  1  0  0  0  0
M  END
>  <minimizedAffinity>
-3.63881803

$$$$
