
 OpenBabel03252508053D

 36 38  0  0  1  0  0  0  0  0999 V2000
   37.8380   29.6080   41.7140 C   0  0  0  0  0  0  0  0  0  0  0  0
   38.8840   29.5550   42.6730 C   0  0  0  0  0  0  0  0  0  0  0  0
   39.8810   30.5220   42.5820 C   0  0  0  0  0  0  0  0  0  0  0  0
   39.7920   31.4460   41.5910 N   0  0  0  0  0  0  0  0  0  0  0  0
   38.7620   31.4590   40.6860 C   0  0  0  0  0  0  0  0  0  0  0  0
   37.8580   30.5590   40.7940 N   0  0  0  0  0  0  0  0  0  0  0  0
   39.0030   28.8470   43.4770 H   0  0  0  0  0  0  0  0  0  0  0  0
   40.7050   30.5430   43.2750 H   0  0  0  0  0  0  0  0  0  0  0  0
   38.7510   32.4980   39.6330 C   0  0  1  0  0  0  0  0  0  0  0  0
   37.5790   33.4410   39.5350 C   0  0  0  0  0  0  0  0  0  0  0  0
   38.8800   33.8840   40.1320 C   0  0  1  0  0  0  0  0  0  0  0  0
   39.2560   32.2330   38.6770 H   0  0  0  0  0  0  0  0  0  0  0  0
   36.6910   33.2320   40.1480 H   0  0  0  0  0  0  0  0  0  0  0  0
   37.3290   33.8350   38.5150 H   0  0  0  0  0  0  0  0  0  0  0  0
   39.5080   34.5660   39.5040 H   0  0  0  0  0  0  0  0  0  0  0  0
   38.7830   34.1610   41.5590 N   0  0  0  0  0  0  0  0  0  0  0  0
   37.9330   34.7200   41.7510 H   0  0  0  0  0  0  0  0  0  0  0  0
   39.6800   34.5810   41.8410 H   0  0  0  0  0  0  0  0  0  0  0  0
   36.8190   28.5990   41.8080 C   0  0  0  0  0  0  0  0  0  0  0  0
   36.5400   27.9990   42.8970 O   0  0  0  0  0  0  0  0  0  0  0  0
   36.5290   27.3430   39.6640 C   0  0  0  0  0  0  0  0  0  0  0  0
   36.1550   28.3510   40.5210 C   0  0  0  0  0  0  0  0  0  0  0  0
   35.0870   29.1740   40.1520 C   0  0  0  0  0  0  0  0  0  0  0  0
   34.4100   28.9950   38.9590 C   0  0  0  0  0  0  0  0  0  0  0  0
   34.7830   27.9890   38.1030 C   0  0  0  0  0  0  0  0  0  0  0  0
   35.8300   27.1860   38.4700 C   0  0  0  0  0  0  0  0  0  0  0  0
   34.7160   29.9940   40.7420 H   0  0  0  0  0  0  0  0  0  0  0  0
   33.6020   29.6080   38.6660 H   0  0  0  0  0  0  0  0  0  0  0  0
   34.2900   27.8180   37.1810 H   0  0  0  0  0  0  0  0  0  0  0  0
   36.1240   26.3860   37.7880 H   0  0  0  0  0  0  0  0  0  0  0  0
   37.8400   26.3510   39.9970 S   0  0  0  0  0  0  0  0  0  0  0  0
   39.0470   27.1690   39.6230 O   0  0  0  0  0  0  0  0  0  0  0  0
   37.7740   25.1030   39.0820 O   0  0  0  0  0  0  0  0  0  0  0  0
   38.4720   25.6570   41.3520 C   0  0  0  0  0  2  0  0  0  0  0  0
   37.4030   24.6770   41.9680 C   0  0  0  0  0  2  0  0  0  0  0  0
   37.8450   24.1550   42.8090 H   0  0  0  0  0  0  0  0  0  0  0  0
  1 19  1  0  0  0  0
  1  2  1  0  0  0  0
  2  7  1  0  0  0  0
  3  2  2  0  0  0  0
  3  8  1  0  0  0  0
  4  3  1  0  0  0  0
  5  6  1  0  0  0  0
  5  4  2  0  0  0  0
  6  1  2  0  0  0  0
  9 12  1  6  0  0  0
  9 11  1  0  0  0  0
  9  5  1  0  0  0  0
 10  9  1  0  0  0  0
 10 11  1  0  0  0  0
 10 13  1  0  0  0  0
 11 15  1  6  0  0  0
 11 16  1  0  0  0  0
 14 10  1  0  0  0  0
 16 17  1  0  0  0  0
 16 18  1  0  0  0  0
 19 20  2  0  0  0  0
 21 31  1  0  0  0  0
 21 22  1  0  0  0  0
 22 19  1  0  0  0  0
 23 22  2  0  0  0  0
 23 27  1  0  0  0  0
 24 23  1  0  0  0  0
 25 26  1  0  0  0  0
 25 24  2  0  0  0  0
 26 21  2  0  0  0  0
 28 24  1  0  0  0  0
 29 25  1  0  0  0  0
 30 26  1  0  0  0  0
 31 34  1  0  0  0  0
 32 31  2  0  0  0  0
 33 31  2  0  0  0  0
 34 35  1  0  0  0  0
 35 36  1  0  0  0  0
M  END
>  <minimizedAffinity>
-5.6700201

$$$$

 OpenBabel03252508053D

 36 38  0  0  1  0  0  0  0  0999 V2000
   37.0060   29.0010   41.5740 C   0  0  0  0  0  0  0  0  0  0  0  0
   38.1860   29.4190   42.2430 C   0  0  0  0  0  0  0  0  0  0  0  0
   38.9390   28.4370   42.8820 C   0  0  0  0  0  0  0  0  0  0  0  0
   38.5000   27.1530   42.8250 N   0  0  0  0  0  0  0  0  0  0  0  0
   37.3530   26.7940   42.1660 C   0  0  0  0  0  0  0  0  0  0  0  0
   36.6810   27.7170   41.5870 N   0  0  0  0  0  0  0  0  0  0  0  0
   38.5800   30.4200   42.3180 H   0  0  0  0  0  0  0  0  0  0  0  0
   39.8460   28.6810   43.4090 H   0  0  0  0  0  0  0  0  0  0  0  0
   36.9450   25.3720   42.1660 C   0  0  1  0  0  0  0  0  0  0  0  0
   36.7780   24.6510   40.8530 C   0  0  0  0  0  0  0  0  0  0  0  0
   37.9890   24.4310   41.7070 C   0  0  1  0  0  0  0  0  0  0  0  0
   36.2770   25.0520   42.9970 H   0  0  0  0  0  0  0  0  0  0  0  0
   36.8090   25.2420   39.9270 H   0  0  0  0  0  0  0  0  0  0  0  0
   36.0220   23.8220   40.8230 H   0  0  0  0  0  0  0  0  0  0  0  0
   38.0400   23.4590   42.2580 H   0  0  0  0  0  0  0  0  0  0  0  0
   39.2110   24.9360   41.0930 N   0  0  0  0  0  0  0  0  0  0  0  0
   39.2480   24.6530   40.0980 H   0  0  0  0  0  0  0  0  0  0  0  0
   39.9920   24.6210   41.6860 H   0  0  0  0  0  0  0  0  0  0  0  0
   36.2290   30.0210   40.9270 C   0  0  0  0  0  0  0  0  0  0  0  0
   35.9190   31.1180   41.4980 O   0  0  0  0  0  0  0  0  0  0  0  0
   36.6030   29.9600   38.4540 C   0  0  0  0  0  0  0  0  0  0  0  0
   35.8440   29.6520   39.5590 C   0  0  0  0  0  0  0  0  0  0  0  0
   34.6520   28.9470   39.3690 C   0  0  0  0  0  0  0  0  0  0  0  0
   34.2280   28.5600   38.1110 C   0  0  0  0  0  0  0  0  0  0  0  0
   34.9850   28.8680   37.0080 C   0  0  0  0  0  0  0  0  0  0  0  0
   36.1520   29.5580   37.2000 C   0  0  0  0  0  0  0  0  0  0  0  0
   33.9800   28.6600   40.1600 H   0  0  0  0  0  0  0  0  0  0  0  0
   33.3300   28.0280   37.9510 H   0  0  0  0  0  0  0  0  0  0  0  0
   34.6970   28.5890   36.0270 H   0  0  0  0  0  0  0  0  0  0  0  0
   36.7530   29.8000   36.3220 H   0  0  0  0  0  0  0  0  0  0  0  0
   38.0130   30.8580   38.5830 S   0  0  0  0  0  0  0  0  0  0  0  0
   38.2170   31.4530   37.2160 O   0  0  0  0  0  0  0  0  0  0  0  0
   39.1920   29.9050   38.9000 O   0  0  0  0  0  0  0  0  0  0  0  0
   38.4910   32.1740   39.4550 C   0  0  0  0  0  2  0  0  0  0  0  0
   37.3790   33.2850   39.3510 C   0  0  0  0  0  2  0  0  0  0  0  0
   37.6490   34.1170   39.9910 H   0  0  0  0  0  0  0  0  0  0  0  0
  1  6  2  0  0  0  0
  1  2  1  0  0  0  0
  2  7  1  0  0  0  0
  2  3  2  0  0  0  0
  3  8  1  0  0  0  0
  4  3  1  0  0  0  0
  5  4  2  0  0  0  0
  6  5  1  0  0  0  0
  9  5  1  0  0  0  0
  9 12  1  1  0  0  0
 10 11  1  0  0  0  0
 10  9  1  0  0  0  0
 11  9  1  0  0  0  0
 11 15  1  1  0  0  0
 13 10  1  0  0  0  0
 14 10  1  0  0  0  0
 16 18  1  0  0  0  0
 16 11  1  0  0  0  0
 17 16  1  0  0  0  0
 19 20  2  0  0  0  0
 19  1  1  0  0  0  0
 21 31  1  0  0  0  0
 21 22  1  0  0  0  0
 22 19  1  0  0  0  0
 23 22  2  0  0  0  0
 23 27  1  0  0  0  0
 24 23  1  0  0  0  0
 25 26  1  0  0  0  0
 25 24  2  0  0  0  0
 26 21  2  0  0  0  0
 28 24  1  0  0  0  0
 29 25  1  0  0  0  0
 30 26  1  0  0  0  0
 31 33  2  0  0  0  0
 31 34  1  0  0  0  0
 32 31  2  0  0  0  0
 35 34  1  0  0  0  0
 35 36  1  0  0  0  0
M  END
>  <minimizedAffinity>
-5.47280216

$$$$

 OpenBabel03252508053D

 36 38  0  0  1  0  0  0  0  0999 V2000
   39.0880   29.7030   42.3480 C   0  0  0  0  0  0  0  0  0  0  0  0
   40.4210   29.9100   42.7920 C   0  0  0  0  0  0  0  0  0  0  0  0
   41.1500   30.9220   42.1730 C   0  0  0  0  0  0  0  0  0  0  0  0
   40.5450   31.6410   41.1920 N   0  0  0  0  0  0  0  0  0  0  0  0
   39.2540   31.4060   40.7950 C   0  0  0  0  0  0  0  0  0  0  0  0
   38.6070   30.4700   41.3820 N   0  0  0  0  0  0  0  0  0  0  0  0
   40.9470   29.3710   43.5640 H   0  0  0  0  0  0  0  0  0  0  0  0
   42.1660   31.1350   42.4580 H   0  0  0  0  0  0  0  0  0  0  0  0
   38.6790   32.2320   39.7100 C   0  0  1  0  0  0  0  0  0  0  0  0
   37.3370   32.8860   39.9100 C   0  0  0  0  0  0  0  0  0  0  0  0
   38.6050   33.6780   40.0100 C   0  0  1  0  0  0  0  0  0  0  0  0
   38.9320   31.9220   38.6710 H   0  0  0  0  0  0  0  0  0  0  0  0
   36.7470   32.6040   40.7940 H   0  0  0  0  0  0  0  0  0  0  0  0
   36.7100   33.0460   38.9940 H   0  0  0  0  0  0  0  0  0  0  0  0
   38.8330   34.3610   39.1530 H   0  0  0  0  0  0  0  0  0  0  0  0
   38.8640   34.1600   41.3600 N   0  0  0  0  0  0  0  0  0  0  0  0
   37.9980   34.5590   41.7640 H   0  0  0  0  0  0  0  0  0  0  0  0
   39.6720   34.7960   41.2970 H   0  0  0  0  0  0  0  0  0  0  0  0
   38.3470   28.6490   42.9840 C   0  0  0  0  0  0  0  0  0  0  0  0
   37.3010   28.8640   43.6790 O   0  0  0  0  0  0  0  0  0  0  0  0
   38.6470   26.5690   41.6260 C   0  0  0  0  0  0  0  0  0  0  0  0
   38.9330   27.3250   42.7400 C   0  0  0  0  0  0  0  0  0  0  0  0
   39.8290   26.8080   43.6800 C   0  0  0  0  0  0  0  0  0  0  0  0
   40.4240   25.5700   43.5130 C   0  0  0  0  0  0  0  0  0  0  0  0
   40.1390   24.8160   42.4020 C   0  0  0  0  0  0  0  0  0  0  0  0
   39.2610   25.3280   41.4840 C   0  0  0  0  0  0  0  0  0  0  0  0
   40.1180   27.3090   44.5870 H   0  0  0  0  0  0  0  0  0  0  0  0
   41.1030   25.1660   44.2140 H   0  0  0  0  0  0  0  0  0  0  0  0
   40.5740   23.8640   42.2370 H   0  0  0  0  0  0  0  0  0  0  0  0
   39.0370   24.7270   40.6020 H   0  0  0  0  0  0  0  0  0  0  0  0
   37.5350   27.0830   40.4810 S   0  0  0  0  0  0  0  0  0  0  0  0
   36.9210   25.8170   39.9450 O   0  0  0  0  0  0  0  0  0  0  0  0
   38.2870   27.8040   39.3350 O   0  0  0  0  0  0  0  0  0  0  0  0
   36.1550   27.9870   40.5070 C   0  0  0  0  0  2  0  0  0  0  0  0
   36.1560   28.9510   39.2620 C   0  0  0  0  0  2  0  0  0  0  0  0
   35.2130   29.4850   39.2280 H   0  0  0  0  0  0  0  0  0  0  0  0
  1  2  1  0  0  0  0
  1 19  1  0  0  0  0
  2  7  1  0  0  0  0
  3  8  1  0  0  0  0
  3  2  2  0  0  0  0
  4  3  1  0  0  0  0
  5  4  2  0  0  0  0
  5  6  1  0  0  0  0
  6  1  2  0  0  0  0
  9 12  1  6  0  0  0
  9 10  1  0  0  0  0
  9 11  1  0  0  0  0
  9  5  1  0  0  0  0
 10 11  1  0  0  0  0
 10 13  1  0  0  0  0
 11 15  1  6  0  0  0
 11 16  1  0  0  0  0
 14 10  1  0  0  0  0
 16 17  1  0  0  0  0
 18 16  1  0  0  0  0
 19 20  2  0  0  0  0
 21 22  1  0  0  0  0
 22 19  1  0  0  0  0
 22 23  2  0  0  0  0
 23 27  1  0  0  0  0
 24 23  1  0  0  0  0
 24 28  1  0  0  0  0
 25 24  2  0  0  0  0
 26 21  2  0  0  0  0
 26 25  1  0  0  0  0
 29 25  1  0  0  0  0
 30 26  1  0  0  0  0
 31 34  1  0  0  0  0
 31 21  1  0  0  0  0
 32 31  2  0  0  0  0
 33 31  2  0  0  0  0
 35 34  1  0  0  0  0
 36 35  1  0  0  0  0
M  END
>  <minimizedAffinity>
-5.37160635

$$$$

 OpenBabel03252508053D

 36 38  0  0  1  0  0  0  0  0999 V2000
   37.6710   29.7280   39.9110 C   0  0  0  0  0  0  0  0  0  0  0  0
   38.4010   29.1360   38.8470 C   0  0  0  0  0  0  0  0  0  0  0  0
   39.5480   29.7970   38.4150 C   0  0  0  0  0  0  0  0  0  0  0  0
   39.8930   30.9560   39.0330 N   0  0  0  0  0  0  0  0  0  0  0  0
   39.1570   31.4910   40.0590 C   0  0  0  0  0  0  0  0  0  0  0  0
   38.1090   30.8620   40.4360 N   0  0  0  0  0  0  0  0  0  0  0  0
   38.1730   28.2210   38.3230 H   0  0  0  0  0  0  0  0  0  0  0  0
   40.1500   29.4060   37.6130 H   0  0  0  0  0  0  0  0  0  0  0  0
   39.6030   32.7640   40.6670 C   0  0  1  0  0  0  0  0  0  0  0  0
   39.7060   33.9990   39.8090 C   0  0  0  0  0  0  0  0  0  0  0  0
   38.5570   33.8070   40.7520 C   0  0  1  0  0  0  0  0  0  0  0  0
   40.3300   32.6790   41.5060 H   0  0  0  0  0  0  0  0  0  0  0  0
   39.6000   33.8860   38.7210 H   0  0  0  0  0  0  0  0  0  0  0  0
   40.4810   34.7560   40.1010 H   0  0  0  0  0  0  0  0  0  0  0  0
   38.5690   34.4280   41.6830 H   0  0  0  0  0  0  0  0  0  0  0  0
   37.2860   33.6260   40.0630 N   0  0  0  0  0  0  0  0  0  0  0  0
   37.1940   34.3260   39.3050 H   0  0  0  0  0  0  0  0  0  0  0  0
   36.5530   33.6390   40.7870 H   0  0  0  0  0  0  0  0  0  0  0  0
   36.4830   29.0460   40.3430 C   0  0  0  0  0  0  0  0  0  0  0  0
   35.4660   29.6590   40.8070 O   0  0  0  0  0  0  0  0  0  0  0  0
   37.0360   26.7560   41.1830 C   0  0  0  0  0  0  0  0  0  0  0  0
   36.5830   27.5890   40.1870 C   0  0  0  0  0  0  0  0  0  0  0  0
   36.1940   27.0200   38.9720 C   0  0  0  0  0  0  0  0  0  0  0  0
   36.2540   25.6550   38.7550 C   0  0  0  0  0  0  0  0  0  0  0  0
   36.7060   24.8230   39.7490 C   0  0  0  0  0  0  0  0  0  0  0  0
   37.0860   25.3860   40.9380 C   0  0  0  0  0  0  0  0  0  0  0  0
   35.8310   27.5770   38.1250 H   0  0  0  0  0  0  0  0  0  0  0  0
   35.9640   25.2100   37.8430 H   0  0  0  0  0  0  0  0  0  0  0  0
   36.7670   23.7720   39.6230 H   0  0  0  0  0  0  0  0  0  0  0  0
   37.4440   24.7220   41.7260 H   0  0  0  0  0  0  0  0  0  0  0  0
   37.5840   27.3590   42.6480 S   0  0  0  0  0  0  0  0  0  0  0  0
   38.5020   26.2930   43.1850 O   0  0  0  0  0  0  0  0  0  0  0  0
   36.3810   27.5190   43.6110 O   0  0  0  0  0  0  0  0  0  0  0  0
   38.4800   28.6610   43.1210 C   0  0  0  0  0  2  0  0  0  0  0  0
   39.9440   28.5000   42.5630 C   0  0  0  0  0  2  0  0  0  0  0  0
   40.5120   29.3930   42.7980 H   0  0  0  0  0  0  0  0  0  0  0  0
  1 19  1  0  0  0  0
  1  6  1  0  0  0  0
  2  1  2  0  0  0  0
  3  2  1  0  0  0  0
  3  4  2  0  0  0  0
  4  5  1  0  0  0  0
  5  6  2  0  0  0  0
  5  9  1  0  0  0  0
  7  2  1  0  0  0  0
  8  3  1  0  0  0  0
  9 11  1  0  0  0  0
  9 12  1  1  0  0  0
 10 14  1  0  0  0  0
 10  9  1  0  0  0  0
 10 11  1  0  0  0  0
 11 15  1  1  0  0  0
 13 10  1  0  0  0  0
 16 11  1  0  0  0  0
 16 18  1  0  0  0  0
 17 16  1  0  0  0  0
 19 20  2  0  0  0  0
 21 31  1  0  0  0  0
 22 19  1  0  0  0  0
 22 21  2  0  0  0  0
 23 22  1  0  0  0  0
 24 23  2  0  0  0  0
 24 25  1  0  0  0  0
 25 26  2  0  0  0  0
 26 21  1  0  0  0  0
 26 30  1  0  0  0  0
 27 23  1  0  0  0  0
 28 24  1  0  0  0  0
 29 25  1  0  0  0  0
 31 34  1  0  0  0  0
 31 32  2  0  0  0  0
 31 33  2  0  0  0  0
 35 36  1  0  0  0  0
 35 34  1  0  0  0  0
M  END
>  <minimizedAffinity>
-5.33821011

$$$$

 OpenBabel03252508053D

 36 38  0  0  1  0  0  0  0  0999 V2000
   37.0320   29.9990   40.0650 C   0  0  0  0  0  0  0  0  0  0  0  0
   36.5590   31.2980   40.3880 C   0  0  0  0  0  0  0  0  0  0  0  0
   37.4240   32.3660   40.1630 C   0  0  0  0  0  0  0  0  0  0  0  0
   38.6550   32.0990   39.6540 N   0  0  0  0  0  0  0  0  0  0  0  0
   39.0700   30.8270   39.3570 C   0  0  0  0  0  0  0  0  0  0  0  0
   38.2540   29.8650   39.5720 N   0  0  0  0  0  0  0  0  0  0  0  0
   35.5960   31.5650   40.7910 H   0  0  0  0  0  0  0  0  0  0  0  0
   37.1330   33.3780   40.3840 H   0  0  0  0  0  0  0  0  0  0  0  0
   40.4330   30.6290   38.8150 C   0  0  1  0  0  0  0  0  0  0  0  0
   40.6070   29.9590   37.4770 C   0  0  0  0  0  0  0  0  0  0  0  0
   40.7460   31.4430   37.6210 C   0  0  1  0  0  0  0  0  0  0  0  0
   41.2390   30.4620   39.5640 H   0  0  0  0  0  0  0  0  0  0  0  0
   39.7280   29.4910   37.0110 H   0  0  0  0  0  0  0  0  0  0  0  0
   41.5520   29.3740   37.3230 H   0  0  0  0  0  0  0  0  0  0  0  0
   41.7860   31.8520   37.5750 H   0  0  0  0  0  0  0  0  0  0  0  0
   39.6890   32.1780   36.9380 N   0  0  0  0  0  0  0  0  0  0  0  0
   39.5410   31.7830   35.9920 H   0  0  0  0  0  0  0  0  0  0  0  0
   39.9460   33.1750   36.9810 H   0  0  0  0  0  0  0  0  0  0  0  0
   36.1390   28.9010   40.3110 C   0  0  0  0  0  0  0  0  0  0  0  0
   34.9240   29.0660   40.6610 O   0  0  0  0  0  0  0  0  0  0  0  0
   37.4110   26.9070   41.1240 C   0  0  0  0  0  0  0  0  0  0  0  0
   36.7830   27.5970   40.1140 C   0  0  0  0  0  0  0  0  0  0  0  0
   36.7530   27.0230   38.8390 C   0  0  0  0  0  0  0  0  0  0  0  0
   37.3330   25.7940   38.5800 C   0  0  0  0  0  0  0  0  0  0  0  0
   37.9590   25.1060   39.5890 C   0  0  0  0  0  0  0  0  0  0  0  0
   37.9860   25.6730   40.8350 C   0  0  0  0  0  0  0  0  0  0  0  0
   36.2950   27.4770   37.9770 H   0  0  0  0  0  0  0  0  0  0  0  0
   37.3180   25.3480   37.6230 H   0  0  0  0  0  0  0  0  0  0  0  0
   38.4150   24.1620   39.4320 H   0  0  0  0  0  0  0  0  0  0  0  0
   38.4840   25.1230   41.6360 H   0  0  0  0  0  0  0  0  0  0  0  0
   37.5520   27.5500   42.6670 S   0  0  0  0  0  0  0  0  0  0  0  0
   38.5950   26.7010   43.3440 O   0  0  0  0  0  0  0  0  0  0  0  0
   36.2040   27.3790   43.4100 O   0  0  0  0  0  0  0  0  0  0  0  0
   38.0230   28.9990   43.2960 C   0  0  0  0  0  2  0  0  0  0  0  0
   39.4870   29.3150   42.8070 C   0  0  0  0  0  2  0  0  0  0  0  0
   39.7690   30.3050   43.1480 H   0  0  0  0  0  0  0  0  0  0  0  0
  1 19  1  0  0  0  0
  1  2  1  0  0  0  0
  2  7  1  0  0  0  0
  3  8  1  0  0  0  0
  3  2  2  0  0  0  0
  4  3  1  0  0  0  0
  5  6  1  0  0  0  0
  5  4  2  0  0  0  0
  6  1  2  0  0  0  0
  9  5  1  0  0  0  0
  9 12  1  1  0  0  0
 10 11  1  0  0  0  0
 10  9  1  0  0  0  0
 11 15  1  6  0  0  0
 11  9  1  0  0  0  0
 13 10  1  0  0  0  0
 14 10  1  0  0  0  0
 16 18  1  0  0  0  0
 16 11  1  0  0  0  0
 17 16  1  0  0  0  0
 19 20  2  0  0  0  0
 21 31  1  0  0  0  0
 22 19  1  0  0  0  0
 22 21  2  0  0  0  0
 23 22  1  0  0  0  0
 24 23  2  0  0  0  0
 24 25  1  0  0  0  0
 25 26  2  0  0  0  0
 26 21  1  0  0  0  0
 26 30  1  0  0  0  0
 27 23  1  0  0  0  0
 28 24  1  0  0  0  0
 29 25  1  0  0  0  0
 31 34  1  0  0  0  0
 31 32  2  0  0  0  0
 31 33  2  0  0  0  0
 35 36  1  0  0  0  0
 35 34  1  0  0  0  0
M  END
>  <minimizedAffinity>
-5.29568386

$$$$

 OpenBabel03252508053D

 36 38  0  0  1  0  0  0  0  0999 V2000
   39.0400   27.9800   42.8250 C   0  0  0  0  0  0  0  0  0  0  0  0
   39.8900   27.2030   43.6560 C   0  0  0  0  0  0  0  0  0  0  0  0
   41.2480   27.5110   43.6430 C   0  0  0  0  0  0  0  0  0  0  0  0
   41.6700   28.5250   42.8440 N   0  0  0  0  0  0  0  0  0  0  0  0
   40.8120   29.2490   42.0570 C   0  0  0  0  0  0  0  0  0  0  0  0
   39.5690   28.9450   42.0890 N   0  0  0  0  0  0  0  0  0  0  0  0
   39.6090   26.3920   44.3080 H   0  0  0  0  0  0  0  0  0  0  0  0
   41.9510   26.9640   44.2480 H   0  0  0  0  0  0  0  0  0  0  0  0
   41.3620   30.3300   41.2100 C   0  0  1  0  0  0  0  0  0  0  0  0
   40.7270   31.6960   41.2490 C   0  0  0  0  0  0  0  0  0  0  0  0
   42.0190   31.4240   41.9560 C   0  0  1  0  0  0  0  0  0  0  0  0
   41.8040   30.0140   40.2380 H   0  0  0  0  0  0  0  0  0  0  0  0
   39.7750   31.8120   41.7850 H   0  0  0  0  0  0  0  0  0  0  0  0
   40.7810   32.3070   40.3090 H   0  0  0  0  0  0  0  0  0  0  0  0
   42.9430   31.8440   41.4830 H   0  0  0  0  0  0  0  0  0  0  0  0
   41.8970   31.4990   43.4060 N   0  0  0  0  0  0  0  0  0  0  0  0
   41.3540   32.3410   43.6690 H   0  0  0  0  0  0  0  0  0  0  0  0
   42.8510   31.4330   43.7870 H   0  0  0  0  0  0  0  0  0  0  0  0
   37.6420   27.6480   42.8350 C   0  0  0  0  0  0  0  0  0  0  0  0
   36.8020   28.2240   43.6000 O   0  0  0  0  0  0  0  0  0  0  0  0
   36.8190   26.8380   40.6160 C   0  0  0  0  0  0  0  0  0  0  0  0
   37.3100   26.5870   41.8760 C   0  0  0  0  0  0  0  0  0  0  0  0
   37.5080   25.2570   42.2570 C   0  0  0  0  0  0  0  0  0  0  0  0
   37.2240   24.2050   41.4050 C   0  0  0  0  0  0  0  0  0  0  0  0
   36.7340   24.4560   40.1470 C   0  0  0  0  0  0  0  0  0  0  0  0
   36.5420   25.7600   39.7790 C   0  0  0  0  0  0  0  0  0  0  0  0
   37.8810   24.9470   43.2180 H   0  0  0  0  0  0  0  0  0  0  0  0
   37.3680   23.1960   41.6780 H   0  0  0  0  0  0  0  0  0  0  0  0
   36.5050   23.6790   39.4640 H   0  0  0  0  0  0  0  0  0  0  0  0
   36.1530   25.9560   38.7780 H   0  0  0  0  0  0  0  0  0  0  0  0
   36.4900   28.3990   40.0990 S   0  0  0  0  0  0  0  0  0  0  0  0
   35.2260   28.7850   40.8200 O   0  0  0  0  0  0  0  0  0  0  0  0
   36.2140   28.3790   38.5750 O   0  0  0  0  0  0  0  0  0  0  0  0
   37.2490   29.8590   40.2150 C   0  0  0  0  0  2  0  0  0  0  0  0
   36.3720   30.8190   41.1040 C   0  0  0  0  0  2  0  0  0  0  0  0
   36.9070   31.7500   41.2540 H   0  0  0  0  0  0  0  0  0  0  0  0
  1 19  1  0  0  0  0
  1  2  1  0  0  0  0
  2  7  1  0  0  0  0
  3  2  2  0  0  0  0
  3  8  1  0  0  0  0
  4  3  1  0  0  0  0
  5  6  1  0  0  0  0
  5  4  2  0  0  0  0
  6  1  2  0  0  0  0
  9 12  1  6  0  0  0
  9 10  1  0  0  0  0
  9 11  1  0  0  0  0
  9  5  1  0  0  0  0
 10 13  1  0  0  0  0
 10 11  1  0  0  0  0
 11 15  1  6  0  0  0
 11 16  1  0  0  0  0
 14 10  1  0  0  0  0
 16 17  1  0  0  0  0
 16 18  1  0  0  0  0
 19 20  2  0  0  0  0
 21 22  1  0  0  0  0
 22 23  2  0  0  0  0
 22 19  1  0  0  0  0
 23 27  1  0  0  0  0
 24 28  1  0  0  0  0
 24 23  1  0  0  0  0
 25 24  2  0  0  0  0
 26 25  1  0  0  0  0
 26 21  2  0  0  0  0
 29 25  1  0  0  0  0
 30 26  1  0  0  0  0
 31 34  1  0  0  0  0
 31 21  1  0  0  0  0
 31 32  2  0  0  0  0
 33 31  2  0  0  0  0
 34 35  1  0  0  0  0
 35 36  1  0  0  0  0
M  END
>  <minimizedAffinity>
-5.17049551

$$$$

 OpenBabel03252508053D

 36 38  0  0  1  0  0  0  0  0999 V2000
   37.0300   30.1790   39.7990 C   0  0  0  0  0  0  0  0  0  0  0  0
   36.6510   31.4590   40.2820 C   0  0  0  0  0  0  0  0  0  0  0  0
   37.6160   32.4630   40.2550 C   0  0  0  0  0  0  0  0  0  0  0  0
   38.8480   32.1570   39.7720 N   0  0  0  0  0  0  0  0  0  0  0  0
   39.1700   30.9050   39.3150 C   0  0  0  0  0  0  0  0  0  0  0  0
   38.2640   30.0020   39.3510 N   0  0  0  0  0  0  0  0  0  0  0  0
   35.6910   31.7550   40.6740 H   0  0  0  0  0  0  0  0  0  0  0  0
   37.3990   33.4570   40.6050 H   0  0  0  0  0  0  0  0  0  0  0  0
   40.5410   30.6590   38.8160 C   0  0  1  0  0  0  0  0  0  0  0  0
   40.7330   29.9990   37.4750 C   0  0  0  0  0  0  0  0  0  0  0  0
   40.9270   31.4750   37.6450 C   0  0  1  0  0  0  0  0  0  0  0  0
   41.3140   30.4490   39.5890 H   0  0  0  0  0  0  0  0  0  0  0  0
   39.8530   29.5740   36.9730 H   0  0  0  0  0  0  0  0  0  0  0  0
   41.6590   29.3780   37.3440 H   0  0  0  0  0  0  0  0  0  0  0  0
   41.9840   31.8410   37.6390 H   0  0  0  0  0  0  0  0  0  0  0  0
   39.9240   32.2610   36.9380 N   0  0  0  0  0  0  0  0  0  0  0  0
   39.7920   31.8850   35.9820 H   0  0  0  0  0  0  0  0  0  0  0  0
   40.2200   33.2450   37.0040 H   0  0  0  0  0  0  0  0  0  0  0  0
   36.0330   29.1460   39.8420 C   0  0  0  0  0  0  0  0  0  0  0  0
   34.9090   29.2470   39.2490 O   0  0  0  0  0  0  0  0  0  0  0  0
   36.8640   26.7980   40.0750 C   0  0  0  0  0  0  0  0  0  0  0  0
   36.4590   27.9860   40.6360 C   0  0  0  0  0  0  0  0  0  0  0  0
   36.4600   28.0960   42.0290 C   0  0  0  0  0  0  0  0  0  0  0  0
   36.8550   27.0480   42.8410 C   0  0  0  0  0  0  0  0  0  0  0  0
   37.2590   25.8620   42.2810 C   0  0  0  0  0  0  0  0  0  0  0  0
   37.2560   25.7600   40.9160 C   0  0  0  0  0  0  0  0  0  0  0  0
   36.1580   28.9750   42.5730 H   0  0  0  0  0  0  0  0  0  0  0  0
   36.8610   27.1150   43.8950 H   0  0  0  0  0  0  0  0  0  0  0  0
   37.5700   25.0360   42.8680 H   0  0  0  0  0  0  0  0  0  0  0  0
   37.5790   24.8160   40.4730 H   0  0  0  0  0  0  0  0  0  0  0  0
   36.8320   26.5570   38.4160 S   0  0  0  0  0  0  0  0  0  0  0  0
   35.4090   26.1710   38.1100 O   0  0  0  0  0  0  0  0  0  0  0  0
   37.7630   25.3720   38.0590 O   0  0  0  0  0  0  0  0  0  0  0  0
   37.0810   27.5020   37.0870 C   0  0  0  0  0  2  0  0  0  0  0  0
   38.4910   27.1580   36.4750 C   0  0  0  0  0  2  0  0  0  0  0  0
   38.6220   27.7140   35.5540 H   0  0  0  0  0  0  0  0  0  0  0  0
  1 19  1  0  0  0  0
  1  2  1  0  0  0  0
  2  7  1  0  0  0  0
  3  2  2  0  0  0  0
  3  8  1  0  0  0  0
  4  3  1  0  0  0  0
  5  6  1  0  0  0  0
  5  4  2  0  0  0  0
  6  1  2  0  0  0  0
  9  5  1  0  0  0  0
  9 12  1  1  0  0  0
 10 11  1  0  0  0  0
 10  9  1  0  0  0  0
 11 15  1  6  0  0  0
 11  9  1  0  0  0  0
 13 10  1  0  0  0  0
 14 10  1  0  0  0  0
 16 18  1  0  0  0  0
 16 11  1  0  0  0  0
 17 16  1  0  0  0  0
 19 22  1  0  0  0  0
 20 19  2  0  0  0  0
 21 22  2  0  0  0  0
 21 26  1  0  0  0  0
 22 23  1  0  0  0  0
 23 27  1  0  0  0  0
 23 24  2  0  0  0  0
 24 28  1  0  0  0  0
 25 24  1  0  0  0  0
 25 29  1  0  0  0  0
 26 25  2  0  0  0  0
 30 26  1  0  0  0  0
 31 21  1  0  0  0  0
 32 31  2  0  0  0  0
 33 31  2  0  0  0  0
 34 31  1  0  0  0  0
 35 34  1  0  0  0  0
 36 35  1  0  0  0  0
M  END
>  <minimizedAffinity>
-5.16527748

$$$$

 OpenBabel03252508053D

 36 38  0  0  1  0  0  0  0  0999 V2000
   38.5210   31.3340   40.6100 C   0  0  0  0  0  0  0  0  0  0  0  0
   38.8880   32.6440   41.0160 C   0  0  0  0  0  0  0  0  0  0  0  0
   40.1230   33.1230   40.5860 C   0  0  0  0  0  0  0  0  0  0  0  0
   40.8910   32.3140   39.8120 N   0  0  0  0  0  0  0  0  0  0  0  0
   40.4960   31.0540   39.4430 C   0  0  0  0  0  0  0  0  0  0  0  0
   39.3560   30.6400   39.8520 N   0  0  0  0  0  0  0  0  0  0  0  0
   38.3190   33.3260   41.6270 H   0  0  0  0  0  0  0  0  0  0  0  0
   40.4660   34.1070   40.8560 H   0  0  0  0  0  0  0  0  0  0  0  0
   41.4030   30.2380   38.6050 C   0  0  1  0  0  0  0  0  0  0  0  0
   40.8690   29.5850   37.3560 C   0  0  0  0  0  0  0  0  0  0  0  0
   41.7120   30.8220   37.2820 C   0  0  1  0  0  0  0  0  0  0  0  0
   42.2120   29.6960   39.1430 H   0  0  0  0  0  0  0  0  0  0  0  0
   39.7840   29.6000   37.1840 H   0  0  0  0  0  0  0  0  0  0  0  0
   41.3530   28.6220   37.0420 H   0  0  0  0  0  0  0  0  0  0  0  0
   42.7650   30.6860   36.9280 H   0  0  0  0  0  0  0  0  0  0  0  0
   40.9710   31.9810   36.8020 N   0  0  0  0  0  0  0  0  0  0  0  0
   40.4020   31.7190   35.9780 H   0  0  0  0  0  0  0  0  0  0  0  0
   41.6600   32.7340   36.6590 H   0  0  0  0  0  0  0  0  0  0  0  0
   37.2520   30.8430   41.0680 C   0  0  0  0  0  0  0  0  0  0  0  0
   36.1800   31.5280   40.9950 O   0  0  0  0  0  0  0  0  0  0  0  0
   36.8090   28.3820   40.9920 C   0  0  0  0  0  0  0  0  0  0  0  0
   37.3400   29.4840   41.6190 C   0  0  0  0  0  0  0  0  0  0  0  0
   38.0030   29.3000   42.8360 C   0  0  0  0  0  0  0  0  0  0  0  0
   38.1310   28.0490   43.4120 C   0  0  0  0  0  0  0  0  0  0  0  0
   37.6010   26.9490   42.7860 C   0  0  0  0  0  0  0  0  0  0  0  0
   36.9540   27.1350   41.5940 C   0  0  0  0  0  0  0  0  0  0  0  0
   38.4490   30.0910   43.4130 H   0  0  0  0  0  0  0  0  0  0  0  0
   38.6280   27.8940   44.3310 H   0  0  0  0  0  0  0  0  0  0  0  0
   37.6790   25.9730   43.1940 H   0  0  0  0  0  0  0  0  0  0  0  0
   36.5340   26.2580   41.0990 H   0  0  0  0  0  0  0  0  0  0  0  0
   35.9430   28.5190   39.5630 S   0  0  0  0  0  0  0  0  0  0  0  0
   34.5650   28.9520   39.9880 O   0  0  0  0  0  0  0  0  0  0  0  0
   35.8490   27.1260   38.8930 O   0  0  0  0  0  0  0  0  0  0  0  0
   36.0480   29.4600   38.2120 C   0  0  0  0  0  2  0  0  0  0  0  0
   37.2670   28.9690   37.3440 C   0  0  0  0  0  2  0  0  0  0  0  0
   37.2880   29.5280   36.4150 H   0  0  0  0  0  0  0  0  0  0  0  0
  1  2  1  0  0  0  0
  1 19  1  0  0  0  0
  2  7  1  0  0  0  0
  3  8  1  0  0  0  0
  3  2  2  0  0  0  0
  4  3  1  0  0  0  0
  5  4  2  0  0  0  0
  5  6  1  0  0  0  0
  6  1  2  0  0  0  0
  9 12  1  1  0  0  0
  9  5  1  0  0  0  0
 10  9  1  0  0  0  0
 11 15  1  6  0  0  0
 11 10  1  0  0  0  0
 11  9  1  0  0  0  0
 13 10  1  0  0  0  0
 14 10  1  0  0  0  0
 16 11  1  0  0  0  0
 17 16  1  0  0  0  0
 18 16  1  0  0  0  0
 19 22  1  0  0  0  0
 20 19  2  0  0  0  0
 21 26  2  0  0  0  0
 21 22  1  0  0  0  0
 22 23  2  0  0  0  0
 23 24  1  0  0  0  0
 23 27  1  0  0  0  0
 24 28  1  0  0  0  0
 25 29  1  0  0  0  0
 25 24  2  0  0  0  0
 26 25  1  0  0  0  0
 30 26  1  0  0  0  0
 31 32  2  0  0  0  0
 31 21  1  0  0  0  0
 33 31  2  0  0  0  0
 34 31  1  0  0  0  0
 35 34  1  0  0  0  0
 36 35  1  0  0  0  0
M  END
>  <minimizedAffinity>
-5.12232828

$$$$

 OpenBabel03252508053D

 36 38  0  0  1  0  0  0  0  0999 V2000
   39.0270   29.0090   41.4880 C   0  0  0  0  0  0  0  0  0  0  0  0
   38.4020   29.6350   42.5990 C   0  0  0  0  0  0  0  0  0  0  0  0
   37.7340   28.8120   43.5020 C   0  0  0  0  0  0  0  0  0  0  0  0
   37.7220   27.4750   43.2650 N   0  0  0  0  0  0  0  0  0  0  0  0
   38.3400   26.9140   42.1780 C   0  0  0  0  0  0  0  0  0  0  0  0
   38.9470   27.6930   41.3650 N   0  0  0  0  0  0  0  0  0  0  0  0
   38.3810   30.6870   42.8340 H   0  0  0  0  0  0  0  0  0  0  0  0
   37.2370   29.2180   44.3670 H   0  0  0  0  0  0  0  0  0  0  0  0
   38.2670   25.4470   41.9940 C   0  0  1  0  0  0  0  0  0  0  0  0
   36.9300   24.7560   42.0820 C   0  0  0  0  0  0  0  0  0  0  0  0
   37.5810   25.0140   40.7570 C   0  0  1  0  0  0  0  0  0  0  0  0
   39.1510   24.8650   42.3370 H   0  0  0  0  0  0  0  0  0  0  0  0
   36.0670   25.3360   42.4380 H   0  0  0  0  0  0  0  0  0  0  0  0
   36.9310   23.6960   42.4500 H   0  0  0  0  0  0  0  0  0  0  0  0
   38.0290   24.1270   40.2420 H   0  0  0  0  0  0  0  0  0  0  0  0
   36.8500   25.9810   39.9480 N   0  0  0  0  0  0  0  0  0  0  0  0
   35.8380   25.7640   39.9700 H   0  0  0  0  0  0  0  0  0  0  0  0
   37.2960   25.9860   39.0190 H   0  0  0  0  0  0  0  0  0  0  0  0
   39.7030   29.8660   40.5550 C   0  0  0  0  0  0  0  0  0  0  0  0
   40.8700   29.6150   40.1080 O   0  0  0  0  0  0  0  0  0  0  0  0
   37.9290   31.0160   39.2180 C   0  0  0  0  0  0  0  0  0  0  0  0
   38.9020   31.0410   40.1890 C   0  0  0  0  0  0  0  0  0  0  0  0
   39.1350   32.2430   40.8630 C   0  0  0  0  0  0  0  0  0  0  0  0
   38.4150   33.3890   40.5760 C   0  0  0  0  0  0  0  0  0  0  0  0
   37.4430   33.3640   39.6070 C   0  0  0  0  0  0  0  0  0  0  0  0
   37.2200   32.1830   38.9500 C   0  0  0  0  0  0  0  0  0  0  0  0
   39.8740   32.3780   41.6340 H   0  0  0  0  0  0  0  0  0  0  0  0
   38.5790   34.3050   41.0760 H   0  0  0  0  0  0  0  0  0  0  0  0
   36.8690   34.2190   39.3580 H   0  0  0  0  0  0  0  0  0  0  0  0
   36.4460   32.1660   38.1810 H   0  0  0  0  0  0  0  0  0  0  0  0
   37.6290   29.6350   38.3150 S   0  0  0  0  0  0  0  0  0  0  0  0
   37.0040   30.1360   37.0400 O   0  0  0  0  0  0  0  0  0  0  0  0
   36.6010   28.7530   39.0670 O   0  0  0  0  0  0  0  0  0  0  0  0
   38.5550   28.4490   37.6390 C   0  0  0  0  0  2  0  0  0  0  0  0
   38.0110   28.1400   36.1940 C   0  0  0  0  0  2  0  0  0  0  0  0
   38.6680   27.4240   35.7140 H   0  0  0  0  0  0  0  0  0  0  0  0
  1  2  1  0  0  0  0
  2  7  1  0  0  0  0
  2  3  2  0  0  0  0
  3  8  1  0  0  0  0
  4  3  1  0  0  0  0
  5  4  2  0  0  0  0
  6  1  2  0  0  0  0
  6  5  1  0  0  0  0
  9 10  1  0  0  0  0
  9  5  1  0  0  0  0
  9 12  1  1  0  0  0
 10 13  1  0  0  0  0
 10 14  1  0  0  0  0
 11 15  1  6  0  0  0
 11  9  1  0  0  0  0
 11 10  1  0  0  0  0
 16 17  1  0  0  0  0
 16 11  1  0  0  0  0
 18 16  1  0  0  0  0
 19  1  1  0  0  0  0
 20 19  2  0  0  0  0
 21 22  1  0  0  0  0
 22 19  1  0  0  0  0
 22 23  2  0  0  0  0
 23 27  1  0  0  0  0
 24 23  1  0  0  0  0
 24 28  1  0  0  0  0
 25 24  2  0  0  0  0
 26 21  2  0  0  0  0
 26 25  1  0  0  0  0
 29 25  1  0  0  0  0
 30 26  1  0  0  0  0
 31 33  2  0  0  0  0
 31 21  1  0  0  0  0
 32 31  2  0  0  0  0
 34 31  1  0  0  0  0
 35 34  1  0  0  0  0
 36 35  1  0  0  0  0
M  END
>  <minimizedAffinity>
-5.00526905

$$$$
