
 OpenBabel03252503153D

 30 32  0  0  0  0  0  0  0  0999 V2000
   44.8980   36.0280   43.2980 C   0  0  0  0  0  0  0  0  0  0  0  0
   45.2810   34.7650   42.8110 C   0  0  0  0  0  0  0  0  0  0  0  0
   45.3810   33.7760   43.7660 C   0  0  0  0  0  0  0  0  0  0  0  0
   45.1330   33.9940   45.0630 N   0  0  0  0  0  0  0  0  0  0  0  0
   44.7660   35.2390   45.4830 C   0  0  0  0  0  0  0  0  0  0  0  0
   44.6510   36.2410   44.6030 N   0  0  0  0  0  0  0  0  0  0  0  0
   44.8060   36.8380   42.5830 H   0  0  0  0  0  0  0  0  0  0  0  0
   44.5660   35.4180   46.5310 H   0  0  0  0  0  0  0  0  0  0  0  0
   45.7640   32.4770   43.3520 C   0  0  0  0  0  0  0  0  0  0  0  0
   46.9390   31.7990   43.2490 C   0  0  0  0  0  0  0  0  0  0  0  0
   47.0080   30.5570   42.8180 C   0  0  0  0  0  0  0  0  0  0  0  0
   45.8420   29.9670   42.4730 C   0  0  0  0  0  0  0  0  0  0  0  0
   44.5940   31.2610   42.7850 S   0  0  0  0  0  0  0  0  0  0  0  0
   47.8210   32.3950   43.5630 H   0  0  0  0  0  0  0  0  0  0  0  0
   47.9120   29.9690   42.7150 H   0  0  0  0  0  0  0  0  0  0  0  0
   45.6410   28.9180   42.0790 H   0  0  0  0  0  0  0  0  0  0  0  0
   45.5320   34.5900   41.4190 C   0  0  0  0  0  0  0  0  0  0  0  0
   46.7470   34.6070   41.0680 O   0  0  0  0  0  0  0  0  0  0  0  0
   44.3780   34.4000   40.4620 C   0  0  0  0  0  0  0  0  0  0  0  0
   43.2260   35.1470   40.4250 C   0  0  0  0  0  0  0  0  0  0  0  0
   42.4960   34.6210   39.4210 N   0  0  0  0  0  0  0  0  0  0  0  0
   43.1830   33.5940   38.8730 C   0  0  0  0  0  0  0  0  0  0  0  0
   44.3520   33.4550   39.5170 N   0  0  0  0  0  0  0  0  0  0  0  0
   42.8470   32.7190   37.7900 N   0  0  0  0  0  0  0  0  0  0  0  0
   42.9560   35.9720   41.0550 H   0  0  0  0  0  0  0  0  0  0  0  0
   42.8670   31.6970   38.0080 H   0  0  0  0  0  0  0  0  0  0  0  0
   42.6040   33.1280   36.8630 H   0  0  0  0  0  0  0  0  0  0  0  0
   41.2000   35.0150   38.9430 C   0  0  0  0  0  0  0  0  0  0  0  0
   41.2910   35.9900   37.7730 C   0  0  0  0  0  0  0  0  0  0  0  0
   40.2900   36.4380   37.6380 H   0  0  0  0  0  0  0  0  0  0  0  0
  1  6  1  0  0  0  0
  2  1  2  0  0  0  0
  2  3  1  0  0  0  0
  3  4  2  0  0  0  0
  4  5  1  0  0  0  0
  5  8  1  0  0  0  0
  6  5  2  0  0  0  0
  7  1  1  0  0  0  0
  9  3  1  0  0  0  0
 10  9  2  0  0  0  0
 10 14  1  0  0  0  0
 11 10  1  0  0  0  0
 12 13  1  0  0  0  0
 12 11  2  0  0  0  0
 13  9  1  0  0  0  0
 15 11  1  0  0  0  0
 16 12  1  0  0  0  0
 17  2  1  0  0  0  0
 18 17  2  0  0  0  0
 19 17  1  0  0  0  0
 20 19  2  0  0  0  0
 20 25  1  0  0  0  0
 21 20  1  0  0  0  0
 22 21  1  0  0  0  0
 22 23  2  0  0  0  0
 23 19  1  0  0  0  0
 24 26  1  0  0  0  0
 24 22  1  0  0  0  0
 27 24  1  0  0  0  0
 28 21  1  0  0  0  0
 29 28  1  0  0  0  0
 30 29  1  0  0  0  0
M  END
>  <minimizedAffinity>
-4.85291815

>  <minimizedRMSD>
1.57069886

$$$$
