
 OpenBabel03252508093D

 38 40  0  0  0  0  0  0  0  0999 V2000
   36.7840   29.7880   37.4210 C   0  0  0  0  0  0  0  0  0  0  0  0
   37.2360   29.3500   38.6550 C   0  0  0  0  0  0  0  0  0  0  0  0
   36.3780   28.7080   39.5130 C   0  0  0  0  0  0  0  0  0  0  0  0
   35.0770   28.5310   39.0820 N   0  0  0  0  0  0  0  0  0  0  0  0
   34.6480   28.9540   37.8950 C   0  0  0  0  0  0  0  0  0  0  0  0
   35.5140   29.5820   37.0720 N   0  0  0  0  0  0  0  0  0  0  0  0
   37.4510   30.2940   36.7410 H   0  0  0  0  0  0  0  0  0  0  0  0
   33.6270   28.8090   37.5690 H   0  0  0  0  0  0  0  0  0  0  0  0
   36.6820   28.2040   40.7980 C   0  0  0  0  0  0  0  0  0  0  0  0
   36.9110   29.0050   41.9210 C   0  0  0  0  0  0  0  0  0  0  0  0
   37.2700   28.5220   43.1510 C   0  0  0  0  0  0  0  0  0  0  0  0
   37.4260   27.1640   43.3350 C   0  0  0  0  0  0  0  0  0  0  0  0
   37.1960   26.3360   42.2090 C   0  0  0  0  0  0  0  0  0  0  0  0
   37.3520   24.9830   42.3750 C   0  0  0  0  0  0  0  0  0  0  0  0
   37.1460   24.1150   41.3230 C   0  0  0  0  0  0  0  0  0  0  0  0
   36.7710   24.6290   40.0690 C   0  0  0  0  0  0  0  0  0  0  0  0
   36.6240   26.0230   39.9440 C   0  0  0  0  0  0  0  0  0  0  0  0
   36.8400   26.8570   41.0070 C   0  0  0  0  0  0  0  0  0  0  0  0
   36.8020   30.0830   41.8270 H   0  0  0  0  0  0  0  0  0  0  0  0
   37.4400   29.1650   43.9990 H   0  0  0  0  0  0  0  0  0  0  0  0
   37.7050   26.7110   44.2620 H   0  0  0  0  0  0  0  0  0  0  0  0
   37.6380   24.5760   43.3380 H   0  0  0  0  0  0  0  0  0  0  0  0
   37.2850   23.0470   41.5100 H   0  0  0  0  0  0  0  0  0  0  0  0
   36.6330   23.8790   39.3170 H   0  0  0  0  0  0  0  0  0  0  0  0
   36.3180   26.2120   38.9390 H   0  0  0  0  0  0  0  0  0  0  0  0
   38.5490   29.5840   38.9590 O   0  0  0  0  0  0  0  0  0  0  0  0
   40.2710   30.9210   40.4070 O   0  0  0  0  0  0  0  0  0  0  0  0
   39.1790   31.0890   39.4110 P   0  0  1  0  0  0  0  0  0  0  0  0
   39.8450   31.8880   38.0750 O   0  0  0  0  0  0  0  0  0  0  0  0
   41.1830   32.1770   38.2450 C   0  0  0  0  0  2  0  0  0  0  0  0
   41.3440   33.6740   38.4550 C   0  0  0  0  0  2  0  0  0  0  0  0
   40.6490   34.2670   37.8110 H   0  0  0  0  0  0  0  0  0  0  0  0
   37.9250   32.0190   40.0250 O   0  0  0  0  0  0  0  0  0  0  0  0
   37.9150   33.3950   40.1860 C   0  0  0  0  0  0  0  0  0  0  0  0
   37.0760   33.8040   39.3620 O   0  0  0  0  0  0  0  0  0  0  0  0
   38.8470   33.7990   41.2100 N   0  0  0  0  0  0  0  0  0  0  0  0
   38.6600   33.4960   42.1870 H   0  0  0  0  0  0  0  0  0  0  0  0
   39.7200   34.3860   41.0600 H   0  0  0  0  0  0  0  0  0  0  0  0
  1  2  1  0  0  0  0
  2 26  1  0  0  0  0
  2  3  2  0  0  0  0
  3  9  1  0  0  0  0
  4  3  1  0  0  0  0
  5  4  2  0  0  0  0
  6  1  2  0  0  0  0
  6  5  1  0  0  0  0
  7  1  1  0  0  0  0
  8  5  1  0  0  0  0
  9 18  2  0  0  0  0
  9 10  1  0  0  0  0
 10 11  2  0  0  0  0
 11 12  1  0  0  0  0
 11 20  1  0  0  0  0
 12 21  1  0  0  0  0
 13 14  1  0  0  0  0
 13 12  2  0  0  0  0
 14 22  1  0  0  0  0
 15 23  1  0  0  0  0
 15 14  2  0  0  0  0
 16 15  1  0  0  0  0
 17 16  2  0  0  0  0
 17 18  1  0  0  0  0
 18 13  1  0  0  0  0
 19 10  1  0  0  0  0
 24 16  1  0  0  0  0
 25 17  1  0  0  0  0
 26 28  1  0  0  0  0
 28 33  1  0  0  0  0
 28 27  2  1  0  0  0
 29 30  1  0  0  0  0
 29 28  1  0  0  0  0
 30 31  1  0  0  0  0
 32 31  1  0  0  0  0
 33 34  1  0  0  0  0
 34 36  1  0  0  0  0
 35 34  2  0  0  0  0
 36 37  1  0  0  0  0
 38 36  1  0  0  0  0
M  END
>  <minimizedAffinity>
-5.68177319

$$$$

 OpenBabel03252508093D

 38 40  0  0  0  0  0  0  0  0999 V2000
   37.2170   29.5830   37.1450 C   0  0  0  0  0  0  0  0  0  0  0  0
   37.5630   29.1580   38.4170 C   0  0  0  0  0  0  0  0  0  0  0  0
   36.5890   28.7450   39.2920 C   0  0  0  0  0  0  0  0  0  0  0  0
   35.2840   28.7780   38.8380 N   0  0  0  0  0  0  0  0  0  0  0  0
   34.9580   29.1870   37.6140 C   0  0  0  0  0  0  0  0  0  0  0  0
   35.9360   29.5890   36.7760 N   0  0  0  0  0  0  0  0  0  0  0  0
   37.9750   29.9110   36.4520 H   0  0  0  0  0  0  0  0  0  0  0  0
   33.9320   29.2080   37.2710 H   0  0  0  0  0  0  0  0  0  0  0  0
   36.7760   28.2840   40.6150 C   0  0  0  0  0  0  0  0  0  0  0  0
   36.9790   29.1230   41.7150 C   0  0  0  0  0  0  0  0  0  0  0  0
   37.2260   28.6780   42.9870 C   0  0  0  0  0  0  0  0  0  0  0  0
   37.2860   27.3240   43.2390 C   0  0  0  0  0  0  0  0  0  0  0  0
   37.0810   26.4590   42.1370 C   0  0  0  0  0  0  0  0  0  0  0  0
   37.1420   25.1080   42.3720 C   0  0  0  0  0  0  0  0  0  0  0  0
   36.9530   24.2040   41.3460 C   0  0  0  0  0  0  0  0  0  0  0  0
   36.6930   24.6800   40.0490 C   0  0  0  0  0  0  0  0  0  0  0  0
   36.6410   26.0730   39.8540 C   0  0  0  0  0  0  0  0  0  0  0  0
   36.8370   26.9430   40.8920 C   0  0  0  0  0  0  0  0  0  0  0  0
   36.9430   30.2000   41.5680 H   0  0  0  0  0  0  0  0  0  0  0  0
   37.3790   29.3490   43.8170 H   0  0  0  0  0  0  0  0  0  0  0  0
   37.4750   26.8990   44.2030 H   0  0  0  0  0  0  0  0  0  0  0  0
   37.3390   24.7310   43.3680 H   0  0  0  0  0  0  0  0  0  0  0  0
   37.0140   23.1400   41.5880 H   0  0  0  0  0  0  0  0  0  0  0  0
   36.5600   23.9050   39.3210 H   0  0  0  0  0  0  0  0  0  0  0  0
   36.4140   26.2320   38.8230 H   0  0  0  0  0  0  0  0  0  0  0  0
   38.8920   29.1700   38.7410 O   0  0  0  0  0  0  0  0  0  0  0  0
   38.7980   31.6490   39.5750 O   0  0  0  0  0  0  0  0  0  0  0  0
   39.7360   30.5290   39.2930 P   0  0  1  0  0  0  0  0  0  0  0  0
   40.5470   30.1860   40.7390 O   0  0  0  0  0  0  0  0  0  0  0  0
   40.6510   28.8320   40.9790 C   0  0  0  0  0  2  0  0  0  0  0  0
   40.8290   28.6050   42.4710 C   0  0  0  0  0  2  0  0  0  0  0  0
   41.4860   29.3790   42.9390 H   0  0  0  0  0  0  0  0  0  0  0  0
   40.8660   30.9530   38.1290 O   0  0  0  0  0  0  0  0  0  0  0  0
   40.8510   32.0880   37.3330 C   0  0  0  0  0  0  0  0  0  0  0  0
   42.0090   32.5400   37.4060 O   0  0  0  0  0  0  0  0  0  0  0  0
   39.5480   32.2910   36.7520 N   0  0  0  0  0  0  0  0  0  0  0  0
   39.2000   31.5830   36.0730 H   0  0  0  0  0  0  0  0  0  0  0  0
   38.8960   33.1060   36.9530 H   0  0  0  0  0  0  0  0  0  0  0  0
  1  2  1  0  0  0  0
  2 26  1  0  0  0  0
  2  3  2  0  0  0  0
  3  9  1  0  0  0  0
  4  3  1  0  0  0  0
  5  4  2  0  0  0  0
  6  1  2  0  0  0  0
  6  5  1  0  0  0  0
  7  1  1  0  0  0  0
  8  5  1  0  0  0  0
  9 18  2  0  0  0  0
  9 10  1  0  0  0  0
 10 11  2  0  0  0  0
 11 12  1  0  0  0  0
 11 20  1  0  0  0  0
 12 21  1  0  0  0  0
 13 14  1  0  0  0  0
 13 12  2  0  0  0  0
 14 22  1  0  0  0  0
 15 23  1  0  0  0  0
 15 14  2  0  0  0  0
 16 15  1  0  0  0  0
 17 16  2  0  0  0  0
 17 18  1  0  0  0  0
 18 13  1  0  0  0  0
 19 10  1  0  0  0  0
 24 16  1  0  0  0  0
 25 17  1  0  0  0  0
 26 28  1  0  0  0  0
 28 27  2  1  0  0  0
 28 29  1  0  0  0  0
 29 30  1  0  0  0  0
 30 31  1  0  0  0  0
 31 32  1  0  0  0  0
 33 28  1  0  0  0  0
 34 35  2  0  0  0  0
 34 33  1  0  0  0  0
 36 38  1  0  0  0  0
 36 34  1  0  0  0  0
 37 36  1  0  0  0  0
M  END
>  <minimizedAffinity>
-5.53563976

$$$$

 OpenBabel03252508093D

 38 40  0  0  0  0  0  0  0  0999 V2000
   40.7280   29.3600   38.5170 C   0  0  0  0  0  0  0  0  0  0  0  0
   39.6590   29.0960   39.3570 C   0  0  0  0  0  0  0  0  0  0  0  0
   39.8800   28.5620   40.6020 C   0  0  0  0  0  0  0  0  0  0  0  0
   41.1920   28.3140   40.9540 N   0  0  0  0  0  0  0  0  0  0  0  0
   42.2160   28.5710   40.1430 C   0  0  0  0  0  0  0  0  0  0  0  0
   41.9690   29.0950   38.9240 N   0  0  0  0  0  0  0  0  0  0  0  0
   40.5630   29.7780   37.5360 H   0  0  0  0  0  0  0  0  0  0  0  0
   43.2400   28.3730   40.4300 H   0  0  0  0  0  0  0  0  0  0  0  0
   38.9030   28.2370   41.5720 C   0  0  0  0  0  0  0  0  0  0  0  0
   38.5610   29.0630   42.6470 C   0  0  0  0  0  0  0  0  0  0  0  0
   37.6630   28.7220   43.6240 C   0  0  0  0  0  0  0  0  0  0  0  0
   37.0360   27.4960   43.5800 C   0  0  0  0  0  0  0  0  0  0  0  0
   37.3680   26.6460   42.4960 C   0  0  0  0  0  0  0  0  0  0  0  0
   36.7560   25.4200   42.4420 C   0  0  0  0  0  0  0  0  0  0  0  0
   37.0310   24.5380   41.4160 C   0  0  0  0  0  0  0  0  0  0  0  0
   37.9500   24.9090   40.4180 C   0  0  0  0  0  0  0  0  0  0  0  0
   38.5560   26.1750   40.5160 C   0  0  0  0  0  0  0  0  0  0  0  0
   38.2630   27.0240   41.5480 C   0  0  0  0  0  0  0  0  0  0  0  0
   39.0300   30.0410   42.7270 H   0  0  0  0  0  0  0  0  0  0  0  0
   37.4190   29.3810   44.4420 H   0  0  0  0  0  0  0  0  0  0  0  0
   36.3250   27.1560   44.3040 H   0  0  0  0  0  0  0  0  0  0  0  0
   36.0440   25.1250   43.2040 H   0  0  0  0  0  0  0  0  0  0  0  0
   36.5160   23.5740   41.4210 H   0  0  0  0  0  0  0  0  0  0  0  0
   38.0970   24.1610   39.6650 H   0  0  0  0  0  0  0  0  0  0  0  0
   39.1950   26.2770   39.6660 H   0  0  0  0  0  0  0  0  0  0  0  0
   38.4080   29.3910   38.8890 O   0  0  0  0  0  0  0  0  0  0  0  0
   37.7580   31.5550   37.5680 O   0  0  0  0  0  0  0  0  0  0  0  0
   37.7090   30.9330   38.9180 P   0  0  1  0  0  0  0  0  0  0  0  0
   36.0790   30.8460   39.3660 O   0  0  0  0  0  0  0  0  0  0  0  0
   35.9040   30.3100   40.6250 C   0  0  0  0  0  2  0  0  0  0  0  0
   35.2340   28.9520   40.4970 C   0  0  0  0  0  2  0  0  0  0  0  0
   34.4550   28.9420   39.6950 H   0  0  0  0  0  0  0  0  0  0  0  0
   38.5300   31.8590   40.0510 O   0  0  0  0  0  0  0  0  0  0  0  0
   38.3250   33.2000   40.3310 C   0  0  0  0  0  0  0  0  0  0  0  0
   39.3520   33.5570   40.9390 O   0  0  0  0  0  0  0  0  0  0  0  0
   37.0490   33.6420   39.8270 N   0  0  0  0  0  0  0  0  0  0  0  0
   36.9050   33.6440   38.7960 H   0  0  0  0  0  0  0  0  0  0  0  0
   36.2270   33.9710   40.4140 H   0  0  0  0  0  0  0  0  0  0  0  0
  1  6  2  0  0  0  0
  1  2  1  0  0  0  0
  2  3  2  0  0  0  0
  3  4  1  0  0  0  0
  3  9  1  0  0  0  0
  5  8  1  0  0  0  0
  5  4  2  0  0  0  0
  6  5  1  0  0  0  0
  7  1  1  0  0  0  0
  9 10  1  0  0  0  0
 10 19  1  0  0  0  0
 10 11  2  0  0  0  0
 11 20  1  0  0  0  0
 12 11  1  0  0  0  0
 12 21  1  0  0  0  0
 13 12  2  0  0  0  0
 14 13  1  0  0  0  0
 14 22  1  0  0  0  0
 15 23  1  0  0  0  0
 15 14  2  0  0  0  0
 16 17  2  0  0  0  0
 16 15  1  0  0  0  0
 17 18  1  0  0  0  0
 18  9  2  0  0  0  0
 18 13  1  0  0  0  0
 24 16  1  0  0  0  0
 25 17  1  0  0  0  0
 26 28  1  0  0  0  0
 26  2  1  0  0  0  0
 28 27  2  6  0  0  0
 28 29  1  0  0  0  0
 28 33  1  0  0  0  0
 29 30  1  0  0  0  0
 31 30  1  0  0  0  0
 32 31  1  0  0  0  0
 33 34  1  0  0  0  0
 34 35  2  0  0  0  0
 36 34  1  0  0  0  0
 36 38  1  0  0  0  0
 37 36  1  0  0  0  0
M  END
>  <minimizedAffinity>
-5.51532602

$$$$

 OpenBabel03252508093D

 38 40  0  0  0  0  0  0  0  0999 V2000
   36.9750   29.8620   37.5710 C   0  0  0  0  0  0  0  0  0  0  0  0
   37.2470   29.3240   38.8180 C   0  0  0  0  0  0  0  0  0  0  0  0
   36.4390   28.3420   39.3340 C   0  0  0  0  0  0  0  0  0  0  0  0
   35.3710   27.9360   38.5560 N   0  0  0  0  0  0  0  0  0  0  0  0
   35.1140   28.4570   37.3580 C   0  0  0  0  0  0  0  0  0  0  0  0
   35.9260   29.4220   36.8770 N   0  0  0  0  0  0  0  0  0  0  0  0
   37.6040   30.6350   37.1590 H   0  0  0  0  0  0  0  0  0  0  0  0
   34.2760   28.1300   36.7580 H   0  0  0  0  0  0  0  0  0  0  0  0
   36.5810   27.6940   40.5830 C   0  0  0  0  0  0  0  0  0  0  0  0
   36.2670   28.2830   41.8110 C   0  0  0  0  0  0  0  0  0  0  0  0
   36.4650   27.6820   43.0260 C   0  0  0  0  0  0  0  0  0  0  0  0
   37.0070   26.4160   43.0830 C   0  0  0  0  0  0  0  0  0  0  0  0
   37.3290   25.8020   41.8480 C   0  0  0  0  0  0  0  0  0  0  0  0
   37.8740   24.5440   41.8890 C   0  0  0  0  0  0  0  0  0  0  0  0
   38.2150   23.8840   40.7260 C   0  0  0  0  0  0  0  0  0  0  0  0
   37.9970   24.5140   39.4880 C   0  0  0  0  0  0  0  0  0  0  0  0
   37.4380   25.8050   39.4940 C   0  0  0  0  0  0  0  0  0  0  0  0
   37.1150   26.4340   40.6650 C   0  0  0  0  0  0  0  0  0  0  0  0
   35.8370   29.2820   41.8190 H   0  0  0  0  0  0  0  0  0  0  0  0
   36.2120   28.1610   43.9580 H   0  0  0  0  0  0  0  0  0  0  0  0
   37.1930   25.8810   43.9900 H   0  0  0  0  0  0  0  0  0  0  0  0
   38.0440   24.0480   42.8370 H   0  0  0  0  0  0  0  0  0  0  0  0
   38.6460   22.8830   40.8160 H   0  0  0  0  0  0  0  0  0  0  0  0
   38.2910   23.9240   38.6430 H   0  0  0  0  0  0  0  0  0  0  0  0
   37.3320   26.1000   38.4730 H   0  0  0  0  0  0  0  0  0  0  0  0
   38.3380   29.8110   39.4840 O   0  0  0  0  0  0  0  0  0  0  0  0
   36.9540   31.7180   40.6250 O   0  0  0  0  0  0  0  0  0  0  0  0
   38.3410   31.2160   40.4300 P   0  0  1  0  0  0  0  0  0  0  0  0
   38.9770   30.9050   41.9670 O   0  0  0  0  0  0  0  0  0  0  0  0
   40.1700   30.2140   41.9160 C   0  0  0  0  0  2  0  0  0  0  0  0
   39.9720   28.8360   42.5250 C   0  0  0  0  0  2  0  0  0  0  0  0
   39.2990   28.8630   43.4170 H   0  0  0  0  0  0  0  0  0  0  0  0
   39.3060   32.3570   39.6680 O   0  0  0  0  0  0  0  0  0  0  0  0
   39.6170   33.6240   40.1360 C   0  0  0  0  0  0  0  0  0  0  0  0
   40.5020   34.0370   39.3640 O   0  0  0  0  0  0  0  0  0  0  0  0
   38.8210   33.9560   41.2910 N   0  0  0  0  0  0  0  0  0  0  0  0
   37.7930   34.0520   41.1650 H   0  0  0  0  0  0  0  0  0  0  0  0
   39.1890   34.1140   42.2760 H   0  0  0  0  0  0  0  0  0  0  0  0
  1  2  1  0  0  0  0
  2  3  2  0  0  0  0
  2 26  1  0  0  0  0
  3  9  1  0  0  0  0
  4  3  1  0  0  0  0
  5  4  2  0  0  0  0
  6  5  1  0  0  0  0
  6  1  2  0  0  0  0
  7  1  1  0  0  0  0
  8  5  1  0  0  0  0
  9 18  2  0  0  0  0
  9 10  1  0  0  0  0
 10 19  1  0  0  0  0
 10 11  2  0  0  0  0
 11 12  1  0  0  0  0
 11 20  1  0  0  0  0
 12 21  1  0  0  0  0
 13 14  1  0  0  0  0
 13 12  2  0  0  0  0
 14 22  1  0  0  0  0
 15 23  1  0  0  0  0
 15 14  2  0  0  0  0
 16 17  2  0  0  0  0
 16 15  1  0  0  0  0
 17 18  1  0  0  0  0
 18 13  1  0  0  0  0
 24 16  1  0  0  0  0
 25 17  1  0  0  0  0
 26 28  1  0  0  0  0
 28 27  2  1  0  0  0
 28 29  1  0  0  0  0
 30 29  1  0  0  0  0
 30 31  1  0  0  0  0
 31 32  1  0  0  0  0
 33 34  1  0  0  0  0
 33 28  1  0  0  0  0
 34 36  1  0  0  0  0
 35 34  2  0  0  0  0
 36 38  1  0  0  0  0
 37 36  1  0  0  0  0
M  END
>  <minimizedAffinity>
-5.45788336

$$$$

 OpenBabel03252508093D

 38 40  0  0  0  0  0  0  0  0999 V2000
   38.0900   30.1500   37.7080 C   0  0  0  0  0  0  0  0  0  0  0  0
   38.2400   29.6570   38.9930 C   0  0  0  0  0  0  0  0  0  0  0  0
   37.1600   29.1280   39.6560 C   0  0  0  0  0  0  0  0  0  0  0  0
   35.9540   29.1190   38.9830 N   0  0  0  0  0  0  0  0  0  0  0  0
   35.8160   29.5950   37.7480 C   0  0  0  0  0  0  0  0  0  0  0  0
   36.8940   30.1090   37.1200 N   0  0  0  0  0  0  0  0  0  0  0  0
   38.9320   30.5690   37.1800 H   0  0  0  0  0  0  0  0  0  0  0  0
   34.8660   29.5820   37.2310 H   0  0  0  0  0  0  0  0  0  0  0  0
   37.1480   28.5870   40.9630 C   0  0  0  0  0  0  0  0  0  0  0  0
   37.2700   29.3490   42.1280 C   0  0  0  0  0  0  0  0  0  0  0  0
   37.3240   28.8210   43.3910 C   0  0  0  0  0  0  0  0  0  0  0  0
   37.2580   27.4550   43.5650 C   0  0  0  0  0  0  0  0  0  0  0  0
   37.1320   26.6670   42.3960 C   0  0  0  0  0  0  0  0  0  0  0  0
   37.0700   25.3050   42.5540 C   0  0  0  0  0  0  0  0  0  0  0  0
   36.9490   24.4730   41.4590 C   0  0  0  0  0  0  0  0  0  0  0  0
   36.8870   25.0340   40.1720 C   0  0  0  0  0  0  0  0  0  0  0  0
   36.9570   26.4340   40.0570 C   0  0  0  0  0  0  0  0  0  0  0  0
   37.0800   27.2310   41.1620 C   0  0  0  0  0  0  0  0  0  0  0  0
   37.3260   30.4320   42.0430 H   0  0  0  0  0  0  0  0  0  0  0  0
   37.4180   29.4350   44.2720 H   0  0  0  0  0  0  0  0  0  0  0  0
   37.2950   26.9680   44.5170 H   0  0  0  0  0  0  0  0  0  0  0  0
   37.1140   24.8620   43.5420 H   0  0  0  0  0  0  0  0  0  0  0  0
   36.9050   23.3960   41.6410 H   0  0  0  0  0  0  0  0  0  0  0  0
   36.7920   24.3100   39.3870 H   0  0  0  0  0  0  0  0  0  0  0  0
   36.8720   26.6630   39.0180 H   0  0  0  0  0  0  0  0  0  0  0  0
   39.4890   29.7210   39.5460 O   0  0  0  0  0  0  0  0  0  0  0  0
   40.9320   31.8600   39.1110 O   0  0  0  0  0  0  0  0  0  0  0  0
   40.1940   31.1270   40.1730 P   0  0  1  0  0  0  0  0  0  0  0  0
   39.0090   32.1780   40.7700 O   0  0  0  0  0  0  0  0  0  0  0  0
   38.7920   33.2570   39.9380 C   0  0  0  0  0  2  0  0  0  0  0  0
   37.3230   33.2970   39.5510 C   0  0  0  0  0  2  0  0  0  0  0  0
   36.9060   32.2750   39.3760 H   0  0  0  0  0  0  0  0  0  0  0  0
   41.2080   30.6870   41.4340 O   0  0  0  0  0  0  0  0  0  0  0  0
   42.1380   31.4930   42.0710 C   0  0  0  0  0  0  0  0  0  0  0  0
   42.8920   30.6990   42.6620 O   0  0  0  0  0  0  0  0  0  0  0  0
   41.8770   32.8860   41.8070 N   0  0  0  0  0  0  0  0  0  0  0  0
   41.9760   33.2240   40.8280 H   0  0  0  0  0  0  0  0  0  0  0  0
   41.5870   33.6130   42.5260 H   0  0  0  0  0  0  0  0  0  0  0  0
  1  2  1  0  0  0  0
  2 26  1  0  0  0  0
  2  3  2  0  0  0  0
  3  9  1  0  0  0  0
  4  3  1  0  0  0  0
  5  4  2  0  0  0  0
  6  1  2  0  0  0  0
  6  5  1  0  0  0  0
  7  1  1  0  0  0  0
  8  5  1  0  0  0  0
  9 18  2  0  0  0  0
  9 10  1  0  0  0  0
 10 11  2  0  0  0  0
 11 12  1  0  0  0  0
 11 20  1  0  0  0  0
 12 21  1  0  0  0  0
 13 14  1  0  0  0  0
 13 12  2  0  0  0  0
 14 22  1  0  0  0  0
 15 23  1  0  0  0  0
 15 14  2  0  0  0  0
 16 15  1  0  0  0  0
 17 16  2  0  0  0  0
 17 18  1  0  0  0  0
 18 13  1  0  0  0  0
 19 10  1  0  0  0  0
 24 16  1  0  0  0  0
 25 17  1  0  0  0  0
 26 28  1  0  0  0  0
 28 27  2  6  0  0  0
 28 29  1  0  0  0  0
 28 33  1  0  0  0  0
 30 29  1  0  0  0  0
 31 30  1  0  0  0  0
 32 31  1  0  0  0  0
 33 34  1  0  0  0  0
 34 35  2  0  0  0  0
 36 34  1  0  0  0  0
 36 38  1  0  0  0  0
 37 36  1  0  0  0  0
M  END
>  <minimizedAffinity>
-5.41732979

$$$$

 OpenBabel03252508093D

 38 40  0  0  0  0  0  0  0  0999 V2000
   37.2250   28.2960   40.8580 C   0  0  0  0  0  0  0  0  0  0  0  0
   38.5110   28.7680   41.0660 C   0  0  0  0  0  0  0  0  0  0  0  0
   38.9970   28.8980   42.3430 C   0  0  0  0  0  0  0  0  0  0  0  0
   38.1520   28.5390   43.3750 N   0  0  0  0  0  0  0  0  0  0  0  0
   36.9180   28.0850   43.1690 C   0  0  0  0  0  0  0  0  0  0  0  0
   36.4660   27.9690   41.9030 N   0  0  0  0  0  0  0  0  0  0  0  0
   36.8350   28.1920   39.8580 H   0  0  0  0  0  0  0  0  0  0  0  0
   36.2650   27.8070   43.9860 H   0  0  0  0  0  0  0  0  0  0  0  0
   40.2790   29.3620   42.7200 C   0  0  0  0  0  0  0  0  0  0  0  0
   40.6540   30.7090   42.7290 C   0  0  0  0  0  0  0  0  0  0  0  0
   41.9130   31.1550   43.0310 C   0  0  0  0  0  0  0  0  0  0  0  0
   42.9020   30.2490   43.3520 C   0  0  0  0  0  0  0  0  0  0  0  0
   42.5400   28.8800   43.3500 C   0  0  0  0  0  0  0  0  0  0  0  0
   43.5150   27.9670   43.6620 C   0  0  0  0  0  0  0  0  0  0  0  0
   43.2360   26.6150   43.6790 C   0  0  0  0  0  0  0  0  0  0  0  0
   41.9360   26.1770   43.3740 C   0  0  0  0  0  0  0  0  0  0  0  0
   40.9690   27.1480   43.0570 C   0  0  0  0  0  0  0  0  0  0  0  0
   41.2780   28.4810   43.0460 C   0  0  0  0  0  0  0  0  0  0  0  0
   39.9090   31.4620   42.4820 H   0  0  0  0  0  0  0  0  0  0  0  0
   42.1730   32.2010   43.0300 H   0  0  0  0  0  0  0  0  0  0  0  0
   43.9080   30.5180   43.5970 H   0  0  0  0  0  0  0  0  0  0  0  0
   44.5200   28.2940   43.9020 H   0  0  0  0  0  0  0  0  0  0  0  0
   44.0500   25.9310   43.9340 H   0  0  0  0  0  0  0  0  0  0  0  0
   41.8160   25.1130   43.4140 H   0  0  0  0  0  0  0  0  0  0  0  0
   40.0540   26.6270   42.8800 H   0  0  0  0  0  0  0  0  0  0  0  0
   39.2470   29.0850   39.9570 O   0  0  0  0  0  0  0  0  0  0  0  0
   38.1600   30.3950   37.9690 O   0  0  0  0  0  0  0  0  0  0  0  0
   39.1170   30.5380   39.0980 P   0  0  1  0  0  0  0  0  0  0  0  0
   38.5290   31.7740   40.0940 O   0  0  0  0  0  0  0  0  0  0  0  0
   37.2400   32.1460   39.7700 C   0  0  0  0  0  2  0  0  0  0  0  0
   37.2210   33.6280   39.4370 C   0  0  0  0  0  2  0  0  0  0  0  0
   37.8960   34.2180   40.1030 H   0  0  0  0  0  0  0  0  0  0  0  0
   40.6470   30.9650   38.5570 O   0  0  0  0  0  0  0  0  0  0  0  0
   40.9740   31.4680   37.3080 C   0  0  0  0  0  0  0  0  0  0  0  0
   42.0210   30.8730   36.9920 O   0  0  0  0  0  0  0  0  0  0  0  0
   40.0080   32.4490   36.8800 N   0  0  0  0  0  0  0  0  0  0  0  0
   39.0340   32.1290   36.7020 H   0  0  0  0  0  0  0  0  0  0  0  0
   40.1970   33.4840   36.7260 H   0  0  0  0  0  0  0  0  0  0  0  0
  1  2  2  0  0  0  0
  1  6  1  0  0  0  0
  2  3  1  0  0  0  0
  3  9  1  0  0  0  0
  3  4  2  0  0  0  0
  5  4  1  0  0  0  0
  5  8  1  0  0  0  0
  6  5  2  0  0  0  0
  7  1  1  0  0  0  0
  9 10  2  0  0  0  0
  9 18  1  0  0  0  0
 10 11  1  0  0  0  0
 11 12  2  0  0  0  0
 12 21  1  0  0  0  0
 13 12  1  0  0  0  0
 13 14  1  0  0  0  0
 14 15  2  0  0  0  0
 14 22  1  0  0  0  0
 15 23  1  0  0  0  0
 16 24  1  0  0  0  0
 16 15  1  0  0  0  0
 17 16  2  0  0  0  0
 18 17  1  0  0  0  0
 18 13  2  0  0  0  0
 19 10  1  0  0  0  0
 20 11  1  0  0  0  0
 25 17  1  0  0  0  0
 26  2  1  0  0  0  0
 28 27  2  6  0  0  0
 28 26  1  0  0  0  0
 28 29  1  0  0  0  0
 30 29  1  0  0  0  0
 31 30  1  0  0  0  0
 31 32  1  0  0  0  0
 33 28  1  0  0  0  0
 34 33  1  0  0  0  0
 35 34  2  0  0  0  0
 36 34  1  0  0  0  0
 37 36  1  0  0  0  0
 38 36  1  0  0  0  0
M  END
>  <minimizedAffinity>
-5.21286011

$$$$

 OpenBabel03252508093D

 38 40  0  0  0  0  0  0  0  0999 V2000
   37.5200   28.7690   36.4680 C   0  0  0  0  0  0  0  0  0  0  0  0
   37.7910   28.5220   37.8040 C   0  0  0  0  0  0  0  0  0  0  0  0
   36.7690   28.5050   38.7210 C   0  0  0  0  0  0  0  0  0  0  0  0
   35.4950   28.7410   38.2430 N   0  0  0  0  0  0  0  0  0  0  0  0
   35.2400   28.9780   36.9580 C   0  0  0  0  0  0  0  0  0  0  0  0
   36.2650   28.9890   36.0790 N   0  0  0  0  0  0  0  0  0  0  0  0
   38.3170   28.7860   35.7420 H   0  0  0  0  0  0  0  0  0  0  0  0
   34.2370   29.1610   36.5960 H   0  0  0  0  0  0  0  0  0  0  0  0
   36.8790   28.2690   40.1110 C   0  0  0  0  0  0  0  0  0  0  0  0
   37.0780   29.2730   41.0630 C   0  0  0  0  0  0  0  0  0  0  0  0
   37.2510   29.0410   42.4020 C   0  0  0  0  0  0  0  0  0  0  0  0
   37.2330   27.7480   42.8800 C   0  0  0  0  0  0  0  0  0  0  0  0
   37.0310   26.7180   41.9300 C   0  0  0  0  0  0  0  0  0  0  0  0
   37.0160   25.4250   42.3910 C   0  0  0  0  0  0  0  0  0  0  0  0
   36.8250   24.3690   41.5240 C   0  0  0  0  0  0  0  0  0  0  0  0
   36.6430   24.6280   40.1540 C   0  0  0  0  0  0  0  0  0  0  0  0
   36.6670   25.9680   39.7260 C   0  0  0  0  0  0  0  0  0  0  0  0
   36.8620   26.9920   40.6110 C   0  0  0  0  0  0  0  0  0  0  0  0
   37.1010   30.3100   40.7350 H   0  0  0  0  0  0  0  0  0  0  0  0
   37.4020   29.8370   43.1130 H   0  0  0  0  0  0  0  0  0  0  0  0
   37.3610   27.4860   43.9090 H   0  0  0  0  0  0  0  0  0  0  0  0
   37.1530   25.2150   43.4450 H   0  0  0  0  0  0  0  0  0  0  0  0
   36.8230   23.3600   41.9430 H   0  0  0  0  0  0  0  0  0  0  0  0
   36.5010   23.7460   39.5610 H   0  0  0  0  0  0  0  0  0  0  0  0
   36.4910   25.9580   38.6730 H   0  0  0  0  0  0  0  0  0  0  0  0
   39.0970   28.3000   38.1460 O   0  0  0  0  0  0  0  0  0  0  0  0
   41.1780   29.1390   39.4920 O   0  0  0  0  0  0  0  0  0  0  0  0
   40.2480   29.5160   38.3950 P   0  0  1  0  0  0  0  0  0  0  0  0
   41.1870   29.7490   37.0060 O   0  0  0  0  0  0  0  0  0  0  0  0
   41.8190   28.5930   36.5960 C   0  0  0  0  0  2  0  0  0  0  0  0
   43.1440   28.9580   35.9460 C   0  0  0  0  0  2  0  0  0  0  0  0
   43.0690   29.8870   35.3290 H   0  0  0  0  0  0  0  0  0  0  0  0
   39.4350   30.9430   38.7410 O   0  0  0  0  0  0  0  0  0  0  0  0
   38.9170   31.8440   37.8260 C   0  0  0  0  0  0  0  0  0  0  0  0
   37.7060   31.9150   38.1030 O   0  0  0  0  0  0  0  0  0  0  0  0
   39.9480   32.3300   36.9430 N   0  0  0  0  0  0  0  0  0  0  0  0
   40.7130   32.9030   37.3540 H   0  0  0  0  0  0  0  0  0  0  0  0
   40.0040   32.1580   35.8950 H   0  0  0  0  0  0  0  0  0  0  0  0
  1  2  1  0  0  0  0
  2 26  1  0  0  0  0
  2  3  2  0  0  0  0
  3  9  1  0  0  0  0
  4  3  1  0  0  0  0
  5  4  2  0  0  0  0
  6  1  2  0  0  0  0
  6  5  1  0  0  0  0
  7  1  1  0  0  0  0
  8  5  1  0  0  0  0
  9 18  2  0  0  0  0
  9 10  1  0  0  0  0
 10 11  2  0  0  0  0
 11 12  1  0  0  0  0
 11 20  1  0  0  0  0
 12 21  1  0  0  0  0
 13 14  1  0  0  0  0
 13 12  2  0  0  0  0
 14 22  1  0  0  0  0
 15 23  1  0  0  0  0
 15 14  2  0  0  0  0
 16 15  1  0  0  0  0
 17 16  2  0  0  0  0
 17 18  1  0  0  0  0
 18 13  1  0  0  0  0
 19 10  1  0  0  0  0
 24 16  1  0  0  0  0
 25 17  1  0  0  0  0
 26 28  1  0  0  0  0
 28 33  1  0  0  0  0
 28 27  2  1  0  0  0
 29 28  1  0  0  0  0
 30 29  1  0  0  0  0
 31 30  1  0  0  0  0
 32 31  1  0  0  0  0
 34 35  2  0  0  0  0
 34 33  1  0  0  0  0
 36 37  1  0  0  0  0
 36 34  1  0  0  0  0
 38 36  1  0  0  0  0
M  END
>  <minimizedAffinity>
-5.18990374

$$$$

 OpenBabel03252508093D

 38 40  0  0  0  0  0  0  0  0999 V2000
   38.2940   29.7230   42.7960 C   0  0  0  0  0  0  0  0  0  0  0  0
   37.5880   29.7140   41.6050 C   0  0  0  0  0  0  0  0  0  0  0  0
   36.7020   28.7000   41.3380 C   0  0  0  0  0  0  0  0  0  0  0  0
   36.5640   27.7190   42.3010 N   0  0  0  0  0  0  0  0  0  0  0  0
   37.2450   27.7330   43.4450 C   0  0  0  0  0  0  0  0  0  0  0  0
   38.1090   28.7430   43.6800 N   0  0  0  0  0  0  0  0  0  0  0  0
   38.9920   30.5150   43.0130 H   0  0  0  0  0  0  0  0  0  0  0  0
   37.1280   26.9590   44.1920 H   0  0  0  0  0  0  0  0  0  0  0  0
   35.9100   28.5480   40.1770 C   0  0  0  0  0  0  0  0  0  0  0  0
   34.7230   29.2480   39.9400 C   0  0  0  0  0  0  0  0  0  0  0  0
   33.9200   29.0550   38.8470 C   0  0  0  0  0  0  0  0  0  0  0  0
   34.2700   28.1190   37.8980 C   0  0  0  0  0  0  0  0  0  0  0  0
   35.4700   27.4010   38.1190 C   0  0  0  0  0  0  0  0  0  0  0  0
   35.8280   26.4630   37.1850 C   0  0  0  0  0  0  0  0  0  0  0  0
   36.9840   25.7230   37.3340 C   0  0  0  0  0  0  0  0  0  0  0  0
   37.8000   25.9410   38.4590 C   0  0  0  0  0  0  0  0  0  0  0  0
   37.3920   26.9120   39.3920 C   0  0  0  0  0  0  0  0  0  0  0  0
   36.2380   27.6250   39.2160 C   0  0  0  0  0  0  0  0  0  0  0  0
   34.4040   29.9970   40.6610 H   0  0  0  0  0  0  0  0  0  0  0  0
   33.0100   29.6110   38.6920 H   0  0  0  0  0  0  0  0  0  0  0  0
   33.6960   27.9100   37.0190 H   0  0  0  0  0  0  0  0  0  0  0  0
   35.2090   26.2890   36.3130 H   0  0  0  0  0  0  0  0  0  0  0  0
   37.2220   24.9880   36.5610 H   0  0  0  0  0  0  0  0  0  0  0  0
   38.6740   25.3220   38.4870 H   0  0  0  0  0  0  0  0  0  0  0  0
   38.1430   26.9440   40.1510 H   0  0  0  0  0  0  0  0  0  0  0  0
   37.8130   30.7470   40.7360 O   0  0  0  0  0  0  0  0  0  0  0  0
   40.1900   29.9150   40.0220 O   0  0  0  0  0  0  0  0  0  0  0  0
   39.0650   30.7910   39.5970 P   0  0  1  0  0  0  0  0  0  0  0  0
   38.5310   30.2200   38.0960 O   0  0  0  0  0  0  0  0  0  0  0  0
   37.3690   30.8350   37.6780 C   0  0  0  0  0  2  0  0  0  0  0  0
   36.9180   30.2070   36.3700 C   0  0  0  0  0  2  0  0  0  0  0  0
   37.7790   29.9680   35.6990 H   0  0  0  0  0  0  0  0  0  0  0  0
   39.5590   32.3840   39.4220 O   0  0  0  0  0  0  0  0  0  0  0  0
   39.4320   33.3990   40.3570 C   0  0  0  0  0  0  0  0  0  0  0  0
   40.6010   33.7350   40.6200 O   0  0  0  0  0  0  0  0  0  0  0  0
   38.0440   33.6590   40.6480 N   0  0  0  0  0  0  0  0  0  0  0  0
   37.4470   34.0360   39.8840 H   0  0  0  0  0  0  0  0  0  0  0  0
   37.5630   33.5010   41.5830 H   0  0  0  0  0  0  0  0  0  0  0  0
  1  7  1  0  0  0  0
  1  6  1  0  0  0  0
  2  1  2  0  0  0  0
  3  2  1  0  0  0  0
  3  4  2  0  0  0  0
  4  5  1  0  0  0  0
  5  6  2  0  0  0  0
  5  8  1  0  0  0  0
  9  3  1  0  0  0  0
 10  9  1  0  0  0  0
 10 19  1  0  0  0  0
 11 10  2  0  0  0  0
 12 13  2  0  0  0  0
 12 11  1  0  0  0  0
 13 18  1  0  0  0  0
 14 15  2  0  0  0  0
 14 13  1  0  0  0  0
 15 16  1  0  0  0  0
 16 24  1  0  0  0  0
 16 17  2  0  0  0  0
 17 25  1  0  0  0  0
 18 17  1  0  0  0  0
 18  9  2  0  0  0  0
 20 11  1  0  0  0  0
 21 12  1  0  0  0  0
 22 14  1  0  0  0  0
 23 15  1  0  0  0  0
 26  2  1  0  0  0  0
 28 27  2  1  0  0  0
 28 26  1  0  0  0  0
 29 28  1  0  0  0  0
 30 29  1  0  0  0  0
 31 30  1  0  0  0  0
 32 31  1  0  0  0  0
 33 28  1  0  0  0  0
 33 34  1  0  0  0  0
 34 35  2  0  0  0  0
 34 36  1  0  0  0  0
 36 38  1  0  0  0  0
 37 36  1  0  0  0  0
M  END
>  <minimizedAffinity>
-5.17926455

$$$$

 OpenBabel03252508093D

 38 40  0  0  0  0  0  0  0  0999 V2000
   36.7970   27.6430   41.2010 C   0  0  0  0  0  0  0  0  0  0  0  0
   38.0140   28.3020   41.2550 C   0  0  0  0  0  0  0  0  0  0  0  0
   38.5860   28.5900   42.4700 C   0  0  0  0  0  0  0  0  0  0  0  0
   37.8940   28.1930   43.5980 N   0  0  0  0  0  0  0  0  0  0  0  0
   36.7250   27.5600   43.5400 C   0  0  0  0  0  0  0  0  0  0  0  0
   36.1860   27.2910   42.3320 N   0  0  0  0  0  0  0  0  0  0  0  0
   36.3400   27.4140   40.2520 H   0  0  0  0  0  0  0  0  0  0  0  0
   36.1930   27.2540   44.4310 H   0  0  0  0  0  0  0  0  0  0  0  0
   39.8150   29.2520   42.6930 C   0  0  0  0  0  0  0  0  0  0  0  0
   39.9990   30.6310   42.5550 C   0  0  0  0  0  0  0  0  0  0  0  0
   41.2040   31.2660   42.7080 C   0  0  0  0  0  0  0  0  0  0  0  0
   42.3300   30.5330   43.0170 C   0  0  0  0  0  0  0  0  0  0  0  0
   42.1620   29.1340   43.1630 C   0  0  0  0  0  0  0  0  0  0  0  0
   43.2750   28.3910   43.4660 C   0  0  0  0  0  0  0  0  0  0  0  0
   43.1880   27.0220   43.6230 C   0  0  0  0  0  0  0  0  0  0  0  0
   41.9420   26.3900   43.4700 C   0  0  0  0  0  0  0  0  0  0  0  0
   40.8290   27.1910   43.1570 C   0  0  0  0  0  0  0  0  0  0  0  0
   40.9490   28.5450   43.0050 C   0  0  0  0  0  0  0  0  0  0  0  0
   39.1420   31.2530   42.3110 H   0  0  0  0  0  0  0  0  0  0  0  0
   41.3150   32.3320   42.5950 H   0  0  0  0  0  0  0  0  0  0  0  0
   43.3040   30.9540   43.1500 H   0  0  0  0  0  0  0  0  0  0  0  0
   44.2400   28.8690   43.5890 H   0  0  0  0  0  0  0  0  0  0  0  0
   44.1050   26.4780   43.8630 H   0  0  0  0  0  0  0  0  0  0  0  0
   41.9740   25.3280   43.6110 H   0  0  0  0  0  0  0  0  0  0  0  0
   39.9840   26.5390   43.1050 H   0  0  0  0  0  0  0  0  0  0  0  0
   38.5980   28.6360   40.0640 O   0  0  0  0  0  0  0  0  0  0  0  0
   38.7260   29.9420   37.7990 O   0  0  0  0  0  0  0  0  0  0  0  0
   37.7730   29.2940   38.7390 P   0  0  1  0  0  0  0  0  0  0  0  0
   36.9670   28.0840   37.8730 O   0  0  0  0  0  0  0  0  0  0  0  0
   36.8430   28.3860   36.5320 C   0  0  0  0  0  2  0  0  0  0  0  0
   35.4740   28.9980   36.2870 C   0  0  0  0  0  2  0  0  0  0  0  0
   34.6770   28.5050   36.8960 H   0  0  0  0  0  0  0  0  0  0  0  0
   36.6410   30.3880   39.3180 O   0  0  0  0  0  0  0  0  0  0  0  0
   36.7930   31.2490   40.3920 C   0  0  0  0  0  0  0  0  0  0  0  0
   37.8090   31.9160   40.1200 O   0  0  0  0  0  0  0  0  0  0  0  0
   35.7530   31.0440   41.3680 N   0  0  0  0  0  0  0  0  0  0  0  0
   34.7740   31.2630   41.0920 H   0  0  0  0  0  0  0  0  0  0  0  0
   35.8900   30.6830   42.3590 H   0  0  0  0  0  0  0  0  0  0  0  0
  1  2  2  0  0  0  0
  1  6  1  0  0  0  0
  2  3  1  0  0  0  0
  3  9  1  0  0  0  0
  3  4  2  0  0  0  0
  5  4  1  0  0  0  0
  5  8  1  0  0  0  0
  6  5  2  0  0  0  0
  7  1  1  0  0  0  0
  9 18  1  0  0  0  0
 10  9  2  0  0  0  0
 10 11  1  0  0  0  0
 11 12  2  0  0  0  0
 12 21  1  0  0  0  0
 12 13  1  0  0  0  0
 13 14  1  0  0  0  0
 14 22  1  0  0  0  0
 14 15  2  0  0  0  0
 15 23  1  0  0  0  0
 16 24  1  0  0  0  0
 16 15  1  0  0  0  0
 17 16  2  0  0  0  0
 18 17  1  0  0  0  0
 18 13  2  0  0  0  0
 19 10  1  0  0  0  0
 20 11  1  0  0  0  0
 25 17  1  0  0  0  0
 26  2  1  0  0  0  0
 28 27  2  6  0  0  0
 28 33  1  0  0  0  0
 28 26  1  0  0  0  0
 29 28  1  0  0  0  0
 30 29  1  0  0  0  0
 31 30  1  0  0  0  0
 31 32  1  0  0  0  0
 33 34  1  0  0  0  0
 34 36  1  0  0  0  0
 35 34  2  0  0  0  0
 36 38  1  0  0  0  0
 37 36  1  0  0  0  0
M  END
>  <minimizedAffinity>
-5.13837099

$$$$
