
 OpenBabel03252507123D

 22 22  0  0  0  0  0  0  0  0999 V2000
   45.0890   35.0580   43.3950 C   0  0  0  0  0  0  0  0  0  0  0  0
   45.7970   33.9070   43.6920 C   0  0  0  0  0  0  0  0  0  0  0  0
   45.8650   33.4840   45.0250 C   0  0  0  0  0  0  0  0  0  0  0  0
   45.2420   34.2120   45.9710 N   0  0  0  0  0  0  0  0  0  0  0  0
   44.5580   35.3290   45.6620 C   0  0  0  0  0  0  0  0  0  0  0  0
   44.4870   35.7480   44.3610 N   0  0  0  0  0  0  0  0  0  0  0  0
   46.4340   32.5850   45.1520 H   0  0  0  0  0  0  0  0  0  0  0  0
   44.0610   35.9070   46.4330 H   0  0  0  0  0  0  0  0  0  0  0  0
   43.6320   35.4510   41.4260 C   0  0  0  0  0  0  0  0  0  0  0  0
   42.9820   34.3640   41.5740 O   0  0  0  0  0  0  0  0  0  0  0  0
   44.7100   35.8930   42.3110 N   0  0  0  0  0  0  0  0  0  0  0  0
   43.3610   36.0870   40.5850 H   0  0  0  0  0  0  0  0  0  0  0  0
   45.1340   36.8160   42.0740 H   0  0  0  0  0  0  0  0  0  0  0  0
   46.3830   33.2630   42.6250 O   0  0  0  0  0  0  0  0  0  0  0  0
   48.4020   31.7020   43.3270 O   0  0  0  0  0  0  0  0  0  0  0  0
   48.0650   32.9650   42.5720 P   0  0  1  0  0  0  0  0  0  0  0  0
   48.5400   32.7230   40.9650 O   0  0  0  0  0  0  0  0  0  0  0  0
   47.9270   32.1140   40.4870 H   0  0  0  0  0  0  0  0  0  0  0  0
   48.9330   34.2530   43.2070 O   0  0  0  0  0  0  0  0  0  0  0  0
   49.7430   34.7800   42.2060 C   0  0  0  0  0  0  0  0  0  0  0  0
   49.1000   36.0180   41.5890 C   0  0  0  0  0  0  0  0  0  0  0  0
   49.0030   36.8280   42.3400 H   0  0  0  0  0  0  0  0  0  0  0  0
  1  2  2  0  0  0  0
  1  6  1  0  0  0  0
  2  3  1  0  0  0  0
  3  7  1  0  0  0  0
  3  4  2  0  0  0  0
  5  4  1  0  0  0  0
  5  8  1  0  0  0  0
  6  5  2  0  0  0  0
  9 10  2  0  0  0  0
  9 11  1  0  0  0  0
 11  1  1  0  0  0  0
 12  9  1  0  0  0  0
 13 11  1  0  0  0  0
 14  2  1  0  0  0  0
 16 14  1  0  0  0  0
 16 19  1  0  0  0  0
 16 15  2  1  0  0  0
 17 16  1  0  0  0  0
 18 17  1  0  0  0  0
 20 19  1  0  0  0  0
 21 20  1  0  0  0  0
 21 22  1  0  0  0  0
M  END
>  <minimizedAffinity>
-4.1239109

>  <minimizedRMSD>
1.84799981

$$$$
