
 OpenBabel03252505133D

 38 40  0  0  1  0  0  0  0  0999 V2000
   37.4900   32.7060   40.0560 C   0  0  0  0  0  0  0  0  0  0  0  0
   37.1040   31.5240   40.7310 C   0  0  0  0  0  0  0  0  0  0  0  0
   38.0700   30.4990   40.8520 C   0  0  0  0  0  0  0  0  0  0  0  0
   39.3070   30.6920   40.3230 N   0  0  0  0  0  0  0  0  0  0  0  0
   39.6380   31.8260   39.6910 C   0  0  0  0  0  0  0  0  0  0  0  0
   38.7240   32.8490   39.5520 N   0  0  0  0  0  0  0  0  0  0  0  0
   36.7160   33.4340   40.0020 H   0  0  0  0  0  0  0  0  0  0  0  0
   36.1280   31.3440   41.1590 H   0  0  0  0  0  0  0  0  0  0  0  0
   41.0020   31.9970   39.1210 C   0  0  2  0  0  0  0  0  0  0  0  0
   41.8080   32.6030   40.2440 C   0  0  0  0  0  0  0  0  0  0  0  0
   42.1300   34.0350   40.1130 C   0  0  0  0  0  0  0  0  0  0  0  0
   42.8310   34.1590   38.7550 C   0  0  0  0  0  0  0  0  0  0  0  0
   41.9320   33.8710   37.6520 C   0  0  0  0  0  0  0  0  0  0  0  0
   41.0080   32.7410   37.8950 C   0  0  0  0  0  0  0  0  0  0  0  0
   41.3680   30.9550   38.9330 H   0  0  0  0  0  0  0  0  0  0  0  0
   41.3650   32.4440   41.2490 H   0  0  0  0  0  0  0  0  0  0  0  0
   42.7840   32.0470   40.2920 H   0  0  0  0  0  0  0  0  0  0  0  0
   42.8410   34.3000   40.9140 H   0  0  0  0  0  0  0  0  0  0  0  0
   41.2330   34.6560   40.0450 H   0  0  0  0  0  0  0  0  0  0  0  0
   43.6710   33.4250   38.8170 H   0  0  0  0  0  0  0  0  0  0  0  0
   43.1640   35.1870   38.6450 H   0  0  0  0  0  0  0  0  0  0  0  0
   41.7250   34.2350   36.6820 H   0  0  0  0  0  0  0  0  0  0  0  0
   40.0630   32.3370   36.8870 N   0  0  0  0  0  0  0  0  0  0  0  0
   39.1430   32.7230   36.5740 H   0  0  0  0  0  0  0  0  0  0  0  0
   40.2960   31.4860   36.3210 H   0  0  0  0  0  0  0  0  0  0  0  0
   37.7110   29.2700   41.5430 C   0  0  0  0  0  0  0  0  0  0  0  0
   37.7270   29.2620   42.9000 C   0  0  0  0  0  0  0  0  0  0  0  0
   37.3560   28.0490   43.5220 C   0  0  0  0  0  0  0  0  0  0  0  0
   37.0140   26.9980   42.6840 C   0  0  0  0  0  0  0  0  0  0  0  0
   37.0020   27.0230   41.3400 C   0  0  0  0  0  0  0  0  0  0  0  0
   37.3700   28.2200   40.7680 N   0  0  0  0  0  0  0  0  0  0  0  0
   37.9990   30.0960   43.5340 H   0  0  0  0  0  0  0  0  0  0  0  0
   37.3280   27.9010   44.5750 H   0  0  0  0  0  0  0  0  0  0  0  0
   36.7040   25.9990   43.0290 H   0  0  0  0  0  0  0  0  0  0  0  0
   36.6420   25.9310   40.5440 O   0  0  0  0  0  0  0  0  0  0  0  0
   37.2050   24.7460   40.7660 C   0  0  0  0  0  2  0  0  0  0  0  0
   37.8050   23.4840   41.0040 C   0  0  0  0  0  2  0  0  0  0  0  0
   37.6320   23.0600   42.0330 H   0  0  0  0  0  0  0  0  0  0  0  0
  1  2  1  0  0  0  0
  2  3  2  0  0  0  0
  2  8  1  0  0  0  0
  3 26  1  0  0  0  0
  4  3  1  0  0  0  0
  5  4  2  0  0  0  0
  6  5  1  0  0  0  0
  6  1  2  0  0  0  0
  7  1  1  0  0  0  0
  9 15  1  6  0  0  0
  9  5  1  0  0  0  0
  9 10  1  0  0  0  0
 10 17  1  0  0  0  0
 10 16  1  0  0  0  0
 11 10  1  0  0  0  0
 11 18  1  0  0  0  0
 12 20  1  0  0  0  0
 12 11  1  0  0  0  0
 13 14  2  0  0  0  0
 13 12  1  0  0  0  0
 14  9  1  0  0  0  0
 19 11  1  0  0  0  0
 21 12  1  0  0  0  0
 22 13  1  0  0  0  0
 23 14  1  0  0  0  0
 24 23  1  0  0  0  0
 25 23  1  0  0  0  0
 26 27  1  0  0  0  0
 27 28  2  0  0  0  0
 27 32  1  0  0  0  0
 28 33  1  0  0  0  0
 29 34  1  0  0  0  0
 29 28  1  0  0  0  0
 30 29  2  0  0  0  0
 31 30  1  0  0  0  0
 31 26  2  0  0  0  0
 35 36  1  0  0  0  0
 35 30  1  0  0  0  0
 36 37  1  0  0  0  0
 37 38  1  0  0  0  0
M  END
>  <minimizedAffinity>
-5.88378954

$$$$

 OpenBabel03252505133D

 38 40  0  0  1  0  0  0  0  0999 V2000
   38.1620   32.7040   40.0890 C   0  0  0  0  0  0  0  0  0  0  0  0
   37.3120   32.0020   39.2020 C   0  0  0  0  0  0  0  0  0  0  0  0
   37.0630   30.6390   39.4810 C   0  0  0  0  0  0  0  0  0  0  0  0
   37.6430   30.0730   40.5720 N   0  0  0  0  0  0  0  0  0  0  0  0
   38.4420   30.7690   41.3920 C   0  0  0  0  0  0  0  0  0  0  0  0
   38.7090   32.1010   41.1530 N   0  0  0  0  0  0  0  0  0  0  0  0
   38.3040   33.7240   39.8200 H   0  0  0  0  0  0  0  0  0  0  0  0
   36.8400   32.4270   38.3270 H   0  0  0  0  0  0  0  0  0  0  0  0
   39.0620   30.1120   42.5740 C   0  0  2  0  0  0  0  0  0  0  0  0
   40.4610   29.7680   42.1260 C   0  0  0  0  0  0  0  0  0  0  0  0
   40.7210   28.3460   41.8410 C   0  0  0  0  0  0  0  0  0  0  0  0
   40.3170   27.6060   43.1230 C   0  0  0  0  0  0  0  0  0  0  0  0
   38.8890   27.6880   43.3690 C   0  0  0  0  0  0  0  0  0  0  0  0
   38.2920   29.0090   43.0700 C   0  0  0  0  0  0  0  0  0  0  0  0
   39.1170   30.9150   43.3540 H   0  0  0  0  0  0  0  0  0  0  0  0
   40.8100   30.3600   41.2550 H   0  0  0  0  0  0  0  0  0  0  0  0
   41.1600   30.0730   42.9520 H   0  0  0  0  0  0  0  0  0  0  0  0
   41.8050   28.2220   41.6770 H   0  0  0  0  0  0  0  0  0  0  0  0
   40.0710   27.9570   41.0530 H   0  0  0  0  0  0  0  0  0  0  0  0
   40.9130   28.1090   43.9230 H   0  0  0  0  0  0  0  0  0  0  0  0
   40.5670   26.5570   42.9940 H   0  0  0  0  0  0  0  0  0  0  0  0
   38.1070   27.0680   43.7150 H   0  0  0  0  0  0  0  0  0  0  0  0
   36.8850   29.2400   43.2720 N   0  0  0  0  0  0  0  0  0  0  0  0
   36.0320   28.9850   42.7230 H   0  0  0  0  0  0  0  0  0  0  0  0
   36.6010   29.7680   44.1330 H   0  0  0  0  0  0  0  0  0  0  0  0
   36.1910   29.8850   38.5930 C   0  0  0  0  0  0  0  0  0  0  0  0
   35.0570   29.3450   39.1060 C   0  0  0  0  0  0  0  0  0  0  0  0
   34.2390   28.6360   38.1990 C   0  0  0  0  0  0  0  0  0  0  0  0
   34.6770   28.5670   36.8850 C   0  0  0  0  0  0  0  0  0  0  0  0
   35.8040   29.1090   36.3930 C   0  0  0  0  0  0  0  0  0  0  0  0
   36.5790   29.7920   37.3050 N   0  0  0  0  0  0  0  0  0  0  0  0
   34.7350   29.4110   40.1360 H   0  0  0  0  0  0  0  0  0  0  0  0
   33.3240   28.1600   38.4640 H   0  0  0  0  0  0  0  0  0  0  0  0
   34.1410   28.0510   36.0730 H   0  0  0  0  0  0  0  0  0  0  0  0
   36.1960   29.0110   35.0540 O   0  0  0  0  0  0  0  0  0  0  0  0
   36.1720   30.0970   34.2840 C   0  0  0  0  0  2  0  0  0  0  0  0
   36.1460   31.2520   33.4640 C   0  0  0  0  0  2  0  0  0  0  0  0
   35.2160   31.3720   32.8390 H   0  0  0  0  0  0  0  0  0  0  0  0
  1  6  1  0  0  0  0
  2  3  1  0  0  0  0
  2  1  2  0  0  0  0
  3  4  2  0  0  0  0
  4  5  1  0  0  0  0
  5  9  1  0  0  0  0
  6  5  2  0  0  0  0
  7  1  1  0  0  0  0
  8  2  1  0  0  0  0
  9 14  1  0  0  0  0
  9 15  1  1  0  0  0
 10  9  1  0  0  0  0
 10 17  1  0  0  0  0
 11 10  1  0  0  0  0
 11 12  1  0  0  0  0
 12 13  1  0  0  0  0
 12 20  1  0  0  0  0
 13 22  1  0  0  0  0
 14 23  1  0  0  0  0
 14 13  2  0  0  0  0
 16 10  1  0  0  0  0
 18 11  1  0  0  0  0
 19 11  1  0  0  0  0
 21 12  1  0  0  0  0
 23 25  1  0  0  0  0
 24 23  1  0  0  0  0
 26 27  1  0  0  0  0
 26  3  1  0  0  0  0
 27 32  1  0  0  0  0
 28 33  1  0  0  0  0
 28 27  2  0  0  0  0
 29 28  1  0  0  0  0
 30 29  2  0  0  0  0
 30 31  1  0  0  0  0
 31 26  2  0  0  0  0
 34 29  1  0  0  0  0
 35 30  1  0  0  0  0
 36 35  1  0  0  0  0
 37 36  1  0  0  0  0
 38 37  1  0  0  0  0
M  END
>  <minimizedAffinity>
-5.79197788

$$$$

 OpenBabel03252505133D

 38 40  0  0  1  0  0  0  0  0999 V2000
   36.0340   29.1480   37.7460 C   0  0  0  0  0  0  0  0  0  0  0  0
   36.1490   28.4560   38.9750 C   0  0  0  0  0  0  0  0  0  0  0  0
   36.9510   29.0420   39.9800 C   0  0  0  0  0  0  0  0  0  0  0  0
   37.5660   30.2270   39.7250 N   0  0  0  0  0  0  0  0  0  0  0  0
   37.4340   30.8560   38.5490 C   0  0  0  0  0  0  0  0  0  0  0  0
   36.6600   30.3160   37.5440 N   0  0  0  0  0  0  0  0  0  0  0  0
   35.4160   28.6510   37.0370 H   0  0  0  0  0  0  0  0  0  0  0  0
   35.6730   27.5120   39.2020 H   0  0  0  0  0  0  0  0  0  0  0  0
   38.1270   32.1500   38.3080 C   0  0  2  0  0  0  0  0  0  0  0  0
   39.4750   31.7600   37.7530 C   0  0  0  0  0  0  0  0  0  0  0  0
   40.6210   31.9030   38.6680 C   0  0  0  0  0  0  0  0  0  0  0  0
   40.5770   33.3660   39.1280 C   0  0  0  0  0  0  0  0  0  0  0  0
   39.4070   33.6450   39.9400 C   0  0  0  0  0  0  0  0  0  0  0  0
   38.1650   32.9920   39.4680 C   0  0  0  0  0  0  0  0  0  0  0  0
   37.5320   32.6490   37.4990 H   0  0  0  0  0  0  0  0  0  0  0  0
   39.5040   30.7350   37.3280 H   0  0  0  0  0  0  0  0  0  0  0  0
   39.6750   32.4210   36.8660 H   0  0  0  0  0  0  0  0  0  0  0  0
   41.5440   31.7320   38.0900 H   0  0  0  0  0  0  0  0  0  0  0  0
   40.5050   31.3010   39.5730 H   0  0  0  0  0  0  0  0  0  0  0  0
   40.5780   33.9480   38.1750 H   0  0  0  0  0  0  0  0  0  0  0  0
   41.4530   33.5470   39.7440 H   0  0  0  0  0  0  0  0  0  0  0  0
   39.1540   34.1980   40.8030 H   0  0  0  0  0  0  0  0  0  0  0  0
   36.9230   33.1820   40.1710 N   0  0  0  0  0  0  0  0  0  0  0  0
   36.5300   32.7760   41.0510 H   0  0  0  0  0  0  0  0  0  0  0  0
   36.2340   33.8560   39.7590 H   0  0  0  0  0  0  0  0  0  0  0  0
   37.0900   28.3610   41.2580 C   0  0  0  0  0  0  0  0  0  0  0  0
   37.3100   29.1090   42.3690 C   0  0  0  0  0  0  0  0  0  0  0  0
   37.4230   28.3990   43.5860 C   0  0  0  0  0  0  0  0  0  0  0  0
   37.2970   27.0200   43.5180 C   0  0  0  0  0  0  0  0  0  0  0  0
   37.0790   26.2940   42.4080 C   0  0  0  0  0  0  0  0  0  0  0  0
   36.9750   27.0170   41.2400 N   0  0  0  0  0  0  0  0  0  0  0  0
   37.4050   30.1850   42.3980 H   0  0  0  0  0  0  0  0  0  0  0  0
   37.5970   28.8570   44.5300 H   0  0  0  0  0  0  0  0  0  0  0  0
   37.3610   26.3430   44.3840 H   0  0  0  0  0  0  0  0  0  0  0  0
   36.9550   24.9010   42.3990 O   0  0  0  0  0  0  0  0  0  0  0  0
   36.6380   24.2800   41.2660 C   0  0  0  0  0  2  0  0  0  0  0  0
   36.3000   23.6180   40.0590 C   0  0  0  0  0  2  0  0  0  0  0  0
   37.1570   23.1010   39.5430 H   0  0  0  0  0  0  0  0  0  0  0  0
  1  2  1  0  0  0  0
  2  8  1  0  0  0  0
  2  3  2  0  0  0  0
  3 26  1  0  0  0  0
  4  3  1  0  0  0  0
  5  4  2  0  0  0  0
  6  1  2  0  0  0  0
  6  5  1  0  0  0  0
  7  1  1  0  0  0  0
  9 15  1  6  0  0  0
  9  5  1  0  0  0  0
  9 14  1  0  0  0  0
 10  9  1  0  0  0  0
 10 11  1  0  0  0  0
 11 12  1  0  0  0  0
 11 19  1  0  0  0  0
 12 21  1  0  0  0  0
 12 13  1  0  0  0  0
 13 22  1  0  0  0  0
 14 13  2  0  0  0  0
 14 23  1  0  0  0  0
 16 10  1  0  0  0  0
 17 10  1  0  0  0  0
 18 11  1  0  0  0  0
 20 12  1  0  0  0  0
 23 24  1  0  0  0  0
 25 23  1  0  0  0  0
 26 27  1  0  0  0  0
 27 32  1  0  0  0  0
 27 28  2  0  0  0  0
 28 33  1  0  0  0  0
 29 28  1  0  0  0  0
 29 34  1  0  0  0  0
 30 29  2  0  0  0  0
 31 26  2  0  0  0  0
 31 30  1  0  0  0  0
 35 30  1  0  0  0  0
 36 35  1  0  0  0  0
 37 36  1  0  0  0  0
 38 37  1  0  0  0  0
M  END
>  <minimizedAffinity>
-5.65951204

$$$$

 OpenBabel03252505133D

 38 40  0  0  1  0  0  0  0  0999 V2000
   35.4080   27.9970   37.4020 C   0  0  0  0  0  0  0  0  0  0  0  0
   35.8270   27.0240   38.3400 C   0  0  0  0  0  0  0  0  0  0  0  0
   36.5490   27.4740   39.4690 C   0  0  0  0  0  0  0  0  0  0  0  0
   36.8030   28.8030   39.6010 N   0  0  0  0  0  0  0  0  0  0  0  0
   36.3890   29.6980   38.6930 C   0  0  0  0  0  0  0  0  0  0  0  0
   35.6830   29.2970   37.5790 N   0  0  0  0  0  0  0  0  0  0  0  0
   34.8710   27.5880   36.5800 H   0  0  0  0  0  0  0  0  0  0  0  0
   35.6410   25.9620   38.2570 H   0  0  0  0  0  0  0  0  0  0  0  0
   36.6910   31.1440   38.8720 C   0  0  2  0  0  0  0  0  0  0  0  0
   37.9070   31.3860   38.0130 C   0  0  0  0  0  0  0  0  0  0  0  0
   39.1850   31.5550   38.7270 C   0  0  0  0  0  0  0  0  0  0  0  0
   38.9330   32.6960   39.7200 C   0  0  0  0  0  0  0  0  0  0  0  0
   37.9730   32.3230   40.7440 C   0  0  0  0  0  0  0  0  0  0  0  0
   36.8320   31.5220   40.2480 C   0  0  0  0  0  0  0  0  0  0  0  0
   35.8160   31.6790   38.4210 H   0  0  0  0  0  0  0  0  0  0  0  0
   38.0570   30.6200   37.2230 H   0  0  0  0  0  0  0  0  0  0  0  0
   37.7240   32.3320   37.4330 H   0  0  0  0  0  0  0  0  0  0  0  0
   39.9460   31.8730   37.9950 H   0  0  0  0  0  0  0  0  0  0  0  0
   39.4390   30.6810   39.3320 H   0  0  0  0  0  0  0  0  0  0  0  0
   38.5620   33.5340   39.0810 H   0  0  0  0  0  0  0  0  0  0  0  0
   39.8720   32.9170   40.2180 H   0  0  0  0  0  0  0  0  0  0  0  0
   37.8300   32.4540   41.7820 H   0  0  0  0  0  0  0  0  0  0  0  0
   35.7970   31.0840   41.1490 N   0  0  0  0  0  0  0  0  0  0  0  0
   35.7400   30.3100   41.8500 H   0  0  0  0  0  0  0  0  0  0  0  0
   34.8940   31.6150   41.1410 H   0  0  0  0  0  0  0  0  0  0  0  0
   36.9930   26.5030   40.4560 C   0  0  0  0  0  0  0  0  0  0  0  0
   36.7750   25.1860   40.2110 C   0  0  0  0  0  0  0  0  0  0  0  0
   37.2390   24.2840   41.1940 C   0  0  0  0  0  0  0  0  0  0  0  0
   37.8680   24.8350   42.3010 C   0  0  0  0  0  0  0  0  0  0  0  0
   38.0760   26.1440   42.5270 C   0  0  0  0  0  0  0  0  0  0  0  0
   37.6100   26.9950   41.5500 N   0  0  0  0  0  0  0  0  0  0  0  0
   36.2820   24.7780   39.3390 H   0  0  0  0  0  0  0  0  0  0  0  0
   37.1340   23.2270   41.1330 H   0  0  0  0  0  0  0  0  0  0  0  0
   38.2790   24.2540   43.1410 H   0  0  0  0  0  0  0  0  0  0  0  0
   38.7210   26.6450   43.6630 O   0  0  0  0  0  0  0  0  0  0  0  0
   40.0480   26.7460   43.6700 C   0  0  0  0  0  2  0  0  0  0  0  0
   41.4620   26.8530   43.6790 C   0  0  0  0  0  2  0  0  0  0  0  0
   42.0060   25.9450   44.0630 H   0  0  0  0  0  0  0  0  0  0  0  0
  1  6  2  0  0  0  0
  1  2  1  0  0  0  0
  2  3  2  0  0  0  0
  3  4  1  0  0  0  0
  3 26  1  0  0  0  0
  5  9  1  0  0  0  0
  5  4  2  0  0  0  0
  6  5  1  0  0  0  0
  7  1  1  0  0  0  0
  8  2  1  0  0  0  0
  9 15  1  6  0  0  0
  9 14  1  0  0  0  0
 10 11  1  0  0  0  0
 10  9  1  0  0  0  0
 11 19  1  0  0  0  0
 11 12  1  0  0  0  0
 12 21  1  0  0  0  0
 12 13  1  0  0  0  0
 13 22  1  0  0  0  0
 14 13  2  0  0  0  0
 14 23  1  0  0  0  0
 16 10  1  0  0  0  0
 17 10  1  0  0  0  0
 18 11  1  0  0  0  0
 20 12  1  0  0  0  0
 23 24  1  0  0  0  0
 25 23  1  0  0  0  0
 26 31  1  0  0  0  0
 27 26  2  0  0  0  0
 27 28  1  0  0  0  0
 28 29  2  0  0  0  0
 29 30  1  0  0  0  0
 29 34  1  0  0  0  0
 30 35  1  0  0  0  0
 31 30  2  0  0  0  0
 32 27  1  0  0  0  0
 33 28  1  0  0  0  0
 35 36  1  0  0  0  0
 36 37  1  0  0  0  0
 37 38  1  0  0  0  0
M  END
>  <minimizedAffinity>
-5.55871344

$$$$

 OpenBabel03252505133D

 38 40  0  0  1  0  0  0  0  0999 V2000
   36.3520   26.5350   39.1040 C   0  0  0  0  0  0  0  0  0  0  0  0
   37.2910   26.2240   40.1160 C   0  0  0  0  0  0  0  0  0  0  0  0
   37.9250   27.3040   40.7710 C   0  0  0  0  0  0  0  0  0  0  0  0
   37.6080   28.5740   40.4040 N   0  0  0  0  0  0  0  0  0  0  0  0
   36.7120   28.8320   39.4420 C   0  0  0  0  0  0  0  0  0  0  0  0
   36.0730   27.8050   38.7800 N   0  0  0  0  0  0  0  0  0  0  0  0
   35.9140   25.6750   38.6550 H   0  0  0  0  0  0  0  0  0  0  0  0
   37.5630   25.2240   40.4240 H   0  0  0  0  0  0  0  0  0  0  0  0
   36.3950   30.2370   39.0670 C   0  0  2  0  0  0  0  0  0  0  0  0
   37.3480   30.5520   37.9400 C   0  0  0  0  0  0  0  0  0  0  0  0
   38.4790   31.4350   38.2720 C   0  0  0  0  0  0  0  0  0  0  0  0
   37.8340   32.6950   38.8640 C   0  0  0  0  0  0  0  0  0  0  0  0
   37.1800   32.4250   40.1310 C   0  0  0  0  0  0  0  0  0  0  0  0
   36.4470   31.1400   40.1790 C   0  0  0  0  0  0  0  0  0  0  0  0
   35.3520   30.1980   38.6600 H   0  0  0  0  0  0  0  0  0  0  0  0
   37.7550   29.6520   37.4340 H   0  0  0  0  0  0  0  0  0  0  0  0
   36.7540   31.0630   37.1340 H   0  0  0  0  0  0  0  0  0  0  0  0
   38.9950   31.6980   37.3330 H   0  0  0  0  0  0  0  0  0  0  0  0
   39.1090   31.0210   39.0630 H   0  0  0  0  0  0  0  0  0  0  0  0
   37.1120   33.0230   38.0780 H   0  0  0  0  0  0  0  0  0  0  0  0
   38.6240   33.4160   39.0510 H   0  0  0  0  0  0  0  0  0  0  0  0
   37.0560   32.8850   41.0730 H   0  0  0  0  0  0  0  0  0  0  0  0
   35.7440   30.7410   41.3710 N   0  0  0  0  0  0  0  0  0  0  0  0
   36.0560   30.3350   42.2830 H   0  0  0  0  0  0  0  0  0  0  0  0
   34.7030   30.8600   41.3790 H   0  0  0  0  0  0  0  0  0  0  0  0
   38.8940   27.0240   41.8190 C   0  0  0  0  0  0  0  0  0  0  0  0
   38.8250   25.8300   42.4600 C   0  0  0  0  0  0  0  0  0  0  0  0
   39.7980   25.6020   43.4590 C   0  0  0  0  0  0  0  0  0  0  0  0
   40.7180   26.6170   43.6780 C   0  0  0  0  0  0  0  0  0  0  0  0
   40.7720   27.7940   43.0320 C   0  0  0  0  0  0  0  0  0  0  0  0
   39.8090   27.9840   42.0660 N   0  0  0  0  0  0  0  0  0  0  0  0
   38.0980   25.0520   42.2720 H   0  0  0  0  0  0  0  0  0  0  0  0
   39.8610   24.7130   44.0400 H   0  0  0  0  0  0  0  0  0  0  0  0
   41.5300   26.5750   44.4200 H   0  0  0  0  0  0  0  0  0  0  0  0
   41.7270   28.7820   43.2920 O   0  0  0  0  0  0  0  0  0  0  0  0
   41.5870   29.9870   42.7450 C   0  0  0  0  0  2  0  0  0  0  0  0
   41.4380   31.2700   42.1620 C   0  0  0  0  0  2  0  0  0  0  0  0
   40.3880   31.6790   42.1730 H   0  0  0  0  0  0  0  0  0  0  0  0
  1  2  1  0  0  0  0
  2  8  1  0  0  0  0
  2  3  2  0  0  0  0
  3 26  1  0  0  0  0
  4  3  1  0  0  0  0
  5  4  2  0  0  0  0
  6  1  2  0  0  0  0
  6  5  1  0  0  0  0
  7  1  1  0  0  0  0
  9 15  1  6  0  0  0
  9  5  1  0  0  0  0
  9 14  1  0  0  0  0
 10 11  1  0  0  0  0
 10  9  1  0  0  0  0
 11 12  1  0  0  0  0
 11 19  1  0  0  0  0
 12 21  1  0  0  0  0
 12 13  1  0  0  0  0
 13 14  2  0  0  0  0
 13 22  1  0  0  0  0
 14 23  1  0  0  0  0
 16 10  1  0  0  0  0
 17 10  1  0  0  0  0
 18 11  1  0  0  0  0
 20 12  1  0  0  0  0
 23 25  1  0  0  0  0
 23 24  1  0  0  0  0
 26 31  2  0  0  0  0
 26 27  1  0  0  0  0
 27 28  2  0  0  0  0
 28 29  1  0  0  0  0
 28 33  1  0  0  0  0
 29 34  1  0  0  0  0
 30 35  1  0  0  0  0
 30 29  2  0  0  0  0
 31 30  1  0  0  0  0
 32 27  1  0  0  0  0
 36 35  1  0  0  0  0
 37 38  1  0  0  0  0
 37 36  1  0  0  0  0
M  END
>  <minimizedAffinity>
-5.39706516

$$$$

 OpenBabel03252505133D

 38 40  0  0  1  0  0  0  0  0999 V2000
   32.9150   26.8990   36.0340 C   0  0  0  0  0  0  0  0  0  0  0  0
   34.0770   27.3510   36.7050 C   0  0  0  0  0  0  0  0  0  0  0  0
   34.0150   28.6150   37.3340 C   0  0  0  0  0  0  0  0  0  0  0  0
   32.8600   29.3290   37.2680 N   0  0  0  0  0  0  0  0  0  0  0  0
   31.7780   28.8690   36.6240 C   0  0  0  0  0  0  0  0  0  0  0  0
   31.8000   27.6410   35.9980 N   0  0  0  0  0  0  0  0  0  0  0  0
   33.0330   25.9420   35.5850 H   0  0  0  0  0  0  0  0  0  0  0  0
   35.0070   26.8050   36.7710 H   0  0  0  0  0  0  0  0  0  0  0  0
   30.5350   29.6830   36.5700 C   0  0  2  0  0  0  0  0  0  0  0  0
   30.6180   30.4150   35.2530 C   0  0  0  0  0  0  0  0  0  0  0  0
   30.9440   31.8500   35.3270 C   0  0  0  0  0  0  0  0  0  0  0  0
   29.8860   32.4470   36.2640 C   0  0  0  0  0  0  0  0  0  0  0  0
   30.0260   31.9570   37.6230 C   0  0  0  0  0  0  0  0  0  0  0  0
   30.3600   30.5180   37.7220 C   0  0  0  0  0  0  0  0  0  0  0  0
   29.7020   28.9340   36.5170 H   0  0  0  0  0  0  0  0  0  0  0  0
   31.3090   29.9460   34.5230 H   0  0  0  0  0  0  0  0  0  0  0  0
   29.6110   30.3290   34.7590 H   0  0  0  0  0  0  0  0  0  0  0  0
   30.8200   32.2810   34.3190 H   0  0  0  0  0  0  0  0  0  0  0  0
   31.9080   32.0310   35.8100 H   0  0  0  0  0  0  0  0  0  0  0  0
   28.9150   32.1420   35.8030 H   0  0  0  0  0  0  0  0  0  0  0  0
   30.0320   33.5230   36.2880 H   0  0  0  0  0  0  0  0  0  0  0  0
   29.9570   32.3260   38.6100 H   0  0  0  0  0  0  0  0  0  0  0  0
   30.5240   29.8910   39.0080 N   0  0  0  0  0  0  0  0  0  0  0  0
   31.3020   29.8850   39.7060 H   0  0  0  0  0  0  0  0  0  0  0  0
   29.7300   29.3070   39.3650 H   0  0  0  0  0  0  0  0  0  0  0  0
   35.1880   29.1110   38.0370 C   0  0  0  0  0  0  0  0  0  0  0  0
   36.1780   29.6920   37.3130 C   0  0  0  0  0  0  0  0  0  0  0  0
   37.2880   30.1700   38.0460 C   0  0  0  0  0  0  0  0  0  0  0  0
   37.2490   29.9970   39.4220 C   0  0  0  0  0  0  0  0  0  0  0  0
   36.2600   29.4190   40.1230 C   0  0  0  0  0  0  0  0  0  0  0  0
   35.1940   28.9640   39.3780 N   0  0  0  0  0  0  0  0  0  0  0  0
   36.1870   29.8160   36.2390 H   0  0  0  0  0  0  0  0  0  0  0  0
   38.1340   30.6430   37.6080 H   0  0  0  0  0  0  0  0  0  0  0  0
   38.0410   30.3210   40.1150 H   0  0  0  0  0  0  0  0  0  0  0  0
   36.2720   29.2750   41.5140 O   0  0  0  0  0  0  0  0  0  0  0  0
   36.6100   28.1030   42.0470 C   0  0  0  0  0  2  0  0  0  0  0  0
   36.9700   26.8550   42.6150 C   0  0  0  0  0  2  0  0  0  0  0  0
   37.9840   26.8300   43.1050 H   0  0  0  0  0  0  0  0  0  0  0  0
  1  2  1  0  0  0  0
  2  8  1  0  0  0  0
  2  3  2  0  0  0  0
  3 26  1  0  0  0  0
  4  3  1  0  0  0  0
  5  4  2  0  0  0  0
  6  1  2  0  0  0  0
  6  5  1  0  0  0  0
  7  1  1  0  0  0  0
  9 15  1  6  0  0  0
  9  5  1  0  0  0  0
  9 14  1  0  0  0  0
 10 11  1  0  0  0  0
 10  9  1  0  0  0  0
 11 19  1  0  0  0  0
 11 12  1  0  0  0  0
 12 21  1  0  0  0  0
 12 13  1  0  0  0  0
 13 14  2  0  0  0  0
 13 22  1  0  0  0  0
 14 23  1  0  0  0  0
 16 10  1  0  0  0  0
 17 10  1  0  0  0  0
 18 11  1  0  0  0  0
 20 12  1  0  0  0  0
 23 25  1  0  0  0  0
 23 24  1  0  0  0  0
 26 31  1  0  0  0  0
 27 26  2  0  0  0  0
 27 28  1  0  0  0  0
 28 29  2  0  0  0  0
 29 34  1  0  0  0  0
 29 30  1  0  0  0  0
 30 35  1  0  0  0  0
 31 30  2  0  0  0  0
 32 27  1  0  0  0  0
 33 28  1  0  0  0  0
 35 36  1  0  0  0  0
 36 37  1  0  0  0  0
 37 38  1  0  0  0  0
M  END
>  <minimizedAffinity>
-5.34018707

$$$$

 OpenBabel03252505133D

 38 40  0  0  1  0  0  0  0  0999 V2000
   35.8260   24.4190   38.9340 C   0  0  0  0  0  0  0  0  0  0  0  0
   35.9330   25.6170   38.1890 C   0  0  0  0  0  0  0  0  0  0  0  0
   36.5290   26.7290   38.8260 C   0  0  0  0  0  0  0  0  0  0  0  0
   36.9650   26.5990   40.1060 N   0  0  0  0  0  0  0  0  0  0  0  0
   36.8490   25.4470   40.7820 C   0  0  0  0  0  0  0  0  0  0  0  0
   36.2730   24.3410   40.1940 N   0  0  0  0  0  0  0  0  0  0  0  0
   35.3690   23.6240   38.3920 H   0  0  0  0  0  0  0  0  0  0  0  0
   35.5920   25.7480   37.1710 H   0  0  0  0  0  0  0  0  0  0  0  0
   37.3350   25.3460   42.1840 C   0  0  2  0  0  0  0  0  0  0  0  0
   37.4420   26.7770   42.6520 C   0  0  0  0  0  0  0  0  0  0  0  0
   38.8050   27.3260   42.7590 C   0  0  0  0  0  0  0  0  0  0  0  0
   39.5510   26.3510   43.6790 C   0  0  0  0  0  0  0  0  0  0  0  0
   39.7160   25.0450   43.0670 C   0  0  0  0  0  0  0  0  0  0  0  0
   38.5370   24.5730   42.3070 C   0  0  0  0  0  0  0  0  0  0  0  0
   36.5040   24.8430   42.7420 H   0  0  0  0  0  0  0  0  0  0  0  0
   36.8330   27.4890   42.0560 H   0  0  0  0  0  0  0  0  0  0  0  0
   36.9820   26.8280   43.6770 H   0  0  0  0  0  0  0  0  0  0  0  0
   38.7390   28.3110   43.2520 H   0  0  0  0  0  0  0  0  0  0  0  0
   39.3360   27.3030   41.8050 H   0  0  0  0  0  0  0  0  0  0  0  0
   38.9170   26.3090   44.5980 H   0  0  0  0  0  0  0  0  0  0  0  0
   40.5420   26.7560   43.8580 H   0  0  0  0  0  0  0  0  0  0  0  0
   40.4510   24.2910   42.9940 H   0  0  0  0  0  0  0  0  0  0  0  0
   38.5530   23.2920   41.6500 N   0  0  0  0  0  0  0  0  0  0  0  0
   38.9780   22.9520   40.7570 H   0  0  0  0  0  0  0  0  0  0  0  0
   38.0490   22.5020   42.1200 H   0  0  0  0  0  0  0  0  0  0  0  0
   36.6590   27.9770   38.0910 C   0  0  0  0  0  0  0  0  0  0  0  0
   37.2520   29.0320   38.7060 C   0  0  0  0  0  0  0  0  0  0  0  0
   37.3670   30.2150   37.9430 C   0  0  0  0  0  0  0  0  0  0  0  0
   36.8660   30.1760   36.6500 C   0  0  0  0  0  0  0  0  0  0  0  0
   36.2820   29.1210   36.0550 C   0  0  0  0  0  0  0  0  0  0  0  0
   36.1850   27.9850   36.8280 N   0  0  0  0  0  0  0  0  0  0  0  0
   37.6350   29.0400   39.7170 H   0  0  0  0  0  0  0  0  0  0  0  0
   37.8060   31.1160   38.3000 H   0  0  0  0  0  0  0  0  0  0  0  0
   36.8900   31.0200   35.9440 H   0  0  0  0  0  0  0  0  0  0  0  0
   35.7980   29.1370   34.7430 O   0  0  0  0  0  0  0  0  0  0  0  0
   36.1380   30.1350   33.9320 C   0  0  0  0  0  2  0  0  0  0  0  0
   36.5000   31.1980   33.0670 C   0  0  0  0  0  2  0  0  0  0  0  0
   35.8660   31.2960   32.1410 H   0  0  0  0  0  0  0  0  0  0  0  0
  1  6  1  0  0  0  0
  2  3  1  0  0  0  0
  2  1  2  0  0  0  0
  3  4  2  0  0  0  0
  4  5  1  0  0  0  0
  5  9  1  0  0  0  0
  6  5  2  0  0  0  0
  7  1  1  0  0  0  0
  8  2  1  0  0  0  0
  9 14  1  0  0  0  0
  9 10  1  0  0  0  0
  9 15  1  1  0  0  0
 10 11  1  0  0  0  0
 10 17  1  0  0  0  0
 11 18  1  0  0  0  0
 11 12  1  0  0  0  0
 12 21  1  0  0  0  0
 12 20  1  0  0  0  0
 13 12  1  0  0  0  0
 14 13  2  0  0  0  0
 16 10  1  0  0  0  0
 19 11  1  0  0  0  0
 22 13  1  0  0  0  0
 23 25  1  0  0  0  0
 23 14  1  0  0  0  0
 24 23  1  0  0  0  0
 26 27  1  0  0  0  0
 26  3  1  0  0  0  0
 27 32  1  0  0  0  0
 28 33  1  0  0  0  0
 28 27  2  0  0  0  0
 29 28  1  0  0  0  0
 30 29  2  0  0  0  0
 30 31  1  0  0  0  0
 31 26  2  0  0  0  0
 34 29  1  0  0  0  0
 35 30  1  0  0  0  0
 36 35  1  0  0  0  0
 37 36  1  0  0  0  0
 38 37  1  0  0  0  0
M  END
>  <minimizedAffinity>
-5.24774551

$$$$

 OpenBabel03252505133D

 38 40  0  0  1  0  0  0  0  0999 V2000
   36.6360   27.8040   42.5640 C   0  0  0  0  0  0  0  0  0  0  0  0
   37.9740   27.9920   42.9840 C   0  0  0  0  0  0  0  0  0  0  0  0
   38.7790   28.8670   42.2200 C   0  0  0  0  0  0  0  0  0  0  0  0
   38.2390   29.4790   41.1330 N   0  0  0  0  0  0  0  0  0  0  0  0
   36.9660   29.2780   40.7650 C   0  0  0  0  0  0  0  0  0  0  0  0
   36.1500   28.4320   41.4850 N   0  0  0  0  0  0  0  0  0  0  0  0
   36.0890   27.1340   43.1850 H   0  0  0  0  0  0  0  0  0  0  0  0
   38.4280   27.5170   43.8420 H   0  0  0  0  0  0  0  0  0  0  0  0
   36.4140   29.9630   39.5660 C   0  0  2  0  0  0  0  0  0  0  0  0
   36.7580   29.0500   38.4150 C   0  0  0  0  0  0  0  0  0  0  0  0
   37.8520   29.4960   37.5340 C   0  0  0  0  0  0  0  0  0  0  0  0
   37.4340   30.8960   37.0670 C   0  0  0  0  0  0  0  0  0  0  0  0
   37.4140   31.8510   38.1600 C   0  0  0  0  0  0  0  0  0  0  0  0
   36.8740   31.3140   39.4300 C   0  0  0  0  0  0  0  0  0  0  0  0
   35.3030   29.9560   39.7150 H   0  0  0  0  0  0  0  0  0  0  0  0
   36.9730   28.0050   38.7220 H   0  0  0  0  0  0  0  0  0  0  0  0
   35.8370   28.9540   37.7770 H   0  0  0  0  0  0  0  0  0  0  0  0
   37.8890   28.8190   36.6650 H   0  0  0  0  0  0  0  0  0  0  0  0
   38.7910   29.6300   38.0770 H   0  0  0  0  0  0  0  0  0  0  0  0
   36.4200   30.7410   36.6240 H   0  0  0  0  0  0  0  0  0  0  0  0
   38.1700   31.2400   36.3460 H   0  0  0  0  0  0  0  0  0  0  0  0
   37.6760   32.8580   38.3380 H   0  0  0  0  0  0  0  0  0  0  0  0
   36.7880   32.1490   40.6000 N   0  0  0  0  0  0  0  0  0  0  0  0
   37.4930   32.4710   41.3020 H   0  0  0  0  0  0  0  0  0  0  0  0
   35.8470   32.5410   40.8450 H   0  0  0  0  0  0  0  0  0  0  0  0
   40.1590   29.0890   42.6230 C   0  0  0  0  0  0  0  0  0  0  0  0
   40.8790   28.0310   43.0730 C   0  0  0  0  0  0  0  0  0  0  0  0
   42.2180   28.2970   43.4380 C   0  0  0  0  0  0  0  0  0  0  0  0
   42.6550   29.6060   43.2960 C   0  0  0  0  0  0  0  0  0  0  0  0
   41.9280   30.6430   42.8470 C   0  0  0  0  0  0  0  0  0  0  0  0
   40.6270   30.3480   42.5020 N   0  0  0  0  0  0  0  0  0  0  0  0
   40.5170   27.0170   43.1750 H   0  0  0  0  0  0  0  0  0  0  0  0
   42.8940   27.5640   43.8080 H   0  0  0  0  0  0  0  0  0  0  0  0
   43.6700   29.9560   43.5390 H   0  0  0  0  0  0  0  0  0  0  0  0
   42.4220   31.9450   42.7210 O   0  0  0  0  0  0  0  0  0  0  0  0
   42.2350   32.6090   41.5830 C   0  0  0  0  0  2  0  0  0  0  0  0
   42.0350   33.3150   40.3700 C   0  0  0  0  0  2  0  0  0  0  0  0
   41.2820   34.1510   40.4250 H   0  0  0  0  0  0  0  0  0  0  0  0
  1  2  1  0  0  0  0
  1  7  1  0  0  0  0
  2  8  1  0  0  0  0
  3 26  1  0  0  0  0
  3  2  2  0  0  0  0
  4  3  1  0  0  0  0
  5  4  2  0  0  0  0
  5  6  1  0  0  0  0
  6  1  2  0  0  0  0
  9 15  1  1  0  0  0
  9  5  1  0  0  0  0
 10 16  1  0  0  0  0
 10  9  1  0  0  0  0
 11 19  1  0  0  0  0
 11 10  1  0  0  0  0
 12 11  1  0  0  0  0
 12 13  1  0  0  0  0
 13 22  1  0  0  0  0
 13 14  2  0  0  0  0
 14  9  1  0  0  0  0
 14 23  1  0  0  0  0
 17 10  1  0  0  0  0
 18 11  1  0  0  0  0
 20 12  1  0  0  0  0
 21 12  1  0  0  0  0
 23 25  1  0  0  0  0
 23 24  1  0  0  0  0
 26 27  1  0  0  0  0
 27 32  1  0  0  0  0
 27 28  2  0  0  0  0
 28 33  1  0  0  0  0
 29 28  1  0  0  0  0
 29 34  1  0  0  0  0
 30 29  2  0  0  0  0
 31 26  2  0  0  0  0
 31 30  1  0  0  0  0
 35 30  1  0  0  0  0
 36 35  1  0  0  0  0
 37 38  1  0  0  0  0
 37 36  1  0  0  0  0
M  END
>  <minimizedAffinity>
-5.18555641

$$$$

 OpenBabel03252505133D

 38 40  0  0  1  0  0  0  0  0999 V2000
   38.3690   31.3220   39.5100 C   0  0  0  0  0  0  0  0  0  0  0  0
   37.4990   31.0760   38.4220 C   0  0  0  0  0  0  0  0  0  0  0  0
   36.9040   29.7960   38.3400 C   0  0  0  0  0  0  0  0  0  0  0  0
   37.1910   28.8740   39.2960 N   0  0  0  0  0  0  0  0  0  0  0  0
   38.0200   29.1430   40.3150 C   0  0  0  0  0  0  0  0  0  0  0  0
   38.6190   30.3790   40.4290 N   0  0  0  0  0  0  0  0  0  0  0  0
   38.7790   32.3050   39.5090 H   0  0  0  0  0  0  0  0  0  0  0  0
   37.2560   31.7910   37.6480 H   0  0  0  0  0  0  0  0  0  0  0  0
   38.3110   28.1040   41.3390 C   0  0  2  0  0  0  0  0  0  0  0  0
   38.3250   26.8070   40.5700 C   0  0  0  0  0  0  0  0  0  0  0  0
   37.1560   25.9290   40.7530 C   0  0  0  0  0  0  0  0  0  0  0  0
   37.0620   25.7110   42.2690 C   0  0  0  0  0  0  0  0  0  0  0  0
   36.7300   26.9360   42.9740 C   0  0  0  0  0  0  0  0  0  0  0  0
   37.4080   28.1440   42.4520 C   0  0  0  0  0  0  0  0  0  0  0  0
   39.3520   28.3300   41.6900 H   0  0  0  0  0  0  0  0  0  0  0  0
   38.4870   26.9350   39.4790 H   0  0  0  0  0  0  0  0  0  0  0  0
   39.2290   26.2280   40.9060 H   0  0  0  0  0  0  0  0  0  0  0  0
   37.3710   24.9660   40.2610 H   0  0  0  0  0  0  0  0  0  0  0  0
   36.2230   26.4170   40.4620 H   0  0  0  0  0  0  0  0  0  0  0  0
   38.0710   25.3230   42.5490 H   0  0  0  0  0  0  0  0  0  0  0  0
   36.2610   25.0010   42.4530 H   0  0  0  0  0  0  0  0  0  0  0  0
   36.1280   27.2460   43.7840 H   0  0  0  0  0  0  0  0  0  0  0  0
   37.1790   29.4310   43.0560 N   0  0  0  0  0  0  0  0  0  0  0  0
   36.3970   30.1220   42.9920 H   0  0  0  0  0  0  0  0  0  0  0  0
   37.9190   29.7990   43.7010 H   0  0  0  0  0  0  0  0  0  0  0  0
   36.0010   29.5080   37.2370 C   0  0  0  0  0  0  0  0  0  0  0  0
   36.5090   29.4640   35.9790 C   0  0  0  0  0  0  0  0  0  0  0  0
   35.5930   29.1660   34.9460 C   0  0  0  0  0  0  0  0  0  0  0  0
   34.2760   28.9470   35.3240 C   0  0  0  0  0  0  0  0  0  0  0  0
   33.7890   28.9930   36.5760 C   0  0  0  0  0  0  0  0  0  0  0  0
   34.7090   29.2880   37.5570 N   0  0  0  0  0  0  0  0  0  0  0  0
   37.5420   29.6380   35.7080 H   0  0  0  0  0  0  0  0  0  0  0  0
   35.8530   29.1020   33.9170 H   0  0  0  0  0  0  0  0  0  0  0  0
   33.4580   28.7040   34.6280 H   0  0  0  0  0  0  0  0  0  0  0  0
   32.4490   28.7600   36.9000 O   0  0  0  0  0  0  0  0  0  0  0  0
   31.5760   29.7620   36.8330 C   0  0  0  0  0  2  0  0  0  0  0  0
   30.6470   30.8300   36.7620 C   0  0  0  0  0  2  0  0  0  0  0  0
   30.8380   31.5740   35.9390 H   0  0  0  0  0  0  0  0  0  0  0  0
  1  6  1  0  0  0  0
  2  1  2  0  0  0  0
  3  2  1  0  0  0  0
  3  4  2  0  0  0  0
  4  5  1  0  0  0  0
  5  6  2  0  0  0  0
  5  9  1  0  0  0  0
  7  1  1  0  0  0  0
  8  2  1  0  0  0  0
  9 15  1  1  0  0  0
  9 14  1  0  0  0  0
 10 11  1  0  0  0  0
 10 17  1  0  0  0  0
 10  9  1  0  0  0  0
 11 12  1  0  0  0  0
 12 21  1  0  0  0  0
 12 20  1  0  0  0  0
 12 13  1  0  0  0  0
 13 22  1  0  0  0  0
 14 13  2  0  0  0  0
 14 23  1  0  0  0  0
 16 10  1  0  0  0  0
 18 11  1  0  0  0  0
 19 11  1  0  0  0  0
 23 25  1  0  0  0  0
 24 23  1  0  0  0  0
 26 31  1  0  0  0  0
 26  3  1  0  0  0  0
 27 26  2  0  0  0  0
 28 29  2  0  0  0  0
 28 27  1  0  0  0  0
 29 30  1  0  0  0  0
 30 35  1  0  0  0  0
 30 31  2  0  0  0  0
 32 27  1  0  0  0  0
 33 28  1  0  0  0  0
 34 29  1  0  0  0  0
 36 35  1  0  0  0  0
 37 36  1  0  0  0  0
 38 37  1  0  0  0  0
M  END
>  <minimizedAffinity>
-5.18289423

$$$$
