
 OpenBabel03242515573D

 31 33  0  0  0  0  0  0  0  0999 V2000
   37.3760   27.2960   40.8810 C   0  0  0  0  0  0  0  0  0  0  0  0
   36.6920   26.3810   40.0390 C   0  0  0  0  0  0  0  0  0  0  0  0
   36.8520   25.0200   40.1050 C   0  0  0  0  0  0  0  0  0  0  0  0
   37.6910   24.4730   41.0020 C   0  0  0  0  0  0  0  0  0  0  0  0
   38.3970   25.3220   41.8620 C   0  0  0  0  0  0  0  0  0  0  0  0
   39.2390   24.7270   42.7540 C   0  0  0  0  0  0  0  0  0  0  0  0
   39.9580   25.5000   43.6170 C   0  0  0  0  0  0  0  0  0  0  0  0
   39.7840   26.8590   43.5270 C   0  0  0  0  0  0  0  0  0  0  0  0
   38.9340   27.3830   42.6220 C   0  0  0  0  0  0  0  0  0  0  0  0
   38.2120   26.6640   41.7630 C   0  0  0  0  0  0  0  0  0  0  0  0
   36.0030   26.7590   39.2960 H   0  0  0  0  0  0  0  0  0  0  0  0
   36.2980   24.3810   39.4320 H   0  0  0  0  0  0  0  0  0  0  0  0
   37.8100   23.4000   41.0470 H   0  0  0  0  0  0  0  0  0  0  0  0
   39.3310   23.6220   42.7690 H   0  0  0  0  0  0  0  0  0  0  0  0
   40.6130   24.9310   44.3030 H   0  0  0  0  0  0  0  0  0  0  0  0
   40.4370   27.3190   44.2930 H   0  0  0  0  0  0  0  0  0  0  0  0
   37.8400   30.5890   39.5280 C   0  0  0  0  0  0  0  0  0  0  0  0
   36.9530   31.3840   40.3160 C   0  0  0  0  0  0  0  0  0  0  0  0
   36.1840   30.7690   41.3430 C   0  0  0  0  0  0  0  0  0  0  0  0
   36.3500   29.4500   41.5050 N   0  0  0  0  0  0  0  0  0  0  0  0
   37.1510   28.7140   40.7980 C   0  0  0  0  0  0  0  0  0  0  0  0
   37.8940   29.2950   39.8090 N   0  0  0  0  0  0  0  0  0  0  0  0
   38.4230   31.0610   38.7490 H   0  0  0  0  0  0  0  0  0  0  0  0
   35.5490   31.4380   41.8800 H   0  0  0  0  0  0  0  0  0  0  0  0
   36.9180   32.7570   39.9870 N   0  0  0  0  0  0  0  0  0  0  0  0
   37.4900   33.5700   40.2800 H   0  0  0  0  0  0  0  0  0  0  0  0
   36.1120   32.7510   39.3240 H   0  0  0  0  0  0  0  0  0  0  0  0
   38.9720   28.7370   42.7630 O   0  0  0  0  0  0  0  0  0  0  0  0
   40.1460   29.5290   42.6040 C   0  0  0  0  0  2  0  0  0  0  0  0
   39.9380   30.9910   42.6090 C   0  0  0  0  0  2  0  0  0  0  0  0
   39.1400   31.2730   41.8950 H   0  0  0  0  0  0  0  0  0  0  0  0
  1 10  1  0  0  0  0
  2  3  1  0  0  0  0
  2  1  2  0  0  0  0
  3  4  2  0  0  0  0
  4 13  1  0  0  0  0
  4  5  1  0  0  0  0
  5  6  1  0  0  0  0
  6 14  1  0  0  0  0
  6  7  2  0  0  0  0
  7 15  1  0  0  0  0
  8  7  1  0  0  0  0
  8 16  1  0  0  0  0
  9 28  1  0  0  0  0
  9  8  2  0  0  0  0
 10  5  2  0  0  0  0
 10  9  1  0  0  0  0
 11  2  1  0  0  0  0
 12  3  1  0  0  0  0
 17 22  2  0  0  0  0
 17 18  1  0  0  0  0
 18 19  2  0  0  0  0
 19 20  1  0  0  0  0
 19 24  1  0  0  0  0
 21  1  1  0  0  0  0
 21 20  2  0  0  0  0
 22 21  1  0  0  0  0
 23 17  1  0  0  0  0
 25 26  1  0  0  0  0
 25 18  1  0  0  0  0
 27 25  1  0  0  0  0
 29 30  1  0  0  0  0
 29 28  1  0  0  0  0
 31 30  1  0  0  0  0
M  END
>  <minimizedAffinity>
-5.51620674

$$$$

 OpenBabel03242515573D

 31 33  0  0  0  0  0  0  0  0999 V2000
   36.8390   27.0490   39.8800 C   0  0  0  0  0  0  0  0  0  0  0  0
   36.7110   25.6360   39.8390 C   0  0  0  0  0  0  0  0  0  0  0  0
   36.8220   24.8300   40.9430 C   0  0  0  0  0  0  0  0  0  0  0  0
   37.0660   25.3600   42.1550 C   0  0  0  0  0  0  0  0  0  0  0  0
   37.2040   26.7480   42.2630 C   0  0  0  0  0  0  0  0  0  0  0  0
   37.4520   27.2440   43.5080 C   0  0  0  0  0  0  0  0  0  0  0  0
   37.6010   28.5880   43.6780 C   0  0  0  0  0  0  0  0  0  0  0  0
   37.4900   29.3730   42.5580 C   0  0  0  0  0  0  0  0  0  0  0  0
   37.2420   28.8180   41.3550 C   0  0  0  0  0  0  0  0  0  0  0  0
   37.0890   27.5110   41.1450 C   0  0  0  0  0  0  0  0  0  0  0  0
   36.5150   25.1500   38.8940 H   0  0  0  0  0  0  0  0  0  0  0  0
   36.7130   23.7600   40.8400 H   0  0  0  0  0  0  0  0  0  0  0  0
   37.1510   24.7160   43.0190 H   0  0  0  0  0  0  0  0  0  0  0  0
   37.5310   26.5490   44.3690 H   0  0  0  0  0  0  0  0  0  0  0  0
   37.7990   28.8970   44.7220 H   0  0  0  0  0  0  0  0  0  0  0  0
   37.6360   30.4200   42.8810 H   0  0  0  0  0  0  0  0  0  0  0  0
   37.9360   28.6280   36.8480 C   0  0  0  0  0  0  0  0  0  0  0  0
   36.7520   29.2740   36.3800 C   0  0  0  0  0  0  0  0  0  0  0  0
   35.5490   29.1700   37.1340 C   0  0  0  0  0  0  0  0  0  0  0  0
   35.6140   28.4510   38.2630 N   0  0  0  0  0  0  0  0  0  0  0  0
   36.6810   27.8580   38.7010 C   0  0  0  0  0  0  0  0  0  0  0  0
   37.8410   27.9530   37.9840 N   0  0  0  0  0  0  0  0  0  0  0  0
   38.8470   28.7110   36.2710 H   0  0  0  0  0  0  0  0  0  0  0  0
   34.7150   29.6820   36.7100 H   0  0  0  0  0  0  0  0  0  0  0  0
   36.8880   29.9820   35.1650 N   0  0  0  0  0  0  0  0  0  0  0  0
   37.1920   30.9460   34.9370 H   0  0  0  0  0  0  0  0  0  0  0  0
   36.5840   29.2360   34.5010 H   0  0  0  0  0  0  0  0  0  0  0  0
   37.1900   29.8290   40.4430 O   0  0  0  0  0  0  0  0  0  0  0  0
   36.6800   31.1310   40.7150 C   0  0  0  0  0  2  0  0  0  0  0  0
   37.0330   32.1760   39.7330 C   0  0  0  0  0  2  0  0  0  0  0  0
   38.1240   32.1820   39.5470 H   0  0  0  0  0  0  0  0  0  0  0  0
  1 10  1  0  0  0  0
  2  1  2  0  0  0  0
  2  3  1  0  0  0  0
  3  4  2  0  0  0  0
  4  5  1  0  0  0  0
  4 13  1  0  0  0  0
  5  6  1  0  0  0  0
  6  7  2  0  0  0  0
  6 14  1  0  0  0  0
  7 15  1  0  0  0  0
  8 16  1  0  0  0  0
  8  7  1  0  0  0  0
  9  8  2  0  0  0  0
 10  9  1  0  0  0  0
 10  5  2  0  0  0  0
 11  2  1  0  0  0  0
 12  3  1  0  0  0  0
 17 22  1  0  0  0  0
 18 17  2  0  0  0  0
 18 19  1  0  0  0  0
 19 20  2  0  0  0  0
 20 21  1  0  0  0  0
 21  1  1  0  0  0  0
 22 21  2  0  0  0  0
 23 17  1  0  0  0  0
 24 19  1  0  0  0  0
 25 18  1  0  0  0  0
 26 25  1  0  0  0  0
 27 25  1  0  0  0  0
 28 29  1  0  0  0  0
 28  9  1  0  0  0  0
 30 29  1  0  0  0  0
 31 30  1  0  0  0  0
M  END
>  <minimizedAffinity>
-5.4903326

$$$$

 OpenBabel03242515573D

 31 33  0  0  0  0  0  0  0  0999 V2000
   36.4360   27.3840   39.6510 C   0  0  0  0  0  0  0  0  0  0  0  0
   35.8470   26.9350   38.4410 C   0  0  0  0  0  0  0  0  0  0  0  0
   35.7190   25.6120   38.1010 C   0  0  0  0  0  0  0  0  0  0  0  0
   36.1610   24.6480   38.9270 C   0  0  0  0  0  0  0  0  0  0  0  0
   36.7530   25.0240   40.1390 C   0  0  0  0  0  0  0  0  0  0  0  0
   37.1890   24.0170   40.9470 C   0  0  0  0  0  0  0  0  0  0  0  0
   37.7770   24.3190   42.1380 C   0  0  0  0  0  0  0  0  0  0  0  0
   37.8980   25.6500   42.4530 C   0  0  0  0  0  0  0  0  0  0  0  0
   37.4450   26.5970   41.6080 C   0  0  0  0  0  0  0  0  0  0  0  0
   36.8620   26.3460   40.4370 C   0  0  0  0  0  0  0  0  0  0  0  0
   35.4720   27.6620   37.7330 H   0  0  0  0  0  0  0  0  0  0  0  0
   35.2600   25.3410   37.1610 H   0  0  0  0  0  0  0  0  0  0  0  0
   36.0550   23.6090   38.6510 H   0  0  0  0  0  0  0  0  0  0  0  0
   37.0600   22.9630   40.6260 H   0  0  0  0  0  0  0  0  0  0  0  0
   38.0980   23.4380   42.7260 H   0  0  0  0  0  0  0  0  0  0  0  0
   38.3910   25.7040   43.4410 H   0  0  0  0  0  0  0  0  0  0  0  0
   37.7860   30.7030   39.4330 C   0  0  0  0  0  0  0  0  0  0  0  0
   36.9480   31.4460   40.3190 C   0  0  0  0  0  0  0  0  0  0  0  0
   35.8980   30.7830   41.0140 C   0  0  0  0  0  0  0  0  0  0  0  0
   35.7640   29.4700   40.7820 N   0  0  0  0  0  0  0  0  0  0  0  0
   36.5170   28.7810   39.9810 C   0  0  0  0  0  0  0  0  0  0  0  0
   37.5290   29.4090   39.3090 N   0  0  0  0  0  0  0  0  0  0  0  0
   38.5830   31.2110   38.9080 H   0  0  0  0  0  0  0  0  0  0  0  0
   35.3220   31.4150   41.6520 H   0  0  0  0  0  0  0  0  0  0  0  0
   37.2480   32.8210   40.4240 N   0  0  0  0  0  0  0  0  0  0  0  0
   37.9080   33.3600   41.0150 H   0  0  0  0  0  0  0  0  0  0  0  0
   36.5910   33.1930   39.7030 H   0  0  0  0  0  0  0  0  0  0  0  0
   37.7010   27.8070   42.1780 O   0  0  0  0  0  0  0  0  0  0  0  0
   38.9740   28.2090   42.6750 C   0  0  0  0  0  2  0  0  0  0  0  0
   39.2080   29.6660   42.7400 C   0  0  0  0  0  2  0  0  0  0  0  0
   38.9650   30.1420   41.7700 H   0  0  0  0  0  0  0  0  0  0  0  0
  1 21  1  0  0  0  0
  1 10  1  0  0  0  0
  2  1  2  0  0  0  0
  3  2  1  0  0  0  0
  3  4  2  0  0  0  0
  4  5  1  0  0  0  0
  5 10  2  0  0  0  0
  5  6  1  0  0  0  0
  6  7  2  0  0  0  0
  7  8  1  0  0  0  0
  7 15  1  0  0  0  0
  8 16  1  0  0  0  0
  9 28  1  0  0  0  0
  9  8  2  0  0  0  0
 10  9  1  0  0  0  0
 11  2  1  0  0  0  0
 12  3  1  0  0  0  0
 13  4  1  0  0  0  0
 14  6  1  0  0  0  0
 17 18  1  0  0  0  0
 18 25  1  0  0  0  0
 18 19  2  0  0  0  0
 19 24  1  0  0  0  0
 20 19  1  0  0  0  0
 21 20  2  0  0  0  0
 22 17  2  0  0  0  0
 22 21  1  0  0  0  0
 23 17  1  0  0  0  0
 25 26  1  0  0  0  0
 27 25  1  0  0  0  0
 28 29  1  0  0  0  0
 29 30  1  0  0  0  0
 31 30  1  0  0  0  0
M  END
>  <minimizedAffinity>
-5.42866421

$$$$

 OpenBabel03242515573D

 31 33  0  0  0  0  0  0  0  0999 V2000
   37.7310   29.0750   41.0760 C   0  0  0  0  0  0  0  0  0  0  0  0
   37.8250   29.5580   42.4070 C   0  0  0  0  0  0  0  0  0  0  0  0
   37.6650   28.7670   43.5170 C   0  0  0  0  0  0  0  0  0  0  0  0
   37.4030   27.4550   43.3890 C   0  0  0  0  0  0  0  0  0  0  0  0
   37.2960   26.9150   42.1030 C   0  0  0  0  0  0  0  0  0  0  0  0
   37.0280   25.5820   42.0170 C   0  0  0  0  0  0  0  0  0  0  0  0
   36.9080   24.9980   40.7910 C   0  0  0  0  0  0  0  0  0  0  0  0
   37.0670   25.8110   39.6970 C   0  0  0  0  0  0  0  0  0  0  0  0
   37.3330   27.1230   39.8510 C   0  0  0  0  0  0  0  0  0  0  0  0
   37.4600   27.7330   41.0290 C   0  0  0  0  0  0  0  0  0  0  0  0
   38.0340   30.6050   42.5770 H   0  0  0  0  0  0  0  0  0  0  0  0
   37.7510   29.2020   44.5030 H   0  0  0  0  0  0  0  0  0  0  0  0
   37.2800   26.8400   44.2700 H   0  0  0  0  0  0  0  0  0  0  0  0
   36.9090   24.9860   42.9450 H   0  0  0  0  0  0  0  0  0  0  0  0
   36.6900   23.9140   40.8210 H   0  0  0  0  0  0  0  0  0  0  0  0
   36.9390   25.1750   38.8010 H   0  0  0  0  0  0  0  0  0  0  0  0
   39.7000   30.7640   38.5950 C   0  0  0  0  0  0  0  0  0  0  0  0
   38.7160   31.4470   37.8190 C   0  0  0  0  0  0  0  0  0  0  0  0
   37.3410   31.3290   38.1670 C   0  0  0  0  0  0  0  0  0  0  0  0
   37.0570   30.5620   39.2280 N   0  0  0  0  0  0  0  0  0  0  0  0
   37.9400   29.9350   39.9430 C   0  0  0  0  0  0  0  0  0  0  0  0
   39.2630   30.0420   39.6170 N   0  0  0  0  0  0  0  0  0  0  0  0
   40.7440   30.8570   38.3270 H   0  0  0  0  0  0  0  0  0  0  0  0
   36.6760   31.8720   37.5320 H   0  0  0  0  0  0  0  0  0  0  0  0
   39.2170   32.2030   36.7370 N   0  0  0  0  0  0  0  0  0  0  0  0
   39.5770   33.1710   36.6550 H   0  0  0  0  0  0  0  0  0  0  0  0
   39.1280   31.4900   35.9780 H   0  0  0  0  0  0  0  0  0  0  0  0
   37.4340   27.6670   38.6070 O   0  0  0  0  0  0  0  0  0  0  0  0
   38.2500   27.1420   37.5640 C   0  0  0  0  0  2  0  0  0  0  0  0
   38.3980   28.0010   36.3710 C   0  0  0  0  0  2  0  0  0  0  0  0
   37.4070   28.3320   36.0050 H   0  0  0  0  0  0  0  0  0  0  0  0
  1  2  1  0  0  0  0
  2 11  1  0  0  0  0
  2  3  2  0  0  0  0
  3 12  1  0  0  0  0
  4  3  1  0  0  0  0
  4 13  1  0  0  0  0
  5  4  2  0  0  0  0
  6  5  1  0  0  0  0
  6 14  1  0  0  0  0
  7 15  1  0  0  0  0
  7  6  2  0  0  0  0
  8  9  2  0  0  0  0
  8  7  1  0  0  0  0
  9 10  1  0  0  0  0
 10  1  2  0  0  0  0
 10  5  1  0  0  0  0
 16  8  1  0  0  0  0
 17 22  1  0  0  0  0
 18 19  1  0  0  0  0
 18 17  2  0  0  0  0
 19 20  2  0  0  0  0
 20 21  1  0  0  0  0
 21  1  1  0  0  0  0
 22 21  2  0  0  0  0
 23 17  1  0  0  0  0
 24 19  1  0  0  0  0
 25 18  1  0  0  0  0
 26 25  1  0  0  0  0
 27 25  1  0  0  0  0
 28  9  1  0  0  0  0
 29 28  1  0  0  0  0
 30 29  1  0  0  0  0
 31 30  1  0  0  0  0
M  END
>  <minimizedAffinity>
-5.41840315

$$$$

 OpenBabel03242515573D

 31 33  0  0  0  0  0  0  0  0999 V2000
   37.4910   29.1990   41.6960 C   0  0  0  0  0  0  0  0  0  0  0  0
   37.3790   29.0050   43.0970 C   0  0  0  0  0  0  0  0  0  0  0  0
   37.1380   27.7860   43.6800 C   0  0  0  0  0  0  0  0  0  0  0  0
   36.9920   26.6840   42.9240 C   0  0  0  0  0  0  0  0  0  0  0  0
   37.0910   26.8080   41.5330 C   0  0  0  0  0  0  0  0  0  0  0  0
   36.9350   25.6670   40.8040 C   0  0  0  0  0  0  0  0  0  0  0  0
   37.0160   25.7230   39.4450 C   0  0  0  0  0  0  0  0  0  0  0  0
   37.2530   26.9540   38.8850 C   0  0  0  0  0  0  0  0  0  0  0  0
   37.3980   28.0440   39.6650 C   0  0  0  0  0  0  0  0  0  0  0  0
   37.3290   28.0330   40.9960 C   0  0  0  0  0  0  0  0  0  0  0  0
   37.4870   29.8530   43.7590 H   0  0  0  0  0  0  0  0  0  0  0  0
   37.0650   27.7110   44.7560 H   0  0  0  0  0  0  0  0  0  0  0  0
   36.8030   25.7290   43.3930 H   0  0  0  0  0  0  0  0  0  0  0  0
   36.7430   24.7060   41.3240 H   0  0  0  0  0  0  0  0  0  0  0  0
   36.8770   24.7490   38.9380 H   0  0  0  0  0  0  0  0  0  0  0  0
   37.2870   26.8100   37.7890 H   0  0  0  0  0  0  0  0  0  0  0  0
   39.6310   31.8460   40.5560 C   0  0  0  0  0  0  0  0  0  0  0  0
   38.7040   32.8200   40.0760 C   0  0  0  0  0  0  0  0  0  0  0  0
   37.3070   32.5590   40.1550 C   0  0  0  0  0  0  0  0  0  0  0  0
   36.9490   31.3850   40.6910 N   0  0  0  0  0  0  0  0  0  0  0  0
   37.7790   30.4900   41.1310 C   0  0  0  0  0  0  0  0  0  0  0  0
   39.1220   30.7310   41.0600 N   0  0  0  0  0  0  0  0  0  0  0  0
   40.6910   32.0490   40.4940 H   0  0  0  0  0  0  0  0  0  0  0  0
   36.6890   33.3410   39.7730 H   0  0  0  0  0  0  0  0  0  0  0  0
   39.2810   33.9930   39.5430 N   0  0  0  0  0  0  0  0  0  0  0  0
   39.5970   34.8840   39.9690 H   0  0  0  0  0  0  0  0  0  0  0  0
   39.3150   33.7220   38.5350 H   0  0  0  0  0  0  0  0  0  0  0  0
   37.6170   29.1070   38.8420 O   0  0  0  0  0  0  0  0  0  0  0  0
   36.8420   29.3990   37.6830 C   0  0  0  0  0  2  0  0  0  0  0  0
   37.2410   30.6070   36.9320 C   0  0  0  0  0  2  0  0  0  0  0  0
   37.3270   31.4760   37.6120 H   0  0  0  0  0  0  0  0  0  0  0  0
  1  2  1  0  0  0  0
  2  3  2  0  0  0  0
  2 11  1  0  0  0  0
  3 12  1  0  0  0  0
  4 13  1  0  0  0  0
  4  3  1  0  0  0  0
  5  4  2  0  0  0  0
  6 14  1  0  0  0  0
  6  5  1  0  0  0  0
  7  6  2  0  0  0  0
  8  7  1  0  0  0  0
  8  9  2  0  0  0  0
  9 10  1  0  0  0  0
 10  5  1  0  0  0  0
 10  1  2  0  0  0  0
 15  7  1  0  0  0  0
 16  8  1  0  0  0  0
 17 22  1  0  0  0  0
 18 19  1  0  0  0  0
 18 17  2  0  0  0  0
 19 20  2  0  0  0  0
 20 21  1  0  0  0  0
 21  1  1  0  0  0  0
 22 21  2  0  0  0  0
 23 17  1  0  0  0  0
 24 19  1  0  0  0  0
 25 26  1  0  0  0  0
 25 18  1  0  0  0  0
 27 25  1  0  0  0  0
 28  9  1  0  0  0  0
 29 28  1  0  0  0  0
 30 31  1  0  0  0  0
 30 29  1  0  0  0  0
M  END
>  <minimizedAffinity>
-5.36862373

$$$$

 OpenBabel03242515573D

 31 33  0  0  0  0  0  0  0  0999 V2000
   38.2540   27.8690   42.1110 C   0  0  0  0  0  0  0  0  0  0  0  0
   39.2180   27.8530   43.1520 C   0  0  0  0  0  0  0  0  0  0  0  0
   39.7480   26.7030   43.6790 C   0  0  0  0  0  0  0  0  0  0  0  0
   39.3650   25.4990   43.2190 C   0  0  0  0  0  0  0  0  0  0  0  0
   38.4160   25.4460   42.1920 C   0  0  0  0  0  0  0  0  0  0  0  0
   38.0540   24.2070   41.7550 C   0  0  0  0  0  0  0  0  0  0  0  0
   37.1300   24.0890   40.7600 C   0  0  0  0  0  0  0  0  0  0  0  0
   36.6110   25.2540   40.2520 C   0  0  0  0  0  0  0  0  0  0  0  0
   37.0130   26.4480   40.7290 C   0  0  0  0  0  0  0  0  0  0  0  0
   37.9140   26.6080   41.6980 C   0  0  0  0  0  0  0  0  0  0  0  0
   39.5660   28.7890   43.5650 H   0  0  0  0  0  0  0  0  0  0  0  0
   40.4800   26.7640   44.4730 H   0  0  0  0  0  0  0  0  0  0  0  0
   39.7890   24.5990   43.6410 H   0  0  0  0  0  0  0  0  0  0  0  0
   38.5140   23.3080   42.2140 H   0  0  0  0  0  0  0  0  0  0  0  0
   36.9000   23.0460   40.4720 H   0  0  0  0  0  0  0  0  0  0  0  0
   35.8890   24.9690   39.4640 H   0  0  0  0  0  0  0  0  0  0  0  0
   38.4030   30.8280   40.0830 C   0  0  0  0  0  0  0  0  0  0  0  0
   37.1290   31.4320   40.3080 C   0  0  0  0  0  0  0  0  0  0  0  0
   36.2000   30.8070   41.1870 C   0  0  0  0  0  0  0  0  0  0  0  0
   36.5970   29.6630   41.7590 N   0  0  0  0  0  0  0  0  0  0  0  0
   37.7510   29.1010   41.5650 C   0  0  0  0  0  0  0  0  0  0  0  0
   38.6500   29.6940   40.7220 N   0  0  0  0  0  0  0  0  0  0  0  0
   39.1050   31.3070   39.4140 H   0  0  0  0  0  0  0  0  0  0  0  0
   35.2750   31.3270   41.2940 H   0  0  0  0  0  0  0  0  0  0  0  0
   36.8990   32.6360   39.6080 N   0  0  0  0  0  0  0  0  0  0  0  0
   37.1150   33.6290   39.8150 H   0  0  0  0  0  0  0  0  0  0  0  0
   36.4190   32.2520   38.7630 H   0  0  0  0  0  0  0  0  0  0  0  0
   36.3330   27.4100   40.0450 O   0  0  0  0  0  0  0  0  0  0  0  0
   36.1200   27.3970   38.6370 C   0  0  0  0  0  2  0  0  0  0  0  0
   36.1410   28.7160   37.9720 C   0  0  0  0  0  2  0  0  0  0  0  0
   35.4690   29.4250   38.4930 H   0  0  0  0  0  0  0  0  0  0  0  0
  1  2  1  0  0  0  0
  2 11  1  0  0  0  0
  2  3  2  0  0  0  0
  3 12  1  0  0  0  0
  4 13  1  0  0  0  0
  4  3  1  0  0  0  0
  5  4  2  0  0  0  0
  6  5  1  0  0  0  0
  6 14  1  0  0  0  0
  7  6  2  0  0  0  0
  8  9  2  0  0  0  0
  8  7  1  0  0  0  0
  9 10  1  0  0  0  0
 10  1  2  0  0  0  0
 10  5  1  0  0  0  0
 15  7  1  0  0  0  0
 16  8  1  0  0  0  0
 17 18  2  0  0  0  0
 17 22  1  0  0  0  0
 18 19  1  0  0  0  0
 19 24  1  0  0  0  0
 19 20  2  0  0  0  0
 21 20  1  0  0  0  0
 21  1  1  0  0  0  0
 22 21  2  0  0  0  0
 23 17  1  0  0  0  0
 25 26  1  0  0  0  0
 25 18  1  0  0  0  0
 27 25  1  0  0  0  0
 28  9  1  0  0  0  0
 29 28  1  0  0  0  0
 30 31  1  0  0  0  0
 30 29  1  0  0  0  0
M  END
>  <minimizedAffinity>
-5.35840416

$$$$

 OpenBabel03242515573D

 31 33  0  0  0  0  0  0  0  0999 V2000
   37.7560   28.0410   39.5600 C   0  0  0  0  0  0  0  0  0  0  0  0
   37.4960   26.8320   38.8640 C   0  0  0  0  0  0  0  0  0  0  0  0
   37.0830   25.6760   39.4770 C   0  0  0  0  0  0  0  0  0  0  0  0
   36.9000   25.6350   40.8080 C   0  0  0  0  0  0  0  0  0  0  0  0
   37.1400   26.7950   41.5530 C   0  0  0  0  0  0  0  0  0  0  0  0
   36.9440   26.7110   42.8990 C   0  0  0  0  0  0  0  0  0  0  0  0
   37.1650   27.8060   43.6800 C   0  0  0  0  0  0  0  0  0  0  0  0
   37.5820   28.9490   43.0440 C   0  0  0  0  0  0  0  0  0  0  0  0
   37.7560   28.9650   41.7080 C   0  0  0  0  0  0  0  0  0  0  0  0
   37.5490   27.9190   40.9080 C   0  0  0  0  0  0  0  0  0  0  0  0
   37.6250   26.8000   37.7910 H   0  0  0  0  0  0  0  0  0  0  0  0
   36.9030   24.7890   38.8850 H   0  0  0  0  0  0  0  0  0  0  0  0
   36.5740   24.7190   41.2810 H   0  0  0  0  0  0  0  0  0  0  0  0
   36.6080   25.7530   43.3450 H   0  0  0  0  0  0  0  0  0  0  0  0
   36.9800   27.6430   44.7580 H   0  0  0  0  0  0  0  0  0  0  0  0
   37.7090   29.7240   43.8230 H   0  0  0  0  0  0  0  0  0  0  0  0
   40.1040   30.2850   38.0290 C   0  0  0  0  0  0  0  0  0  0  0  0
   39.2700   31.3430   37.5560 C   0  0  0  0  0  0  0  0  0  0  0  0
   37.8660   31.2840   37.7780 C   0  0  0  0  0  0  0  0  0  0  0  0
   37.4100   30.2090   38.4350 N   0  0  0  0  0  0  0  0  0  0  0  0
   38.1540   29.2390   38.8710 C   0  0  0  0  0  0  0  0  0  0  0  0
   39.5040   29.2870   38.6630 N   0  0  0  0  0  0  0  0  0  0  0  0
   41.1700   30.3350   37.8580 H   0  0  0  0  0  0  0  0  0  0  0  0
   37.3210   32.1150   37.3890 H   0  0  0  0  0  0  0  0  0  0  0  0
   39.9420   32.3870   36.8830 N   0  0  0  0  0  0  0  0  0  0  0  0
   40.4110   33.2520   37.2060 H   0  0  0  0  0  0  0  0  0  0  0  0
   39.8420   32.0460   35.9010 H   0  0  0  0  0  0  0  0  0  0  0  0
   38.1710   30.2160   41.3660 O   0  0  0  0  0  0  0  0  0  0  0  0
   39.3010   30.8720   41.9340 C   0  0  0  0  0  2  0  0  0  0  0  0
   39.7350   32.1090   41.2540 C   0  0  0  0  0  2  0  0  0  0  0  0
   39.8520   31.9340   40.1670 H   0  0  0  0  0  0  0  0  0  0  0  0
  1 10  1  0  0  0  0
  2  3  1  0  0  0  0
  2  1  2  0  0  0  0
  3  4  2  0  0  0  0
  4 13  1  0  0  0  0
  4  5  1  0  0  0  0
  5  6  1  0  0  0  0
  6 14  1  0  0  0  0
  6  7  2  0  0  0  0
  7 15  1  0  0  0  0
  8  7  1  0  0  0  0
  8 16  1  0  0  0  0
  9  8  2  0  0  0  0
 10  5  2  0  0  0  0
 10  9  1  0  0  0  0
 11  2  1  0  0  0  0
 12  3  1  0  0  0  0
 17 22  1  0  0  0  0
 18 19  1  0  0  0  0
 18 17  2  0  0  0  0
 19 20  2  0  0  0  0
 20 21  1  0  0  0  0
 21  1  1  0  0  0  0
 22 21  2  0  0  0  0
 23 17  1  0  0  0  0
 24 19  1  0  0  0  0
 25 26  1  0  0  0  0
 25 18  1  0  0  0  0
 27 25  1  0  0  0  0
 28  9  1  0  0  0  0
 28 29  1  0  0  0  0
 30 29  1  0  0  0  0
 31 30  1  0  0  0  0
M  END
>  <minimizedAffinity>
-5.35585213

$$$$

 OpenBabel03242515573D

 31 33  0  0  0  0  0  0  0  0999 V2000
   37.0500   27.1970   40.7770 C   0  0  0  0  0  0  0  0  0  0  0  0
   37.4430   26.6020   42.0040 C   0  0  0  0  0  0  0  0  0  0  0  0
   37.3720   25.2550   42.2530 C   0  0  0  0  0  0  0  0  0  0  0  0
   36.9100   24.4100   41.3150 C   0  0  0  0  0  0  0  0  0  0  0  0
   36.5050   24.9330   40.0820 C   0  0  0  0  0  0  0  0  0  0  0  0
   36.0420   24.0430   39.1600 C   0  0  0  0  0  0  0  0  0  0  0  0
   35.6290   24.4920   37.9410 C   0  0  0  0  0  0  0  0  0  0  0  0
   35.7060   25.8440   37.7180 C   0  0  0  0  0  0  0  0  0  0  0  0
   36.1750   26.6710   38.6740 C   0  0  0  0  0  0  0  0  0  0  0  0
   36.5900   26.2740   39.8760 C   0  0  0  0  0  0  0  0  0  0  0  0
   37.8230   27.2290   42.7980 H   0  0  0  0  0  0  0  0  0  0  0  0
   37.6890   24.8690   43.2120 H   0  0  0  0  0  0  0  0  0  0  0  0
   36.8590   23.3500   41.5210 H   0  0  0  0  0  0  0  0  0  0  0  0
   36.0060   22.9630   39.4110 H   0  0  0  0  0  0  0  0  0  0  0  0
   35.2710   23.6980   37.2590 H   0  0  0  0  0  0  0  0  0  0  0  0
   35.3340   26.0240   36.6920 H   0  0  0  0  0  0  0  0  0  0  0  0
   36.0190   30.6300   40.9890 C   0  0  0  0  0  0  0  0  0  0  0  0
   37.0860   31.3230   40.3420 C   0  0  0  0  0  0  0  0  0  0  0  0
   38.1840   30.5860   39.8130 C   0  0  0  0  0  0  0  0  0  0  0  0
   38.1370   29.2560   39.9630 N   0  0  0  0  0  0  0  0  0  0  0  0
   37.1750   28.6120   40.5480 C   0  0  0  0  0  0  0  0  0  0  0  0
   36.1170   29.3100   41.0590 N   0  0  0  0  0  0  0  0  0  0  0  0
   35.1880   31.1940   41.3890 H   0  0  0  0  0  0  0  0  0  0  0  0
   38.9350   31.1850   39.3480 H   0  0  0  0  0  0  0  0  0  0  0  0
   36.9510   32.7270   40.2890 N   0  0  0  0  0  0  0  0  0  0  0  0
   36.4800   33.3690   39.6260 H   0  0  0  0  0  0  0  0  0  0  0  0
   37.4850   32.9810   41.1500 H   0  0  0  0  0  0  0  0  0  0  0  0
   36.1310   27.9370   38.1740 O   0  0  0  0  0  0  0  0  0  0  0  0
   35.0250   28.4830   37.4610 C   0  0  0  0  0  2  0  0  0  0  0  0
   33.8690   28.8920   38.2840 C   0  0  0  0  0  2  0  0  0  0  0  0
   33.5680   28.0730   38.9660 H   0  0  0  0  0  0  0  0  0  0  0  0
  1  2  1  0  0  0  0
  2  3  2  0  0  0  0
  2 11  1  0  0  0  0
  3 12  1  0  0  0  0
  4 13  1  0  0  0  0
  4  3  1  0  0  0  0
  5  4  2  0  0  0  0
  6 14  1  0  0  0  0
  6  5  1  0  0  0  0
  7  6  2  0  0  0  0
  8  7  1  0  0  0  0
  8  9  2  0  0  0  0
  9 10  1  0  0  0  0
 10  5  1  0  0  0  0
 10  1  2  0  0  0  0
 15  7  1  0  0  0  0
 16  8  1  0  0  0  0
 17 22  1  0  0  0  0
 17 23  1  0  0  0  0
 18 17  2  0  0  0  0
 19 20  2  0  0  0  0
 19 18  1  0  0  0  0
 20 21  1  0  0  0  0
 21  1  1  0  0  0  0
 21 22  2  0  0  0  0
 24 19  1  0  0  0  0
 25 18  1  0  0  0  0
 25 27  1  0  0  0  0
 26 25  1  0  0  0  0
 28  9  1  0  0  0  0
 29 28  1  0  0  0  0
 29 30  1  0  0  0  0
 30 31  1  0  0  0  0
M  END
>  <minimizedAffinity>
-5.33454657

$$$$

 OpenBabel03242515573D

 31 33  0  0  0  0  0  0  0  0999 V2000
   36.4540   27.0630   39.3060 C   0  0  0  0  0  0  0  0  0  0  0  0
   35.6810   26.5970   38.2110 C   0  0  0  0  0  0  0  0  0  0  0  0
   35.3740   25.2760   38.0050 C   0  0  0  0  0  0  0  0  0  0  0  0
   35.8080   24.3320   38.8580 C   0  0  0  0  0  0  0  0  0  0  0  0
   36.5770   24.7260   39.9590 C   0  0  0  0  0  0  0  0  0  0  0  0
   36.9980   23.7380   40.7980 C   0  0  0  0  0  0  0  0  0  0  0  0
   37.7540   24.0590   41.8860 C   0  0  0  0  0  0  0  0  0  0  0  0
   38.0510   25.3860   42.0680 C   0  0  0  0  0  0  0  0  0  0  0  0
   37.6020   26.3140   41.2000 C   0  0  0  0  0  0  0  0  0  0  0  0
   36.8600   26.0450   40.1260 C   0  0  0  0  0  0  0  0  0  0  0  0
   35.3030   27.3070   37.4890 H   0  0  0  0  0  0  0  0  0  0  0  0
   34.7790   24.9900   37.1490 H   0  0  0  0  0  0  0  0  0  0  0  0
   35.5600   23.2930   38.6870 H   0  0  0  0  0  0  0  0  0  0  0  0
   36.7210   22.6850   40.5870 H   0  0  0  0  0  0  0  0  0  0  0  0
   38.0480   23.1930   42.5090 H   0  0  0  0  0  0  0  0  0  0  0  0
   38.6620   25.4570   42.9870 H   0  0  0  0  0  0  0  0  0  0  0  0
   35.7810   30.3590   40.5610 C   0  0  0  0  0  0  0  0  0  0  0  0
   36.9100   31.1070   40.1090 C   0  0  0  0  0  0  0  0  0  0  0  0
   37.9230   30.4610   39.3460 C   0  0  0  0  0  0  0  0  0  0  0  0
   37.7410   29.1570   39.0970 N   0  0  0  0  0  0  0  0  0  0  0  0
   36.7220   28.4630   39.5010 C   0  0  0  0  0  0  0  0  0  0  0  0
   35.7440   29.0750   40.2340 N   0  0  0  0  0  0  0  0  0  0  0  0
   35.0150   30.8550   41.1400 H   0  0  0  0  0  0  0  0  0  0  0  0
   38.7280   31.0960   39.0520 H   0  0  0  0  0  0  0  0  0  0  0  0
   36.9190   32.4700   40.4790 N   0  0  0  0  0  0  0  0  0  0  0  0
   36.5110   33.3230   40.0530 H   0  0  0  0  0  0  0  0  0  0  0  0
   37.4810   32.4040   41.3560 H   0  0  0  0  0  0  0  0  0  0  0  0
   38.0510   27.5260   41.6300 O   0  0  0  0  0  0  0  0  0  0  0  0
   37.9270   28.0010   42.9670 C   0  0  0  0  0  2  0  0  0  0  0  0
   38.3350   29.4030   43.1910 C   0  0  0  0  0  2  0  0  0  0  0  0
   39.3420   29.5860   42.7710 H   0  0  0  0  0  0  0  0  0  0  0  0
  1 21  1  0  0  0  0
  1 10  1  0  0  0  0
  2  1  2  0  0  0  0
  3  2  1  0  0  0  0
  3  4  2  0  0  0  0
  4  5  1  0  0  0  0
  5 10  2  0  0  0  0
  5  6  1  0  0  0  0
  6  7  2  0  0  0  0
  7  8  1  0  0  0  0
  7 15  1  0  0  0  0
  8 16  1  0  0  0  0
  9 28  1  0  0  0  0
  9  8  2  0  0  0  0
 10  9  1  0  0  0  0
 11  2  1  0  0  0  0
 12  3  1  0  0  0  0
 13  4  1  0  0  0  0
 14  6  1  0  0  0  0
 17 23  1  0  0  0  0
 18 25  1  0  0  0  0
 18 17  2  0  0  0  0
 19 18  1  0  0  0  0
 20 19  2  0  0  0  0
 20 21  1  0  0  0  0
 21 22  2  0  0  0  0
 22 17  1  0  0  0  0
 24 19  1  0  0  0  0
 25 27  1  0  0  0  0
 26 25  1  0  0  0  0
 28 29  1  0  0  0  0
 29 30  1  0  0  0  0
 31 30  1  0  0  0  0
M  END
>  <minimizedAffinity>
-5.28552055

$$$$
