
 OpenBabel03252507493D

 39 40  0  0  0  0  0  0  0  0999 V2000
   47.7410   34.9240   41.1540 C   0  0  0  0  0  0  0  0  0  0  0  0
   48.1320   35.9710   41.0420 H   0  0  0  0  0  0  0  0  0  0  0  0
   47.1920   34.6880   40.2190 H   0  0  0  0  0  0  0  0  0  0  0  0
   48.9000   34.0360   41.3520 C   0  0  0  0  0  0  0  0  0  0  0  0
   49.0130   32.9460   40.5180 C   0  0  0  0  0  0  0  0  0  0  0  0
   50.0570   32.0510   40.6160 C   0  0  0  0  0  0  0  0  0  0  0  0
   50.9880   32.3260   41.6170 N   0  0  0  0  0  0  0  0  0  0  0  0
   50.8410   33.4110   42.4190 C   0  0  0  0  0  0  0  0  0  0  0  0
   49.8200   34.2330   42.2780 N   0  0  0  0  0  0  0  0  0  0  0  0
   50.1870   31.1960   39.9960 H   0  0  0  0  0  0  0  0  0  0  0  0
   51.5920   33.5810   43.1830 H   0  0  0  0  0  0  0  0  0  0  0  0
   47.7680   32.6670   39.2560 S   0  0  0  0  0  0  0  0  0  0  0  0
   48.5530   32.3180   37.6680 C   0  0  0  0  0  0  0  0  0  0  0  0
   49.5530   31.8290   37.7870 H   0  0  0  0  0  0  0  0  0  0  0  0
   47.9200   31.5970   37.0990 H   0  0  0  0  0  0  0  0  0  0  0  0
   48.7020   33.6040   36.9090 C   0  0  0  0  0  0  0  0  0  0  0  0
   49.6170   34.1500   37.1960 H   0  0  0  0  0  0  0  0  0  0  0  0
   47.8360   34.2710   37.1320 H   0  0  0  0  0  0  0  0  0  0  0  0
   48.6720   33.3150   35.5130 N   0  0  0  0  0  0  0  0  0  0  0  0
   49.5980   33.5220   35.0480 H   0  0  0  0  0  0  0  0  0  0  0  0
   48.4840   32.2950   35.2840 H   0  0  0  0  0  0  0  0  0  0  0  0
   46.7560   34.8990   42.2780 C   0  0  0  0  0  0  0  0  0  0  0  0
   46.8930   35.7960   42.9230 H   0  0  0  0  0  0  0  0  0  0  0  0
   46.9200   33.9690   42.8570 H   0  0  0  0  0  0  0  0  0  0  0  0
   45.3420   34.8910   41.8460 C   0  0  0  0  0  0  0  0  0  0  0  0
   44.3720   35.6460   42.5720 C   0  0  0  0  0  0  0  0  0  0  0  0
   42.8220   35.3190   41.6700 S   0  0  0  0  0  0  0  0  0  0  0  0
   43.7560   34.1910   40.4330 C   0  0  0  0  0  0  0  0  0  0  0  0
   44.8120   34.2590   40.8380 N   0  0  0  0  0  0  0  0  0  0  0  0
   44.5390   36.2560   43.4410 H   0  0  0  0  0  0  0  0  0  0  0  0
   43.1270   33.5430   39.3730 O   0  0  0  0  0  0  0  0  0  0  0  0
   40.9610   33.0980   37.9160 O   0  0  0  0  0  0  0  0  0  0  0  0
   41.5090   33.9180   39.0780 P   0  0  1  0  0  0  0  0  0  0  0  0
   40.6050   33.5220   40.4710 O   0  0  0  0  0  0  0  0  0  0  0  0
   40.8020   32.5890   40.6840 H   0  0  0  0  0  0  0  0  0  0  0  0
   41.3310   35.5820   38.7960 O   0  0  0  0  0  0  0  0  0  0  0  0
   42.0530   35.9970   37.6840 C   0  0  0  0  0  0  0  0  0  0  0  0
   41.1450   36.8070   36.7680 C   0  0  0  0  0  0  0  0  0  0  0  0
   40.3100   36.1570   36.4590 H   0  0  0  0  0  0  0  0  0  0  0  0
  1  4  1  0  0  0  0
  1 22  1  0  0  0  0
  2  1  1  0  0  0  0
  3  1  1  0  0  0  0
  4  9  1  0  0  0  0
  5  6  1  0  0  0  0
  5  4  2  0  0  0  0
  6  7  2  0  0  0  0
  7  8  1  0  0  0  0
  8 11  1  0  0  0  0
  9  8  2  0  0  0  0
 10  6  1  0  0  0  0
 12  5  1  0  0  0  0
 13 14  1  0  0  0  0
 13 12  1  0  0  0  0
 15 13  1  0  0  0  0
 16 18  1  0  0  0  0
 16 17  1  0  0  0  0
 16 13  1  0  0  0  0
 19 16  1  0  0  0  0
 20 19  1  0  0  0  0
 21 19  1  0  0  0  0
 22 24  1  0  0  0  0
 22 23  1  0  0  0  0
 25 22  1  0  0  0  0
 25 26  2  0  0  0  0
 26 30  1  0  0  0  0
 27 26  1  0  0  0  0
 28 29  2  0  0  0  0
 28 27  1  0  0  0  0
 29 25  1  0  0  0  0
 31 28  1  0  0  0  0
 33 32  2  6  0  0  0
 33 31  1  0  0  0  0
 33 34  1  0  0  0  0
 34 35  1  0  0  0  0
 36 33  1  0  0  0  0
 37 36  1  0  0  0  0
 38 37  1  0  0  0  0
 39 38  1  0  0  0  0
M  END
>  <minimizedAffinity>
-4.71635818

>  <minimizedRMSD>
1.00460315

$$$$
