
 OpenBabel03252508593D

 39 40  0  0  1  0  0  0  0  0999 V2000
   47.1110   34.0930   43.1220 N   0  0  0  0  0  0  0  0  0  0  0  0
   46.7350   35.3790   42.6590 C   0  0  0  0  0  0  0  0  0  0  0  0
   45.2820   35.7490   42.8620 C   0  0  0  0  0  0  0  0  0  0  0  0
   44.6660   35.1580   44.0970 C   0  0  0  0  0  0  0  0  0  0  0  0
   45.6720   34.3920   44.9230 C   0  0  0  0  0  0  0  0  0  0  0  0
   46.2500   33.3430   43.9050 C   0  0  2  0  0  0  0  0  0  0  0  0
   46.9930   35.6140   41.6240 H   0  0  0  0  0  0  0  0  0  0  0  0
   47.3210   36.1240   43.2750 H   0  0  0  0  0  0  0  0  0  0  0  0
   45.2240   36.8560   42.8710 H   0  0  0  0  0  0  0  0  0  0  0  0
   44.7410   35.4130   41.9600 H   0  0  0  0  0  0  0  0  0  0  0  0
   43.8450   34.4500   43.7930 H   0  0  0  0  0  0  0  0  0  0  0  0
   44.2000   35.9460   44.6930 H   0  0  0  0  0  0  0  0  0  0  0  0
   46.4640   35.0730   45.2310 H   0  0  0  0  0  0  0  0  0  0  0  0
   45.1600   33.8620   45.7290 H   0  0  0  0  0  0  0  0  0  0  0  0
   45.3480   32.9000   43.4370 H   0  0  0  0  0  0  0  0  0  0  0  0
   48.0400   33.4080   42.2690 C   0  0  0  0  0  0  0  0  0  0  0  0
   48.7230   34.1730   41.8340 H   0  0  0  0  0  0  0  0  0  0  0  0
   48.6780   32.7470   42.9090 H   0  0  0  0  0  0  0  0  0  0  0  0
   47.2950   32.6840   41.2120 C   0  0  0  0  0  0  0  0  0  0  0  0
   46.2420   33.0590   41.1410 H   0  0  0  0  0  0  0  0  0  0  0  0
   47.2510   31.6070   41.3970 H   0  0  0  0  0  0  0  0  0  0  0  0
   49.2930   32.2520   38.0650 C   0  0  0  0  0  0  0  0  0  0  0  0
   48.7130   32.0090   39.3250 C   0  0  0  0  0  0  0  0  0  0  0  0
   47.8970   32.9540   39.8860 C   0  0  0  0  0  0  0  0  0  0  0  0
   47.6880   34.0850   39.1970 N   0  0  0  0  0  0  0  0  0  0  0  0
   48.2490   34.3060   37.9940 C   0  0  0  0  0  0  0  0  0  0  0  0
   49.0500   33.4000   37.4210 N   0  0  0  0  0  0  0  0  0  0  0  0
   49.9460   31.5230   37.5900 H   0  0  0  0  0  0  0  0  0  0  0  0
   48.9570   31.0700   39.7730 H   0  0  0  0  0  0  0  0  0  0  0  0
   47.9910   35.2590   37.5560 H   0  0  0  0  0  0  0  0  0  0  0  0
   46.9360   32.4800   44.7480 O   0  0  0  0  0  0  0  0  0  0  0  0
   45.1620   30.7540   43.8130 O   0  0  0  0  0  0  0  0  0  0  0  0
   46.1830   30.9870   44.9140 P   0  0  2  0  0  0  0  0  0  0  0  0
   45.2850   31.0640   46.3680 O   0  0  0  0  0  0  0  0  0  0  0  0
   45.8740   31.0760   47.1620 H   0  0  0  0  0  0  0  0  0  0  0  0
   47.2870   29.7380   45.0500 O   0  0  0  0  0  0  0  0  0  0  0  0
   48.5390   30.0610   44.5430 C   0  0  0  0  0  2  0  0  0  0  0  0
   48.5480   29.7150   43.0680 C   0  0  0  0  0  2  0  0  0  0  0  0
   47.5590   29.2990   42.7270 H   0  0  0  0  0  0  0  0  0  0  0  0
  1  6  1  0  0  0  0
  2  3  1  0  0  0  0
  2  1  1  0  0  0  0
  2  8  1  0  0  0  0
  3  9  1  0  0  0  0
  3  4  1  0  0  0  0
  4 12  1  0  0  0  0
  4  5  1  0  0  0  0
  5 13  1  0  0  0  0
  5 14  1  0  0  0  0
  6 15  1  6  0  0  0
  6 31  1  0  0  0  0
  6  5  1  0  0  0  0
  7  2  1  0  0  0  0
 10  3  1  0  0  0  0
 11  4  1  0  0  0  0
 16 18  1  0  0  0  0
 16  1  1  0  0  0  0
 17 16  1  0  0  0  0
 19 21  1  0  0  0  0
 19 16  1  0  0  0  0
 20 19  1  0  0  0  0
 22 23  1  0  0  0  0
 23 29  1  0  0  0  0
 23 24  2  0  0  0  0
 24 19  1  0  0  0  0
 25 24  1  0  0  0  0
 26 25  2  0  0  0  0
 27 26  1  0  0  0  0
 27 22  2  0  0  0  0
 28 22  1  0  0  0  0
 30 26  1  0  0  0  0
 31 33  1  0  0  0  0
 33 32  2  6  0  0  0
 33 36  1  0  0  0  0
 33 34  1  0  0  0  0
 34 35  1  0  0  0  0
 37 36  1  0  0  0  0
 38 37  1  0  0  0  0
 39 38  1  0  0  0  0
M  END
>  <minimizedAffinity>
-3.59810185

>  <minimizedRMSD>
0.380298376

$$$$
