
 OpenBabel03252508593D

 39 40  0  0  1  0  0  0  0  0999 V2000
   46.7890   34.4350   43.5260 N   0  0  0  0  0  0  0  0  0  0  0  0
   46.3190   35.5460   42.7800 C   0  0  0  0  0  0  0  0  0  0  0  0
   44.8240   35.7770   42.8190 C   0  0  0  0  0  0  0  0  0  0  0  0
   44.1780   35.3840   44.1150 C   0  0  0  0  0  0  0  0  0  0  0  0
   45.1900   34.9270   45.1400 C   0  0  0  0  0  0  0  0  0  0  0  0
   45.9500   33.7670   44.4020 C   0  0  2  0  0  0  0  0  0  0  0  0
   46.6320   35.5920   41.7340 H   0  0  0  0  0  0  0  0  0  0  0  0
   46.7760   36.4640   43.2540 H   0  0  0  0  0  0  0  0  0  0  0  0
   44.6530   36.8480   42.5890 H   0  0  0  0  0  0  0  0  0  0  0  0
   44.3930   35.2010   41.9810 H   0  0  0  0  0  0  0  0  0  0  0  0
   43.4600   34.5380   43.9240 H   0  0  0  0  0  0  0  0  0  0  0  0
   43.5880   36.2180   44.5030 H   0  0  0  0  0  0  0  0  0  0  0  0
   45.8810   35.7450   45.3380 H   0  0  0  0  0  0  0  0  0  0  0  0
   44.6730   34.5190   46.0110 H   0  0  0  0  0  0  0  0  0  0  0  0
   45.1380   33.1350   43.9900 H   0  0  0  0  0  0  0  0  0  0  0  0
   47.8460   33.7030   42.8910 C   0  0  0  0  0  0  0  0  0  0  0  0
   48.4860   34.4380   42.3500 H   0  0  0  0  0  0  0  0  0  0  0  0
   48.4910   33.2580   43.6910 H   0  0  0  0  0  0  0  0  0  0  0  0
   47.2660   32.7050   41.9620 C   0  0  0  0  0  0  0  0  0  0  0  0
   46.1600   32.8560   41.8580 H   0  0  0  0  0  0  0  0  0  0  0  0
   47.4300   31.6780   42.2990 H   0  0  0  0  0  0  0  0  0  0  0  0
   49.1220   32.0690   38.7630 C   0  0  0  0  0  0  0  0  0  0  0  0
   48.5910   31.9040   40.0560 C   0  0  0  0  0  0  0  0  0  0  0  0
   47.8160   32.8930   40.6000 C   0  0  0  0  0  0  0  0  0  0  0  0
   47.5970   33.9900   39.8600 N   0  0  0  0  0  0  0  0  0  0  0  0
   48.1100   34.1360   38.6250 C   0  0  0  0  0  0  0  0  0  0  0  0
   48.8700   33.1860   38.0680 N   0  0  0  0  0  0  0  0  0  0  0  0
   49.7420   31.3040   38.3010 H   0  0  0  0  0  0  0  0  0  0  0  0
   48.8380   30.9860   40.5440 H   0  0  0  0  0  0  0  0  0  0  0  0
   47.8500   35.0690   38.1470 H   0  0  0  0  0  0  0  0  0  0  0  0
   46.6540   33.1820   45.4460 O   0  0  0  0  0  0  0  0  0  0  0  0
   45.4920   31.0050   44.4900 O   0  0  0  0  0  0  0  0  0  0  0  0
   46.2650   31.5630   45.6740 P   0  0  2  0  0  0  0  0  0  0  0  0
   45.1830   31.5130   46.9970 O   0  0  0  0  0  0  0  0  0  0  0  0
   45.6370   31.7280   47.8500 H   0  0  0  0  0  0  0  0  0  0  0  0
   47.6080   30.6440   46.0630 O   0  0  0  0  0  0  0  0  0  0  0  0
   48.1900   30.0360   44.9590 C   0  0  0  0  0  0  0  0  0  0  0  0
   49.3400   29.1810   45.4500 C   0  0  0  0  0  0  0  0  0  0  0  0
   49.4470   29.2220   46.5710 H   0  0  0  0  0  0  0  0  0  0  0  0
  1  6  1  0  0  0  0
  2  3  1  0  0  0  0
  2  8  1  0  0  0  0
  2  1  1  0  0  0  0
  3  4  1  0  0  0  0
  4 12  1  0  0  0  0
  4  5  1  0  0  0  0
  5 13  1  0  0  0  0
  5 14  1  0  0  0  0
  6 15  1  6  0  0  0
  6  5  1  0  0  0  0
  6 31  1  0  0  0  0
  7  2  1  0  0  0  0
  9  3  1  0  0  0  0
 10  3  1  0  0  0  0
 11  4  1  0  0  0  0
 16  1  1  0  0  0  0
 16 18  1  0  0  0  0
 17 16  1  0  0  0  0
 19 21  1  0  0  0  0
 19 16  1  0  0  0  0
 20 19  1  0  0  0  0
 22 23  1  0  0  0  0
 23 29  1  0  0  0  0
 23 24  2  0  0  0  0
 24 19  1  0  0  0  0
 25 24  1  0  0  0  0
 26 25  2  0  0  0  0
 27 26  1  0  0  0  0
 27 22  2  0  0  0  0
 28 22  1  0  0  0  0
 30 26  1  0  0  0  0
 31 33  1  0  0  0  0
 33 32  2  6  0  0  0
 33 36  1  0  0  0  0
 33 34  1  0  0  0  0
 34 35  1  0  0  0  0
 37 38  1  0  0  0  0
 37 36  1  0  0  0  0
 38 39  1  0  0  0  0
M  END
>  <minimizedAffinity>
-3.81900239

>  <minimizedRMSD>
0.726582825

$$$$
