
 OpenBabel03252503013D

 24 24  0  0  0  0  0  0  0  0999 V2000
   37.7530   29.5020   42.3840 C   0  0  0  0  0  0  0  0  0  0  0  0
   37.4550   29.9930   43.3160 H   0  0  0  0  0  0  0  0  0  0  0  0
   36.8990   28.8880   42.0000 H   0  0  0  0  0  0  0  0  0  0  0  0
   38.1540   30.4750   41.3620 N   0  0  0  0  0  0  0  0  0  0  0  0
   38.7940   30.0650   40.6760 H   0  0  0  0  0  0  0  0  0  0  0  0
   36.7810   31.2270   40.6240 S   0  0  0  0  0  0  0  0  0  0  0  0
   35.5440   30.9860   41.3960 O   0  0  0  0  0  0  0  0  0  0  0  0
   35.2560   31.5410   42.1620 H   0  0  0  0  0  0  0  0  0  0  0  0
   37.1000   32.7030   40.5740 O   0  0  0  0  0  0  0  0  0  0  0  0
   37.2930   33.2120   39.7520 H   0  0  0  0  0  0  0  0  0  0  0  0
   36.6610   30.7080   39.0420 O   0  0  0  0  0  0  0  0  0  0  0  0
   37.8720   30.6480   38.3920 C   0  0  0  0  0  2  0  0  0  0  0  0
   37.7850   31.6190   37.2060 C   0  0  0  0  0  2  0  0  0  0  0  0
   38.4380   31.2920   36.3690 H   0  0  0  0  0  0  0  0  0  0  0  0
   39.1480   28.4100   42.6540 S   0  0  0  0  0  0  0  0  0  0  0  0
   39.5800   25.7170   42.1720 C   0  0  0  0  0  0  0  0  0  0  0  0
   38.6350   26.6970   42.4000 C   0  0  0  0  0  0  0  0  0  0  0  0
   37.2820   26.3800   42.4350 C   0  0  0  0  0  0  0  0  0  0  0  0
   36.9540   25.0750   42.2370 N   0  0  0  0  0  0  0  0  0  0  0  0
   37.8800   24.1540   42.0210 C   0  0  0  0  0  0  0  0  0  0  0  0
   39.1910   24.4170   41.9780 N   0  0  0  0  0  0  0  0  0  0  0  0
   40.6300   26.0030   42.1510 H   0  0  0  0  0  0  0  0  0  0  0  0
   36.5850   27.1850   42.6170 H   0  0  0  0  0  0  0  0  0  0  0  0
   37.6550   23.1080   41.8580 H   0  0  0  0  0  0  0  0  0  0  0  0
  1 15  1  0  0  0  0
  1  2  1  0  0  0  0
  3  1  1  0  0  0  0
  4  1  1  0  0  0  0
  5  4  1  0  0  0  0
  6  4  1  0  0  0  0
  6  7  1  0  0  0  0
  7  8  1  0  0  0  0
  9  6  1  0  0  0  0
 10  9  1  0  0  0  0
 11  6  1  0  0  0  0
 12 11  1  0  0  0  0
 13 12  1  0  0  0  0
 14 13  1  0  0  0  0
 16 17  1  0  0  0  0
 17 18  2  0  0  0  0
 17 15  1  0  0  0  0
 18 23  1  0  0  0  0
 19 18  1  0  0  0  0
 20 19  2  0  0  0  0
 21 20  1  0  0  0  0
 21 16  2  0  0  0  0
 22 16  1  0  0  0  0
 24 20  1  0  0  0  0
M  END
>  <minimizedAffinity>
-4.30874062

$$$$

 OpenBabel03252503013D

 24 24  0  0  0  0  0  0  0  0999 V2000
   37.2600   29.3820   38.8050 C   0  0  0  0  0  0  0  0  0  0  0  0
   37.4360   29.1740   37.7440 H   0  0  0  0  0  0  0  0  0  0  0  0
   38.2420   29.5560   39.3150 H   0  0  0  0  0  0  0  0  0  0  0  0
   36.3970   30.5530   38.9920 N   0  0  0  0  0  0  0  0  0  0  0  0
   35.4050   30.3100   38.9210 H   0  0  0  0  0  0  0  0  0  0  0  0
   36.7730   31.3930   40.4580 S   0  0  0  0  0  0  0  0  0  0  0  0
   36.8570   32.8530   40.2460 O   0  0  0  0  0  0  0  0  0  0  0  0
   36.0750   33.4580   40.2680 H   0  0  0  0  0  0  0  0  0  0  0  0
   35.6580   31.0560   41.4210 O   0  0  0  0  0  0  0  0  0  0  0  0
   35.7530   30.4850   42.2180 H   0  0  0  0  0  0  0  0  0  0  0  0
   38.1740   30.7570   41.1060 O   0  0  0  0  0  0  0  0  0  0  0  0
   39.1110   31.7110   41.4280 C   0  0  0  0  0  2  0  0  0  0  0  0
   39.9750   31.1210   42.5510 C   0  0  0  0  0  2  0  0  0  0  0  0
   40.3820   31.9200   43.2070 H   0  0  0  0  0  0  0  0  0  0  0  0
   36.4570   27.9950   39.6040 S   0  0  0  0  0  0  0  0  0  0  0  0
   38.5900   27.1710   41.1660 C   0  0  0  0  0  0  0  0  0  0  0  0
   37.2880   27.6280   41.1640 C   0  0  0  0  0  0  0  0  0  0  0  0
   36.6020   27.8100   42.3600 C   0  0  0  0  0  0  0  0  0  0  0  0
   37.2770   27.5170   43.5040 N   0  0  0  0  0  0  0  0  0  0  0  0
   38.5260   27.0810   43.4770 C   0  0  0  0  0  0  0  0  0  0  0  0
   39.2220   26.8920   42.3490 N   0  0  0  0  0  0  0  0  0  0  0  0
   39.0960   27.0410   40.2110 H   0  0  0  0  0  0  0  0  0  0  0  0
   35.5850   28.1690   42.3020 H   0  0  0  0  0  0  0  0  0  0  0  0
   39.0930   26.8380   44.3670 H   0  0  0  0  0  0  0  0  0  0  0  0
  1  4  1  0  0  0  0
  1  3  1  0  0  0  0
  1 15  1  0  0  0  0
  2  1  1  0  0  0  0
  4  6  1  0  0  0  0
  5  4  1  0  0  0  0
  6 11  1  0  0  0  0
  6  9  1  0  0  0  0
  7  8  1  0  0  0  0
  7  6  1  0  0  0  0
  9 10  1  0  0  0  0
 11 12  1  0  0  0  0
 12 13  1  0  0  0  0
 13 14  1  0  0  0  0
 15 17  1  0  0  0  0
 16 21  1  0  0  0  0
 17 16  2  0  0  0  0
 17 18  1  0  0  0  0
 18 19  2  0  0  0  0
 20 19  1  0  0  0  0
 20 24  1  0  0  0  0
 21 20  2  0  0  0  0
 22 16  1  0  0  0  0
 23 18  1  0  0  0  0
M  END
>  <minimizedAffinity>
-4.18055725

$$$$

 OpenBabel03252503013D

 24 24  0  0  0  0  0  0  0  0999 V2000
   37.0470   27.8170   39.8910 C   0  0  0  0  0  0  0  0  0  0  0  0
   36.8750   27.9180   38.8140 H   0  0  0  0  0  0  0  0  0  0  0  0
   38.0460   28.2520   40.1480 H   0  0  0  0  0  0  0  0  0  0  0  0
   36.0040   28.4910   40.6720 N   0  0  0  0  0  0  0  0  0  0  0  0
   35.5780   27.8650   41.3590 H   0  0  0  0  0  0  0  0  0  0  0  0
   36.5880   29.9580   41.3810 S   0  0  0  0  0  0  0  0  0  0  0  0
   35.5570   31.0170   41.3780 O   0  0  0  0  0  0  0  0  0  0  0  0
   34.8700   31.1180   42.0820 H   0  0  0  0  0  0  0  0  0  0  0  0
   36.9820   29.6010   42.7960 O   0  0  0  0  0  0  0  0  0  0  0  0
   37.9070   29.5630   43.1320 H   0  0  0  0  0  0  0  0  0  0  0  0
   37.9870   30.4230   40.5970 O   0  0  0  0  0  0  0  0  0  0  0  0
   37.8780   31.6340   39.9540 C   0  0  0  0  0  2  0  0  0  0  0  0
   37.4730   31.3290   38.5060 C   0  0  0  0  0  2  0  0  0  0  0  0
   37.8450   32.1120   37.8110 H   0  0  0  0  0  0  0  0  0  0  0  0
   37.0470   26.0940   40.3810 S   0  0  0  0  0  0  0  0  0  0  0  0
   39.0530   26.8810   42.1200 C   0  0  0  0  0  0  0  0  0  0  0  0
   38.3060   25.8230   41.6460 C   0  0  0  0  0  0  0  0  0  0  0  0
   38.5140   24.5370   42.1340 C   0  0  0  0  0  0  0  0  0  0  0  0
   39.4740   24.3910   43.0850 N   0  0  0  0  0  0  0  0  0  0  0  0
   40.1770   25.4240   43.5230 C   0  0  0  0  0  0  0  0  0  0  0  0
   40.0090   26.6760   43.0800 N   0  0  0  0  0  0  0  0  0  0  0  0
   38.8630   27.8730   41.7150 H   0  0  0  0  0  0  0  0  0  0  0  0
   37.9020   23.7440   41.7290 H   0  0  0  0  0  0  0  0  0  0  0  0
   40.9490   25.3450   44.2780 H   0  0  0  0  0  0  0  0  0  0  0  0
  1  3  1  0  0  0  0
  1 15  1  0  0  0  0
  1  4  1  0  0  0  0
  2  1  1  0  0  0  0
  4  5  1  0  0  0  0
  4  6  1  0  0  0  0
  6  9  1  0  0  0  0
  7  6  1  0  0  0  0
  7  8  1  0  0  0  0
  9 10  1  0  0  0  0
 11  6  1  0  0  0  0
 12 11  1  0  0  0  0
 13 12  1  0  0  0  0
 14 13  1  0  0  0  0
 15 17  1  0  0  0  0
 16 21  1  0  0  0  0
 17 16  2  0  0  0  0
 17 18  1  0  0  0  0
 18 19  2  0  0  0  0
 19 20  1  0  0  0  0
 20 24  1  0  0  0  0
 21 20  2  0  0  0  0
 22 16  1  0  0  0  0
 23 18  1  0  0  0  0
M  END
>  <minimizedAffinity>
-3.99141264

$$$$

 OpenBabel03252503013D

 24 24  0  0  0  0  0  0  0  0999 V2000
   38.3640   28.8350   42.3530 C   0  0  0  0  0  0  0  0  0  0  0  0
   38.4870   28.5330   41.3070 H   0  0  0  0  0  0  0  0  0  0  0  0
   39.1780   29.5530   42.6280 H   0  0  0  0  0  0  0  0  0  0  0  0
   37.0590   29.4610   42.5880 N   0  0  0  0  0  0  0  0  0  0  0  0
   37.1050   30.1730   43.3220 H   0  0  0  0  0  0  0  0  0  0  0  0
   36.3670   30.0630   41.1200 S   0  0  0  0  0  0  0  0  0  0  0  0
   35.5720   31.2870   41.3500 O   0  0  0  0  0  0  0  0  0  0  0  0
   35.9580   32.1970   41.3730 H   0  0  0  0  0  0  0  0  0  0  0  0
   37.5340   30.3490   40.2040 O   0  0  0  0  0  0  0  0  0  0  0  0
   37.7570   29.8320   39.3940 H   0  0  0  0  0  0  0  0  0  0  0  0
   35.4780   28.8470   40.3990 O   0  0  0  0  0  0  0  0  0  0  0  0
   35.6550   28.7730   39.0370 C   0  0  0  0  0  2  0  0  0  0  0  0
   34.2530   28.7260   38.4130 C   0  0  0  0  0  2  0  0  0  0  0  0
   34.2610   28.1730   37.4490 H   0  0  0  0  0  0  0  0  0  0  0  0
   38.4780   27.4190   43.4450 S   0  0  0  0  0  0  0  0  0  0  0  0
   36.9520   25.4870   42.1780 C   0  0  0  0  0  0  0  0  0  0  0  0
   38.2280   25.9010   42.5000 C   0  0  0  0  0  0  0  0  0  0  0  0
   39.3330   25.1570   42.1030 C   0  0  0  0  0  0  0  0  0  0  0  0
   39.0860   24.0240   41.3950 N   0  0  0  0  0  0  0  0  0  0  0  0
   37.8510   23.6480   41.0990 C   0  0  0  0  0  0  0  0  0  0  0  0
   36.7610   24.3340   41.4620 N   0  0  0  0  0  0  0  0  0  0  0  0
   36.1100   26.0940   42.5070 H   0  0  0  0  0  0  0  0  0  0  0  0
   40.3100   25.5270   42.3810 H   0  0  0  0  0  0  0  0  0  0  0  0
   37.6180   22.7530   40.5380 H   0  0  0  0  0  0  0  0  0  0  0  0
  1  4  1  0  0  0  0
  1  3  1  0  0  0  0
  1 15  1  0  0  0  0
  2  1  1  0  0  0  0
  4  5  1  0  0  0  0
  6  7  1  0  0  0  0
  6  4  1  0  0  0  0
  7  8  1  0  0  0  0
  9  6  1  0  0  0  0
 10  9  1  0  0  0  0
 11  6  1  0  0  0  0
 12 11  1  0  0  0  0
 13 12  1  0  0  0  0
 14 13  1  0  0  0  0
 16 17  1  0  0  0  0
 16 22  1  0  0  0  0
 17 15  1  0  0  0  0
 18 23  1  0  0  0  0
 18 17  2  0  0  0  0
 19 18  1  0  0  0  0
 20 19  2  0  0  0  0
 20 21  1  0  0  0  0
 21 16  2  0  0  0  0
 24 20  1  0  0  0  0
M  END
>  <minimizedAffinity>
-3.96621752

$$$$

 OpenBabel03252503013D

 24 24  0  0  0  0  0  0  0  0999 V2000
   38.4570   29.4160   42.9430 C   0  0  0  0  0  0  0  0  0  0  0  0
   38.9110   29.7970   42.0220 H   0  0  0  0  0  0  0  0  0  0  0  0
   38.7950   30.0420   43.8080 H   0  0  0  0  0  0  0  0  0  0  0  0
   36.9920   29.4320   42.8730 N   0  0  0  0  0  0  0  0  0  0  0  0
   36.5830   30.0540   43.5750 H   0  0  0  0  0  0  0  0  0  0  0  0
   36.4340   29.7790   41.2720 S   0  0  0  0  0  0  0  0  0  0  0  0
   35.6210   28.6740   40.7220 O   0  0  0  0  0  0  0  0  0  0  0  0
   34.6510   28.5720   40.8840 H   0  0  0  0  0  0  0  0  0  0  0  0
   35.6110   31.0410   41.3900 O   0  0  0  0  0  0  0  0  0  0  0  0
   35.8740   31.9230   41.0370 H   0  0  0  0  0  0  0  0  0  0  0  0
   37.7460   30.1520   40.3070 O   0  0  0  0  0  0  0  0  0  0  0  0
   37.6250   29.6930   39.0170 C   0  0  0  0  0  2  0  0  0  0  0  0
   37.0950   30.8660   38.1800 C   0  0  0  0  0  2  0  0  0  0  0  0
   36.4980   30.5050   37.3150 H   0  0  0  0  0  0  0  0  0  0  0  0
   38.9570   27.7240   43.2520 S   0  0  0  0  0  0  0  0  0  0  0  0
   39.0180   26.6820   40.6870 C   0  0  0  0  0  0  0  0  0  0  0  0
   38.3780   26.6650   41.9090 C   0  0  0  0  0  0  0  0  0  0  0  0
   37.2830   25.8350   42.1200 C   0  0  0  0  0  0  0  0  0  0  0  0
   36.8900   25.0600   41.0750 N   0  0  0  0  0  0  0  0  0  0  0  0
   37.5220   25.0960   39.9120 C   0  0  0  0  0  0  0  0  0  0  0  0
   38.5790   25.8800   39.6660 N   0  0  0  0  0  0  0  0  0  0  0  0
   39.8720   27.3450   40.5570 H   0  0  0  0  0  0  0  0  0  0  0  0
   36.8180   25.8610   43.0960 H   0  0  0  0  0  0  0  0  0  0  0  0
   37.2370   24.4940   39.0590 H   0  0  0  0  0  0  0  0  0  0  0  0
  1 15  1  0  0  0  0
  1  3  1  0  0  0  0
  2  1  1  0  0  0  0
  4  1  1  0  0  0  0
  4  5  1  0  0  0  0
  6  9  1  0  0  0  0
  6  4  1  0  0  0  0
  7  8  1  0  0  0  0
  7  6  1  0  0  0  0
 10  9  1  0  0  0  0
 11  6  1  0  0  0  0
 12 11  1  0  0  0  0
 13 12  1  0  0  0  0
 14 13  1  0  0  0  0
 16 17  1  0  0  0  0
 17 18  2  0  0  0  0
 17 15  1  0  0  0  0
 18 23  1  0  0  0  0
 19 18  1  0  0  0  0
 20 19  2  0  0  0  0
 21 20  1  0  0  0  0
 21 16  2  0  0  0  0
 22 16  1  0  0  0  0
 24 20  1  0  0  0  0
M  END
>  <minimizedAffinity>
-3.93326402

$$$$

 OpenBabel03252503013D

 24 24  0  0  0  0  0  0  0  0999 V2000
   37.7060   30.7810   40.6220 C   0  0  0  0  0  0  0  0  0  0  0  0
   37.6550   30.2570   39.6610 H   0  0  0  0  0  0  0  0  0  0  0  0
   38.7710   31.0480   40.8410 H   0  0  0  0  0  0  0  0  0  0  0  0
   36.8860   31.9970   40.6210 N   0  0  0  0  0  0  0  0  0  0  0  0
   36.5230   32.2120   41.5530 H   0  0  0  0  0  0  0  0  0  0  0  0
   37.7280   33.3330   39.9120 S   0  0  0  0  0  0  0  0  0  0  0  0
   36.8370   34.1600   39.0740 O   0  0  0  0  0  0  0  0  0  0  0  0
   36.2700   34.8900   39.4270 H   0  0  0  0  0  0  0  0  0  0  0  0
   38.2700   34.1370   41.0710 O   0  0  0  0  0  0  0  0  0  0  0  0
   39.2230   34.2080   41.3140 H   0  0  0  0  0  0  0  0  0  0  0  0
   39.0500   32.7570   39.0690 O   0  0  0  0  0  0  0  0  0  0  0  0
   40.2310   33.3700   39.4180 C   0  0  0  0  0  2  0  0  0  0  0  0
   41.1440   32.2760   39.9880 C   0  0  0  0  0  2  0  0  0  0  0  0
   41.8550   32.6930   40.7330 H   0  0  0  0  0  0  0  0  0  0  0  0
   37.1090   29.7390   41.9510 S   0  0  0  0  0  0  0  0  0  0  0  0
   36.6750   27.7440   40.0790 C   0  0  0  0  0  0  0  0  0  0  0  0
   37.0170   28.0260   41.3860 C   0  0  0  0  0  0  0  0  0  0  0  0
   37.2940   26.9990   42.2810 C   0  0  0  0  0  0  0  0  0  0  0  0
   37.2090   25.7290   41.8020 N   0  0  0  0  0  0  0  0  0  0  0  0
   36.8790   25.4870   40.5430 C   0  0  0  0  0  0  0  0  0  0  0  0
   36.6040   26.4450   39.6500 N   0  0  0  0  0  0  0  0  0  0  0  0
   36.4640   28.5740   39.4070 H   0  0  0  0  0  0  0  0  0  0  0  0
   37.5580   27.2750   43.2920 H   0  0  0  0  0  0  0  0  0  0  0  0
   36.8010   24.4900   40.1280 H   0  0  0  0  0  0  0  0  0  0  0  0
  1  3  1  0  0  0  0
  1 15  1  0  0  0  0
  2  1  1  0  0  0  0
  4  1  1  0  0  0  0
  4  5  1  0  0  0  0
  6  4  1  0  0  0  0
  6  9  1  0  0  0  0
  7  8  1  0  0  0  0
  7  6  1  0  0  0  0
  9 10  1  0  0  0  0
 11 12  1  0  0  0  0
 11  6  1  0  0  0  0
 12 13  1  0  0  0  0
 13 14  1  0  0  0  0
 16 17  1  0  0  0  0
 17 15  1  0  0  0  0
 17 18  2  0  0  0  0
 18 23  1  0  0  0  0
 19 18  1  0  0  0  0
 20 19  2  0  0  0  0
 21 16  2  0  0  0  0
 21 20  1  0  0  0  0
 22 16  1  0  0  0  0
 24 20  1  0  0  0  0
M  END
>  <minimizedAffinity>
-3.91730261

$$$$

 OpenBabel03252503013D

 24 24  0  0  0  0  0  0  0  0999 V2000
   39.6490   31.2470   40.9190 C   0  0  0  0  0  0  0  0  0  0  0  0
   39.2820   30.5600   40.1490 H   0  0  0  0  0  0  0  0  0  0  0  0
   40.7040   31.5390   40.6810 H   0  0  0  0  0  0  0  0  0  0  0  0
   38.8180   32.4510   41.0140 N   0  0  0  0  0  0  0  0  0  0  0  0
   39.3620   33.3030   40.8520 H   0  0  0  0  0  0  0  0  0  0  0  0
   37.4250   32.3470   39.9920 S   0  0  0  0  0  0  0  0  0  0  0  0
   36.7700   33.6610   39.8220 O   0  0  0  0  0  0  0  0  0  0  0  0
   37.0420   34.3260   39.1430 H   0  0  0  0  0  0  0  0  0  0  0  0
   37.9280   31.8250   38.6660 O   0  0  0  0  0  0  0  0  0  0  0  0
   37.7410   30.9270   38.3040 H   0  0  0  0  0  0  0  0  0  0  0  0
   36.3890   31.1880   40.6010 O   0  0  0  0  0  0  0  0  0  0  0  0
   36.2140   30.1130   39.7610 C   0  0  0  0  0  2  0  0  0  0  0  0
   35.1830   29.1940   40.4300 C   0  0  0  0  0  2  0  0  0  0  0  0
   35.3440   28.1330   40.1420 H   0  0  0  0  0  0  0  0  0  0  0  0
   39.6390   30.4650   42.5310 S   0  0  0  0  0  0  0  0  0  0  0  0
   37.6020   28.8040   43.4030 C   0  0  0  0  0  0  0  0  0  0  0  0
   38.6120   28.9810   42.4800 C   0  0  0  0  0  0  0  0  0  0  0  0
   38.8510   28.0220   41.5020 C   0  0  0  0  0  0  0  0  0  0  0  0
   38.0490   26.9240   41.5110 N   0  0  0  0  0  0  0  0  0  0  0  0
   37.0860   26.7790   42.4080 C   0  0  0  0  0  0  0  0  0  0  0  0
   36.8230   27.6770   43.3650 N   0  0  0  0  0  0  0  0  0  0  0  0
   37.4440   29.5750   44.1540 H   0  0  0  0  0  0  0  0  0  0  0  0
   39.6550   28.2100   40.8040 H   0  0  0  0  0  0  0  0  0  0  0  0
   36.4290   25.9200   42.4450 H   0  0  0  0  0  0  0  0  0  0  0  0
  1  4  1  0  0  0  0
  1 15  1  0  0  0  0
  2  1  1  0  0  0  0
  3  1  1  0  0  0  0
  5  4  1  0  0  0  0
  6 11  1  0  0  0  0
  6  4  1  0  0  0  0
  7  6  1  0  0  0  0
  8  7  1  0  0  0  0
  9  6  1  0  0  0  0
 10  9  1  0  0  0  0
 12 13  1  0  0  0  0
 12 11  1  0  0  0  0
 14 13  1  0  0  0  0
 16 22  1  0  0  0  0
 17 15  1  0  0  0  0
 17 16  2  0  0  0  0
 18 19  2  0  0  0  0
 18 17  1  0  0  0  0
 19 20  1  0  0  0  0
 20 24  1  0  0  0  0
 20 21  2  0  0  0  0
 21 16  1  0  0  0  0
 23 18  1  0  0  0  0
M  END
>  <minimizedAffinity>
-3.86729527

$$$$

 OpenBabel03252503013D

 24 24  0  0  0  0  0  0  0  0999 V2000
   38.1480   28.5380   39.8170 C   0  0  0  0  0  0  0  0  0  0  0  0
   38.0690   28.0300   38.8490 H   0  0  0  0  0  0  0  0  0  0  0  0
   38.6580   29.5250   39.6750 H   0  0  0  0  0  0  0  0  0  0  0  0
   36.8320   28.7510   40.4270 N   0  0  0  0  0  0  0  0  0  0  0  0
   36.5080   27.9230   40.9340 H   0  0  0  0  0  0  0  0  0  0  0  0
   36.8060   30.1800   41.4030 S   0  0  0  0  0  0  0  0  0  0  0  0
   35.5130   30.8890   41.3020 O   0  0  0  0  0  0  0  0  0  0  0  0
   34.7220   30.6710   41.8530 H   0  0  0  0  0  0  0  0  0  0  0  0
   37.0490   29.7130   42.8200 O   0  0  0  0  0  0  0  0  0  0  0  0
   37.8710   29.8810   43.3370 H   0  0  0  0  0  0  0  0  0  0  0  0
   38.1020   31.1470   40.9880 O   0  0  0  0  0  0  0  0  0  0  0  0
   37.7330   32.3660   40.4700 C   0  0  0  0  0  2  0  0  0  0  0  0
   37.7060   32.2060   38.9430 C   0  0  0  0  0  2  0  0  0  0  0  0
   37.9290   33.1690   38.4350 H   0  0  0  0  0  0  0  0  0  0  0  0
   39.1190   27.5700   40.9700 S   0  0  0  0  0  0  0  0  0  0  0  0
   39.0720   24.9280   40.1390 C   0  0  0  0  0  0  0  0  0  0  0  0
   38.5200   25.8660   40.9870 C   0  0  0  0  0  0  0  0  0  0  0  0
   37.4990   25.5130   41.8620 C   0  0  0  0  0  0  0  0  0  0  0  0
   37.0870   24.2170   41.8320 N   0  0  0  0  0  0  0  0  0  0  0  0
   37.6350   23.3370   41.0080 C   0  0  0  0  0  0  0  0  0  0  0  0
   38.6180   23.6350   40.1500 N   0  0  0  0  0  0  0  0  0  0  0  0
   39.8700   25.2410   39.4670 H   0  0  0  0  0  0  0  0  0  0  0  0
   37.1020   26.2860   42.5040 H   0  0  0  0  0  0  0  0  0  0  0  0
   37.3320   22.2990   40.9560 H   0  0  0  0  0  0  0  0  0  0  0  0
  1  4  1  0  0  0  0
  1 15  1  0  0  0  0
  2  1  1  0  0  0  0
  3  1  1  0  0  0  0
  4  5  1  0  0  0  0
  4  6  1  0  0  0  0
  6  9  1  0  0  0  0
  7  6  1  0  0  0  0
  7  8  1  0  0  0  0
  9 10  1  0  0  0  0
 11  6  1  0  0  0  0
 12 11  1  0  0  0  0
 13 12  1  0  0  0  0
 14 13  1  0  0  0  0
 15 17  1  0  0  0  0
 16 21  2  0  0  0  0
 16 17  1  0  0  0  0
 17 18  2  0  0  0  0
 18 23  1  0  0  0  0
 19 18  1  0  0  0  0
 20 19  2  0  0  0  0
 21 20  1  0  0  0  0
 22 16  1  0  0  0  0
 24 20  1  0  0  0  0
M  END
>  <minimizedAffinity>
-3.83478522

$$$$

 OpenBabel03252503013D

 24 24  0  0  0  0  0  0  0  0999 V2000
   36.2610   31.1790   40.9620 C   0  0  0  0  0  0  0  0  0  0  0  0
   35.2820   31.6680   41.0120 H   0  0  0  0  0  0  0  0  0  0  0  0
   36.9740   31.7080   41.6460 H   0  0  0  0  0  0  0  0  0  0  0  0
   36.1810   29.7640   41.3400 N   0  0  0  0  0  0  0  0  0  0  0  0
   36.0240   29.1620   40.5270 H   0  0  0  0  0  0  0  0  0  0  0  0
   37.5520   29.2750   42.2760 S   0  0  0  0  0  0  0  0  0  0  0  0
   38.6080   30.3090   42.2830 O   0  0  0  0  0  0  0  0  0  0  0  0
   38.6280   31.0690   42.9150 H   0  0  0  0  0  0  0  0  0  0  0  0
   37.0290   29.0350   43.6730 O   0  0  0  0  0  0  0  0  0  0  0  0
   36.9490   28.1510   44.1020 H   0  0  0  0  0  0  0  0  0  0  0  0
   38.1000   27.8020   41.7100 O   0  0  0  0  0  0  0  0  0  0  0  0
   39.3890   27.5140   42.0920 C   0  0  0  0  0  2  0  0  0  0  0  0
   39.2910   26.6280   43.3410 C   0  0  0  0  0  2  0  0  0  0  0  0
   40.1770   26.7620   43.9990 H   0  0  0  0  0  0  0  0  0  0  0  0
   36.9280   31.2490   39.3010 S   0  0  0  0  0  0  0  0  0  0  0  0
   39.4390   32.0190   38.4220 C   0  0  0  0  0  0  0  0  0  0  0  0
   38.3950   32.3010   39.2800 C   0  0  0  0  0  0  0  0  0  0  0  0
   38.4610   33.3950   40.1360 C   0  0  0  0  0  0  0  0  0  0  0  0
   39.5890   34.1520   40.0780 N   0  0  0  0  0  0  0  0  0  0  0  0
   40.5760   33.8590   39.2450 C   0  0  0  0  0  0  0  0  0  0  0  0
   40.5530   32.8170   38.4060 N   0  0  0  0  0  0  0  0  0  0  0  0
   39.3530   31.1550   37.7670 H   0  0  0  0  0  0  0  0  0  0  0  0
   37.6160   33.5700   40.7870 H   0  0  0  0  0  0  0  0  0  0  0  0
   41.4870   34.4380   39.1730 H   0  0  0  0  0  0  0  0  0  0  0  0
  1  2  1  0  0  0  0
  1  4  1  0  0  0  0
  1  3  1  0  0  0  0
  4  6  1  0  0  0  0
  5  4  1  0  0  0  0
  6  7  1  0  0  0  0
  6  9  1  0  0  0  0
  7  8  1  0  0  0  0
  9 10  1  0  0  0  0
 11 12  1  0  0  0  0
 11  6  1  0  0  0  0
 12 13  1  0  0  0  0
 13 14  1  0  0  0  0
 15  1  1  0  0  0  0
 16 17  1  0  0  0  0
 17 15  1  0  0  0  0
 17 18  2  0  0  0  0
 18 23  1  0  0  0  0
 19 18  1  0  0  0  0
 20 19  2  0  0  0  0
 21 16  2  0  0  0  0
 21 20  1  0  0  0  0
 22 16  1  0  0  0  0
 24 20  1  0  0  0  0
M  END
>  <minimizedAffinity>
-3.83290291

$$$$
