
 OpenBabel03252508593D

 39 40  0  0  1  0  0  0  0  0999 V2000
   46.7450   34.4340   43.4660 N   0  0  0  0  0  0  0  0  0  0  0  0
   46.2700   35.5670   42.7580 C   0  0  0  0  0  0  0  0  0  0  0  0
   44.7850   35.8330   42.8660 C   0  0  0  0  0  0  0  0  0  0  0  0
   44.1870   35.4360   44.1840 C   0  0  0  0  0  0  0  0  0  0  0  0
   45.2300   34.9390   45.1560 C   0  0  0  0  0  0  0  0  0  0  0  0
   45.9290   33.7720   44.3680 C   0  0  2  0  0  0  0  0  0  0  0  0
   46.5380   35.6220   41.7000 H   0  0  0  0  0  0  0  0  0  0  0  0
   46.7700   36.4670   43.2250 H   0  0  0  0  0  0  0  0  0  0  0  0
   44.6300   36.9110   42.6600 H   0  0  0  0  0  0  0  0  0  0  0  0
   44.3040   35.2820   42.0390 H   0  0  0  0  0  0  0  0  0  0  0  0
   43.4400   34.6100   44.0120 H   0  0  0  0  0  0  0  0  0  0  0  0
   43.6350   36.2770   44.6090 H   0  0  0  0  0  0  0  0  0  0  0  0
   45.9500   35.7370   45.3360 H   0  0  0  0  0  0  0  0  0  0  0  0
   44.7420   34.5290   46.0430 H   0  0  0  0  0  0  0  0  0  0  0  0
   45.0840   33.1670   43.9830 H   0  0  0  0  0  0  0  0  0  0  0  0
   47.7550   33.6870   42.7740 C   0  0  0  0  0  0  0  0  0  0  0  0
   48.4260   34.4190   42.2680 H   0  0  0  0  0  0  0  0  0  0  0  0
   48.3850   33.1630   43.5380 H   0  0  0  0  0  0  0  0  0  0  0  0
   47.1130   32.7760   41.7970 C   0  0  0  0  0  0  0  0  0  0  0  0
   46.0340   33.0440   41.6570 H   0  0  0  0  0  0  0  0  0  0  0  0
   47.1560   31.7300   42.1130 H   0  0  0  0  0  0  0  0  0  0  0  0
   49.1880   32.1090   38.7430 C   0  0  0  0  0  0  0  0  0  0  0  0
   48.5890   31.9700   40.0100 C   0  0  0  0  0  0  0  0  0  0  0  0
   47.7330   32.9370   40.4630 C   0  0  0  0  0  0  0  0  0  0  0  0
   47.5040   33.9890   39.6640 N   0  0  0  0  0  0  0  0  0  0  0  0
   48.0820   34.1120   38.4550 C   0  0  0  0  0  0  0  0  0  0  0  0
   48.9220   33.1810   37.9860 N   0  0  0  0  0  0  0  0  0  0  0  0
   49.8720   31.3590   38.3520 H   0  0  0  0  0  0  0  0  0  0  0  0
   48.8530   31.0870   40.5510 H   0  0  0  0  0  0  0  0  0  0  0  0
   47.8050   35.0090   37.9230 H   0  0  0  0  0  0  0  0  0  0  0  0
   46.6630   33.1540   45.3720 O   0  0  0  0  0  0  0  0  0  0  0  0
   45.4330   31.0170   44.4110 O   0  0  0  0  0  0  0  0  0  0  0  0
   46.2630   31.5340   45.5750 P   0  0  2  0  0  0  0  0  0  0  0  0
   45.2380   31.4630   46.9420 O   0  0  0  0  0  0  0  0  0  0  0  0
   45.7310   31.6500   47.7790 H   0  0  0  0  0  0  0  0  0  0  0  0
   47.6090   30.5900   45.8820 O   0  0  0  0  0  0  0  0  0  0  0  0
   47.8380   29.6330   44.9030 C   0  0  0  0  0  2  0  0  0  0  0  0
   48.8290   30.2090   43.9110 C   0  0  0  0  0  2  0  0  0  0  0  0
   49.1540   31.2490   44.1960 H   0  0  0  0  0  0  0  0  0  0  0  0
  1  6  1  0  0  0  0
  2  3  1  0  0  0  0
  2  8  1  0  0  0  0
  2  1  1  0  0  0  0
  3  4  1  0  0  0  0
  4 12  1  0  0  0  0
  4  5  1  0  0  0  0
  5 13  1  0  0  0  0
  5 14  1  0  0  0  0
  6 15  1  6  0  0  0
  6  5  1  0  0  0  0
  6 31  1  0  0  0  0
  7  2  1  0  0  0  0
  9  3  1  0  0  0  0
 10  3  1  0  0  0  0
 11  4  1  0  0  0  0
 16  1  1  0  0  0  0
 16 18  1  0  0  0  0
 17 16  1  0  0  0  0
 19 21  1  0  0  0  0
 19 16  1  0  0  0  0
 20 19  1  0  0  0  0
 22 23  1  0  0  0  0
 23 24  2  0  0  0  0
 23 29  1  0  0  0  0
 24 19  1  0  0  0  0
 25 24  1  0  0  0  0
 26 25  2  0  0  0  0
 27 26  1  0  0  0  0
 27 22  2  0  0  0  0
 28 22  1  0  0  0  0
 30 26  1  0  0  0  0
 31 33  1  0  0  0  0
 33 32  2  6  0  0  0
 33 36  1  0  0  0  0
 33 34  1  0  0  0  0
 34 35  1  0  0  0  0
 37 36  1  0  0  0  0
 38 39  1  0  0  0  0
 38 37  1  0  0  0  0
M  END
>  <minimizedAffinity>
-3.76022124

>  <minimizedRMSD>
0.684138536

$$$$
