
 OpenBabel03252508593D

 39 40  0  0  1  0  0  0  0  0999 V2000
   46.7890   34.4180   43.4950 N   0  0  0  0  0  0  0  0  0  0  0  0
   46.3390   35.5610   42.7870 C   0  0  0  0  0  0  0  0  0  0  0  0
   44.8510   35.8270   42.8500 C   0  0  0  0  0  0  0  0  0  0  0  0
   44.2090   35.4110   44.1420 C   0  0  0  0  0  0  0  0  0  0  0  0
   45.2200   34.9000   45.1410 C   0  0  0  0  0  0  0  0  0  0  0  0
   45.9440   33.7440   44.3610 C   0  0  2  0  0  0  0  0  0  0  0  0
   46.6410   35.6310   41.7400 H   0  0  0  0  0  0  0  0  0  0  0  0
   46.8230   36.4540   43.2830 H   0  0  0  0  0  0  0  0  0  0  0  0
   44.7030   36.9080   42.6540 H   0  0  0  0  0  0  0  0  0  0  0  0
   44.3970   35.2870   42.0010 H   0  0  0  0  0  0  0  0  0  0  0  0
   43.4690   34.5880   43.9350 H   0  0  0  0  0  0  0  0  0  0  0  0
   43.6440   36.2470   44.5610 H   0  0  0  0  0  0  0  0  0  0  0  0
   45.9340   35.6950   45.3560 H   0  0  0  0  0  0  0  0  0  0  0  0
   44.7030   34.4780   46.0060 H   0  0  0  0  0  0  0  0  0  0  0  0
   45.1130   33.1440   43.9390 H   0  0  0  0  0  0  0  0  0  0  0  0
   47.8220   33.6800   42.8260 C   0  0  0  0  0  0  0  0  0  0  0  0
   48.4750   34.4160   42.3020 H   0  0  0  0  0  0  0  0  0  0  0  0
   48.4630   33.1930   43.6050 H   0  0  0  0  0  0  0  0  0  0  0  0
   47.2080   32.7260   41.8720 C   0  0  0  0  0  0  0  0  0  0  0  0
   46.1120   32.9330   41.7560 H   0  0  0  0  0  0  0  0  0  0  0  0
   47.3160   31.6870   42.1950 H   0  0  0  0  0  0  0  0  0  0  0  0
   49.1910   32.1120   38.7470 C   0  0  0  0  0  0  0  0  0  0  0  0
   48.6320   31.9520   40.0290 C   0  0  0  0  0  0  0  0  0  0  0  0
   47.7870   32.9090   40.5220 C   0  0  0  0  0  0  0  0  0  0  0  0
   47.5290   33.9720   39.7460 N   0  0  0  0  0  0  0  0  0  0  0  0
   48.0700   34.1140   38.5220 C   0  0  0  0  0  0  0  0  0  0  0  0
   48.8990   33.1940   38.0140 N   0  0  0  0  0  0  0  0  0  0  0  0
   49.8660   31.3710   38.3250 H   0  0  0  0  0  0  0  0  0  0  0  0
   48.9150   31.0620   40.5490 H   0  0  0  0  0  0  0  0  0  0  0  0
   47.7730   35.0170   38.0110 H   0  0  0  0  0  0  0  0  0  0  0  0
   46.6450   33.1120   45.3790 O   0  0  0  0  0  0  0  0  0  0  0  0
   45.3960   31.0080   44.3710 O   0  0  0  0  0  0  0  0  0  0  0  0
   46.2570   31.4830   45.5300 P   0  0  2  0  0  0  0  0  0  0  0  0
   45.2710   31.3540   46.9210 O   0  0  0  0  0  0  0  0  0  0  0  0
   45.7870   31.5110   47.7510 H   0  0  0  0  0  0  0  0  0  0  0  0
   47.6140   30.5340   45.7620 O   0  0  0  0  0  0  0  0  0  0  0  0
   48.2190   30.1470   44.5730 C   0  0  0  0  0  2  0  0  0  0  0  0
   49.4220   29.2940   44.9180 C   0  0  0  0  0  2  0  0  0  0  0  0
   49.5390   29.1610   46.0290 H   0  0  0  0  0  0  0  0  0  0  0  0
  1  6  1  0  0  0  0
  2  3  1  0  0  0  0
  2  8  1  0  0  0  0
  2  1  1  0  0  0  0
  3  4  1  0  0  0  0
  4 12  1  0  0  0  0
  4  5  1  0  0  0  0
  5 13  1  0  0  0  0
  5 14  1  0  0  0  0
  6 15  1  6  0  0  0
  6  5  1  0  0  0  0
  6 31  1  0  0  0  0
  7  2  1  0  0  0  0
  9  3  1  0  0  0  0
 10  3  1  0  0  0  0
 11  4  1  0  0  0  0
 16  1  1  0  0  0  0
 16 18  1  0  0  0  0
 17 16  1  0  0  0  0
 19 21  1  0  0  0  0
 19 16  1  0  0  0  0
 20 19  1  0  0  0  0
 22 23  1  0  0  0  0
 23 24  2  0  0  0  0
 23 29  1  0  0  0  0
 24 19  1  0  0  0  0
 25 24  1  0  0  0  0
 26 25  2  0  0  0  0
 27 26  1  0  0  0  0
 27 22  2  0  0  0  0
 28 22  1  0  0  0  0
 30 26  1  0  0  0  0
 31 33  1  0  0  0  0
 33 32  2  6  0  0  0
 33 36  1  0  0  0  0
 33 34  1  0  0  0  0
 34 35  1  0  0  0  0
 37 38  1  0  0  0  0
 37 36  1  0  0  0  0
 38 39  1  0  0  0  0
M  END
>  <minimizedAffinity>
-3.77780628

>  <minimizedRMSD>
0.744460762

$$$$
