
 OpenBabel03252508593D

 39 40  0  0  1  0  0  0  0  0999 V2000
   46.7960   34.4130   43.4990 N   0  0  0  0  0  0  0  0  0  0  0  0
   46.3460   35.5550   42.7900 C   0  0  0  0  0  0  0  0  0  0  0  0
   44.8570   35.8210   42.8520 C   0  0  0  0  0  0  0  0  0  0  0  0
   44.2160   35.4080   44.1440 C   0  0  0  0  0  0  0  0  0  0  0  0
   45.2260   34.8970   45.1440 C   0  0  0  0  0  0  0  0  0  0  0  0
   45.9500   33.7410   44.3650 C   0  0  2  0  0  0  0  0  0  0  0  0
   46.6480   35.6240   41.7420 H   0  0  0  0  0  0  0  0  0  0  0  0
   46.8300   36.4490   43.2840 H   0  0  0  0  0  0  0  0  0  0  0  0
   44.7100   36.9020   42.6540 H   0  0  0  0  0  0  0  0  0  0  0  0
   44.4040   35.2810   42.0030 H   0  0  0  0  0  0  0  0  0  0  0  0
   43.4750   34.5840   43.9370 H   0  0  0  0  0  0  0  0  0  0  0  0
   43.6500   36.2440   44.5620 H   0  0  0  0  0  0  0  0  0  0  0  0
   45.9400   35.6920   45.3570 H   0  0  0  0  0  0  0  0  0  0  0  0
   44.7090   34.4770   46.0090 H   0  0  0  0  0  0  0  0  0  0  0  0
   45.1180   33.1400   43.9440 H   0  0  0  0  0  0  0  0  0  0  0  0
   47.8280   33.6740   42.8310 C   0  0  0  0  0  0  0  0  0  0  0  0
   48.4820   34.4090   42.3060 H   0  0  0  0  0  0  0  0  0  0  0  0
   48.4690   33.1880   43.6110 H   0  0  0  0  0  0  0  0  0  0  0  0
   47.2140   32.7200   41.8780 C   0  0  0  0  0  0  0  0  0  0  0  0
   46.1180   32.9240   41.7640 H   0  0  0  0  0  0  0  0  0  0  0  0
   47.3250   31.6810   42.1990 H   0  0  0  0  0  0  0  0  0  0  0  0
   49.1890   32.1100   38.7460 C   0  0  0  0  0  0  0  0  0  0  0  0
   48.6330   31.9480   40.0290 C   0  0  0  0  0  0  0  0  0  0  0  0
   47.7890   32.9040   40.5260 C   0  0  0  0  0  0  0  0  0  0  0  0
   47.5300   33.9680   39.7520 N   0  0  0  0  0  0  0  0  0  0  0  0
   48.0670   34.1130   38.5270 C   0  0  0  0  0  0  0  0  0  0  0  0
   48.8950   33.1930   38.0160 N   0  0  0  0  0  0  0  0  0  0  0  0
   49.8630   31.3690   38.3210 H   0  0  0  0  0  0  0  0  0  0  0  0
   48.9180   31.0570   40.5470 H   0  0  0  0  0  0  0  0  0  0  0  0
   47.7690   35.0170   38.0190 H   0  0  0  0  0  0  0  0  0  0  0  0
   46.6500   33.1090   45.3840 O   0  0  0  0  0  0  0  0  0  0  0  0
   45.4000   31.0030   44.3830 O   0  0  0  0  0  0  0  0  0  0  0  0
   46.2520   31.4840   45.5460 P   0  0  2  0  0  0  0  0  0  0  0  0
   45.2510   31.3740   46.9290 O   0  0  0  0  0  0  0  0  0  0  0  0
   45.7590   31.5360   47.7620 H   0  0  0  0  0  0  0  0  0  0  0  0
   47.6000   30.5300   45.8010 O   0  0  0  0  0  0  0  0  0  0  0  0
   48.2480   30.1750   44.6250 C   0  0  0  0  0  2  0  0  0  0  0  0
   48.1350   28.6730   44.4650 C   0  0  0  0  0  2  0  0  0  0  0  0
   47.5550   28.2020   45.3080 H   0  0  0  0  0  0  0  0  0  0  0  0
  1  6  1  0  0  0  0
  2  3  1  0  0  0  0
  2  8  1  0  0  0  0
  2  1  1  0  0  0  0
  3  4  1  0  0  0  0
  4 12  1  0  0  0  0
  4  5  1  0  0  0  0
  5 13  1  0  0  0  0
  5 14  1  0  0  0  0
  6 15  1  6  0  0  0
  6  5  1  0  0  0  0
  6 31  1  0  0  0  0
  7  2  1  0  0  0  0
  9  3  1  0  0  0  0
 10  3  1  0  0  0  0
 11  4  1  0  0  0  0
 16  1  1  0  0  0  0
 16 18  1  0  0  0  0
 17 16  1  0  0  0  0
 19 21  1  0  0  0  0
 19 16  1  0  0  0  0
 20 19  1  0  0  0  0
 22 23  1  0  0  0  0
 23 24  2  0  0  0  0
 23 29  1  0  0  0  0
 24 19  1  0  0  0  0
 25 24  1  0  0  0  0
 26 25  2  0  0  0  0
 27 26  1  0  0  0  0
 27 22  2  0  0  0  0
 28 22  1  0  0  0  0
 30 26  1  0  0  0  0
 31 33  1  0  0  0  0
 33 32  2  6  0  0  0
 33 36  1  0  0  0  0
 33 34  1  0  0  0  0
 34 35  1  0  0  0  0
 37 36  1  0  0  0  0
 38 37  1  0  0  0  0
 38 39  1  0  0  0  0
M  END
>  <minimizedAffinity>
-3.71929407

>  <minimizedRMSD>
0.662355959

$$$$
