
 OpenBabel03242515553D

 31 33  0  0  0  0  0  0  0  0999 V2000
   46.0040   32.6840   46.6890 C   0  0  0  0  0  0  0  0  0  0  0  0
   45.4680   32.9000   47.9850 C   0  0  0  0  0  0  0  0  0  0  0  0
   45.6500   32.0380   49.0370 C   0  0  0  0  0  0  0  0  0  0  0  0
   46.3680   30.9120   48.8820 C   0  0  0  0  0  0  0  0  0  0  0  0
   46.9240   30.6400   47.6270 C   0  0  0  0  0  0  0  0  0  0  0  0
   47.6430   29.4880   47.5120 C   0  0  0  0  0  0  0  0  0  0  0  0
   48.2070   29.1650   46.3140 C   0  0  0  0  0  0  0  0  0  0  0  0
   48.0070   30.0410   45.2750 C   0  0  0  0  0  0  0  0  0  0  0  0
   47.2850   31.1640   45.4570 C   0  0  0  0  0  0  0  0  0  0  0  0
   46.7190   31.5180   46.6110 C   0  0  0  0  0  0  0  0  0  0  0  0
   44.8800   33.7870   48.1740 H   0  0  0  0  0  0  0  0  0  0  0  0
   45.2120   32.2650   49.9990 H   0  0  0  0  0  0  0  0  0  0  0  0
   46.5060   30.2400   49.7170 H   0  0  0  0  0  0  0  0  0  0  0  0
   47.7620   28.8260   48.3930 H   0  0  0  0  0  0  0  0  0  0  0  0
   48.7710   28.2140   46.3160 H   0  0  0  0  0  0  0  0  0  0  0  0
   48.5290   29.6230   44.3950 H   0  0  0  0  0  0  0  0  0  0  0  0
   44.5040   35.5320   45.0990 C   0  0  0  0  0  0  0  0  0  0  0  0
   45.2120   35.6140   43.8620 C   0  0  0  0  0  0  0  0  0  0  0  0
   46.2240   34.6580   43.5660 C   0  0  0  0  0  0  0  0  0  0  0  0
   46.4500   33.7210   44.4960 N   0  0  0  0  0  0  0  0  0  0  0  0
   45.8160   33.6330   45.6250 C   0  0  0  0  0  0  0  0  0  0  0  0
   44.8420   34.5460   45.9180 N   0  0  0  0  0  0  0  0  0  0  0  0
   43.7360   36.2600   45.3180 H   0  0  0  0  0  0  0  0  0  0  0  0
   46.7000   34.7970   42.6210 H   0  0  0  0  0  0  0  0  0  0  0  0
   44.8290   36.6780   43.0160 N   0  0  0  0  0  0  0  0  0  0  0  0
   44.0880   36.7820   42.2990 H   0  0  0  0  0  0  0  0  0  0  0  0
   45.5320   37.3910   43.3130 H   0  0  0  0  0  0  0  0  0  0  0  0
   47.2550   31.8260   44.2670 O   0  0  0  0  0  0  0  0  0  0  0  0
   47.8740   31.3590   43.0720 C   0  0  0  0  0  0  0  0  0  0  0  0
   48.9500   32.2140   42.5300 C   0  0  0  0  0  0  0  0  0  0  0  0
   48.6070   33.2630   42.4460 H   0  0  0  0  0  0  0  0  0  0  0  0
  1  2  1  0  0  0  0
  2 11  1  0  0  0  0
  2  3  2  0  0  0  0
  3 12  1  0  0  0  0
  4  3  1  0  0  0  0
  4 13  1  0  0  0  0
  5  4  2  0  0  0  0
  6  5  1  0  0  0  0
  6 14  1  0  0  0  0
  7 15  1  0  0  0  0
  7  6  2  0  0  0  0
  8  9  2  0  0  0  0
  8  7  1  0  0  0  0
  9 10  1  0  0  0  0
 10  1  2  0  0  0  0
 10  5  1  0  0  0  0
 16  8  1  0  0  0  0
 17 23  1  0  0  0  0
 17 22  1  0  0  0  0
 18 17  2  0  0  0  0
 19 18  1  0  0  0  0
 19 20  2  0  0  0  0
 20 21  1  0  0  0  0
 21 22  2  0  0  0  0
 21  1  1  0  0  0  0
 24 19  1  0  0  0  0
 25 27  1  0  0  0  0
 25 18  1  0  0  0  0
 26 25  1  0  0  0  0
 28  9  1  0  0  0  0
 29 28  1  0  0  0  0
 30 29  1  0  0  0  0
 31 30  1  0  0  0  0
M  END
>  <minimizedAffinity>
-5.43676662

>  <minimizedRMSD>
0.073653698

$$$$
