
 OpenBabel03242515113D

 30 31  0  0  0  0  0  0  0  0999 V2000
   36.6540   30.5310   39.3520 C   0  0  0  0  0  0  0  0  0  0  0  0
   36.4240   30.3690   38.0100 C   0  0  0  0  0  0  0  0  0  0  0  0
   35.6410   29.3620   37.4690 C   0  0  0  0  0  0  0  0  0  0  0  0
   35.0590   28.4700   38.3150 C   0  0  0  0  0  0  0  0  0  0  0  0
   35.2600   28.5930   39.6630 C   0  0  0  0  0  0  0  0  0  0  0  0
   36.0490   29.6110   40.1780 C   0  0  0  0  0  0  0  0  0  0  0  0
   36.8780   31.0680   37.3170 H   0  0  0  0  0  0  0  0  0  0  0  0
   35.5090   29.3020   36.4010 H   0  0  0  0  0  0  0  0  0  0  0  0
   34.4440   27.6820   37.8700 H   0  0  0  0  0  0  0  0  0  0  0  0
   34.7730   27.8580   40.2860 H   0  0  0  0  0  0  0  0  0  0  0  0
   37.9310   33.9120   39.9140 C   0  0  0  0  0  0  0  0  0  0  0  0
   38.9940   33.7190   40.7760 C   0  0  0  0  0  0  0  0  0  0  0  0
   39.2790   32.4190   41.1720 C   0  0  0  0  0  0  0  0  0  0  0  0
   38.5250   31.3740   40.7150 N   0  0  0  0  0  0  0  0  0  0  0  0
   37.4840   31.6070   39.8640 C   0  0  0  0  0  0  0  0  0  0  0  0
   37.2190   32.8640   39.4910 N   0  0  0  0  0  0  0  0  0  0  0  0
   37.6740   34.9260   39.5780 H   0  0  0  0  0  0  0  0  0  0  0  0
   39.6000   34.5240   41.1470 H   0  0  0  0  0  0  0  0  0  0  0  0
   40.0950   32.1550   41.8500 H   0  0  0  0  0  0  0  0  0  0  0  0
   36.1640   29.6080   41.5890 N   0  0  0  0  0  0  0  0  0  0  0  0
   35.5270   30.3190   42.0220 H   0  0  0  0  0  0  0  0  0  0  0  0
   37.1140   28.6890   42.6660 S   0  0  0  0  0  0  0  0  0  0  0  0
   38.0850   29.6120   43.3750 O   0  0  0  0  0  0  0  0  0  0  0  0
   37.9550   30.0530   44.2500 H   0  0  0  0  0  0  0  0  0  0  0  0
   36.3250   27.9270   43.6790 O   0  0  0  0  0  0  0  0  0  0  0  0
   36.6390   27.8230   44.6090 H   0  0  0  0  0  0  0  0  0  0  0  0
   38.0600   27.6650   41.7060 O   0  0  0  0  0  0  0  0  0  0  0  0
   37.6850   26.3660   42.0150 C   0  0  0  0  0  2  0  0  0  0  0  0
   37.0700   25.6510   40.8290 C   0  0  0  0  0  2  0  0  0  0  0  0
   37.1570   24.5610   41.0070 H   0  0  0  0  0  0  0  0  0  0  0  0
  1 15  1  0  0  0  0
  1  6  1  0  0  0  0
  2  1  2  0  0  0  0
  3  2  1  0  0  0  0
  3  4  2  0  0  0  0
  4  5  1  0  0  0  0
  5  6  2  0  0  0  0
  5 10  1  0  0  0  0
  6 20  1  0  0  0  0
  7  2  1  0  0  0  0
  8  3  1  0  0  0  0
  9  4  1  0  0  0  0
 11 12  1  0  0  0  0
 12 18  1  0  0  0  0
 12 13  2  0  0  0  0
 13 19  1  0  0  0  0
 14 13  1  0  0  0  0
 15 14  2  0  0  0  0
 16 15  1  0  0  0  0
 16 11  2  0  0  0  0
 17 11  1  0  0  0  0
 20 21  1  0  0  0  0
 20 22  1  0  0  0  0
 22 23  1  0  0  0  0
 22 25  1  0  0  0  0
 23 24  1  0  0  0  0
 25 26  1  0  0  0  0
 27 28  1  0  0  0  0
 27 22  1  0  0  0  0
 29 30  1  0  0  0  0
 29 28  1  0  0  0  0
M  END
>  <minimizedAffinity>
-5.1547637

$$$$

 OpenBabel03242515113D

 30 31  0  0  0  0  0  0  0  0999 V2000
   37.5930   26.2950   41.7170 C   0  0  0  0  0  0  0  0  0  0  0  0
   38.7590   25.8450   42.2800 C   0  0  0  0  0  0  0  0  0  0  0  0
   39.4740   26.5340   43.2470 C   0  0  0  0  0  0  0  0  0  0  0  0
   38.9970   27.7340   43.6720 C   0  0  0  0  0  0  0  0  0  0  0  0
   37.8350   28.2220   43.1380 C   0  0  0  0  0  0  0  0  0  0  0  0
   37.1400   27.5120   42.1710 C   0  0  0  0  0  0  0  0  0  0  0  0
   39.1590   24.8910   41.9570 H   0  0  0  0  0  0  0  0  0  0  0  0
   40.3850   26.1130   43.6410 H   0  0  0  0  0  0  0  0  0  0  0  0
   39.5740   28.2640   44.4360 H   0  0  0  0  0  0  0  0  0  0  0  0
   37.5040   29.1790   43.5130 H   0  0  0  0  0  0  0  0  0  0  0  0
   35.9040   25.4970   38.5720 C   0  0  0  0  0  0  0  0  0  0  0  0
   35.5430   24.1710   38.7240 C   0  0  0  0  0  0  0  0  0  0  0  0
   35.8800   23.5410   39.9140 C   0  0  0  0  0  0  0  0  0  0  0  0
   36.5460   24.2210   40.8950 N   0  0  0  0  0  0  0  0  0  0  0  0
   36.8850   25.5290   40.7060 C   0  0  0  0  0  0  0  0  0  0  0  0
   36.5550   26.1260   39.5550 N   0  0  0  0  0  0  0  0  0  0  0  0
   35.6560   26.0310   37.6440 H   0  0  0  0  0  0  0  0  0  0  0  0
   35.0190   23.6180   37.9670 H   0  0  0  0  0  0  0  0  0  0  0  0
   35.6430   22.4970   40.1370 H   0  0  0  0  0  0  0  0  0  0  0  0
   35.9580   28.1450   41.7150 N   0  0  0  0  0  0  0  0  0  0  0  0
   35.1040   27.6330   42.0440 H   0  0  0  0  0  0  0  0  0  0  0  0
   35.6880   29.5340   40.7650 S   0  0  0  0  0  0  0  0  0  0  0  0
   34.3600   29.3900   40.0490 O   0  0  0  0  0  0  0  0  0  0  0  0
   33.4800   29.7240   40.3530 H   0  0  0  0  0  0  0  0  0  0  0  0
   35.6970   30.8130   41.5370 O   0  0  0  0  0  0  0  0  0  0  0  0
   35.0780   31.5500   41.3240 H   0  0  0  0  0  0  0  0  0  0  0  0
   36.8740   29.5200   39.5570 O   0  0  0  0  0  0  0  0  0  0  0  0
   37.5540   30.7250   39.6490 C   0  0  0  0  0  2  0  0  0  0  0  0
   37.2550   31.6410   38.4790 C   0  0  0  0  0  2  0  0  0  0  0  0
   37.4900   32.6770   38.7890 H   0  0  0  0  0  0  0  0  0  0  0  0
  1  6  2  0  0  0  0
  1  2  1  0  0  0  0
  2  3  2  0  0  0  0
  3  8  1  0  0  0  0
  3  4  1  0  0  0  0
  4  9  1  0  0  0  0
  5 10  1  0  0  0  0
  5  4  2  0  0  0  0
  6  5  1  0  0  0  0
  7  2  1  0  0  0  0
 11 12  2  0  0  0  0
 11 16  1  0  0  0  0
 12 13  1  0  0  0  0
 13 19  1  0  0  0  0
 13 14  2  0  0  0  0
 15 14  1  0  0  0  0
 15  1  1  0  0  0  0
 16 15  2  0  0  0  0
 17 11  1  0  0  0  0
 18 12  1  0  0  0  0
 20 21  1  0  0  0  0
 20  6  1  0  0  0  0
 22 25  1  0  0  0  0
 22 20  1  0  0  0  0
 23 24  1  0  0  0  0
 23 22  1  0  0  0  0
 26 25  1  0  0  0  0
 27 28  1  0  0  0  0
 27 22  1  0  0  0  0
 29 30  1  0  0  0  0
 29 28  1  0  0  0  0
M  END
>  <minimizedAffinity>
-5.14110804

$$$$

 OpenBabel03242515113D

 30 31  0  0  0  0  0  0  0  0999 V2000
   37.3570   31.5940   39.8780 C   0  0  0  0  0  0  0  0  0  0  0  0
   37.2220   32.9260   39.5830 C   0  0  0  0  0  0  0  0  0  0  0  0
   38.0870   33.9140   40.0260 C   0  0  0  0  0  0  0  0  0  0  0  0
   39.1420   33.5500   40.8040 C   0  0  0  0  0  0  0  0  0  0  0  0
   39.3160   32.2300   41.1230 C   0  0  0  0  0  0  0  0  0  0  0  0
   38.4340   31.2620   40.6670 C   0  0  0  0  0  0  0  0  0  0  0  0
   36.3890   33.2400   38.9650 H   0  0  0  0  0  0  0  0  0  0  0  0
   37.9130   34.9410   39.7510 H   0  0  0  0  0  0  0  0  0  0  0  0
   39.8140   34.3420   41.1440 H   0  0  0  0  0  0  0  0  0  0  0  0
   40.1690   32.0000   41.7430 H   0  0  0  0  0  0  0  0  0  0  0  0
   34.6710   29.1100   39.8780 C   0  0  0  0  0  0  0  0  0  0  0  0
   34.6000   28.7080   38.5580 C   0  0  0  0  0  0  0  0  0  0  0  0
   35.4780   29.2930   37.6550 C   0  0  0  0  0  0  0  0  0  0  0  0
   36.3790   30.2310   38.0730 N   0  0  0  0  0  0  0  0  0  0  0  0
   36.4180   30.6010   39.3860 C   0  0  0  0  0  0  0  0  0  0  0  0
   35.5660   30.0310   40.2460 N   0  0  0  0  0  0  0  0  0  0  0  0
   33.9930   28.6720   40.6240 H   0  0  0  0  0  0  0  0  0  0  0  0
   33.9000   27.9730   38.2080 H   0  0  0  0  0  0  0  0  0  0  0  0
   35.5070   29.0480   36.5900 H   0  0  0  0  0  0  0  0  0  0  0  0
   38.7450   29.9430   41.0800 N   0  0  0  0  0  0  0  0  0  0  0  0
   39.5370   29.5480   40.5190 H   0  0  0  0  0  0  0  0  0  0  0  0
   38.0870   28.9270   42.2800 S   0  0  0  0  0  0  0  0  0  0  0  0
   39.1870   28.5300   43.2450 O   0  0  0  0  0  0  0  0  0  0  0  0
   39.4210   28.9750   44.0950 H   0  0  0  0  0  0  0  0  0  0  0  0
   36.9550   29.5350   43.0420 O   0  0  0  0  0  0  0  0  0  0  0  0
   36.8400   29.3800   44.0100 H   0  0  0  0  0  0  0  0  0  0  0  0
   37.6210   27.5040   41.4910 O   0  0  0  0  0  0  0  0  0  0  0  0
   37.0280   26.6920   42.4470 C   0  0  0  0  0  2  0  0  0  0  0  0
   37.1820   25.2200   42.1210 C   0  0  0  0  0  2  0  0  0  0  0  0
   37.0540   24.6480   43.0600 H   0  0  0  0  0  0  0  0  0  0  0  0
  1  6  1  0  0  0  0
  2  1  2  0  0  0  0
  2  3  1  0  0  0  0
  3  4  2  0  0  0  0
  4  5  1  0  0  0  0
  4  9  1  0  0  0  0
  5 10  1  0  0  0  0
  6 20  1  0  0  0  0
  6  5  2  0  0  0  0
  7  2  1  0  0  0  0
  8  3  1  0  0  0  0
 11 16  1  0  0  0  0
 11 17  1  0  0  0  0
 12 11  2  0  0  0  0
 13 14  2  0  0  0  0
 13 12  1  0  0  0  0
 14 15  1  0  0  0  0
 15  1  1  0  0  0  0
 15 16  2  0  0  0  0
 18 12  1  0  0  0  0
 19 13  1  0  0  0  0
 20 22  1  0  0  0  0
 21 20  1  0  0  0  0
 22 25  1  0  0  0  0
 22 23  1  0  0  0  0
 23 24  1  0  0  0  0
 25 26  1  0  0  0  0
 27 22  1  0  0  0  0
 27 28  1  0  0  0  0
 29 28  1  0  0  0  0
 29 30  1  0  0  0  0
M  END
>  <minimizedAffinity>
-5.10532331

$$$$

 OpenBabel03242515113D

 30 31  0  0  0  0  0  0  0  0999 V2000
   38.2990   31.0090   41.3190 C   0  0  0  0  0  0  0  0  0  0  0  0
   39.3840   31.8250   41.1310 C   0  0  0  0  0  0  0  0  0  0  0  0
   39.3540   33.0080   40.4100 C   0  0  0  0  0  0  0  0  0  0  0  0
   38.1770   33.3940   39.8470 C   0  0  0  0  0  0  0  0  0  0  0  0
   37.0670   32.6100   40.0100 C   0  0  0  0  0  0  0  0  0  0  0  0
   37.1250   31.4300   40.7360 C   0  0  0  0  0  0  0  0  0  0  0  0
   40.3330   31.5380   41.5690 H   0  0  0  0  0  0  0  0  0  0  0  0
   40.2520   33.5950   40.3070 H   0  0  0  0  0  0  0  0  0  0  0  0
   38.1720   34.3300   39.2820 H   0  0  0  0  0  0  0  0  0  0  0  0
   36.1610   32.9650   39.5420 H   0  0  0  0  0  0  0  0  0  0  0  0
   39.6620   27.8910   42.6620 C   0  0  0  0  0  0  0  0  0  0  0  0
   38.6600   27.4300   43.4950 C   0  0  0  0  0  0  0  0  0  0  0  0
   37.5050   28.1930   43.6010 C   0  0  0  0  0  0  0  0  0  0  0  0
   37.3750   29.3580   42.8980 N   0  0  0  0  0  0  0  0  0  0  0  0
   38.3880   29.7780   42.0850 C   0  0  0  0  0  0  0  0  0  0  0  0
   39.4960   29.0350   41.9920 N   0  0  0  0  0  0  0  0  0  0  0  0
   40.5920   27.3160   42.5500 H   0  0  0  0  0  0  0  0  0  0  0  0
   38.7400   26.5180   44.0560 H   0  0  0  0  0  0  0  0  0  0  0  0
   36.6520   27.9210   44.2300 H   0  0  0  0  0  0  0  0  0  0  0  0
   35.8980   30.7280   40.8150 N   0  0  0  0  0  0  0  0  0  0  0  0
   35.2980   31.1010   41.5900 H   0  0  0  0  0  0  0  0  0  0  0  0
   35.2480   29.4370   39.9100 S   0  0  0  0  0  0  0  0  0  0  0  0
   35.9060   28.1460   40.3540 O   0  0  0  0  0  0  0  0  0  0  0  0
   35.5740   27.5130   41.0380 H   0  0  0  0  0  0  0  0  0  0  0  0
   33.7650   29.3000   40.0200 O   0  0  0  0  0  0  0  0  0  0  0  0
   33.3280   28.4160   40.0530 H   0  0  0  0  0  0  0  0  0  0  0  0
   35.7400   29.6860   38.3100 O   0  0  0  0  0  0  0  0  0  0  0  0
   36.8440   28.8730   38.0990 C   0  0  0  0  0  2  0  0  0  0  0  0
   38.0730   29.6690   37.7060 C   0  0  0  0  0  2  0  0  0  0  0  0
   38.9640   29.0520   37.9310 H   0  0  0  0  0  0  0  0  0  0  0  0
  1 15  1  0  0  0  0
  2  1  1  0  0  0  0
  2  7  1  0  0  0  0
  3  2  2  0  0  0  0
  4  5  2  0  0  0  0
  4  3  1  0  0  0  0
  5  6  1  0  0  0  0
  6 20  1  0  0  0  0
  6  1  2  0  0  0  0
  8  3  1  0  0  0  0
  9  4  1  0  0  0  0
 10  5  1  0  0  0  0
 11 12  1  0  0  0  0
 12 13  2  0  0  0  0
 12 18  1  0  0  0  0
 13 19  1  0  0  0  0
 14 13  1  0  0  0  0
 15 14  2  0  0  0  0
 16 15  1  0  0  0  0
 16 11  2  0  0  0  0
 17 11  1  0  0  0  0
 20 21  1  0  0  0  0
 22 25  1  0  0  0  0
 22 23  1  0  0  0  0
 22 20  1  0  0  0  0
 23 24  1  0  0  0  0
 25 26  1  0  0  0  0
 27 22  1  0  0  0  0
 28 27  1  0  0  0  0
 29 30  1  0  0  0  0
 29 28  1  0  0  0  0
M  END
>  <minimizedAffinity>
-4.97035074

$$$$

 OpenBabel03242515113D

 30 31  0  0  0  0  0  0  0  0999 V2000
   36.5390   28.0540   39.3910 C   0  0  0  0  0  0  0  0  0  0  0  0
   35.8650   27.0430   38.7590 C   0  0  0  0  0  0  0  0  0  0  0  0
   35.1850   27.1890   37.5600 C   0  0  0  0  0  0  0  0  0  0  0  0
   35.1800   28.4120   36.9640 C   0  0  0  0  0  0  0  0  0  0  0  0
   35.8420   29.4520   37.5590 C   0  0  0  0  0  0  0  0  0  0  0  0
   36.5140   29.2770   38.7600 C   0  0  0  0  0  0  0  0  0  0  0  0
   35.8540   26.0590   39.2150 H   0  0  0  0  0  0  0  0  0  0  0  0
   34.6770   26.3430   37.1260 H   0  0  0  0  0  0  0  0  0  0  0  0
   34.6390   28.5090   36.0190 H   0  0  0  0  0  0  0  0  0  0  0  0
   35.8040   30.3980   37.0410 H   0  0  0  0  0  0  0  0  0  0  0  0
   39.1680   27.0690   41.7370 C   0  0  0  0  0  0  0  0  0  0  0  0
   38.6420   27.4010   42.9720 C   0  0  0  0  0  0  0  0  0  0  0  0
   37.3760   27.9690   43.0050 C   0  0  0  0  0  0  0  0  0  0  0  0
   36.6820   28.1860   41.8480 N   0  0  0  0  0  0  0  0  0  0  0  0
   37.2360   27.8430   40.6490 C   0  0  0  0  0  0  0  0  0  0  0  0
   38.4570   27.2970   40.6290 N   0  0  0  0  0  0  0  0  0  0  0  0
   40.1670   26.6170   41.6690 H   0  0  0  0  0  0  0  0  0  0  0  0
   39.1690   27.2390   43.8940 H   0  0  0  0  0  0  0  0  0  0  0  0
   36.8680   28.2690   43.9260 H   0  0  0  0  0  0  0  0  0  0  0  0
   37.1490   30.4430   39.2520 N   0  0  0  0  0  0  0  0  0  0  0  0
   37.9370   30.7360   38.6270 H   0  0  0  0  0  0  0  0  0  0  0  0
   36.8700   31.4150   40.6240 S   0  0  0  0  0  0  0  0  0  0  0  0
   36.7630   32.8630   40.1880 O   0  0  0  0  0  0  0  0  0  0  0  0
   35.9360   33.3590   39.9700 H   0  0  0  0  0  0  0  0  0  0  0  0
   35.6500   31.0400   41.4000 O   0  0  0  0  0  0  0  0  0  0  0  0
   35.0710   31.7230   41.8150 H   0  0  0  0  0  0  0  0  0  0  0  0
   38.2710   31.3140   41.5690 O   0  0  0  0  0  0  0  0  0  0  0  0
   39.2860   30.8730   40.7340 C   0  0  0  0  0  2  0  0  0  0  0  0
   40.5880   31.6090   40.9770 C   0  0  0  0  0  2  0  0  0  0  0  0
   41.4130   30.9790   40.5920 H   0  0  0  0  0  0  0  0  0  0  0  0
  1 15  1  0  0  0  0
  2  7  1  0  0  0  0
  2  1  2  0  0  0  0
  3  2  1  0  0  0  0
  4  5  1  0  0  0  0
  4  3  2  0  0  0  0
  5  6  2  0  0  0  0
  6 20  1  0  0  0  0
  6  1  1  0  0  0  0
  8  3  1  0  0  0  0
  9  4  1  0  0  0  0
 10  5  1  0  0  0  0
 11 12  1  0  0  0  0
 12 13  2  0  0  0  0
 12 18  1  0  0  0  0
 13 19  1  0  0  0  0
 14 13  1  0  0  0  0
 15 14  2  0  0  0  0
 16 15  1  0  0  0  0
 16 11  2  0  0  0  0
 17 11  1  0  0  0  0
 20 22  1  0  0  0  0
 21 20  1  0  0  0  0
 22 25  1  0  0  0  0
 22 27  1  0  0  0  0
 23 22  1  0  0  0  0
 24 23  1  0  0  0  0
 25 26  1  0  0  0  0
 28 29  1  0  0  0  0
 28 27  1  0  0  0  0
 30 29  1  0  0  0  0
M  END
>  <minimizedAffinity>
-4.88329172

$$$$

 OpenBabel03242515113D

 30 31  0  0  0  0  0  0  0  0999 V2000
   36.5290   28.1270   41.1480 C   0  0  0  0  0  0  0  0  0  0  0  0
   36.9500   26.9520   41.7150 C   0  0  0  0  0  0  0  0  0  0  0  0
   37.6890   26.8710   42.8840 C   0  0  0  0  0  0  0  0  0  0  0  0
   38.0240   28.0260   43.5190 C   0  0  0  0  0  0  0  0  0  0  0  0
   37.6240   29.2240   42.9900 C   0  0  0  0  0  0  0  0  0  0  0  0
   36.8860   29.2760   41.8170 C   0  0  0  0  0  0  0  0  0  0  0  0
   36.6950   26.0180   41.2260 H   0  0  0  0  0  0  0  0  0  0  0  0
   37.9830   25.9070   43.2660 H   0  0  0  0  0  0  0  0  0  0  0  0
   38.6070   27.9430   44.4410 H   0  0  0  0  0  0  0  0  0  0  0  0
   37.9190   30.1070   43.5370 H   0  0  0  0  0  0  0  0  0  0  0  0
   35.4510   27.3000   37.7520 C   0  0  0  0  0  0  0  0  0  0  0  0
   34.3570   28.1210   37.5490 C   0  0  0  0  0  0  0  0  0  0  0  0
   33.9820   28.9660   38.5850 C   0  0  0  0  0  0  0  0  0  0  0  0
   34.6800   28.9780   39.7590 N   0  0  0  0  0  0  0  0  0  0  0  0
   35.7550   28.1530   39.9190 C   0  0  0  0  0  0  0  0  0  0  0  0
   36.1070   27.3420   38.9150 N   0  0  0  0  0  0  0  0  0  0  0  0
   35.7800   26.6170   36.9570 H   0  0  0  0  0  0  0  0  0  0  0  0
   33.7940   28.1290   36.6350 H   0  0  0  0  0  0  0  0  0  0  0  0
   33.1330   29.6550   38.5300 H   0  0  0  0  0  0  0  0  0  0  0  0
   36.5470   30.5840   41.3950 N   0  0  0  0  0  0  0  0  0  0  0  0
   35.7210   30.9510   41.9240 H   0  0  0  0  0  0  0  0  0  0  0  0
   37.2190   31.6260   40.2250 S   0  0  0  0  0  0  0  0  0  0  0  0
   36.6810   31.2450   38.8600 O   0  0  0  0  0  0  0  0  0  0  0  0
   35.8950   31.6320   38.4010 H   0  0  0  0  0  0  0  0  0  0  0  0
   36.9550   33.0750   40.4740 O   0  0  0  0  0  0  0  0  0  0  0  0
   36.7710   33.7020   39.7350 H   0  0  0  0  0  0  0  0  0  0  0  0
   38.8770   31.2870   40.1840 O   0  0  0  0  0  0  0  0  0  0  0  0
   39.0950   30.4870   39.0720 C   0  0  0  0  0  2  0  0  0  0  0  0
   39.6850   29.1410   39.4430 C   0  0  0  0  0  2  0  0  0  0  0  0
   39.4740   28.4380   38.6150 H   0  0  0  0  0  0  0  0  0  0  0  0
  1  2  2  0  0  0  0
  1  6  1  0  0  0  0
  2  3  1  0  0  0  0
  3  8  1  0  0  0  0
  3  4  2  0  0  0  0
  4  9  1  0  0  0  0
  5  4  1  0  0  0  0
  5 10  1  0  0  0  0
  6  5  2  0  0  0  0
  7  2  1  0  0  0  0
 11 16  1  0  0  0  0
 12 11  2  0  0  0  0
 12 13  1  0  0  0  0
 13 14  2  0  0  0  0
 14 15  1  0  0  0  0
 15  1  1  0  0  0  0
 16 15  2  0  0  0  0
 17 11  1  0  0  0  0
 18 12  1  0  0  0  0
 19 13  1  0  0  0  0
 20  6  1  0  0  0  0
 20 21  1  0  0  0  0
 22 25  1  0  0  0  0
 22 20  1  0  0  0  0
 23 22  1  0  0  0  0
 24 23  1  0  0  0  0
 26 25  1  0  0  0  0
 27 22  1  0  0  0  0
 28 29  1  0  0  0  0
 28 27  1  0  0  0  0
 30 29  1  0  0  0  0
M  END
>  <minimizedAffinity>
-4.88229942

$$$$

 OpenBabel03242515113D

 30 31  0  0  0  0  0  0  0  0999 V2000
   37.3630   27.7360   41.4410 C   0  0  0  0  0  0  0  0  0  0  0  0
   37.5530   26.4200   41.7750 C   0  0  0  0  0  0  0  0  0  0  0  0
   38.4080   25.9850   42.7750 C   0  0  0  0  0  0  0  0  0  0  0  0
   39.1100   26.9150   43.4770 C   0  0  0  0  0  0  0  0  0  0  0  0
   38.9520   28.2410   43.1780 C   0  0  0  0  0  0  0  0  0  0  0  0
   38.0900   28.6490   42.1710 C   0  0  0  0  0  0  0  0  0  0  0  0
   37.0040   25.6600   41.2300 H   0  0  0  0  0  0  0  0  0  0  0  0
   38.5020   24.9300   42.9780 H   0  0  0  0  0  0  0  0  0  0  0  0
   39.7790   26.5530   44.2620 H   0  0  0  0  0  0  0  0  0  0  0  0
   39.5340   28.9340   43.7670 H   0  0  0  0  0  0  0  0  0  0  0  0
   34.4470   29.2070   39.7940 C   0  0  0  0  0  0  0  0  0  0  0  0
   34.6610   28.9390   38.4550 C   0  0  0  0  0  0  0  0  0  0  0  0
   35.8150   28.2480   38.1090 C   0  0  0  0  0  0  0  0  0  0  0  0
   36.7000   27.8510   39.0710 N   0  0  0  0  0  0  0  0  0  0  0  0
   36.4520   28.1350   40.3820 C   0  0  0  0  0  0  0  0  0  0  0  0
   35.3380   28.8010   40.7030 N   0  0  0  0  0  0  0  0  0  0  0  0
   33.5460   29.7510   40.1080 H   0  0  0  0  0  0  0  0  0  0  0  0
   33.9780   29.2400   37.6820 H   0  0  0  0  0  0  0  0  0  0  0  0
   36.0800   27.9850   37.0810 H   0  0  0  0  0  0  0  0  0  0  0  0
   38.0330   30.0510   41.9790 N   0  0  0  0  0  0  0  0  0  0  0  0
   37.1100   30.4380   42.2880 H   0  0  0  0  0  0  0  0  0  0  0  0
   39.1560   31.1740   41.3590 S   0  0  0  0  0  0  0  0  0  0  0  0
   39.9740   31.7350   42.5050 O   0  0  0  0  0  0  0  0  0  0  0  0
   40.8490   31.4070   42.8280 H   0  0  0  0  0  0  0  0  0  0  0  0
   40.0740   30.6120   40.3240 O   0  0  0  0  0  0  0  0  0  0  0  0
   41.0230   30.8790   40.2740 H   0  0  0  0  0  0  0  0  0  0  0  0
   38.2470   32.4690   40.7570 O   0  0  0  0  0  0  0  0  0  0  0  0
   37.0690   31.9340   40.2570 C   0  0  0  0  0  2  0  0  0  0  0  0
   37.1200   31.7440   38.7550 C   0  0  0  0  0  2  0  0  0  0  0  0
   36.3590   30.9880   38.4820 H   0  0  0  0  0  0  0  0  0  0  0  0
  1  2  2  0  0  0  0
  1  6  1  0  0  0  0
  2  3  1  0  0  0  0
  3  8  1  0  0  0  0
  3  4  2  0  0  0  0
  4  9  1  0  0  0  0
  5  4  1  0  0  0  0
  5 10  1  0  0  0  0
  6  5  2  0  0  0  0
  7  2  1  0  0  0  0
 11 17  1  0  0  0  0
 11 16  1  0  0  0  0
 12 11  2  0  0  0  0
 13 12  1  0  0  0  0
 13 14  2  0  0  0  0
 14 15  1  0  0  0  0
 15 16  2  0  0  0  0
 15  1  1  0  0  0  0
 18 12  1  0  0  0  0
 19 13  1  0  0  0  0
 20  6  1  0  0  0  0
 20 21  1  0  0  0  0
 22 20  1  0  0  0  0
 22 23  1  0  0  0  0
 23 24  1  0  0  0  0
 25 22  1  0  0  0  0
 26 25  1  0  0  0  0
 27 22  1  0  0  0  0
 28 27  1  0  0  0  0
 29 28  1  0  0  0  0
 30 29  1  0  0  0  0
M  END
>  <minimizedAffinity>
-4.65064955

$$$$

 OpenBabel03242515113D

 30 31  0  0  0  0  0  0  0  0999 V2000
   37.2730   30.2540   38.0040 C   0  0  0  0  0  0  0  0  0  0  0  0
   36.9580   30.3680   36.6750 C   0  0  0  0  0  0  0  0  0  0  0  0
   36.3930   29.3540   35.9180 C   0  0  0  0  0  0  0  0  0  0  0  0
   36.1300   28.1640   36.5220 C   0  0  0  0  0  0  0  0  0  0  0  0
   36.4280   28.0050   37.8490 C   0  0  0  0  0  0  0  0  0  0  0  0
   36.9940   29.0370   38.5830 C   0  0  0  0  0  0  0  0  0  0  0  0
   37.1580   31.3070   36.1710 H   0  0  0  0  0  0  0  0  0  0  0  0
   36.1740   29.5220   34.8760 H   0  0  0  0  0  0  0  0  0  0  0  0
   35.6840   27.3760   35.9090 H   0  0  0  0  0  0  0  0  0  0  0  0
   36.1970   27.0410   38.2750 H   0  0  0  0  0  0  0  0  0  0  0  0
   37.5520   33.4310   39.7950 C   0  0  0  0  0  0  0  0  0  0  0  0
   38.8840   33.4810   40.1630 C   0  0  0  0  0  0  0  0  0  0  0  0
   39.6960   32.4160   39.7970 C   0  0  0  0  0  0  0  0  0  0  0  0
   39.1840   31.3620   39.0950 N   0  0  0  0  0  0  0  0  0  0  0  0
   37.8640   31.3510   38.7500 C   0  0  0  0  0  0  0  0  0  0  0  0
   37.0910   32.3820   39.1080 N   0  0  0  0  0  0  0  0  0  0  0  0
   36.8760   34.2540   40.0660 H   0  0  0  0  0  0  0  0  0  0  0  0
   39.3080   34.2990   40.7150 H   0  0  0  0  0  0  0  0  0  0  0  0
   40.7620   32.3540   40.0370 H   0  0  0  0  0  0  0  0  0  0  0  0
   37.2440   28.7220   39.9410 N   0  0  0  0  0  0  0  0  0  0  0  0
   37.9480   27.9510   40.0260 H   0  0  0  0  0  0  0  0  0  0  0  0
   36.6290   29.3510   41.4010 S   0  0  0  0  0  0  0  0  0  0  0  0
   35.5160   30.3290   41.0850 O   0  0  0  0  0  0  0  0  0  0  0  0
   34.5470   30.1350   41.0430 H   0  0  0  0  0  0  0  0  0  0  0  0
   36.1220   28.3120   42.3470 O   0  0  0  0  0  0  0  0  0  0  0  0
   35.3180   28.4630   42.8990 H   0  0  0  0  0  0  0  0  0  0  0  0
   37.8770   30.2680   42.0840 O   0  0  0  0  0  0  0  0  0  0  0  0
   38.5410   29.4390   42.9770 C   0  0  0  0  0  2  0  0  0  0  0  0
   39.9700   29.1690   42.5510 C   0  0  0  0  0  2  0  0  0  0  0  0
   40.5380   28.8550   43.4480 H   0  0  0  0  0  0  0  0  0  0  0  0
  1  6  1  0  0  0  0
  1 15  1  0  0  0  0
  2  1  2  0  0  0  0
  3  4  2  0  0  0  0
  3  2  1  0  0  0  0
  4  5  1  0  0  0  0
  5 10  1  0  0  0  0
  5  6  2  0  0  0  0
  6 20  1  0  0  0  0
  7  2  1  0  0  0  0
  8  3  1  0  0  0  0
  9  4  1  0  0  0  0
 11 17  1  0  0  0  0
 11 12  1  0  0  0  0
 12 18  1  0  0  0  0
 13 19  1  0  0  0  0
 13 12  2  0  0  0  0
 14 13  1  0  0  0  0
 15 14  2  0  0  0  0
 15 16  1  0  0  0  0
 16 11  2  0  0  0  0
 20 21  1  0  0  0  0
 20 22  1  0  0  0  0
 22 27  1  0  0  0  0
 22 25  1  0  0  0  0
 23 22  1  0  0  0  0
 24 23  1  0  0  0  0
 25 26  1  0  0  0  0
 27 28  1  0  0  0  0
 29 28  1  0  0  0  0
 29 30  1  0  0  0  0
M  END
>  <minimizedAffinity>
-4.59526634

$$$$

 OpenBabel03242515113D

 30 31  0  0  0  0  0  0  0  0999 V2000
   39.2760   28.6090   42.2350 C   0  0  0  0  0  0  0  0  0  0  0  0
   40.3110   29.5060   42.2850 C   0  0  0  0  0  0  0  0  0  0  0  0
   41.5390   29.2480   42.8730 C   0  0  0  0  0  0  0  0  0  0  0  0
   41.7400   28.0280   43.4410 C   0  0  0  0  0  0  0  0  0  0  0  0
   40.7350   27.1010   43.4150 C   0  0  0  0  0  0  0  0  0  0  0  0
   39.5150   27.3860   42.8200 C   0  0  0  0  0  0  0  0  0  0  0  0
   40.1740   30.4850   41.8380 H   0  0  0  0  0  0  0  0  0  0  0  0
   42.3040   30.0070   42.8710 H   0  0  0  0  0  0  0  0  0  0  0  0
   42.7150   27.8420   43.9010 H   0  0  0  0  0  0  0  0  0  0  0  0
   40.9510   26.1510   43.8810 H   0  0  0  0  0  0  0  0  0  0  0  0
   36.3620   30.5560   41.1860 C   0  0  0  0  0  0  0  0  0  0  0  0
   35.6170   29.6550   40.4480 C   0  0  0  0  0  0  0  0  0  0  0  0
   36.1160   28.3670   40.3060 C   0  0  0  0  0  0  0  0  0  0  0  0
   37.3030   28.0150   40.8830 N   0  0  0  0  0  0  0  0  0  0  0  0
   38.0080   28.9340   41.6040 C   0  0  0  0  0  0  0  0  0  0  0  0
   37.5190   30.1720   41.7330 N   0  0  0  0  0  0  0  0  0  0  0  0
   36.0020   31.5860   41.3210 H   0  0  0  0  0  0  0  0  0  0  0  0
   34.6820   29.9090   39.9870 H   0  0  0  0  0  0  0  0  0  0  0  0
   35.6080   27.5770   39.7440 H   0  0  0  0  0  0  0  0  0  0  0  0
   38.5750   26.3280   42.8710 N   0  0  0  0  0  0  0  0  0  0  0  0
   37.7020   26.6220   43.3720 H   0  0  0  0  0  0  0  0  0  0  0  0
   38.6090   24.7270   42.2870 S   0  0  0  0  0  0  0  0  0  0  0  0
   39.2980   24.7110   40.9370 O   0  0  0  0  0  0  0  0  0  0  0  0
   40.2550   24.5390   40.7600 H   0  0  0  0  0  0  0  0  0  0  0  0
   39.2860   23.7590   43.2000 O   0  0  0  0  0  0  0  0  0  0  0  0
   39.8490   23.0260   42.8520 H   0  0  0  0  0  0  0  0  0  0  0  0
   36.9990   24.2950   41.9940 O   0  0  0  0  0  0  0  0  0  0  0  0
   36.7430   24.5810   40.6620 C   0  0  0  0  0  2  0  0  0  0  0  0
   35.9510   23.4820   39.9830 C   0  0  0  0  0  2  0  0  0  0  0  0
   35.4590   23.9170   39.0920 H   0  0  0  0  0  0  0  0  0  0  0  0
  1  2  2  0  0  0  0
  1  6  1  0  0  0  0
  2  3  1  0  0  0  0
  3  4  2  0  0  0  0
  4  9  1  0  0  0  0
  5  4  1  0  0  0  0
  5 10  1  0  0  0  0
  6 20  1  0  0  0  0
  6  5  2  0  0  0  0
  7  2  1  0  0  0  0
  8  3  1  0  0  0  0
 11 17  1  0  0  0  0
 11 16  1  0  0  0  0
 12 11  2  0  0  0  0
 13 12  1  0  0  0  0
 13 14  2  0  0  0  0
 14 15  1  0  0  0  0
 15 16  2  0  0  0  0
 15  1  1  0  0  0  0
 18 12  1  0  0  0  0
 19 13  1  0  0  0  0
 20 21  1  0  0  0  0
 22 20  1  0  0  0  0
 22 25  1  0  0  0  0
 23 22  1  0  0  0  0
 24 23  1  0  0  0  0
 26 25  1  0  0  0  0
 27 22  1  0  0  0  0
 28 27  1  0  0  0  0
 29 28  1  0  0  0  0
 30 29  1  0  0  0  0
M  END
>  <minimizedAffinity>
-4.5601263

$$$$
