
 OpenBabel03252508593D

 39 40  0  0  1  0  0  0  0  0999 V2000
   47.1810   34.1560   43.0810 N   0  0  0  0  0  0  0  0  0  0  0  0
   46.6630   35.3500   42.5190 C   0  0  0  0  0  0  0  0  0  0  0  0
   45.1830   35.5850   42.7290 C   0  0  0  0  0  0  0  0  0  0  0  0
   44.6560   35.0460   44.0270 C   0  0  0  0  0  0  0  0  0  0  0  0
   45.7510   34.4640   44.8880 C   0  0  0  0  0  0  0  0  0  0  0  0
   46.4170   33.3950   43.9500 C   0  0  2  0  0  0  0  0  0  0  0  0
   46.8750   35.5180   41.4610 H   0  0  0  0  0  0  0  0  0  0  0  0
   47.1790   36.2030   43.0510 H   0  0  0  0  0  0  0  0  0  0  0  0
   45.0100   36.6770   42.6440 H   0  0  0  0  0  0  0  0  0  0  0  0
   44.6640   35.1160   41.8750 H   0  0  0  0  0  0  0  0  0  0  0  0
   43.9070   34.2330   43.8080 H   0  0  0  0  0  0  0  0  0  0  0  0
   44.1200   35.8320   44.5650 H   0  0  0  0  0  0  0  0  0  0  0  0
   46.4740   35.2480   45.1140 H   0  0  0  0  0  0  0  0  0  0  0  0
   45.3130   33.9590   45.7510 H   0  0  0  0  0  0  0  0  0  0  0  0
   45.5580   32.8210   43.5470 H   0  0  0  0  0  0  0  0  0  0  0  0
   48.1600   33.4970   42.2650 C   0  0  0  0  0  0  0  0  0  0  0  0
   48.7830   34.2860   41.7860 H   0  0  0  0  0  0  0  0  0  0  0  0
   48.8460   32.9240   42.9400 H   0  0  0  0  0  0  0  0  0  0  0  0
   47.4750   32.6590   41.2530 C   0  0  0  0  0  0  0  0  0  0  0  0
   46.3830   32.9100   41.2040 H   0  0  0  0  0  0  0  0  0  0  0  0
   47.5580   31.5910   41.4720 H   0  0  0  0  0  0  0  0  0  0  0  0
   49.3270   32.2920   38.0110 C   0  0  0  0  0  0  0  0  0  0  0  0
   48.8130   32.0280   39.2950 C   0  0  0  0  0  0  0  0  0  0  0  0
   48.0060   32.9510   39.9030 C   0  0  0  0  0  0  0  0  0  0  0  0
   47.7400   34.0820   39.2330 N   0  0  0  0  0  0  0  0  0  0  0  0
   48.2370   34.3240   38.0060 C   0  0  0  0  0  0  0  0  0  0  0  0
   49.0280   33.4390   37.3880 N   0  0  0  0  0  0  0  0  0  0  0  0
   49.9700   31.5800   37.4990 H   0  0  0  0  0  0  0  0  0  0  0  0
   49.0980   31.0910   39.7230 H   0  0  0  0  0  0  0  0  0  0  0  0
   47.9390   35.2740   37.5890 H   0  0  0  0  0  0  0  0  0  0  0  0
   47.2060   32.6850   44.8450 O   0  0  0  0  0  0  0  0  0  0  0  0
   45.9800   30.5490   43.8790 O   0  0  0  0  0  0  0  0  0  0  0  0
   46.6490   31.1230   45.1170 P   0  0  2  0  0  0  0  0  0  0  0  0
   45.4130   31.2540   46.2920 O   0  0  0  0  0  0  0  0  0  0  0  0
   45.7760   31.4900   47.1810 H   0  0  0  0  0  0  0  0  0  0  0  0
   47.8450   30.1280   45.7280 O   0  0  0  0  0  0  0  0  0  0  0  0
   48.7460   29.7020   44.7610 C   0  0  0  0  0  2  0  0  0  0  0  0
   48.8940   28.2000   44.8900 C   0  0  0  0  0  2  0  0  0  0  0  0
   48.2450   27.7820   45.7110 H   0  0  0  0  0  0  0  0  0  0  0  0
  1  6  1  0  0  0  0
  2  3  1  0  0  0  0
  2  8  1  0  0  0  0
  2  1  1  0  0  0  0
  3  4  1  0  0  0  0
  4 12  1  0  0  0  0
  4  5  1  0  0  0  0
  5 13  1  0  0  0  0
  5 14  1  0  0  0  0
  6 15  1  6  0  0  0
  6 31  1  0  0  0  0
  6  5  1  0  0  0  0
  7  2  1  0  0  0  0
  9  3  1  0  0  0  0
 10  3  1  0  0  0  0
 11  4  1  0  0  0  0
 16 18  1  0  0  0  0
 16  1  1  0  0  0  0
 17 16  1  0  0  0  0
 19 21  1  0  0  0  0
 19 16  1  0  0  0  0
 20 19  1  0  0  0  0
 22 23  1  0  0  0  0
 23 29  1  0  0  0  0
 23 24  2  0  0  0  0
 24 19  1  0  0  0  0
 25 24  1  0  0  0  0
 26 25  2  0  0  0  0
 27 26  1  0  0  0  0
 27 22  2  0  0  0  0
 28 22  1  0  0  0  0
 30 26  1  0  0  0  0
 31 33  1  0  0  0  0
 33 32  2  6  0  0  0
 33 36  1  0  0  0  0
 33 34  1  0  0  0  0
 34 35  1  0  0  0  0
 37 38  1  0  0  0  0
 37 36  1  0  0  0  0
 38 39  1  0  0  0  0
M  END
>  <minimizedAffinity>
-3.59821796

>  <minimizedRMSD>
0.0341201574

$$$$
