
 OpenBabel03252508593D

 39 40  0  0  1  0  0  0  0  0999 V2000
   47.1780   34.1600   43.0790 N   0  0  0  0  0  0  0  0  0  0  0  0
   46.6620   35.3570   42.5210 C   0  0  0  0  0  0  0  0  0  0  0  0
   45.1830   35.5950   42.7310 C   0  0  0  0  0  0  0  0  0  0  0  0
   44.6540   35.0530   44.0270 C   0  0  0  0  0  0  0  0  0  0  0  0
   45.7480   34.4660   44.8870 C   0  0  0  0  0  0  0  0  0  0  0  0
   46.4120   33.3980   43.9450 C   0  0  2  0  0  0  0  0  0  0  0  0
   46.8760   35.5280   41.4630 H   0  0  0  0  0  0  0  0  0  0  0  0
   47.1810   36.2070   43.0560 H   0  0  0  0  0  0  0  0  0  0  0  0
   45.0120   36.6870   42.6490 H   0  0  0  0  0  0  0  0  0  0  0  0
   44.6630   35.1300   41.8750 H   0  0  0  0  0  0  0  0  0  0  0  0
   43.9040   34.2420   43.8050 H   0  0  0  0  0  0  0  0  0  0  0  0
   44.1210   35.8380   44.5670 H   0  0  0  0  0  0  0  0  0  0  0  0
   46.4720   35.2470   45.1150 H   0  0  0  0  0  0  0  0  0  0  0  0
   45.3080   33.9590   45.7480 H   0  0  0  0  0  0  0  0  0  0  0  0
   45.5520   32.8270   43.5400 H   0  0  0  0  0  0  0  0  0  0  0  0
   48.1550   33.5010   42.2620 C   0  0  0  0  0  0  0  0  0  0  0  0
   48.7790   34.2910   41.7830 H   0  0  0  0  0  0  0  0  0  0  0  0
   48.8420   32.9270   42.9350 H   0  0  0  0  0  0  0  0  0  0  0  0
   47.4690   32.6650   41.2490 C   0  0  0  0  0  0  0  0  0  0  0  0
   46.3790   32.9210   41.1980 H   0  0  0  0  0  0  0  0  0  0  0  0
   47.5480   31.5970   41.4680 H   0  0  0  0  0  0  0  0  0  0  0  0
   49.3280   32.2920   38.0120 C   0  0  0  0  0  0  0  0  0  0  0  0
   48.8120   32.0300   39.2950 C   0  0  0  0  0  0  0  0  0  0  0  0
   48.0030   32.9550   39.8990 C   0  0  0  0  0  0  0  0  0  0  0  0
   47.7390   34.0850   39.2270 N   0  0  0  0  0  0  0  0  0  0  0  0
   48.2390   34.3240   38.0010 C   0  0  0  0  0  0  0  0  0  0  0  0
   49.0310   33.4370   37.3860 N   0  0  0  0  0  0  0  0  0  0  0  0
   49.9730   31.5790   37.5020 H   0  0  0  0  0  0  0  0  0  0  0  0
   49.0960   31.0940   39.7250 H   0  0  0  0  0  0  0  0  0  0  0  0
   47.9420   35.2730   37.5810 H   0  0  0  0  0  0  0  0  0  0  0  0
   47.1980   32.6830   44.8390 O   0  0  0  0  0  0  0  0  0  0  0  0
   45.9210   30.5680   43.8930 O   0  0  0  0  0  0  0  0  0  0  0  0
   46.6290   31.1270   45.1170 P   0  0  2  0  0  0  0  0  0  0  0  0
   45.4260   31.2670   46.3240 O   0  0  0  0  0  0  0  0  0  0  0  0
   45.8150   31.4940   47.2040 H   0  0  0  0  0  0  0  0  0  0  0  0
   47.8290   30.1130   45.6920 O   0  0  0  0  0  0  0  0  0  0  0  0
   48.6950   29.6770   44.6990 C   0  0  0  0  0  2  0  0  0  0  0  0
   49.8920   29.0370   45.3710 C   0  0  0  0  0  2  0  0  0  0  0  0
   49.8010   29.0500   46.4940 H   0  0  0  0  0  0  0  0  0  0  0  0
  1  6  1  0  0  0  0
  2  3  1  0  0  0  0
  2  8  1  0  0  0  0
  2  1  1  0  0  0  0
  3  4  1  0  0  0  0
  4 12  1  0  0  0  0
  4  5  1  0  0  0  0
  5 13  1  0  0  0  0
  5 14  1  0  0  0  0
  6 15  1  6  0  0  0
  6 31  1  0  0  0  0
  6  5  1  0  0  0  0
  7  2  1  0  0  0  0
  9  3  1  0  0  0  0
 10  3  1  0  0  0  0
 11  4  1  0  0  0  0
 16 18  1  0  0  0  0
 16  1  1  0  0  0  0
 17 16  1  0  0  0  0
 19 21  1  0  0  0  0
 19 16  1  0  0  0  0
 20 19  1  0  0  0  0
 22 23  1  0  0  0  0
 23 29  1  0  0  0  0
 23 24  2  0  0  0  0
 24 19  1  0  0  0  0
 25 24  1  0  0  0  0
 26 25  2  0  0  0  0
 27 26  1  0  0  0  0
 27 22  2  0  0  0  0
 28 22  1  0  0  0  0
 30 26  1  0  0  0  0
 31 33  1  0  0  0  0
 33 32  2  6  0  0  0
 33 36  1  0  0  0  0
 33 34  1  0  0  0  0
 34 35  1  0  0  0  0
 37 38  1  0  0  0  0
 37 36  1  0  0  0  0
 38 39  1  0  0  0  0
M  END
>  <minimizedAffinity>
-3.66018558

>  <minimizedRMSD>
0.0551687367

$$$$
