
 OpenBabel03252508063D

 38 40  0  0  0  0  0  0  0  0999 V2000
   45.0400   35.4730   43.3620 C   0  0  0  0  0  0  0  0  0  0  0  0
   45.4840   34.1620   43.3970 C   0  0  0  0  0  0  0  0  0  0  0  0
   45.4840   33.4690   44.5820 C   0  0  0  0  0  0  0  0  0  0  0  0
   45.0280   34.1390   45.7010 N   0  0  0  0  0  0  0  0  0  0  0  0
   44.6030   35.4000   45.6610 C   0  0  0  0  0  0  0  0  0  0  0  0
   44.6150   36.0570   44.4820 N   0  0  0  0  0  0  0  0  0  0  0  0
   45.0370   36.0260   42.4350 H   0  0  0  0  0  0  0  0  0  0  0  0
   44.2480   35.9140   46.5440 H   0  0  0  0  0  0  0  0  0  0  0  0
   45.9020   32.1330   44.7840 C   0  0  0  0  0  0  0  0  0  0  0  0
   45.6260   31.0830   43.9030 C   0  0  0  0  0  0  0  0  0  0  0  0
   45.9730   29.7780   44.1280 C   0  0  0  0  0  0  0  0  0  0  0  0
   46.6370   29.4360   45.2870 C   0  0  0  0  0  0  0  0  0  0  0  0
   46.9280   30.4860   46.1910 C   0  0  0  0  0  0  0  0  0  0  0  0
   47.5840   30.1610   47.3510 C   0  0  0  0  0  0  0  0  0  0  0  0
   47.9000   31.1320   48.2800 C   0  0  0  0  0  0  0  0  0  0  0  0
   47.5420   32.4680   48.0270 C   0  0  0  0  0  0  0  0  0  0  0  0
   46.8680   32.7550   46.8260 C   0  0  0  0  0  0  0  0  0  0  0  0
   46.5670   31.7690   45.9270 C   0  0  0  0  0  0  0  0  0  0  0  0
   45.1030   31.3020   42.9750 H   0  0  0  0  0  0  0  0  0  0  0  0
   45.7470   28.9890   43.4290 H   0  0  0  0  0  0  0  0  0  0  0  0
   46.9410   28.4410   45.5360 H   0  0  0  0  0  0  0  0  0  0  0  0
   47.8670   29.1350   47.5540 H   0  0  0  0  0  0  0  0  0  0  0  0
   48.4220   30.8180   49.1870 H   0  0  0  0  0  0  0  0  0  0  0  0
   47.8290   33.1480   48.8040 H   0  0  0  0  0  0  0  0  0  0  0  0
   46.7050   33.8100   46.8090 H   0  0  0  0  0  0  0  0  0  0  0  0
   45.9050   33.6120   42.2180 O   0  0  0  0  0  0  0  0  0  0  0  0
   48.2170   32.5720   41.5670 O   0  0  0  0  0  0  0  0  0  0  0  0
   47.4410   33.8400   41.5440 P   0  0  1  0  0  0  0  0  0  0  0  0
   47.3220   34.3200   39.9250 O   0  0  0  0  0  0  0  0  0  0  0  0
   48.2330   33.6750   39.1130 C   0  0  0  0  0  0  0  0  0  0  0  0
   48.3230   34.4110   37.7870 C   0  0  0  0  0  0  0  0  0  0  0  0
   47.3270   34.7830   37.4430 H   0  0  0  0  0  0  0  0  0  0  0  0
   48.2180   35.0510   42.4080 O   0  0  0  0  0  0  0  0  0  0  0  0
   49.5120   35.5070   42.2160 C   0  0  0  0  0  0  0  0  0  0  0  0
   49.3870   36.5150   41.4960 O   0  0  0  0  0  0  0  0  0  0  0  0
   50.4610   34.6660   42.9010 N   0  0  0  0  0  0  0  0  0  0  0  0
   50.4260   34.6370   43.9410 H   0  0  0  0  0  0  0  0  0  0  0  0
   51.2040   34.0610   42.4410 H   0  0  0  0  0  0  0  0  0  0  0  0
  1  2  2  0  0  0  0
  1  6  1  0  0  0  0
  2  3  1  0  0  0  0
  3  9  1  0  0  0  0
  3  4  2  0  0  0  0
  5  4  1  0  0  0  0
  5  8  1  0  0  0  0
  6  5  2  0  0  0  0
  7  1  1  0  0  0  0
  9 18  1  0  0  0  0
 10 11  1  0  0  0  0
 10  9  2  0  0  0  0
 11 12  2  0  0  0  0
 12 21  1  0  0  0  0
 12 13  1  0  0  0  0
 13 14  1  0  0  0  0
 14 22  1  0  0  0  0
 14 15  2  0  0  0  0
 15 23  1  0  0  0  0
 16 15  1  0  0  0  0
 16 24  1  0  0  0  0
 17 16  2  0  0  0  0
 18 13  2  0  0  0  0
 18 17  1  0  0  0  0
 19 10  1  0  0  0  0
 20 11  1  0  0  0  0
 25 17  1  0  0  0  0
 26  2  1  0  0  0  0
 28 27  2  1  0  0  0
 28 26  1  0  0  0  0
 28 33  1  0  0  0  0
 29 28  1  0  0  0  0
 30 29  1  0  0  0  0
 31 30  1  0  0  0  0
 32 31  1  0  0  0  0
 34 33  1  0  0  0  0
 34 36  1  0  0  0  0
 35 34  2  0  0  0  0
 36 37  1  0  0  0  0
 38 36  1  0  0  0  0
M  END
>  <minimizedAffinity>
-5.97133112

>  <minimizedRMSD>
0.796928108

$$$$
