
 OpenBabel03252500453D

 28 29  0  0  1  0  0  0  0  0999 V2000
   37.7220   26.8800   43.0340 C   0  0  1  0  0  0  0  0  0  0  0  0
   36.3350   27.1810   43.5740 C   0  0  0  0  0  0  0  0  0  0  0  0
   36.7610   27.6900   42.2140 C   0  0  1  0  0  0  0  0  0  0  0  0
   37.7880   25.8270   42.6900 H   0  0  0  0  0  0  0  0  0  0  0  0
   35.5720   26.4050   43.6490 H   0  0  0  0  0  0  0  0  0  0  0  0
   36.2770   27.9670   44.3800 H   0  0  0  0  0  0  0  0  0  0  0  0
   36.2460   27.2370   41.3430 H   0  0  0  0  0  0  0  0  0  0  0  0
   38.8420   27.6330   43.6250 C   0  0  0  0  0  0  0  0  0  0  0  0
   38.8490   28.6560   43.1510 H   0  0  0  0  0  0  0  0  0  0  0  0
   38.7230   27.7720   44.7090 H   0  0  0  0  0  0  0  0  0  0  0  0
   40.1750   27.0630   43.3700 C   0  0  0  0  0  0  0  0  0  0  0  0
   41.0640   27.9570   42.8380 C   0  0  0  0  0  0  0  0  0  0  0  0
   42.3720   27.5510   42.5360 C   0  0  0  0  0  0  0  0  0  0  0  0
   42.6710   26.2330   42.8090 N   0  0  0  0  0  0  0  0  0  0  0  0
   41.7750   25.3730   43.3340 C   0  0  0  0  0  0  0  0  0  0  0  0
   40.5490   25.8010   43.6030 N   0  0  0  0  0  0  0  0  0  0  0  0
   41.0250   29.0040   42.5660 H   0  0  0  0  0  0  0  0  0  0  0  0
   43.1870   28.1210   42.1170 H   0  0  0  0  0  0  0  0  0  0  0  0
   42.1000   24.3700   43.5120 H   0  0  0  0  0  0  0  0  0  0  0  0
   37.0210   29.0300   42.0970 O   0  0  0  0  0  0  0  0  0  0  0  0
   34.9740   28.9390   40.3840 O   0  0  0  0  0  0  0  0  0  0  0  0
   36.1850   29.7420   40.8140 P   0  0  1  0  0  0  0  0  0  0  0  0
   35.6280   31.2730   41.3380 O   0  0  0  0  0  0  0  0  0  0  0  0
   34.9490   31.6000   40.6940 H   0  0  0  0  0  0  0  0  0  0  0  0
   37.2580   29.9750   39.5320 O   0  0  0  0  0  0  0  0  0  0  0  0
   36.6790   30.7030   38.4990 C   0  0  0  0  0  2  0  0  0  0  0  0
   37.4980   31.9800   38.3080 C   0  0  0  0  0  2  0  0  0  0  0  0
   37.0060   32.8550   38.8070 H   0  0  0  0  0  0  0  0  0  0  0  0
  1  4  1  6  0  0  0
  1  2  1  0  0  0  0
  1  8  1  0  0  0  0
  2  5  1  0  0  0  0
  2  6  1  0  0  0  0
  3  7  1  6  0  0  0
  3  1  1  0  0  0  0
  3  2  1  0  0  0  0
  8 10  1  0  0  0  0
  9  8  1  0  0  0  0
 11 16  1  0  0  0  0
 11  8  1  0  0  0  0
 12 11  2  0  0  0  0
 13 14  2  0  0  0  0
 13 12  1  0  0  0  0
 14 15  1  0  0  0  0
 15 19  1  0  0  0  0
 15 16  2  0  0  0  0
 17 12  1  0  0  0  0
 18 13  1  0  0  0  0
 20  3  1  0  0  0  0
 22 21  2  6  0  0  0
 22 23  1  0  0  0  0
 22 20  1  0  0  0  0
 24 23  1  0  0  0  0
 25 22  1  0  0  0  0
 26 25  1  0  0  0  0
 27 26  1  0  0  0  0
 27 28  1  0  0  0  0
M  END
>  <minimizedAffinity>
-4.51527262

$$$$

 OpenBabel03252500453D

 28 29  0  0  1  0  0  0  0  0999 V2000
   35.7010   30.1140   40.1220 C   0  0  1  0  0  0  0  0  0  0  0  0
   34.8960   28.9040   39.6810 C   0  0  0  0  0  0  0  0  0  0  0  0
   35.6570   28.8900   40.9890 C   0  0  1  0  0  0  0  0  0  0  0  0
   35.0300   30.9170   40.4900 H   0  0  0  0  0  0  0  0  0  0  0  0
   33.8050   28.9120   39.6870 H   0  0  0  0  0  0  0  0  0  0  0  0
   35.3500   28.2800   38.8590 H   0  0  0  0  0  0  0  0  0  0  0  0
   35.0400   28.8760   41.9100 H   0  0  0  0  0  0  0  0  0  0  0  0
   36.9770   30.3520   39.4240 C   0  0  0  0  0  0  0  0  0  0  0  0
   37.6220   29.4400   39.5810 H   0  0  0  0  0  0  0  0  0  0  0  0
   36.8420   30.4790   38.3420 H   0  0  0  0  0  0  0  0  0  0  0  0
   37.7590   31.4900   39.9350 C   0  0  0  0  0  0  0  0  0  0  0  0
   37.2810   32.7100   39.5360 C   0  0  0  0  0  0  0  0  0  0  0  0
   37.9300   33.8840   39.9420 C   0  0  0  0  0  0  0  0  0  0  0  0
   39.0400   33.7120   40.7410 N   0  0  0  0  0  0  0  0  0  0  0  0
   39.4900   32.4980   41.1200 C   0  0  0  0  0  0  0  0  0  0  0  0
   38.8440   31.4150   40.7120 N   0  0  0  0  0  0  0  0  0  0  0  0
   36.4460   33.0440   38.9340 H   0  0  0  0  0  0  0  0  0  0  0  0
   37.6890   34.9130   39.7190 H   0  0  0  0  0  0  0  0  0  0  0  0
   40.3590   32.4670   41.7410 H   0  0  0  0  0  0  0  0  0  0  0  0
   36.7950   28.1290   41.0460 O   0  0  0  0  0  0  0  0  0  0  0  0
   38.1140   29.1310   43.1410 O   0  0  0  0  0  0  0  0  0  0  0  0
   37.3580   27.9240   42.6250 P   0  0  1  0  0  0  0  0  0  0  0  0
   35.9970   27.6980   43.6400 O   0  0  0  0  0  0  0  0  0  0  0  0
   36.2840   27.8090   44.5820 H   0  0  0  0  0  0  0  0  0  0  0  0
   38.3050   26.5280   42.6860 O   0  0  0  0  0  0  0  0  0  0  0  0
   38.0500   25.6830   41.6120 C   0  0  0  0  0  2  0  0  0  0  0  0
   36.9870   24.6750   42.0500 C   0  0  0  0  0  2  0  0  0  0  0  0
   37.4510   23.6950   42.3340 H   0  0  0  0  0  0  0  0  0  0  0  0
  1  4  1  1  0  0  0
  1  3  1  0  0  0  0
  2  5  1  0  0  0  0
  2  1  1  0  0  0  0
  2  3  1  0  0  0  0
  3 20  1  0  0  0  0
  3  7  1  1  0  0  0
  6  2  1  0  0  0  0
  8  9  1  0  0  0  0
  8 11  1  0  0  0  0
  8  1  1  0  0  0  0
 10  8  1  0  0  0  0
 11 16  1  0  0  0  0
 12 11  2  0  0  0  0
 12 13  1  0  0  0  0
 13 14  2  0  0  0  0
 14 15  1  0  0  0  0
 15 19  1  0  0  0  0
 16 15  2  0  0  0  0
 17 12  1  0  0  0  0
 18 13  1  0  0  0  0
 20 22  1  0  0  0  0
 22 25  1  0  0  0  0
 22 21  2  1  0  0  0
 22 23  1  0  0  0  0
 23 24  1  0  0  0  0
 26 27  1  0  0  0  0
 26 25  1  0  0  0  0
 27 28  1  0  0  0  0
M  END
>  <minimizedAffinity>
-4.47177601

$$$$

 OpenBabel03252500453D

 28 29  0  0  1  0  0  0  0  0999 V2000
   36.2000   28.6100   40.4710 C   0  0  1  0  0  0  0  0  0  0  0  0
   34.8370   29.1450   40.0670 C   0  0  0  0  0  0  0  0  0  0  0  0
   36.0900   29.9590   39.8240 C   0  0  1  0  0  0  0  0  0  0  0  0
   36.5400   27.8280   39.7630 H   0  0  0  0  0  0  0  0  0  0  0  0
   34.2890   28.7260   39.2210 H   0  0  0  0  0  0  0  0  0  0  0  0
   34.1820   29.5170   40.9050 H   0  0  0  0  0  0  0  0  0  0  0  0
   36.3810   30.0980   38.7630 H   0  0  0  0  0  0  0  0  0  0  0  0
   36.5160   28.6220   41.9110 C   0  0  0  0  0  0  0  0  0  0  0  0
   36.9960   29.6160   42.1430 H   0  0  0  0  0  0  0  0  0  0  0  0
   35.6160   28.5360   42.5350 H   0  0  0  0  0  0  0  0  0  0  0  0
   37.4830   27.5980   42.3400 C   0  0  0  0  0  0  0  0  0  0  0  0
   37.3040   26.3830   41.7350 C   0  0  0  0  0  0  0  0  0  0  0  0
   38.1490   25.3100   42.0530 C   0  0  0  0  0  0  0  0  0  0  0  0
   39.1300   25.5720   42.9850 N   0  0  0  0  0  0  0  0  0  0  0  0
   39.2830   26.7790   43.5670 C   0  0  0  0  0  0  0  0  0  0  0  0
   38.4610   27.7650   43.2360 N   0  0  0  0  0  0  0  0  0  0  0  0
   36.6190   25.9920   40.9940 H   0  0  0  0  0  0  0  0  0  0  0  0
   38.1460   24.2990   41.6730 H   0  0  0  0  0  0  0  0  0  0  0  0
   40.0740   26.8860   44.2790 H   0  0  0  0  0  0  0  0  0  0  0  0
   36.2950   31.0520   40.6250 O   0  0  0  0  0  0  0  0  0  0  0  0
   37.9910   31.6630   38.6550 O   0  0  0  0  0  0  0  0  0  0  0  0
   37.4850   32.0850   40.0200 P   0  0  1  0  0  0  0  0  0  0  0  0
   36.7900   33.6400   39.8510 O   0  0  0  0  0  0  0  0  0  0  0  0
   37.3890   34.1950   39.2880 H   0  0  0  0  0  0  0  0  0  0  0  0
   38.7410   32.1810   41.1420 O   0  0  0  0  0  0  0  0  0  0  0  0
   39.3790   30.9570   41.3120 C   0  0  0  0  0  2  0  0  0  0  0  0
   40.0480   30.9620   42.6860 C   0  0  0  0  0  2  0  0  0  0  0  0
   41.1430   31.1880   42.6020 H   0  0  0  0  0  0  0  0  0  0  0  0
  1  4  1  6  0  0  0
  1  8  1  0  0  0  0
  2  1  1  0  0  0  0
  2  6  1  0  0  0  0
  3  7  1  6  0  0  0
  3  2  1  0  0  0  0
  3  1  1  0  0  0  0
  3 20  1  0  0  0  0
  5  2  1  0  0  0  0
  8  9  1  0  0  0  0
  8 11  1  0  0  0  0
  8 10  1  0  0  0  0
 11 16  1  0  0  0  0
 12 13  1  0  0  0  0
 12 11  2  0  0  0  0
 13 14  2  0  0  0  0
 14 15  1  0  0  0  0
 15 19  1  0  0  0  0
 16 15  2  0  0  0  0
 17 12  1  0  0  0  0
 18 13  1  0  0  0  0
 22 21  2  6  0  0  0
 22 20  1  0  0  0  0
 22 25  1  0  0  0  0
 23 22  1  0  0  0  0
 24 23  1  0  0  0  0
 25 26  1  0  0  0  0
 26 27  1  0  0  0  0
 28 27  1  0  0  0  0
M  END
>  <minimizedAffinity>
-4.43718052

$$$$

 OpenBabel03252500453D

 28 29  0  0  1  0  0  0  0  0999 V2000
   37.3170   27.3260   42.9860 C   0  0  1  0  0  0  0  0  0  0  0  0
   37.5870   28.7310   43.4950 C   0  0  0  0  0  0  0  0  0  0  0  0
   36.7840   28.5080   42.2310 C   0  0  1  0  0  0  0  0  0  0  0  0
   36.5380   26.8300   43.5990 H   0  0  0  0  0  0  0  0  0  0  0  0
   37.0950   29.1170   44.3900 H   0  0  0  0  0  0  0  0  0  0  0  0
   38.6300   29.1250   43.3340 H   0  0  0  0  0  0  0  0  0  0  0  0
   35.7080   28.7710   42.2870 H   0  0  0  0  0  0  0  0  0  0  0  0
   38.4460   26.6240   42.3490 C   0  0  0  0  0  0  0  0  0  0  0  0
   39.0580   27.3960   41.8010 H   0  0  0  0  0  0  0  0  0  0  0  0
   39.1040   26.1420   43.0850 H   0  0  0  0  0  0  0  0  0  0  0  0
   38.0610   25.6240   41.3390 C   0  0  0  0  0  0  0  0  0  0  0  0
   36.9900   24.8540   41.7050 C   0  0  0  0  0  0  0  0  0  0  0  0
   36.5170   23.8550   40.8440 C   0  0  0  0  0  0  0  0  0  0  0  0
   37.1930   23.7210   39.6500 N   0  0  0  0  0  0  0  0  0  0  0  0
   38.2460   24.4930   39.3140 C   0  0  0  0  0  0  0  0  0  0  0  0
   38.6590   25.4260   40.1600 N   0  0  0  0  0  0  0  0  0  0  0  0
   36.3390   24.8110   42.5700 H   0  0  0  0  0  0  0  0  0  0  0  0
   35.6950   23.1670   40.9760 H   0  0  0  0  0  0  0  0  0  0  0  0
   38.7050   24.3140   38.3640 H   0  0  0  0  0  0  0  0  0  0  0  0
   37.3900   28.8100   41.0400 O   0  0  0  0  0  0  0  0  0  0  0  0
   35.9170   29.8480   39.0700 O   0  0  0  0  0  0  0  0  0  0  0  0
   36.7290   30.1790   40.3050 P   0  0  1  0  0  0  0  0  0  0  0  0
   35.6730   30.9180   41.4320 O   0  0  0  0  0  0  0  0  0  0  0  0
   35.1080   31.5750   40.9510 H   0  0  0  0  0  0  0  0  0  0  0  0
   37.9760   31.2600   39.9540 O   0  0  0  0  0  0  0  0  0  0  0  0
   37.7530   32.5090   40.5210 C   0  0  0  0  0  2  0  0  0  0  0  0
   37.2720   33.4480   39.4140 C   0  0  0  0  0  2  0  0  0  0  0  0
   38.1090   34.0940   39.0390 H   0  0  0  0  0  0  0  0  0  0  0  0
  1  2  1  0  0  0  0
  1  4  1  1  0  0  0
  2  5  1  0  0  0  0
  3  7  1  1  0  0  0
  3  1  1  0  0  0  0
  3  2  1  0  0  0  0
  6  2  1  0  0  0  0
  8  1  1  0  0  0  0
  8 10  1  0  0  0  0
  9  8  1  0  0  0  0
 11 12  1  0  0  0  0
 11  8  1  0  0  0  0
 12 17  1  0  0  0  0
 13 18  1  0  0  0  0
 13 12  2  0  0  0  0
 14 13  1  0  0  0  0
 15 14  2  0  0  0  0
 15 16  1  0  0  0  0
 16 11  2  0  0  0  0
 19 15  1  0  0  0  0
 20  3  1  0  0  0  0
 22 21  2  6  0  0  0
 22 20  1  0  0  0  0
 22 23  1  0  0  0  0
 24 23  1  0  0  0  0
 25 22  1  0  0  0  0
 25 26  1  0  0  0  0
 27 26  1  0  0  0  0
 28 27  1  0  0  0  0
M  END
>  <minimizedAffinity>
-4.41616869

$$$$

 OpenBabel03252500453D

 28 29  0  0  1  0  0  0  0  0999 V2000
   35.9930   28.8530   39.0160 C   0  0  1  0  0  0  0  0  0  0  0  0
   35.0790   29.2640   37.8740 C   0  0  0  0  0  0  0  0  0  0  0  0
   36.5420   29.6520   37.8710 C   0  0  1  0  0  0  0  0  0  0  0  0
   36.2520   27.7770   38.9430 H   0  0  0  0  0  0  0  0  0  0  0  0
   34.7080   28.5360   37.1510 H   0  0  0  0  0  0  0  0  0  0  0  0
   34.3630   30.1070   38.0920 H   0  0  0  0  0  0  0  0  0  0  0  0
   37.1710   29.1660   37.0980 H   0  0  0  0  0  0  0  0  0  0  0  0
   35.8400   29.5870   40.2850 C   0  0  0  0  0  0  0  0  0  0  0  0
   36.2090   30.6390   40.1130 H   0  0  0  0  0  0  0  0  0  0  0  0
   34.7900   29.6520   40.6030 H   0  0  0  0  0  0  0  0  0  0  0  0
   36.6370   29.0590   41.4050 C   0  0  0  0  0  0  0  0  0  0  0  0
   36.4630   27.7180   41.6210 C   0  0  0  0  0  0  0  0  0  0  0  0
   37.1540   27.0800   42.6600 C   0  0  0  0  0  0  0  0  0  0  0  0
   37.9860   27.8830   43.4110 N   0  0  0  0  0  0  0  0  0  0  0  0
   38.1380   29.2020   43.1770 C   0  0  0  0  0  0  0  0  0  0  0  0
   37.4640   29.7630   42.1830 N   0  0  0  0  0  0  0  0  0  0  0  0
   35.8800   26.9370   41.1500 H   0  0  0  0  0  0  0  0  0  0  0  0
   37.1320   26.0440   42.9630 H   0  0  0  0  0  0  0  0  0  0  0  0
   38.8070   29.7420   43.8140 H   0  0  0  0  0  0  0  0  0  0  0  0
   36.8450   30.9650   38.1180 O   0  0  0  0  0  0  0  0  0  0  0  0
   39.3140   30.0800   37.6180 O   0  0  0  0  0  0  0  0  0  0  0  0
   38.4700   31.3210   37.8290 P   0  0  1  0  0  0  0  0  0  0  0  0
   38.5540   32.2490   36.3920 O   0  0  0  0  0  0  0  0  0  0  0  0
   39.4960   32.2670   36.0830 H   0  0  0  0  0  0  0  0  0  0  0  0
   39.0550   32.2570   39.1040 O   0  0  0  0  0  0  0  0  0  0  0  0
   38.0530   32.5760   40.0140 C   0  0  0  0  0  2  0  0  0  0  0  0
   37.5770   33.9970   39.7100 C   0  0  0  0  0  2  0  0  0  0  0  0
   38.0440   34.7390   40.4100 H   0  0  0  0  0  0  0  0  0  0  0  0
  1  4  1  1  0  0  0
  1  8  1  0  0  0  0
  2  6  1  0  0  0  0
  2  1  1  0  0  0  0
  3  7  1  6  0  0  0
  3  2  1  0  0  0  0
  3 20  1  0  0  0  0
  3  1  1  0  0  0  0
  5  2  1  0  0  0  0
  8 10  1  0  0  0  0
  8 11  1  0  0  0  0
  9  8  1  0  0  0  0
 11 12  2  0  0  0  0
 11 16  1  0  0  0  0
 12 13  1  0  0  0  0
 13 18  1  0  0  0  0
 13 14  2  0  0  0  0
 15 14  1  0  0  0  0
 15 19  1  0  0  0  0
 16 15  2  0  0  0  0
 17 12  1  0  0  0  0
 22 21  2  6  0  0  0
 22 20  1  0  0  0  0
 22 25  1  0  0  0  0
 23 22  1  0  0  0  0
 24 23  1  0  0  0  0
 25 26  1  0  0  0  0
 27 26  1  0  0  0  0
 27 28  1  0  0  0  0
M  END
>  <minimizedAffinity>
-4.36304522

$$$$

 OpenBabel03252500453D

 28 29  0  0  1  0  0  0  0  0999 V2000
   36.5600   30.4770   37.9640 C   0  0  1  0  0  0  0  0  0  0  0  0
   36.1260   29.1020   37.4860 C   0  0  0  0  0  0  0  0  0  0  0  0
   36.0330   29.4760   38.9500 C   0  0  1  0  0  0  0  0  0  0  0  0
   35.8050   31.2420   37.6930 H   0  0  0  0  0  0  0  0  0  0  0  0
   35.2150   28.9640   36.9010 H   0  0  0  0  0  0  0  0  0  0  0  0
   36.9540   28.3820   37.2300 H   0  0  0  0  0  0  0  0  0  0  0  0
   35.0080   29.5790   39.3600 H   0  0  0  0  0  0  0  0  0  0  0  0
   38.0110   30.7280   38.0300 C   0  0  0  0  0  0  0  0  0  0  0  0
   38.4820   29.8480   38.5550 H   0  0  0  0  0  0  0  0  0  0  0  0
   38.4660   30.8000   37.0330 H   0  0  0  0  0  0  0  0  0  0  0  0
   38.3980   31.9150   38.8090 C   0  0  0  0  0  0  0  0  0  0  0  0
   37.3600   32.7700   39.0640 C   0  0  0  0  0  0  0  0  0  0  0  0
   37.5830   33.9480   39.7900 C   0  0  0  0  0  0  0  0  0  0  0  0
   38.8790   34.1610   40.2080 N   0  0  0  0  0  0  0  0  0  0  0  0
   39.8840   33.3020   39.9440 C   0  0  0  0  0  0  0  0  0  0  0  0
   39.6260   32.2000   39.2530 N   0  0  0  0  0  0  0  0  0  0  0  0
   36.3010   32.7770   38.8350 H   0  0  0  0  0  0  0  0  0  0  0  0
   36.8840   34.7210   40.0750 H   0  0  0  0  0  0  0  0  0  0  0  0
   40.8570   33.5530   40.3110 H   0  0  0  0  0  0  0  0  0  0  0  0
   36.9410   28.9070   39.8030 O   0  0  0  0  0  0  0  0  0  0  0  0
   38.0730   30.0090   41.9560 O   0  0  0  0  0  0  0  0  0  0  0  0
   36.7780   29.4650   41.3880 P   0  0  1  0  0  0  0  0  0  0  0  0
   35.6430   30.7470   41.3770 O   0  0  0  0  0  0  0  0  0  0  0  0
   35.7070   31.2330   42.2380 H   0  0  0  0  0  0  0  0  0  0  0  0
   36.1620   28.2150   42.3420 O   0  0  0  0  0  0  0  0  0  0  0  0
   37.1730   27.4890   42.9590 C   0  0  0  0  0  2  0  0  0  0  0  0
   37.3230   26.1640   42.2120 C   0  0  0  0  0  2  0  0  0  0  0  0
   36.7980   25.3330   42.7530 H   0  0  0  0  0  0  0  0  0  0  0  0
  1  4  1  6  0  0  0
  1  8  1  0  0  0  0
  1  3  1  0  0  0  0
  2  1  1  0  0  0  0
  2  3  1  0  0  0  0
  3  7  1  1  0  0  0
  3 20  1  0  0  0  0
  5  2  1  0  0  0  0
  6  2  1  0  0  0  0
  8  9  1  0  0  0  0
  8 11  1  0  0  0  0
 10  8  1  0  0  0  0
 11 12  2  0  0  0  0
 11 16  1  0  0  0  0
 12 13  1  0  0  0  0
 13 18  1  0  0  0  0
 13 14  2  0  0  0  0
 15 14  1  0  0  0  0
 15 19  1  0  0  0  0
 16 15  2  0  0  0  0
 17 12  1  0  0  0  0
 20 22  1  0  0  0  0
 22 21  2  1  0  0  0
 22 25  1  0  0  0  0
 23 22  1  0  0  0  0
 23 24  1  0  0  0  0
 25 26  1  0  0  0  0
 27 28  1  0  0  0  0
 27 26  1  0  0  0  0
M  END
>  <minimizedAffinity>
-4.34441805

$$$$

 OpenBabel03252500453D

 28 29  0  0  1  0  0  0  0  0999 V2000
   38.1670   26.8020   42.0650 C   0  0  1  0  0  0  0  0  0  0  0  0
   36.9860   25.8580   42.2090 C   0  0  0  0  0  0  0  0  0  0  0  0
   36.8830   27.0980   41.3470 C   0  0  1  0  0  0  0  0  0  0  0  0
   38.9360   26.3680   41.3930 H   0  0  0  0  0  0  0  0  0  0  0  0
   36.9850   24.8710   41.7440 H   0  0  0  0  0  0  0  0  0  0  0  0
   36.4280   25.9090   43.1870 H   0  0  0  0  0  0  0  0  0  0  0  0
   36.7960   26.9240   40.2550 H   0  0  0  0  0  0  0  0  0  0  0  0
   38.4650   27.6720   43.2160 C   0  0  0  0  0  0  0  0  0  0  0  0
   37.4860   28.0950   43.5820 H   0  0  0  0  0  0  0  0  0  0  0  0
   38.9190   27.1180   44.0490 H   0  0  0  0  0  0  0  0  0  0  0  0
   39.3150   28.8350   42.9090 C   0  0  0  0  0  0  0  0  0  0  0  0
   40.6490   28.5360   42.8290 C   0  0  0  0  0  0  0  0  0  0  0  0
   41.5780   29.5480   42.5490 C   0  0  0  0  0  0  0  0  0  0  0  0
   41.0560   30.8110   42.3700 N   0  0  0  0  0  0  0  0  0  0  0  0
   39.7370   31.0780   42.4540 C   0  0  0  0  0  0  0  0  0  0  0  0
   38.8950   30.0890   42.7210 N   0  0  0  0  0  0  0  0  0  0  0  0
   41.2370   27.6330   42.9270 H   0  0  0  0  0  0  0  0  0  0  0  0
   42.6520   29.4850   42.4530 H   0  0  0  0  0  0  0  0  0  0  0  0
   39.4280   32.0900   42.2990 H   0  0  0  0  0  0  0  0  0  0  0  0
   36.1280   28.1360   41.8270 O   0  0  0  0  0  0  0  0  0  0  0  0
   34.5800   29.1720   39.9130 O   0  0  0  0  0  0  0  0  0  0  0  0
   35.8800   29.3440   40.6730 P   0  0  1  0  0  0  0  0  0  0  0  0
   35.8000   30.8430   41.4950 O   0  0  0  0  0  0  0  0  0  0  0  0
   35.4280   31.5230   40.8770 H   0  0  0  0  0  0  0  0  0  0  0  0
   37.2060   29.3770   39.6300 O   0  0  0  0  0  0  0  0  0  0  0  0
   37.6290   30.6750   39.3720 C   0  0  0  0  0  2  0  0  0  0  0  0
   37.1390   31.0610   37.9770 C   0  0  0  0  0  2  0  0  0  0  0  0
   37.9570   30.9560   37.2170 H   0  0  0  0  0  0  0  0  0  0  0  0
  1  4  1  6  0  0  0
  1  2  1  0  0  0  0
  1  8  1  0  0  0  0
  2  6  1  0  0  0  0
  3  7  1  6  0  0  0
  3 20  1  0  0  0  0
  3  1  1  0  0  0  0
  3  2  1  0  0  0  0
  5  2  1  0  0  0  0
  8  9  1  0  0  0  0
  8 10  1  0  0  0  0
 11  8  1  0  0  0  0
 12 11  1  0  0  0  0
 12 17  1  0  0  0  0
 13 12  2  0  0  0  0
 14 15  2  0  0  0  0
 14 13  1  0  0  0  0
 15 16  1  0  0  0  0
 16 11  2  0  0  0  0
 18 13  1  0  0  0  0
 19 15  1  0  0  0  0
 22 21  2  6  0  0  0
 22 23  1  0  0  0  0
 22 20  1  0  0  0  0
 24 23  1  0  0  0  0
 25 22  1  0  0  0  0
 26 25  1  0  0  0  0
 27 26  1  0  0  0  0
 28 27  1  0  0  0  0
M  END
>  <minimizedAffinity>
-4.32908773

$$$$

 OpenBabel03252500453D

 28 29  0  0  1  0  0  0  0  0999 V2000
   39.7830   29.3860   42.0300 C   0  0  1  0  0  0  0  0  0  0  0  0
   39.4840   28.2640   43.0090 C   0  0  0  0  0  0  0  0  0  0  0  0
   38.4960   28.6220   41.9190 C   0  0  1  0  0  0  0  0  0  0  0  0
   40.5320   29.0610   41.2790 H   0  0  0  0  0  0  0  0  0  0  0  0
   40.0180   27.3130   42.9670 H   0  0  0  0  0  0  0  0  0  0  0  0
   39.1830   28.5800   44.0480 H   0  0  0  0  0  0  0  0  0  0  0  0
   38.3590   27.8650   41.1200 H   0  0  0  0  0  0  0  0  0  0  0  0
   39.6610   30.7620   42.5420 C   0  0  0  0  0  0  0  0  0  0  0  0
   38.6630   30.8420   43.0610 H   0  0  0  0  0  0  0  0  0  0  0  0
   40.4380   31.0020   43.2800 H   0  0  0  0  0  0  0  0  0  0  0  0
   39.6600   31.8090   41.5060 C   0  0  0  0  0  0  0  0  0  0  0  0
   40.8070   31.8460   40.7590 C   0  0  0  0  0  0  0  0  0  0  0  0
   40.9500   32.7970   39.7400 C   0  0  0  0  0  0  0  0  0  0  0  0
   39.8840   33.6540   39.5630 N   0  0  0  0  0  0  0  0  0  0  0  0
   38.7660   33.5970   40.3140 C   0  0  0  0  0  0  0  0  0  0  0  0
   38.6750   32.6800   41.2670 N   0  0  0  0  0  0  0  0  0  0  0  0
   41.7240   31.2720   40.7390 H   0  0  0  0  0  0  0  0  0  0  0  0
   41.7770   32.9620   39.0660 H   0  0  0  0  0  0  0  0  0  0  0  0
   37.9930   34.3040   40.1020 H   0  0  0  0  0  0  0  0  0  0  0  0
   37.3520   29.2740   42.2980 O   0  0  0  0  0  0  0  0  0  0  0  0
   35.2030   28.7550   40.7990 O   0  0  0  0  0  0  0  0  0  0  0  0
   36.3800   29.6920   40.9820 P   0  0  1  0  0  0  0  0  0  0  0  0
   35.7490   31.2570   41.2740 O   0  0  0  0  0  0  0  0  0  0  0  0
   35.0050   31.4210   40.6400 H   0  0  0  0  0  0  0  0  0  0  0  0
   37.3410   29.7550   39.5960 O   0  0  0  0  0  0  0  0  0  0  0  0
   36.6600   30.3070   38.5180 C   0  0  0  0  0  2  0  0  0  0  0  0
   37.5980   31.2980   37.8280 C   0  0  0  0  0  2  0  0  0  0  0  0
   37.3700   32.3520   38.1350 H   0  0  0  0  0  0  0  0  0  0  0  0
  1  4  1  6  0  0  0
  1  8  1  0  0  0  0
  1  2  1  0  0  0  0
  2  6  1  0  0  0  0
  3  7  1  6  0  0  0
  3  1  1  0  0  0  0
  3 20  1  0  0  0  0
  3  2  1  0  0  0  0
  5  2  1  0  0  0  0
  8  9  1  0  0  0  0
  8 10  1  0  0  0  0
 11  8  1  0  0  0  0
 12 11  2  0  0  0  0
 13 12  1  0  0  0  0
 14 13  2  0  0  0  0
 14 15  1  0  0  0  0
 15 16  2  0  0  0  0
 16 11  1  0  0  0  0
 17 12  1  0  0  0  0
 18 13  1  0  0  0  0
 19 15  1  0  0  0  0
 22 21  2  6  0  0  0
 22 23  1  0  0  0  0
 22 20  1  0  0  0  0
 24 23  1  0  0  0  0
 25 22  1  0  0  0  0
 26 25  1  0  0  0  0
 27 28  1  0  0  0  0
 27 26  1  0  0  0  0
M  END
>  <minimizedAffinity>
-4.22336054

$$$$

 OpenBabel03252500453D

 28 29  0  0  1  0  0  0  0  0999 V2000
   38.8240   28.0880   42.4890 C   0  0  1  0  0  0  0  0  0  0  0  0
   39.5690   29.3880   42.7390 C   0  0  0  0  0  0  0  0  0  0  0  0
   38.1370   29.4010   42.2490 C   0  0  1  0  0  0  0  0  0  0  0  0
   38.5190   27.6210   43.4480 H   0  0  0  0  0  0  0  0  0  0  0  0
   39.8010   29.7270   43.7500 H   0  0  0  0  0  0  0  0  0  0  0  0
   40.3400   29.6730   41.9670 H   0  0  0  0  0  0  0  0  0  0  0  0
   37.3820   29.7790   42.9670 H   0  0  0  0  0  0  0  0  0  0  0  0
   39.1920   27.3350   41.2770 C   0  0  0  0  0  0  0  0  0  0  0  0
   38.7330   27.8670   40.3960 H   0  0  0  0  0  0  0  0  0  0  0  0
   40.2790   27.3100   41.1180 H   0  0  0  0  0  0  0  0  0  0  0  0
   38.6800   25.9560   41.2270 C   0  0  0  0  0  0  0  0  0  0  0  0
   37.5210   25.7720   41.9330 C   0  0  0  0  0  0  0  0  0  0  0  0
   36.9220   24.5060   41.9790 C   0  0  0  0  0  0  0  0  0  0  0  0
   37.5690   23.5080   41.2830 N   0  0  0  0  0  0  0  0  0  0  0  0
   38.7100   23.7160   40.5950 C   0  0  0  0  0  0  0  0  0  0  0  0
   39.2420   24.9300   40.5800 N   0  0  0  0  0  0  0  0  0  0  0  0
   36.8750   26.4110   42.5200 H   0  0  0  0  0  0  0  0  0  0  0  0
   36.0200   24.1920   42.4830 H   0  0  0  0  0  0  0  0  0  0  0  0
   39.1390   22.8790   40.0860 H   0  0  0  0  0  0  0  0  0  0  0  0
   37.9220   29.7600   40.9440 O   0  0  0  0  0  0  0  0  0  0  0  0
   35.5490   28.5350   40.9360 O   0  0  0  0  0  0  0  0  0  0  0  0
   36.2820   29.8030   40.5470 P   0  0  1  0  0  0  0  0  0  0  0  0
   35.5680   31.0950   41.4130 O   0  0  0  0  0  0  0  0  0  0  0  0
   34.5820   30.9940   41.3770 H   0  0  0  0  0  0  0  0  0  0  0  0
   36.1330   30.1200   38.8960 O   0  0  0  0  0  0  0  0  0  0  0  0
   35.8850   28.9630   38.1670 C   0  0  0  0  0  2  0  0  0  0  0  0
   34.4720   29.0620   37.5930 C   0  0  0  0  0  2  0  0  0  0  0  0
   33.7420   28.4770   38.2120 H   0  0  0  0  0  0  0  0  0  0  0  0
  1  2  1  0  0  0  0
  1  4  1  1  0  0  0
  2  5  1  0  0  0  0
  3  1  1  0  0  0  0
  3  2  1  0  0  0  0
  3  7  1  1  0  0  0
  6  2  1  0  0  0  0
  8  1  1  0  0  0  0
  9  8  1  0  0  0  0
 10  8  1  0  0  0  0
 11  8  1  0  0  0  0
 11 12  1  0  0  0  0
 12 13  2  0  0  0  0
 12 17  1  0  0  0  0
 13 18  1  0  0  0  0
 14 13  1  0  0  0  0
 15 14  2  0  0  0  0
 16 15  1  0  0  0  0
 16 11  2  0  0  0  0
 19 15  1  0  0  0  0
 20  3  1  0  0  0  0
 22 21  2  1  0  0  0
 22 20  1  0  0  0  0
 22 23  1  0  0  0  0
 24 23  1  0  0  0  0
 25 22  1  0  0  0  0
 26 25  1  0  0  0  0
 27 26  1  0  0  0  0
 27 28  1  0  0  0  0
M  END
>  <minimizedAffinity>
-4.1744833

$$$$
