
 OpenBabel03252506223D

 29 30  0  0  0  0  0  0  0  0999 V2000
   38.8520   31.5330   38.8780 C   0  0  0  0  0  0  0  0  0  0  0  0
   37.9310   32.5850   38.8190 C   0  0  0  0  0  0  0  0  0  0  0  0
   36.8780   32.5680   39.7330 C   0  0  0  0  0  0  0  0  0  0  0  0
   36.7910   31.5510   40.6270 N   0  0  0  0  0  0  0  0  0  0  0  0
   37.6990   30.5530   40.6530 C   0  0  0  0  0  0  0  0  0  0  0  0
   38.7320   30.5440   39.7780 N   0  0  0  0  0  0  0  0  0  0  0  0
   38.0800   33.3550   38.0700 H   0  0  0  0  0  0  0  0  0  0  0  0
   36.1610   33.3830   39.6910 H   0  0  0  0  0  0  0  0  0  0  0  0
   39.6820   30.6100   42.9390 Cl  0  0  0  0  0  0  0  0  0  0  0  0
   38.4060   29.4570   42.7250 C   0  0  0  0  0  0  0  0  0  0  0  0
   37.5270   29.4870   41.6540 C   0  0  0  0  0  0  0  0  0  0  0  0
   36.5120   28.5890   41.4650 C   0  0  0  0  0  0  0  0  0  0  0  0
   36.3710   27.6070   42.4040 C   0  0  0  0  0  0  0  0  0  0  0  0
   37.1720   27.4680   43.5060 C   0  0  0  0  0  0  0  0  0  0  0  0
   38.1810   28.4240   43.6220 C   0  0  0  0  0  0  0  0  0  0  0  0
   35.8420   28.6380   40.6160 H   0  0  0  0  0  0  0  0  0  0  0  0
   35.5790   26.8660   42.2950 H   0  0  0  0  0  0  0  0  0  0  0  0
   37.1010   26.7080   44.2740 H   0  0  0  0  0  0  0  0  0  0  0  0
   38.8610   28.3830   44.4740 H   0  0  0  0  0  0  0  0  0  0  0  0
   39.9740   31.5220   37.9280 C   0  0  0  0  0  3  0  0  0  0  0  0
   40.8420   32.4930   37.9810 C   0  0  0  0  0  3  0  0  0  0  0  0
   41.9980   32.5390   37.0450 C   0  0  0  0  0  0  0  0  0  0  0  0
   42.8390   31.9690   37.4580 H   0  0  0  0  0  0  0  0  0  0  0  0
   41.6260   32.0770   36.0920 H   0  0  0  0  0  0  0  0  0  0  0  0
   42.3840   33.9130   36.8580 N   0  0  0  0  0  0  0  0  0  0  0  0
   41.5910   34.5810   36.7850 H   0  0  0  0  0  0  0  0  0  0  0  0
   43.4560   34.3470   37.7030 C   0  0  0  0  0  2  0  0  0  0  0  0
   44.4740   33.2910   37.9860 C   0  0  0  0  0  2  0  0  0  0  0  0
   45.4520   33.6170   37.5190 H   0  0  0  0  0  0  0  0  0  0  0  0
  1  6  1  0  0  0  0
  2  1  2  0  0  0  0
  2  3  1  0  0  0  0
  3  4  2  0  0  0  0
  4  5  1  0  0  0  0
  5 11  1  0  0  0  0
  6  5  2  0  0  0  0
  7  2  1  0  0  0  0
  8  3  1  0  0  0  0
 10  9  1  0  0  0  0
 10 15  1  0  0  0  0
 11 10  2  0  0  0  0
 12 11  1  0  0  0  0
 12 13  2  0  0  0  0
 13 14  1  0  0  0  0
 14 15  2  0  0  0  0
 14 18  1  0  0  0  0
 15 19  1  0  0  0  0
 16 12  1  0  0  0  0
 17 13  1  0  0  0  0
 20 21  2  0  0  0  0
 20  1  1  0  0  0  0
 22 23  1  0  0  0  0
 22 21  1  0  0  0  0
 24 22  1  0  0  0  0
 25 22  1  0  0  0  0
 25 27  1  0  0  0  0
 26 25  1  0  0  0  0
 27 28  1  0  0  0  0
 29 28  1  0  0  0  0
M  END
>  <minimizedAffinity>
-5.06442833

$$$$

 OpenBabel03252506223D

 29 30  0  0  0  0  0  0  0  0999 V2000
   37.1610   30.6660   38.1550 C   0  0  0  0  0  0  0  0  0  0  0  0
   37.1760   32.0400   38.4160 C   0  0  0  0  0  0  0  0  0  0  0  0
   37.3380   32.4390   39.7430 C   0  0  0  0  0  0  0  0  0  0  0  0
   37.4740   31.4960   40.7090 N   0  0  0  0  0  0  0  0  0  0  0  0
   37.4560   30.1780   40.4170 C   0  0  0  0  0  0  0  0  0  0  0  0
   37.2990   29.7620   39.1390 N   0  0  0  0  0  0  0  0  0  0  0  0
   37.0600   32.7210   37.5810 H   0  0  0  0  0  0  0  0  0  0  0  0
   37.3510   33.5050   39.9490 H   0  0  0  0  0  0  0  0  0  0  0  0
   40.2290   30.0370   41.6180 Cl  0  0  0  0  0  0  0  0  0  0  0  0
   38.8540   29.1090   42.1190 C   0  0  0  0  0  0  0  0  0  0  0  0
   37.6060   29.2230   41.5260 C   0  0  0  0  0  0  0  0  0  0  0  0
   36.5050   28.5020   41.9050 C   0  0  0  0  0  0  0  0  0  0  0  0
   36.6670   27.6190   42.9350 C   0  0  0  0  0  0  0  0  0  0  0  0
   37.8460   27.4140   43.6020 C   0  0  0  0  0  0  0  0  0  0  0  0
   38.9150   28.1880   43.1530 C   0  0  0  0  0  0  0  0  0  0  0  0
   35.5430   28.6120   41.4210 H   0  0  0  0  0  0  0  0  0  0  0  0
   35.8210   27.0200   43.2700 H   0  0  0  0  0  0  0  0  0  0  0  0
   38.0230   26.7270   44.4200 H   0  0  0  0  0  0  0  0  0  0  0  0
   39.8900   28.0840   43.6340 H   0  0  0  0  0  0  0  0  0  0  0  0
   36.9910   30.2120   36.7670 C   0  0  0  0  0  3  0  0  0  0  0  0
   36.1630   29.2320   36.5310 C   0  0  0  0  0  3  0  0  0  0  0  0
   35.9490   28.7260   35.1480 C   0  0  0  0  0  0  0  0  0  0  0  0
   35.8900   27.6320   35.1520 H   0  0  0  0  0  0  0  0  0  0  0  0
   34.9800   29.1830   34.8130 H   0  0  0  0  0  0  0  0  0  0  0  0
   37.0520   29.1520   34.3270 N   0  0  0  0  0  0  0  0  0  0  0  0
   37.8270   28.4640   34.2480 H   0  0  0  0  0  0  0  0  0  0  0  0
   36.6680   29.7670   33.0920 C   0  0  0  0  0  2  0  0  0  0  0  0
   36.3000   31.2090   33.2170 C   0  0  0  0  0  2  0  0  0  0  0  0
   37.0620   31.8130   32.6360 H   0  0  0  0  0  0  0  0  0  0  0  0
  1  2  2  0  0  0  0
  1  6  1  0  0  0  0
  2  3  1  0  0  0  0
  3  8  1  0  0  0  0
  3  4  2  0  0  0  0
  5  4  1  0  0  0  0
  5 11  1  0  0  0  0
  6  5  2  0  0  0  0
  7  2  1  0  0  0  0
  9 10  1  0  0  0  0
 10 15  1  0  0  0  0
 11 12  1  0  0  0  0
 11 10  2  0  0  0  0
 12 13  2  0  0  0  0
 13 17  1  0  0  0  0
 13 14  1  0  0  0  0
 14 18  1  0  0  0  0
 15 14  2  0  0  0  0
 15 19  1  0  0  0  0
 16 12  1  0  0  0  0
 20  1  1  0  0  0  0
 21 20  2  0  0  0  0
 22 23  1  0  0  0  0
 22 21  1  0  0  0  0
 24 22  1  0  0  0  0
 25 22  1  0  0  0  0
 26 25  1  0  0  0  0
 27 28  1  0  0  0  0
 27 25  1  0  0  0  0
 29 28  1  0  0  0  0
M  END
>  <minimizedAffinity>
-5.06348467

$$$$

 OpenBabel03252506223D

 29 30  0  0  0  0  0  0  0  0999 V2000
   33.9730   28.3850   37.7140 C   0  0  0  0  0  0  0  0  0  0  0  0
   33.8110   27.1380   37.0990 C   0  0  0  0  0  0  0  0  0  0  0  0
   32.8060   27.0210   36.1400 C   0  0  0  0  0  0  0  0  0  0  0  0
   32.0390   28.1000   35.8450 N   0  0  0  0  0  0  0  0  0  0  0  0
   32.2260   29.2880   36.4590 C   0  0  0  0  0  0  0  0  0  0  0  0
   33.1930   29.4310   37.3940 N   0  0  0  0  0  0  0  0  0  0  0  0
   34.4700   26.3310   37.3990 H   0  0  0  0  0  0  0  0  0  0  0  0
   32.6780   26.0540   35.6610 H   0  0  0  0  0  0  0  0  0  0  0  0
   30.2630   30.1510   38.5940 Cl  0  0  0  0  0  0  0  0  0  0  0  0
   30.4240   30.8490   37.0160 C   0  0  0  0  0  0  0  0  0  0  0  0
   31.3470   30.4070   36.0820 C   0  0  0  0  0  0  0  0  0  0  0  0
   31.4930   30.9430   34.8300 C   0  0  0  0  0  0  0  0  0  0  0  0
   30.6660   31.9790   34.5000 C   0  0  0  0  0  0  0  0  0  0  0  0
   29.7150   32.5060   35.3320 C   0  0  0  0  0  0  0  0  0  0  0  0
   29.6320   31.9030   36.5860 C   0  0  0  0  0  0  0  0  0  0  0  0
   32.2230   30.5750   34.1210 H   0  0  0  0  0  0  0  0  0  0  0  0
   30.7420   32.4360   33.5140 H   0  0  0  0  0  0  0  0  0  0  0  0
   29.0370   33.3230   35.1150 H   0  0  0  0  0  0  0  0  0  0  0  0
   28.8990   32.2660   37.3080 H   0  0  0  0  0  0  0  0  0  0  0  0
   35.0230   28.5420   38.7300 C   0  0  0  0  0  3  0  0  0  0  0  0
   34.7320   29.1770   39.8300 C   0  0  0  0  0  3  0  0  0  0  0  0
   35.7530   29.3710   40.8960 C   0  0  0  0  0  0  0  0  0  0  0  0
   35.5040   28.7590   41.7710 H   0  0  0  0  0  0  0  0  0  0  0  0
   36.7240   29.0460   40.4380 H   0  0  0  0  0  0  0  0  0  0  0  0
   35.7740   30.7620   41.2640 N   0  0  0  0  0  0  0  0  0  0  0  0
   35.6300   30.9470   42.2770 H   0  0  0  0  0  0  0  0  0  0  0  0
   36.8330   31.5170   40.6630 C   0  0  0  0  0  2  0  0  0  0  0  0
   38.1660   30.8440   40.7150 C   0  0  0  0  0  2  0  0  0  0  0  0
   38.4800   30.6120   39.6520 H   0  0  0  0  0  0  0  0  0  0  0  0
  1 20  1  0  0  0  0
  2  7  1  0  0  0  0
  2  1  2  0  0  0  0
  3  2  1  0  0  0  0
  4  3  2  0  0  0  0
  4  5  1  0  0  0  0
  5  6  2  0  0  0  0
  6  1  1  0  0  0  0
  8  3  1  0  0  0  0
 10  9  1  0  0  0  0
 11  5  1  0  0  0  0
 11 10  2  0  0  0  0
 12 11  1  0  0  0  0
 13 12  2  0  0  0  0
 13 14  1  0  0  0  0
 14 15  2  0  0  0  0
 15 10  1  0  0  0  0
 15 19  1  0  0  0  0
 16 12  1  0  0  0  0
 17 13  1  0  0  0  0
 18 14  1  0  0  0  0
 20 21  2  0  0  0  0
 21 22  1  0  0  0  0
 22 25  1  0  0  0  0
 22 23  1  0  0  0  0
 24 22  1  0  0  0  0
 25 26  1  0  0  0  0
 27 28  1  0  0  0  0
 27 25  1  0  0  0  0
 29 28  1  0  0  0  0
M  END
>  <minimizedAffinity>
-5.00818062

$$$$

 OpenBabel03252506223D

 29 30  0  0  0  0  0  0  0  0999 V2000
   38.3420   30.7040   40.2630 C   0  0  0  0  0  0  0  0  0  0  0  0
   37.2290   31.5070   40.5370 C   0  0  0  0  0  0  0  0  0  0  0  0
   36.0640   30.8670   40.9610 C   0  0  0  0  0  0  0  0  0  0  0  0
   36.0570   29.5170   41.0900 N   0  0  0  0  0  0  0  0  0  0  0  0
   37.1510   28.7750   40.8170 C   0  0  0  0  0  0  0  0  0  0  0  0
   38.2950   29.3690   40.4030 N   0  0  0  0  0  0  0  0  0  0  0  0
   37.3270   32.5790   40.4050 H   0  0  0  0  0  0  0  0  0  0  0  0
   35.1990   31.4880   41.1750 H   0  0  0  0  0  0  0  0  0  0  0  0
   37.6800   27.7620   43.6180 Cl  0  0  0  0  0  0  0  0  0  0  0  0
   37.2890   26.7880   42.2400 C   0  0  0  0  0  0  0  0  0  0  0  0
   37.0560   27.3160   40.9790 C   0  0  0  0  0  0  0  0  0  0  0  0
   36.7450   26.5670   39.8760 C   0  0  0  0  0  0  0  0  0  0  0  0
   36.6620   25.2140   40.0490 C   0  0  0  0  0  0  0  0  0  0  0  0
   36.8700   24.5710   41.2400 C   0  0  0  0  0  0  0  0  0  0  0  0
   37.1820   25.4070   42.3110 C   0  0  0  0  0  0  0  0  0  0  0  0
   36.5690   27.0080   38.9040 H   0  0  0  0  0  0  0  0  0  0  0  0
   36.4210   24.5750   39.2000 H   0  0  0  0  0  0  0  0  0  0  0  0
   36.8180   23.5050   41.4260 H   0  0  0  0  0  0  0  0  0  0  0  0
   37.3610   24.9720   43.2960 H   0  0  0  0  0  0  0  0  0  0  0  0
   39.5850   31.3470   39.8130 C   0  0  0  0  0  3  0  0  0  0  0  0
   39.5050   32.5070   39.2240 C   0  0  0  0  0  3  0  0  0  0  0  0
   40.7270   33.2080   38.7450 C   0  0  0  0  0  0  0  0  0  0  0  0
   40.6200   34.2900   38.8840 H   0  0  0  0  0  0  0  0  0  0  0  0
   41.5660   32.8010   39.3690 H   0  0  0  0  0  0  0  0  0  0  0  0
   40.9090   32.9110   37.3480 N   0  0  0  0  0  0  0  0  0  0  0  0
   40.5980   33.6610   36.6990 H   0  0  0  0  0  0  0  0  0  0  0  0
   42.1780   32.3300   37.0270 C   0  0  0  0  0  2  0  0  0  0  0  0
   42.1360   30.8520   36.8170 C   0  0  0  0  0  2  0  0  0  0  0  0
   42.3960   30.6470   35.7340 H   0  0  0  0  0  0  0  0  0  0  0  0
  1  6  2  0  0  0  0
  1  2  1  0  0  0  0
  2  3  2  0  0  0  0
  3  4  1  0  0  0  0
  3  8  1  0  0  0  0
  5 11  1  0  0  0  0
  5  4  2  0  0  0  0
  6  5  1  0  0  0  0
  7  2  1  0  0  0  0
 10 15  1  0  0  0  0
 10  9  1  0  0  0  0
 11 10  2  0  0  0  0
 12 13  2  0  0  0  0
 12 11  1  0  0  0  0
 13 14  1  0  0  0  0
 14 18  1  0  0  0  0
 14 15  2  0  0  0  0
 15 19  1  0  0  0  0
 16 12  1  0  0  0  0
 17 13  1  0  0  0  0
 20  1  1  0  0  0  0
 21 20  2  0  0  0  0
 22 23  1  0  0  0  0
 22 21  1  0  0  0  0
 22 24  1  0  0  0  0
 25 22  1  0  0  0  0
 26 25  1  0  0  0  0
 27 25  1  0  0  0  0
 28 27  1  0  0  0  0
 29 28  1  0  0  0  0
M  END
>  <minimizedAffinity>
-4.96064091

$$$$

 OpenBabel03252506223D

 29 30  0  0  0  0  0  0  0  0999 V2000
   38.0400   28.9180   41.7470 C   0  0  0  0  0  0  0  0  0  0  0  0
   37.5380   29.0830   43.0430 C   0  0  0  0  0  0  0  0  0  0  0  0
   37.0220   27.9540   43.6800 C   0  0  0  0  0  0  0  0  0  0  0  0
   37.0280   26.7640   43.0290 N   0  0  0  0  0  0  0  0  0  0  0  0
   37.5210   26.6440   41.7790 C   0  0  0  0  0  0  0  0  0  0  0  0
   38.0280   27.7220   41.1360 N   0  0  0  0  0  0  0  0  0  0  0  0
   37.5740   30.0730   43.4840 H   0  0  0  0  0  0  0  0  0  0  0  0
   36.6330   28.0780   44.6860 H   0  0  0  0  0  0  0  0  0  0  0  0
   39.5380   24.6590   42.8500 Cl  0  0  0  0  0  0  0  0  0  0  0  0
   38.3860   24.3610   41.5910 C   0  0  0  0  0  0  0  0  0  0  0  0
   37.4850   25.3160   41.1450 C   0  0  0  0  0  0  0  0  0  0  0  0
   36.5660   25.1040   40.1540 C   0  0  0  0  0  0  0  0  0  0  0  0
   36.5510   23.8650   39.5780 C   0  0  0  0  0  0  0  0  0  0  0  0
   37.3860   22.8380   39.9270 C   0  0  0  0  0  0  0  0  0  0  0  0
   38.2920   23.1380   40.9440 C   0  0  0  0  0  0  0  0  0  0  0  0
   35.8760   25.8700   39.8260 H   0  0  0  0  0  0  0  0  0  0  0  0
   35.8390   23.6480   38.7820 H   0  0  0  0  0  0  0  0  0  0  0  0
   37.4130   21.8420   39.5000 H   0  0  0  0  0  0  0  0  0  0  0  0
   38.9920   22.3720   41.2820 H   0  0  0  0  0  0  0  0  0  0  0  0
   38.5900   30.0880   41.0480 C   0  0  0  0  0  3  0  0  0  0  0  0
   39.1910   31.0060   41.7520 C   0  0  0  0  0  3  0  0  0  0  0  0
   39.7680   32.2150   41.1030 C   0  0  0  0  0  0  0  0  0  0  0  0
   40.7820   32.3950   41.4770 H   0  0  0  0  0  0  0  0  0  0  0  0
   39.7750   31.9850   40.0050 H   0  0  0  0  0  0  0  0  0  0  0  0
   38.9280   33.3440   41.4070 N   0  0  0  0  0  0  0  0  0  0  0  0
   39.2640   33.9380   42.1920 H   0  0  0  0  0  0  0  0  0  0  0  0
   38.4730   34.0700   40.2590 C   0  0  0  0  0  2  0  0  0  0  0  0
   37.3400   33.4180   39.5360 C   0  0  0  0  0  2  0  0  0  0  0  0
   36.4360   34.0940   39.6280 H   0  0  0  0  0  0  0  0  0  0  0  0
  1  2  1  0  0  0  0
  2  7  1  0  0  0  0
  2  3  2  0  0  0  0
  3  8  1  0  0  0  0
  4  3  1  0  0  0  0
  5  4  2  0  0  0  0
  6  1  2  0  0  0  0
  6  5  1  0  0  0  0
 10  9  1  0  0  0  0
 11 10  1  0  0  0  0
 11  5  1  0  0  0  0
 12 11  2  0  0  0  0
 13 14  2  0  0  0  0
 13 12  1  0  0  0  0
 14 15  1  0  0  0  0
 15 19  1  0  0  0  0
 15 10  2  0  0  0  0
 16 12  1  0  0  0  0
 17 13  1  0  0  0  0
 18 14  1  0  0  0  0
 20  1  1  0  0  0  0
 20 21  2  0  0  0  0
 22 25  1  0  0  0  0
 22 23  1  0  0  0  0
 22 21  1  0  0  0  0
 24 22  1  0  0  0  0
 25 26  1  0  0  0  0
 27 25  1  0  0  0  0
 28 29  1  0  0  0  0
 28 27  1  0  0  0  0
M  END
>  <minimizedAffinity>
-4.87354183

$$$$

 OpenBabel03252506223D

 29 30  0  0  0  0  0  0  0  0999 V2000
   37.3690   30.8530   38.2200 C   0  0  0  0  0  0  0  0  0  0  0  0
   37.2100   32.2030   38.5510 C   0  0  0  0  0  0  0  0  0  0  0  0
   37.4950   32.5800   39.8640 C   0  0  0  0  0  0  0  0  0  0  0  0
   37.9080   31.6400   40.7500 N   0  0  0  0  0  0  0  0  0  0  0  0
   38.0500   30.3460   40.3930 C   0  0  0  0  0  0  0  0  0  0  0  0
   37.7810   29.9520   39.1270 N   0  0  0  0  0  0  0  0  0  0  0  0
   36.8750   32.8840   37.7770 H   0  0  0  0  0  0  0  0  0  0  0  0
   37.3720   33.6280   40.1240 H   0  0  0  0  0  0  0  0  0  0  0  0
   35.9080   28.4770   41.4280 Cl  0  0  0  0  0  0  0  0  0  0  0  0
   37.5640   28.5080   41.9360 C   0  0  0  0  0  0  0  0  0  0  0  0
   38.4990   29.3910   41.4190 C   0  0  0  0  0  0  0  0  0  0  0  0
   39.8130   29.4340   41.8030 C   0  0  0  0  0  0  0  0  0  0  0  0
   40.2080   28.5400   42.7570 C   0  0  0  0  0  0  0  0  0  0  0  0
   39.3840   27.6180   43.3450 C   0  0  0  0  0  0  0  0  0  0  0  0
   38.0630   27.6430   42.8970 C   0  0  0  0  0  0  0  0  0  0  0  0
   40.5200   30.1370   41.3820 H   0  0  0  0  0  0  0  0  0  0  0  0
   41.2430   28.5370   43.0980 H   0  0  0  0  0  0  0  0  0  0  0  0
   39.6500   26.8930   44.1040 H   0  0  0  0  0  0  0  0  0  0  0  0
   37.3430   26.9380   43.3150 H   0  0  0  0  0  0  0  0  0  0  0  0
   37.0770   30.4230   36.8450 C   0  0  0  0  0  3  0  0  0  0  0  0
   36.3400   29.3620   36.6710 C   0  0  0  0  0  3  0  0  0  0  0  0
   36.0110   28.8740   35.3030 C   0  0  0  0  0  0  0  0  0  0  0  0
   35.8770   27.7870   35.3130 H   0  0  0  0  0  0  0  0  0  0  0  0
   35.0570   29.3970   35.0250 H   0  0  0  0  0  0  0  0  0  0  0  0
   37.0900   29.2260   34.4180 N   0  0  0  0  0  0  0  0  0  0  0  0
   37.8350   28.5060   34.3320 H   0  0  0  0  0  0  0  0  0  0  0  0
   36.6730   29.8060   33.1770 C   0  0  0  0  0  2  0  0  0  0  0  0
   36.1630   31.2050   33.2990 C   0  0  0  0  0  2  0  0  0  0  0  0
   36.8730   31.8840   32.7360 H   0  0  0  0  0  0  0  0  0  0  0  0
  1  2  2  0  0  0  0
  1  6  1  0  0  0  0
  2  3  1  0  0  0  0
  3  8  1  0  0  0  0
  3  4  2  0  0  0  0
  5  4  1  0  0  0  0
  5 11  1  0  0  0  0
  6  5  2  0  0  0  0
  7  2  1  0  0  0  0
  9 10  1  0  0  0  0
 10 15  1  0  0  0  0
 11 12  1  0  0  0  0
 11 10  2  0  0  0  0
 12 13  2  0  0  0  0
 13 17  1  0  0  0  0
 13 14  1  0  0  0  0
 14 18  1  0  0  0  0
 15 19  1  0  0  0  0
 15 14  2  0  0  0  0
 16 12  1  0  0  0  0
 20  1  1  0  0  0  0
 21 20  2  0  0  0  0
 22 23  1  0  0  0  0
 22 21  1  0  0  0  0
 24 22  1  0  0  0  0
 25 22  1  0  0  0  0
 26 25  1  0  0  0  0
 27 28  1  0  0  0  0
 27 25  1  0  0  0  0
 29 28  1  0  0  0  0
M  END
>  <minimizedAffinity>
-4.86346817

$$$$

 OpenBabel03252506223D

 29 30  0  0  0  0  0  0  0  0999 V2000
   38.3680   29.5150   42.4740 C   0  0  0  0  0  0  0  0  0  0  0  0
   38.0780   28.7410   43.6030 C   0  0  0  0  0  0  0  0  0  0  0  0
   37.0200   27.8370   43.5070 C   0  0  0  0  0  0  0  0  0  0  0  0
   36.3280   27.7450   42.3430 N   0  0  0  0  0  0  0  0  0  0  0  0
   36.6390   28.5090   41.2750 C   0  0  0  0  0  0  0  0  0  0  0  0
   37.6600   29.3950   41.3400 N   0  0  0  0  0  0  0  0  0  0  0  0
   38.6840   28.8830   44.4910 H   0  0  0  0  0  0  0  0  0  0  0  0
   36.7920   27.2350   44.3810 H   0  0  0  0  0  0  0  0  0  0  0  0
   37.6020   26.3540   39.3820 Cl  0  0  0  0  0  0  0  0  0  0  0  0
   36.2250   27.3780   39.1430 C   0  0  0  0  0  0  0  0  0  0  0  0
   35.8340   28.3480   40.0530 C   0  0  0  0  0  0  0  0  0  0  0  0
   34.7500   29.1670   39.8870 C   0  0  0  0  0  0  0  0  0  0  0  0
   34.0180   29.0030   38.7450 C   0  0  0  0  0  0  0  0  0  0  0  0
   34.2990   28.0820   37.7710 C   0  0  0  0  0  0  0  0  0  0  0  0
   35.4190   27.2890   38.0190 C   0  0  0  0  0  0  0  0  0  0  0  0
   34.4700   29.9180   40.6150 H   0  0  0  0  0  0  0  0  0  0  0  0
   33.1480   29.6330   38.5660 H   0  0  0  0  0  0  0  0  0  0  0  0
   33.7510   27.9150   36.8510 H   0  0  0  0  0  0  0  0  0  0  0  0
   35.7090   26.5300   37.2900 H   0  0  0  0  0  0  0  0  0  0  0  0
   39.4770   30.4780   42.5430 C   0  0  0  0  0  3  0  0  0  0  0  0
   40.1210   30.7620   41.4460 C   0  0  0  0  0  3  0  0  0  0  0  0
   41.2530   31.7280   41.4500 C   0  0  0  0  0  0  0  0  0  0  0  0
   41.8510   31.6020   42.3600 H   0  0  0  0  0  0  0  0  0  0  0  0
   41.8540   31.4830   40.5350 H   0  0  0  0  0  0  0  0  0  0  0  0
   40.7190   33.0630   41.3980 N   0  0  0  0  0  0  0  0  0  0  0  0
   41.3660   33.8050   41.7320 H   0  0  0  0  0  0  0  0  0  0  0  0
   40.0260   33.3760   40.1830 C   0  0  0  0  0  2  0  0  0  0  0  0
   38.7770   34.1710   40.3820 C   0  0  0  0  0  2  0  0  0  0  0  0
   38.9310   35.1840   39.8990 H   0  0  0  0  0  0  0  0  0  0  0  0
  1 20  1  0  0  0  0
  1  2  1  0  0  0  0
  2  7  1  0  0  0  0
  3  2  2  0  0  0  0
  3  8  1  0  0  0  0
  4  3  1  0  0  0  0
  5  6  1  0  0  0  0
  5  4  2  0  0  0  0
  6  1  2  0  0  0  0
 10  9  1  0  0  0  0
 10 11  1  0  0  0  0
 11  5  1  0  0  0  0
 12 11  2  0  0  0  0
 12 16  1  0  0  0  0
 13 12  1  0  0  0  0
 14 15  1  0  0  0  0
 14 13  2  0  0  0  0
 15 10  2  0  0  0  0
 17 13  1  0  0  0  0
 18 14  1  0  0  0  0
 19 15  1  0  0  0  0
 21 22  1  0  0  0  0
 21 20  2  0  0  0  0
 22 23  1  0  0  0  0
 24 22  1  0  0  0  0
 25 22  1  0  0  0  0
 25 26  1  0  0  0  0
 27 28  1  0  0  0  0
 27 25  1  0  0  0  0
 29 28  1  0  0  0  0
M  END
>  <minimizedAffinity>
-4.73695469

$$$$

 OpenBabel03252506223D

 29 30  0  0  0  0  0  0  0  0999 V2000
   37.1910   27.2320   41.5450 C   0  0  0  0  0  0  0  0  0  0  0  0
   37.1170   27.1300   42.9390 C   0  0  0  0  0  0  0  0  0  0  0  0
   37.3160   28.2950   43.6800 C   0  0  0  0  0  0  0  0  0  0  0  0
   37.5680   29.4590   43.0310 N   0  0  0  0  0  0  0  0  0  0  0  0
   37.6310   29.5190   41.6840 C   0  0  0  0  0  0  0  0  0  0  0  0
   37.4420   28.4040   40.9400 N   0  0  0  0  0  0  0  0  0  0  0  0
   36.9120   26.1560   43.3700 H   0  0  0  0  0  0  0  0  0  0  0  0
   37.2590   28.2180   44.7610 H   0  0  0  0  0  0  0  0  0  0  0  0
   40.4540   30.5380   42.0690 Cl  0  0  0  0  0  0  0  0  0  0  0  0
   39.1880   31.3460   41.2040 C   0  0  0  0  0  0  0  0  0  0  0  0
   37.9130   30.8230   41.0620 C   0  0  0  0  0  0  0  0  0  0  0  0
   36.8980   31.4410   40.3830 C   0  0  0  0  0  0  0  0  0  0  0  0
   37.1800   32.6510   39.8150 C   0  0  0  0  0  0  0  0  0  0  0  0
   38.3980   33.2740   39.8820 C   0  0  0  0  0  0  0  0  0  0  0  0
   39.3740   32.5760   40.5930 C   0  0  0  0  0  0  0  0  0  0  0  0
   35.9100   31.0080   40.2910 H   0  0  0  0  0  0  0  0  0  0  0  0
   36.4030   33.1840   39.2670 H   0  0  0  0  0  0  0  0  0  0  0  0
   38.6680   34.2300   39.4510 H   0  0  0  0  0  0  0  0  0  0  0  0
   40.3730   33.0050   40.6910 H   0  0  0  0  0  0  0  0  0  0  0  0
   36.9870   26.0230   40.7350 C   0  0  0  0  0  3  0  0  0  0  0  0
   37.0030   24.8650   41.3340 C   0  0  0  0  0  3  0  0  0  0  0  0
   36.8040   23.6040   40.5690 C   0  0  0  0  0  0  0  0  0  0  0  0
   35.8830   23.1070   40.8950 H   0  0  0  0  0  0  0  0  0  0  0  0
   36.7350   23.9180   39.4940 H   0  0  0  0  0  0  0  0  0  0  0  0
   37.9330   22.7420   40.8020 N   0  0  0  0  0  0  0  0  0  0  0  0
   37.7720   21.9950   41.5070 H   0  0  0  0  0  0  0  0  0  0  0  0
   38.6030   22.3090   39.6120 C   0  0  0  0  0  2  0  0  0  0  0  0
   39.5260   23.3280   39.0280 C   0  0  0  0  0  2  0  0  0  0  0  0
   40.5810   22.9220   39.1000 H   0  0  0  0  0  0  0  0  0  0  0  0
  1  2  1  0  0  0  0
  2  7  1  0  0  0  0
  2  3  2  0  0  0  0
  3  8  1  0  0  0  0
  4  3  1  0  0  0  0
  5  4  2  0  0  0  0
  6  1  2  0  0  0  0
  6  5  1  0  0  0  0
 10  9  1  0  0  0  0
 11 10  1  0  0  0  0
 11  5  1  0  0  0  0
 12 11  2  0  0  0  0
 13 14  2  0  0  0  0
 13 12  1  0  0  0  0
 14 15  1  0  0  0  0
 15 19  1  0  0  0  0
 15 10  2  0  0  0  0
 16 12  1  0  0  0  0
 17 13  1  0  0  0  0
 18 14  1  0  0  0  0
 20 21  2  0  0  0  0
 20  1  1  0  0  0  0
 22 25  1  0  0  0  0
 22 23  1  0  0  0  0
 22 21  1  0  0  0  0
 24 22  1  0  0  0  0
 25 26  1  0  0  0  0
 27 25  1  0  0  0  0
 28 29  1  0  0  0  0
 28 27  1  0  0  0  0
M  END
>  <minimizedAffinity>
-4.70160246

$$$$

 OpenBabel03252506223D

 29 30  0  0  0  0  0  0  0  0999 V2000
   34.6690   28.8310   38.3260 C   0  0  0  0  0  0  0  0  0  0  0  0
   35.5250   28.7770   37.2200 C   0  0  0  0  0  0  0  0  0  0  0  0
   36.8740   28.5220   37.4630 C   0  0  0  0  0  0  0  0  0  0  0  0
   37.2960   28.3380   38.7400 N   0  0  0  0  0  0  0  0  0  0  0  0
   36.4400   28.3970   39.7820 C   0  0  0  0  0  0  0  0  0  0  0  0
   35.1250   28.6430   39.5750 N   0  0  0  0  0  0  0  0  0  0  0  0
   35.0990   28.9360   36.2350 H   0  0  0  0  0  0  0  0  0  0  0  0
   37.5400   28.4790   36.6070 H   0  0  0  0  0  0  0  0  0  0  0  0
   37.3260   30.9160   41.2060 Cl  0  0  0  0  0  0  0  0  0  0  0  0
   37.4080   29.3050   41.8390 C   0  0  0  0  0  0  0  0  0  0  0  0
   36.9820   28.1900   41.1340 C   0  0  0  0  0  0  0  0  0  0  0  0
   37.0360   26.9090   41.6140 C   0  0  0  0  0  0  0  0  0  0  0  0
   37.5440   26.7390   42.8710 C   0  0  0  0  0  0  0  0  0  0  0  0
   37.9960   27.7560   43.6680 C   0  0  0  0  0  0  0  0  0  0  0  0
   37.9070   29.0280   43.1030 C   0  0  0  0  0  0  0  0  0  0  0  0
   36.6970   26.0570   41.0390 H   0  0  0  0  0  0  0  0  0  0  0  0
   37.6100   25.7370   43.2950 H   0  0  0  0  0  0  0  0  0  0  0  0
   38.4080   27.6710   44.6660 H   0  0  0  0  0  0  0  0  0  0  0  0
   38.2460   29.8930   43.6750 H   0  0  0  0  0  0  0  0  0  0  0  0
   33.2410   29.0980   38.1030 C   0  0  0  0  0  3  0  0  0  0  0  0
   32.8200   29.2380   36.8780 C   0  0  0  0  0  3  0  0  0  0  0  0
   31.3860   29.5120   36.5870 C   0  0  0  0  0  0  0  0  0  0  0  0
   31.2870   30.4510   36.0320 H   0  0  0  0  0  0  0  0  0  0  0  0
   31.0370   28.6400   35.9720 H   0  0  0  0  0  0  0  0  0  0  0  0
   30.6740   29.6040   37.8350 N   0  0  0  0  0  0  0  0  0  0  0  0
   31.1890   29.2320   38.6590 H   0  0  0  0  0  0  0  0  0  0  0  0
   30.0230   30.8610   38.0540 C   0  0  0  0  0  2  0  0  0  0  0  0
   30.1740   31.8290   36.9270 C   0  0  0  0  0  2  0  0  0  0  0  0
   29.1480   32.0080   36.4820 H   0  0  0  0  0  0  0  0  0  0  0  0
  1  6  1  0  0  0  0
  2  3  1  0  0  0  0
  2  1  2  0  0  0  0
  3  4  2  0  0  0  0
  4  5  1  0  0  0  0
  5 11  1  0  0  0  0
  6  5  2  0  0  0  0
  7  2  1  0  0  0  0
  8  3  1  0  0  0  0
  9 10  1  0  0  0  0
 10 15  1  0  0  0  0
 11 12  1  0  0  0  0
 11 10  2  0  0  0  0
 12 13  2  0  0  0  0
 13 17  1  0  0  0  0
 13 14  1  0  0  0  0
 14 18  1  0  0  0  0
 15 14  2  0  0  0  0
 15 19  1  0  0  0  0
 16 12  1  0  0  0  0
 20  1  1  0  0  0  0
 21 20  2  0  0  0  0
 22 21  1  0  0  0  0
 22 25  1  0  0  0  0
 23 22  1  0  0  0  0
 24 22  1  0  0  0  0
 25 27  1  0  0  0  0
 25 26  1  0  0  0  0
 28 27  1  0  0  0  0
 29 28  1  0  0  0  0
M  END
>  <minimizedAffinity>
-4.67553329

$$$$
