
 OpenBabel03252509313D

 21 21  0  0  0  0  0  0  0  0999 V2000
   47.2430   33.8690   42.6190 C   0  0  0  0  0  0  0  0  0  0  0  0
   47.2580   34.4410   41.6830 H   0  0  0  0  0  0  0  0  0  0  0  0
   46.8650   32.8440   42.3460 H   0  0  0  0  0  0  0  0  0  0  0  0
   45.2330   34.2720   45.7360 C   0  0  0  0  0  0  0  0  0  0  0  0
   46.1430   33.7450   44.8010 C   0  0  0  0  0  0  0  0  0  0  0  0
   46.3000   34.4030   43.6040 C   0  0  0  0  0  0  0  0  0  0  0  0
   45.5710   35.5350   43.3730 N   0  0  0  0  0  0  0  0  0  0  0  0
   44.6930   36.0300   44.2930 C   0  0  0  0  0  0  0  0  0  0  0  0
   44.5430   35.3900   45.4520 N   0  0  0  0  0  0  0  0  0  0  0  0
   45.1540   33.7100   46.6580 H   0  0  0  0  0  0  0  0  0  0  0  0
   46.7190   32.8460   44.9920 H   0  0  0  0  0  0  0  0  0  0  0  0
   44.1400   36.9380   44.0490 H   0  0  0  0  0  0  0  0  0  0  0  0
   48.5010   33.6440   43.1770 O   0  0  0  0  0  0  0  0  0  0  0  0
   50.9990   33.6130   42.4270 O   0  0  0  0  0  0  0  0  0  0  0  0
   49.5900   33.4750   41.8950 P   0  0  2  0  0  0  0  0  0  0  0  0
   49.2030   34.6480   40.7610 O   0  0  0  0  0  0  0  0  0  0  0  0
   49.8600   35.3740   40.6720 H   0  0  0  0  0  0  0  0  0  0  0  0
   49.4260   31.9250   41.2720 O   0  0  0  0  0  0  0  0  0  0  0  0
   49.6050   31.9410   39.8810 C   0  0  0  0  0  2  0  0  0  0  0  0
   50.9570   31.4270   39.4860 C   0  0  0  0  0  2  0  0  0  0  0  0
   51.2590   30.5860   40.1750 H   0  0  0  0  0  0  0  0  0  0  0  0
  1 13  1  0  0  0  0
  1  6  1  0  0  0  0
  2  1  1  0  0  0  0
  3  1  1  0  0  0  0
  4 10  1  0  0  0  0
  5 11  1  0  0  0  0
  5  4  2  0  0  0  0
  6  5  1  0  0  0  0
  7  6  2  0  0  0  0
  7  8  1  0  0  0  0
  8  9  2  0  0  0  0
  9  4  1  0  0  0  0
 12  8  1  0  0  0  0
 15 14  2  1  0  0  0
 15 13  1  0  0  0  0
 16 15  1  0  0  0  0
 17 16  1  0  0  0  0
 18 15  1  0  0  0  0
 19 18  1  0  0  0  0
 20 19  1  0  0  0  0
 20 21  1  0  0  0  0
M  END
>  <minimizedAffinity>
-3.73982239

>  <minimizedRMSD>
2.18043041

$$$$
