
 OpenBabel03242517093D

 41 43  0  0  1  0  0  0  0  0999 V2000
   46.0550   33.8200   43.1910 C   0  0  2  0  0  0  0  0  0  0  0  0
   45.2480   34.8760   42.5180 C   0  0  2  0  0  0  0  0  0  0  0  0
   45.0830   36.0950   43.3500 C   0  0  0  0  0  0  0  0  0  0  0  0
   44.5770   35.8360   44.7440 C   0  0  0  0  0  0  0  0  0  0  0  0
   45.0790   34.5560   45.3470 C   0  0  0  0  0  0  0  0  0  0  0  0
   46.3300   34.0570   44.6490 C   0  0  0  0  0  0  0  0  0  0  0  0
   45.4870   32.8450   43.1140 H   0  0  0  0  0  0  0  0  0  0  0  0
   45.7750   35.1770   41.5900 H   0  0  0  0  0  0  0  0  0  0  0  0
   46.0450   36.6400   43.4100 H   0  0  0  0  0  0  0  0  0  0  0  0
   44.3630   36.7940   42.8630 H   0  0  0  0  0  0  0  0  0  0  0  0
   43.4620   35.7930   44.6850 H   0  0  0  0  0  0  0  0  0  0  0  0
   44.7940   36.7380   45.3660 H   0  0  0  0  0  0  0  0  0  0  0  0
   45.4130   34.8210   46.3930 H   0  0  0  0  0  0  0  0  0  0  0  0
   44.2980   33.7540   45.3750 H   0  0  0  0  0  0  0  0  0  0  0  0
   46.5400   33.0450   45.0970 H   0  0  0  0  0  0  0  0  0  0  0  0
   47.1330   34.7360   44.8950 H   0  0  0  0  0  0  0  0  0  0  0  0
   42.9690   35.3150   41.5200 C   0  0  1  0  0  0  0  0  0  0  0  0
   43.9060   34.3200   42.0980 C   0  0  1  0  0  0  0  0  0  0  0  0
   44.1290   33.3210   41.1580 O   0  0  0  0  0  0  0  0  0  0  0  0
   43.7750   33.8100   39.9130 C   0  0  0  0  0  0  0  0  0  0  0  0
   42.5090   34.5830   40.2530 C   0  0  2  0  0  0  0  0  0  0  0  0
   43.4830   36.2380   41.1940 H   0  0  0  0  0  0  0  0  0  0  0  0
   43.4400   33.8550   42.9990 H   0  0  0  0  0  0  0  0  0  0  0  0
   43.5570   32.9300   39.2810 H   0  0  0  0  0  0  0  0  0  0  0  0
   44.5420   34.4540   39.4640 H   0  0  0  0  0  0  0  0  0  0  0  0
   41.6940   33.8860   40.4780 H   0  0  0  0  0  0  0  0  0  0  0  0
   41.8570   35.5590   42.3010 O   0  0  0  0  0  0  0  0  0  0  0  0
   41.7370   36.5070   42.5250 H   0  0  0  0  0  0  0  0  0  0  0  0
   42.1880   35.5050   39.2680 O   0  0  0  0  0  0  0  0  0  0  0  0
   40.8130   35.5640   39.0600 C   0  0  0  0  0  0  0  0  0  0  0  0
   40.3700   34.8580   37.8120 C   0  0  0  0  0  0  0  0  0  0  0  0
   39.5820   35.4150   37.2630 H   0  0  0  0  0  0  0  0  0  0  0  0
   47.3380   33.5680   42.5050 C   0  0  0  0  0  0  0  0  0  0  0  0
   48.4030   34.3520   42.9510 C   0  0  0  0  0  0  0  0  0  0  0  0
   49.6780   34.2050   42.3820 C   0  0  0  0  0  0  0  0  0  0  0  0
   49.7770   33.2490   41.3770 N   0  0  0  0  0  0  0  0  0  0  0  0
   48.7190   32.5120   40.9740 C   0  0  0  0  0  0  0  0  0  0  0  0
   47.4940   32.6660   41.5340 N   0  0  0  0  0  0  0  0  0  0  0  0
   48.4760   35.1230   43.6990 H   0  0  0  0  0  0  0  0  0  0  0  0
   50.5690   34.7280   42.6210 H   0  0  0  0  0  0  0  0  0  0  0  0
   48.8640   31.7840   40.1850 H   0  0  0  0  0  0  0  0  0  0  0  0
  1  7  1  6  0  0  0
  1  6  1  0  0  0  0
  2  8  1  6  0  0  0
  2  1  1  0  0  0  0
  2  3  1  0  0  0  0
  3  9  1  0  0  0  0
  3  4  1  0  0  0  0
  4  5  1  0  0  0  0
  4 12  1  0  0  0  0
  5 14  1  0  0  0  0
  5 13  1  0  0  0  0
  6 16  1  0  0  0  0
  6 15  1  0  0  0  0
  6  5  1  0  0  0  0
 10  3  1  0  0  0  0
 11  4  1  0  0  0  0
 17 22  1  6  0  0  0
 17 18  1  0  0  0  0
 17 27  1  0  0  0  0
 18  2  1  0  0  0  0
 18 23  1  1  0  0  0
 19 18  1  0  0  0  0
 20 21  1  0  0  0  0
 20 19  1  0  0  0  0
 21 26  1  1  0  0  0
 21 17  1  0  0  0  0
 24 20  1  0  0  0  0
 25 20  1  0  0  0  0
 27 28  1  0  0  0  0
 29 21  1  0  0  0  0
 30 29  1  0  0  0  0
 31 30  1  0  0  0  0
 32 31  1  0  0  0  0
 33 34  1  0  0  0  0
 33  1  1  0  0  0  0
 34 39  1  0  0  0  0
 35 40  1  0  0  0  0
 35 34  2  0  0  0  0
 36 35  1  0  0  0  0
 37 36  2  0  0  0  0
 37 38  1  0  0  0  0
 38 33  2  0  0  0  0
 41 37  1  0  0  0  0
M  END
>  <minimizedAffinity>
-5.77695417

>  <minimizedRMSD>
0.534558117

$$$$
