
 OpenBabel03252509313D

 21 21  0  0  0  0  0  0  0  0999 V2000
   46.7310   32.9150   43.3290 C   0  0  0  0  0  0  0  0  0  0  0  0
   46.6750   32.7850   42.2420 H   0  0  0  0  0  0  0  0  0  0  0  0
   46.2420   32.0040   43.7750 H   0  0  0  0  0  0  0  0  0  0  0  0
   44.7190   35.1530   45.5340 C   0  0  0  0  0  0  0  0  0  0  0  0
   45.4540   34.0390   45.0880 C   0  0  0  0  0  0  0  0  0  0  0  0
   45.9640   34.0660   43.8110 C   0  0  0  0  0  0  0  0  0  0  0  0
   45.7380   35.1660   43.0330 N   0  0  0  0  0  0  0  0  0  0  0  0
   45.0220   36.2360   43.4860 C   0  0  0  0  0  0  0  0  0  0  0  0
   44.5290   36.2070   44.7230 N   0  0  0  0  0  0  0  0  0  0  0  0
   44.3440   35.0730   46.5470 H   0  0  0  0  0  0  0  0  0  0  0  0
   45.6290   33.1690   45.7110 H   0  0  0  0  0  0  0  0  0  0  0  0
   44.8760   37.0840   42.8160 H   0  0  0  0  0  0  0  0  0  0  0  0
   48.0280   32.9080   43.8430 O   0  0  0  0  0  0  0  0  0  0  0  0
   50.1110   32.3180   42.3890 O   0  0  0  0  0  0  0  0  0  0  0  0
   49.0600   33.3860   42.5920 P   0  0  2  0  0  0  0  0  0  0  0  0
   49.7110   34.8670   43.0290 O   0  0  0  0  0  0  0  0  0  0  0  0
   50.6690   34.8530   43.2490 H   0  0  0  0  0  0  0  0  0  0  0  0
   48.1560   33.4920   41.1820 O   0  0  0  0  0  0  0  0  0  0  0  0
   48.3830   34.7240   40.5520 C   0  0  0  0  0  2  0  0  0  0  0  0
   48.3100   34.6110   39.0580 C   0  0  0  0  0  2  0  0  0  0  0  0
   47.5080   33.8680   38.7740 H   0  0  0  0  0  0  0  0  0  0  0  0
  1  3  1  0  0  0  0
  1  6  1  0  0  0  0
  1 13  1  0  0  0  0
  2  1  1  0  0  0  0
  4 10  1  0  0  0  0
  5  4  1  0  0  0  0
  5 11  1  0  0  0  0
  6  5  2  0  0  0  0
  7  8  2  0  0  0  0
  7  6  1  0  0  0  0
  8  9  1  0  0  0  0
  9  4  2  0  0  0  0
 12  8  1  0  0  0  0
 15 14  2  6  0  0  0
 15 16  1  0  0  0  0
 15 13  1  0  0  0  0
 16 17  1  0  0  0  0
 18 15  1  0  0  0  0
 19 18  1  0  0  0  0
 20 19  1  0  0  0  0
 21 20  1  0  0  0  0
M  END
>  <minimizedAffinity>
-3.81808114

>  <minimizedRMSD>
1.37720096

$$$$
