
 OpenBabel03252509303D

 21 21  0  0  0  0  0  0  0  0999 V2000
   47.1140   33.5370   42.9280 C   0  0  0  0  0  0  0  0  0  0  0  0
   46.9750   33.8630   41.8900 H   0  0  0  0  0  0  0  0  0  0  0  0
   46.8470   32.4430   42.9460 H   0  0  0  0  0  0  0  0  0  0  0  0
   45.1230   34.2860   45.9940 C   0  0  0  0  0  0  0  0  0  0  0  0
   46.0050   33.6410   45.1080 C   0  0  0  0  0  0  0  0  0  0  0  0
   46.1990   34.1950   43.8640 C   0  0  0  0  0  0  0  0  0  0  0  0
   45.5320   35.3440   43.5420 N   0  0  0  0  0  0  0  0  0  0  0  0
   44.6800   35.9530   44.4170 C   0  0  0  0  0  0  0  0  0  0  0  0
   44.4940   35.4140   45.6200 N   0  0  0  0  0  0  0  0  0  0  0  0
   45.0120   33.8020   46.9550 H   0  0  0  0  0  0  0  0  0  0  0  0
   46.5310   32.7300   45.3700 H   0  0  0  0  0  0  0  0  0  0  0  0
   44.1770   36.8680   44.0990 H   0  0  0  0  0  0  0  0  0  0  0  0
   48.4340   33.5870   43.3760 O   0  0  0  0  0  0  0  0  0  0  0  0
   50.7830   33.6200   42.2420 O   0  0  0  0  0  0  0  0  0  0  0  0
   49.3740   34.1480   42.0870 P   0  0  2  0  0  0  0  0  0  0  0  0
   49.2980   35.8230   42.1140 O   0  0  0  0  0  0  0  0  0  0  0  0
   50.1320   36.2740   42.3700 H   0  0  0  0  0  0  0  0  0  0  0  0
   48.7420   33.5160   40.6670 O   0  0  0  0  0  0  0  0  0  0  0  0
   48.2390   34.5470   39.8590 C   0  0  0  0  0  2  0  0  0  0  0  0
   48.1360   34.1330   38.4220 C   0  0  0  0  0  2  0  0  0  0  0  0
   47.8320   33.0480   38.3630 H   0  0  0  0  0  0  0  0  0  0  0  0
  1  3  1  0  0  0  0
  1 13  1  0  0  0  0
  1  6  1  0  0  0  0
  2  1  1  0  0  0  0
  4 10  1  0  0  0  0
  5 11  1  0  0  0  0
  5  4  2  0  0  0  0
  6  5  1  0  0  0  0
  7  6  2  0  0  0  0
  7  8  1  0  0  0  0
  8  9  2  0  0  0  0
  9  4  1  0  0  0  0
 12  8  1  0  0  0  0
 15 16  1  0  0  0  0
 15 14  2  1  0  0  0
 15 13  1  0  0  0  0
 16 17  1  0  0  0  0
 18 15  1  0  0  0  0
 19 18  1  0  0  0  0
 20 19  1  0  0  0  0
 21 20  1  0  0  0  0
M  END
>  <minimizedAffinity>
-3.86068845

>  <minimizedRMSD>
1.16264164

$$$$
