
 OpenBabel03252500243D

 31 32  0  0  1  0  0  0  0  0999 V2000
   45.1520   32.1070   48.1920 O   0  0  0  0  0  0  0  0  0  0  0  0
   46.9730   30.5560   48.2300 C   0  0  2  0  0  0  0  0  0  0  0  0
   45.5210   30.7940   48.3820 C   0  0  2  0  0  0  0  0  0  0  0  0
   44.9000   29.8770   47.3940 C   0  0  0  0  0  0  0  0  0  0  0  0
   45.7330   28.7850   47.2590 O   0  0  0  0  0  0  0  0  0  0  0  0
   46.8990   29.0380   47.9000 C   0  0  0  0  0  0  0  0  0  0  0  0
   47.5870   30.8960   47.4440 H   0  0  0  0  0  0  0  0  0  0  0  0
   45.2900   30.4390   49.4240 H   0  0  0  0  0  0  0  0  0  0  0  0
   43.9760   29.4400   47.8840 H   0  0  0  0  0  0  0  0  0  0  0  0
   44.4840   30.2970   46.4790 H   0  0  0  0  0  0  0  0  0  0  0  0
   46.8150   28.5660   48.9250 H   0  0  0  0  0  0  0  0  0  0  0  0
   47.8110   28.6740   47.4300 H   0  0  0  0  0  0  0  0  0  0  0  0
   47.7220   30.7810   49.3470 O   0  0  0  0  0  0  0  0  0  0  0  0
   48.9850   31.1490   49.3460 C   0  0  0  0  0  0  0  0  0  0  0  0
   49.7510   30.2820   50.3650 C   0  0  0  0  0  0  0  0  0  0  0  0
   50.8010   30.6660   50.4840 H   0  0  0  0  0  0  0  0  0  0  0  0
   47.2010   32.9290   46.8740 O   0  0  0  0  0  0  0  0  0  0  0  0
   45.7290   32.6590   46.7350 P   0  0  1  0  0  0  0  0  0  0  0  0
   45.5090   31.4610   45.5570 O   0  0  0  0  0  0  0  0  0  0  0  0
   44.7290   31.7490   45.0050 H   0  0  0  0  0  0  0  0  0  0  0  0
   45.0030   34.1330   46.2620 O   0  0  0  0  0  0  0  0  0  0  0  0
   44.9740   36.4000   43.4970 C   0  0  0  0  0  0  0  0  0  0  0  0
   45.0240   35.5540   42.3500 C   0  0  0  0  0  0  0  0  0  0  0  0
   45.0670   34.1670   42.5960 C   0  0  0  0  0  0  0  0  0  0  0  0
   45.0590   33.7330   43.8710 N   0  0  0  0  0  0  0  0  0  0  0  0
   45.0120   34.5720   44.9300 C   0  0  0  0  0  0  0  0  0  0  0  0
   44.9700   35.8980   44.7320 N   0  0  0  0  0  0  0  0  0  0  0  0
   45.0280   35.9600   41.3500 H   0  0  0  0  0  0  0  0  0  0  0  0
   45.1060   33.4770   41.7650 H   0  0  0  0  0  0  0  0  0  0  0  0
   44.9310   37.7460   43.2620 O   0  0  0  0  0  0  0  0  0  0  0  0
   44.1120   38.1320   42.8070 H   0  0  0  0  0  0  0  0  0  0  0  0
  1  3  1  0  0  0  0
  2  7  1  6  0  0  0
  2  3  1  0  0  0  0
  2 13  1  0  0  0  0
  3  8  1  1  0  0  0
  4  9  1  0  0  0  0
  4  3  1  0  0  0  0
  5  4  1  0  0  0  0
  5  6  1  0  0  0  0
  6  2  1  0  0  0  0
  6 11  1  0  0  0  0
 10  4  1  0  0  0  0
 12  6  1  0  0  0  0
 14 13  1  0  0  0  0
 14 15  1  0  0  0  0
 15 16  1  0  0  0  0
 18 17  2  1  0  0  0
 18  1  1  0  0  0  0
 19 18  1  0  0  0  0
 20 19  1  0  0  0  0
 21 18  1  0  0  0  0
 22 27  1  0  0  0  0
 23 24  1  0  0  0  0
 23 22  2  0  0  0  0
 24 25  2  0  0  0  0
 25 26  1  0  0  0  0
 26 21  1  0  0  0  0
 27 26  2  0  0  0  0
 28 23  1  0  0  0  0
 29 24  1  0  0  0  0
 30 22  1  0  0  0  0
 31 30  1  0  0  0  0
M  END
>  <minimizedAffinity>
-4.83819628

>  <minimizedRMSD>
0.941782594

$$$$
