
 OpenBabel03252509323D

 21 21  0  0  0  0  0  0  0  0999 V2000
   36.7050   27.8570   42.7630 C   0  0  0  0  0  0  0  0  0  0  0  0
   37.1440   28.6690   43.3550 H   0  0  0  0  0  0  0  0  0  0  0  0
   35.7640   27.5560   43.3030 H   0  0  0  0  0  0  0  0  0  0  0  0
   37.8520   24.3600   42.1490 C   0  0  0  0  0  0  0  0  0  0  0  0
   37.0290   25.5000   42.1880 C   0  0  0  0  0  0  0  0  0  0  0  0
   37.5480   26.6600   42.7150 C   0  0  0  0  0  0  0  0  0  0  0  0
   38.8340   26.6580   43.1750 N   0  0  0  0  0  0  0  0  0  0  0  0
   39.6160   25.5400   43.1280 C   0  0  0  0  0  0  0  0  0  0  0  0
   39.1110   24.4190   42.6180 N   0  0  0  0  0  0  0  0  0  0  0  0
   37.3880   23.4790   41.7250 H   0  0  0  0  0  0  0  0  0  0  0  0
   36.0080   25.4940   41.8210 H   0  0  0  0  0  0  0  0  0  0  0  0
   40.6350   25.6030   43.5120 H   0  0  0  0  0  0  0  0  0  0  0  0
   36.2760   28.2380   41.4910 O   0  0  0  0  0  0  0  0  0  0  0  0
   38.0220   30.0570   42.1600 O   0  0  0  0  0  0  0  0  0  0  0  0
   36.8720   29.7960   41.2140 P   0  0  2  0  0  0  0  0  0  0  0  0
   35.5940   30.8590   41.4310 O   0  0  0  0  0  0  0  0  0  0  0  0
   35.6580   31.4300   42.2280 H   0  0  0  0  0  0  0  0  0  0  0  0
   37.4730   29.8530   39.6480 O   0  0  0  0  0  0  0  0  0  0  0  0
   36.6810   30.6970   38.8550 C   0  0  0  0  0  2  0  0  0  0  0  0
   37.3760   31.9900   38.5470 C   0  0  0  0  0  2  0  0  0  0  0  0
   38.4790   31.8010   38.4020 H   0  0  0  0  0  0  0  0  0  0  0  0
  1  3  1  0  0  0  0
  1  2  1  0  0  0  0
  4  5  2  0  0  0  0
  4  9  1  0  0  0  0
  5  6  1  0  0  0  0
  6  1  1  0  0  0  0
  6  7  2  0  0  0  0
  8  7  1  0  0  0  0
  8 12  1  0  0  0  0
  9  8  2  0  0  0  0
 10  4  1  0  0  0  0
 11  5  1  0  0  0  0
 13  1  1  0  0  0  0
 15 16  1  0  0  0  0
 15 13  1  0  0  0  0
 15 14  2  1  0  0  0
 16 17  1  0  0  0  0
 18 15  1  0  0  0  0
 19 18  1  0  0  0  0
 20 19  1  0  0  0  0
 21 20  1  0  0  0  0
M  END
>  <minimizedAffinity>
-4.14176559

$$$$

 OpenBabel03252509323D

 21 21  0  0  0  0  0  0  0  0999 V2000
   37.5410   28.3910   43.1640 C   0  0  0  0  0  0  0  0  0  0  0  0
   38.2510   29.2220   43.2490 H   0  0  0  0  0  0  0  0  0  0  0  0
   36.9700   28.3730   44.1340 H   0  0  0  0  0  0  0  0  0  0  0  0
   40.0200   25.6300   43.5610 C   0  0  0  0  0  0  0  0  0  0  0  0
   39.4050   26.8910   43.6790 C   0  0  0  0  0  0  0  0  0  0  0  0
   38.1960   27.0860   43.0520 C   0  0  0  0  0  0  0  0  0  0  0  0
   37.6450   26.0540   42.3460 N   0  0  0  0  0  0  0  0  0  0  0  0
   38.2590   24.8390   42.2440 C   0  0  0  0  0  0  0  0  0  0  0  0
   39.4290   24.6540   42.8520 N   0  0  0  0  0  0  0  0  0  0  0  0
   40.9680   25.5390   44.0750 H   0  0  0  0  0  0  0  0  0  0  0  0
   39.8480   27.7050   44.2410 H   0  0  0  0  0  0  0  0  0  0  0  0
   37.7670   24.0560   41.6650 H   0  0  0  0  0  0  0  0  0  0  0  0
   36.5650   28.5650   42.1830 O   0  0  0  0  0  0  0  0  0  0  0  0
   38.2770   30.5070   41.8600 O   0  0  0  0  0  0  0  0  0  0  0  0
   36.9920   29.9420   41.2980 P   0  0  2  0  0  0  0  0  0  0  0  0
   35.7070   31.0130   41.4040 O   0  0  0  0  0  0  0  0  0  0  0  0
   35.8790   31.8180   41.9410 H   0  0  0  0  0  0  0  0  0  0  0  0
   37.2860   29.4730   39.7140 O   0  0  0  0  0  0  0  0  0  0  0  0
   36.4580   30.1880   38.8350 C   0  0  0  0  0  2  0  0  0  0  0  0
   37.1830   31.3320   38.1900 C   0  0  0  0  0  2  0  0  0  0  0  0
   38.2520   31.0360   37.9870 H   0  0  0  0  0  0  0  0  0  0  0  0
  1  2  1  0  0  0  0
  1  3  1  0  0  0  0
  4  5  1  0  0  0  0
  4 10  1  0  0  0  0
  5 11  1  0  0  0  0
  6  1  1  0  0  0  0
  6  5  2  0  0  0  0
  7  6  1  0  0  0  0
  8  7  2  0  0  0  0
  8  9  1  0  0  0  0
  9  4  2  0  0  0  0
 12  8  1  0  0  0  0
 13  1  1  0  0  0  0
 15 16  1  0  0  0  0
 15 14  2  1  0  0  0
 15 13  1  0  0  0  0
 16 17  1  0  0  0  0
 18 15  1  0  0  0  0
 19 18  1  0  0  0  0
 20 19  1  0  0  0  0
 21 20  1  0  0  0  0
M  END
>  <minimizedAffinity>
-4.1263051

$$$$

 OpenBabel03252509323D

 21 21  0  0  0  0  0  0  0  0999 V2000
   36.8720   31.0700   38.8970 C   0  0  0  0  0  0  0  0  0  0  0  0
   36.6890   30.9680   37.8200 H   0  0  0  0  0  0  0  0  0  0  0  0
   35.9030   31.4330   39.3410 H   0  0  0  0  0  0  0  0  0  0  0  0
   40.1010   32.9350   39.0430 C   0  0  0  0  0  0  0  0  0  0  0  0
   39.1520   31.9450   38.7290 C   0  0  0  0  0  0  0  0  0  0  0  0
   37.8730   32.0920   39.2140 C   0  0  0  0  0  0  0  0  0  0  0  0
   37.5780   33.1880   39.9750 N   0  0  0  0  0  0  0  0  0  0  0  0
   38.5140   34.1370   40.2680 C   0  0  0  0  0  0  0  0  0  0  0  0
   39.7510   33.9910   39.7980 N   0  0  0  0  0  0  0  0  0  0  0  0
   41.0880   32.7640   38.6340 H   0  0  0  0  0  0  0  0  0  0  0  0
   39.3930   31.0780   38.1240 H   0  0  0  0  0  0  0  0  0  0  0  0
   38.2150   34.9880   40.8820 H   0  0  0  0  0  0  0  0  0  0  0  0
   37.1350   29.8690   39.5540 O   0  0  0  0  0  0  0  0  0  0  0  0
   34.6750   29.0840   39.9280 O   0  0  0  0  0  0  0  0  0  0  0  0
   35.8820   29.6260   40.6630 P   0  0  2  0  0  0  0  0  0  0  0  0
   35.5860   31.0990   41.4040 O   0  0  0  0  0  0  0  0  0  0  0  0
   34.7310   31.5210   41.1680 H   0  0  0  0  0  0  0  0  0  0  0  0
   36.3780   28.4600   41.7630 O   0  0  0  0  0  0  0  0  0  0  0  0
   37.3520   28.9880   42.6230 C   0  0  0  0  0  2  0  0  0  0  0  0
   37.9070   27.9450   43.5470 C   0  0  0  0  0  2  0  0  0  0  0  0
   37.9790   26.9590   43.0050 H   0  0  0  0  0  0  0  0  0  0  0  0
  1  6  1  0  0  0  0
  1  3  1  0  0  0  0
  1 13  1  0  0  0  0
  2  1  1  0  0  0  0
  4  9  1  0  0  0  0
  5  4  2  0  0  0  0
  5  6  1  0  0  0  0
  6  7  2  0  0  0  0
  7  8  1  0  0  0  0
  8 12  1  0  0  0  0
  9  8  2  0  0  0  0
 10  4  1  0  0  0  0
 11  5  1  0  0  0  0
 13 15  1  0  0  0  0
 15 14  2  6  0  0  0
 15 16  1  0  0  0  0
 15 18  1  0  0  0  0
 17 16  1  0  0  0  0
 18 19  1  0  0  0  0
 19 20  1  0  0  0  0
 21 20  1  0  0  0  0
M  END
>  <minimizedAffinity>
-4.11496782

$$$$

 OpenBabel03252509323D

 21 21  0  0  0  0  0  0  0  0999 V2000
   37.6510   29.6660   42.2630 C   0  0  0  0  0  0  0  0  0  0  0  0
   37.9490   30.2270   43.1570 H   0  0  0  0  0  0  0  0  0  0  0  0
   36.5300   29.7610   42.1990 H   0  0  0  0  0  0  0  0  0  0  0  0
   37.2220   25.9600   42.1740 C   0  0  0  0  0  0  0  0  0  0  0  0
   36.9340   27.3340   42.0710 C   0  0  0  0  0  0  0  0  0  0  0  0
   37.9330   28.2320   42.3650 C   0  0  0  0  0  0  0  0  0  0  0  0
   39.1570   27.7560   42.7430 N   0  0  0  0  0  0  0  0  0  0  0  0
   39.4150   26.4200   42.8360 C   0  0  0  0  0  0  0  0  0  0  0  0
   38.4460   25.5530   42.5510 N   0  0  0  0  0  0  0  0  0  0  0  0
   36.3960   25.3040   41.9300 H   0  0  0  0  0  0  0  0  0  0  0  0
   35.9590   27.7040   41.7700 H   0  0  0  0  0  0  0  0  0  0  0  0
   40.4130   26.1040   43.1440 H   0  0  0  0  0  0  0  0  0  0  0  0
   38.1200   30.2000   41.0640 O   0  0  0  0  0  0  0  0  0  0  0  0
   37.3630   32.5850   40.3250 O   0  0  0  0  0  0  0  0  0  0  0  0
   36.8790   31.1550   40.4270 P   0  0  2  0  0  0  0  0  0  0  0  0
   35.5560   30.9850   41.4420 O   0  0  0  0  0  0  0  0  0  0  0  0
   35.3300   31.7830   41.9690 H   0  0  0  0  0  0  0  0  0  0  0  0
   36.5490   30.6130   38.8730 O   0  0  0  0  0  0  0  0  0  0  0  0
   36.2540   29.2420   38.8900 C   0  0  0  0  0  2  0  0  0  0  0  0
   34.8110   28.9770   38.5790 C   0  0  0  0  0  2  0  0  0  0  0  0
   34.4490   29.7140   37.8050 H   0  0  0  0  0  0  0  0  0  0  0  0
  1  6  1  0  0  0  0
  1  2  1  0  0  0  0
  3  1  1  0  0  0  0
  4  9  1  0  0  0  0
  5  4  2  0  0  0  0
  5  6  1  0  0  0  0
  6  7  2  0  0  0  0
  7  8  1  0  0  0  0
  8 12  1  0  0  0  0
  9  8  2  0  0  0  0
 10  4  1  0  0  0  0
 11  5  1  0  0  0  0
 13  1  1  0  0  0  0
 15 14  2  6  0  0  0
 15 13  1  0  0  0  0
 15 16  1  0  0  0  0
 16 17  1  0  0  0  0
 18 19  1  0  0  0  0
 18 15  1  0  0  0  0
 20 19  1  0  0  0  0
 21 20  1  0  0  0  0
M  END
>  <minimizedAffinity>
-3.95657134

$$$$

 OpenBabel03252509323D

 21 21  0  0  0  0  0  0  0  0999 V2000
   38.1070   29.3760   40.1160 C   0  0  0  0  0  0  0  0  0  0  0  0
   38.6220   28.9520   39.2460 H   0  0  0  0  0  0  0  0  0  0  0  0
   37.0310   29.0550   40.0240 H   0  0  0  0  0  0  0  0  0  0  0  0
   37.2070   32.9090   39.3240 C   0  0  0  0  0  0  0  0  0  0  0  0
   37.2040   31.5020   39.3080 C   0  0  0  0  0  0  0  0  0  0  0  0
   38.0960   30.8400   40.1200 C   0  0  0  0  0  0  0  0  0  0  0  0
   38.9430   31.5720   40.9040 N   0  0  0  0  0  0  0  0  0  0  0  0
   38.9290   32.9370   40.9040 C   0  0  0  0  0  0  0  0  0  0  0  0
   38.0650   33.5740   40.1170 N   0  0  0  0  0  0  0  0  0  0  0  0
   36.4840   33.3720   38.6650 H   0  0  0  0  0  0  0  0  0  0  0  0
   36.5290   30.9280   38.6830 H   0  0  0  0  0  0  0  0  0  0  0  0
   39.6310   33.4630   41.5520 H   0  0  0  0  0  0  0  0  0  0  0  0
   38.5270   28.8600   41.3420 O   0  0  0  0  0  0  0  0  0  0  0  0
   35.9650   28.3850   41.2070 O   0  0  0  0  0  0  0  0  0  0  0  0
   37.1440   28.3190   42.1520 P   0  0  2  0  0  0  0  0  0  0  0  0
   36.9520   29.2920   43.5030 O   0  0  0  0  0  0  0  0  0  0  0  0
   36.1830   29.9030   43.4710 H   0  0  0  0  0  0  0  0  0  0  0  0
   37.3790   26.7100   42.5680 O   0  0  0  0  0  0  0  0  0  0  0  0
   37.3280   25.9010   41.4240 C   0  0  0  0  0  2  0  0  0  0  0  0
   36.8550   24.5130   41.7410 C   0  0  0  0  0  2  0  0  0  0  0  0
   36.0680   24.5570   42.5490 H   0  0  0  0  0  0  0  0  0  0  0  0
  1  6  1  0  0  0  0
  1 13  1  0  0  0  0
  2  1  1  0  0  0  0
  3  1  1  0  0  0  0
  4  9  1  0  0  0  0
  5  4  2  0  0  0  0
  5  6  1  0  0  0  0
  6  7  2  0  0  0  0
  7  8  1  0  0  0  0
  8 12  1  0  0  0  0
  9  8  2  0  0  0  0
 10  4  1  0  0  0  0
 11  5  1  0  0  0  0
 13 15  1  0  0  0  0
 15 14  2  6  0  0  0
 15 18  1  0  0  0  0
 15 16  1  0  0  0  0
 17 16  1  0  0  0  0
 19 20  1  0  0  0  0
 19 18  1  0  0  0  0
 20 21  1  0  0  0  0
M  END
>  <minimizedAffinity>
-3.8168788

$$$$

 OpenBabel03252509323D

 21 21  0  0  0  0  0  0  0  0999 V2000
   37.8670   26.8490   42.7300 C   0  0  0  0  0  0  0  0  0  0  0  0
   38.0580   26.3100   43.6660 H   0  0  0  0  0  0  0  0  0  0  0  0
   36.9770   27.5090   42.9320 H   0  0  0  0  0  0  0  0  0  0  0  0
   36.4540   23.9540   40.8470 C   0  0  0  0  0  0  0  0  0  0  0  0
   36.8210   24.7910   41.9170 C   0  0  0  0  0  0  0  0  0  0  0  0
   37.4770   25.9650   41.6290 C   0  0  0  0  0  0  0  0  0  0  0  0
   37.7430   26.2700   40.3230 N   0  0  0  0  0  0  0  0  0  0  0  0
   37.3780   25.4430   39.3000 C   0  0  0  0  0  0  0  0  0  0  0  0
   36.7440   24.3070   39.5820 N   0  0  0  0  0  0  0  0  0  0  0  0
   35.9420   23.0450   41.1360 H   0  0  0  0  0  0  0  0  0  0  0  0
   36.6070   24.5430   42.9500 H   0  0  0  0  0  0  0  0  0  0  0  0
   37.6200   25.7430   38.2800 H   0  0  0  0  0  0  0  0  0  0  0  0
   38.8820   27.7280   42.3530 O   0  0  0  0  0  0  0  0  0  0  0  0
   39.3930   30.2360   42.8520 O   0  0  0  0  0  0  0  0  0  0  0  0
   38.2630   29.2940   42.5030 P   0  0  2  0  0  0  0  0  0  0  0  0
   37.0690   29.2420   43.6790 O   0  0  0  0  0  0  0  0  0  0  0  0
   37.2920   29.7010   44.5190 H   0  0  0  0  0  0  0  0  0  0  0  0
   37.6500   29.7580   41.0110 O   0  0  0  0  0  0  0  0  0  0  0  0
   36.3070   30.1420   41.1370 C   0  0  0  0  0  2  0  0  0  0  0  0
   35.3740   29.0970   40.6000 C   0  0  0  0  0  2  0  0  0  0  0  0
   35.7860   28.0710   40.8250 H   0  0  0  0  0  0  0  0  0  0  0  0
  1  3  1  0  0  0  0
  1  2  1  0  0  0  0
  4 10  1  0  0  0  0
  4  5  1  0  0  0  0
  5 11  1  0  0  0  0
  6  5  2  0  0  0  0
  6  1  1  0  0  0  0
  7  6  1  0  0  0  0
  8  9  1  0  0  0  0
  8  7  2  0  0  0  0
  9  4  2  0  0  0  0
 12  8  1  0  0  0  0
 13 15  1  0  0  0  0
 13  1  1  0  0  0  0
 15 14  2  1  0  0  0
 15 16  1  0  0  0  0
 16 17  1  0  0  0  0
 18 19  1  0  0  0  0
 18 15  1  0  0  0  0
 20 21  1  0  0  0  0
 20 19  1  0  0  0  0
M  END
>  <minimizedAffinity>
-3.65735984

$$$$

 OpenBabel03252509323D

 21 21  0  0  0  0  0  0  0  0999 V2000
   36.8970   28.5290   40.6830 C   0  0  0  0  0  0  0  0  0  0  0  0
   36.4740   27.8080   39.9730 H   0  0  0  0  0  0  0  0  0  0  0  0
   36.1490   28.6100   41.5210 H   0  0  0  0  0  0  0  0  0  0  0  0
   37.1250   31.3370   38.2370 C   0  0  0  0  0  0  0  0  0  0  0  0
   36.9960   30.0360   38.7580 C   0  0  0  0  0  0  0  0  0  0  0  0
   37.0300   29.8760   40.1230 C   0  0  0  0  0  0  0  0  0  0  0  0
   37.1860   30.9800   40.9130 N   0  0  0  0  0  0  0  0  0  0  0  0
   37.3090   32.2330   40.3870 C   0  0  0  0  0  0  0  0  0  0  0  0
   37.2760   32.3840   39.0650 N   0  0  0  0  0  0  0  0  0  0  0  0
   37.0910   31.3980   37.1560 H   0  0  0  0  0  0  0  0  0  0  0  0
   36.8720   29.1640   38.1240 H   0  0  0  0  0  0  0  0  0  0  0  0
   37.4320   33.0740   41.0710 H   0  0  0  0  0  0  0  0  0  0  0  0
   38.0750   28.1080   41.3000 O   0  0  0  0  0  0  0  0  0  0  0  0
   36.6510   26.7360   43.0020 O   0  0  0  0  0  0  0  0  0  0  0  0
   37.7060   27.8160   42.9250 P   0  0  2  0  0  0  0  0  0  0  0  0
   37.2000   29.2710   43.5840 O   0  0  0  0  0  0  0  0  0  0  0  0
   36.2450   29.3160   43.8110 H   0  0  0  0  0  0  0  0  0  0  0  0
   39.0900   27.2360   43.6770 O   0  0  0  0  0  0  0  0  0  0  0  0
   39.8030   26.4020   42.8030 C   0  0  0  0  0  2  0  0  0  0  0  0
   39.8130   24.9770   43.2740 C   0  0  0  0  0  2  0  0  0  0  0  0
   38.8210   24.7300   43.7520 H   0  0  0  0  0  0  0  0  0  0  0  0
  1 13  1  0  0  0  0
  1  3  1  0  0  0  0
  2  1  1  0  0  0  0
  4  5  2  0  0  0  0
  4  9  1  0  0  0  0
  5  6  1  0  0  0  0
  6  1  1  0  0  0  0
  6  7  2  0  0  0  0
  8  7  1  0  0  0  0
  8 12  1  0  0  0  0
  9  8  2  0  0  0  0
 10  4  1  0  0  0  0
 11  5  1  0  0  0  0
 13 15  1  0  0  0  0
 15 14  2  1  0  0  0
 15 16  1  0  0  0  0
 15 18  1  0  0  0  0
 16 17  1  0  0  0  0
 19 20  1  0  0  0  0
 19 18  1  0  0  0  0
 20 21  1  0  0  0  0
M  END
>  <minimizedAffinity>
-3.64778543

$$$$

 OpenBabel03252509323D

 21 21  0  0  0  0  0  0  0  0999 V2000
   38.9330   29.9120   40.9970 C   0  0  0  0  0  0  0  0  0  0  0  0
   38.7610   29.9360   39.9150 H   0  0  0  0  0  0  0  0  0  0  0  0
   40.0250   29.6700   41.1300 H   0  0  0  0  0  0  0  0  0  0  0  0
   37.0790   27.9950   43.6070 C   0  0  0  0  0  0  0  0  0  0  0  0
   37.7880   29.0320   42.9730 C   0  0  0  0  0  0  0  0  0  0  0  0
   38.1940   28.8430   41.6720 C   0  0  0  0  0  0  0  0  0  0  0  0
   37.8920   27.6630   41.0520 N   0  0  0  0  0  0  0  0  0  0  0  0
   37.2030   26.6700   41.6850 C   0  0  0  0  0  0  0  0  0  0  0  0
   36.8120   26.8560   42.9450 N   0  0  0  0  0  0  0  0  0  0  0  0
   36.7880   28.2030   44.6280 H   0  0  0  0  0  0  0  0  0  0  0  0
   38.0240   29.9660   43.4720 H   0  0  0  0  0  0  0  0  0  0  0  0
   36.9930   25.7510   41.1360 H   0  0  0  0  0  0  0  0  0  0  0  0
   38.7630   31.1400   41.6350 O   0  0  0  0  0  0  0  0  0  0  0  0
   39.2080   33.5050   40.6290 O   0  0  0  0  0  0  0  0  0  0  0  0
   38.3590   32.2670   40.4410 P   0  0  2  0  0  0  0  0  0  0  0  0
   36.7180   32.5740   40.5860 O   0  0  0  0  0  0  0  0  0  0  0  0
   36.4890   33.4700   40.9170 H   0  0  0  0  0  0  0  0  0  0  0  0
   38.7420   31.6040   38.9470 O   0  0  0  0  0  0  0  0  0  0  0  0
   37.6410   31.6900   38.0820 C   0  0  0  0  0  2  0  0  0  0  0  0
   37.0730   30.3380   37.7660 C   0  0  0  0  0  2  0  0  0  0  0  0
   37.1390   29.6770   38.6780 H   0  0  0  0  0  0  0  0  0  0  0  0
  1  3  1  0  0  0  0
  1 13  1  0  0  0  0
  1  6  1  0  0  0  0
  2  1  1  0  0  0  0
  4 10  1  0  0  0  0
  5 11  1  0  0  0  0
  5  4  1  0  0  0  0
  6  5  2  0  0  0  0
  7  6  1  0  0  0  0
  7  8  2  0  0  0  0
  8  9  1  0  0  0  0
  9  4  2  0  0  0  0
 12  8  1  0  0  0  0
 15 16  1  0  0  0  0
 15 14  2  1  0  0  0
 15 13  1  0  0  0  0
 16 17  1  0  0  0  0
 18 15  1  0  0  0  0
 19 18  1  0  0  0  0
 20 19  1  0  0  0  0
 20 21  1  0  0  0  0
M  END
>  <minimizedAffinity>
-3.64573216

$$$$

 OpenBabel03252509323D

 21 21  0  0  0  0  0  0  0  0999 V2000
   39.5040   30.6300   40.2690 C   0  0  0  0  0  0  0  0  0  0  0  0
   40.2110   30.0410   40.8640 H   0  0  0  0  0  0  0  0  0  0  0  0
   38.9940   29.8970   39.5820 H   0  0  0  0  0  0  0  0  0  0  0  0
   41.0560   33.7970   39.0500 C   0  0  0  0  0  0  0  0  0  0  0  0
   40.4240   32.8670   39.8960 C   0  0  0  0  0  0  0  0  0  0  0  0
   40.1610   31.6110   39.4020 C   0  0  0  0  0  0  0  0  0  0  0  0
   40.5240   31.3190   38.1170 N   0  0  0  0  0  0  0  0  0  0  0  0
   41.1360   32.2360   37.3130 C   0  0  0  0  0  0  0  0  0  0  0  0
   41.3880   33.4510   37.7950 N   0  0  0  0  0  0  0  0  0  0  0  0
   41.2360   34.7670   39.4960 H   0  0  0  0  0  0  0  0  0  0  0  0
   40.1400   33.1060   40.9150 H   0  0  0  0  0  0  0  0  0  0  0  0
   41.3990   31.9410   36.2960 H   0  0  0  0  0  0  0  0  0  0  0  0
   38.4680   31.2040   41.0050 O   0  0  0  0  0  0  0  0  0  0  0  0
   36.9540   29.9730   39.2730 O   0  0  0  0  0  0  0  0  0  0  0  0
   37.0940   30.2510   40.7530 P   0  0  2  0  0  0  0  0  0  0  0  0
   35.7890   31.0920   41.3850 O   0  0  0  0  0  0  0  0  0  0  0  0
   35.1550   31.4400   40.7190 H   0  0  0  0  0  0  0  0  0  0  0  0
   37.3280   28.7830   41.5310 O   0  0  0  0  0  0  0  0  0  0  0  0
   37.4190   28.9780   42.9180 C   0  0  0  0  0  2  0  0  0  0  0  0
   37.2810   27.6900   43.6740 C   0  0  0  0  0  2  0  0  0  0  0  0
   37.7770   26.8570   43.0960 H   0  0  0  0  0  0  0  0  0  0  0  0
  1  2  1  0  0  0  0
  1 13  1  0  0  0  0
  3  1  1  0  0  0  0
  4 10  1  0  0  0  0
  4  5  1  0  0  0  0
  5 11  1  0  0  0  0
  6  5  2  0  0  0  0
  6  1  1  0  0  0  0
  7  6  1  0  0  0  0
  8  9  1  0  0  0  0
  8  7  2  0  0  0  0
  9  4  2  0  0  0  0
 12  8  1  0  0  0  0
 15 14  2  6  0  0  0
 15 13  1  0  0  0  0
 15 16  1  0  0  0  0
 15 18  1  0  0  0  0
 17 16  1  0  0  0  0
 18 19  1  0  0  0  0
 19 20  1  0  0  0  0
 21 20  1  0  0  0  0
M  END
>  <minimizedAffinity>
-3.62682199

$$$$
