
 OpenBabel03252502183D

 30 31  0  0  1  0  0  0  0  0999 V2000
   38.4090   29.1710   42.6060 C   0  0  0  0  0  0  0  0  0  0  0  0
   37.6240   28.1180   42.1150 C   0  0  0  0  0  0  0  0  0  0  0  0
   38.2050   26.8710   41.9640 C   0  0  0  0  0  0  0  0  0  0  0  0
   39.5110   26.7460   42.3050 N   0  0  0  0  0  0  0  0  0  0  0  0
   40.2490   27.7640   42.7730 C   0  0  0  0  0  0  0  0  0  0  0  0
   39.6970   28.9810   42.9240 N   0  0  0  0  0  0  0  0  0  0  0  0
   37.9480   30.1450   42.7200 H   0  0  0  0  0  0  0  0  0  0  0  0
   41.2870   27.5140   43.0050 H   0  0  0  0  0  0  0  0  0  0  0  0
   38.2220   24.4680   41.3470 C   0  0  2  0  0  0  0  0  0  0  0  0
   37.3860   25.7870   41.3730 C   0  0  2  0  0  0  0  0  0  0  0  0
   37.1070   25.9670   39.9310 C   0  0  0  0  0  0  0  0  0  0  0  0
   37.6570   24.8970   39.2230 O   0  0  0  0  0  0  0  0  0  0  0  0
   37.5670   23.8290   40.1250 C   0  0  0  0  0  0  0  0  0  0  0  0
   39.2720   24.6660   41.1590 H   0  0  0  0  0  0  0  0  0  0  0  0
   36.5780   25.5010   42.0590 H   0  0  0  0  0  0  0  0  0  0  0  0
   37.5400   26.9470   39.5940 H   0  0  0  0  0  0  0  0  0  0  0  0
   36.0050   25.9770   39.7550 H   0  0  0  0  0  0  0  0  0  0  0  0
   36.5280   23.5450   40.3350 H   0  0  0  0  0  0  0  0  0  0  0  0
   38.2300   23.0230   39.8030 H   0  0  0  0  0  0  0  0  0  0  0  0
   37.9610   23.6990   42.4820 O   0  0  0  0  0  0  0  0  0  0  0  0
   37.4710   22.8780   42.2500 H   0  0  0  0  0  0  0  0  0  0  0  0
   36.2860   28.4060   41.8110 O   0  0  0  0  0  0  0  0  0  0  0  0
   34.5860   29.1440   39.9660 O   0  0  0  0  0  0  0  0  0  0  0  0
   35.8520   29.5430   40.6330 P   0  0  1  0  0  0  0  0  0  0  0  0
   35.6330   31.0780   41.3290 O   0  0  0  0  0  0  0  0  0  0  0  0
   36.2840   31.7410   40.9970 H   0  0  0  0  0  0  0  0  0  0  0  0
   37.0990   29.6440   39.4670 O   0  0  0  0  0  0  0  0  0  0  0  0
   37.6940   30.8910   39.4460 C   0  0  0  0  0  2  0  0  0  0  0  0
   37.2790   31.5620   38.1310 C   0  0  0  0  0  2  0  0  0  0  0  0
   37.0480   32.6380   38.2920 H   0  0  0  0  0  0  0  0  0  0  0  0
  1  7  1  0  0  0  0
  1  6  1  0  0  0  0
  2  1  2  0  0  0  0
  3  2  1  0  0  0  0
  3  4  2  0  0  0  0
  4  5  1  0  0  0  0
  5  6  2  0  0  0  0
  5  8  1  0  0  0  0
  9 14  1  6  0  0  0
  9 10  1  0  0  0  0
  9 20  1  0  0  0  0
 10  3  1  0  0  0  0
 10 15  1  1  0  0  0
 11 10  1  0  0  0  0
 12 11  1  0  0  0  0
 12 13  1  0  0  0  0
 13 18  1  0  0  0  0
 13  9  1  0  0  0  0
 16 11  1  0  0  0  0
 17 11  1  0  0  0  0
 19 13  1  0  0  0  0
 21 20  1  0  0  0  0
 22  2  1  0  0  0  0
 24 23  2  6  0  0  0
 24 25  1  0  0  0  0
 24 22  1  0  0  0  0
 26 25  1  0  0  0  0
 27 24  1  0  0  0  0
 28 27  1  0  0  0  0
 29 30  1  0  0  0  0
 29 28  1  0  0  0  0
M  END
>  <minimizedAffinity>
-4.74662352

$$$$

 OpenBabel03252502183D

 30 31  0  0  1  0  0  0  0  0999 V2000
   37.0380   28.5000   38.2710 C   0  0  0  0  0  0  0  0  0  0  0  0
   37.6880   29.3830   39.1450 C   0  0  0  0  0  0  0  0  0  0  0  0
   37.9840   30.6600   38.7020 C   0  0  0  0  0  0  0  0  0  0  0  0
   37.6210   30.9810   37.4360 N   0  0  0  0  0  0  0  0  0  0  0  0
   36.9990   30.1250   36.6110 C   0  0  0  0  0  0  0  0  0  0  0  0
   36.7070   28.8810   37.0290 N   0  0  0  0  0  0  0  0  0  0  0  0
   36.8110   27.5020   38.6240 H   0  0  0  0  0  0  0  0  0  0  0  0
   36.7690   30.5230   35.6200 H   0  0  0  0  0  0  0  0  0  0  0  0
   38.1070   32.9830   39.5640 C   0  0  2  0  0  0  0  0  0  0  0  0
   38.7380   31.5560   39.6090 C   0  0  2  0  0  0  0  0  0  0  0  0
   40.1150   31.8470   39.1530 C   0  0  0  0  0  0  0  0  0  0  0  0
   40.2430   33.2210   38.9340 O   0  0  0  0  0  0  0  0  0  0  0  0
   39.3700   33.7820   39.8750 C   0  0  0  0  0  0  0  0  0  0  0  0
   37.7370   33.2240   38.5730 H   0  0  0  0  0  0  0  0  0  0  0  0
   38.5520   31.2850   40.6570 H   0  0  0  0  0  0  0  0  0  0  0  0
   40.3210   31.2630   38.2150 H   0  0  0  0  0  0  0  0  0  0  0  0
   40.8490   31.5460   39.9370 H   0  0  0  0  0  0  0  0  0  0  0  0
   39.7020   33.6120   40.9080 H   0  0  0  0  0  0  0  0  0  0  0  0
   39.1580   34.8180   39.6040 H   0  0  0  0  0  0  0  0  0  0  0  0
   37.1790   33.1430   40.5940 O   0  0  0  0  0  0  0  0  0  0  0  0
   37.5020   33.7830   41.2680 H   0  0  0  0  0  0  0  0  0  0  0  0
   37.9950   28.9020   40.4270 O   0  0  0  0  0  0  0  0  0  0  0  0
   37.8750   29.6880   42.9180 O   0  0  0  0  0  0  0  0  0  0  0  0
   37.0320   29.2500   41.7760 P   0  0  1  0  0  0  0  0  0  0  0  0
   35.9210   30.4870   41.4200 O   0  0  0  0  0  0  0  0  0  0  0  0
   34.9850   30.1800   41.4690 H   0  0  0  0  0  0  0  0  0  0  0  0
   36.1640   27.8460   42.2190 O   0  0  0  0  0  0  0  0  0  0  0  0
   36.9240   26.9820   42.9860 C   0  0  0  0  0  2  0  0  0  0  0  0
   37.2110   25.7500   42.1180 C   0  0  0  0  0  2  0  0  0  0  0  0
   38.2590   25.4050   42.2570 H   0  0  0  0  0  0  0  0  0  0  0  0
  1  7  1  0  0  0  0
  1  2  1  0  0  0  0
  2 22  1  0  0  0  0
  3  2  2  0  0  0  0
  3 10  1  0  0  0  0
  4  3  1  0  0  0  0
  5  6  1  0  0  0  0
  5  4  2  0  0  0  0
  6  1  2  0  0  0  0
  8  5  1  0  0  0  0
  9 14  1  6  0  0  0
  9 10  1  0  0  0  0
  9 13  1  0  0  0  0
  9 20  1  0  0  0  0
 10 15  1  1  0  0  0
 11 10  1  0  0  0  0
 11 17  1  0  0  0  0
 12 11  1  0  0  0  0
 12 13  1  0  0  0  0
 13 18  1  0  0  0  0
 16 11  1  0  0  0  0
 19 13  1  0  0  0  0
 20 21  1  0  0  0  0
 22 24  1  0  0  0  0
 24 27  1  0  0  0  0
 24 23  2  1  0  0  0
 25 26  1  0  0  0  0
 25 24  1  0  0  0  0
 27 28  1  0  0  0  0
 29 30  1  0  0  0  0
 29 28  1  0  0  0  0
M  END
>  <minimizedAffinity>
-4.69847202

$$$$

 OpenBabel03252502183D

 30 31  0  0  1  0  0  0  0  0999 V2000
   38.8670   27.8710   39.3810 C   0  0  0  0  0  0  0  0  0  0  0  0
   38.7260   29.2660   39.3450 C   0  0  0  0  0  0  0  0  0  0  0  0
   39.8250   30.0360   39.0090 C   0  0  0  0  0  0  0  0  0  0  0  0
   40.9820   29.3860   38.7330 N   0  0  0  0  0  0  0  0  0  0  0  0
   41.1020   28.0500   38.7730 C   0  0  0  0  0  0  0  0  0  0  0  0
   40.0420   27.2900   39.0980 N   0  0  0  0  0  0  0  0  0  0  0  0
   38.0030   27.2740   39.6450 H   0  0  0  0  0  0  0  0  0  0  0  0
   42.0950   27.6690   38.5270 H   0  0  0  0  0  0  0  0  0  0  0  0
   40.6040   32.1460   37.9620 C   0  0  2  0  0  0  0  0  0  0  0  0
   39.6820   31.5100   39.0490 C   0  0  2  0  0  0  0  0  0  0  0  0
   40.2290   32.1310   40.2760 C   0  0  0  0  0  0  0  0  0  0  0  0
   41.2590   33.0060   39.9230 O   0  0  0  0  0  0  0  0  0  0  0  0
   40.8690   33.4760   38.6620 C   0  0  0  0  0  0  0  0  0  0  0  0
   41.5260   31.5860   37.8450 H   0  0  0  0  0  0  0  0  0  0  0  0
   38.6930   31.8090   38.6750 H   0  0  0  0  0  0  0  0  0  0  0  0
   40.5980   31.3220   40.9620 H   0  0  0  0  0  0  0  0  0  0  0  0
   39.4340   32.7150   40.7950 H   0  0  0  0  0  0  0  0  0  0  0  0
   39.9590   34.0890   38.7070 H   0  0  0  0  0  0  0  0  0  0  0  0
   41.7270   33.9280   38.1600 H   0  0  0  0  0  0  0  0  0  0  0  0
   39.8940   32.3650   36.7810 O   0  0  0  0  0  0  0  0  0  0  0  0
   39.7700   33.3260   36.6130 H   0  0  0  0  0  0  0  0  0  0  0  0
   37.4610   29.7880   39.6520 O   0  0  0  0  0  0  0  0  0  0  0  0
   37.9470   30.1120   42.2000 O   0  0  0  0  0  0  0  0  0  0  0  0
   36.8580   29.8220   41.2340 P   0  0  1  0  0  0  0  0  0  0  0  0
   35.6610   31.0190   41.3960 O   0  0  0  0  0  0  0  0  0  0  0  0
   34.7750   30.6420   41.6110 H   0  0  0  0  0  0  0  0  0  0  0  0
   36.1640   28.3030   41.6010 O   0  0  0  0  0  0  0  0  0  0  0  0
   36.7570   27.7100   42.7000 C   0  0  0  0  0  2  0  0  0  0  0  0
   37.0840   26.2640   42.3070 C   0  0  0  0  0  2  0  0  0  0  0  0
   38.0790   25.9630   42.7000 H   0  0  0  0  0  0  0  0  0  0  0  0
  1  7  1  0  0  0  0
  2  1  1  0  0  0  0
  2 22  1  0  0  0  0
  3 10  1  0  0  0  0
  3  2  2  0  0  0  0
  4  5  2  0  0  0  0
  4  3  1  0  0  0  0
  5  6  1  0  0  0  0
  6  1  2  0  0  0  0
  8  5  1  0  0  0  0
  9 14  1  6  0  0  0
  9 13  1  0  0  0  0
  9 10  1  0  0  0  0
 10 15  1  6  0  0  0
 10 11  1  0  0  0  0
 11 17  1  0  0  0  0
 11 16  1  0  0  0  0
 12 11  1  0  0  0  0
 13 18  1  0  0  0  0
 13 12  1  0  0  0  0
 19 13  1  0  0  0  0
 20  9  1  0  0  0  0
 21 20  1  0  0  0  0
 22 24  1  0  0  0  0
 24 25  1  0  0  0  0
 24 27  1  0  0  0  0
 24 23  2  1  0  0  0
 25 26  1  0  0  0  0
 27 28  1  0  0  0  0
 29 28  1  0  0  0  0
 29 30  1  0  0  0  0
M  END
>  <minimizedAffinity>
-4.66881418

$$$$

 OpenBabel03252502183D

 30 31  0  0  1  0  0  0  0  0999 V2000
   38.3450   28.3550   39.0480 C   0  0  0  0  0  0  0  0  0  0  0  0
   38.2810   29.5180   39.8270 C   0  0  0  0  0  0  0  0  0  0  0  0
   39.0720   30.5980   39.4750 C   0  0  0  0  0  0  0  0  0  0  0  0
   39.8670   30.4610   38.3860 N   0  0  0  0  0  0  0  0  0  0  0  0
   39.9170   29.3400   37.6490 C   0  0  0  0  0  0  0  0  0  0  0  0
   39.1540   28.2830   37.9810 N   0  0  0  0  0  0  0  0  0  0  0  0
   37.7250   27.5130   39.3290 H   0  0  0  0  0  0  0  0  0  0  0  0
   40.6040   29.3750   36.8010 H   0  0  0  0  0  0  0  0  0  0  0  0
   37.9480   32.7780   39.8510 C   0  0  2  0  0  0  0  0  0  0  0  0
   39.0510   31.7920   40.3510 C   0  0  2  0  0  0  0  0  0  0  0  0
   40.2570   32.6420   40.2330 C   0  0  0  0  0  0  0  0  0  0  0  0
   39.8800   33.9090   39.7840 O   0  0  0  0  0  0  0  0  0  0  0  0
   38.5980   34.0770   40.3220 C   0  0  0  0  0  0  0  0  0  0  0  0
   37.8630   32.7640   38.7690 H   0  0  0  0  0  0  0  0  0  0  0  0
   38.6560   31.5330   41.3430 H   0  0  0  0  0  0  0  0  0  0  0  0
   40.9790   32.1550   39.5230 H   0  0  0  0  0  0  0  0  0  0  0  0
   40.7450   32.7520   41.2300 H   0  0  0  0  0  0  0  0  0  0  0  0
   38.6080   34.1390   41.4180 H   0  0  0  0  0  0  0  0  0  0  0  0
   38.0860   34.8880   39.8000 H   0  0  0  0  0  0  0  0  0  0  0  0
   36.7530   32.5690   40.5390 O   0  0  0  0  0  0  0  0  0  0  0  0
   36.5450   33.3260   41.1300 H   0  0  0  0  0  0  0  0  0  0  0  0
   37.4060   29.5060   40.9220 O   0  0  0  0  0  0  0  0  0  0  0  0
   39.1190   28.2950   42.4820 O   0  0  0  0  0  0  0  0  0  0  0  0
   37.6660   28.5240   42.2770 P   0  0  1  0  0  0  0  0  0  0  0  0
   37.0320   29.2490   43.6780 O   0  0  0  0  0  0  0  0  0  0  0  0
   36.2960   28.7260   44.0750 H   0  0  0  0  0  0  0  0  0  0  0  0
   36.8850   27.0220   42.0370 O   0  0  0  0  0  0  0  0  0  0  0  0
   37.7840   25.9780   41.9210 C   0  0  0  0  0  2  0  0  0  0  0  0
   36.9850   24.6800   42.0900 C   0  0  0  0  0  2  0  0  0  0  0  0
   37.3300   23.9080   41.3680 H   0  0  0  0  0  0  0  0  0  0  0  0
  1  7  1  0  0  0  0
  1  2  1  0  0  0  0
  2 22  1  0  0  0  0
  3  2  2  0  0  0  0
  3 10  1  0  0  0  0
  4  3  1  0  0  0  0
  5  6  1  0  0  0  0
  5  4  2  0  0  0  0
  6  1  2  0  0  0  0
  8  5  1  0  0  0  0
  9 14  1  6  0  0  0
  9 13  1  0  0  0  0
  9 10  1  0  0  0  0
  9 20  1  0  0  0  0
 10 15  1  1  0  0  0
 11 10  1  0  0  0  0
 11 17  1  0  0  0  0
 12 11  1  0  0  0  0
 12 13  1  0  0  0  0
 13 18  1  0  0  0  0
 16 11  1  0  0  0  0
 19 13  1  0  0  0  0
 20 21  1  0  0  0  0
 22 24  1  0  0  0  0
 24 23  2  1  0  0  0
 24 25  1  0  0  0  0
 25 26  1  0  0  0  0
 27 24  1  0  0  0  0
 28 27  1  0  0  0  0
 28 29  1  0  0  0  0
 30 29  1  0  0  0  0
M  END
>  <minimizedAffinity>
-4.66757298

$$$$

 OpenBabel03252502183D

 30 31  0  0  1  0  0  0  0  0999 V2000
   39.7410   29.4920   38.8430 C   0  0  0  0  0  0  0  0  0  0  0  0
   38.5860   29.2330   39.5940 C   0  0  0  0  0  0  0  0  0  0  0  0
   38.6190   28.2210   40.5370 C   0  0  0  0  0  0  0  0  0  0  0  0
   39.7800   27.5360   40.6760 N   0  0  0  0  0  0  0  0  0  0  0  0
   40.8780   27.7950   39.9490 C   0  0  0  0  0  0  0  0  0  0  0  0
   40.8590   28.7760   39.0300 N   0  0  0  0  0  0  0  0  0  0  0  0
   39.7080   30.2850   38.1070 H   0  0  0  0  0  0  0  0  0  0  0  0
   41.7390   27.1610   40.1710 H   0  0  0  0  0  0  0  0  0  0  0  0
   37.5770   28.2010   42.7890 C   0  0  2  0  0  0  0  0  0  0  0  0
   37.3700   27.9080   41.2690 C   0  0  2  0  0  0  0  0  0  0  0  0
   37.0440   26.4650   41.3070 C   0  0  0  0  0  0  0  0  0  0  0  0
   37.0270   26.0360   42.6350 O   0  0  0  0  0  0  0  0  0  0  0  0
   36.5960   27.1690   43.3380 C   0  0  0  0  0  0  0  0  0  0  0  0
   38.5900   27.9710   43.1040 H   0  0  0  0  0  0  0  0  0  0  0  0
   36.5900   28.6430   41.0270 H   0  0  0  0  0  0  0  0  0  0  0  0
   37.8070   25.9020   40.7050 H   0  0  0  0  0  0  0  0  0  0  0  0
   36.0330   26.2920   40.8680 H   0  0  0  0  0  0  0  0  0  0  0  0
   35.5600   27.4410   43.0990 H   0  0  0  0  0  0  0  0  0  0  0  0
   36.8290   27.0510   44.3990 H   0  0  0  0  0  0  0  0  0  0  0  0
   37.1390   29.4870   43.1060 O   0  0  0  0  0  0  0  0  0  0  0  0
   36.3330   29.4600   43.6680 H   0  0  0  0  0  0  0  0  0  0  0  0
   37.4630   30.0330   39.3360 O   0  0  0  0  0  0  0  0  0  0  0  0
   36.8840   32.5830   39.3490 O   0  0  0  0  0  0  0  0  0  0  0  0
   37.1130   31.4190   40.2430 P   0  0  1  0  0  0  0  0  0  0  0  0
   35.7200   31.1840   41.1890 O   0  0  0  0  0  0  0  0  0  0  0  0
   35.9080   31.2190   42.1570 H   0  0  0  0  0  0  0  0  0  0  0  0
   38.4290   31.7540   41.2830 O   0  0  0  0  0  0  0  0  0  0  0  0
   39.0360   32.9600   40.9850 C   0  0  0  0  0  2  0  0  0  0  0  0
   40.4870   32.6460   40.6000 C   0  0  0  0  0  2  0  0  0  0  0  0
   40.8080   33.2660   39.7350 H   0  0  0  0  0  0  0  0  0  0  0  0
  1  6  2  0  0  0  0
  1  2  1  0  0  0  0
  2  3  2  0  0  0  0
  3  4  1  0  0  0  0
  3 10  1  0  0  0  0
  5  8  1  0  0  0  0
  5  4  2  0  0  0  0
  6  5  1  0  0  0  0
  7  1  1  0  0  0  0
  9 14  1  1  0  0  0
  9 20  1  0  0  0  0
  9 13  1  0  0  0  0
 10 15  1  6  0  0  0
 10 11  1  0  0  0  0
 10  9  1  0  0  0  0
 11 12  1  0  0  0  0
 12 13  1  0  0  0  0
 13 19  1  0  0  0  0
 16 11  1  0  0  0  0
 17 11  1  0  0  0  0
 18 13  1  0  0  0  0
 20 21  1  0  0  0  0
 22  2  1  0  0  0  0
 22 24  1  0  0  0  0
 24 23  2  6  0  0  0
 24 25  1  0  0  0  0
 24 27  1  0  0  0  0
 25 26  1  0  0  0  0
 28 27  1  0  0  0  0
 29 28  1  0  0  0  0
 30 29  1  0  0  0  0
M  END
>  <minimizedAffinity>
-4.63499022

$$$$

 OpenBabel03252502183D

 30 31  0  0  1  0  0  0  0  0999 V2000
   39.2860   28.3190   39.3910 C   0  0  0  0  0  0  0  0  0  0  0  0
   39.0930   29.4490   40.1980 C   0  0  0  0  0  0  0  0  0  0  0  0
   39.2500   30.7030   39.6350 C   0  0  0  0  0  0  0  0  0  0  0  0
   39.5840   30.7600   38.3220 N   0  0  0  0  0  0  0  0  0  0  0  0
   39.7650   29.6690   37.5620 C   0  0  0  0  0  0  0  0  0  0  0  0
   39.6160   28.4440   38.0980 N   0  0  0  0  0  0  0  0  0  0  0  0
   39.1630   27.3410   39.8380 H   0  0  0  0  0  0  0  0  0  0  0  0
   40.0310   29.8700   36.5220 H   0  0  0  0  0  0  0  0  0  0  0  0
   38.0430   32.8510   39.9260 C   0  0  2  0  0  0  0  0  0  0  0  0
   39.1190   31.8850   40.5170 C   0  0  2  0  0  0  0  0  0  0  0  0
   40.3090   32.7640   40.5210 C   0  0  0  0  0  0  0  0  0  0  0  0
   39.9440   34.0280   40.0510 O   0  0  0  0  0  0  0  0  0  0  0  0
   38.6130   34.1580   40.4690 C   0  0  0  0  0  0  0  0  0  0  0  0
   38.0590   32.8480   38.8410 H   0  0  0  0  0  0  0  0  0  0  0  0
   38.6390   31.6040   41.4650 H   0  0  0  0  0  0  0  0  0  0  0  0
   41.1060   32.3040   39.8770 H   0  0  0  0  0  0  0  0  0  0  0  0
   40.6990   32.8740   41.5600 H   0  0  0  0  0  0  0  0  0  0  0  0
   38.5210   34.2070   41.5620 H   0  0  0  0  0  0  0  0  0  0  0  0
   38.1320   34.9640   39.9100 H   0  0  0  0  0  0  0  0  0  0  0  0
   36.7940   32.6040   40.4980 O   0  0  0  0  0  0  0  0  0  0  0  0
   36.5140   33.3490   41.0760 H   0  0  0  0  0  0  0  0  0  0  0  0
   38.7470   29.2240   41.5390 O   0  0  0  0  0  0  0  0  0  0  0  0
   36.8180   27.4710   41.7460 O   0  0  0  0  0  0  0  0  0  0  0  0
   37.1570   28.8910   42.0170 P   0  0  1  0  0  0  0  0  0  0  0  0
   36.9540   29.1850   43.6790 O   0  0  0  0  0  0  0  0  0  0  0  0
   36.3140   29.9150   43.8600 H   0  0  0  0  0  0  0  0  0  0  0  0
   36.0880   29.9050   41.1480 O   0  0  0  0  0  0  0  0  0  0  0  0
   35.2750   29.1900   40.2870 C   0  0  0  0  0  2  0  0  0  0  0  0
   35.7040   29.5580   38.8610 C   0  0  0  0  0  2  0  0  0  0  0  0
   35.7090   28.6580   38.2070 H   0  0  0  0  0  0  0  0  0  0  0  0
  1  7  1  0  0  0  0
  1  2  1  0  0  0  0
  2 22  1  0  0  0  0
  3  2  2  0  0  0  0
  3 10  1  0  0  0  0
  4  3  1  0  0  0  0
  5  6  1  0  0  0  0
  5  4  2  0  0  0  0
  6  1  2  0  0  0  0
  8  5  1  0  0  0  0
  9 14  1  6  0  0  0
  9 13  1  0  0  0  0
  9 20  1  0  0  0  0
  9 10  1  0  0  0  0
 10 11  1  0  0  0  0
 10 15  1  1  0  0  0
 11 17  1  0  0  0  0
 12 13  1  0  0  0  0
 12 11  1  0  0  0  0
 13 18  1  0  0  0  0
 16 11  1  0  0  0  0
 19 13  1  0  0  0  0
 20 21  1  0  0  0  0
 22 24  1  0  0  0  0
 24 23  2  6  0  0  0
 24 25  1  0  0  0  0
 25 26  1  0  0  0  0
 27 24  1  0  0  0  0
 28 27  1  0  0  0  0
 29 28  1  0  0  0  0
 30 29  1  0  0  0  0
M  END
>  <minimizedAffinity>
-4.61667967

$$$$

 OpenBabel03252502183D

 30 31  0  0  1  0  0  0  0  0999 V2000
   36.8770   26.5780   38.8880 C   0  0  0  0  0  0  0  0  0  0  0  0
   37.3380   27.6570   39.6550 C   0  0  0  0  0  0  0  0  0  0  0  0
   37.0120   28.9420   39.2570 C   0  0  0  0  0  0  0  0  0  0  0  0
   36.2600   29.0770   38.1380 N   0  0  0  0  0  0  0  0  0  0  0  0
   35.8260   28.0330   37.4140 C   0  0  0  0  0  0  0  0  0  0  0  0
   36.1360   26.7800   37.7890 N   0  0  0  0  0  0  0  0  0  0  0  0
   37.1360   25.5750   39.2040 H   0  0  0  0  0  0  0  0  0  0  0  0
   35.2300   28.2960   36.5370 H   0  0  0  0  0  0  0  0  0  0  0  0
   36.4680   31.1660   40.2110 C   0  0  2  0  0  0  0  0  0  0  0  0
   37.5700   30.0740   40.0330 C   0  0  2  0  0  0  0  0  0  0  0  0
   38.6070   30.8420   39.3090 C   0  0  0  0  0  0  0  0  0  0  0  0
   38.1730   32.1590   39.1520 O   0  0  0  0  0  0  0  0  0  0  0  0
   37.3880   32.3810   40.2910 C   0  0  0  0  0  0  0  0  0  0  0  0
   35.8260   31.2300   39.3390 H   0  0  0  0  0  0  0  0  0  0  0  0
   37.7320   29.7780   41.0780 H   0  0  0  0  0  0  0  0  0  0  0  0
   38.7980   30.3530   38.3160 H   0  0  0  0  0  0  0  0  0  0  0  0
   39.5540   30.8510   39.8990 H   0  0  0  0  0  0  0  0  0  0  0  0
   37.9800   32.3710   41.2160 H   0  0  0  0  0  0  0  0  0  0  0  0
   36.7580   33.2600   40.1340 H   0  0  0  0  0  0  0  0  0  0  0  0
   35.8000   30.9970   41.4240 O   0  0  0  0  0  0  0  0  0  0  0  0
   36.0080   31.7270   42.0500 H   0  0  0  0  0  0  0  0  0  0  0  0
   38.1040   27.3530   40.7900 O   0  0  0  0  0  0  0  0  0  0  0  0
   38.3880   27.3380   43.3890 O   0  0  0  0  0  0  0  0  0  0  0  0
   37.4030   27.0850   42.3080 P   0  0  1  0  0  0  0  0  0  0  0  0
   36.0680   28.1100   42.5440 O   0  0  0  0  0  0  0  0  0  0  0  0
   35.2190   27.6140   42.6320 H   0  0  0  0  0  0  0  0  0  0  0  0
   36.8680   25.4630   42.3980 O   0  0  0  0  0  0  0  0  0  0  0  0
   37.8780   24.5630   42.1100 C   0  0  0  0  0  2  0  0  0  0  0  0
   37.3280   23.5970   41.0530 C   0  0  0  0  0  2  0  0  0  0  0  0
   38.0990   23.3740   40.2830 H   0  0  0  0  0  0  0  0  0  0  0  0
  1  7  1  0  0  0  0
  1  2  1  0  0  0  0
  2 22  1  0  0  0  0
  3  2  2  0  0  0  0
  3 10  1  0  0  0  0
  4  3  1  0  0  0  0
  5  6  1  0  0  0  0
  5  4  2  0  0  0  0
  6  1  2  0  0  0  0
  8  5  1  0  0  0  0
  9 14  1  6  0  0  0
  9 13  1  0  0  0  0
  9 20  1  0  0  0  0
 10  9  1  0  0  0  0
 10 15  1  1  0  0  0
 11 17  1  0  0  0  0
 11 10  1  0  0  0  0
 12 11  1  0  0  0  0
 12 13  1  0  0  0  0
 13 18  1  0  0  0  0
 16 11  1  0  0  0  0
 19 13  1  0  0  0  0
 20 21  1  0  0  0  0
 22 24  1  0  0  0  0
 24 27  1  0  0  0  0
 24 25  1  0  0  0  0
 24 23  2  1  0  0  0
 25 26  1  0  0  0  0
 28 27  1  0  0  0  0
 29 28  1  0  0  0  0
 30 29  1  0  0  0  0
M  END
>  <minimizedAffinity>
-4.51034594

$$$$

 OpenBabel03252502183D

 30 31  0  0  1  0  0  0  0  0999 V2000
   36.8100   31.0040   38.5280 C   0  0  0  0  0  0  0  0  0  0  0  0
   37.0060   30.7770   39.8970 C   0  0  0  0  0  0  0  0  0  0  0  0
   36.9700   29.4760   40.3680 C   0  0  0  0  0  0  0  0  0  0  0  0
   36.7450   28.4920   39.4630 N   0  0  0  0  0  0  0  0  0  0  0  0
   36.5590   28.7250   38.1540 C   0  0  0  0  0  0  0  0  0  0  0  0
   36.5910   29.9840   37.6850 N   0  0  0  0  0  0  0  0  0  0  0  0
   36.8390   32.0240   38.1670 H   0  0  0  0  0  0  0  0  0  0  0  0
   36.3890   27.8330   37.5470 H   0  0  0  0  0  0  0  0  0  0  0  0
   38.6150   29.1410   42.1940 C   0  0  2  0  0  0  0  0  0  0  0  0
   37.1020   29.2580   41.8270 C   0  0  2  0  0  0  0  0  0  0  0  0
   36.6030   27.9410   42.2820 C   0  0  0  0  0  0  0  0  0  0  0  0
   37.6570   27.2260   42.8530 O   0  0  0  0  0  0  0  0  0  0  0  0
   38.4660   28.2260   43.4080 C   0  0  0  0  0  0  0  0  0  0  0  0
   39.1780   28.6450   41.4100 H   0  0  0  0  0  0  0  0  0  0  0  0
   36.8300   30.1700   42.3760 H   0  0  0  0  0  0  0  0  0  0  0  0
   36.1640   27.3930   41.4060 H   0  0  0  0  0  0  0  0  0  0  0  0
   35.8120   28.0810   43.0570 H   0  0  0  0  0  0  0  0  0  0  0  0
   37.9750   28.7490   44.2390 H   0  0  0  0  0  0  0  0  0  0  0  0
   39.4590   27.8200   43.6150 H   0  0  0  0  0  0  0  0  0  0  0  0
   39.1210   30.3780   42.5920 O   0  0  0  0  0  0  0  0  0  0  0  0
   39.3380   30.3830   43.5510 H   0  0  0  0  0  0  0  0  0  0  0  0
   37.2310   31.9010   40.7050 O   0  0  0  0  0  0  0  0  0  0  0  0
   37.1480   34.1470   39.3700 O   0  0  0  0  0  0  0  0  0  0  0  0
   38.0600   33.2660   40.1430 P   0  0  1  0  0  0  0  0  0  0  0  0
   38.7000   34.1590   41.4400 O   0  0  0  0  0  0  0  0  0  0  0  0
   39.6860   34.1870   41.4310 H   0  0  0  0  0  0  0  0  0  0  0  0
   39.3480   32.7630   39.1370 O   0  0  0  0  0  0  0  0  0  0  0  0
   40.4190   32.2780   39.8640 C   0  0  0  0  0  2  0  0  0  0  0  0
   40.6590   30.8360   39.3980 C   0  0  0  0  0  2  0  0  0  0  0  0
   41.7470   30.6270   39.3070 H   0  0  0  0  0  0  0  0  0  0  0  0
  1  2  1  0  0  0  0
  2  3  2  0  0  0  0
  2 22  1  0  0  0  0
  3 10  1  0  0  0  0
  4  3  1  0  0  0  0
  5  4  2  0  0  0  0
  6  5  1  0  0  0  0
  6  1  2  0  0  0  0
  7  1  1  0  0  0  0
  8  5  1  0  0  0  0
  9 14  1  6  0  0  0
  9 20  1  0  0  0  0
  9 13  1  0  0  0  0
 10  9  1  0  0  0  0
 10 11  1  0  0  0  0
 10 15  1  1  0  0  0
 11 12  1  0  0  0  0
 11 17  1  0  0  0  0
 12 13  1  0  0  0  0
 13 19  1  0  0  0  0
 13 18  1  0  0  0  0
 16 11  1  0  0  0  0
 20 21  1  0  0  0  0
 24 23  2  6  0  0  0
 24 22  1  0  0  0  0
 24 25  1  0  0  0  0
 26 25  1  0  0  0  0
 27 28  1  0  0  0  0
 27 24  1  0  0  0  0
 29 28  1  0  0  0  0
 30 29  1  0  0  0  0
M  END
>  <minimizedAffinity>
-4.43151903

$$$$

 OpenBabel03252502183D

 30 31  0  0  1  0  0  0  0  0999 V2000
   39.1010   28.0080   40.0170 C   0  0  0  0  0  0  0  0  0  0  0  0
   39.0020   29.4050   39.9620 C   0  0  0  0  0  0  0  0  0  0  0  0
   39.8190   30.0950   39.0840 C   0  0  0  0  0  0  0  0  0  0  0  0
   40.6730   29.3680   38.3230 N   0  0  0  0  0  0  0  0  0  0  0  0
   40.7570   28.0300   38.3870 C   0  0  0  0  0  0  0  0  0  0  0  0
   39.9690   27.3470   39.2370 N   0  0  0  0  0  0  0  0  0  0  0  0
   38.4600   27.4740   40.7070 H   0  0  0  0  0  0  0  0  0  0  0  0
   41.4910   27.5800   37.7150 H   0  0  0  0  0  0  0  0  0  0  0  0
   40.6040   32.1310   37.9020 C   0  0  2  0  0  0  0  0  0  0  0  0
   39.7580   31.5750   39.0910 C   0  0  2  0  0  0  0  0  0  0  0  0
   40.4520   32.1970   40.2400 C   0  0  0  0  0  0  0  0  0  0  0  0
   41.4880   33.0040   39.7650 O   0  0  0  0  0  0  0  0  0  0  0  0
   41.0040   33.4620   38.5330 C   0  0  0  0  0  0  0  0  0  0  0  0
   41.4800   31.5170   37.7160 H   0  0  0  0  0  0  0  0  0  0  0  0
   38.7550   31.9180   38.8030 H   0  0  0  0  0  0  0  0  0  0  0  0
   40.8420   31.3870   40.9140 H   0  0  0  0  0  0  0  0  0  0  0  0
   39.7420   32.8370   40.8140 H   0  0  0  0  0  0  0  0  0  0  0  0
   40.1360   34.1250   38.6440 H   0  0  0  0  0  0  0  0  0  0  0  0
   41.8330   33.8520   37.9380 H   0  0  0  0  0  0  0  0  0  0  0  0
   39.7960   32.3570   36.7870 O   0  0  0  0  0  0  0  0  0  0  0  0
   39.7070   33.3190   36.6020 H   0  0  0  0  0  0  0  0  0  0  0  0
   38.0650   30.0130   40.8100 O   0  0  0  0  0  0  0  0  0  0  0  0
   35.8470   28.6300   40.8840 O   0  0  0  0  0  0  0  0  0  0  0  0
   36.4000   29.9560   40.5070 P   0  0  1  0  0  0  0  0  0  0  0  0
   35.5850   31.1530   41.3970 O   0  0  0  0  0  0  0  0  0  0  0  0
   35.1500   31.8240   40.8200 H   0  0  0  0  0  0  0  0  0  0  0  0
   36.1260   30.2310   38.8420 O   0  0  0  0  0  0  0  0  0  0  0  0
   35.3370   29.2490   38.2730 C   0  0  0  0  0  2  0  0  0  0  0  0
   35.7070   29.1840   36.7860 C   0  0  0  0  0  2  0  0  0  0  0  0
   35.7510   28.1300   36.4360 H   0  0  0  0  0  0  0  0  0  0  0  0
  1  7  1  0  0  0  0
  2  1  1  0  0  0  0
  2 22  1  0  0  0  0
  3 10  1  0  0  0  0
  3  2  2  0  0  0  0
  4  5  2  0  0  0  0
  4  3  1  0  0  0  0
  5  6  1  0  0  0  0
  6  1  2  0  0  0  0
  8  5  1  0  0  0  0
  9 14  1  6  0  0  0
  9 13  1  0  0  0  0
  9 10  1  0  0  0  0
 10 15  1  6  0  0  0
 10 11  1  0  0  0  0
 11 17  1  0  0  0  0
 11 16  1  0  0  0  0
 12 11  1  0  0  0  0
 13 18  1  0  0  0  0
 13 12  1  0  0  0  0
 19 13  1  0  0  0  0
 20  9  1  0  0  0  0
 21 20  1  0  0  0  0
 24 22  1  0  0  0  0
 24 23  2  1  0  0  0
 24 25  1  0  0  0  0
 26 25  1  0  0  0  0
 27 24  1  0  0  0  0
 28 27  1  0  0  0  0
 29 28  1  0  0  0  0
 30 29  1  0  0  0  0
M  END
>  <minimizedAffinity>
-4.34007168

$$$$
