
 OpenBabel03252504593D

 31 32  0  0  1  0  0  0  0  0999 V2000
   38.8530   29.4800   42.7160 N   0  0  0  0  0  0  0  0  0  0  0  0
   39.5370   28.2440   42.8210 C   0  0  0  0  0  0  0  0  0  0  0  0
   38.5370   27.3810   43.4750 C   0  0  0  0  0  0  0  0  0  0  0  0
   37.2620   28.1730   43.6790 C   0  0  0  0  0  0  0  0  0  0  0  0
   37.4570   29.3270   42.6810 C   0  0  2  0  0  0  0  0  0  0  0  0
   40.4740   27.8010   42.5880 H   0  0  0  0  0  0  0  0  0  0  0  0
   38.5860   26.3550   43.7710 H   0  0  0  0  0  0  0  0  0  0  0  0
   37.1740   28.5430   44.7070 H   0  0  0  0  0  0  0  0  0  0  0  0
   36.4290   27.5300   43.3400 H   0  0  0  0  0  0  0  0  0  0  0  0
   36.9220   30.2370   42.9350 H   0  0  0  0  0  0  0  0  0  0  0  0
   39.5640   30.6560   42.6950 C   0  0  0  0  0  0  0  0  0  0  0  0
   40.6070   30.4280   43.0250 H   0  0  0  0  0  0  0  0  0  0  0  0
   39.2440   31.4070   43.4520 H   0  0  0  0  0  0  0  0  0  0  0  0
   40.1910   31.7200   39.1150 C   0  0  0  0  0  0  0  0  0  0  0  0
   40.3050   30.9580   40.3130 C   0  0  0  0  0  0  0  0  0  0  0  0
   39.5640   31.3540   41.4260 C   0  0  0  0  0  0  0  0  0  0  0  0
   38.7780   32.4450   41.2910 N   0  0  0  0  0  0  0  0  0  0  0  0
   38.6750   33.1740   40.1260 C   0  0  0  0  0  0  0  0  0  0  0  0
   39.3730   32.8150   39.0490 N   0  0  0  0  0  0  0  0  0  0  0  0
   40.8050   31.3370   38.3010 H   0  0  0  0  0  0  0  0  0  0  0  0
   40.9350   30.1070   40.3800 H   0  0  0  0  0  0  0  0  0  0  0  0
   38.0190   34.0340   40.1100 H   0  0  0  0  0  0  0  0  0  0  0  0
   37.1450   28.7970   41.4200 O   0  0  0  0  0  0  0  0  0  0  0  0
   36.9330   30.3290   39.2630 O   0  0  0  0  0  0  0  0  0  0  0  0
   36.2120   29.7820   40.4690 P   0  0  2  0  0  0  0  0  0  0  0  0
   35.7360   31.1200   41.4010 O   0  0  0  0  0  0  0  0  0  0  0  0
   35.1430   30.8270   42.1510 H   0  0  0  0  0  0  0  0  0  0  0  0
   34.7610   29.0070   40.0000 O   0  0  0  0  0  0  0  0  0  0  0  0
   34.8180   28.5000   38.7240 C   0  0  0  0  0  2  0  0  0  0  0  0
   33.5630   28.8790   37.9420 C   0  0  0  0  0  2  0  0  0  0  0  0
   33.7240   28.5910   36.8790 H   0  0  0  0  0  0  0  0  0  0  0  0
  1  2  1  0  0  0  0
  2  3  2  0  0  0  0
  3  4  1  0  0  0  0
  3  7  1  0  0  0  0
  4  8  1  0  0  0  0
  5  1  1  0  0  0  0
  5 10  1  1  0  0  0
  5  4  1  0  0  0  0
  6  2  1  0  0  0  0
  9  4  1  0  0  0  0
 11  1  1  0  0  0  0
 11 12  1  0  0  0  0
 11 13  1  0  0  0  0
 14 15  1  0  0  0  0
 15 21  1  0  0  0  0
 15 16  2  0  0  0  0
 16 11  1  0  0  0  0
 17 16  1  0  0  0  0
 18 17  2  0  0  0  0
 19 14  2  0  0  0  0
 19 18  1  0  0  0  0
 20 14  1  0  0  0  0
 22 18  1  0  0  0  0
 23  5  1  0  0  0  0
 25 24  2  6  0  0  0
 25 26  1  0  0  0  0
 25 23  1  0  0  0  0
 26 27  1  0  0  0  0
 28 25  1  0  0  0  0
 29 28  1  0  0  0  0
 30 29  1  0  0  0  0
 31 30  1  0  0  0  0
M  END
>  <minimizedAffinity>
-4.85789442

$$$$

 OpenBabel03252504593D

 31 32  0  0  1  0  0  0  0  0999 V2000
   36.9890   30.7980   40.1310 N   0  0  0  0  0  0  0  0  0  0  0  0
   37.0720   30.0580   38.9260 C   0  0  0  0  0  0  0  0  0  0  0  0
   37.2180   31.1170   37.9110 C   0  0  0  0  0  0  0  0  0  0  0  0
   37.2630   32.4620   38.6060 C   0  0  0  0  0  0  0  0  0  0  0  0
   37.6210   32.0500   40.0440 C   0  0  2  0  0  0  0  0  0  0  0  0
   37.0610   29.0560   38.5750 H   0  0  0  0  0  0  0  0  0  0  0  0
   37.3140   31.0580   36.8480 H   0  0  0  0  0  0  0  0  0  0  0  0
   36.2940   32.9720   38.5650 H   0  0  0  0  0  0  0  0  0  0  0  0
   38.1070   33.0220   38.1630 H   0  0  0  0  0  0  0  0  0  0  0  0
   37.2910   32.7480   40.8080 H   0  0  0  0  0  0  0  0  0  0  0  0
   36.3090   30.2800   41.2070 C   0  0  0  0  0  0  0  0  0  0  0  0
   35.3190   29.9140   40.8370 H   0  0  0  0  0  0  0  0  0  0  0  0
   36.0030   31.0310   41.9690 H   0  0  0  0  0  0  0  0  0  0  0  0
   38.8150   28.3070   43.2470 C   0  0  0  0  0  0  0  0  0  0  0  0
   38.2540   29.4050   42.5330 C   0  0  0  0  0  0  0  0  0  0  0  0
   37.0060   29.2410   41.9360 C   0  0  0  0  0  0  0  0  0  0  0  0
   36.4040   28.0390   42.0750 N   0  0  0  0  0  0  0  0  0  0  0  0
   36.9560   26.9840   42.7680 C   0  0  0  0  0  0  0  0  0  0  0  0
   38.1480   27.1170   43.3490 N   0  0  0  0  0  0  0  0  0  0  0  0
   39.7900   28.5270   43.6790 H   0  0  0  0  0  0  0  0  0  0  0  0
   38.7590   30.3340   42.4450 H   0  0  0  0  0  0  0  0  0  0  0  0
   36.4010   26.0570   42.8280 H   0  0  0  0  0  0  0  0  0  0  0  0
   39.0010   31.8000   40.0360 O   0  0  0  0  0  0  0  0  0  0  0  0
   41.1670   32.6970   41.2810 O   0  0  0  0  0  0  0  0  0  0  0  0
   39.9370   33.0870   40.5000 P   0  0  2  0  0  0  0  0  0  0  0  0
   39.0070   34.0780   41.5170 O   0  0  0  0  0  0  0  0  0  0  0  0
   38.2400   34.4720   41.0110 H   0  0  0  0  0  0  0  0  0  0  0  0
   40.3620   34.0660   39.1630 O   0  0  0  0  0  0  0  0  0  0  0  0
   41.4660   33.5990   38.4910 C   0  0  0  0  0  2  0  0  0  0  0  0
   41.0570   32.5740   37.4370 C   0  0  0  0  0  2  0  0  0  0  0  0
   41.9530   32.3480   36.8160 H   0  0  0  0  0  0  0  0  0  0  0  0
  1 11  1  0  0  0  0
  2  1  1  0  0  0  0
  3  4  1  0  0  0  0
  3  2  2  0  0  0  0
  4  5  1  0  0  0  0
  5  1  1  0  0  0  0
  5 10  1  1  0  0  0
  6  2  1  0  0  0  0
  7  3  1  0  0  0  0
  8  4  1  0  0  0  0
  9  4  1  0  0  0  0
 11 16  1  0  0  0  0
 11 13  1  0  0  0  0
 12 11  1  0  0  0  0
 14 19  1  0  0  0  0
 14 20  1  0  0  0  0
 15 14  2  0  0  0  0
 16 17  2  0  0  0  0
 16 15  1  0  0  0  0
 17 18  1  0  0  0  0
 18 22  1  0  0  0  0
 18 19  2  0  0  0  0
 21 15  1  0  0  0  0
 23  5  1  0  0  0  0
 23 25  1  0  0  0  0
 25 24  2  1  0  0  0
 25 26  1  0  0  0  0
 27 26  1  0  0  0  0
 28 25  1  0  0  0  0
 29 28  1  0  0  0  0
 30 29  1  0  0  0  0
 31 30  1  0  0  0  0
M  END
>  <minimizedAffinity>
-4.63193178

$$$$

 OpenBabel03252504593D

 31 32  0  0  1  0  0  0  0  0999 V2000
   37.0550   28.7440   41.7140 N   0  0  0  0  0  0  0  0  0  0  0  0
   36.8980   27.6620   40.8140 C   0  0  0  0  0  0  0  0  0  0  0  0
   35.8390   28.1480   39.9120 C   0  0  0  0  0  0  0  0  0  0  0  0
   35.4550   29.5560   40.3180 C   0  0  0  0  0  0  0  0  0  0  0  0
   36.6760   29.9760   41.1540 C   0  0  2  0  0  0  0  0  0  0  0  0
   37.2870   26.6920   40.6200 H   0  0  0  0  0  0  0  0  0  0  0  0
   35.3710   27.6840   39.0700 H   0  0  0  0  0  0  0  0  0  0  0  0
   34.5370   29.5700   40.9150 H   0  0  0  0  0  0  0  0  0  0  0  0
   35.4200   30.1570   39.3910 H   0  0  0  0  0  0  0  0  0  0  0  0
   36.4710   30.7380   41.9000 H   0  0  0  0  0  0  0  0  0  0  0  0
   37.5020   28.5120   42.9930 C   0  0  0  0  0  0  0  0  0  0  0  0
   36.8430   27.7300   43.4460 H   0  0  0  0  0  0  0  0  0  0  0  0
   37.3620   29.3630   43.6970 H   0  0  0  0  0  0  0  0  0  0  0  0
   40.7500   26.6890   43.6790 C   0  0  0  0  0  0  0  0  0  0  0  0
   39.3480   26.9450   43.6630 C   0  0  0  0  0  0  0  0  0  0  0  0
   38.8970   28.1380   43.1010 C   0  0  0  0  0  0  0  0  0  0  0  0
   39.8290   28.9810   42.6040 N   0  0  0  0  0  0  0  0  0  0  0  0
   41.1830   28.7230   42.6250 C   0  0  0  0  0  0  0  0  0  0  0  0
   41.6370   27.5880   43.1560 N   0  0  0  0  0  0  0  0  0  0  0  0
   41.0080   25.7340   44.1360 H   0  0  0  0  0  0  0  0  0  0  0  0
   38.6470   26.2580   44.0650 H   0  0  0  0  0  0  0  0  0  0  0  0
   41.8560   29.4570   42.2030 H   0  0  0  0  0  0  0  0  0  0  0  0
   37.6730   30.3160   40.2280 O   0  0  0  0  0  0  0  0  0  0  0  0
   39.1200   32.2210   41.3770 O   0  0  0  0  0  0  0  0  0  0  0  0
   38.1440   31.9040   40.2730 P   0  0  2  0  0  0  0  0  0  0  0  0
   36.7650   32.8560   40.5520 O   0  0  0  0  0  0  0  0  0  0  0  0
   36.1320   32.7840   39.7810 H   0  0  0  0  0  0  0  0  0  0  0  0
   38.7600   32.4180   38.7620 O   0  0  0  0  0  0  0  0  0  0  0  0
   38.9140   31.3820   37.8710 C   0  0  0  0  0  2  0  0  0  0  0  0
   37.6290   31.1670   37.0760 C   0  0  0  0  0  2  0  0  0  0  0  0
   37.8500   30.4380   36.2640 H   0  0  0  0  0  0  0  0  0  0  0  0
  1 11  1  0  0  0  0
  2  1  1  0  0  0  0
  3  4  1  0  0  0  0
  3  2  2  0  0  0  0
  4  8  1  0  0  0  0
  4  5  1  0  0  0  0
  5  1  1  0  0  0  0
  5 10  1  1  0  0  0
  6  2  1  0  0  0  0
  7  3  1  0  0  0  0
  9  4  1  0  0  0  0
 11 16  1  0  0  0  0
 11 12  1  0  0  0  0
 11 13  1  0  0  0  0
 14 20  1  0  0  0  0
 15 14  1  0  0  0  0
 15 21  1  0  0  0  0
 16 15  2  0  0  0  0
 17 18  2  0  0  0  0
 17 16  1  0  0  0  0
 18 19  1  0  0  0  0
 19 14  2  0  0  0  0
 22 18  1  0  0  0  0
 23 25  1  0  0  0  0
 23  5  1  0  0  0  0
 25 26  1  0  0  0  0
 25 24  2  1  0  0  0
 27 26  1  0  0  0  0
 28 25  1  0  0  0  0
 29 28  1  0  0  0  0
 30 29  1  0  0  0  0
 31 30  1  0  0  0  0
M  END
>  <minimizedAffinity>
-4.52708435

$$$$

 OpenBabel03252504593D

 31 32  0  0  1  0  0  0  0  0999 V2000
   36.6230   28.1170   39.0470 N   0  0  0  0  0  0  0  0  0  0  0  0
   37.3260   27.7990   37.8590 C   0  0  0  0  0  0  0  0  0  0  0  0
   36.7360   28.7310   36.8810 C   0  0  0  0  0  0  0  0  0  0  0  0
   35.7200   29.6060   37.5860 C   0  0  0  0  0  0  0  0  0  0  0  0
   36.1400   29.4370   39.0560 C   0  0  2  0  0  0  0  0  0  0  0  0
   38.0840   27.1450   37.5030 H   0  0  0  0  0  0  0  0  0  0  0  0
   36.9370   28.8700   35.8400 H   0  0  0  0  0  0  0  0  0  0  0  0
   34.6970   29.2540   37.4180 H   0  0  0  0  0  0  0  0  0  0  0  0
   35.9180   30.6450   37.2650 H   0  0  0  0  0  0  0  0  0  0  0  0
   35.3390   29.5920   39.7730 H   0  0  0  0  0  0  0  0  0  0  0  0
   36.4510   27.1600   40.0180 C   0  0  0  0  0  0  0  0  0  0  0  0
   36.7120   26.1700   39.5680 H   0  0  0  0  0  0  0  0  0  0  0  0
   35.3950   26.9970   40.3290 H   0  0  0  0  0  0  0  0  0  0  0  0
   37.4510   27.8800   43.5990 C   0  0  0  0  0  0  0  0  0  0  0  0
   36.6070   27.7190   42.4620 C   0  0  0  0  0  0  0  0  0  0  0  0
   37.1910   27.3820   41.2430 C   0  0  0  0  0  0  0  0  0  0  0  0
   38.5340   27.2280   41.2200 N   0  0  0  0  0  0  0  0  0  0  0  0
   39.3410   27.3860   42.3260 C   0  0  0  0  0  0  0  0  0  0  0  0
   38.8050   27.7080   43.5020 N   0  0  0  0  0  0  0  0  0  0  0  0
   36.9070   28.1430   44.5050 H   0  0  0  0  0  0  0  0  0  0  0  0
   35.5560   27.8500   42.5200 H   0  0  0  0  0  0  0  0  0  0  0  0
   40.4070   27.2420   42.2130 H   0  0  0  0  0  0  0  0  0  0  0  0
   37.2550   30.2690   39.2320 O   0  0  0  0  0  0  0  0  0  0  0  0
   38.2250   30.7280   41.6600 O   0  0  0  0  0  0  0  0  0  0  0  0
   37.2270   31.1730   40.6210 P   0  0  2  0  0  0  0  0  0  0  0  0
   35.6890   31.0170   41.3230 O   0  0  0  0  0  0  0  0  0  0  0  0
   34.9930   31.4170   40.7270 H   0  0  0  0  0  0  0  0  0  0  0  0
   37.4140   32.8400   40.2860 O   0  0  0  0  0  0  0  0  0  0  0  0
   38.6630   33.3110   40.6130 C   0  0  0  0  0  2  0  0  0  0  0  0
   39.6380   33.0860   39.4600 C   0  0  0  0  0  2  0  0  0  0  0  0
   40.5810   33.6240   39.7030 H   0  0  0  0  0  0  0  0  0  0  0  0
  1  5  1  0  0  0  0
  1 11  1  0  0  0  0
  2  1  1  0  0  0  0
  3  4  1  0  0  0  0
  3  2  2  0  0  0  0
  4  5  1  0  0  0  0
  5 23  1  0  0  0  0
  5 10  1  1  0  0  0
  6  2  1  0  0  0  0
  7  3  1  0  0  0  0
  8  4  1  0  0  0  0
  9  4  1  0  0  0  0
 11 13  1  0  0  0  0
 11 16  1  0  0  0  0
 12 11  1  0  0  0  0
 14 20  1  0  0  0  0
 15 21  1  0  0  0  0
 15 14  2  0  0  0  0
 16 15  1  0  0  0  0
 17 16  2  0  0  0  0
 17 18  1  0  0  0  0
 18 19  2  0  0  0  0
 19 14  1  0  0  0  0
 22 18  1  0  0  0  0
 23 25  1  0  0  0  0
 25 26  1  0  0  0  0
 25 24  2  1  0  0  0
 27 26  1  0  0  0  0
 28 29  1  0  0  0  0
 28 25  1  0  0  0  0
 30 31  1  0  0  0  0
 30 29  1  0  0  0  0
M  END
>  <minimizedAffinity>
-4.52290773

$$$$

 OpenBabel03252504593D

 31 32  0  0  1  0  0  0  0  0999 V2000
   37.2120   28.1080   41.4870 N   0  0  0  0  0  0  0  0  0  0  0  0
   36.5820   27.9470   42.7450 C   0  0  0  0  0  0  0  0  0  0  0  0
   37.5800   28.5040   43.6760 C   0  0  0  0  0  0  0  0  0  0  0  0
   38.7590   29.0220   42.8790 C   0  0  0  0  0  0  0  0  0  0  0  0
   38.1430   29.1600   41.4770 C   0  0  2  0  0  0  0  0  0  0  0  0
   35.6820   27.5760   43.1720 H   0  0  0  0  0  0  0  0  0  0  0  0
   37.5640   28.6020   44.7400 H   0  0  0  0  0  0  0  0  0  0  0  0
   39.5940   28.3130   42.8810 H   0  0  0  0  0  0  0  0  0  0  0  0
   38.9960   30.0260   43.2770 H   0  0  0  0  0  0  0  0  0  0  0  0
   38.8570   29.0890   40.6620 H   0  0  0  0  0  0  0  0  0  0  0  0
   36.9080   27.2530   40.4540 C   0  0  0  0  0  0  0  0  0  0  0  0
   37.1820   27.7660   39.4990 H   0  0  0  0  0  0  0  0  0  0  0  0
   35.8210   27.0670   40.3090 H   0  0  0  0  0  0  0  0  0  0  0  0
   37.5980   23.5720   41.0150 C   0  0  0  0  0  0  0  0  0  0  0  0
   36.8840   24.8050   41.0190 C   0  0  0  0  0  0  0  0  0  0  0  0
   37.5240   25.9450   40.5340 C   0  0  0  0  0  0  0  0  0  0  0  0
   38.7910   25.8020   40.0870 N   0  0  0  0  0  0  0  0  0  0  0  0
   39.4720   24.6040   40.0870 C   0  0  0  0  0  0  0  0  0  0  0  0
   38.8810   23.5000   40.5450 N   0  0  0  0  0  0  0  0  0  0  0  0
   37.0200   22.7380   41.4110 H   0  0  0  0  0  0  0  0  0  0  0  0
   35.8900   24.8770   41.3810 H   0  0  0  0  0  0  0  0  0  0  0  0
   40.4850   24.5840   39.7090 H   0  0  0  0  0  0  0  0  0  0  0  0
   37.4000   30.3500   41.5020 O   0  0  0  0  0  0  0  0  0  0  0  0
   39.2700   32.2040   41.1680 O   0  0  0  0  0  0  0  0  0  0  0  0
   38.0300   31.5760   40.5830 P   0  0  2  0  0  0  0  0  0  0  0  0
   36.8650   32.8070   40.4740 O   0  0  0  0  0  0  0  0  0  0  0  0
   36.0620   32.4810   39.9750 H   0  0  0  0  0  0  0  0  0  0  0  0
   38.3170   31.0690   38.9740 O   0  0  0  0  0  0  0  0  0  0  0  0
   37.2580   31.3290   38.1380 C   0  0  0  0  0  2  0  0  0  0  0  0
   36.5160   30.0390   37.7990 C   0  0  0  0  0  2  0  0  0  0  0  0
   35.5820   30.3160   37.2600 H   0  0  0  0  0  0  0  0  0  0  0  0
  1  2  1  0  0  0  0
  2  6  1  0  0  0  0
  2  3  2  0  0  0  0
  3  7  1  0  0  0  0
  4  8  1  0  0  0  0
  4  9  1  0  0  0  0
  4  3  1  0  0  0  0
  5 10  1  6  0  0  0
  5  1  1  0  0  0  0
  5 23  1  0  0  0  0
  5  4  1  0  0  0  0
 11 16  1  0  0  0  0
 11  1  1  0  0  0  0
 12 11  1  0  0  0  0
 13 11  1  0  0  0  0
 14 15  1  0  0  0  0
 14 20  1  0  0  0  0
 15 21  1  0  0  0  0
 16 15  2  0  0  0  0
 17 16  1  0  0  0  0
 18 17  2  0  0  0  0
 18 19  1  0  0  0  0
 19 14  2  0  0  0  0
 22 18  1  0  0  0  0
 25 24  2  1  0  0  0
 25 23  1  0  0  0  0
 26 25  1  0  0  0  0
 27 26  1  0  0  0  0
 28 25  1  0  0  0  0
 29 28  1  0  0  0  0
 30 29  1  0  0  0  0
 31 30  1  0  0  0  0
M  END
>  <minimizedAffinity>
-4.51547098

$$$$

 OpenBabel03252504593D

 31 32  0  0  1  0  0  0  0  0999 V2000
   38.3500   31.9850   38.6270 N   0  0  0  0  0  0  0  0  0  0  0  0
   39.7050   32.3900   38.7070 C   0  0  0  0  0  0  0  0  0  0  0  0
   39.6980   33.3010   39.8660 C   0  0  0  0  0  0  0  0  0  0  0  0
   38.3010   33.3430   40.4500 C   0  0  0  0  0  0  0  0  0  0  0  0
   37.6870   32.0600   39.8640 C   0  0  2  0  0  0  0  0  0  0  0  0
   40.6370   32.2410   38.2190 H   0  0  0  0  0  0  0  0  0  0  0  0
   40.4880   33.8620   40.3180 H   0  0  0  0  0  0  0  0  0  0  0  0
   37.7520   34.2330   40.1270 H   0  0  0  0  0  0  0  0  0  0  0  0
   38.4100   33.2310   41.5450 H   0  0  0  0  0  0  0  0  0  0  0  0
   36.6060   32.0820   39.7670 H   0  0  0  0  0  0  0  0  0  0  0  0
   37.8170   31.6110   37.4170 C   0  0  0  0  0  0  0  0  0  0  0  0
   38.5230   31.9470   36.6170 H   0  0  0  0  0  0  0  0  0  0  0  0
   36.8820   32.1450   37.1350 H   0  0  0  0  0  0  0  0  0  0  0  0
   36.0940   28.2740   36.9260 C   0  0  0  0  0  0  0  0  0  0  0  0
   36.2420   29.6840   37.0690 C   0  0  0  0  0  0  0  0  0  0  0  0
   37.5190   30.2000   37.2840 C   0  0  0  0  0  0  0  0  0  0  0  0
   38.5420   29.3180   37.3420 N   0  0  0  0  0  0  0  0  0  0  0  0
   38.3870   27.9560   37.2020 C   0  0  0  0  0  0  0  0  0  0  0  0
   37.1750   27.4400   36.9960 N   0  0  0  0  0  0  0  0  0  0  0  0
   35.0620   27.9650   36.7630 H   0  0  0  0  0  0  0  0  0  0  0  0
   35.4130   30.3440   37.0180 H   0  0  0  0  0  0  0  0  0  0  0  0
   39.2640   27.3260   37.2630 H   0  0  0  0  0  0  0  0  0  0  0  0
   38.1840   31.0070   40.6470 O   0  0  0  0  0  0  0  0  0  0  0  0
   36.6960   28.8210   40.4160 O   0  0  0  0  0  0  0  0  0  0  0  0
   37.0210   30.0120   41.2820 P   0  0  2  0  0  0  0  0  0  0  0  0
   35.5870   30.9080   41.4390 O   0  0  0  0  0  0  0  0  0  0  0  0
   35.7080   31.6420   42.1060 H   0  0  0  0  0  0  0  0  0  0  0  0
   37.4260   29.5090   42.8670 O   0  0  0  0  0  0  0  0  0  0  0  0
   37.1620   28.1780   43.0850 C   0  0  0  0  0  2  0  0  0  0  0  0
   38.4510   27.4220   43.3970 C   0  0  0  0  0  2  0  0  0  0  0  0
   38.1720   26.3950   43.7240 H   0  0  0  0  0  0  0  0  0  0  0  0
  1  2  1  0  0  0  0
  1  5  1  0  0  0  0
  2  3  2  0  0  0  0
  3  7  1  0  0  0  0
  3  4  1  0  0  0  0
  4  9  1  0  0  0  0
  5 10  1  6  0  0  0
  5  4  1  0  0  0  0
  5 23  1  0  0  0  0
  6  2  1  0  0  0  0
  8  4  1  0  0  0  0
 11  1  1  0  0  0  0
 12 11  1  0  0  0  0
 13 11  1  0  0  0  0
 14 19  2  0  0  0  0
 14 15  1  0  0  0  0
 15 16  2  0  0  0  0
 16 17  1  0  0  0  0
 16 11  1  0  0  0  0
 18 22  1  0  0  0  0
 18 17  2  0  0  0  0
 19 18  1  0  0  0  0
 20 14  1  0  0  0  0
 21 15  1  0  0  0  0
 23 25  1  0  0  0  0
 25 24  2  6  0  0  0
 25 26  1  0  0  0  0
 25 28  1  0  0  0  0
 26 27  1  0  0  0  0
 28 29  1  0  0  0  0
 29 30  1  0  0  0  0
 30 31  1  0  0  0  0
M  END
>  <minimizedAffinity>
-4.38063574

$$$$

 OpenBabel03252504593D

 31 32  0  0  1  0  0  0  0  0999 V2000
   39.2880   30.2600   42.1560 N   0  0  0  0  0  0  0  0  0  0  0  0
   40.3890   30.8910   42.7830 C   0  0  0  0  0  0  0  0  0  0  0  0
   41.3710   30.9840   41.6880 C   0  0  0  0  0  0  0  0  0  0  0  0
   40.7500   30.4270   40.4230 C   0  0  0  0  0  0  0  0  0  0  0  0
   39.2530   30.4830   40.7680 C   0  0  2  0  0  0  0  0  0  0  0  0
   40.6850   31.2800   43.7270 H   0  0  0  0  0  0  0  0  0  0  0  0
   42.3630   31.3830   41.6700 H   0  0  0  0  0  0  0  0  0  0  0  0
   41.0790   29.4010   40.2280 H   0  0  0  0  0  0  0  0  0  0  0  0
   40.9680   31.1500   39.6160 H   0  0  0  0  0  0  0  0  0  0  0  0
   38.6410   29.7600   40.2370 H   0  0  0  0  0  0  0  0  0  0  0  0
   38.4180   29.5000   42.9000 C   0  0  0  0  0  0  0  0  0  0  0  0
   37.3810   29.7420   42.5620 H   0  0  0  0  0  0  0  0  0  0  0  0
   38.3730   29.7670   43.9800 H   0  0  0  0  0  0  0  0  0  0  0  0
   39.7700   26.0060   43.4570 C   0  0  0  0  0  0  0  0  0  0  0  0
   39.6660   27.4230   43.5660 C   0  0  0  0  0  0  0  0  0  0  0  0
   38.6550   28.0720   42.8580 C   0  0  0  0  0  0  0  0  0  0  0  0
   37.8330   27.3050   42.1090 N   0  0  0  0  0  0  0  0  0  0  0  0
   37.9420   25.9350   42.0120 C   0  0  0  0  0  0  0  0  0  0  0  0
   38.9000   25.2920   42.6800 N   0  0  0  0  0  0  0  0  0  0  0  0
   40.5870   25.5880   44.0440 H   0  0  0  0  0  0  0  0  0  0  0  0
   40.3340   27.9910   44.1640 H   0  0  0  0  0  0  0  0  0  0  0  0
   37.2370   25.4020   41.3880 H   0  0  0  0  0  0  0  0  0  0  0  0
   38.8690   31.8200   40.5890 O   0  0  0  0  0  0  0  0  0  0  0  0
   37.5020   31.7750   38.3150 O   0  0  0  0  0  0  0  0  0  0  0  0
   37.4260   32.0240   39.8000 P   0  0  2  0  0  0  0  0  0  0  0  0
   36.9370   33.6370   40.0010 O   0  0  0  0  0  0  0  0  0  0  0  0
   36.7460   33.8240   40.9640 H   0  0  0  0  0  0  0  0  0  0  0  0
   36.1890   31.0750   40.5040 O   0  0  0  0  0  0  0  0  0  0  0  0
   35.7770   30.0480   39.6890 C   0  0  0  0  0  2  0  0  0  0  0  0
   35.1370   28.9340   40.5150 C   0  0  0  0  0  2  0  0  0  0  0  0
   34.6780   28.2080   39.8070 H   0  0  0  0  0  0  0  0  0  0  0  0
  1  2  1  0  0  0  0
  1 11  1  0  0  0  0
  2  6  1  0  0  0  0
  3  2  2  0  0  0  0
  4  5  1  0  0  0  0
  4  3  1  0  0  0  0
  5 10  1  6  0  0  0
  5  1  1  0  0  0  0
  7  3  1  0  0  0  0
  8  4  1  0  0  0  0
  9  4  1  0  0  0  0
 11 13  1  0  0  0  0
 12 11  1  0  0  0  0
 14 15  1  0  0  0  0
 14 20  1  0  0  0  0
 15 21  1  0  0  0  0
 16 11  1  0  0  0  0
 16 15  2  0  0  0  0
 17 16  1  0  0  0  0
 18 17  2  0  0  0  0
 18 19  1  0  0  0  0
 19 14  2  0  0  0  0
 22 18  1  0  0  0  0
 23  5  1  0  0  0  0
 25 24  2  6  0  0  0
 25 26  1  0  0  0  0
 25 28  1  0  0  0  0
 25 23  1  0  0  0  0
 26 27  1  0  0  0  0
 29 28  1  0  0  0  0
 29 30  1  0  0  0  0
 31 30  1  0  0  0  0
M  END
>  <minimizedAffinity>
-4.35905266

$$$$

 OpenBabel03252504593D

 31 32  0  0  1  0  0  0  0  0999 V2000
   38.3430   27.9470   41.7030 N   0  0  0  0  0  0  0  0  0  0  0  0
   37.2740   27.0200   41.7550 C   0  0  0  0  0  0  0  0  0  0  0  0
   36.6340   27.3420   43.0430 C   0  0  0  0  0  0  0  0  0  0  0  0
   37.3590   28.5130   43.6730 C   0  0  0  0  0  0  0  0  0  0  0  0
   38.0940   29.1060   42.4590 C   0  0  2  0  0  0  0  0  0  0  0  0
   36.8420   26.2330   41.1870 H   0  0  0  0  0  0  0  0  0  0  0  0
   35.7850   26.9100   43.5280 H   0  0  0  0  0  0  0  0  0  0  0  0
   38.0620   28.1860   44.4460 H   0  0  0  0  0  0  0  0  0  0  0  0
   36.5820   29.2230   44.0140 H   0  0  0  0  0  0  0  0  0  0  0  0
   38.9970   29.6570   42.7040 H   0  0  0  0  0  0  0  0  0  0  0  0
   39.4810   27.6430   40.9940 C   0  0  0  0  0  0  0  0  0  0  0  0
   39.9270   28.6060   40.6410 H   0  0  0  0  0  0  0  0  0  0  0  0
   39.3010   27.1100   40.0340 H   0  0  0  0  0  0  0  0  0  0  0  0
   41.5080   25.8880   43.6680 C   0  0  0  0  0  0  0  0  0  0  0  0
   40.5080   26.7260   43.0950 C   0  0  0  0  0  0  0  0  0  0  0  0
   40.4600   26.8500   41.7080 C   0  0  0  0  0  0  0  0  0  0  0  0
   41.3750   26.1610   40.9910 N   0  0  0  0  0  0  0  0  0  0  0  0
   42.3380   25.3520   41.5560 C   0  0  0  0  0  0  0  0  0  0  0  0
   42.4030   25.2170   42.8800 N   0  0  0  0  0  0  0  0  0  0  0  0
   41.4680   25.8520   44.7560 H   0  0  0  0  0  0  0  0  0  0  0  0
   39.8070   27.2530   43.6920 H   0  0  0  0  0  0  0  0  0  0  0  0
   43.0290   24.8380   40.9030 H   0  0  0  0  0  0  0  0  0  0  0  0
   37.1320   29.8420   41.7520 O   0  0  0  0  0  0  0  0  0  0  0  0
   38.9480   31.7440   41.3880 O   0  0  0  0  0  0  0  0  0  0  0  0
   37.7500   31.0450   40.7950 P   0  0  2  0  0  0  0  0  0  0  0  0
   36.5490   32.2270   40.5870 O   0  0  0  0  0  0  0  0  0  0  0  0
   35.7740   31.8490   40.0800 H   0  0  0  0  0  0  0  0  0  0  0  0
   38.1090   30.4710   39.2230 O   0  0  0  0  0  0  0  0  0  0  0  0
   37.1490   29.6160   38.7370 C   0  0  0  0  0  2  0  0  0  0  0  0
   36.6380   30.1010   37.3830 C   0  0  0  0  0  2  0  0  0  0  0  0
   35.9900   29.3020   36.9590 H   0  0  0  0  0  0  0  0  0  0  0  0
  1  2  1  0  0  0  0
  1  5  1  0  0  0  0
  2  3  2  0  0  0  0
  3  7  1  0  0  0  0
  3  4  1  0  0  0  0
  4  9  1  0  0  0  0
  4  8  1  0  0  0  0
  5 10  1  1  0  0  0
  5  4  1  0  0  0  0
  6  2  1  0  0  0  0
 11  1  1  0  0  0  0
 11 16  1  0  0  0  0
 12 11  1  0  0  0  0
 13 11  1  0  0  0  0
 14 20  1  0  0  0  0
 15 14  1  0  0  0  0
 15 21  1  0  0  0  0
 16 15  2  0  0  0  0
 17 18  2  0  0  0  0
 17 16  1  0  0  0  0
 18 19  1  0  0  0  0
 19 14  2  0  0  0  0
 22 18  1  0  0  0  0
 23  5  1  0  0  0  0
 25 24  2  1  0  0  0
 25 23  1  0  0  0  0
 26 25  1  0  0  0  0
 27 26  1  0  0  0  0
 28 25  1  0  0  0  0
 29 28  1  0  0  0  0
 30 29  1  0  0  0  0
 31 30  1  0  0  0  0
M  END
>  <minimizedAffinity>
-4.30047846

$$$$

 OpenBabel03252504593D

 31 32  0  0  1  0  0  0  0  0999 V2000
   35.9510   29.4420   40.3560 N   0  0  0  0  0  0  0  0  0  0  0  0
   34.6760   29.2280   39.7780 C   0  0  0  0  0  0  0  0  0  0  0  0
   34.9990   28.4430   38.5730 C   0  0  0  0  0  0  0  0  0  0  0  0
   36.4930   28.1900   38.5380 C   0  0  0  0  0  0  0  0  0  0  0  0
   36.8810   28.4490   40.0030 C   0  0  2  0  0  0  0  0  0  0  0  0
   33.6510   29.4500   39.9460 H   0  0  0  0  0  0  0  0  0  0  0  0
   34.3670   28.0440   37.8090 H   0  0  0  0  0  0  0  0  0  0  0  0
   37.0050   28.8800   37.8590 H   0  0  0  0  0  0  0  0  0  0  0  0
   36.6290   27.1170   38.3060 H   0  0  0  0  0  0  0  0  0  0  0  0
   37.9110   28.7590   40.1480 H   0  0  0  0  0  0  0  0  0  0  0  0
   36.1720   30.5510   41.1370 C   0  0  0  0  0  0  0  0  0  0  0  0
   36.2390   30.2100   42.2000 H   0  0  0  0  0  0  0  0  0  0  0  0
   35.3210   31.2670   41.1810 H   0  0  0  0  0  0  0  0  0  0  0  0
   38.5300   33.0650   39.5670 C   0  0  0  0  0  0  0  0  0  0  0  0
   37.3240   32.3440   39.8050 C   0  0  0  0  0  0  0  0  0  0  0  0
   37.3310   31.3410   40.7730 C   0  0  0  0  0  0  0  0  0  0  0  0
   38.4920   31.1180   41.4270 N   0  0  0  0  0  0  0  0  0  0  0  0
   39.6520   31.8220   41.1890 C   0  0  0  0  0  0  0  0  0  0  0  0
   39.6700   32.7860   40.2690 N   0  0  0  0  0  0  0  0  0  0  0  0
   38.4290   33.8280   38.7950 H   0  0  0  0  0  0  0  0  0  0  0  0
   36.4320   32.5480   39.2690 H   0  0  0  0  0  0  0  0  0  0  0  0
   40.5350   31.5740   41.7620 H   0  0  0  0  0  0  0  0  0  0  0  0
   36.5140   27.2920   40.7050 O   0  0  0  0  0  0  0  0  0  0  0  0
   36.3700   27.4940   43.3480 O   0  0  0  0  0  0  0  0  0  0  0  0
   37.2480   27.1190   42.1810 P   0  0  2  0  0  0  0  0  0  0  0  0
   38.5920   28.1560   42.2280 O   0  0  0  0  0  0  0  0  0  0  0  0
   39.2730   27.8720   41.5530 H   0  0  0  0  0  0  0  0  0  0  0  0
   37.8760   25.5410   42.3870 O   0  0  0  0  0  0  0  0  0  0  0  0
   36.9960   24.5620   41.9890 C   0  0  0  0  0  2  0  0  0  0  0  0
   37.7000   23.5430   41.0970 C   0  0  0  0  0  2  0  0  0  0  0  0
   37.0000   22.6930   40.9350 H   0  0  0  0  0  0  0  0  0  0  0  0
  1 11  1  0  0  0  0
  2  6  1  0  0  0  0
  2  1  1  0  0  0  0
  3  2  2  0  0  0  0
  4  3  1  0  0  0  0
  4  5  1  0  0  0  0
  5 10  1  1  0  0  0
  5  1  1  0  0  0  0
  5 23  1  0  0  0  0
  7  3  1  0  0  0  0
  8  4  1  0  0  0  0
  9  4  1  0  0  0  0
 11 13  1  0  0  0  0
 11 12  1  0  0  0  0
 14 15  2  0  0  0  0
 14 19  1  0  0  0  0
 15 16  1  0  0  0  0
 16 11  1  0  0  0  0
 16 17  2  0  0  0  0
 18 17  1  0  0  0  0
 18 22  1  0  0  0  0
 19 18  2  0  0  0  0
 20 14  1  0  0  0  0
 21 15  1  0  0  0  0
 23 25  1  0  0  0  0
 25 26  1  0  0  0  0
 25 28  1  0  0  0  0
 25 24  2  1  0  0  0
 27 26  1  0  0  0  0
 29 28  1  0  0  0  0
 30 29  1  0  0  0  0
 31 30  1  0  0  0  0
M  END
>  <minimizedAffinity>
-4.29677296

$$$$
