
 OpenBabel03252509313D

 21 21  0  0  0  0  0  0  0  0999 V2000
   46.6340   32.8260   43.1870 C   0  0  0  0  0  0  0  0  0  0  0  0
   46.5000   33.0710   42.1270 H   0  0  0  0  0  0  0  0  0  0  0  0
   46.1860   31.8020   43.3260 H   0  0  0  0  0  0  0  0  0  0  0  0
   45.0660   34.2570   46.2560 C   0  0  0  0  0  0  0  0  0  0  0  0
   45.7810   33.3870   45.4110 C   0  0  0  0  0  0  0  0  0  0  0  0
   45.8940   33.7200   44.0810 C   0  0  0  0  0  0  0  0  0  0  0  0
   45.3130   34.8740   43.6380 N   0  0  0  0  0  0  0  0  0  0  0  0
   44.6240   35.7040   44.4740 C   0  0  0  0  0  0  0  0  0  0  0  0
   44.5160   35.3790   45.7610 N   0  0  0  0  0  0  0  0  0  0  0  0
   45.0120   33.9420   47.2900 H   0  0  0  0  0  0  0  0  0  0  0  0
   46.2400   32.4730   45.7710 H   0  0  0  0  0  0  0  0  0  0  0  0
   44.1830   36.6110   44.0590 H   0  0  0  0  0  0  0  0  0  0  0  0
   47.9640   32.6860   43.5830 O   0  0  0  0  0  0  0  0  0  0  0  0
   49.4520   32.3030   41.4740 O   0  0  0  0  0  0  0  0  0  0  0  0
   48.9170   33.3930   42.3770 P   0  0  2  0  0  0  0  0  0  0  0  0
   50.1290   34.2550   43.1480 O   0  0  0  0  0  0  0  0  0  0  0  0
   51.0320   33.8800   43.0540 H   0  0  0  0  0  0  0  0  0  0  0  0
   47.9320   34.3880   41.4510 O   0  0  0  0  0  0  0  0  0  0  0  0
   48.7140   35.2430   40.6600 C   0  0  0  0  0  2  0  0  0  0  0  0
   49.2160   36.4210   41.4380 C   0  0  0  0  0  2  0  0  0  0  0  0
   49.4580   36.1030   42.4940 H   0  0  0  0  0  0  0  0  0  0  0  0
  1  3  1  0  0  0  0
  1 13  1  0  0  0  0
  1  6  1  0  0  0  0
  2  1  1  0  0  0  0
  4 10  1  0  0  0  0
  5 11  1  0  0  0  0
  5  4  2  0  0  0  0
  6  5  1  0  0  0  0
  7  6  2  0  0  0  0
  7  8  1  0  0  0  0
  8  9  2  0  0  0  0
  9  4  1  0  0  0  0
 12  8  1  0  0  0  0
 15 14  2  6  0  0  0
 15 16  1  0  0  0  0
 15 13  1  0  0  0  0
 17 16  1  0  0  0  0
 18 15  1  0  0  0  0
 19 20  1  0  0  0  0
 19 18  1  0  0  0  0
 20 21  1  0  0  0  0
M  END
>  <minimizedAffinity>
-3.72634053

>  <minimizedRMSD>
1.03250253

$$$$
