
 OpenBabel03252502253D

 28 29  0  0  1  0  0  0  0  0999 V2000
   37.1200   30.5240   39.5980 N   0  0  0  0  0  0  0  0  0  0  0  0
   37.2900   29.6700   38.4290 C   0  0  0  0  0  0  0  0  0  0  0  0
   35.8480   29.4070   37.9500 C   0  0  0  0  0  0  0  0  0  0  0  0
   35.1010   28.6030   38.9770 C   0  0  0  0  0  0  0  0  0  0  0  0
   35.3710   28.9940   40.3830 C   0  0  0  0  0  0  0  0  0  0  0  0
   36.0860   30.3050   40.5670 C   0  0  1  0  0  0  0  0  0  0  0  0
   37.8590   30.1570   37.6360 H   0  0  0  0  0  0  0  0  0  0  0  0
   37.6860   28.7080   38.7910 H   0  0  0  0  0  0  0  0  0  0  0  0
   35.9620   28.7640   37.0530 H   0  0  0  0  0  0  0  0  0  0  0  0
   35.3450   30.3320   37.6600 H   0  0  0  0  0  0  0  0  0  0  0  0
   35.2950   27.5000   38.8460 H   0  0  0  0  0  0  0  0  0  0  0  0
   34.0170   28.7220   38.7750 H   0  0  0  0  0  0  0  0  0  0  0  0
   36.0020   28.2210   40.8770 H   0  0  0  0  0  0  0  0  0  0  0  0
   34.4280   29.0390   40.9930 H   0  0  0  0  0  0  0  0  0  0  0  0
   35.3580   31.1520   40.5590 H   0  0  0  0  0  0  0  0  0  0  0  0
   38.4690   33.9800   40.0340 C   0  0  0  0  0  0  0  0  0  0  0  0
   37.5310   32.9630   39.8070 C   0  0  0  0  0  0  0  0  0  0  0  0
   37.9970   31.6360   39.8200 C   0  0  0  0  0  0  0  0  0  0  0  0
   39.3220   31.4190   40.0510 N   0  0  0  0  0  0  0  0  0  0  0  0
   40.1870   32.4430   40.2650 C   0  0  0  0  0  0  0  0  0  0  0  0
   39.7450   33.7290   40.2550 N   0  0  0  0  0  0  0  0  0  0  0  0
   37.9690   34.9400   39.9960 H   0  0  0  0  0  0  0  0  0  0  0  0
   36.4890   33.0340   39.6200 H   0  0  0  0  0  0  0  0  0  0  0  0
   41.2440   32.2800   40.4500 H   0  0  0  0  0  0  0  0  0  0  0  0
   36.6520   30.2850   41.8470 O   0  0  0  0  0  0  0  0  0  0  0  0
   37.0920   29.0440   42.2310 C   0  0  0  0  0  2  0  0  0  0  0  0
   38.3520   29.2800   43.0720 C   0  0  0  0  0  2  0  0  0  0  0  0
   39.1100   29.7890   42.4410 H   0  0  0  0  0  0  0  0  0  0  0  0
  1 18  1  0  0  0  0
  1  6  1  0  0  0  0
  2  8  1  0  0  0  0
  2  1  1  0  0  0  0
  3  2  1  0  0  0  0
  3  4  1  0  0  0  0
  4  5  1  0  0  0  0
  5  6  1  0  0  0  0
  5 13  1  0  0  0  0
  5 14  1  0  0  0  0
  6 15  1  6  0  0  0
  6 25  1  0  0  0  0
  7  2  1  0  0  0  0
  9  3  1  0  0  0  0
 10  3  1  0  0  0  0
 11  4  1  0  0  0  0
 12  4  1  0  0  0  0
 16 21  1  0  0  0  0
 17 18  1  0  0  0  0
 17 16  2  0  0  0  0
 18 19  2  0  0  0  0
 19 20  1  0  0  0  0
 20 24  1  0  0  0  0
 21 20  2  0  0  0  0
 22 16  1  0  0  0  0
 23 17  1  0  0  0  0
 25 26  1  0  0  0  0
 26 27  1  0  0  0  0
 28 27  1  0  0  0  0
M  END
>  <minimizedAffinity>
-4.1661849

$$$$

 OpenBabel03252502253D

 28 29  0  0  1  0  0  0  0  0999 V2000
   36.5870   28.2840   41.0430 N   0  0  0  0  0  0  0  0  0  0  0  0
   36.9150   27.0270   41.7050 C   0  0  0  0  0  0  0  0  0  0  0  0
   36.6860   27.3280   43.2000 C   0  0  0  0  0  0  0  0  0  0  0  0
   37.6790   28.3500   43.6800 C   0  0  0  0  0  0  0  0  0  0  0  0
   37.9440   29.4510   42.7200 C   0  0  0  0  0  0  0  0  0  0  0  0
   36.9780   29.5580   41.5710 C   0  0  1  0  0  0  0  0  0  0  0  0
   36.2670   26.2090   41.3900 H   0  0  0  0  0  0  0  0  0  0  0  0
   37.9970   26.8700   41.5740 H   0  0  0  0  0  0  0  0  0  0  0  0
   36.9240   26.3760   43.7180 H   0  0  0  0  0  0  0  0  0  0  0  0
   35.6470   27.5910   43.4050 H   0  0  0  0  0  0  0  0  0  0  0  0
   38.6520   27.8620   43.9750 H   0  0  0  0  0  0  0  0  0  0  0  0
   37.2870   28.7850   44.6220 H   0  0  0  0  0  0  0  0  0  0  0  0
   38.9540   29.3250   42.2680 H   0  0  0  0  0  0  0  0  0  0  0  0
   37.9710   30.4520   43.2290 H   0  0  0  0  0  0  0  0  0  0  0  0
   36.0780   30.1480   41.8720 H   0  0  0  0  0  0  0  0  0  0  0  0
   35.4800   27.6400   37.5330 C   0  0  0  0  0  0  0  0  0  0  0  0
   36.2770   27.5720   38.6840 C   0  0  0  0  0  0  0  0  0  0  0  0
   35.8440   28.2870   39.8160 C   0  0  0  0  0  0  0  0  0  0  0  0
   34.6850   28.9980   39.7270 N   0  0  0  0  0  0  0  0  0  0  0  0
   33.9520   29.0280   38.5850 C   0  0  0  0  0  0  0  0  0  0  0  0
   34.3630   28.3390   37.4860 N   0  0  0  0  0  0  0  0  0  0  0  0
   35.9340   27.0450   36.7500 H   0  0  0  0  0  0  0  0  0  0  0  0
   37.1860   27.0500   38.8480 H   0  0  0  0  0  0  0  0  0  0  0  0
   33.0270   29.5920   38.5040 H   0  0  0  0  0  0  0  0  0  0  0  0
   37.6160   30.2970   40.5680 O   0  0  0  0  0  0  0  0  0  0  0  0
   37.2600   31.6220   40.5550 C   0  0  0  0  0  2  0  0  0  0  0  0
   37.0570   31.9940   39.0820 C   0  0  0  0  0  2  0  0  0  0  0  0
   38.0140   31.8370   38.5410 H   0  0  0  0  0  0  0  0  0  0  0  0
  1  6  1  0  0  0  0
  1  2  1  0  0  0  0
  2  3  1  0  0  0  0
  3 10  1  0  0  0  0
  3  4  1  0  0  0  0
  3  9  1  0  0  0  0
  4 11  1  0  0  0  0
  4 12  1  0  0  0  0
  5 14  1  0  0  0  0
  5  4  1  0  0  0  0
  6 15  1  1  0  0  0
  6  5  1  0  0  0  0
  7  2  1  0  0  0  0
  8  2  1  0  0  0  0
 13  5  1  0  0  0  0
 16 17  1  0  0  0  0
 17 23  1  0  0  0  0
 17 18  2  0  0  0  0
 18  1  1  0  0  0  0
 19 18  1  0  0  0  0
 20 19  2  0  0  0  0
 21 16  2  0  0  0  0
 21 20  1  0  0  0  0
 22 16  1  0  0  0  0
 24 20  1  0  0  0  0
 25  6  1  0  0  0  0
 26 25  1  0  0  0  0
 27 26  1  0  0  0  0
 28 27  1  0  0  0  0
M  END
>  <minimizedAffinity>
-4.06257105

$$$$

 OpenBabel03252502253D

 28 29  0  0  1  0  0  0  0  0999 V2000
   37.8650   30.5650   41.3450 N   0  0  0  0  0  0  0  0  0  0  0  0
   36.5810   31.1120   40.9240 C   0  0  0  0  0  0  0  0  0  0  0  0
   36.9100   31.8620   39.6170 C   0  0  0  0  0  0  0  0  0  0  0  0
   37.8120   33.0290   39.9040 C   0  0  0  0  0  0  0  0  0  0  0  0
   38.8730   32.7580   40.9070 C   0  0  0  0  0  0  0  0  0  0  0  0
   39.0870   31.3090   41.2500 C   0  0  1  0  0  0  0  0  0  0  0  0
   35.8410   30.3350   40.7270 H   0  0  0  0  0  0  0  0  0  0  0  0
   36.3000   31.8750   41.6670 H   0  0  0  0  0  0  0  0  0  0  0  0
   35.9380   32.2770   39.2790 H   0  0  0  0  0  0  0  0  0  0  0  0
   37.2910   31.1860   38.8490 H   0  0  0  0  0  0  0  0  0  0  0  0
   37.2160   33.9340   40.2180 H   0  0  0  0  0  0  0  0  0  0  0  0
   38.2910   33.3280   38.9490 H   0  0  0  0  0  0  0  0  0  0  0  0
   38.6290   33.2730   41.8640 H   0  0  0  0  0  0  0  0  0  0  0  0
   39.8650   33.1780   40.5900 H   0  0  0  0  0  0  0  0  0  0  0  0
   39.7780   30.8310   40.5130 H   0  0  0  0  0  0  0  0  0  0  0  0
   38.5360   26.9120   41.7460 C   0  0  0  0  0  0  0  0  0  0  0  0
   38.4990   28.1740   41.1370 C   0  0  0  0  0  0  0  0  0  0  0  0
   37.9500   29.2360   41.8770 C   0  0  0  0  0  0  0  0  0  0  0  0
   37.4900   28.9790   43.1330 N   0  0  0  0  0  0  0  0  0  0  0  0
   37.5510   27.7360   43.6750 C   0  0  0  0  0  0  0  0  0  0  0  0
   38.0810   26.7020   42.9660 N   0  0  0  0  0  0  0  0  0  0  0  0
   38.9830   26.2000   41.0640 H   0  0  0  0  0  0  0  0  0  0  0  0
   38.8300   28.4700   40.1730 H   0  0  0  0  0  0  0  0  0  0  0  0
   37.1870   27.5190   44.6750 H   0  0  0  0  0  0  0  0  0  0  0  0
   39.7440   31.2750   42.4850 O   0  0  0  0  0  0  0  0  0  0  0  0
   41.1120   31.2210   42.3760 C   0  0  0  0  0  2  0  0  0  0  0  0
   41.5080   29.7750   42.6910 C   0  0  0  0  0  2  0  0  0  0  0  0
   41.1850   29.5350   43.7250 H   0  0  0  0  0  0  0  0  0  0  0  0
  1 18  1  0  0  0  0
  2  1  1  0  0  0  0
  2  8  1  0  0  0  0
  3  4  1  0  0  0  0
  3  2  1  0  0  0  0
  4 11  1  0  0  0  0
  4  5  1  0  0  0  0
  5  6  1  0  0  0  0
  5 13  1  0  0  0  0
  6 15  1  6  0  0  0
  6  1  1  0  0  0  0
  6 25  1  0  0  0  0
  7  2  1  0  0  0  0
  9  3  1  0  0  0  0
 10  3  1  0  0  0  0
 12  4  1  0  0  0  0
 14  5  1  0  0  0  0
 16 21  1  0  0  0  0
 17 16  2  0  0  0  0
 17 18  1  0  0  0  0
 18 19  2  0  0  0  0
 19 20  1  0  0  0  0
 20 24  1  0  0  0  0
 21 20  2  0  0  0  0
 22 16  1  0  0  0  0
 23 17  1  0  0  0  0
 26 25  1  0  0  0  0
 26 27  1  0  0  0  0
 27 28  1  0  0  0  0
M  END
>  <minimizedAffinity>
-3.99423838

$$$$

 OpenBabel03252502253D

 28 29  0  0  1  0  0  0  0  0999 V2000
   38.1270   29.6480   41.6780 N   0  0  0  0  0  0  0  0  0  0  0  0
   38.8480   29.4440   42.9280 C   0  0  0  0  0  0  0  0  0  0  0  0
   38.8990   27.9100   43.0790 C   0  0  0  0  0  0  0  0  0  0  0  0
   37.5120   27.3650   43.2780 C   0  0  0  0  0  0  0  0  0  0  0  0
   36.4700   28.0070   42.4380 C   0  0  0  0  0  0  0  0  0  0  0  0
   36.9800   28.8670   41.3150 C   0  0  1  0  0  0  0  0  0  0  0  0
   39.8620   29.8450   42.8940 H   0  0  0  0  0  0  0  0  0  0  0  0
   38.2020   29.8220   43.7360 H   0  0  0  0  0  0  0  0  0  0  0  0
   39.4540   27.7390   44.0250 H   0  0  0  0  0  0  0  0  0  0  0  0
   39.4450   27.4410   42.2590 H   0  0  0  0  0  0  0  0  0  0  0  0
   37.2090   27.4140   44.3630 H   0  0  0  0  0  0  0  0  0  0  0  0
   37.5400   26.2800   43.0450 H   0  0  0  0  0  0  0  0  0  0  0  0
   35.8280   28.6640   43.0690 H   0  0  0  0  0  0  0  0  0  0  0  0
   35.7690   27.2520   41.9910 H   0  0  0  0  0  0  0  0  0  0  0  0
   37.2020   28.2440   40.4150 H   0  0  0  0  0  0  0  0  0  0  0  0
   39.4270   31.3850   38.6370 C   0  0  0  0  0  0  0  0  0  0  0  0
   39.0360   30.3280   39.4700 C   0  0  0  0  0  0  0  0  0  0  0  0
   38.5510   30.6550   40.7490 C   0  0  0  0  0  0  0  0  0  0  0  0
   38.4890   31.9690   41.1000 N   0  0  0  0  0  0  0  0  0  0  0  0
   38.8810   32.9540   40.2520 C   0  0  0  0  0  0  0  0  0  0  0  0
   39.3520   32.6470   39.0130 N   0  0  0  0  0  0  0  0  0  0  0  0
   39.7750   30.9850   37.6930 H   0  0  0  0  0  0  0  0  0  0  0  0
   39.0470   29.2820   39.2870 H   0  0  0  0  0  0  0  0  0  0  0  0
   38.8370   34.0050   40.5220 H   0  0  0  0  0  0  0  0  0  0  0  0
   35.9360   29.7260   40.9510 O   0  0  0  0  0  0  0  0  0  0  0  0
   34.9950   29.1320   40.1470 C   0  0  0  0  0  2  0  0  0  0  0  0
   35.4990   29.2970   38.7090 C   0  0  0  0  0  2  0  0  0  0  0  0
   35.5830   30.3810   38.4840 H   0  0  0  0  0  0  0  0  0  0  0  0
  1  2  1  0  0  0  0
  2  3  1  0  0  0  0
  2  8  1  0  0  0  0
  3  4  1  0  0  0  0
  3  9  1  0  0  0  0
  4 11  1  0  0  0  0
  5 13  1  0  0  0  0
  5  4  1  0  0  0  0
  6 15  1  6  0  0  0
  6  1  1  0  0  0  0
  6  5  1  0  0  0  0
  7  2  1  0  0  0  0
 10  3  1  0  0  0  0
 12  4  1  0  0  0  0
 14  5  1  0  0  0  0
 16 21  2  0  0  0  0
 16 17  1  0  0  0  0
 17 18  2  0  0  0  0
 18 19  1  0  0  0  0
 18  1  1  0  0  0  0
 20 24  1  0  0  0  0
 20 19  2  0  0  0  0
 21 20  1  0  0  0  0
 22 16  1  0  0  0  0
 23 17  1  0  0  0  0
 25  6  1  0  0  0  0
 26 25  1  0  0  0  0
 27 26  1  0  0  0  0
 28 27  1  0  0  0  0
M  END
>  <minimizedAffinity>
-3.97439909

$$$$

 OpenBabel03252502253D

 28 29  0  0  1  0  0  0  0  0999 V2000
   38.1960   30.6700   40.9920 N   0  0  0  0  0  0  0  0  0  0  0  0
   39.4200   31.4230   40.7430 C   0  0  0  0  0  0  0  0  0  0  0  0
   39.0110   32.8870   41.0010 C   0  0  0  0  0  0  0  0  0  0  0  0
   38.0050   33.3310   39.9750 C   0  0  0  0  0  0  0  0  0  0  0  0
   36.9840   32.3100   39.6310 C   0  0  0  0  0  0  0  0  0  0  0  0
   36.9090   31.1270   40.5570 C   0  0  1  0  0  0  0  0  0  0  0  0
   40.2280   31.1410   41.4200 H   0  0  0  0  0  0  0  0  0  0  0  0
   39.6340   31.3370   39.6660 H   0  0  0  0  0  0  0  0  0  0  0  0
   39.9370   33.4730   40.8230 H   0  0  0  0  0  0  0  0  0  0  0  0
   38.6880   33.0410   42.0320 H   0  0  0  0  0  0  0  0  0  0  0  0
   38.5170   33.6880   39.0350 H   0  0  0  0  0  0  0  0  0  0  0  0
   37.4920   34.2300   40.3730 H   0  0  0  0  0  0  0  0  0  0  0  0
   37.1850   31.9000   38.6150 H   0  0  0  0  0  0  0  0  0  0  0  0
   35.9530   32.7540   39.5700 H   0  0  0  0  0  0  0  0  0  0  0  0
   36.2600   31.3590   41.4360 H   0  0  0  0  0  0  0  0  0  0  0  0
   37.7740   28.0120   43.5830 C   0  0  0  0  0  0  0  0  0  0  0  0
   37.6760   29.2720   42.9770 C   0  0  0  0  0  0  0  0  0  0  0  0
   38.2410   29.4220   41.6980 C   0  0  0  0  0  0  0  0  0  0  0  0
   38.8440   28.3420   41.1270 N   0  0  0  0  0  0  0  0  0  0  0  0
   38.9090   27.1430   41.7600 C   0  0  0  0  0  0  0  0  0  0  0  0
   38.3660   26.9900   42.9980 N   0  0  0  0  0  0  0  0  0  0  0  0
   37.2980   28.0470   44.5560 H   0  0  0  0  0  0  0  0  0  0  0  0
   37.2300   30.1650   43.3390 H   0  0  0  0  0  0  0  0  0  0  0  0
   39.3880   26.2770   41.3150 H   0  0  0  0  0  0  0  0  0  0  0  0
   36.2680   30.0990   39.8550 O   0  0  0  0  0  0  0  0  0  0  0  0
   36.4800   30.1470   38.5000 C   0  0  0  0  0  2  0  0  0  0  0  0
   35.3410   29.3440   37.8630 C   0  0  0  0  0  2  0  0  0  0  0  0
   35.3920   28.2990   38.2330 H   0  0  0  0  0  0  0  0  0  0  0  0
  1 18  1  0  0  0  0
  2  1  1  0  0  0  0
  2  3  1  0  0  0  0
  2  7  1  0  0  0  0
  3 10  1  0  0  0  0
  4 12  1  0  0  0  0
  4  3  1  0  0  0  0
  5  4  1  0  0  0  0
  5  6  1  0  0  0  0
  6  1  1  0  0  0  0
  6 15  1  1  0  0  0
  8  2  1  0  0  0  0
  9  3  1  0  0  0  0
 11  4  1  0  0  0  0
 13  5  1  0  0  0  0
 14  5  1  0  0  0  0
 16 22  1  0  0  0  0
 17 23  1  0  0  0  0
 17 16  2  0  0  0  0
 18 17  1  0  0  0  0
 19 18  2  0  0  0  0
 19 20  1  0  0  0  0
 20 21  2  0  0  0  0
 21 16  1  0  0  0  0
 24 20  1  0  0  0  0
 25  6  1  0  0  0  0
 26 25  1  0  0  0  0
 27 28  1  0  0  0  0
 27 26  1  0  0  0  0
M  END
>  <minimizedAffinity>
-3.96134353

$$$$

 OpenBabel03252502253D

 28 29  0  0  1  0  0  0  0  0999 V2000
   37.2910   27.1960   40.9310 N   0  0  0  0  0  0  0  0  0  0  0  0
   37.5410   26.4060   39.7310 C   0  0  0  0  0  0  0  0  0  0  0  0
   36.5260   25.2490   39.8330 C   0  0  0  0  0  0  0  0  0  0  0  0
   36.8550   24.3750   41.0110 C   0  0  0  0  0  0  0  0  0  0  0  0
   37.2840   25.1120   42.2260 C   0  0  0  0  0  0  0  0  0  0  0  0
   37.0340   26.5960   42.2080 C   0  0  1  0  0  0  0  0  0  0  0  0
   37.3650   26.9720   38.8160 H   0  0  0  0  0  0  0  0  0  0  0  0
   38.5420   25.9610   39.8440 H   0  0  0  0  0  0  0  0  0  0  0  0
   36.6980   24.6430   38.9200 H   0  0  0  0  0  0  0  0  0  0  0  0
   35.4970   25.6140   39.8260 H   0  0  0  0  0  0  0  0  0  0  0  0
   37.6330   23.6050   40.7390 H   0  0  0  0  0  0  0  0  0  0  0  0
   35.9490   23.7830   41.2550 H   0  0  0  0  0  0  0  0  0  0  0  0
   38.3790   24.9810   42.3810 H   0  0  0  0  0  0  0  0  0  0  0  0
   36.8040   24.7030   43.1560 H   0  0  0  0  0  0  0  0  0  0  0  0
   35.9920   26.8210   42.5420 H   0  0  0  0  0  0  0  0  0  0  0  0
   36.2250   30.7750   40.9860 C   0  0  0  0  0  0  0  0  0  0  0  0
   36.1190   29.3800   41.0650 C   0  0  0  0  0  0  0  0  0  0  0  0
   37.2920   28.6280   40.8720 C   0  0  0  0  0  0  0  0  0  0  0  0
   38.4530   29.2950   40.6220 N   0  0  0  0  0  0  0  0  0  0  0  0
   38.4980   30.6510   40.5570 C   0  0  0  0  0  0  0  0  0  0  0  0
   37.3690   31.3850   40.7420 N   0  0  0  0  0  0  0  0  0  0  0  0
   35.2500   31.2170   41.1550 H   0  0  0  0  0  0  0  0  0  0  0  0
   35.2670   28.7750   41.2530 H   0  0  0  0  0  0  0  0  0  0  0  0
   39.4180   31.1920   40.3580 H   0  0  0  0  0  0  0  0  0  0  0  0
   37.8850   27.1650   43.1630 O   0  0  0  0  0  0  0  0  0  0  0  0
   39.0760   26.4970   43.3010 C   0  0  0  0  0  2  0  0  0  0  0  0
   40.1650   27.5750   43.3480 C   0  0  0  0  0  2  0  0  0  0  0  0
   40.1410   28.1460   42.3960 H   0  0  0  0  0  0  0  0  0  0  0  0
  1  6  1  0  0  0  0
  2  3  1  0  0  0  0
  2  8  1  0  0  0  0
  2  1  1  0  0  0  0
  3  4  1  0  0  0  0
  4 12  1  0  0  0  0
  4  5  1  0  0  0  0
  5 13  1  0  0  0  0
  5 14  1  0  0  0  0
  6  5  1  0  0  0  0
  6 15  1  1  0  0  0
  6 25  1  0  0  0  0
  7  2  1  0  0  0  0
  9  3  1  0  0  0  0
 10  3  1  0  0  0  0
 11  4  1  0  0  0  0
 16 17  1  0  0  0  0
 16 22  1  0  0  0  0
 17 23  1  0  0  0  0
 18  1  1  0  0  0  0
 18 17  2  0  0  0  0
 19 18  1  0  0  0  0
 20 19  2  0  0  0  0
 20 21  1  0  0  0  0
 21 16  2  0  0  0  0
 24 20  1  0  0  0  0
 25 26  1  0  0  0  0
 26 27  1  0  0  0  0
 28 27  1  0  0  0  0
M  END
>  <minimizedAffinity>
-3.96087146

$$$$

 OpenBabel03252502253D

 28 29  0  0  1  0  0  0  0  0999 V2000
   38.1770   27.8460   41.9710 N   0  0  0  0  0  0  0  0  0  0  0  0
   38.8130   28.9480   42.6820 C   0  0  0  0  0  0  0  0  0  0  0  0
   40.2960   28.5320   42.7570 C   0  0  0  0  0  0  0  0  0  0  0  0
   40.4460   27.3080   43.6180 C   0  0  0  0  0  0  0  0  0  0  0  0
   39.3830   26.2880   43.4320 C   0  0  0  0  0  0  0  0  0  0  0  0
   38.5100   26.4740   42.2210 C   0  0  1  0  0  0  0  0  0  0  0  0
   38.7220   29.8960   42.1490 H   0  0  0  0  0  0  0  0  0  0  0  0
   38.4240   28.9300   43.7130 H   0  0  0  0  0  0  0  0  0  0  0  0
   40.7960   29.3670   43.2890 H   0  0  0  0  0  0  0  0  0  0  0  0
   40.7380   28.4310   41.7640 H   0  0  0  0  0  0  0  0  0  0  0  0
   40.5180   27.5870   44.7090 H   0  0  0  0  0  0  0  0  0  0  0  0
   41.4280   26.8490   43.3820 H   0  0  0  0  0  0  0  0  0  0  0  0
   38.7020   26.2870   44.3120 H   0  0  0  0  0  0  0  0  0  0  0  0
   39.8060   25.2480   43.3850 H   0  0  0  0  0  0  0  0  0  0  0  0
   38.9890   26.0180   41.3210 H   0  0  0  0  0  0  0  0  0  0  0  0
   35.1050   29.0470   40.2160 C   0  0  0  0  0  0  0  0  0  0  0  0
   36.0220   28.8520   41.2590 C   0  0  0  0  0  0  0  0  0  0  0  0
   37.1780   28.1030   40.9750 C   0  0  0  0  0  0  0  0  0  0  0  0
   37.3380   27.6150   39.7130 N   0  0  0  0  0  0  0  0  0  0  0  0
   36.4170   27.8340   38.7400 C   0  0  0  0  0  0  0  0  0  0  0  0
   35.2960   28.5580   39.0070 N   0  0  0  0  0  0  0  0  0  0  0  0
   34.2730   29.6370   40.5800 H   0  0  0  0  0  0  0  0  0  0  0  0
   35.9850   29.1900   42.2640 H   0  0  0  0  0  0  0  0  0  0  0  0
   36.5340   27.4500   37.7320 H   0  0  0  0  0  0  0  0  0  0  0  0
   37.3340   25.7490   42.4510 O   0  0  0  0  0  0  0  0  0  0  0  0
   37.4380   24.4210   42.1230 C   0  0  0  0  0  2  0  0  0  0  0  0
   36.5670   24.2200   40.8780 C   0  0  0  0  0  2  0  0  0  0  0  0
   35.5190   24.4830   41.1310 H   0  0  0  0  0  0  0  0  0  0  0  0
  1  6  1  0  0  0  0
  1  2  1  0  0  0  0
  2  3  1  0  0  0  0
  2  8  1  0  0  0  0
  3  9  1  0  0  0  0
  3  4  1  0  0  0  0
  4 11  1  0  0  0  0
  5  4  1  0  0  0  0
  5 13  1  0  0  0  0
  6 15  1  6  0  0  0
  6 25  1  0  0  0  0
  6  5  1  0  0  0  0
  7  2  1  0  0  0  0
 10  3  1  0  0  0  0
 12  4  1  0  0  0  0
 14  5  1  0  0  0  0
 16 22  1  0  0  0  0
 16 17  1  0  0  0  0
 17 23  1  0  0  0  0
 18 17  2  0  0  0  0
 18  1  1  0  0  0  0
 19 18  1  0  0  0  0
 20 21  1  0  0  0  0
 20 19  2  0  0  0  0
 21 16  2  0  0  0  0
 24 20  1  0  0  0  0
 26 25  1  0  0  0  0
 27 28  1  0  0  0  0
 27 26  1  0  0  0  0
M  END
>  <minimizedAffinity>
-3.9222374

$$$$

 OpenBabel03252502253D

 28 29  0  0  1  0  0  0  0  0999 V2000
   37.4150   27.4530   41.0490 N   0  0  0  0  0  0  0  0  0  0  0  0
   37.7130   26.5960   39.9080 C   0  0  0  0  0  0  0  0  0  0  0  0
   36.6840   25.4530   40.0270 C   0  0  0  0  0  0  0  0  0  0  0  0
   36.9500   24.6450   41.2660 C   0  0  0  0  0  0  0  0  0  0  0  0
   37.3280   25.4460   42.4570 C   0  0  0  0  0  0  0  0  0  0  0  0
   37.0930   26.9280   42.3440 C   0  0  1  0  0  0  0  0  0  0  0  0
   37.5850   27.1100   38.9550 H   0  0  0  0  0  0  0  0  0  0  0  0
   38.7040   26.1520   40.0930 H   0  0  0  0  0  0  0  0  0  0  0  0
   36.8940   24.7950   39.1580 H   0  0  0  0  0  0  0  0  0  0  0  0
   35.6600   25.8230   39.9510 H   0  0  0  0  0  0  0  0  0  0  0  0
   37.7330   23.8560   41.0740 H   0  0  0  0  0  0  0  0  0  0  0  0
   36.0280   24.0720   41.4990 H   0  0  0  0  0  0  0  0  0  0  0  0
   38.4140   25.3170   42.6700 H   0  0  0  0  0  0  0  0  0  0  0  0
   36.8010   25.0930   43.3840 H   0  0  0  0  0  0  0  0  0  0  0  0
   36.0380   27.1780   42.6150 H   0  0  0  0  0  0  0  0  0  0  0  0
   38.5120   30.9740   40.4520 C   0  0  0  0  0  0  0  0  0  0  0  0
   38.6010   29.5790   40.5620 C   0  0  0  0  0  0  0  0  0  0  0  0
   37.4310   28.8800   40.9100 C   0  0  0  0  0  0  0  0  0  0  0  0
   36.2890   29.5940   41.1180 N   0  0  0  0  0  0  0  0  0  0  0  0
   36.2600   30.9460   40.9980 C   0  0  0  0  0  0  0  0  0  0  0  0
   37.3870   31.6300   40.6610 N   0  0  0  0  0  0  0  0  0  0  0  0
   39.4820   31.3720   40.1790 H   0  0  0  0  0  0  0  0  0  0  0  0
   39.4370   28.9410   40.4200 H   0  0  0  0  0  0  0  0  0  0  0  0
   35.3560   31.5240   41.1620 H   0  0  0  0  0  0  0  0  0  0  0  0
   37.9030   27.5440   43.3050 O   0  0  0  0  0  0  0  0  0  0  0  0
   38.9910   26.7910   43.6680 C   0  0  0  0  0  2  0  0  0  0  0  0
   40.2240   27.6410   43.3430 C   0  0  0  0  0  2  0  0  0  0  0  0
   40.2350   27.8500   42.2530 H   0  0  0  0  0  0  0  0  0  0  0  0
  1  6  1  0  0  0  0
  2  3  1  0  0  0  0
  2  8  1  0  0  0  0
  2  1  1  0  0  0  0
  3  4  1  0  0  0  0
  4 12  1  0  0  0  0
  4  5  1  0  0  0  0
  5 13  1  0  0  0  0
  5 14  1  0  0  0  0
  6  5  1  0  0  0  0
  6 15  1  1  0  0  0
  6 25  1  0  0  0  0
  7  2  1  0  0  0  0
  9  3  1  0  0  0  0
 10  3  1  0  0  0  0
 11  4  1  0  0  0  0
 16 17  2  0  0  0  0
 16 21  1  0  0  0  0
 17 18  1  0  0  0  0
 18  1  1  0  0  0  0
 18 19  2  0  0  0  0
 20 19  1  0  0  0  0
 20 24  1  0  0  0  0
 21 20  2  0  0  0  0
 22 16  1  0  0  0  0
 23 17  1  0  0  0  0
 25 26  1  0  0  0  0
 27 26  1  0  0  0  0
 28 27  1  0  0  0  0
M  END
>  <minimizedAffinity>
-3.89694691

$$$$

 OpenBabel03252502253D

 28 29  0  0  1  0  0  0  0  0999 V2000
   37.2540   27.5460   40.5050 N   0  0  0  0  0  0  0  0  0  0  0  0
   37.9710   26.2980   40.2710 C   0  0  0  0  0  0  0  0  0  0  0  0
   37.0690   25.2280   40.9190 C   0  0  0  0  0  0  0  0  0  0  0  0
   37.0150   25.4310   42.4070 C   0  0  0  0  0  0  0  0  0  0  0  0
   36.9290   26.8500   42.8350 C   0  0  0  0  0  0  0  0  0  0  0  0
   36.6000   27.8370   41.7480 C   0  0  1  0  0  0  0  0  0  0  0  0
   38.0950   26.0820   39.2090 H   0  0  0  0  0  0  0  0  0  0  0  0
   38.8940   26.3420   40.8700 H   0  0  0  0  0  0  0  0  0  0  0  0
   37.5980   24.2690   40.7400 H   0  0  0  0  0  0  0  0  0  0  0  0
   36.0880   25.1840   40.4420 H   0  0  0  0  0  0  0  0  0  0  0  0
   37.8900   24.9330   42.9160 H   0  0  0  0  0  0  0  0  0  0  0  0
   36.1260   24.8880   42.7890 H   0  0  0  0  0  0  0  0  0  0  0  0
   37.9030   27.1740   43.2670 H   0  0  0  0  0  0  0  0  0  0  0  0
   36.1780   26.9950   43.6570 H   0  0  0  0  0  0  0  0  0  0  0  0
   35.4950   27.9010   41.6000 H   0  0  0  0  0  0  0  0  0  0  0  0
   35.9970   29.8360   37.8350 C   0  0  0  0  0  0  0  0  0  0  0  0
   35.9680   28.8450   38.8250 C   0  0  0  0  0  0  0  0  0  0  0  0
   37.1770   28.5440   39.4790 C   0  0  0  0  0  0  0  0  0  0  0  0
   38.2960   29.2290   39.1130 N   0  0  0  0  0  0  0  0  0  0  0  0
   38.2670   30.1810   38.1460 C   0  0  0  0  0  0  0  0  0  0  0  0
   37.1020   30.4780   37.5090 N   0  0  0  0  0  0  0  0  0  0  0  0
   35.0030   29.9590   37.4240 H   0  0  0  0  0  0  0  0  0  0  0  0
   35.1530   28.2620   39.1760 H   0  0  0  0  0  0  0  0  0  0  0  0
   39.1540   30.7320   37.8470 H   0  0  0  0  0  0  0  0  0  0  0  0
   37.0110   29.0960   42.2010 O   0  0  0  0  0  0  0  0  0  0  0  0
   38.0010   29.0390   43.1510 C   0  0  0  0  0  2  0  0  0  0  0  0
   39.1010   29.9950   42.6770 C   0  0  0  0  0  2  0  0  0  0  0  0
   39.4770   29.6450   41.6940 H   0  0  0  0  0  0  0  0  0  0  0  0
  1  6  1  0  0  0  0
  2  1  1  0  0  0  0
  2  8  1  0  0  0  0
  2  3  1  0  0  0  0
  3  4  1  0  0  0  0
  4 12  1  0  0  0  0
  4  5  1  0  0  0  0
  4 11  1  0  0  0  0
  5 13  1  0  0  0  0
  5 14  1  0  0  0  0
  6 15  1  6  0  0  0
  6 25  1  0  0  0  0
  6  5  1  0  0  0  0
  7  2  1  0  0  0  0
  9  3  1  0  0  0  0
 10  3  1  0  0  0  0
 16 17  1  0  0  0  0
 17 23  1  0  0  0  0
 17 18  2  0  0  0  0
 18  1  1  0  0  0  0
 19 18  1  0  0  0  0
 20 19  2  0  0  0  0
 21 16  2  0  0  0  0
 21 20  1  0  0  0  0
 22 16  1  0  0  0  0
 24 20  1  0  0  0  0
 25 26  1  0  0  0  0
 27 26  1  0  0  0  0
 28 27  1  0  0  0  0
M  END
>  <minimizedAffinity>
-3.87974191

$$$$
