
 OpenBabel03242510183D

 21 22  0  0  1  0  0  0  0  0999 V2000
   37.6520   28.2770   43.6250 C   0  0  1  0  0  0  0  0  0  0  0  0
   36.4250   27.5210   43.5860 C   0  0  0  0  0  0  0  0  0  0  0  0
   37.6560   26.8560   43.0560 C   0  0  1  0  0  0  0  0  0  0  0  0
   38.3470   28.3530   44.5080 H   0  0  0  0  0  0  0  0  0  0  0  0
   35.6390   27.8530   42.8530 H   0  0  0  0  0  0  0  0  0  0  0  0
   35.9740   27.1730   44.5270 H   0  0  0  0  0  0  0  0  0  0  0  0
   38.0230   26.0330   43.7270 H   0  0  0  0  0  0  0  0  0  0  0  0
   39.1630   30.0070   42.5980 C   0  0  0  0  0  0  0  0  0  0  0  0
   37.9120   29.3880   42.6560 C   0  0  0  0  0  0  0  0  0  0  0  0
   36.8990   29.8550   41.8090 C   0  0  0  0  0  0  0  0  0  0  0  0
   37.1870   30.8930   40.9690 N   0  0  0  0  0  0  0  0  0  0  0  0
   38.3930   31.4650   40.9370 C   0  0  0  0  0  0  0  0  0  0  0  0
   39.4040   31.0280   41.7560 N   0  0  0  0  0  0  0  0  0  0  0  0
   39.9780   29.6840   43.2300 H   0  0  0  0  0  0  0  0  0  0  0  0
   35.9330   29.3710   41.8580 H   0  0  0  0  0  0  0  0  0  0  0  0
   38.3730   32.2570   40.2010 H   0  0  0  0  0  0  0  0  0  0  0  0
   37.9770   26.7130   41.7240 N   0  0  0  0  0  0  0  0  0  0  0  0
   38.2120   27.5820   41.1880 H   0  0  0  0  0  0  0  0  0  0  0  0
   37.4280   25.7590   40.8660 C   0  0  0  0  0  2  0  0  0  0  0  0
   36.9390   24.5010   41.5860 C   0  0  0  0  0  2  0  0  0  0  0  0
   36.4430   24.7790   42.5570 H   0  0  0  0  0  0  0  0  0  0  0  0
  1  4  1  1  0  0  0
  2  1  1  0  0  0  0
  2  6  1  0  0  0  0
  3  2  1  0  0  0  0
  3  1  1  0  0  0  0
  3  7  1  1  0  0  0
  5  2  1  0  0  0  0
  8  9  1  0  0  0  0
  8 14  1  0  0  0  0
  9  1  1  0  0  0  0
 10 15  1  0  0  0  0
 10  9  2  0  0  0  0
 11 10  1  0  0  0  0
 12 11  2  0  0  0  0
 12 13  1  0  0  0  0
 13  8  2  0  0  0  0
 16 12  1  0  0  0  0
 17  3  1  0  0  0  0
 18 17  1  0  0  0  0
 19 20  1  0  0  0  0
 19 17  1  0  0  0  0
 20 21  1  0  0  0  0
M  END
>  <minimizedAffinity>
-3.72151566

$$$$

 OpenBabel03242510183D

 21 22  0  0  1  0  0  0  0  0999 V2000
   36.2340   28.7190   40.0690 C   0  0  1  0  0  0  0  0  0  0  0  0
   34.8530   29.0910   40.2490 C   0  0  0  0  0  0  0  0  0  0  0  0
   35.8200   30.1830   39.9120 C   0  0  1  0  0  0  0  0  0  0  0  0
   36.6890   28.3300   39.1130 H   0  0  0  0  0  0  0  0  0  0  0  0
   34.4410   29.0470   41.2930 H   0  0  0  0  0  0  0  0  0  0  0  0
   34.1060   28.7720   39.5080 H   0  0  0  0  0  0  0  0  0  0  0  0
   35.6820   30.5720   38.8660 H   0  0  0  0  0  0  0  0  0  0  0  0
   38.5020   28.4370   41.1230 C   0  0  0  0  0  0  0  0  0  0  0  0
   37.1100   28.3910   41.2370 C   0  0  0  0  0  0  0  0  0  0  0  0
   36.5560   27.9980   42.4620 C   0  0  0  0  0  0  0  0  0  0  0  0
   37.4070   27.6800   43.4830 N   0  0  0  0  0  0  0  0  0  0  0  0
   38.7340   27.7330   43.3430 C   0  0  0  0  0  0  0  0  0  0  0  0
   39.3040   28.1150   42.1530 N   0  0  0  0  0  0  0  0  0  0  0  0
   38.9780   28.7350   40.1990 H   0  0  0  0  0  0  0  0  0  0  0  0
   35.4790   27.9650   42.5450 H   0  0  0  0  0  0  0  0  0  0  0  0
   39.1860   27.4370   44.2790 H   0  0  0  0  0  0  0  0  0  0  0  0
   36.3500   31.0860   40.8080 N   0  0  0  0  0  0  0  0  0  0  0  0
   35.7430   31.3870   41.6060 H   0  0  0  0  0  0  0  0  0  0  0  0
   37.2460   32.1050   40.4820 C   0  0  0  0  0  2  0  0  0  0  0  0
   37.2370   32.4730   38.9960 C   0  0  0  0  0  2  0  0  0  0  0  0
   36.1830   32.4640   38.6020 H   0  0  0  0  0  0  0  0  0  0  0  0
  1  4  1  6  0  0  0
  1  2  1  0  0  0  0
  1  9  1  0  0  0  0
  2  5  1  0  0  0  0
  3  7  1  6  0  0  0
  3  1  1  0  0  0  0
  3  2  1  0  0  0  0
  3 17  1  0  0  0  0
  6  2  1  0  0  0  0
  8  9  2  0  0  0  0
  8 13  1  0  0  0  0
  9 10  1  0  0  0  0
 10 15  1  0  0  0  0
 10 11  2  0  0  0  0
 12 11  1  0  0  0  0
 12 16  1  0  0  0  0
 13 12  2  0  0  0  0
 14  8  1  0  0  0  0
 17 18  1  0  0  0  0
 19 17  1  0  0  0  0
 20 19  1  0  0  0  0
 21 20  1  0  0  0  0
M  END
>  <minimizedAffinity>
-3.52945662

$$$$

 OpenBabel03242510183D

 21 22  0  0  1  0  0  0  0  0999 V2000
   36.9120   25.2470   42.3700 C   0  0  1  0  0  0  0  0  0  0  0  0
   37.0340   24.3670   41.2340 C   0  0  0  0  0  0  0  0  0  0  0  0
   38.1610   24.3750   42.2190 C   0  0  1  0  0  0  0  0  0  0  0  0
   36.3740   25.0070   43.3310 H   0  0  0  0  0  0  0  0  0  0  0  0
   37.1980   24.8430   40.2300 H   0  0  0  0  0  0  0  0  0  0  0  0
   36.3770   23.4870   41.1590 H   0  0  0  0  0  0  0  0  0  0  0  0
   38.2080   23.4310   42.8270 H   0  0  0  0  0  0  0  0  0  0  0  0
   37.3110   27.5260   43.3580 C   0  0  0  0  0  0  0  0  0  0  0  0
   37.1050   26.7240   42.2320 C   0  0  0  0  0  0  0  0  0  0  0  0
   37.0510   27.3430   40.9760 C   0  0  0  0  0  0  0  0  0  0  0  0
   37.2010   28.7000   40.9170 N   0  0  0  0  0  0  0  0  0  0  0  0
   37.3970   29.4390   42.0110 C   0  0  0  0  0  0  0  0  0  0  0  0
   37.4550   28.8600   43.2550 N   0  0  0  0  0  0  0  0  0  0  0  0
   37.3620   27.0980   44.3490 H   0  0  0  0  0  0  0  0  0  0  0  0
   36.8920   26.7170   40.1090 H   0  0  0  0  0  0  0  0  0  0  0  0
   37.4840   30.4740   41.7100 H   0  0  0  0  0  0  0  0  0  0  0  0
   39.3640   25.0250   42.0500 N   0  0  0  0  0  0  0  0  0  0  0  0
   39.7010   25.1710   41.0690 H   0  0  0  0  0  0  0  0  0  0  0  0
   40.4540   24.9290   42.9180 C   0  0  0  0  0  2  0  0  0  0  0  0
   40.7790   26.2410   43.6350 C   0  0  0  0  0  2  0  0  0  0  0  0
   39.8290   26.7640   43.9340 H   0  0  0  0  0  0  0  0  0  0  0  0
  1  4  1  1  0  0  0
  2  3  1  0  0  0  0
  2  1  1  0  0  0  0
  3  1  1  0  0  0  0
  3  7  1  1  0  0  0
  5  2  1  0  0  0  0
  6  2  1  0  0  0  0
  8 14  1  0  0  0  0
  9  1  1  0  0  0  0
  9  8  2  0  0  0  0
 10  9  1  0  0  0  0
 11 10  2  0  0  0  0
 11 12  1  0  0  0  0
 12 13  2  0  0  0  0
 13  8  1  0  0  0  0
 15 10  1  0  0  0  0
 16 12  1  0  0  0  0
 17  3  1  0  0  0  0
 17 19  1  0  0  0  0
 18 17  1  0  0  0  0
 19 20  1  0  0  0  0
 20 21  1  0  0  0  0
M  END
>  <minimizedAffinity>
-3.52012658

$$$$

 OpenBabel03242510183D

 21 22  0  0  1  0  0  0  0  0999 V2000
   36.4900   30.8230   39.4500 C   0  0  1  0  0  0  0  0  0  0  0  0
   36.5380   29.3850   39.3530 C   0  0  0  0  0  0  0  0  0  0  0  0
   35.9100   29.9690   40.5790 C   0  0  1  0  0  0  0  0  0  0  0  0
   35.6940   31.4840   39.0030 H   0  0  0  0  0  0  0  0  0  0  0  0
   37.5460   28.8970   39.4490 H   0  0  0  0  0  0  0  0  0  0  0  0
   35.9130   28.8720   38.6070 H   0  0  0  0  0  0  0  0  0  0  0  0
   34.7950   29.8290   40.6000 H   0  0  0  0  0  0  0  0  0  0  0  0
   37.6090   32.9460   40.2050 C   0  0  0  0  0  0  0  0  0  0  0  0
   37.7130   31.6220   39.7730 C   0  0  0  0  0  0  0  0  0  0  0  0
   38.9930   31.0710   39.6190 C   0  0  0  0  0  0  0  0  0  0  0  0
   40.0730   31.8600   39.8990 N   0  0  0  0  0  0  0  0  0  0  0  0
   39.9410   33.1230   40.3090 C   0  0  0  0  0  0  0  0  0  0  0  0
   38.7000   33.6890   40.4690 N   0  0  0  0  0  0  0  0  0  0  0  0
   36.6460   33.4170   40.3400 H   0  0  0  0  0  0  0  0  0  0  0  0
   39.0670   30.0450   39.2860 H   0  0  0  0  0  0  0  0  0  0  0  0
   40.9280   33.5350   40.4620 H   0  0  0  0  0  0  0  0  0  0  0  0
   36.5120   30.0680   41.8150 N   0  0  0  0  0  0  0  0  0  0  0  0
   36.9240   30.9950   42.0780 H   0  0  0  0  0  0  0  0  0  0  0  0
   37.2080   29.0400   42.4510 C   0  0  0  0  0  2  0  0  0  0  0  0
   38.6010   29.4520   42.9330 C   0  0  0  0  0  2  0  0  0  0  0  0
   38.5710   30.4950   43.3530 H   0  0  0  0  0  0  0  0  0  0  0  0
  1  4  1  6  0  0  0
  1  9  1  0  0  0  0
  1  3  1  0  0  0  0
  2  5  1  0  0  0  0
  2  1  1  0  0  0  0
  2  3  1  0  0  0  0
  3  7  1  1  0  0  0
  3 17  1  0  0  0  0
  6  2  1  0  0  0  0
  8 14  1  0  0  0  0
  8 13  1  0  0  0  0
  9  8  2  0  0  0  0
 10  9  1  0  0  0  0
 10 11  2  0  0  0  0
 11 12  1  0  0  0  0
 12 16  1  0  0  0  0
 12 13  2  0  0  0  0
 15 10  1  0  0  0  0
 17 18  1  0  0  0  0
 17 19  1  0  0  0  0
 19 20  1  0  0  0  0
 20 21  1  0  0  0  0
M  END
>  <minimizedAffinity>
-3.42528939

$$$$

 OpenBabel03242510183D

 21 22  0  0  1  0  0  0  0  0999 V2000
   37.7740   28.8330   43.4310 C   0  0  1  0  0  0  0  0  0  0  0  0
   36.8230   27.7790   43.6800 C   0  0  0  0  0  0  0  0  0  0  0  0
   38.2050   27.3730   43.2750 C   0  0  1  0  0  0  0  0  0  0  0  0
   38.4000   29.3490   44.2140 H   0  0  0  0  0  0  0  0  0  0  0  0
   35.9890   27.6520   42.9360 H   0  0  0  0  0  0  0  0  0  0  0  0
   36.4750   27.5950   44.7070 H   0  0  0  0  0  0  0  0  0  0  0  0
   38.7830   26.9120   44.1210 H   0  0  0  0  0  0  0  0  0  0  0  0
   36.5720   29.6580   41.3800 C   0  0  0  0  0  0  0  0  0  0  0  0
   37.7170   29.6530   42.1810 C   0  0  0  0  0  0  0  0  0  0  0  0
   38.8210   30.4100   41.7670 C   0  0  0  0  0  0  0  0  0  0  0  0
   38.7210   31.1130   40.5990 N   0  0  0  0  0  0  0  0  0  0  0  0
   37.6120   31.0970   39.8550 C   0  0  0  0  0  0  0  0  0  0  0  0
   36.5150   30.3640   40.2370 N   0  0  0  0  0  0  0  0  0  0  0  0
   35.6940   29.0910   41.6560 H   0  0  0  0  0  0  0  0  0  0  0  0
   39.7040   30.4030   42.3900 H   0  0  0  0  0  0  0  0  0  0  0  0
   37.7760   31.7220   38.9890 H   0  0  0  0  0  0  0  0  0  0  0  0
   38.5790   26.9590   42.0150 N   0  0  0  0  0  0  0  0  0  0  0  0
   38.3210   27.5750   41.2080 H   0  0  0  0  0  0  0  0  0  0  0  0
   38.6480   25.6300   41.5960 C   0  0  0  0  0  2  0  0  0  0  0  0
   37.3410   24.8590   41.7950 C   0  0  0  0  0  2  0  0  0  0  0  0
   36.4630   25.5150   41.5410 H   0  0  0  0  0  0  0  0  0  0  0  0
  1  2  1  0  0  0  0
  1  4  1  1  0  0  0
  2  6  1  0  0  0  0
  3  1  1  0  0  0  0
  3  2  1  0  0  0  0
  3  7  1  1  0  0  0
  5  2  1  0  0  0  0
  8 14  1  0  0  0  0
  8  9  1  0  0  0  0
  9  1  1  0  0  0  0
 10  9  2  0  0  0  0
 10 15  1  0  0  0  0
 11 10  1  0  0  0  0
 12 13  1  0  0  0  0
 12 11  2  0  0  0  0
 13  8  2  0  0  0  0
 16 12  1  0  0  0  0
 17  3  1  0  0  0  0
 18 17  1  0  0  0  0
 19 20  1  0  0  0  0
 19 17  1  0  0  0  0
 21 20  1  0  0  0  0
M  END
>  <minimizedAffinity>
-3.40826559

$$$$

 OpenBabel03242510183D

 21 22  0  0  1  0  0  0  0  0999 V2000
   36.7830   27.0140   43.0920 C   0  0  1  0  0  0  0  0  0  0  0  0
   37.4770   28.2050   43.5140 C   0  0  0  0  0  0  0  0  0  0  0  0
   36.6320   28.3030   42.2830 C   0  0  1  0  0  0  0  0  0  0  0  0
   35.7820   26.6670   43.4770 H   0  0  0  0  0  0  0  0  0  0  0  0
   38.5940   28.2170   43.3980 H   0  0  0  0  0  0  0  0  0  0  0  0
   37.1630   28.7150   44.4370 H   0  0  0  0  0  0  0  0  0  0  0  0
   35.7000   28.9100   42.4470 H   0  0  0  0  0  0  0  0  0  0  0  0
   36.8040   24.8520   41.8040 C   0  0  0  0  0  0  0  0  0  0  0  0
   37.5080   25.8850   42.4290 C   0  0  0  0  0  0  0  0  0  0  0  0
   38.9070   25.8220   42.4450 C   0  0  0  0  0  0  0  0  0  0  0  0
   39.5120   24.7500   41.8510 N   0  0  0  0  0  0  0  0  0  0  0  0
   38.8120   23.7780   41.2620 C   0  0  0  0  0  0  0  0  0  0  0  0
   37.4400   23.8140   41.2300 N   0  0  0  0  0  0  0  0  0  0  0  0
   35.7240   24.8550   41.7630 H   0  0  0  0  0  0  0  0  0  0  0  0
   39.4460   26.6240   42.9290 H   0  0  0  0  0  0  0  0  0  0  0  0
   39.5070   23.0490   40.8700 H   0  0  0  0  0  0  0  0  0  0  0  0
   37.1020   28.2910   40.9880 N   0  0  0  0  0  0  0  0  0  0  0  0
   38.0920   27.9830   40.8360 H   0  0  0  0  0  0  0  0  0  0  0  0
   36.7280   29.1930   39.9910 C   0  0  0  0  0  2  0  0  0  0  0  0
   36.0670   30.4620   40.5340 C   0  0  0  0  0  2  0  0  0  0  0  0
   36.5900   30.7990   41.4720 H   0  0  0  0  0  0  0  0  0  0  0  0
  1  4  1  1  0  0  0
  1  2  1  0  0  0  0
  2  6  1  0  0  0  0
  3  7  1  1  0  0  0
  3  1  1  0  0  0  0
  3  2  1  0  0  0  0
  5  2  1  0  0  0  0
  8  9  1  0  0  0  0
  9 10  2  0  0  0  0
  9  1  1  0  0  0  0
 10 15  1  0  0  0  0
 11 10  1  0  0  0  0
 12 11  2  0  0  0  0
 13 12  1  0  0  0  0
 13  8  2  0  0  0  0
 14  8  1  0  0  0  0
 16 12  1  0  0  0  0
 17  3  1  0  0  0  0
 18 17  1  0  0  0  0
 19 20  1  0  0  0  0
 19 17  1  0  0  0  0
 20 21  1  0  0  0  0
M  END
>  <minimizedAffinity>
-3.3984406

$$$$

 OpenBabel03242510183D

 21 22  0  0  1  0  0  0  0  0999 V2000
   36.1240   28.1610   40.1590 C   0  0  1  0  0  0  0  0  0  0  0  0
   35.0510   29.1060   40.3380 C   0  0  0  0  0  0  0  0  0  0  0  0
   36.2430   29.5630   39.5580 C   0  0  1  0  0  0  0  0  0  0  0  0
   36.1800   27.3770   39.3510 H   0  0  0  0  0  0  0  0  0  0  0  0
   34.8970   29.5200   41.3720 H   0  0  0  0  0  0  0  0  0  0  0  0
   34.0920   28.9380   39.8260 H   0  0  0  0  0  0  0  0  0  0  0  0
   36.0240   29.6750   38.4620 H   0  0  0  0  0  0  0  0  0  0  0  0
   36.7150   28.0940   42.6040 C   0  0  0  0  0  0  0  0  0  0  0  0
   37.0620   27.8280   41.2770 C   0  0  0  0  0  0  0  0  0  0  0  0
   38.3220   27.2720   41.0170 C   0  0  0  0  0  0  0  0  0  0  0  0
   39.1470   27.0200   42.0770 N   0  0  0  0  0  0  0  0  0  0  0  0
   38.7870   27.2860   43.3350 C   0  0  0  0  0  0  0  0  0  0  0  0
   37.5590   27.8300   43.6190 N   0  0  0  0  0  0  0  0  0  0  0  0
   35.7560   28.5210   42.8580 H   0  0  0  0  0  0  0  0  0  0  0  0
   38.5840   27.0680   39.9890 H   0  0  0  0  0  0  0  0  0  0  0  0
   39.6010   27.0030   43.9870 H   0  0  0  0  0  0  0  0  0  0  0  0
   37.2520   30.3690   40.0400 N   0  0  0  0  0  0  0  0  0  0  0  0
   38.0290   29.9070   40.5690 H   0  0  0  0  0  0  0  0  0  0  0  0
   37.0830   31.6790   40.4910 C   0  0  0  0  0  2  0  0  0  0  0  0
   37.2150   32.7280   39.3840 C   0  0  0  0  0  2  0  0  0  0  0  0
   36.7240   32.3580   38.4410 H   0  0  0  0  0  0  0  0  0  0  0  0
  1  4  1  6  0  0  0
  1  2  1  0  0  0  0
  1  9  1  0  0  0  0
  2  5  1  0  0  0  0
  3  7  1  6  0  0  0
  3 17  1  0  0  0  0
  3  1  1  0  0  0  0
  3  2  1  0  0  0  0
  6  2  1  0  0  0  0
  8 14  1  0  0  0  0
  8 13  1  0  0  0  0
  9  8  2  0  0  0  0
 10  9  1  0  0  0  0
 10 11  2  0  0  0  0
 11 12  1  0  0  0  0
 12 13  2  0  0  0  0
 12 16  1  0  0  0  0
 15 10  1  0  0  0  0
 17 19  1  0  0  0  0
 17 18  1  0  0  0  0
 20 19  1  0  0  0  0
 21 20  1  0  0  0  0
M  END
>  <minimizedAffinity>
-3.37892509

$$$$

 OpenBabel03242510183D

 21 22  0  0  1  0  0  0  0  0999 V2000
   36.3040   30.6090   41.0800 C   0  0  1  0  0  0  0  0  0  0  0  0
   37.0160   31.7690   40.6020 C   0  0  0  0  0  0  0  0  0  0  0  0
   36.5980   30.7540   39.5850 C   0  0  1  0  0  0  0  0  0  0  0  0
   35.1930   30.5510   41.2620 H   0  0  0  0  0  0  0  0  0  0  0  0
   38.1060   31.8470   40.8640 H   0  0  0  0  0  0  0  0  0  0  0  0
   36.5250   32.7530   40.6290 H   0  0  0  0  0  0  0  0  0  0  0  0
   35.7640   31.1210   38.9280 H   0  0  0  0  0  0  0  0  0  0  0  0
   38.2600   29.7190   42.3880 C   0  0  0  0  0  0  0  0  0  0  0  0
   37.0120   29.5050   41.7990 C   0  0  0  0  0  0  0  0  0  0  0  0
   36.4540   28.2210   41.8710 C   0  0  0  0  0  0  0  0  0  0  0  0
   37.1620   27.2450   42.5140 N   0  0  0  0  0  0  0  0  0  0  0  0
   38.3540   27.4810   43.0670 C   0  0  0  0  0  0  0  0  0  0  0  0
   38.9240   28.7290   43.0110 N   0  0  0  0  0  0  0  0  0  0  0  0
   38.7330   30.6910   42.3610 H   0  0  0  0  0  0  0  0  0  0  0  0
   35.4870   28.0610   41.4150 H   0  0  0  0  0  0  0  0  0  0  0  0
   38.7110   26.5610   43.5090 H   0  0  0  0  0  0  0  0  0  0  0  0
   37.4230   29.8100   39.0130 N   0  0  0  0  0  0  0  0  0  0  0  0
   38.0730   29.2880   39.6480 H   0  0  0  0  0  0  0  0  0  0  0  0
   37.9770   29.9010   37.7350 C   0  0  0  0  0  2  0  0  0  0  0  0
   37.6240   31.2000   37.0080 C   0  0  0  0  0  2  0  0  0  0  0  0
   37.6510   32.0650   37.7270 H   0  0  0  0  0  0  0  0  0  0  0  0
  1  4  1  1  0  0  0
  1  9  1  0  0  0  0
  2  6  1  0  0  0  0
  2  5  1  0  0  0  0
  2  1  1  0  0  0  0
  3  7  1  6  0  0  0
  3  2  1  0  0  0  0
  3  1  1  0  0  0  0
  8 13  1  0  0  0  0
  9 10  1  0  0  0  0
  9  8  2  0  0  0  0
 10 11  2  0  0  0  0
 11 12  1  0  0  0  0
 12 16  1  0  0  0  0
 13 12  2  0  0  0  0
 14  8  1  0  0  0  0
 15 10  1  0  0  0  0
 17  3  1  0  0  0  0
 17 18  1  0  0  0  0
 19 17  1  0  0  0  0
 20 21  1  0  0  0  0
 20 19  1  0  0  0  0
M  END
>  <minimizedAffinity>
-3.35446286

$$$$

 OpenBabel03242510183D

 21 22  0  0  1  0  0  0  0  0999 V2000
   36.8320   27.6890   42.2410 C   0  0  1  0  0  0  0  0  0  0  0  0
   36.9190   27.7440   43.6780 C   0  0  0  0  0  0  0  0  0  0  0  0
   38.0740   28.2900   42.9000 C   0  0  1  0  0  0  0  0  0  0  0  0
   36.3220   28.4510   41.5850 H   0  0  0  0  0  0  0  0  0  0  0  0
   37.0540   26.7700   44.2240 H   0  0  0  0  0  0  0  0  0  0  0  0
   36.2600   28.4270   44.2340 H   0  0  0  0  0  0  0  0  0  0  0  0
   38.1380   29.4110   42.9540 H   0  0  0  0  0  0  0  0  0  0  0  0
   37.2410   26.3990   40.1190 C   0  0  0  0  0  0  0  0  0  0  0  0
   37.0220   26.4030   41.4990 C   0  0  0  0  0  0  0  0  0  0  0  0
   36.9530   25.1720   42.1650 C   0  0  0  0  0  0  0  0  0  0  0  0
   37.1020   24.0300   41.4290 N   0  0  0  0  0  0  0  0  0  0  0  0
   37.3100   24.0590   40.1110 C   0  0  0  0  0  0  0  0  0  0  0  0
   37.3820   25.2510   39.4320 N   0  0  0  0  0  0  0  0  0  0  0  0
   37.3040   27.3210   39.5590 H   0  0  0  0  0  0  0  0  0  0  0  0
   36.7840   25.1810   43.2330 H   0  0  0  0  0  0  0  0  0  0  0  0
   37.3930   23.0410   39.7580 H   0  0  0  0  0  0  0  0  0  0  0  0
   39.2730   27.6440   42.6900 N   0  0  0  0  0  0  0  0  0  0  0  0
   39.4030   27.1540   41.7730 H   0  0  0  0  0  0  0  0  0  0  0  0
   40.0250   27.0090   43.6800 C   0  0  0  0  0  2  0  0  0  0  0  0
   40.3630   25.5540   43.3490 C   0  0  0  0  0  2  0  0  0  0  0  0
   40.6180   25.4550   42.2580 H   0  0  0  0  0  0  0  0  0  0  0  0
  1  4  1  6  0  0  0
  1  3  1  0  0  0  0
  1  2  1  0  0  0  0
  2  5  1  0  0  0  0
  2  6  1  0  0  0  0
  3  7  1  6  0  0  0
  3  2  1  0  0  0  0
  8  9  1  0  0  0  0
  9 10  2  0  0  0  0
  9  1  1  0  0  0  0
 10 15  1  0  0  0  0
 11 10  1  0  0  0  0
 12 11  2  0  0  0  0
 13 12  1  0  0  0  0
 13  8  2  0  0  0  0
 14  8  1  0  0  0  0
 16 12  1  0  0  0  0
 17  3  1  0  0  0  0
 17 19  1  0  0  0  0
 18 17  1  0  0  0  0
 20 19  1  0  0  0  0
 21 20  1  0  0  0  0
M  END
>  <minimizedAffinity>
-3.34779191

$$$$
