
 OpenBabel03252509303D

 21 21  0  0  0  0  0  0  0  0999 V2000
   47.1110   33.3300   42.8400 C   0  0  0  0  0  0  0  0  0  0  0  0
   47.2320   33.7880   41.8520 H   0  0  0  0  0  0  0  0  0  0  0  0
   46.6070   32.3390   42.6610 H   0  0  0  0  0  0  0  0  0  0  0  0
   45.1250   34.3670   45.8240 C   0  0  0  0  0  0  0  0  0  0  0  0
   45.9850   33.6260   44.9930 C   0  0  0  0  0  0  0  0  0  0  0  0
   46.2180   34.0890   43.7190 C   0  0  0  0  0  0  0  0  0  0  0  0
   45.6090   35.2430   43.3150 N   0  0  0  0  0  0  0  0  0  0  0  0
   44.7770   35.9470   44.1370 C   0  0  0  0  0  0  0  0  0  0  0  0
   44.5540   35.4960   45.3700 N   0  0  0  0  0  0  0  0  0  0  0  0
   44.9810   33.9520   46.8140 H   0  0  0  0  0  0  0  0  0  0  0  0
   46.4650   32.7100   45.3210 H   0  0  0  0  0  0  0  0  0  0  0  0
   44.3210   36.8610   43.7550 H   0  0  0  0  0  0  0  0  0  0  0  0
   48.3090   33.0070   43.4770 O   0  0  0  0  0  0  0  0  0  0  0  0
   50.6410   32.5790   42.3890 O   0  0  0  0  0  0  0  0  0  0  0  0
   49.5600   33.6280   42.5230 P   0  0  2  0  0  0  0  0  0  0  0  0
   50.0990   35.0290   43.2680 O   0  0  0  0  0  0  0  0  0  0  0  0
   50.9960   34.9710   43.6660 H   0  0  0  0  0  0  0  0  0  0  0  0
   48.9460   33.9310   40.9910 O   0  0  0  0  0  0  0  0  0  0  0  0
   48.3240   35.1870   40.9580 C   0  0  0  0  0  0  0  0  0  0  0  0
   49.2670   36.2880   41.3430 C   0  0  0  0  0  0  0  0  0  0  0  0
   50.2990   36.0580   40.9480 H   0  0  0  0  0  0  0  0  0  0  0  0
  1 13  1  0  0  0  0
  1  6  1  0  0  0  0
  2  1  1  0  0  0  0
  3  1  1  0  0  0  0
  4 10  1  0  0  0  0
  5 11  1  0  0  0  0
  5  4  2  0  0  0  0
  6  5  1  0  0  0  0
  7  6  2  0  0  0  0
  7  8  1  0  0  0  0
  8  9  2  0  0  0  0
  9  4  1  0  0  0  0
 12  8  1  0  0  0  0
 15 14  2  6  0  0  0
 15 16  1  0  0  0  0
 15 13  1  0  0  0  0
 16 17  1  0  0  0  0
 18 15  1  0  0  0  0
 19 18  1  0  0  0  0
 19 20  1  0  0  0  0
 21 20  1  0  0  0  0
M  END
>  <minimizedAffinity>
-4.40032053

>  <minimizedRMSD>
0.683959842

$$$$
