
 OpenBabel03252502553D

 31 32  0  0  0  0  0  0  0  0999 V2000
   45.6500   29.9480   44.8200 Br  0  0  0  0  0  0  0  0  0  0  0  0
   45.6690   30.6190   46.6380 C   0  0  0  0  0  0  0  0  0  0  0  0
   46.3270   31.7910   46.8260 C   0  0  0  0  0  0  0  0  0  0  0  0
   46.3240   32.2530   48.1530 C   0  0  0  0  0  0  0  0  0  0  0  0
   45.7080   31.5790   49.1860 C   0  0  0  0  0  0  0  0  0  0  0  0
   45.0640   30.4000   48.9080 C   0  0  0  0  0  0  0  0  0  0  0  0
   45.0320   29.8940   47.6220 C   0  0  0  0  0  0  0  0  0  0  0  0
   46.8130   33.1730   48.4300 H   0  0  0  0  0  0  0  0  0  0  0  0
   45.7140   31.9460   50.1960 H   0  0  0  0  0  0  0  0  0  0  0  0
   44.5650   29.8340   49.6850 H   0  0  0  0  0  0  0  0  0  0  0  0
   47.0210   32.6110   45.8390 C   0  0  0  0  0  0  0  0  0  0  0  0
   47.4560   32.0000   45.0440 H   0  0  0  0  0  0  0  0  0  0  0  0
   47.8980   33.0940   46.3500 H   0  0  0  0  0  0  0  0  0  0  0  0
   44.5240   35.3260   45.3770 C   0  0  0  0  0  0  0  0  0  0  0  0
   44.7470   35.7100   44.0530 C   0  0  0  0  0  0  0  0  0  0  0  0
   45.7340   35.0450   43.3510 C   0  0  0  0  0  0  0  0  0  0  0  0
   46.4390   34.0590   43.9560 N   0  0  0  0  0  0  0  0  0  0  0  0
   46.2030   33.7000   45.2550 C   0  0  0  0  0  0  0  0  0  0  0  0
   45.2380   34.3500   45.9410 N   0  0  0  0  0  0  0  0  0  0  0  0
   43.7400   35.8870   45.8640 H   0  0  0  0  0  0  0  0  0  0  0  0
   44.1860   36.4910   43.5770 H   0  0  0  0  0  0  0  0  0  0  0  0
   45.9530   35.2970   42.3280 H   0  0  0  0  0  0  0  0  0  0  0  0
   44.3730   28.6940   47.3560 O   0  0  0  0  0  0  0  0  0  0  0  0
   44.3260   26.1240   46.9550 O   0  0  0  0  0  0  0  0  0  0  0  0
   44.9780   27.1800   47.8290 P   0  0  2  0  0  0  0  0  0  0  0  0
   44.5690   26.9430   49.4390 O   0  0  0  0  0  0  0  0  0  0  0  0
   44.2710   26.0190   49.6390 H   0  0  0  0  0  0  0  0  0  0  0  0
   46.6540   27.0690   47.6150 O   0  0  0  0  0  0  0  0  0  0  0  0
   47.1700   25.8640   48.0640 C   0  0  0  0  0  0  0  0  0  0  0  0
   48.6060   26.0060   48.5590 C   0  0  0  0  0  0  0  0  0  0  0  0
   49.1090   25.0300   48.4290 H   0  0  0  0  0  0  0  0  0  0  0  0
  1  2  1  0  0  0  0
  2  3  2  0  0  0  0
  2  7  1  0  0  0  0
  3  4  1  0  0  0  0
  4  8  1  0  0  0  0
  4  5  2  0  0  0  0
  5  9  1  0  0  0  0
  6  5  1  0  0  0  0
  6 10  1  0  0  0  0
  7  6  2  0  0  0  0
 11 13  1  0  0  0  0
 11  3  1  0  0  0  0
 12 11  1  0  0  0  0
 14 20  1  0  0  0  0
 14 19  1  0  0  0  0
 15 14  2  0  0  0  0
 16 17  2  0  0  0  0
 16 15  1  0  0  0  0
 17 18  1  0  0  0  0
 18 11  1  0  0  0  0
 18 19  2  0  0  0  0
 21 15  1  0  0  0  0
 22 16  1  0  0  0  0
 23  7  1  0  0  0  0
 23 25  1  0  0  0  0
 25 24  2  6  0  0  0
 25 26  1  0  0  0  0
 26 27  1  0  0  0  0
 28 25  1  0  0  0  0
 28 29  1  0  0  0  0
 29 30  1  0  0  0  0
 31 30  1  0  0  0  0
M  END
>  <minimizedAffinity>
-4.85475683

>  <minimizedRMSD>
0.217401236

$$$$
