
 OpenBabel03252504343D

 34 35  0  0  0  0  0  0  0  0999 V2000
   36.4010   31.0160   40.8760 C   0  0  0  0  0  3  0  0  0  0  0  0
   36.6940   31.4690   39.6620 C   0  0  0  0  0  3  0  0  0  0  0  0
   37.4580   32.7420   39.3450 C   0  0  0  0  0  0  0  0  0  0  0  0
   37.0640   33.0750   38.3570 H   0  0  0  0  0  0  0  0  0  0  0  0
   37.2890   33.5150   40.1230 H   0  0  0  0  0  0  0  0  0  0  0  0
   38.7900   32.4080   39.2420 O   0  0  0  0  0  0  0  0  0  0  0  0
   40.5240   34.4020   39.5800 O   0  0  0  0  0  0  0  0  0  0  0  0
   39.7330   33.3300   40.2920 P   0  0  1  0  0  0  0  0  0  0  0  0
   38.7320   34.1210   41.4250 O   0  0  0  0  0  0  0  0  0  0  0  0
   37.8980   33.6140   41.5860 H   0  0  0  0  0  0  0  0  0  0  0  0
   40.7730   32.3290   41.1680 O   0  0  0  0  0  0  0  0  0  0  0  0
   40.2570   31.0610   41.3430 C   0  0  0  0  0  0  0  0  0  0  0  0
   39.6120   30.7290   42.6550 C   0  0  0  0  0  0  0  0  0  0  0  0
   40.9890   30.1910   42.3370 C   0  0  0  0  0  0  0  0  0  0  0  0
   39.8240   30.5610   40.4540 H   0  0  0  0  0  0  0  0  0  0  0  0
   39.5920   31.5650   43.3840 H   0  0  0  0  0  0  0  0  0  0  0  0
   38.8240   29.9700   42.7050 H   0  0  0  0  0  0  0  0  0  0  0  0
   41.1180   29.1140   42.1460 H   0  0  0  0  0  0  0  0  0  0  0  0
   41.8450   30.6210   42.8930 H   0  0  0  0  0  0  0  0  0  0  0  0
   35.6900   29.8280   40.9250 O   0  0  0  0  0  0  0  0  0  0  0  0
   36.1300   28.5680   40.6390 C   0  0  0  0  0  0  0  0  0  0  0  0
   35.3740   27.7570   40.5800 H   0  0  0  0  0  0  0  0  0  0  0  0
   36.6760   28.5620   39.6720 H   0  0  0  0  0  0  0  0  0  0  0  0
   38.3040   27.5400   41.0990 C   0  0  0  0  0  0  0  0  0  0  0  0
   37.1070   28.0490   41.6550 C   0  0  0  0  0  0  0  0  0  0  0  0
   36.9810   28.0200   43.0080 C   0  0  0  0  0  0  0  0  0  0  0  0
   37.9880   27.5170   43.7020 N   0  0  0  0  0  0  0  0  0  0  0  0
   39.1080   27.0400   43.1940 C   0  0  0  0  0  0  0  0  0  0  0  0
   39.3140   27.0340   41.8160 N   0  0  0  0  0  0  0  0  0  0  0  0
   38.5090   27.5150   40.0360 H   0  0  0  0  0  0  0  0  0  0  0  0
   36.0410   28.4240   43.3790 H   0  0  0  0  0  0  0  0  0  0  0  0
   40.1690   26.5000   44.0770 C   0  0  0  0  0  2  0  0  0  0  0  0
   41.3350   25.9930   43.2320 C   0  0  0  0  0  2  0  0  0  0  0  0
   41.0810   26.0430   42.1340 H   0  0  0  0  0  0  0  0  0  0  0  0
  1 20  1  0  0  0  0
  2  1  2  0  0  0  0
  3  2  1  0  0  0  0
  3  5  1  0  0  0  0
  4  3  1  0  0  0  0
  6  3  1  0  0  0  0
  6  8  1  0  0  0  0
  8  7  2  6  0  0  0
  8 11  1  0  0  0  0
  8  9  1  0  0  0  0
  9 10  1  0  0  0  0
 11 12  1  0  0  0  0
 12 14  1  0  0  0  0
 12 13  1  0  0  0  0
 13 17  1  0  0  0  0
 13 16  1  0  0  0  0
 14 13  1  0  0  0  0
 14 19  1  0  0  0  0
 15 12  1  0  0  0  0
 18 14  1  0  0  0  0
 21 20  1  0  0  0  0
 21 25  1  0  0  0  0
 22 21  1  0  0  0  0
 23 21  1  0  0  0  0
 24 25  2  0  0  0  0
 24 29  1  0  0  0  0
 25 26  1  0  0  0  0
 26 31  1  0  0  0  0
 26 27  2  0  0  0  0
 28 27  1  0  0  0  0
 28 32  1  0  0  0  0
 29 28  2  0  0  0  0
 30 24  1  0  0  0  0
 33 32  1  0  0  0  0
 34 33  1  0  0  0  0
M  END
>  <minimizedAffinity>
-4.63360596

$$$$

 OpenBabel03252504343D

 34 35  0  0  0  0  0  0  0  0999 V2000
   39.2990   27.2330   42.8130 C   0  0  0  0  0  3  0  0  0  0  0  0
   38.3720   27.9780   43.4040 C   0  0  0  0  0  3  0  0  0  0  0  0
   37.7780   29.2630   42.8560 C   0  0  0  0  0  0  0  0  0  0  0  0
   36.7740   29.3410   43.3330 H   0  0  0  0  0  0  0  0  0  0  0  0
   38.4100   30.1380   43.1110 H   0  0  0  0  0  0  0  0  0  0  0  0
   37.6500   29.1080   41.4930 O   0  0  0  0  0  0  0  0  0  0  0  0
   36.7860   30.3430   39.2970 O   0  0  0  0  0  0  0  0  0  0  0  0
   37.0450   30.5090   40.7760 P   0  0  1  0  0  0  0  0  0  0  0  0
   35.5580   30.9340   41.4960 O   0  0  0  0  0  0  0  0  0  0  0  0
   35.5070   30.6170   42.4320 H   0  0  0  0  0  0  0  0  0  0  0  0
   38.1040   31.7980   41.0360 O   0  0  0  0  0  0  0  0  0  0  0  0
   38.3630   32.5060   39.8800 C   0  0  0  0  0  0  0  0  0  0  0  0
   39.0420   33.8370   39.9950 C   0  0  0  0  0  0  0  0  0  0  0  0
   37.5620   33.7730   39.6980 C   0  0  0  0  0  0  0  0  0  0  0  0
   38.6000   31.9220   38.9680 H   0  0  0  0  0  0  0  0  0  0  0  0
   39.3000   34.1340   41.0320 H   0  0  0  0  0  0  0  0  0  0  0  0
   39.6590   34.2130   39.1720 H   0  0  0  0  0  0  0  0  0  0  0  0
   37.1960   34.0640   38.7010 H   0  0  0  0  0  0  0  0  0  0  0  0
   36.8670   34.0840   40.5030 H   0  0  0  0  0  0  0  0  0  0  0  0
   39.6960   26.0990   43.5020 O   0  0  0  0  0  0  0  0  0  0  0  0
   39.6900   24.8030   43.0720 C   0  0  0  0  0  0  0  0  0  0  0  0
   40.6140   24.4110   42.5970 H   0  0  0  0  0  0  0  0  0  0  0  0
   39.4540   24.1190   43.9150 H   0  0  0  0  0  0  0  0  0  0  0  0
   39.1420   24.3640   40.7270 C   0  0  0  0  0  0  0  0  0  0  0  0
   38.6360   24.5410   42.0350 C   0  0  0  0  0  0  0  0  0  0  0  0
   37.2900   24.4500   42.2050 C   0  0  0  0  0  0  0  0  0  0  0  0
   36.5560   24.2030   41.1330 N   0  0  0  0  0  0  0  0  0  0  0  0
   37.0180   24.0360   39.9090 C   0  0  0  0  0  0  0  0  0  0  0  0
   38.3860   24.1140   39.6510 N   0  0  0  0  0  0  0  0  0  0  0  0
   40.1950   24.4150   40.4780 H   0  0  0  0  0  0  0  0  0  0  0  0
   36.9570   24.5940   43.2320 H   0  0  0  0  0  0  0  0  0  0  0  0
   36.0940   23.7620   38.7830 C   0  0  0  0  0  2  0  0  0  0  0  0
   34.8630   23.0180   39.2950 C   0  0  0  0  0  2  0  0  0  0  0  0
   34.9850   22.7500   40.3840 H   0  0  0  0  0  0  0  0  0  0  0  0
  1  2  2  0  0  0  0
  1 20  1  0  0  0  0
  3  5  1  0  0  0  0
  3  4  1  0  0  0  0
  3  2  1  0  0  0  0
  6  3  1  0  0  0  0
  8  7  2  6  0  0  0
  8 11  1  0  0  0  0
  8  6  1  0  0  0  0
  8  9  1  0  0  0  0
  9 10  1  0  0  0  0
 12 13  1  0  0  0  0
 12 11  1  0  0  0  0
 13 16  1  0  0  0  0
 14 12  1  0  0  0  0
 14 13  1  0  0  0  0
 14 19  1  0  0  0  0
 15 12  1  0  0  0  0
 17 13  1  0  0  0  0
 18 14  1  0  0  0  0
 21 20  1  0  0  0  0
 21 23  1  0  0  0  0
 22 21  1  0  0  0  0
 24 25  1  0  0  0  0
 25 26  2  0  0  0  0
 25 21  1  0  0  0  0
 26 31  1  0  0  0  0
 27 26  1  0  0  0  0
 28 27  2  0  0  0  0
 29 28  1  0  0  0  0
 29 24  2  0  0  0  0
 30 24  1  0  0  0  0
 32 33  1  0  0  0  0
 32 28  1  0  0  0  0
 33 34  1  0  0  0  0
M  END
>  <minimizedAffinity>
-4.63043261

$$$$

 OpenBabel03252504343D

 34 35  0  0  0  0  0  0  0  0999 V2000
   38.8570   27.3380   43.4810 C   0  0  0  0  0  3  0  0  0  0  0  0
   39.5750   28.3270   42.9590 C   0  0  0  0  0  3  0  0  0  0  0  0
   39.0310   29.6500   42.4500 C   0  0  0  0  0  0  0  0  0  0  0  0
   39.5640   30.4270   43.0460 H   0  0  0  0  0  0  0  0  0  0  0  0
   39.2280   29.7740   41.3650 H   0  0  0  0  0  0  0  0  0  0  0  0
   37.6820   29.6750   42.7280 O   0  0  0  0  0  0  0  0  0  0  0  0
   36.0070   28.4530   41.0570 O   0  0  0  0  0  0  0  0  0  0  0  0
   36.7700   29.7320   41.3120 P   0  0  1  0  0  0  0  0  0  0  0  0
   35.6170   30.9850   41.4150 O   0  0  0  0  0  0  0  0  0  0  0  0
   35.9270   31.7130   42.0100 H   0  0  0  0  0  0  0  0  0  0  0  0
   37.7640   30.0840   39.9940 O   0  0  0  0  0  0  0  0  0  0  0  0
   37.1070   30.8100   39.0210 C   0  0  0  0  0  0  0  0  0  0  0  0
   36.3730   30.0640   37.9480 C   0  0  0  0  0  0  0  0  0  0  0  0
   37.6960   30.7230   37.6330 C   0  0  0  0  0  0  0  0  0  0  0  0
   36.6620   31.7790   39.3230 H   0  0  0  0  0  0  0  0  0  0  0  0
   36.4110   28.9590   38.0460 H   0  0  0  0  0  0  0  0  0  0  0  0
   35.5060   30.5170   37.4560 H   0  0  0  0  0  0  0  0  0  0  0  0
   37.7170   31.6100   36.9800 H   0  0  0  0  0  0  0  0  0  0  0  0
   38.5690   30.0620   37.4650 H   0  0  0  0  0  0  0  0  0  0  0  0
   39.5690   26.2170   43.8770 O   0  0  0  0  0  0  0  0  0  0  0  0
   39.9320   25.1370   43.1240 C   0  0  0  0  0  0  0  0  0  0  0  0
   40.8610   25.2160   42.5200 H   0  0  0  0  0  0  0  0  0  0  0  0
   40.0500   24.2410   43.7690 H   0  0  0  0  0  0  0  0  0  0  0  0
   39.2920   24.9840   40.7660 C   0  0  0  0  0  0  0  0  0  0  0  0
   38.8930   24.7650   42.1050 C   0  0  0  0  0  0  0  0  0  0  0  0
   37.6530   24.2500   42.3150 C   0  0  0  0  0  0  0  0  0  0  0  0
   36.9130   23.9930   41.2490 N   0  0  0  0  0  0  0  0  0  0  0  0
   37.2750   24.1930   39.9970 C   0  0  0  0  0  0  0  0  0  0  0  0
   38.5310   24.7180   39.6980 N   0  0  0  0  0  0  0  0  0  0  0  0
   40.2570   25.3880   40.4850 H   0  0  0  0  0  0  0  0  0  0  0  0
   37.4000   24.1030   43.3630 H   0  0  0  0  0  0  0  0  0  0  0  0
   36.3550   23.8650   38.8820 C   0  0  0  0  0  2  0  0  0  0  0  0
   35.1040   23.1820   39.4300 C   0  0  0  0  0  2  0  0  0  0  0  0
   35.2110   22.9840   40.5360 H   0  0  0  0  0  0  0  0  0  0  0  0
  1 20  1  0  0  0  0
  2  1  2  0  0  0  0
  3  6  1  0  0  0  0
  3  2  1  0  0  0  0
  3  4  1  0  0  0  0
  5  3  1  0  0  0  0
  8  7  2  6  0  0  0
  8  9  1  0  0  0  0
  8  6  1  0  0  0  0
  9 10  1  0  0  0  0
 11  8  1  0  0  0  0
 12 15  1  0  0  0  0
 12 11  1  0  0  0  0
 13 16  1  0  0  0  0
 13 12  1  0  0  0  0
 14 13  1  0  0  0  0
 14 12  1  0  0  0  0
 17 13  1  0  0  0  0
 18 14  1  0  0  0  0
 19 14  1  0  0  0  0
 21 23  1  0  0  0  0
 21 20  1  0  0  0  0
 22 21  1  0  0  0  0
 24 25  1  0  0  0  0
 25 26  2  0  0  0  0
 25 21  1  0  0  0  0
 26 31  1  0  0  0  0
 27 26  1  0  0  0  0
 28 27  2  0  0  0  0
 29 28  1  0  0  0  0
 29 24  2  0  0  0  0
 30 24  1  0  0  0  0
 32 33  1  0  0  0  0
 32 28  1  0  0  0  0
 33 34  1  0  0  0  0
M  END
>  <minimizedAffinity>
-4.52881193

$$$$

 OpenBabel03252504343D

 34 35  0  0  0  0  0  0  0  0999 V2000
   37.2230   32.4300   40.1420 C   0  0  0  0  0  3  0  0  0  0  0  0
   37.5640   31.2820   40.7170 C   0  0  0  0  0  3  0  0  0  0  0  0
   36.6120   30.2890   41.3590 C   0  0  0  0  0  0  0  0  0  0  0  0
   36.6590   30.5120   42.4500 H   0  0  0  0  0  0  0  0  0  0  0  0
   35.5810   30.4130   40.9700 H   0  0  0  0  0  0  0  0  0  0  0  0
   37.1030   29.0270   41.1070 O   0  0  0  0  0  0  0  0  0  0  0  0
   39.1100   28.1620   42.6300 O   0  0  0  0  0  0  0  0  0  0  0  0
   37.6060   28.2740   42.5290 P   0  0  1  0  0  0  0  0  0  0  0  0
   37.0840   29.1780   43.8790 O   0  0  0  0  0  0  0  0  0  0  0  0
   36.2590   29.6840   43.6760 H   0  0  0  0  0  0  0  0  0  0  0  0
   36.9020   26.7450   42.6570 O   0  0  0  0  0  0  0  0  0  0  0  0
   37.4220   25.8510   41.7430 C   0  0  0  0  0  0  0  0  0  0  0  0
   36.8790   24.4540   41.7250 C   0  0  0  0  0  0  0  0  0  0  0  0
   38.2390   24.7230   42.3260 C   0  0  0  0  0  0  0  0  0  0  0  0
   37.7420   26.2550   40.7620 H   0  0  0  0  0  0  0  0  0  0  0  0
   36.0700   24.2630   42.4600 H   0  0  0  0  0  0  0  0  0  0  0  0
   36.8940   23.8680   40.7990 H   0  0  0  0  0  0  0  0  0  0  0  0
   39.1410   24.3620   41.8070 H   0  0  0  0  0  0  0  0  0  0  0  0
   38.3340   24.6470   43.4270 H   0  0  0  0  0  0  0  0  0  0  0  0
   38.2650   33.1810   39.6220 O   0  0  0  0  0  0  0  0  0  0  0  0
   38.9670   34.1850   40.2260 C   0  0  0  0  0  0  0  0  0  0  0  0
   38.7160   35.2300   39.9500 H   0  0  0  0  0  0  0  0  0  0  0  0
   38.8640   34.1160   41.3300 H   0  0  0  0  0  0  0  0  0  0  0  0
   40.7850   33.2910   38.8510 C   0  0  0  0  0  0  0  0  0  0  0  0
   40.4420   34.1050   39.9550 C   0  0  0  0  0  0  0  0  0  0  0  0
   41.4570   34.7130   40.6250 C   0  0  0  0  0  0  0  0  0  0  0  0
   42.6880   34.4970   40.1920 N   0  0  0  0  0  0  0  0  0  0  0  0
   43.0180   33.7400   39.1650 C   0  0  0  0  0  0  0  0  0  0  0  0
   42.0360   33.0820   38.4260 N   0  0  0  0  0  0  0  0  0  0  0  0
   40.0580   32.7600   38.2470 H   0  0  0  0  0  0  0  0  0  0  0  0
   41.1340   35.3270   41.4640 H   0  0  0  0  0  0  0  0  0  0  0  0
   44.4380   33.5730   38.7740 C   0  0  0  0  0  2  0  0  0  0  0  0
   45.3410   34.2070   39.8290 C   0  0  0  0  0  2  0  0  0  0  0  0
   44.7270   34.7510   40.6030 H   0  0  0  0  0  0  0  0  0  0  0  0
  1  2  2  0  0  0  0
  2  3  1  0  0  0  0
  3  4  1  0  0  0  0
  5  3  1  0  0  0  0
  6  3  1  0  0  0  0
  6  8  1  0  0  0  0
  8  7  2  1  0  0  0
  8 11  1  0  0  0  0
  8  9  1  0  0  0  0
 10  9  1  0  0  0  0
 12 14  1  0  0  0  0
 12 11  1  0  0  0  0
 13 12  1  0  0  0  0
 13 14  1  0  0  0  0
 13 16  1  0  0  0  0
 14 19  1  0  0  0  0
 15 12  1  0  0  0  0
 17 13  1  0  0  0  0
 18 14  1  0  0  0  0
 20  1  1  0  0  0  0
 20 21  1  0  0  0  0
 21 23  1  0  0  0  0
 22 21  1  0  0  0  0
 24 25  1  0  0  0  0
 25 21  1  0  0  0  0
 25 26  2  0  0  0  0
 26 31  1  0  0  0  0
 27 26  1  0  0  0  0
 28 27  2  0  0  0  0
 29 24  2  0  0  0  0
 29 28  1  0  0  0  0
 30 24  1  0  0  0  0
 32 28  1  0  0  0  0
 32 33  1  0  0  0  0
 33 34  1  0  0  0  0
M  END
>  <minimizedAffinity>
-4.45770741

$$$$

 OpenBabel03252504343D

 34 35  0  0  0  0  0  0  0  0999 V2000
   40.5960   30.3670   40.2300 C   0  0  0  0  0  3  0  0  0  0  0  0
   40.2510   31.2680   39.3160 C   0  0  0  0  0  3  0  0  0  0  0  0
   40.8580   31.4120   37.9330 C   0  0  0  0  0  0  0  0  0  0  0  0
   41.9100   31.0610   38.0430 H   0  0  0  0  0  0  0  0  0  0  0  0
   40.3090   30.7990   37.1890 H   0  0  0  0  0  0  0  0  0  0  0  0
   40.8310   32.7500   37.6090 O   0  0  0  0  0  0  0  0  0  0  0  0
   43.4430   32.4620   38.0450 O   0  0  0  0  0  0  0  0  0  0  0  0
   42.3310   33.4710   37.8760 P   0  0  1  0  0  0  0  0  0  0  0  0
   42.7490   34.4510   36.5430 O   0  0  0  0  0  0  0  0  0  0  0  0
   41.9440   34.7930   36.0800 H   0  0  0  0  0  0  0  0  0  0  0  0
   42.2570   34.4820   39.2260 O   0  0  0  0  0  0  0  0  0  0  0  0
   43.1480   34.1060   40.2120 C   0  0  0  0  0  0  0  0  0  0  0  0
   42.6250   33.3420   41.3910 C   0  0  0  0  0  0  0  0  0  0  0  0
   42.9820   34.8030   41.5410 C   0  0  0  0  0  0  0  0  0  0  0  0
   44.1800   33.8560   39.8960 H   0  0  0  0  0  0  0  0  0  0  0  0
   41.5370   33.1260   41.3550 H   0  0  0  0  0  0  0  0  0  0  0  0
   43.2790   32.6520   41.9340 H   0  0  0  0  0  0  0  0  0  0  0  0
   43.8640   35.0870   42.1360 H   0  0  0  0  0  0  0  0  0  0  0  0
   42.1470   35.5210   41.6660 H   0  0  0  0  0  0  0  0  0  0  0  0
   39.9050   30.4250   41.4300 O   0  0  0  0  0  0  0  0  0  0  0  0
   38.5670   30.2580   41.6430 C   0  0  0  0  0  0  0  0  0  0  0  0
   38.1040   30.8080   42.4900 H   0  0  0  0  0  0  0  0  0  0  0  0
   37.9940   30.5380   40.7330 H   0  0  0  0  0  0  0  0  0  0  0  0
   37.4390   28.2150   40.9010 C   0  0  0  0  0  0  0  0  0  0  0  0
   38.1990   28.8290   41.9240 C   0  0  0  0  0  0  0  0  0  0  0  0
   38.5070   28.0770   43.0140 C   0  0  0  0  0  0  0  0  0  0  0  0
   38.0740   26.8270   43.0340 N   0  0  0  0  0  0  0  0  0  0  0  0
   37.3660   26.2460   42.0850 C   0  0  0  0  0  0  0  0  0  0  0  0
   37.0080   26.9480   40.9360 N   0  0  0  0  0  0  0  0  0  0  0  0
   37.1380   28.7200   39.9910 H   0  0  0  0  0  0  0  0  0  0  0  0
   39.0920   28.6000   43.7680 H   0  0  0  0  0  0  0  0  0  0  0  0
   36.9360   24.8330   42.2210 C   0  0  0  0  0  2  0  0  0  0  0  0
   37.7980   23.9440   41.3280 C   0  0  0  0  0  2  0  0  0  0  0  0
   38.4870   24.5690   40.6900 H   0  0  0  0  0  0  0  0  0  0  0  0
  1 20  1  0  0  0  0
  2  1  2  0  0  0  0
  3  4  1  0  0  0  0
  3  2  1  0  0  0  0
  5  3  1  0  0  0  0
  6  8  1  0  0  0  0
  6  3  1  0  0  0  0
  8  7  2  1  0  0  0
  8 11  1  0  0  0  0
  9  8  1  0  0  0  0
 10  9  1  0  0  0  0
 11 12  1  0  0  0  0
 12 13  1  0  0  0  0
 12 14  1  0  0  0  0
 13 14  1  0  0  0  0
 13 17  1  0  0  0  0
 14 19  1  0  0  0  0
 14 18  1  0  0  0  0
 15 12  1  0  0  0  0
 16 13  1  0  0  0  0
 20 21  1  0  0  0  0
 21 25  1  0  0  0  0
 21 22  1  0  0  0  0
 23 21  1  0  0  0  0
 24 29  2  0  0  0  0
 24 25  1  0  0  0  0
 25 26  2  0  0  0  0
 26 27  1  0  0  0  0
 26 31  1  0  0  0  0
 28 32  1  0  0  0  0
 28 27  2  0  0  0  0
 29 28  1  0  0  0  0
 30 24  1  0  0  0  0
 33 32  1  0  0  0  0
 34 33  1  0  0  0  0
M  END
>  <minimizedAffinity>
-4.38550711

$$$$

 OpenBabel03252504343D

 34 35  0  0  0  0  0  0  0  0999 V2000
   36.1360   29.0660   36.6600 C   0  0  0  0  0  3  0  0  0  0  0  0
   35.9150   29.6720   37.8210 C   0  0  0  0  0  3  0  0  0  0  0  0
   36.8850   30.5820   38.5520 C   0  0  0  0  0  0  0  0  0  0  0  0
   37.5680   30.9680   37.7600 H   0  0  0  0  0  0  0  0  0  0  0  0
   36.3520   31.4130   39.0580 H   0  0  0  0  0  0  0  0  0  0  0  0
   37.5840   29.8040   39.4490 O   0  0  0  0  0  0  0  0  0  0  0  0
   38.1770   30.5140   41.9460 O   0  0  0  0  0  0  0  0  0  0  0  0
   37.0600   30.0770   41.0280 P   0  0  1  0  0  0  0  0  0  0  0  0
   35.8890   31.3180   41.0440 O   0  0  0  0  0  0  0  0  0  0  0  0
   35.3970   31.3610   40.1860 H   0  0  0  0  0  0  0  0  0  0  0  0
   36.3160   28.6910   41.6410 O   0  0  0  0  0  0  0  0  0  0  0  0
   37.1180   28.0220   42.5440 C   0  0  0  0  0  0  0  0  0  0  0  0
   37.0800   26.5240   42.5580 C   0  0  0  0  0  0  0  0  0  0  0  0
   36.3890   27.3020   43.6540 C   0  0  0  0  0  0  0  0  0  0  0  0
   38.0950   28.4800   42.7930 H   0  0  0  0  0  0  0  0  0  0  0  0
   36.4020   26.0720   41.8040 H   0  0  0  0  0  0  0  0  0  0  0  0
   37.9560   25.9530   42.8830 H   0  0  0  0  0  0  0  0  0  0  0  0
   36.8040   27.2850   44.6740 H   0  0  0  0  0  0  0  0  0  0  0  0
   35.2810   27.3070   43.6550 H   0  0  0  0  0  0  0  0  0  0  0  0
   35.1040   28.2760   36.1810 O   0  0  0  0  0  0  0  0  0  0  0  0
   33.8900   28.0320   36.7560 C   0  0  0  0  0  0  0  0  0  0  0  0
   33.4020   27.0580   36.5430 H   0  0  0  0  0  0  0  0  0  0  0  0
   33.9650   28.1120   37.8620 H   0  0  0  0  0  0  0  0  0  0  0  0
   32.9360   29.4530   35.0050 C   0  0  0  0  0  0  0  0  0  0  0  0
   32.8450   29.0330   36.3520 C   0  0  0  0  0  0  0  0  0  0  0  0
   31.8460   29.5610   37.1080 C   0  0  0  0  0  0  0  0  0  0  0  0
   31.0350   30.4280   36.5250 N   0  0  0  0  0  0  0  0  0  0  0  0
   31.1120   30.8260   35.2710 C   0  0  0  0  0  0  0  0  0  0  0  0
   32.1070   30.3320   34.4300 N   0  0  0  0  0  0  0  0  0  0  0  0
   33.6910   29.0970   34.3150 H   0  0  0  0  0  0  0  0  0  0  0  0
   31.8240   29.2010   38.1350 H   0  0  0  0  0  0  0  0  0  0  0  0
   30.1410   31.8070   34.7280 C   0  0  0  0  0  2  0  0  0  0  0  0
   29.5090   32.5950   35.8730 C   0  0  0  0  0  2  0  0  0  0  0  0
   29.8380   32.1800   36.8700 H   0  0  0  0  0  0  0  0  0  0  0  0
  1  2  2  0  0  0  0
  2  3  1  0  0  0  0
  3  5  1  0  0  0  0
  3  6  1  0  0  0  0
  4  3  1  0  0  0  0
  6  8  1  0  0  0  0
  8  9  1  0  0  0  0
  8 11  1  0  0  0  0
  8  7  2  1  0  0  0
 10  9  1  0  0  0  0
 11 12  1  0  0  0  0
 12 13  1  0  0  0  0
 12 15  1  0  0  0  0
 12 14  1  0  0  0  0
 13 17  1  0  0  0  0
 13 14  1  0  0  0  0
 14 19  1  0  0  0  0
 14 18  1  0  0  0  0
 16 13  1  0  0  0  0
 20  1  1  0  0  0  0
 20 21  1  0  0  0  0
 21 23  1  0  0  0  0
 22 21  1  0  0  0  0
 24 25  1  0  0  0  0
 25 21  1  0  0  0  0
 25 26  2  0  0  0  0
 26 31  1  0  0  0  0
 27 26  1  0  0  0  0
 28 27  2  0  0  0  0
 29 24  2  0  0  0  0
 29 28  1  0  0  0  0
 30 24  1  0  0  0  0
 32 28  1  0  0  0  0
 32 33  1  0  0  0  0
 33 34  1  0  0  0  0
M  END
>  <minimizedAffinity>
-4.38358545

$$$$

 OpenBabel03252504343D

 34 35  0  0  0  0  0  0  0  0999 V2000
   38.4950   30.4670   41.6550 C   0  0  0  0  0  3  0  0  0  0  0  0
   39.6180   30.8290   41.0430 C   0  0  0  0  0  3  0  0  0  0  0  0
   39.7140   31.5410   39.7060 C   0  0  0  0  0  0  0  0  0  0  0  0
   39.1010   32.4640   39.8280 H   0  0  0  0  0  0  0  0  0  0  0  0
   40.7660   31.7910   39.4600 H   0  0  0  0  0  0  0  0  0  0  0  0
   39.1520   30.7140   38.7580 O   0  0  0  0  0  0  0  0  0  0  0  0
   37.3220   32.6430   38.6050 O   0  0  0  0  0  0  0  0  0  0  0  0
   38.0050   31.5360   37.8360 P   0  0  1  0  0  0  0  0  0  0  0  0
   38.7560   32.2600   36.4860 O   0  0  0  0  0  0  0  0  0  0  0  0
   39.5630   31.7580   36.2100 H   0  0  0  0  0  0  0  0  0  0  0  0
   36.8550   30.4530   37.2390 O   0  0  0  0  0  0  0  0  0  0  0  0
   36.6830   29.3630   38.0670 C   0  0  0  0  0  0  0  0  0  0  0  0
   35.3380   28.7020   38.1050 C   0  0  0  0  0  0  0  0  0  0  0  0
   35.7750   29.5820   39.2540 C   0  0  0  0  0  0  0  0  0  0  0  0
   37.5530   28.6910   38.2120 H   0  0  0  0  0  0  0  0  0  0  0  0
   34.5830   29.1530   37.4290 H   0  0  0  0  0  0  0  0  0  0  0  0
   35.2540   27.6380   38.3500 H   0  0  0  0  0  0  0  0  0  0  0  0
   36.0090   29.1250   40.2280 H   0  0  0  0  0  0  0  0  0  0  0  0
   35.2710   30.5620   39.3650 H   0  0  0  0  0  0  0  0  0  0  0  0
   38.6490   29.8230   42.8720 O   0  0  0  0  0  0  0  0  0  0  0  0
   37.8170   28.9130   43.4580 C   0  0  0  0  0  0  0  0  0  0  0  0
   37.8600   28.8070   44.5620 H   0  0  0  0  0  0  0  0  0  0  0  0
   36.7600   29.1380   43.2030 H   0  0  0  0  0  0  0  0  0  0  0  0
   37.0600   27.0250   42.0940 C   0  0  0  0  0  0  0  0  0  0  0  0
   38.0560   27.5120   42.9720 C   0  0  0  0  0  0  0  0  0  0  0  0
   39.0930   26.6830   43.2660 C   0  0  0  0  0  0  0  0  0  0  0  0
   39.0910   25.4840   42.7070 N   0  0  0  0  0  0  0  0  0  0  0  0
   38.1680   25.0210   41.8870 C   0  0  0  0  0  0  0  0  0  0  0  0
   37.0730   25.8090   41.5370 N   0  0  0  0  0  0  0  0  0  0  0  0
   36.1930   27.6000   41.7930 H   0  0  0  0  0  0  0  0  0  0  0  0
   39.8290   27.1090   43.9460 H   0  0  0  0  0  0  0  0  0  0  0  0
   38.2750   23.6550   41.3220 C   0  0  0  0  0  2  0  0  0  0  0  0
   37.0850   23.3820   40.4050 C   0  0  0  0  0  2  0  0  0  0  0  0
   36.3430   24.2310   40.4530 H   0  0  0  0  0  0  0  0  0  0  0  0
  1 20  1  0  0  0  0
  2  1  2  0  0  0  0
  3  4  1  0  0  0  0
  3  2  1  0  0  0  0
  5  3  1  0  0  0  0
  6  3  1  0  0  0  0
  8  7  2  1  0  0  0
  8  6  1  0  0  0  0
  9  8  1  0  0  0  0
 10  9  1  0  0  0  0
 11  8  1  0  0  0  0
 11 12  1  0  0  0  0
 12 13  1  0  0  0  0
 12 15  1  0  0  0  0
 12 14  1  0  0  0  0
 13 17  1  0  0  0  0
 13 14  1  0  0  0  0
 14 19  1  0  0  0  0
 14 18  1  0  0  0  0
 16 13  1  0  0  0  0
 20 21  1  0  0  0  0
 21 22  1  0  0  0  0
 23 21  1  0  0  0  0
 24 25  1  0  0  0  0
 25 26  2  0  0  0  0
 25 21  1  0  0  0  0
 26 31  1  0  0  0  0
 27 26  1  0  0  0  0
 28 27  2  0  0  0  0
 29 28  1  0  0  0  0
 29 24  2  0  0  0  0
 30 24  1  0  0  0  0
 32 28  1  0  0  0  0
 33 34  1  0  0  0  0
 33 32  1  0  0  0  0
M  END
>  <minimizedAffinity>
-4.3557992

$$$$

 OpenBabel03252504343D

 34 35  0  0  0  0  0  0  0  0999 V2000
   39.8900   31.8700   41.2690 C   0  0  0  0  0  3  0  0  0  0  0  0
   39.9460   31.0590   42.3200 C   0  0  0  0  0  3  0  0  0  0  0  0
   40.9670   29.9580   42.5430 C   0  0  0  0  0  0  0  0  0  0  0  0
   41.9150   30.3540   42.1100 H   0  0  0  0  0  0  0  0  0  0  0  0
   41.0850   29.7330   43.6230 H   0  0  0  0  0  0  0  0  0  0  0  0
   40.5420   28.8540   41.8370 O   0  0  0  0  0  0  0  0  0  0  0  0
   40.6810   26.2050   42.0760 O   0  0  0  0  0  0  0  0  0  0  0  0
   40.4550   27.4940   42.8300 P   0  0  1  0  0  0  0  0  0  0  0  0
   41.6560   27.5800   44.0380 O   0  0  0  0  0  0  0  0  0  0  0  0
   41.8860   28.5190   44.2520 H   0  0  0  0  0  0  0  0  0  0  0  0
   38.9630   27.4470   43.6200 O   0  0  0  0  0  0  0  0  0  0  0  0
   37.9260   27.8580   42.8070 C   0  0  0  0  0  0  0  0  0  0  0  0
   36.5220   27.5440   43.2280 C   0  0  0  0  0  0  0  0  0  0  0  0
   37.1660   26.7540   42.1110 C   0  0  0  0  0  0  0  0  0  0  0  0
   38.0610   28.8080   42.2520 H   0  0  0  0  0  0  0  0  0  0  0  0
   36.4400   27.0080   44.1950 H   0  0  0  0  0  0  0  0  0  0  0  0
   35.6960   28.1910   42.9140 H   0  0  0  0  0  0  0  0  0  0  0  0
   36.8090   26.8870   41.0780 H   0  0  0  0  0  0  0  0  0  0  0  0
   37.4400   25.7020   42.3240 H   0  0  0  0  0  0  0  0  0  0  0  0
   38.8660   32.8030   41.2770 O   0  0  0  0  0  0  0  0  0  0  0  0
   37.9050   33.0110   40.3300 C   0  0  0  0  0  0  0  0  0  0  0  0
   37.1310   33.7800   40.5370 H   0  0  0  0  0  0  0  0  0  0  0  0
   38.3730   33.2860   39.3610 H   0  0  0  0  0  0  0  0  0  0  0  0
   37.0990   31.3820   38.6890 C   0  0  0  0  0  0  0  0  0  0  0  0
   37.0940   31.7790   40.0460 C   0  0  0  0  0  0  0  0  0  0  0  0
   36.3800   31.0190   40.9200 C   0  0  0  0  0  0  0  0  0  0  0  0
   35.7460   29.9660   40.4330 N   0  0  0  0  0  0  0  0  0  0  0  0
   35.7440   29.5870   39.1700 C   0  0  0  0  0  0  0  0  0  0  0  0
   36.4510   30.3130   38.2120 N   0  0  0  0  0  0  0  0  0  0  0  0
   37.6320   31.9130   37.9100 H   0  0  0  0  0  0  0  0  0  0  0  0
   36.4130   31.3710   41.9490 H   0  0  0  0  0  0  0  0  0  0  0  0
   34.9920   28.3840   38.7420 C   0  0  0  0  0  2  0  0  0  0  0  0
   33.7500   28.8030   37.9590 C   0  0  0  0  0  2  0  0  0  0  0  0
   33.6280   29.9250   37.9780 H   0  0  0  0  0  0  0  0  0  0  0  0
  1 20  1  0  0  0  0
  1  2  2  0  0  0  0
  2  3  1  0  0  0  0
  3  5  1  0  0  0  0
  4  3  1  0  0  0  0
  6  3  1  0  0  0  0
  6  8  1  0  0  0  0
  8  7  2  6  0  0  0
  8 11  1  0  0  0  0
  8  9  1  0  0  0  0
  9 10  1  0  0  0  0
 12 13  1  0  0  0  0
 12 11  1  0  0  0  0
 13 16  1  0  0  0  0
 14 19  1  0  0  0  0
 14 12  1  0  0  0  0
 14 13  1  0  0  0  0
 15 12  1  0  0  0  0
 17 13  1  0  0  0  0
 18 14  1  0  0  0  0
 21 22  1  0  0  0  0
 21 20  1  0  0  0  0
 23 21  1  0  0  0  0
 24 25  1  0  0  0  0
 25 21  1  0  0  0  0
 25 26  2  0  0  0  0
 26 31  1  0  0  0  0
 27 26  1  0  0  0  0
 28 27  2  0  0  0  0
 29 24  2  0  0  0  0
 29 28  1  0  0  0  0
 30 24  1  0  0  0  0
 32 28  1  0  0  0  0
 33 34  1  0  0  0  0
 33 32  1  0  0  0  0
M  END
>  <minimizedAffinity>
-4.34671593

$$$$

 OpenBabel03252504343D

 34 35  0  0  0  0  0  0  0  0999 V2000
   37.2890   29.7420   38.2900 C   0  0  0  0  0  3  0  0  0  0  0  0
   36.7470   30.9000   38.6520 C   0  0  0  0  0  3  0  0  0  0  0  0
   37.4120   32.2620   38.5650 C   0  0  0  0  0  0  0  0  0  0  0  0
   38.4870   32.0430   38.3680 H   0  0  0  0  0  0  0  0  0  0  0  0
   36.9720   32.8710   37.7490 H   0  0  0  0  0  0  0  0  0  0  0  0
   37.2640   32.8710   39.7910 O   0  0  0  0  0  0  0  0  0  0  0  0
   39.8830   33.2900   39.5420 O   0  0  0  0  0  0  0  0  0  0  0  0
   38.7580   33.1130   40.5350 P   0  0  1  0  0  0  0  0  0  0  0  0
   38.7090   34.5270   41.4880 O   0  0  0  0  0  0  0  0  0  0  0  0
   37.7920   34.7130   41.8110 H   0  0  0  0  0  0  0  0  0  0  0  0
   39.1030   31.8290   41.5760 O   0  0  0  0  0  0  0  0  0  0  0  0
   40.2460   31.1480   41.2080 C   0  0  0  0  0  0  0  0  0  0  0  0
   40.1130   29.7310   40.7390 C   0  0  0  0  0  0  0  0  0  0  0  0
   40.6540   30.0170   42.1210 C   0  0  0  0  0  0  0  0  0  0  0  0
   41.0580   31.7370   40.7350 H   0  0  0  0  0  0  0  0  0  0  0  0
   39.0710   29.3500   40.7140 H   0  0  0  0  0  0  0  0  0  0  0  0
   40.8420   29.3110   40.0390 H   0  0  0  0  0  0  0  0  0  0  0  0
   41.7180   29.8300   42.3350 H   0  0  0  0  0  0  0  0  0  0  0  0
   40.0060   29.7690   42.9850 H   0  0  0  0  0  0  0  0  0  0  0  0
   36.4940   28.6200   38.4620 O   0  0  0  0  0  0  0  0  0  0  0  0
   35.8450   28.2100   39.5910 C   0  0  0  0  0  0  0  0  0  0  0  0
   35.1980   28.9470   40.1130 H   0  0  0  0  0  0  0  0  0  0  0  0
   35.2050   27.3300   39.3690 H   0  0  0  0  0  0  0  0  0  0  0  0
   36.7300   28.5370   41.8510 C   0  0  0  0  0  0  0  0  0  0  0  0
   36.7870   27.7590   40.6710 C   0  0  0  0  0  0  0  0  0  0  0  0
   37.6580   26.7160   40.6480 C   0  0  0  0  0  0  0  0  0  0  0  0
   38.3870   26.5080   41.7330 N   0  0  0  0  0  0  0  0  0  0  0  0
   38.3400   27.2260   42.8370 C   0  0  0  0  0  0  0  0  0  0  0  0
   37.4740   28.3130   42.9400 N   0  0  0  0  0  0  0  0  0  0  0  0
   36.0730   29.3880   41.9780 H   0  0  0  0  0  0  0  0  0  0  0  0
   37.6590   26.1540   39.7160 H   0  0  0  0  0  0  0  0  0  0  0  0
   39.2090   26.8940   43.9920 C   0  0  0  0  0  2  0  0  0  0  0  0
   40.5560   26.3760   43.4920 C   0  0  0  0  0  2  0  0  0  0  0  0
   40.5450   26.2600   42.3700 H   0  0  0  0  0  0  0  0  0  0  0  0
  1 20  1  0  0  0  0
  1  2  2  0  0  0  0
  3  2  1  0  0  0  0
  3  6  1  0  0  0  0
  4  3  1  0  0  0  0
  5  3  1  0  0  0  0
  6  8  1  0  0  0  0
  8  7  2  6  0  0  0
  8  9  1  0  0  0  0
  8 11  1  0  0  0  0
  9 10  1  0  0  0  0
 12 11  1  0  0  0  0
 12 14  1  0  0  0  0
 13 12  1  0  0  0  0
 13 14  1  0  0  0  0
 14 18  1  0  0  0  0
 14 19  1  0  0  0  0
 15 12  1  0  0  0  0
 16 13  1  0  0  0  0
 17 13  1  0  0  0  0
 20 21  1  0  0  0  0
 21 22  1  0  0  0  0
 21 25  1  0  0  0  0
 23 21  1  0  0  0  0
 24 30  1  0  0  0  0
 24 29  1  0  0  0  0
 25 24  2  0  0  0  0
 26 25  1  0  0  0  0
 26 27  2  0  0  0  0
 27 28  1  0  0  0  0
 28 29  2  0  0  0  0
 28 32  1  0  0  0  0
 31 26  1  0  0  0  0
 33 32  1  0  0  0  0
 34 33  1  0  0  0  0
M  END
>  <minimizedAffinity>
-4.29288912

$$$$
