
 OpenBabel03252504323D

 34 35  0  0  0  0  0  0  0  0999 V2000
   43.8420   35.1740   40.9980 C   0  0  0  0  0  3  0  0  0  0  0  0
   43.9180   35.6030   42.2540 C   0  0  0  0  0  3  0  0  0  0  0  0
   45.1640   35.6100   43.1200 C   0  0  0  0  0  0  0  0  0  0  0  0
   45.9750   35.2260   42.4590 H   0  0  0  0  0  0  0  0  0  0  0  0
   45.3940   36.6330   43.4820 H   0  0  0  0  0  0  0  0  0  0  0  0
   44.9450   34.7380   44.1640 O   0  0  0  0  0  0  0  0  0  0  0  0
   45.7060   32.5830   42.7980 O   0  0  0  0  0  0  0  0  0  0  0  0
   45.9490   33.3890   44.0510 P   0  0  1  0  0  0  0  0  0  0  0  0
   47.5820   33.8840   44.0150 O   0  0  0  0  0  0  0  0  0  0  0  0
   47.7100   34.7430   44.4890 H   0  0  0  0  0  0  0  0  0  0  0  0
   45.7620   32.4100   45.4140 O   0  0  0  0  0  0  0  0  0  0  0  0
   46.0700   33.0750   46.5840 C   0  0  0  0  0  0  0  0  0  0  0  0
   46.9780   32.4030   47.5680 C   0  0  0  0  0  0  0  0  0  0  0  0
   45.4940   32.4770   47.8450 C   0  0  0  0  0  0  0  0  0  0  0  0
   46.1460   34.1800   46.5360 H   0  0  0  0  0  0  0  0  0  0  0  0
   47.3460   31.4060   47.2500 H   0  0  0  0  0  0  0  0  0  0  0  0
   47.6000   33.0020   48.2420 H   0  0  0  0  0  0  0  0  0  0  0  0
   45.1260   33.1290   48.6540 H   0  0  0  0  0  0  0  0  0  0  0  0
   44.9140   31.5370   47.7720 H   0  0  0  0  0  0  0  0  0  0  0  0
   42.5950   35.2600   40.4020 O   0  0  0  0  0  0  0  0  0  0  0  0
   41.4040   35.5990   40.9780 C   0  0  0  0  0  0  0  0  0  0  0  0
   41.4050   35.8480   42.0600 H   0  0  0  0  0  0  0  0  0  0  0  0
   40.9570   36.4700   40.4540 H   0  0  0  0  0  0  0  0  0  0  0  0
   40.6960   33.3490   41.6350 C   0  0  0  0  0  0  0  0  0  0  0  0
   40.3800   34.5040   40.8820 C   0  0  0  0  0  0  0  0  0  0  0  0
   39.2160   34.4980   40.1800 C   0  0  0  0  0  0  0  0  0  0  0  0
   38.4660   33.4110   40.2560 N   0  0  0  0  0  0  0  0  0  0  0  0
   38.7500   32.3300   40.9540 C   0  0  0  0  0  0  0  0  0  0  0  0
   39.9250   32.2570   41.7000 N   0  0  0  0  0  0  0  0  0  0  0  0
   41.5950   33.2470   42.2290 H   0  0  0  0  0  0  0  0  0  0  0  0
   39.0250   35.4120   39.6210 H   0  0  0  0  0  0  0  0  0  0  0  0
   37.8280   31.1690   40.9600 C   0  0  0  0  0  2  0  0  0  0  0  0
   38.0210   30.3500   39.6860 C   0  0  0  0  0  2  0  0  0  0  0  0
   38.7360   30.8680   38.9850 H   0  0  0  0  0  0  0  0  0  0  0  0
  1  2  2  0  0  0  0
  2  3  1  0  0  0  0
  3  5  1  0  0  0  0
  3  6  1  0  0  0  0
  4  3  1  0  0  0  0
  8  7  2  6  0  0  0
  8  6  1  0  0  0  0
  8 11  1  0  0  0  0
  9  8  1  0  0  0  0
  9 10  1  0  0  0  0
 11 12  1  0  0  0  0
 12 13  1  0  0  0  0
 12 14  1  0  0  0  0
 13 14  1  0  0  0  0
 13 17  1  0  0  0  0
 14 18  1  0  0  0  0
 15 12  1  0  0  0  0
 16 13  1  0  0  0  0
 19 14  1  0  0  0  0
 20 21  1  0  0  0  0
 20  1  1  0  0  0  0
 21 22  1  0  0  0  0
 23 21  1  0  0  0  0
 24 29  1  0  0  0  0
 24 30  1  0  0  0  0
 25 21  1  0  0  0  0
 25 24  2  0  0  0  0
 26 27  2  0  0  0  0
 26 25  1  0  0  0  0
 27 28  1  0  0  0  0
 28 32  1  0  0  0  0
 28 29  2  0  0  0  0
 31 26  1  0  0  0  0
 33 32  1  0  0  0  0
 34 33  1  0  0  0  0
M  END
>  <minimizedAffinity>
-4.75974178

>  <minimizedRMSD>
0.449142396

$$$$
