
 OpenBabel03252501053D

 34 36  0  0  1  0  0  0  0  0999 V2000
   47.7530   34.1650   39.8000 O   0  0  0  0  0  0  0  0  0  0  0  0
   48.1130   35.4620   41.8110 C   0  0  1  0  0  0  0  0  0  0  0  0
   49.3360   34.6620   41.6720 C   0  0  0  0  0  0  0  0  0  0  0  0
   48.4950   35.0810   40.4530 C   0  0  1  0  0  0  0  0  0  0  0  0
   48.1600   36.5080   42.1480 H   0  0  0  0  0  0  0  0  0  0  0  0
   50.3240   35.1220   41.7870 H   0  0  0  0  0  0  0  0  0  0  0  0
   49.2980   33.5440   41.8110 H   0  0  0  0  0  0  0  0  0  0  0  0
   49.0290   35.8090   39.8130 H   0  0  0  0  0  0  0  0  0  0  0  0
   46.0520   32.9310   43.7370 C   0  0  0  0  0  0  0  0  0  0  0  0
   47.1530   33.6010   43.2120 C   0  0  0  0  0  0  0  0  0  0  0  0
   46.9410   34.7320   42.4010 C   0  0  0  0  0  0  0  0  0  0  0  0
   45.6680   35.1340   42.1550 N   0  0  0  0  0  0  0  0  0  0  0  0
   44.6090   34.4680   42.6760 C   0  0  0  0  0  0  0  0  0  0  0  0
   44.8010   33.3680   43.4660 N   0  0  0  0  0  0  0  0  0  0  0  0
   46.2010   32.0630   44.3590 H   0  0  0  0  0  0  0  0  0  0  0  0
   48.1250   33.2400   43.4380 H   0  0  0  0  0  0  0  0  0  0  0  0
   43.6220   34.8500   42.4350 H   0  0  0  0  0  0  0  0  0  0  0  0
   48.5110   32.4050   38.0050 O   0  0  0  0  0  0  0  0  0  0  0  0
   48.0900   33.8580   38.2300 P   0  0  2  0  0  0  0  0  0  0  0  0
   49.3430   34.7930   37.5730 O   0  0  0  0  0  0  0  0  0  0  0  0
   50.2010   34.3290   37.5570 H   0  0  0  0  0  0  0  0  0  0  0  0
   46.7410   34.0720   37.2570 O   0  0  0  0  0  0  0  0  0  0  0  0
   45.7990   33.0870   37.0090 C   0  0  0  0  0  0  0  0  0  0  0  0
   45.6590   32.2790   35.8980 C   0  0  0  0  0  0  0  0  0  0  0  0
   44.6710   31.3470   35.8000 C   0  0  0  0  0  0  0  0  0  0  0  0
   43.7720   31.1880   36.8290 C   0  0  0  0  0  0  0  0  0  0  0  0
   43.9410   32.0220   37.9390 C   0  0  0  0  0  0  0  0  0  0  0  0
   44.9280   32.9380   38.0120 N   0  0  0  0  0  0  0  0  0  0  0  0
   46.4110   32.4670   35.1270 H   0  0  0  0  0  0  0  0  0  0  0  0
   44.6470   30.7630   34.8870 H   0  0  0  0  0  0  0  0  0  0  0  0
   43.0130   30.4530   36.7220 H   0  0  0  0  0  0  0  0  0  0  0  0
   42.9660   31.8640   39.0770 C   0  0  0  0  0  2  0  0  0  0  0  0
   43.6640   31.6900   40.3820 C   0  0  0  0  0  2  0  0  0  0  0  0
   44.3370   30.8200   40.3250 H   0  0  0  0  0  0  0  0  0  0  0  0
  1  4  1  0  0  0  0
  2  5  1  1  0  0  0
  2 11  1  0  0  0  0
  3  6  1  0  0  0  0
  3  7  1  0  0  0  0
  3  2  1  0  0  0  0
  4  8  1  6  0  0  0
  4  3  1  0  0  0  0
  4  2  1  0  0  0  0
  9 15  1  0  0  0  0
 10 16  1  0  0  0  0
 10  9  2  0  0  0  0
 11 10  1  0  0  0  0
 12 11  2  0  0  0  0
 12 13  1  0  0  0  0
 13 14  2  0  0  0  0
 14  9  1  0  0  0  0
 17 13  1  0  0  0  0
 19 18  2  6  0  0  0
 19  1  1  0  0  0  0
 20 19  1  0  0  0  0
 21 20  1  0  0  0  0
 22 19  1  0  0  0  0
 23 22  1  0  0  0  0
 23 28  1  0  0  0  0
 24 23  2  0  0  0  0
 25 24  1  0  0  0  0
 25 26  2  0  0  0  0
 26 27  1  0  0  0  0
 27 28  2  0  0  0  0
 27 32  1  0  0  0  0
 29 24  1  0  0  0  0
 30 25  1  0  0  0  0
 31 26  1  0  0  0  0
 32 33  1  0  0  0  0
 34 33  1  0  0  0  0
M  END
>  <minimizedAffinity>
-4.24210024

>  <minimizedRMSD>
0.048542466

$$$$
