
 OpenBabel03252501053D

 34 36  0  0  1  0  0  0  0  0999 V2000
   47.7460   34.1640   39.7970 O   0  0  0  0  0  0  0  0  0  0  0  0
   48.1130   35.4580   41.8080 C   0  0  1  0  0  0  0  0  0  0  0  0
   49.3340   34.6570   41.6660 C   0  0  0  0  0  0  0  0  0  0  0  0
   48.4910   35.0790   40.4490 C   0  0  1  0  0  0  0  0  0  0  0  0
   48.1620   36.5040   42.1470 H   0  0  0  0  0  0  0  0  0  0  0  0
   50.3230   35.1160   41.7790 H   0  0  0  0  0  0  0  0  0  0  0  0
   49.2950   33.5390   41.8040 H   0  0  0  0  0  0  0  0  0  0  0  0
   49.0250   35.8070   39.8090 H   0  0  0  0  0  0  0  0  0  0  0  0
   46.0520   32.9230   43.7300 C   0  0  0  0  0  0  0  0  0  0  0  0
   47.1530   33.5930   43.2030 C   0  0  0  0  0  0  0  0  0  0  0  0
   46.9410   34.7290   42.4000 C   0  0  0  0  0  0  0  0  0  0  0  0
   45.6680   35.1370   42.1640 N   0  0  0  0  0  0  0  0  0  0  0  0
   44.6090   34.4720   42.6860 C   0  0  0  0  0  0  0  0  0  0  0  0
   44.8010   33.3660   43.4680 N   0  0  0  0  0  0  0  0  0  0  0  0
   46.2010   32.0510   44.3460 H   0  0  0  0  0  0  0  0  0  0  0  0
   48.1250   33.2270   43.4220 H   0  0  0  0  0  0  0  0  0  0  0  0
   43.6220   34.8590   42.4530 H   0  0  0  0  0  0  0  0  0  0  0  0
   48.4870   32.3990   37.9990 O   0  0  0  0  0  0  0  0  0  0  0  0
   48.0810   33.8560   38.2260 P   0  0  2  0  0  0  0  0  0  0  0  0
   49.3440   34.7790   37.5720 O   0  0  0  0  0  0  0  0  0  0  0  0
   50.1970   34.3070   37.5560 H   0  0  0  0  0  0  0  0  0  0  0  0
   46.7350   34.0860   37.2530 O   0  0  0  0  0  0  0  0  0  0  0  0
   45.8230   33.0910   36.9420 C   0  0  0  0  0  0  0  0  0  0  0  0
   45.7960   32.2480   35.8490 C   0  0  0  0  0  0  0  0  0  0  0  0
   44.8220   31.3100   35.6820 C   0  0  0  0  0  0  0  0  0  0  0  0
   43.8240   31.1810   36.6190 C   0  0  0  0  0  0  0  0  0  0  0  0
   43.8800   32.0500   37.7130 C   0  0  0  0  0  0  0  0  0  0  0  0
   44.8550   32.9710   37.8570 N   0  0  0  0  0  0  0  0  0  0  0  0
   46.6210   32.4150   35.1520 H   0  0  0  0  0  0  0  0  0  0  0  0
   44.8910   30.6980   34.7890 H   0  0  0  0  0  0  0  0  0  0  0  0
   43.0800   30.4400   36.4600 H   0  0  0  0  0  0  0  0  0  0  0  0
   42.7960   31.9240   38.7520 C   0  0  0  0  0  2  0  0  0  0  0  0
   43.3280   32.1100   40.1320 C   0  0  0  0  0  2  0  0  0  0  0  0
   44.1290   31.3770   40.3190 H   0  0  0  0  0  0  0  0  0  0  0  0
  1  4  1  0  0  0  0
  2  5  1  1  0  0  0
  2 11  1  0  0  0  0
  3  6  1  0  0  0  0
  3  7  1  0  0  0  0
  3  2  1  0  0  0  0
  4  8  1  6  0  0  0
  4  3  1  0  0  0  0
  4  2  1  0  0  0  0
  9 15  1  0  0  0  0
 10 16  1  0  0  0  0
 10  9  2  0  0  0  0
 11 10  1  0  0  0  0
 12 11  2  0  0  0  0
 12 13  1  0  0  0  0
 13 14  2  0  0  0  0
 14  9  1  0  0  0  0
 17 13  1  0  0  0  0
 19 18  2  6  0  0  0
 19  1  1  0  0  0  0
 20 19  1  0  0  0  0
 21 20  1  0  0  0  0
 22 19  1  0  0  0  0
 23 22  1  0  0  0  0
 23 28  1  0  0  0  0
 24 23  2  0  0  0  0
 25 24  1  0  0  0  0
 25 26  2  0  0  0  0
 26 27  1  0  0  0  0
 27 28  2  0  0  0  0
 27 32  1  0  0  0  0
 29 24  1  0  0  0  0
 30 25  1  0  0  0  0
 31 26  1  0  0  0  0
 32 33  1  0  0  0  0
 33 34  1  0  0  0  0
M  END
>  <minimizedAffinity>
-4.27221203

>  <minimizedRMSD>
0.158329636

$$$$
