
 OpenBabel03252504323D

 34 35  0  0  0  0  0  0  0  0999 V2000
   43.8280   35.1950   40.9900 C   0  0  0  0  0  3  0  0  0  0  0  0
   43.8990   35.5920   42.2560 C   0  0  0  0  0  3  0  0  0  0  0  0
   45.1480   35.6040   43.1180 C   0  0  0  0  0  0  0  0  0  0  0  0
   45.9580   35.2220   42.4550 H   0  0  0  0  0  0  0  0  0  0  0  0
   45.3760   36.6280   43.4780 H   0  0  0  0  0  0  0  0  0  0  0  0
   44.9340   34.7330   44.1640 O   0  0  0  0  0  0  0  0  0  0  0  0
   45.7040   32.5800   42.7980 O   0  0  0  0  0  0  0  0  0  0  0  0
   45.9440   33.3880   44.0520 P   0  0  1  0  0  0  0  0  0  0  0  0
   47.5750   33.8890   44.0150 O   0  0  0  0  0  0  0  0  0  0  0  0
   47.6990   34.7490   44.4890 H   0  0  0  0  0  0  0  0  0  0  0  0
   45.7600   32.4090   45.4150 O   0  0  0  0  0  0  0  0  0  0  0  0
   46.0680   33.0740   46.5840 C   0  0  0  0  0  0  0  0  0  0  0  0
   46.9720   32.4010   47.5710 C   0  0  0  0  0  0  0  0  0  0  0  0
   45.4880   32.4790   47.8450 C   0  0  0  0  0  0  0  0  0  0  0  0
   46.1470   34.1790   46.5340 H   0  0  0  0  0  0  0  0  0  0  0  0
   47.3380   31.4030   47.2550 H   0  0  0  0  0  0  0  0  0  0  0  0
   47.5950   32.9990   48.2450 H   0  0  0  0  0  0  0  0  0  0  0  0
   45.1200   33.1330   48.6520 H   0  0  0  0  0  0  0  0  0  0  0  0
   44.9050   31.5400   47.7720 H   0  0  0  0  0  0  0  0  0  0  0  0
   42.5760   35.2690   40.4000 O   0  0  0  0  0  0  0  0  0  0  0  0
   41.3870   35.6020   40.9820 C   0  0  0  0  0  0  0  0  0  0  0  0
   41.3900   35.8460   42.0650 H   0  0  0  0  0  0  0  0  0  0  0  0
   40.9350   36.4740   40.4620 H   0  0  0  0  0  0  0  0  0  0  0  0
   40.6800   33.3520   41.6420 C   0  0  0  0  0  0  0  0  0  0  0  0
   40.3660   34.5040   40.8830 C   0  0  0  0  0  0  0  0  0  0  0  0
   39.2060   34.4920   40.1750 C   0  0  0  0  0  0  0  0  0  0  0  0
   38.4580   33.4030   40.2500 N   0  0  0  0  0  0  0  0  0  0  0  0
   38.7410   32.3250   40.9540 C   0  0  0  0  0  0  0  0  0  0  0  0
   39.9120   32.2580   41.7080 N   0  0  0  0  0  0  0  0  0  0  0  0
   41.5760   33.2550   42.2420 H   0  0  0  0  0  0  0  0  0  0  0  0
   39.0160   35.4030   39.6110 H   0  0  0  0  0  0  0  0  0  0  0  0
   37.8210   31.1630   40.9600 C   0  0  0  0  0  2  0  0  0  0  0  0
   38.0160   30.3450   39.6850 C   0  0  0  0  0  2  0  0  0  0  0  0
   38.7300   30.8660   38.9840 H   0  0  0  0  0  0  0  0  0  0  0  0
  1  2  2  0  0  0  0
  2  3  1  0  0  0  0
  3  5  1  0  0  0  0
  3  6  1  0  0  0  0
  4  3  1  0  0  0  0
  8  7  2  6  0  0  0
  8  6  1  0  0  0  0
  8 11  1  0  0  0  0
  9  8  1  0  0  0  0
  9 10  1  0  0  0  0
 11 12  1  0  0  0  0
 12 13  1  0  0  0  0
 12 14  1  0  0  0  0
 13 14  1  0  0  0  0
 13 17  1  0  0  0  0
 14 18  1  0  0  0  0
 15 12  1  0  0  0  0
 16 13  1  0  0  0  0
 19 14  1  0  0  0  0
 20 21  1  0  0  0  0
 20  1  1  0  0  0  0
 21 22  1  0  0  0  0
 23 21  1  0  0  0  0
 24 29  1  0  0  0  0
 24 30  1  0  0  0  0
 25 21  1  0  0  0  0
 25 24  2  0  0  0  0
 26 27  2  0  0  0  0
 26 25  1  0  0  0  0
 27 28  1  0  0  0  0
 28 32  1  0  0  0  0
 28 29  2  0  0  0  0
 31 26  1  0  0  0  0
 33 32  1  0  0  0  0
 34 33  1  0  0  0  0
M  END
>  <minimizedAffinity>
-4.76331806

>  <minimizedRMSD>
0.472251177

$$$$
