
 OpenBabel03252509143D

 39 42  0  0  1  0  0  0  0  0999 V2000
   47.4260   32.5570   44.2300 C   0  0  0  0  0  0  0  0  0  0  0  0
   46.7230   33.4960   43.4710 C   0  0  0  0  0  0  0  0  0  0  0  0
   45.6880   34.2650   43.9960 C   0  0  0  0  0  0  0  0  0  0  0  0
   45.3290   34.0990   45.3400 C   0  0  0  0  0  0  0  0  0  0  0  0
   44.4120   34.6480   46.1610 N   0  0  0  0  0  0  0  0  0  0  0  0
   44.5150   34.0940   47.3900 C   0  0  0  0  0  0  0  0  0  0  0  0
   45.5030   33.2040   47.2990 N   0  0  0  0  0  0  0  0  0  0  0  0
   46.0340   33.1700   46.0650 C   0  0  0  0  0  0  0  0  0  0  0  0
   47.0630   32.3930   45.5760 C   0  0  0  0  0  0  0  0  0  0  0  0
   48.2100   32.0120   43.7290 H   0  0  0  0  0  0  0  0  0  0  0  0
   43.7240   35.3960   45.8760 H   0  0  0  0  0  0  0  0  0  0  0  0
   43.9390   34.2980   48.2820 H   0  0  0  0  0  0  0  0  0  0  0  0
   47.6010   31.6790   46.1470 H   0  0  0  0  0  0  0  0  0  0  0  0
   46.9840   32.9590   39.8630 C   0  0  0  0  0  0  0  0  0  0  0  0
   47.7620   34.0390   39.4410 C   0  0  0  0  0  0  0  0  0  0  0  0
   48.1920   34.9450   40.4040 C   0  0  0  0  0  0  0  0  0  0  0  0
   47.8360   34.7430   41.7150 N   0  0  0  0  0  0  0  0  0  0  0  0
   47.0830   33.6830   42.0680 C   0  0  0  0  0  0  0  0  0  0  0  0
   46.6400   32.7730   41.1740 N   0  0  0  0  0  0  0  0  0  0  0  0
   46.6470   32.2510   39.1200 H   0  0  0  0  0  0  0  0  0  0  0  0
   48.0200   34.1640   38.4030 H   0  0  0  0  0  0  0  0  0  0  0  0
   48.7970   35.8050   40.1490 H   0  0  0  0  0  0  0  0  0  0  0  0
   44.8100   35.4490   43.0150 S   0  0  0  0  0  0  0  0  0  0  0  0
   42.3310   35.3580   42.1500 N   0  0  0  0  0  0  0  0  0  0  0  0
   43.6140   34.7190   41.8800 C   0  0  1  0  0  0  0  0  0  0  0  0
   44.1060   35.0380   40.4790 C   0  0  0  0  0  0  0  0  0  0  0  0
   43.1170   34.9710   39.5160 O   0  0  0  0  0  0  0  0  0  0  0  0
   41.9290   34.4050   39.9280 C   0  0  0  0  0  0  0  0  0  0  0  0
   41.3910   35.1960   41.0830 C   0  0  1  0  0  0  0  0  0  0  0  0
   42.0130   34.9990   43.0750 H   0  0  0  0  0  0  0  0  0  0  0  0
   43.5220   33.6230   42.0370 H   0  0  0  0  0  0  0  0  0  0  0  0
   44.5450   36.0560   40.4710 H   0  0  0  0  0  0  0  0  0  0  0  0
   44.8270   34.2810   40.1810 H   0  0  0  0  0  0  0  0  0  0  0  0
   41.2210   34.4800   39.0980 H   0  0  0  0  0  0  0  0  0  0  0  0
   42.1190   33.3690   40.2550 H   0  0  0  0  0  0  0  0  0  0  0  0
   40.9990   36.1860   40.7410 H   0  0  0  0  0  0  0  0  0  0  0  0
   40.1890   34.4270   41.6420 C   0  0  0  0  0  2  0  0  0  0  0  0
   40.1480   34.4050   43.1330 C   0  0  0  0  0  2  0  0  0  0  0  0
   39.5060   35.2220   43.5390 H   0  0  0  0  0  0  0  0  0  0  0  0
  1  9  1  0  0  0  0
  2  3  1  0  0  0  0
  2  1  2  0  0  0  0
  3  4  2  0  0  0  0
  4  8  1  0  0  0  0
  4  5  1  0  0  0  0
  5  6  1  0  0  0  0
  6 12  1  0  0  0  0
  7  6  2  0  0  0  0
  8  7  1  0  0  0  0
  9  8  2  0  0  0  0
  9 13  1  0  0  0  0
 10  1  1  0  0  0  0
 11  5  1  0  0  0  0
 14 19  1  0  0  0  0
 15 14  2  0  0  0  0
 15 16  1  0  0  0  0
 16 17  2  0  0  0  0
 17 18  1  0  0  0  0
 18  2  1  0  0  0  0
 19 18  2  0  0  0  0
 20 14  1  0  0  0  0
 21 15  1  0  0  0  0
 22 16  1  0  0  0  0
 23  3  1  0  0  0  0
 24 30  1  0  0  0  0
 25 31  1  1  0  0  0
 25 24  1  0  0  0  0
 25 23  1  0  0  0  0
 26 25  1  0  0  0  0
 27 28  1  0  0  0  0
 27 26  1  0  0  0  0
 28 35  1  0  0  0  0
 28 29  1  0  0  0  0
 29 36  1  6  0  0  0
 29 37  1  0  0  0  0
 29 24  1  0  0  0  0
 32 26  1  0  0  0  0
 33 26  1  0  0  0  0
 34 28  1  0  0  0  0
 37 38  1  0  0  0  0
 38 39  1  0  0  0  0
M  END
>  <minimizedAffinity>
-4.4297967

>  <minimizedRMSD>
0.502269506

$$$$
