
 OpenBabel03252501153D

 22 23  0  0  1  0  0  0  0  0999 V2000
   37.4200   31.4980   40.5050 C   0  0  0  0  0  0  0  0  0  0  0  0
   38.0980   30.8340   41.5440 C   0  0  0  0  0  0  0  0  0  0  0  0
   37.4850   29.6690   41.9810 C   0  0  0  0  0  0  0  0  0  0  0  0
   36.3050   29.2450   41.4040 N   0  0  0  0  0  0  0  0  0  0  0  0
   35.7110   29.9350   40.4090 C   0  0  0  0  0  0  0  0  0  0  0  0
   36.2820   31.0780   39.9570 N   0  0  0  0  0  0  0  0  0  0  0  0
   39.0050   31.1850   41.9700 H   0  0  0  0  0  0  0  0  0  0  0  0
   34.7900   29.5650   39.9890 H   0  0  0  0  0  0  0  0  0  0  0  0
   38.0790   28.8500   43.0780 C   0  0  1  0  0  0  0  0  0  0  0  0
   37.1200   27.8680   43.6750 C   0  0  0  0  0  0  0  0  0  0  0  0
   38.3680   27.4300   42.8320 C   0  0  2  0  0  0  0  0  0  0  0  0
   38.7490   29.4550   43.7190 H   0  0  0  0  0  0  0  0  0  0  0  0
   37.1570   27.6420   44.7590 H   0  0  0  0  0  0  0  0  0  0  0  0
   36.1510   27.6680   43.1980 H   0  0  0  0  0  0  0  0  0  0  0  0
   38.1420   26.9910   41.8550 H   0  0  0  0  0  0  0  0  0  0  0  0
   39.4960   26.8710   43.6780 C   0  0  0  0  0  2  0  0  0  0  0  0
   40.8380   27.4400   43.3510 C   0  0  0  0  0  2  0  0  0  0  0  0
   41.5870   26.7390   43.8250 H   0  0  0  0  0  0  0  0  0  0  0  0
   38.0490   32.7540   39.9850 C   0  0  0  0  0  0  0  0  0  0  0  0
   38.6820   33.3710   41.0540 F   0  0  0  0  0  0  0  0  0  0  0  0
   37.0510   33.5870   39.5560 F   0  0  0  0  0  0  0  0  0  0  0  0
   38.9920   32.4800   39.0280 F   0  0  0  0  0  0  0  0  0  0  0  0
  1  2  1  0  0  0  0
  2  7  1  0  0  0  0
  2  3  2  0  0  0  0
  3  9  1  0  0  0  0
  4  3  1  0  0  0  0
  5  4  2  0  0  0  0
  6  5  1  0  0  0  0
  6  1  2  0  0  0  0
  8  5  1  0  0  0  0
  9 10  1  0  0  0  0
  9 12  1  1  0  0  0
 10 13  1  0  0  0  0
 11 15  1  6  0  0  0
 11  9  1  0  0  0  0
 11 10  1  0  0  0  0
 11 16  1  0  0  0  0
 14 10  1  0  0  0  0
 17 16  1  0  0  0  0
 17 18  1  0  0  0  0
 19  1  1  0  0  0  0
 19 20  1  0  0  0  0
 21 19  1  0  0  0  0
 22 19  1  0  0  0  0
M  END
>  <minimizedAffinity>
-4.5768795

$$$$

 OpenBabel03252501153D

 22 23  0  0  1  0  0  0  0  0999 V2000
   37.9700   30.7680   41.1250 C   0  0  0  0  0  0  0  0  0  0  0  0
   37.5120   29.4850   41.4830 C   0  0  0  0  0  0  0  0  0  0  0  0
   38.3080   28.8270   42.4090 C   0  0  0  0  0  0  0  0  0  0  0  0
   39.4460   29.4320   42.9040 N   0  0  0  0  0  0  0  0  0  0  0  0
   39.8230   30.6680   42.5130 C   0  0  0  0  0  0  0  0  0  0  0  0
   39.0690   31.3390   41.6100 N   0  0  0  0  0  0  0  0  0  0  0  0
   36.6330   29.0440   41.0840 H   0  0  0  0  0  0  0  0  0  0  0  0
   40.7190   31.1010   42.9260 H   0  0  0  0  0  0  0  0  0  0  0  0
   37.9610   27.4580   42.8910 C   0  0  1  0  0  0  0  0  0  0  0  0
   36.5860   27.3610   43.4720 C   0  0  0  0  0  0  0  0  0  0  0  0
   36.9920   26.6590   42.1290 C   0  0  2  0  0  0  0  0  0  0  0  0
   38.8250   26.9710   43.3830 H   0  0  0  0  0  0  0  0  0  0  0  0
   36.3910   26.6940   44.3350 H   0  0  0  0  0  0  0  0  0  0  0  0
   35.8690   28.1860   43.3590 H   0  0  0  0  0  0  0  0  0  0  0  0
   36.5340   27.0750   41.2260 H   0  0  0  0  0  0  0  0  0  0  0  0
   37.1770   25.1600   42.2700 C   0  0  0  0  0  2  0  0  0  0  0  0
   36.6790   24.3750   41.1010 C   0  0  0  0  0  2  0  0  0  0  0  0
   36.6050   23.3080   41.4620 H   0  0  0  0  0  0  0  0  0  0  0  0
   37.1360   31.5270   40.1390 C   0  0  0  0  0  0  0  0  0  0  0  0
   35.8180   31.1380   40.3260 F   0  0  0  0  0  0  0  0  0  0  0  0
   37.5080   31.1440   38.8790 F   0  0  0  0  0  0  0  0  0  0  0  0
   37.2200   32.8790   40.3530 F   0  0  0  0  0  0  0  0  0  0  0  0
  1  2  2  0  0  0  0
  1  6  1  0  0  0  0
  2  3  1  0  0  0  0
  3  9  1  0  0  0  0
  3  4  2  0  0  0  0
  5  4  1  0  0  0  0
  5  8  1  0  0  0  0
  6  5  2  0  0  0  0
  7  2  1  0  0  0  0
  9 12  1  1  0  0  0
  9 10  1  0  0  0  0
 10 13  1  0  0  0  0
 11 15  1  6  0  0  0
 11 16  1  0  0  0  0
 11  9  1  0  0  0  0
 11 10  1  0  0  0  0
 14 10  1  0  0  0  0
 17 18  1  0  0  0  0
 17 16  1  0  0  0  0
 19 20  1  0  0  0  0
 19 22  1  0  0  0  0
 19  1  1  0  0  0  0
 21 19  1  0  0  0  0
M  END
>  <minimizedAffinity>
-4.56987

$$$$

 OpenBabel03252501153D

 22 23  0  0  1  0  0  0  0  0999 V2000
   35.8140   29.5710   39.9720 C   0  0  0  0  0  0  0  0  0  0  0  0
   36.3140   28.7470   40.9970 C   0  0  0  0  0  0  0  0  0  0  0  0
   37.2340   29.3620   41.8340 C   0  0  0  0  0  0  0  0  0  0  0  0
   37.5920   30.6780   41.6270 N   0  0  0  0  0  0  0  0  0  0  0  0
   37.0700   31.4080   40.6190 C   0  0  0  0  0  0  0  0  0  0  0  0
   36.1680   30.8400   39.7830 N   0  0  0  0  0  0  0  0  0  0  0  0
   36.0210   27.7360   41.1320 H   0  0  0  0  0  0  0  0  0  0  0  0
   37.3780   32.4340   40.4960 H   0  0  0  0  0  0  0  0  0  0  0  0
   37.8590   28.6220   42.9700 C   0  0  1  0  0  0  0  0  0  0  0  0
   36.9100   27.7080   43.6800 C   0  0  0  0  0  0  0  0  0  0  0  0
   38.1180   27.1830   42.8270 C   0  0  2  0  0  0  0  0  0  0  0  0
   38.5620   29.2650   43.5340 H   0  0  0  0  0  0  0  0  0  0  0  0
   36.9870   27.5680   44.7770 H   0  0  0  0  0  0  0  0  0  0  0  0
   35.9210   27.4860   43.2570 H   0  0  0  0  0  0  0  0  0  0  0  0
   37.8480   26.6720   41.8980 H   0  0  0  0  0  0  0  0  0  0  0  0
   39.2720   26.6740   43.6720 C   0  0  0  0  0  2  0  0  0  0  0  0
   39.8990   25.4230   43.1500 C   0  0  0  0  0  2  0  0  0  0  0  0
   40.5110   25.0120   44.0060 H   0  0  0  0  0  0  0  0  0  0  0  0
   34.8040   28.9590   39.0500 C   0  0  0  0  0  0  0  0  0  0  0  0
   34.9210   29.6000   37.8250 F   0  0  0  0  0  0  0  0  0  0  0  0
   33.5560   29.2290   39.5430 F   0  0  0  0  0  0  0  0  0  0  0  0
   35.0470   27.6230   38.8610 F   0  0  0  0  0  0  0  0  0  0  0  0
  1  2  1  0  0  0  0
  2  7  1  0  0  0  0
  2  3  2  0  0  0  0
  3  9  1  0  0  0  0
  4  3  1  0  0  0  0
  5  4  2  0  0  0  0
  6  1  2  0  0  0  0
  6  5  1  0  0  0  0
  8  5  1  0  0  0  0
  9 12  1  1  0  0  0
  9 10  1  0  0  0  0
 10 13  1  0  0  0  0
 11 15  1  6  0  0  0
 11  9  1  0  0  0  0
 11 16  1  0  0  0  0
 11 10  1  0  0  0  0
 14 10  1  0  0  0  0
 17 16  1  0  0  0  0
 17 18  1  0  0  0  0
 19 21  1  0  0  0  0
 19  1  1  0  0  0  0
 20 19  1  0  0  0  0
 22 19  1  0  0  0  0
M  END
>  <minimizedAffinity>
-4.55180931

$$$$

 OpenBabel03252501153D

 22 23  0  0  1  0  0  0  0  0999 V2000
   38.2960   31.5340   41.0460 C   0  0  0  0  0  0  0  0  0  0  0  0
   38.7040   30.3460   41.6810 C   0  0  0  0  0  0  0  0  0  0  0  0
   37.7060   29.3910   41.8150 C   0  0  0  0  0  0  0  0  0  0  0  0
   36.4340   29.6440   41.3430 N   0  0  0  0  0  0  0  0  0  0  0  0
   36.1150   30.8110   40.7430 C   0  0  0  0  0  0  0  0  0  0  0  0
   37.0660   31.7650   40.5960 N   0  0  0  0  0  0  0  0  0  0  0  0
   39.6910   30.1790   42.0360 H   0  0  0  0  0  0  0  0  0  0  0  0
   35.1090   30.9640   40.3900 H   0  0  0  0  0  0  0  0  0  0  0  0
   37.9770   28.0770   42.4680 C   0  0  1  0  0  0  0  0  0  0  0  0
   37.0020   27.7380   43.5510 C   0  0  0  0  0  0  0  0  0  0  0  0
   37.0760   26.9480   42.1980 C   0  0  2  0  0  0  0  0  0  0  0  0
   39.0630   27.9080   42.6020 H   0  0  0  0  0  0  0  0  0  0  0  0
   37.3420   27.1940   44.4550 H   0  0  0  0  0  0  0  0  0  0  0  0
   36.0860   28.3280   43.6880 H   0  0  0  0  0  0  0  0  0  0  0  0
   36.2200   27.0830   41.5300 H   0  0  0  0  0  0  0  0  0  0  0  0
   37.7320   25.5860   42.3340 C   0  0  0  0  0  2  0  0  0  0  0  0
   36.9020   24.4590   41.8120 C   0  0  0  0  0  2  0  0  0  0  0  0
   37.3620   23.5210   42.2400 H   0  0  0  0  0  0  0  0  0  0  0  0
   39.3420   32.5900   40.8630 C   0  0  0  0  0  0  0  0  0  0  0  0
   39.6640   32.6240   39.5140 F   0  0  0  0  0  0  0  0  0  0  0  0
   40.4630   32.2070   41.5490 F   0  0  0  0  0  0  0  0  0  0  0  0
   38.8690   33.8270   41.2220 F   0  0  0  0  0  0  0  0  0  0  0  0
  1  2  1  0  0  0  0
  2  3  2  0  0  0  0
  2  7  1  0  0  0  0
  3  9  1  0  0  0  0
  4  3  1  0  0  0  0
  5  4  2  0  0  0  0
  6  5  1  0  0  0  0
  6  1  2  0  0  0  0
  8  5  1  0  0  0  0
  9 12  1  1  0  0  0
  9 10  1  0  0  0  0
 10 14  1  0  0  0  0
 10 13  1  0  0  0  0
 11 15  1  6  0  0  0
 11 16  1  0  0  0  0
 11  9  1  0  0  0  0
 11 10  1  0  0  0  0
 17 18  1  0  0  0  0
 17 16  1  0  0  0  0
 19  1  1  0  0  0  0
 19 22  1  0  0  0  0
 19 21  1  0  0  0  0
 20 19  1  0  0  0  0
M  END
>  <minimizedAffinity>
-4.54925346

$$$$

 OpenBabel03252501153D

 22 23  0  0  1  0  0  0  0  0999 V2000
   37.5000   26.7180   42.2230 C   0  0  0  0  0  0  0  0  0  0  0  0
   37.3950   27.4680   41.0360 C   0  0  0  0  0  0  0  0  0  0  0  0
   37.3730   28.8430   41.2220 C   0  0  0  0  0  0  0  0  0  0  0  0
   37.4500   29.3740   42.4940 N   0  0  0  0  0  0  0  0  0  0  0  0
   37.5480   28.5900   43.5880 C   0  0  0  0  0  0  0  0  0  0  0  0
   37.5730   27.2440   43.4430 N   0  0  0  0  0  0  0  0  0  0  0  0
   37.3360   27.0320   40.0700 H   0  0  0  0  0  0  0  0  0  0  0  0
   37.6060   29.0500   44.5610 H   0  0  0  0  0  0  0  0  0  0  0  0
   37.2640   29.7770   40.0640 C   0  0  1  0  0  0  0  0  0  0  0  0
   35.8890   29.8420   39.4780 C   0  0  0  0  0  0  0  0  0  0  0  0
   36.5460   31.0470   40.2370 C   0  0  2  0  0  0  0  0  0  0  0  0
   38.1590   29.7240   39.4150 H   0  0  0  0  0  0  0  0  0  0  0  0
   35.7550   29.9670   38.3840 H   0  0  0  0  0  0  0  0  0  0  0  0
   35.0350   29.3850   39.9950 H   0  0  0  0  0  0  0  0  0  0  0  0
   36.0980   31.2900   41.2050 H   0  0  0  0  0  0  0  0  0  0  0  0
   37.0140   32.1550   39.3120 C   0  0  0  0  0  2  0  0  0  0  0  0
   37.8220   33.2120   39.9920 C   0  0  0  0  0  2  0  0  0  0  0  0
   37.8380   34.0860   39.2780 H   0  0  0  0  0  0  0  0  0  0  0  0
   37.5450   25.2290   42.0750 C   0  0  0  0  0  0  0  0  0  0  0  0
   37.5360   24.9480   40.7160 F   0  0  0  0  0  0  0  0  0  0  0  0
   36.3980   24.7100   42.6140 F   0  0  0  0  0  0  0  0  0  0  0  0
   38.6940   24.7090   42.6130 F   0  0  0  0  0  0  0  0  0  0  0  0
  1  6  1  0  0  0  0
  2  3  1  0  0  0  0
  2  1  2  0  0  0  0
  3  4  2  0  0  0  0
  4  5  1  0  0  0  0
  5  8  1  0  0  0  0
  6  5  2  0  0  0  0
  7  2  1  0  0  0  0
  9 12  1  6  0  0  0
  9 11  1  0  0  0  0
  9  3  1  0  0  0  0
 10 14  1  0  0  0  0
 10  9  1  0  0  0  0
 10 11  1  0  0  0  0
 11 15  1  1  0  0  0
 13 10  1  0  0  0  0
 16 17  1  0  0  0  0
 16 11  1  0  0  0  0
 18 17  1  0  0  0  0
 19  1  1  0  0  0  0
 19 22  1  0  0  0  0
 19 21  1  0  0  0  0
 20 19  1  0  0  0  0
M  END
>  <minimizedAffinity>
-4.45212793

$$$$

 OpenBabel03252501153D

 22 23  0  0  1  0  0  0  0  0999 V2000
   36.7430   28.9070   41.4130 C   0  0  0  0  0  0  0  0  0  0  0  0
   36.8110   27.6220   40.8420 C   0  0  0  0  0  0  0  0  0  0  0  0
   37.5730   26.7120   41.5610 C   0  0  0  0  0  0  0  0  0  0  0  0
   38.1910   27.0960   42.7340 N   0  0  0  0  0  0  0  0  0  0  0  0
   38.0800   28.3490   43.2210 C   0  0  0  0  0  0  0  0  0  0  0  0
   37.3430   29.2630   42.5450 N   0  0  0  0  0  0  0  0  0  0  0  0
   36.3260   27.3560   39.9360 H   0  0  0  0  0  0  0  0  0  0  0  0
   38.5800   28.6030   44.1410 H   0  0  0  0  0  0  0  0  0  0  0  0
   37.7460   25.3080   41.0890 C   0  0  1  0  0  0  0  0  0  0  0  0
   37.7690   24.3040   42.1980 C   0  0  0  0  0  0  0  0  0  0  0  0
   36.6020   24.3880   41.1530 C   0  0  2  0  0  0  0  0  0  0  0  0
   38.4660   25.2480   40.2490 H   0  0  0  0  0  0  0  0  0  0  0  0
   38.4250   23.4130   42.1300 H   0  0  0  0  0  0  0  0  0  0  0  0
   37.4900   24.5910   43.2210 H   0  0  0  0  0  0  0  0  0  0  0  0
   35.6440   24.7390   41.5490 H   0  0  0  0  0  0  0  0  0  0  0  0
   36.6410   23.2760   40.1210 C   0  0  0  0  0  2  0  0  0  0  0  0
   35.3540   23.0830   39.3890 C   0  0  0  0  0  2  0  0  0  0  0  0
   35.4350   22.0690   38.8970 H   0  0  0  0  0  0  0  0  0  0  0  0
   35.9180   29.9230   40.6830 C   0  0  0  0  0  0  0  0  0  0  0  0
   36.5520   30.1810   39.4770 F   0  0  0  0  0  0  0  0  0  0  0  0
   35.9230   31.0820   41.4120 F   0  0  0  0  0  0  0  0  0  0  0  0
   34.6620   29.4440   40.4140 F   0  0  0  0  0  0  0  0  0  0  0  0
  1  6  1  0  0  0  0
  2  1  2  0  0  0  0
  2  3  1  0  0  0  0
  3  4  2  0  0  0  0
  4  5  1  0  0  0  0
  5  8  1  0  0  0  0
  6  5  2  0  0  0  0
  7  2  1  0  0  0  0
  9 12  1  6  0  0  0
  9 11  1  0  0  0  0
  9  3  1  0  0  0  0
  9 10  1  0  0  0  0
 10 14  1  0  0  0  0
 11 15  1  1  0  0  0
 11 10  1  0  0  0  0
 13 10  1  0  0  0  0
 16 11  1  0  0  0  0
 17 16  1  0  0  0  0
 18 17  1  0  0  0  0
 19 21  1  0  0  0  0
 19  1  1  0  0  0  0
 20 19  1  0  0  0  0
 22 19  1  0  0  0  0
M  END
>  <minimizedAffinity>
-4.41362762

$$$$

 OpenBabel03252501153D

 22 23  0  0  1  0  0  0  0  0999 V2000
   37.2510   26.7570   42.0850 C   0  0  0  0  0  0  0  0  0  0  0  0
   36.8430   27.5740   41.0130 C   0  0  0  0  0  0  0  0  0  0  0  0
   36.8700   28.9340   41.2830 C   0  0  0  0  0  0  0  0  0  0  0  0
   37.2730   29.3900   42.5220 N   0  0  0  0  0  0  0  0  0  0  0  0
   37.6510   28.5440   43.5040 C   0  0  0  0  0  0  0  0  0  0  0  0
   37.6370   27.2090   43.2740 N   0  0  0  0  0  0  0  0  0  0  0  0
   36.5370   27.1950   40.0710 H   0  0  0  0  0  0  0  0  0  0  0  0
   37.9590   28.9460   44.4560 H   0  0  0  0  0  0  0  0  0  0  0  0
   36.4660   29.9340   40.2520 C   0  0  1  0  0  0  0  0  0  0  0  0
   36.6670   31.3520   40.6850 C   0  0  0  0  0  0  0  0  0  0  0  0
   37.5090   30.6860   39.5410 C   0  0  2  0  0  0  0  0  0  0  0  0
   35.5430   29.6230   39.7260 H   0  0  0  0  0  0  0  0  0  0  0  0
   35.9490   32.1370   40.3730 H   0  0  0  0  0  0  0  0  0  0  0  0
   37.2350   31.5870   41.5950 H   0  0  0  0  0  0  0  0  0  0  0  0
   38.5630   30.5110   39.7780 H   0  0  0  0  0  0  0  0  0  0  0  0
   37.1040   31.1480   38.1530 C   0  0  0  0  0  2  0  0  0  0  0  0
   36.8140   30.0310   37.2040 C   0  0  0  0  0  2  0  0  0  0  0  0
   36.8260   30.4980   36.1760 H   0  0  0  0  0  0  0  0  0  0  0  0
   37.2550   25.2790   41.8390 C   0  0  0  0  0  0  0  0  0  0  0  0
   36.3500   24.7100   42.7220 F   0  0  0  0  0  0  0  0  0  0  0  0
   38.4980   24.7970   42.1490 F   0  0  0  0  0  0  0  0  0  0  0  0
   36.8510   24.9860   40.5610 F   0  0  0  0  0  0  0  0  0  0  0  0
  1  6  1  0  0  0  0
  2  3  1  0  0  0  0
  2  1  2  0  0  0  0
  3  4  2  0  0  0  0
  4  5  1  0  0  0  0
  5  8  1  0  0  0  0
  6  5  2  0  0  0  0
  7  2  1  0  0  0  0
  9 12  1  6  0  0  0
  9 10  1  0  0  0  0
  9  3  1  0  0  0  0
 10 14  1  0  0  0  0
 11 15  1  1  0  0  0
 11  9  1  0  0  0  0
 11 10  1  0  0  0  0
 13 10  1  0  0  0  0
 16 11  1  0  0  0  0
 17 16  1  0  0  0  0
 18 17  1  0  0  0  0
 19  1  1  0  0  0  0
 19 21  1  0  0  0  0
 19 20  1  0  0  0  0
 22 19  1  0  0  0  0
M  END
>  <minimizedAffinity>
-4.39063025

$$$$

 OpenBabel03252501153D

 22 23  0  0  1  0  0  0  0  0999 V2000
   37.8970   26.6390   42.3600 C   0  0  0  0  0  0  0  0  0  0  0  0
   36.8720   27.0930   41.5080 C   0  0  0  0  0  0  0  0  0  0  0  0
   36.5870   28.4460   41.6180 C   0  0  0  0  0  0  0  0  0  0  0  0
   37.2860   29.2340   42.5110 N   0  0  0  0  0  0  0  0  0  0  0  0
   38.2580   28.7280   43.2980 C   0  0  0  0  0  0  0  0  0  0  0  0
   38.5620   27.4100   43.2160 N   0  0  0  0  0  0  0  0  0  0  0  0
   36.3500   26.4630   40.8320 H   0  0  0  0  0  0  0  0  0  0  0  0
   38.7770   29.3810   43.9800 H   0  0  0  0  0  0  0  0  0  0  0  0
   35.5250   29.0820   40.7850 C   0  0  1  0  0  0  0  0  0  0  0  0
   36.0300   30.1990   39.9270 C   0  0  0  0  0  0  0  0  0  0  0  0
   35.5160   28.8400   39.3350 C   0  0  2  0  0  0  0  0  0  0  0  0
   34.5730   29.1750   41.3420 H   0  0  0  0  0  0  0  0  0  0  0  0
   35.3940   31.0870   39.7380 H   0  0  0  0  0  0  0  0  0  0  0  0
   37.1080   30.3730   39.8070 H   0  0  0  0  0  0  0  0  0  0  0  0
   36.2860   28.2050   38.8860 H   0  0  0  0  0  0  0  0  0  0  0  0
   34.1440   28.9450   38.6980 C   0  0  0  0  0  2  0  0  0  0  0  0
   34.0830   28.4210   37.3000 C   0  0  0  0  0  2  0  0  0  0  0  0
   33.1230   28.8270   36.8660 H   0  0  0  0  0  0  0  0  0  0  0  0
   38.2540   25.1880   42.2670 C   0  0  0  0  0  0  0  0  0  0  0  0
   39.2050   24.9330   43.2450 F   0  0  0  0  0  0  0  0  0  0  0  0
   38.8400   24.9670   41.0500 F   0  0  0  0  0  0  0  0  0  0  0  0
   37.1650   24.3900   42.5100 F   0  0  0  0  0  0  0  0  0  0  0  0
  1  6  1  0  0  0  0
  2  3  1  0  0  0  0
  2  1  2  0  0  0  0
  3  4  2  0  0  0  0
  4  5  1  0  0  0  0
  5  8  1  0  0  0  0
  6  5  2  0  0  0  0
  7  2  1  0  0  0  0
  9 12  1  1  0  0  0
  9  3  1  0  0  0  0
 10  9  1  0  0  0  0
 11 15  1  6  0  0  0
 11 10  1  0  0  0  0
 11  9  1  0  0  0  0
 13 10  1  0  0  0  0
 14 10  1  0  0  0  0
 16 11  1  0  0  0  0
 17 16  1  0  0  0  0
 18 17  1  0  0  0  0
 19  1  1  0  0  0  0
 19 22  1  0  0  0  0
 19 20  1  0  0  0  0
 21 19  1  0  0  0  0
M  END
>  <minimizedAffinity>
-4.36460876

$$$$

 OpenBabel03252501153D

 22 23  0  0  1  0  0  0  0  0999 V2000
   38.4240   25.9920   42.5070 C   0  0  0  0  0  0  0  0  0  0  0  0
   37.9670   27.2990   42.2520 C   0  0  0  0  0  0  0  0  0  0  0  0
   38.8140   28.3030   42.7010 C   0  0  0  0  0  0  0  0  0  0  0  0
   39.9950   27.9830   43.3390 N   0  0  0  0  0  0  0  0  0  0  0  0
   40.3680   26.7030   43.5490 C   0  0  0  0  0  0  0  0  0  0  0  0
   39.5650   25.6980   43.1240 N   0  0  0  0  0  0  0  0  0  0  0  0
   37.0520   27.5150   41.7600 H   0  0  0  0  0  0  0  0  0  0  0  0
   41.2990   26.5010   44.0520 H   0  0  0  0  0  0  0  0  0  0  0  0
   38.4730   29.7430   42.5090 C   0  0  1  0  0  0  0  0  0  0  0  0
   39.6280   30.6650   42.7400 C   0  0  0  0  0  0  0  0  0  0  0  0
   38.9880   30.4450   41.3250 C   0  0  2  0  0  0  0  0  0  0  0  0
   37.4660   29.9770   42.9050 H   0  0  0  0  0  0  0  0  0  0  0  0
   39.4640   31.6580   43.2040 H   0  0  0  0  0  0  0  0  0  0  0  0
   40.6480   30.2720   42.8480 H   0  0  0  0  0  0  0  0  0  0  0  0
   39.6150   29.9110   40.6060 H   0  0  0  0  0  0  0  0  0  0  0  0
   38.1250   31.6080   40.8710 C   0  0  0  0  0  2  0  0  0  0  0  0
   36.6700   31.2840   40.7790 C   0  0  0  0  0  2  0  0  0  0  0  0
   36.2140   32.1130   40.1630 H   0  0  0  0  0  0  0  0  0  0  0  0
   37.5530   24.8710   42.0280 C   0  0  0  0  0  0  0  0  0  0  0  0
   36.3790   24.9150   42.7660 F   0  0  0  0  0  0  0  0  0  0  0  0
   38.1800   23.6890   42.3150 F   0  0  0  0  0  0  0  0  0  0  0  0
   37.2330   25.0200   40.7030 F   0  0  0  0  0  0  0  0  0  0  0  0
  1  6  1  0  0  0  0
  2  1  2  0  0  0  0
  2  3  1  0  0  0  0
  3  4  2  0  0  0  0
  4  5  1  0  0  0  0
  5  8  1  0  0  0  0
  6  5  2  0  0  0  0
  7  2  1  0  0  0  0
  9  3  1  0  0  0  0
  9 10  1  0  0  0  0
  9 12  1  1  0  0  0
 10 14  1  0  0  0  0
 10 13  1  0  0  0  0
 11 15  1  6  0  0  0
 11  9  1  0  0  0  0
 11 10  1  0  0  0  0
 16 11  1  0  0  0  0
 17 16  1  0  0  0  0
 18 17  1  0  0  0  0
 19 21  1  0  0  0  0
 19  1  1  0  0  0  0
 19 20  1  0  0  0  0
 22 19  1  0  0  0  0
M  END
>  <minimizedAffinity>
-4.13692999

$$$$
