
 OpenBabel03252500223D

 30 31  0  0  1  0  0  0  0  0999 V2000
   36.6960   28.4730   40.4540 C   0  0  1  0  0  0  0  0  0  0  0  0
   36.1810   27.8920   39.1280 C   0  0  0  0  0  0  0  0  0  0  0  0
   36.1810   26.4540   38.9160 C   0  0  0  0  0  0  0  0  0  0  0  0
   36.7300   25.6450   40.0810 C   0  0  0  0  0  0  0  0  0  0  0  0
   38.0040   26.3450   40.4820 C   0  0  0  0  0  0  0  0  0  0  0  0
   37.5330   27.5910   41.2410 C   0  0  2  0  0  0  0  0  0  0  0  0
   35.7020   28.6910   40.9330 H   0  0  0  0  0  0  0  0  0  0  0  0
   35.8280   28.5360   38.3720 H   0  0  0  0  0  0  0  0  0  0  0  0
   35.8070   26.0950   37.9650 H   0  0  0  0  0  0  0  0  0  0  0  0
   37.0220   24.6890   39.5950 H   0  0  0  0  0  0  0  0  0  0  0  0
   35.9770   25.5410   40.8510 H   0  0  0  0  0  0  0  0  0  0  0  0
   38.6300   25.7610   41.1680 H   0  0  0  0  0  0  0  0  0  0  0  0
   38.5240   26.6820   39.5860 H   0  0  0  0  0  0  0  0  0  0  0  0
   38.4710   28.1110   41.5440 H   0  0  0  0  0  0  0  0  0  0  0  0
   38.4230   29.8550   39.2510 C   0  0  0  0  0  0  0  0  0  0  0  0
   37.2800   29.7900   40.0830 C   0  0  0  0  0  0  0  0  0  0  0  0
   36.8020   31.0050   40.5900 C   0  0  0  0  0  0  0  0  0  0  0  0
   37.4200   32.1650   40.2840 N   0  0  0  0  0  0  0  0  0  0  0  0
   38.5160   32.1640   39.4770 C   0  0  0  0  0  0  0  0  0  0  0  0
   39.0150   31.0130   38.9640 N   0  0  0  0  0  0  0  0  0  0  0  0
   39.1730   33.3580   39.1250 N   0  0  0  0  0  0  0  0  0  0  0  0
   38.8680   28.9780   38.8040 H   0  0  0  0  0  0  0  0  0  0  0  0
   39.3640   33.4950   38.0910 H   0  0  0  0  0  0  0  0  0  0  0  0
   39.4500   34.0600   39.8400 H   0  0  0  0  0  0  0  0  0  0  0  0
   35.6430   30.9540   41.3970 N   0  0  0  0  0  0  0  0  0  0  0  0
   35.7990   30.9370   42.4220 H   0  0  0  0  0  0  0  0  0  0  0  0
   34.6360   30.9300   41.0630 H   0  0  0  0  0  0  0  0  0  0  0  0
   36.9160   27.1910   42.5760 C   0  0  0  0  0  2  0  0  0  0  0  0
   37.2780   28.1670   43.6760 C   0  0  0  0  0  2  0  0  0  0  0  0
   38.3160   27.9410   44.0100 H   0  0  0  0  0  0  0  0  0  0  0  0
  1  7  1  1  0  0  0
  1  6  1  0  0  0  0
  2  1  1  0  0  0  0
  3  2  2  0  0  0  0
  3  4  1  0  0  0  0
  4  5  1  0  0  0  0
  4 11  1  0  0  0  0
  5 12  1  0  0  0  0
  5  6  1  0  0  0  0
  6 14  1  1  0  0  0
  6 28  1  0  0  0  0
  8  2  1  0  0  0  0
  9  3  1  0  0  0  0
 10  4  1  0  0  0  0
 13  5  1  0  0  0  0
 15 16  1  0  0  0  0
 16  1  1  0  0  0  0
 16 17  2  0  0  0  0
 17 25  1  0  0  0  0
 18 17  1  0  0  0  0
 19 18  2  0  0  0  0
 20 15  2  0  0  0  0
 20 19  1  0  0  0  0
 21 19  1  0  0  0  0
 21 24  1  0  0  0  0
 22 15  1  0  0  0  0
 23 21  1  0  0  0  0
 25 26  1  0  0  0  0
 27 25  1  0  0  0  0
 28 29  1  0  0  0  0
 29 30  1  0  0  0  0
M  END
>  <minimizedAffinity>
-5.2653327

$$$$

 OpenBabel03252500223D

 30 31  0  0  1  0  0  0  0  0999 V2000
   38.4680   29.1380   42.0050 C   0  0  1  0  0  0  0  0  0  0  0  0
   37.4920   29.0090   43.1840 C   0  0  0  0  0  0  0  0  0  0  0  0
   37.0310   27.6960   43.6050 C   0  0  0  0  0  0  0  0  0  0  0  0
   37.5830   26.5410   42.7830 C   0  0  0  0  0  0  0  0  0  0  0  0
   37.4250   26.9670   41.3460 C   0  0  0  0  0  0  0  0  0  0  0  0
   38.5440   27.9910   41.1240 C   0  0  2  0  0  0  0  0  0  0  0  0
   39.4120   29.3130   42.5930 H   0  0  0  0  0  0  0  0  0  0  0  0
   37.1550   29.8720   43.6870 H   0  0  0  0  0  0  0  0  0  0  0  0
   36.3440   27.6590   44.4410 H   0  0  0  0  0  0  0  0  0  0  0  0
   36.8400   25.7360   42.9680 H   0  0  0  0  0  0  0  0  0  0  0  0
   38.5880   26.3010   43.1050 H   0  0  0  0  0  0  0  0  0  0  0  0
   37.5780   26.1540   40.6260 H   0  0  0  0  0  0  0  0  0  0  0  0
   36.4740   27.4880   41.2300 H   0  0  0  0  0  0  0  0  0  0  0  0
   38.4340   28.3070   40.0610 H   0  0  0  0  0  0  0  0  0  0  0  0
   36.9920   30.5460   40.5290 C   0  0  0  0  0  0  0  0  0  0  0  0
   38.1230   30.4400   41.3740 C   0  0  0  0  0  0  0  0  0  0  0  0
   38.9190   31.5860   41.5030 C   0  0  0  0  0  0  0  0  0  0  0  0
   38.6010   32.7190   40.8430 N   0  0  0  0  0  0  0  0  0  0  0  0
   37.5000   32.7590   40.0440 C   0  0  0  0  0  0  0  0  0  0  0  0
   36.7000   31.6770   39.8880 N   0  0  0  0  0  0  0  0  0  0  0  0
   37.1310   33.9310   39.3570 N   0  0  0  0  0  0  0  0  0  0  0  0
   36.3090   29.7250   40.3650 H   0  0  0  0  0  0  0  0  0  0  0  0
   36.1190   34.2310   39.4610 H   0  0  0  0  0  0  0  0  0  0  0  0
   37.8150   34.4660   38.7850 H   0  0  0  0  0  0  0  0  0  0  0  0
   40.0330   31.4990   42.3690 N   0  0  0  0  0  0  0  0  0  0  0  0
   40.9440   31.2870   41.9220 H   0  0  0  0  0  0  0  0  0  0  0  0
   40.0320   31.6290   43.4210 H   0  0  0  0  0  0  0  0  0  0  0  0
   39.9010   27.2970   41.1360 C   0  0  0  0  0  2  0  0  0  0  0  0
   40.8920   28.0190   42.0230 C   0  0  0  0  0  2  0  0  0  0  0  0
   41.2730   28.9040   41.4640 H   0  0  0  0  0  0  0  0  0  0  0  0
  1  7  1  1  0  0  0
  1  2  1  0  0  0  0
  2  3  2  0  0  0  0
  2  8  1  0  0  0  0
  3  9  1  0  0  0  0
  4 10  1  0  0  0  0
  4 11  1  0  0  0  0
  4  3  1  0  0  0  0
  5  4  1  0  0  0  0
  6 14  1  6  0  0  0
  6 28  1  0  0  0  0
  6  5  1  0  0  0  0
  6  1  1  0  0  0  0
 12  5  1  0  0  0  0
 13  5  1  0  0  0  0
 15 16  1  0  0  0  0
 16 17  2  0  0  0  0
 16  1  1  0  0  0  0
 17 25  1  0  0  0  0
 18 17  1  0  0  0  0
 19 18  2  0  0  0  0
 20 19  1  0  0  0  0
 20 15  2  0  0  0  0
 21 23  1  0  0  0  0
 21 19  1  0  0  0  0
 22 15  1  0  0  0  0
 24 21  1  0  0  0  0
 25 27  1  0  0  0  0
 26 25  1  0  0  0  0
 28 29  1  0  0  0  0
 30 29  1  0  0  0  0
M  END
>  <minimizedAffinity>
-5.04089499

$$$$

 OpenBabel03252500223D

 30 31  0  0  1  0  0  0  0  0999 V2000
   37.7950   30.8040   40.8010 C   0  0  1  0  0  0  0  0  0  0  0  0
   36.4170   30.8350   40.1230 C   0  0  0  0  0  0  0  0  0  0  0  0
   35.4800   29.7430   40.3300 C   0  0  0  0  0  0  0  0  0  0  0  0
   35.9980   28.6300   41.2290 C   0  0  0  0  0  0  0  0  0  0  0  0
   37.3920   28.3400   40.7340 C   0  0  0  0  0  0  0  0  0  0  0  0
   38.2370   29.5040   41.2630 C   0  0  2  0  0  0  0  0  0  0  0  0
   37.5820   31.5270   41.6360 H   0  0  0  0  0  0  0  0  0  0  0  0
   36.1500   31.6480   39.5060 H   0  0  0  0  0  0  0  0  0  0  0  0
   34.5210   29.8130   39.8310 H   0  0  0  0  0  0  0  0  0  0  0  0
   35.3620   27.7680   40.9370 H   0  0  0  0  0  0  0  0  0  0  0  0
   35.9080   28.9180   42.2680 H   0  0  0  0  0  0  0  0  0  0  0  0
   37.8190   27.4150   41.1400 H   0  0  0  0  0  0  0  0  0  0  0  0
   37.4030   28.3930   39.6450 H   0  0  0  0  0  0  0  0  0  0  0  0
   39.2700   29.2930   40.9040 H   0  0  0  0  0  0  0  0  0  0  0  0
   39.1040   30.8880   38.6520 C   0  0  0  0  0  0  0  0  0  0  0  0
   38.6940   31.5150   39.8520 C   0  0  0  0  0  0  0  0  0  0  0  0
   39.2440   32.7750   40.1220 C   0  0  0  0  0  0  0  0  0  0  0  0
   40.1180   33.3390   39.2620 N   0  0  0  0  0  0  0  0  0  0  0  0
   40.4740   32.6860   38.1220 C   0  0  0  0  0  0  0  0  0  0  0  0
   39.9690   31.4660   37.8200 N   0  0  0  0  0  0  0  0  0  0  0  0
   41.3690   33.2540   37.1980 N   0  0  0  0  0  0  0  0  0  0  0  0
   38.7360   29.9190   38.3460 H   0  0  0  0  0  0  0  0  0  0  0  0
   41.0540   33.2530   36.1840 H   0  0  0  0  0  0  0  0  0  0  0  0
   42.2820   33.6520   37.4960 H   0  0  0  0  0  0  0  0  0  0  0  0
   38.8170   33.4220   41.3030 N   0  0  0  0  0  0  0  0  0  0  0  0
   39.4310   33.3140   42.1320 H   0  0  0  0  0  0  0  0  0  0  0  0
   37.9390   34.0040   41.4280 H   0  0  0  0  0  0  0  0  0  0  0  0
   38.3750   29.4080   42.7780 C   0  0  0  0  0  2  0  0  0  0  0  0
   39.0790   28.1350   43.1970 C   0  0  0  0  0  2  0  0  0  0  0  0
   38.3450   27.3000   43.1420 H   0  0  0  0  0  0  0  0  0  0  0  0
  1  6  1  0  0  0  0
  1  7  1  1  0  0  0
  2  3  2  0  0  0  0
  2  1  1  0  0  0  0
  3  4  1  0  0  0  0
  4 11  1  0  0  0  0
  5 12  1  0  0  0  0
  5  4  1  0  0  0  0
  5  6  1  0  0  0  0
  6 14  1  6  0  0  0
  6 28  1  0  0  0  0
  8  2  1  0  0  0  0
  9  3  1  0  0  0  0
 10  4  1  0  0  0  0
 13  5  1  0  0  0  0
 15 16  1  0  0  0  0
 16 17  2  0  0  0  0
 16  1  1  0  0  0  0
 17 25  1  0  0  0  0
 18 17  1  0  0  0  0
 19 18  2  0  0  0  0
 20 19  1  0  0  0  0
 20 15  2  0  0  0  0
 21 24  1  0  0  0  0
 21 19  1  0  0  0  0
 22 15  1  0  0  0  0
 23 21  1  0  0  0  0
 25 27  1  0  0  0  0
 25 26  1  0  0  0  0
 28 29  1  0  0  0  0
 30 29  1  0  0  0  0
M  END
>  <minimizedAffinity>
-4.98199892

$$$$

 OpenBabel03252500223D

 30 31  0  0  1  0  0  0  0  0999 V2000
   36.5570   27.7610   40.4220 C   0  0  1  0  0  0  0  0  0  0  0  0
   36.2470   26.6750   39.3800 C   0  0  0  0  0  0  0  0  0  0  0  0
   36.5650   25.2850   39.6630 C   0  0  0  0  0  0  0  0  0  0  0  0
   37.2130   25.0500   41.0190 C   0  0  0  0  0  0  0  0  0  0  0  0
   38.2840   26.1030   41.1340 C   0  0  0  0  0  0  0  0  0  0  0  0
   37.5200   27.3960   41.4410 C   0  0  2  0  0  0  0  0  0  0  0  0
   35.5150   27.9030   40.8230 H   0  0  0  0  0  0  0  0  0  0  0  0
   35.8050   26.9370   38.4600 H   0  0  0  0  0  0  0  0  0  0  0  0
   36.3270   24.5580   38.8960 H   0  0  0  0  0  0  0  0  0  0  0  0
   37.7270   24.0750   40.8760 H   0  0  0  0  0  0  0  0  0  0  0  0
   36.4590   25.0450   41.7960 H   0  0  0  0  0  0  0  0  0  0  0  0
   38.9830   25.9320   41.9620 H   0  0  0  0  0  0  0  0  0  0  0  0
   38.7670   26.2290   40.1650 H   0  0  0  0  0  0  0  0  0  0  0  0
   38.3080   28.1790   41.5310 H   0  0  0  0  0  0  0  0  0  0  0  0
   37.7280   28.8880   38.5010 C   0  0  0  0  0  0  0  0  0  0  0  0
   36.8650   28.9740   39.6180 C   0  0  0  0  0  0  0  0  0  0  0  0
   36.4030   30.2520   39.9590 C   0  0  0  0  0  0  0  0  0  0  0  0
   36.7800   31.3300   39.2400 N   0  0  0  0  0  0  0  0  0  0  0  0
   37.6130   31.1840   38.1740 C   0  0  0  0  0  0  0  0  0  0  0  0
   38.0850   29.9680   37.8070 N   0  0  0  0  0  0  0  0  0  0  0  0
   38.0100   32.2860   37.3940 N   0  0  0  0  0  0  0  0  0  0  0  0
   38.1350   27.9510   38.1500 H   0  0  0  0  0  0  0  0  0  0  0  0
   37.9000   32.1750   36.3440 H   0  0  0  0  0  0  0  0  0  0  0  0
   38.3850   33.1540   37.8260 H   0  0  0  0  0  0  0  0  0  0  0  0
   35.5160   30.3430   41.0550 N   0  0  0  0  0  0  0  0  0  0  0  0
   35.9410   30.5850   41.9690 H   0  0  0  0  0  0  0  0  0  0  0  0
   34.4660   30.1910   41.0380 H   0  0  0  0  0  0  0  0  0  0  0  0
   36.9330   27.3380   42.8460 C   0  0  0  0  0  2  0  0  0  0  0  0
   37.3520   28.5300   43.6790 C   0  0  0  0  0  2  0  0  0  0  0  0
   38.3930   28.3550   44.0330 H   0  0  0  0  0  0  0  0  0  0  0  0
  1  7  1  1  0  0  0
  1  6  1  0  0  0  0
  2  3  2  0  0  0  0
  2  1  1  0  0  0  0
  3  4  1  0  0  0  0
  4  5  1  0  0  0  0
  4 11  1  0  0  0  0
  5  6  1  0  0  0  0
  5 12  1  0  0  0  0
  6 14  1  1  0  0  0
  6 28  1  0  0  0  0
  8  2  1  0  0  0  0
  9  3  1  0  0  0  0
 10  4  1  0  0  0  0
 13  5  1  0  0  0  0
 15 16  1  0  0  0  0
 16 17  2  0  0  0  0
 16  1  1  0  0  0  0
 17 25  1  0  0  0  0
 18 17  1  0  0  0  0
 19 18  2  0  0  0  0
 20 19  1  0  0  0  0
 20 15  2  0  0  0  0
 21 24  1  0  0  0  0
 21 19  1  0  0  0  0
 22 15  1  0  0  0  0
 23 21  1  0  0  0  0
 25 26  1  0  0  0  0
 27 25  1  0  0  0  0
 28 29  1  0  0  0  0
 29 30  1  0  0  0  0
M  END
>  <minimizedAffinity>
-4.97062969

$$$$

 OpenBabel03252500223D

 30 31  0  0  1  0  0  0  0  0999 V2000
   37.4520   29.4910   41.5230 C   0  0  1  0  0  0  0  0  0  0  0  0
   36.3820   28.4260   41.8090 C   0  0  0  0  0  0  0  0  0  0  0  0
   36.6180   27.4150   42.8270 C   0  0  0  0  0  0  0  0  0  0  0  0
   37.9670   27.5220   43.5220 C   0  0  0  0  0  0  0  0  0  0  0  0
   38.9680   27.7170   42.4120 C   0  0  0  0  0  0  0  0  0  0  0  0
   38.7890   29.1780   41.9850 C   0  0  2  0  0  0  0  0  0  0  0  0
   36.9780   30.3490   42.0750 H   0  0  0  0  0  0  0  0  0  0  0  0
   35.4790   28.4260   41.2670 H   0  0  0  0  0  0  0  0  0  0  0  0
   35.8330   26.6870   42.9910 H   0  0  0  0  0  0  0  0  0  0  0  0
   38.1160   26.4950   43.9200 H   0  0  0  0  0  0  0  0  0  0  0  0
   37.9360   28.2930   44.2810 H   0  0  0  0  0  0  0  0  0  0  0  0
   40.0100   27.5950   42.7320 H   0  0  0  0  0  0  0  0  0  0  0  0
   38.6890   27.0900   41.5650 H   0  0  0  0  0  0  0  0  0  0  0  0
   39.5290   29.3290   41.1670 H   0  0  0  0  0  0  0  0  0  0  0  0
   37.5590   28.7920   39.1070 C   0  0  0  0  0  0  0  0  0  0  0  0
   37.3010   29.7920   40.0740 C   0  0  0  0  0  0  0  0  0  0  0  0
   36.9900   31.0700   39.5890 C   0  0  0  0  0  0  0  0  0  0  0  0
   36.9450   31.3060   38.2610 N   0  0  0  0  0  0  0  0  0  0  0  0
   37.2020   30.3010   37.3790 C   0  0  0  0  0  0  0  0  0  0  0  0
   37.5080   29.0510   37.8010 N   0  0  0  0  0  0  0  0  0  0  0  0
   37.1460   30.5110   35.9890 N   0  0  0  0  0  0  0  0  0  0  0  0
   37.8020   27.7730   39.3740 H   0  0  0  0  0  0  0  0  0  0  0  0
   36.5730   29.8100   35.4360 H   0  0  0  0  0  0  0  0  0  0  0  0
   37.6380   31.3080   35.5370 H   0  0  0  0  0  0  0  0  0  0  0  0
   36.7010   32.0670   40.5470 N   0  0  0  0  0  0  0  0  0  0  0  0
   37.4870   32.6910   40.8100 H   0  0  0  0  0  0  0  0  0  0  0  0
   35.7690   32.2430   41.0220 H   0  0  0  0  0  0  0  0  0  0  0  0
   39.2930   30.1110   43.0800 C   0  0  0  0  0  2  0  0  0  0  0  0
   40.2410   31.1560   42.5340 C   0  0  0  0  0  2  0  0  0  0  0  0
   41.2360   30.6770   42.3890 H   0  0  0  0  0  0  0  0  0  0  0  0
  1  2  1  0  0  0  0
  1  6  1  0  0  0  0
  1  7  1  1  0  0  0
  2  3  2  0  0  0  0
  3  9  1  0  0  0  0
  3  4  1  0  0  0  0
  4 10  1  0  0  0  0
  4 11  1  0  0  0  0
  5 12  1  0  0  0  0
  5  4  1  0  0  0  0
  6 14  1  6  0  0  0
  6  5  1  0  0  0  0
  6 28  1  0  0  0  0
  8  2  1  0  0  0  0
 13  5  1  0  0  0  0
 15 22  1  0  0  0  0
 15 16  1  0  0  0  0
 16  1  1  0  0  0  0
 17 16  2  0  0  0  0
 17 25  1  0  0  0  0
 18 17  1  0  0  0  0
 19 20  1  0  0  0  0
 19 18  2  0  0  0  0
 20 15  2  0  0  0  0
 21 19  1  0  0  0  0
 23 21  1  0  0  0  0
 24 21  1  0  0  0  0
 25 26  1  0  0  0  0
 25 27  1  0  0  0  0
 29 28  1  0  0  0  0
 30 29  1  0  0  0  0
M  END
>  <minimizedAffinity>
-4.94656372

$$$$

 OpenBabel03252500223D

 30 31  0  0  1  0  0  0  0  0999 V2000
   38.0610   28.6970   41.3760 C   0  0  1  0  0  0  0  0  0  0  0  0
   38.6350   27.9450   40.1650 C   0  0  0  0  0  0  0  0  0  0  0  0
   39.5030   26.7960   40.3680 C   0  0  0  0  0  0  0  0  0  0  0  0
   39.7700   26.4590   41.8280 C   0  0  0  0  0  0  0  0  0  0  0  0
   40.1000   27.7750   42.4840 C   0  0  0  0  0  0  0  0  0  0  0  0
   38.7470   28.4790   42.6330 C   0  0  2  0  0  0  0  0  0  0  0  0
   37.0200   28.2690   41.3550 H   0  0  0  0  0  0  0  0  0  0  0  0
   38.4000   28.2600   39.1880 H   0  0  0  0  0  0  0  0  0  0  0  0
   39.8810   26.3000   39.4830 H   0  0  0  0  0  0  0  0  0  0  0  0
   40.7150   25.8760   41.7720 H   0  0  0  0  0  0  0  0  0  0  0  0
   38.9340   25.9110   42.2430 H   0  0  0  0  0  0  0  0  0  0  0  0
   40.5270   27.6710   43.4890 H   0  0  0  0  0  0  0  0  0  0  0  0
   40.7080   28.3710   41.8030 H   0  0  0  0  0  0  0  0  0  0  0  0
   38.9840   29.4520   43.1210 H   0  0  0  0  0  0  0  0  0  0  0  0
   39.1020   30.8770   40.6690 C   0  0  0  0  0  0  0  0  0  0  0  0
   37.9410   30.1070   40.9170 C   0  0  0  0  0  0  0  0  0  0  0  0
   36.7120   30.7660   40.7910 C   0  0  0  0  0  0  0  0  0  0  0  0
   36.6660   32.0710   40.4490 N   0  0  0  0  0  0  0  0  0  0  0  0
   37.8190   32.7590   40.2220 C   0  0  0  0  0  0  0  0  0  0  0  0
   39.0310   32.1640   40.3330 N   0  0  0  0  0  0  0  0  0  0  0  0
   37.8050   34.1150   39.8470 N   0  0  0  0  0  0  0  0  0  0  0  0
   40.0990   30.4640   40.7330 H   0  0  0  0  0  0  0  0  0  0  0  0
   38.3930   34.3690   39.0010 H   0  0  0  0  0  0  0  0  0  0  0  0
   37.2480   34.8210   40.3700 H   0  0  0  0  0  0  0  0  0  0  0  0
   35.5460   29.9980   41.0070 N   0  0  0  0  0  0  0  0  0  0  0  0
   35.1320   30.0520   41.9560 H   0  0  0  0  0  0  0  0  0  0  0  0
   35.0540   29.3760   40.3020 H   0  0  0  0  0  0  0  0  0  0  0  0
   37.8970   27.7680   43.6800 C   0  0  0  0  0  2  0  0  0  0  0  0
   36.5220   27.4250   43.1480 C   0  0  0  0  0  2  0  0  0  0  0  0
   35.9020   28.3500   43.1730 H   0  0  0  0  0  0  0  0  0  0  0  0
  1  7  1  1  0  0  0
  1  6  1  0  0  0  0
  2  3  2  0  0  0  0
  2  1  1  0  0  0  0
  3  4  1  0  0  0  0
  4 11  1  0  0  0  0
  4  5  1  0  0  0  0
  5  6  1  0  0  0  0
  5 12  1  0  0  0  0
  6 14  1  1  0  0  0
  6 28  1  0  0  0  0
  8  2  1  0  0  0  0
  9  3  1  0  0  0  0
 10  4  1  0  0  0  0
 13  5  1  0  0  0  0
 15 22  1  0  0  0  0
 15 16  1  0  0  0  0
 16  1  1  0  0  0  0
 17 16  2  0  0  0  0
 17 25  1  0  0  0  0
 18 17  1  0  0  0  0
 19 20  1  0  0  0  0
 19 18  2  0  0  0  0
 20 15  2  0  0  0  0
 21 19  1  0  0  0  0
 21 24  1  0  0  0  0
 23 21  1  0  0  0  0
 25 26  1  0  0  0  0
 27 25  1  0  0  0  0
 29 30  1  0  0  0  0
 29 28  1  0  0  0  0
M  END
>  <minimizedAffinity>
-4.92904186

$$$$

 OpenBabel03252500223D

 30 31  0  0  1  0  0  0  0  0999 V2000
   37.1710   27.7210   41.0310 C   0  0  1  0  0  0  0  0  0  0  0  0
   37.7520   29.0860   41.4290 C   0  0  0  0  0  0  0  0  0  0  0  0
   38.2740   29.2900   42.7700 C   0  0  0  0  0  0  0  0  0  0  0  0
   38.1700   28.0750   43.6790 C   0  0  0  0  0  0  0  0  0  0  0  0
   36.7670   27.5590   43.4900 C   0  0  0  0  0  0  0  0  0  0  0  0
   36.7970   26.8540   42.1300 C   0  0  2  0  0  0  0  0  0  0  0  0
   38.0470   27.3380   40.4380 H   0  0  0  0  0  0  0  0  0  0  0  0
   37.7720   29.8750   40.7310 H   0  0  0  0  0  0  0  0  0  0  0  0
   38.6730   30.2700   43.0010 H   0  0  0  0  0  0  0  0  0  0  0  0
   38.2190   28.5260   44.6930 H   0  0  0  0  0  0  0  0  0  0  0  0
   38.9710   27.3790   43.4640 H   0  0  0  0  0  0  0  0  0  0  0  0
   36.4670   26.8150   44.2380 H   0  0  0  0  0  0  0  0  0  0  0  0
   36.0830   28.4040   43.4080 H   0  0  0  0  0  0  0  0  0  0  0  0
   35.7620   26.4670   41.9860 H   0  0  0  0  0  0  0  0  0  0  0  0
   35.1100   28.9970   40.3530 C   0  0  0  0  0  0  0  0  0  0  0  0
   36.1060   28.0410   40.0430 C   0  0  0  0  0  0  0  0  0  0  0  0
   35.9770   27.3740   38.8180 C   0  0  0  0  0  0  0  0  0  0  0  0
   34.9440   27.6480   37.9940 N   0  0  0  0  0  0  0  0  0  0  0  0
   34.0160   28.5800   38.3480 C   0  0  0  0  0  0  0  0  0  0  0  0
   34.1000   29.2500   39.5220 N   0  0  0  0  0  0  0  0  0  0  0  0
   32.9380   28.9020   37.5040 N   0  0  0  0  0  0  0  0  0  0  0  0
   35.1200   29.5720   41.2680 H   0  0  0  0  0  0  0  0  0  0  0  0
   32.7820   29.9360   37.3230 H   0  0  0  0  0  0  0  0  0  0  0  0
   32.3350   28.1660   37.0840 H   0  0  0  0  0  0  0  0  0  0  0  0
   36.9830   26.4390   38.4860 N   0  0  0  0  0  0  0  0  0  0  0  0
   36.7750   25.4460   38.7030 H   0  0  0  0  0  0  0  0  0  0  0  0
   37.9230   26.6480   38.0420 H   0  0  0  0  0  0  0  0  0  0  0  0
   37.6300   25.5800   42.2160 C   0  0  0  0  0  2  0  0  0  0  0  0
   36.9140   24.3980   41.6010 C   0  0  0  0  0  2  0  0  0  0  0  0
   36.1570   24.0340   42.3320 H   0  0  0  0  0  0  0  0  0  0  0  0
  1  7  1  6  0  0  0
  1  2  1  0  0  0  0
  1  6  1  0  0  0  0
  2  3  2  0  0  0  0
  3  9  1  0  0  0  0
  3  4  1  0  0  0  0
  4 10  1  0  0  0  0
  5  4  1  0  0  0  0
  5 12  1  0  0  0  0
  6 14  1  6  0  0  0
  6 28  1  0  0  0  0
  6  5  1  0  0  0  0
  8  2  1  0  0  0  0
 11  4  1  0  0  0  0
 13  5  1  0  0  0  0
 15 22  1  0  0  0  0
 16 15  1  0  0  0  0
 16  1  1  0  0  0  0
 17 16  2  0  0  0  0
 18 19  2  0  0  0  0
 18 17  1  0  0  0  0
 19 20  1  0  0  0  0
 20 15  2  0  0  0  0
 21 19  1  0  0  0  0
 23 21  1  0  0  0  0
 24 21  1  0  0  0  0
 25 26  1  0  0  0  0
 25 17  1  0  0  0  0
 27 25  1  0  0  0  0
 29 28  1  0  0  0  0
 29 30  1  0  0  0  0
M  END
>  <minimizedAffinity>
-4.88777876

$$$$

 OpenBabel03252500223D

 30 31  0  0  1  0  0  0  0  0999 V2000
   35.6900   28.8340   39.1770 C   0  0  1  0  0  0  0  0  0  0  0  0
   34.4600   29.0230   38.2770 C   0  0  0  0  0  0  0  0  0  0  0  0
   33.9960   27.9280   37.4410 C   0  0  0  0  0  0  0  0  0  0  0  0
   34.8280   26.6590   37.5450 C   0  0  0  0  0  0  0  0  0  0  0  0
   36.2610   27.1180   37.4550 C   0  0  0  0  0  0  0  0  0  0  0  0
   36.5570   27.7260   38.8300 C   0  0  2  0  0  0  0  0  0  0  0  0
   35.1550   28.6930   40.1570 H   0  0  0  0  0  0  0  0  0  0  0  0
   33.9520   29.9470   38.2650 H   0  0  0  0  0  0  0  0  0  0  0  0
   33.1240   28.1120   36.8260 H   0  0  0  0  0  0  0  0  0  0  0  0
   34.5920   26.1360   36.5940 H   0  0  0  0  0  0  0  0  0  0  0  0
   34.5560   26.1070   38.4350 H   0  0  0  0  0  0  0  0  0  0  0  0
   36.9760   26.3010   37.2980 H   0  0  0  0  0  0  0  0  0  0  0  0
   36.3350   27.9190   36.7180 H   0  0  0  0  0  0  0  0  0  0  0  0
   37.6170   28.0640   38.7710 H   0  0  0  0  0  0  0  0  0  0  0  0
   36.9490   30.7240   38.0910 C   0  0  0  0  0  0  0  0  0  0  0  0
   36.3210   30.1800   39.2360 C   0  0  0  0  0  0  0  0  0  0  0  0
   36.4060   30.9310   40.4160 C   0  0  0  0  0  0  0  0  0  0  0  0
   37.0610   32.1110   40.4310 N   0  0  0  0  0  0  0  0  0  0  0  0
   37.6450   32.5830   39.2950 C   0  0  0  0  0  0  0  0  0  0  0  0
   37.5890   31.8910   38.1320 N   0  0  0  0  0  0  0  0  0  0  0  0
   38.3200   33.8180   39.2730 N   0  0  0  0  0  0  0  0  0  0  0  0
   36.9370   30.2290   37.1300 H   0  0  0  0  0  0  0  0  0  0  0  0
   38.0490   34.4810   38.4900 H   0  0  0  0  0  0  0  0  0  0  0  0
   39.0370   34.0600   39.9850 H   0  0  0  0  0  0  0  0  0  0  0  0
   35.7560   30.4100   41.5570 N   0  0  0  0  0  0  0  0  0  0  0  0
   36.3490   29.8730   42.2170 H   0  0  0  0  0  0  0  0  0  0  0  0
   34.7300   30.5120   41.8070 H   0  0  0  0  0  0  0  0  0  0  0  0
   36.6050   26.6310   39.8890 C   0  0  0  0  0  2  0  0  0  0  0  0
   37.1280   27.1510   41.2110 C   0  0  0  0  0  2  0  0  0  0  0  0
   38.2370   27.2250   41.1390 H   0  0  0  0  0  0  0  0  0  0  0  0
  1 16  1  0  0  0  0
  1  7  1  1  0  0  0
  2  1  1  0  0  0  0
  3  4  1  0  0  0  0
  3  2  2  0  0  0  0
  4 11  1  0  0  0  0
  5  4  1  0  0  0  0
  5  6  1  0  0  0  0
  6 14  1  6  0  0  0
  6  1  1  0  0  0  0
  6 28  1  0  0  0  0
  8  2  1  0  0  0  0
  9  3  1  0  0  0  0
 10  4  1  0  0  0  0
 12  5  1  0  0  0  0
 13  5  1  0  0  0  0
 15 20  2  0  0  0  0
 15 16  1  0  0  0  0
 16 17  2  0  0  0  0
 17 18  1  0  0  0  0
 17 25  1  0  0  0  0
 19 18  2  0  0  0  0
 20 19  1  0  0  0  0
 21 19  1  0  0  0  0
 21 24  1  0  0  0  0
 22 15  1  0  0  0  0
 23 21  1  0  0  0  0
 25 27  1  0  0  0  0
 25 26  1  0  0  0  0
 28 29  1  0  0  0  0
 30 29  1  0  0  0  0
M  END
>  <minimizedAffinity>
-4.88073158

$$$$

 OpenBabel03252500223D

 30 31  0  0  1  0  0  0  0  0999 V2000
   37.5720   28.7760   42.0880 C   0  0  1  0  0  0  0  0  0  0  0  0
   37.4800   27.4190   42.8030 C   0  0  0  0  0  0  0  0  0  0  0  0
   38.6450   26.8740   43.4800 C   0  0  0  0  0  0  0  0  0  0  0  0
   39.8910   27.7430   43.3900 C   0  0  0  0  0  0  0  0  0  0  0  0
   39.9850   28.1480   41.9420 C   0  0  0  0  0  0  0  0  0  0  0  0
   38.9120   29.2300   41.7750 C   0  0  2  0  0  0  0  0  0  0  0  0
   37.0570   29.4050   42.8660 H   0  0  0  0  0  0  0  0  0  0  0  0
   36.5730   26.8830   42.8020 H   0  0  0  0  0  0  0  0  0  0  0  0
   38.5280   25.9150   43.9690 H   0  0  0  0  0  0  0  0  0  0  0  0
   40.7080   27.0140   43.5790 H   0  0  0  0  0  0  0  0  0  0  0  0
   39.8360   28.5480   44.1120 H   0  0  0  0  0  0  0  0  0  0  0  0
   40.9490   28.5990   41.6730 H   0  0  0  0  0  0  0  0  0  0  0  0
   39.7010   27.3030   41.3140 H   0  0  0  0  0  0  0  0  0  0  0  0
   38.9800   29.5370   40.7060 H   0  0  0  0  0  0  0  0  0  0  0  0
   36.6320   27.5120   40.1240 C   0  0  0  0  0  0  0  0  0  0  0  0
   36.6240   28.6630   40.9480 C   0  0  0  0  0  0  0  0  0  0  0  0
   35.7510   29.6940   40.5760 C   0  0  0  0  0  0  0  0  0  0  0  0
   34.9690   29.5700   39.4840 N   0  0  0  0  0  0  0  0  0  0  0  0
   35.0220   28.4370   38.7310 C   0  0  0  0  0  0  0  0  0  0  0  0
   35.8500   27.4130   39.0500 N   0  0  0  0  0  0  0  0  0  0  0  0
   34.2060   28.2690   37.5960 N   0  0  0  0  0  0  0  0  0  0  0  0
   37.2630   26.6570   40.3250 H   0  0  0  0  0  0  0  0  0  0  0  0
   33.6660   27.3570   37.5430 H   0  0  0  0  0  0  0  0  0  0  0  0
   34.1410   28.9980   36.8580 H   0  0  0  0  0  0  0  0  0  0  0  0
   35.7140   30.8350   41.4100 N   0  0  0  0  0  0  0  0  0  0  0  0
   36.3010   31.6370   41.1140 H   0  0  0  0  0  0  0  0  0  0  0  0
   35.1510   30.9540   42.3000 H   0  0  0  0  0  0  0  0  0  0  0  0
   39.3200   30.4950   42.5210 C   0  0  0  0  0  2  0  0  0  0  0  0
   40.4580   31.2120   41.8280 C   0  0  0  0  0  2  0  0  0  0  0  0
   41.4040   30.6790   42.0760 H   0  0  0  0  0  0  0  0  0  0  0  0
  1  2  1  0  0  0  0
  1  7  1  1  0  0  0
  2  3  2  0  0  0  0
  3  9  1  0  0  0  0
  4  3  1  0  0  0  0
  4 10  1  0  0  0  0
  4 11  1  0  0  0  0
  5  4  1  0  0  0  0
  6 14  1  6  0  0  0
  6  5  1  0  0  0  0
  6  1  1  0  0  0  0
  6 28  1  0  0  0  0
  8  2  1  0  0  0  0
 12  5  1  0  0  0  0
 13  5  1  0  0  0  0
 15 22  1  0  0  0  0
 15 16  1  0  0  0  0
 16  1  1  0  0  0  0
 17 16  2  0  0  0  0
 17 25  1  0  0  0  0
 18 17  1  0  0  0  0
 19 20  1  0  0  0  0
 19 18  2  0  0  0  0
 20 15  2  0  0  0  0
 21 19  1  0  0  0  0
 23 21  1  0  0  0  0
 24 21  1  0  0  0  0
 25 27  1  0  0  0  0
 26 25  1  0  0  0  0
 29 30  1  0  0  0  0
 29 28  1  0  0  0  0
M  END
>  <minimizedAffinity>
-4.79905844

$$$$
