
 OpenBabel03252509143D

 39 42  0  0  1  0  0  0  0  0999 V2000
   47.5220   32.6890   43.8560 C   0  0  0  0  0  0  0  0  0  0  0  0
   46.7980   33.5690   43.0480 C   0  0  0  0  0  0  0  0  0  0  0  0
   45.7350   34.3290   43.5280 C   0  0  0  0  0  0  0  0  0  0  0  0
   45.3680   34.2140   44.8750 C   0  0  0  0  0  0  0  0  0  0  0  0
   44.4260   34.7720   45.6620 N   0  0  0  0  0  0  0  0  0  0  0  0
   44.5330   34.2790   46.9160 C   0  0  0  0  0  0  0  0  0  0  0  0
   45.5500   33.4170   46.8750 N   0  0  0  0  0  0  0  0  0  0  0  0
   46.0940   33.3420   45.6480 C   0  0  0  0  0  0  0  0  0  0  0  0
   47.1500   32.5760   45.2050 C   0  0  0  0  0  0  0  0  0  0  0  0
   48.3280   32.1450   43.3880 H   0  0  0  0  0  0  0  0  0  0  0  0
   43.7180   35.4840   45.3360 H   0  0  0  0  0  0  0  0  0  0  0  0
   43.9430   34.5050   47.7920 H   0  0  0  0  0  0  0  0  0  0  0  0
   47.7040   31.9050   45.8130 H   0  0  0  0  0  0  0  0  0  0  0  0
   47.0300   32.9290   39.4550 C   0  0  0  0  0  0  0  0  0  0  0  0
   47.8610   33.9580   39.0070 C   0  0  0  0  0  0  0  0  0  0  0  0
   48.3360   34.8650   39.9460 C   0  0  0  0  0  0  0  0  0  0  0  0
   47.9720   34.7140   41.2620 N   0  0  0  0  0  0  0  0  0  0  0  0
   47.1660   33.7030   41.6410 C   0  0  0  0  0  0  0  0  0  0  0  0
   46.6780   32.7940   40.7710 N   0  0  0  0  0  0  0  0  0  0  0  0
   46.6580   32.2200   38.7300 H   0  0  0  0  0  0  0  0  0  0  0  0
   48.1240   34.0430   37.9650 H   0  0  0  0  0  0  0  0  0  0  0  0
   48.9830   35.6870   39.6710 H   0  0  0  0  0  0  0  0  0  0  0  0
   44.8310   35.4390   42.4860 S   0  0  0  0  0  0  0  0  0  0  0  0
   42.8070   33.8080   42.1020 N   0  0  0  0  0  0  0  0  0  0  0  0
   43.7320   34.6160   41.3160 C   0  0  1  0  0  0  0  0  0  0  0  0
   43.0040   35.7180   40.5660 C   0  0  0  0  0  0  0  0  0  0  0  0
   41.8250   35.3020   39.9790 O   0  0  0  0  0  0  0  0  0  0  0  0
   41.6230   33.9380   39.9600 C   0  0  0  0  0  0  0  0  0  0  0  0
   41.6370   33.4270   41.3700 C   0  0  1  0  0  0  0  0  0  0  0  0
   43.3630   33.0150   42.4870 H   0  0  0  0  0  0  0  0  0  0  0  0
   44.2990   33.9600   40.6210 H   0  0  0  0  0  0  0  0  0  0  0  0
   42.7830   36.5490   41.2670 H   0  0  0  0  0  0  0  0  0  0  0  0
   43.6240   36.0420   39.7330 H   0  0  0  0  0  0  0  0  0  0  0  0
   40.6310   33.7560   39.5360 H   0  0  0  0  0  0  0  0  0  0  0  0
   42.4400   33.4620   39.3930 H   0  0  0  0  0  0  0  0  0  0  0  0
   40.7090   33.7300   41.9140 H   0  0  0  0  0  0  0  0  0  0  0  0
   41.6170   31.8970   41.3000 C   0  0  0  0  0  2  0  0  0  0  0  0
   40.6990   31.2760   42.2990 C   0  0  0  0  0  2  0  0  0  0  0  0
   39.6940   31.0680   41.8610 H   0  0  0  0  0  0  0  0  0  0  0  0
  1  9  1  0  0  0  0
  2  3  1  0  0  0  0
  2  1  2  0  0  0  0
  3  4  2  0  0  0  0
  4  8  1  0  0  0  0
  4  5  1  0  0  0  0
  5  6  1  0  0  0  0
  6 12  1  0  0  0  0
  7  6  2  0  0  0  0
  8  7  1  0  0  0  0
  9  8  2  0  0  0  0
  9 13  1  0  0  0  0
 10  1  1  0  0  0  0
 11  5  1  0  0  0  0
 14 19  1  0  0  0  0
 15 14  2  0  0  0  0
 15 16  1  0  0  0  0
 16 17  2  0  0  0  0
 17 18  1  0  0  0  0
 18  2  1  0  0  0  0
 19 18  2  0  0  0  0
 20 14  1  0  0  0  0
 21 15  1  0  0  0  0
 22 16  1  0  0  0  0
 23  3  1  0  0  0  0
 24 30  1  0  0  0  0
 25 31  1  6  0  0  0
 25 24  1  0  0  0  0
 25 23  1  0  0  0  0
 26 32  1  0  0  0  0
 26 25  1  0  0  0  0
 27 26  1  0  0  0  0
 28 27  1  0  0  0  0
 28 29  1  0  0  0  0
 29 36  1  1  0  0  0
 29 24  1  0  0  0  0
 33 26  1  0  0  0  0
 34 28  1  0  0  0  0
 35 28  1  0  0  0  0
 37 29  1  0  0  0  0
 37 38  1  0  0  0  0
 39 38  1  0  0  0  0
M  END
>  <minimizedAffinity>
-5.21837711

>  <minimizedRMSD>
1.4681195

$$$$
