
 OpenBabel03252509133D

 39 42  0  0  1  0  0  0  0  0999 V2000
   47.4890   32.5770   44.2760 C   0  0  0  0  0  0  0  0  0  0  0  0
   46.7950   33.5500   43.5510 C   0  0  0  0  0  0  0  0  0  0  0  0
   45.7540   34.2940   44.0970 C   0  0  0  0  0  0  0  0  0  0  0  0
   45.3770   34.0680   45.4270 C   0  0  0  0  0  0  0  0  0  0  0  0
   44.4490   34.5790   46.2600 N   0  0  0  0  0  0  0  0  0  0  0  0
   44.5360   33.9700   47.4640 C   0  0  0  0  0  0  0  0  0  0  0  0
   45.5260   33.0850   47.3460 N   0  0  0  0  0  0  0  0  0  0  0  0
   46.0730   33.1060   46.1180 C   0  0  0  0  0  0  0  0  0  0  0  0
   47.1080   32.3530   45.6080 C   0  0  0  0  0  0  0  0  0  0  0  0
   48.2800   32.0550   43.7620 H   0  0  0  0  0  0  0  0  0  0  0  0
   43.7640   35.3390   46.0000 H   0  0  0  0  0  0  0  0  0  0  0  0
   43.9480   34.1330   48.3560 H   0  0  0  0  0  0  0  0  0  0  0  0
   47.6390   31.6130   46.1530 H   0  0  0  0  0  0  0  0  0  0  0  0
   47.0300   33.2300   39.9160 C   0  0  0  0  0  0  0  0  0  0  0  0
   47.8870   34.2740   39.5640 C   0  0  0  0  0  0  0  0  0  0  0  0
   48.3800   35.0810   40.5830 C   0  0  0  0  0  0  0  0  0  0  0  0
   48.0060   34.8210   41.8790 N   0  0  0  0  0  0  0  0  0  0  0  0
   47.1740   33.8000   42.1630 C   0  0  0  0  0  0  0  0  0  0  0  0
   46.6680   32.9860   41.2130 N   0  0  0  0  0  0  0  0  0  0  0  0
   46.6430   32.5990   39.1280 H   0  0  0  0  0  0  0  0  0  0  0  0
   48.1580   34.4470   38.5360 H   0  0  0  0  0  0  0  0  0  0  0  0
   49.0490   35.9080   40.3850 H   0  0  0  0  0  0  0  0  0  0  0  0
   44.8880   35.5220   43.1590 S   0  0  0  0  0  0  0  0  0  0  0  0
   42.3490   35.4540   42.4840 N   0  0  0  0  0  0  0  0  0  0  0  0
   43.6130   34.8520   42.0730 C   0  0  1  0  0  0  0  0  0  0  0  0
   43.9910   35.2690   40.6630 C   0  0  0  0  0  0  0  0  0  0  0  0
   42.9310   35.2520   39.7770 O   0  0  0  0  0  0  0  0  0  0  0  0
   41.7830   34.6440   40.2410 C   0  0  0  0  0  0  0  0  0  0  0  0
   41.3300   35.3500   41.4850 C   0  0  1  0  0  0  0  0  0  0  0  0
   42.1080   35.0310   43.4050 H   0  0  0  0  0  0  0  0  0  0  0  0
   43.5430   33.7470   42.1640 H   0  0  0  0  0  0  0  0  0  0  0  0
   44.4200   36.2910   40.6890 H   0  0  0  0  0  0  0  0  0  0  0  0
   44.6930   34.5430   40.2610 H   0  0  0  0  0  0  0  0  0  0  0  0
   41.0120   34.7630   39.4750 H   0  0  0  0  0  0  0  0  0  0  0  0
   42.0070   33.5910   40.4820 H   0  0  0  0  0  0  0  0  0  0  0  0
   40.9040   36.3540   41.2410 H   0  0  0  0  0  0  0  0  0  0  0  0
   40.1820   34.5290   42.0820 C   0  0  0  0  0  2  0  0  0  0  0  0
   39.7340   33.4160   41.1960 C   0  0  0  0  0  2  0  0  0  0  0  0
   40.2370   32.4540   41.4580 H   0  0  0  0  0  0  0  0  0  0  0  0
  1  9  1  0  0  0  0
  2  3  1  0  0  0  0
  2  1  2  0  0  0  0
  3  4  2  0  0  0  0
  4  8  1  0  0  0  0
  4  5  1  0  0  0  0
  5  6  1  0  0  0  0
  6 12  1  0  0  0  0
  7  6  2  0  0  0  0
  8  7  1  0  0  0  0
  9  8  2  0  0  0  0
  9 13  1  0  0  0  0
 10  1  1  0  0  0  0
 11  5  1  0  0  0  0
 14 19  1  0  0  0  0
 15 14  2  0  0  0  0
 15 16  1  0  0  0  0
 16 17  2  0  0  0  0
 17 18  1  0  0  0  0
 18  2  1  0  0  0  0
 19 18  2  0  0  0  0
 20 14  1  0  0  0  0
 21 15  1  0  0  0  0
 22 16  1  0  0  0  0
 23  3  1  0  0  0  0
 24 30  1  0  0  0  0
 25 31  1  1  0  0  0
 25 24  1  0  0  0  0
 25 23  1  0  0  0  0
 26 32  1  0  0  0  0
 26 25  1  0  0  0  0
 27 28  1  0  0  0  0
 27 26  1  0  0  0  0
 28 35  1  0  0  0  0
 28 29  1  0  0  0  0
 29 36  1  6  0  0  0
 29 37  1  0  0  0  0
 29 24  1  0  0  0  0
 33 26  1  0  0  0  0
 34 28  1  0  0  0  0
 38 39  1  0  0  0  0
 38 37  1  0  0  0  0
M  END
>  <minimizedAffinity>
-5.81823587

>  <minimizedRMSD>
0.595008016

$$$$
