
 OpenBabel03252506323D

 26 27  0  0  1  0  0  0  0  0999 V2000
   37.6710   30.0100   42.1960 C   0  0  0  0  0  0  0  0  0  0  0  0
   36.4680   29.8960   41.4660 C   0  0  0  0  0  0  0  0  0  0  0  0
   35.9880   28.6280   41.1470 C   0  0  0  0  0  0  0  0  0  0  0  0
   36.7360   27.5780   41.5760 N   0  0  0  0  0  0  0  0  0  0  0  0
   37.8660   27.6930   42.2650 C   0  0  0  0  0  0  0  0  0  0  0  0
   38.3310   28.9030   42.5710 N   0  0  0  0  0  0  0  0  0  0  0  0
   38.5390   26.5200   42.6590 N   0  0  0  0  0  0  0  0  0  0  0  0
   39.5930   26.4700   43.6770 C   0  0  0  0  0  0  0  0  0  0  0  0
   40.5370   25.4460   43.1070 C   0  0  0  0  0  0  0  0  0  0  0  0
   39.8390   24.7890   41.9430 C   0  0  0  0  0  0  0  0  0  0  0  0
   38.3940   25.1660   42.2210 C   0  0  2  0  0  0  0  0  0  0  0  0
   38.1160   30.9600   42.4870 H   0  0  0  0  0  0  0  0  0  0  0  0
   35.0810   28.5740   40.5960 H   0  0  0  0  0  0  0  0  0  0  0  0
   39.1930   26.1790   44.6650 H   0  0  0  0  0  0  0  0  0  0  0  0
   40.0940   27.4550   43.6680 H   0  0  0  0  0  0  0  0  0  0  0  0
   41.5210   25.8680   42.8260 H   0  0  0  0  0  0  0  0  0  0  0  0
   40.6900   24.6670   43.8830 H   0  0  0  0  0  0  0  0  0  0  0  0
   40.0040   23.6990   41.8720 H   0  0  0  0  0  0  0  0  0  0  0  0
   40.1250   25.3280   41.0100 H   0  0  0  0  0  0  0  0  0  0  0  0
   37.9780   24.5040   43.0210 H   0  0  0  0  0  0  0  0  0  0  0  0
   35.8240   31.1290   41.1050 N   0  0  0  0  0  0  0  0  0  0  0  0
   36.3890   31.9650   40.9400 H   0  0  0  0  0  0  0  0  0  0  0  0
   34.7810   31.0940   41.0310 H   0  0  0  0  0  0  0  0  0  0  0  0
   37.6510   25.0470   40.9330 C   0  0  0  0  0  2  0  0  0  0  0  0
   36.5370   24.0050   41.1660 C   0  0  0  0  0  2  0  0  0  0  0  0
   35.9790   24.3380   42.0770 H   0  0  0  0  0  0  0  0  0  0  0  0
  1 12  1  0  0  0  0
  1  6  1  0  0  0  0
  2  1  2  0  0  0  0
  3  2  1  0  0  0  0
  3  4  2  0  0  0  0
  4  5  1  0  0  0  0
  5  6  2  0  0  0  0
  5  7  1  0  0  0  0
  7  8  1  0  0  0  0
  8 14  1  0  0  0  0
  9  8  1  0  0  0  0
  9 17  1  0  0  0  0
 10 11  1  0  0  0  0
 10  9  1  0  0  0  0
 11  7  1  0  0  0  0
 11 20  1  1  0  0  0
 13  3  1  0  0  0  0
 15  8  1  0  0  0  0
 16  9  1  0  0  0  0
 18 10  1  0  0  0  0
 19 10  1  0  0  0  0
 21  2  1  0  0  0  0
 22 21  1  0  0  0  0
 23 21  1  0  0  0  0
 24 25  1  0  0  0  0
 24 11  1  0  0  0  0
 25 26  1  0  0  0  0
M  END
>  <minimizedAffinity>
-4.69696379

$$$$

 OpenBabel03252506323D

 26 27  0  0  1  0  0  0  0  0999 V2000
   36.0200   28.8390   40.6970 C   0  0  0  0  0  0  0  0  0  0  0  0
   36.5520   29.9250   41.4270 C   0  0  0  0  0  0  0  0  0  0  0  0
   37.7250   29.7410   42.1540 C   0  0  0  0  0  0  0  0  0  0  0  0
   38.2760   28.5010   42.1010 N   0  0  0  0  0  0  0  0  0  0  0  0
   37.7710   27.4830   41.4110 C   0  0  0  0  0  0  0  0  0  0  0  0
   36.6480   27.6520   40.7140 N   0  0  0  0  0  0  0  0  0  0  0  0
   38.4500   26.2490   41.4310 N   0  0  0  0  0  0  0  0  0  0  0  0
   38.2100   25.1540   40.4870 C   0  0  0  0  0  0  0  0  0  0  0  0
   38.3520   23.9400   41.3650 C   0  0  0  0  0  0  0  0  0  0  0  0
   38.9170   24.4030   42.6850 C   0  0  0  0  0  0  0  0  0  0  0  0
   39.4780   25.7610   42.3000 C   0  0  2  0  0  0  0  0  0  0  0  0
   35.1100   28.8960   40.1030 H   0  0  0  0  0  0  0  0  0  0  0  0
   38.1010   30.5760   42.6940 H   0  0  0  0  0  0  0  0  0  0  0  0
   38.9380   25.1660   39.6550 H   0  0  0  0  0  0  0  0  0  0  0  0
   37.1570   25.2350   40.1630 H   0  0  0  0  0  0  0  0  0  0  0  0
   37.4060   23.3770   41.4860 H   0  0  0  0  0  0  0  0  0  0  0  0
   39.1060   23.2770   40.8960 H   0  0  0  0  0  0  0  0  0  0  0  0
   39.6720   23.7220   43.1170 H   0  0  0  0  0  0  0  0  0  0  0  0
   38.0700   24.6030   43.3810 H   0  0  0  0  0  0  0  0  0  0  0  0
   40.4540   25.6320   41.7700 H   0  0  0  0  0  0  0  0  0  0  0  0
   35.8200   31.1590   41.3540 N   0  0  0  0  0  0  0  0  0  0  0  0
   34.8050   31.1390   41.2270 H   0  0  0  0  0  0  0  0  0  0  0  0
   36.3890   32.0330   41.4380 H   0  0  0  0  0  0  0  0  0  0  0  0
   39.6060   26.5570   43.5550 C   0  0  0  0  0  2  0  0  0  0  0  0
   41.0960   26.9380   43.6800 C   0  0  0  0  0  2  0  0  0  0  0  0
   41.3810   27.4180   42.7100 H   0  0  0  0  0  0  0  0  0  0  0  0
  1  6  2  0  0  0  0
  1  2  1  0  0  0  0
  2  3  2  0  0  0  0
  3 13  1  0  0  0  0
  4  3  1  0  0  0  0
  5  7  1  0  0  0  0
  5  4  2  0  0  0  0
  6  5  1  0  0  0  0
  7 11  1  0  0  0  0
  8  9  1  0  0  0  0
  8  7  1  0  0  0  0
  9 16  1  0  0  0  0
  9 10  1  0  0  0  0
 10 18  1  0  0  0  0
 10 19  1  0  0  0  0
 11 20  1  6  0  0  0
 11 10  1  0  0  0  0
 11 24  1  0  0  0  0
 12  1  1  0  0  0  0
 14  8  1  0  0  0  0
 15  8  1  0  0  0  0
 17  9  1  0  0  0  0
 21  2  1  0  0  0  0
 21 23  1  0  0  0  0
 22 21  1  0  0  0  0
 24 25  1  0  0  0  0
 26 25  1  0  0  0  0
M  END
>  <minimizedAffinity>
-4.60438108

$$$$

 OpenBabel03252506323D

 26 27  0  0  1  0  0  0  0  0999 V2000
   38.6350   31.7100   40.7140 C   0  0  0  0  0  0  0  0  0  0  0  0
   37.2390   31.8890   40.6010 C   0  0  0  0  0  0  0  0  0  0  0  0
   36.3880   30.9360   41.1560 C   0  0  0  0  0  0  0  0  0  0  0  0
   36.9860   29.8860   41.7760 N   0  0  0  0  0  0  0  0  0  0  0  0
   38.3010   29.7240   41.8790 C   0  0  0  0  0  0  0  0  0  0  0  0
   39.1200   30.6310   41.3500 N   0  0  0  0  0  0  0  0  0  0  0  0
   38.7920   28.5930   42.5600 N   0  0  0  0  0  0  0  0  0  0  0  0
   40.1700   28.4420   43.0340 C   0  0  0  0  0  0  0  0  0  0  0  0
   40.4350   26.9810   42.7830 C   0  0  0  0  0  0  0  0  0  0  0  0
   39.1160   26.3390   42.4310 C   0  0  0  0  0  0  0  0  0  0  0  0
   38.1390   27.3800   42.9500 C   0  0  2  0  0  0  0  0  0  0  0  0
   39.3700   32.4050   40.3100 H   0  0  0  0  0  0  0  0  0  0  0  0
   35.3430   31.0980   41.0550 H   0  0  0  0  0  0  0  0  0  0  0  0
   40.2680   28.7170   44.1000 H   0  0  0  0  0  0  0  0  0  0  0  0
   40.8090   29.0370   42.3560 H   0  0  0  0  0  0  0  0  0  0  0  0
   41.2100   26.8050   42.0120 H   0  0  0  0  0  0  0  0  0  0  0  0
   40.7740   26.5360   43.7410 H   0  0  0  0  0  0  0  0  0  0  0  0
   38.9680   25.3380   42.8730 H   0  0  0  0  0  0  0  0  0  0  0  0
   39.0080   26.3390   41.3220 H   0  0  0  0  0  0  0  0  0  0  0  0
   38.0440   27.2890   44.0610 H   0  0  0  0  0  0  0  0  0  0  0  0
   36.8030   33.0700   39.9080 N   0  0  0  0  0  0  0  0  0  0  0  0
   37.3830   33.4600   39.1610 H   0  0  0  0  0  0  0  0  0  0  0  0
   35.8900   33.4720   40.2210 H   0  0  0  0  0  0  0  0  0  0  0  0
   36.8440   27.1610   42.2420 C   0  0  0  0  0  2  0  0  0  0  0  0
   37.1130   26.0950   41.1600 C   0  0  0  0  0  2  0  0  0  0  0  0
   37.5910   25.2290   41.6830 H   0  0  0  0  0  0  0  0  0  0  0  0
  1  6  1  0  0  0  0
  2  1  2  0  0  0  0
  2  3  1  0  0  0  0
  3  4  2  0  0  0  0
  4  5  1  0  0  0  0
  5  7  1  0  0  0  0
  6  5  2  0  0  0  0
  7 11  1  0  0  0  0
  7  8  1  0  0  0  0
  8 14  1  0  0  0  0
  9  8  1  0  0  0  0
  9 17  1  0  0  0  0
 10  9  1  0  0  0  0
 10 18  1  0  0  0  0
 10 11  1  0  0  0  0
 11 20  1  1  0  0  0
 12  1  1  0  0  0  0
 13  3  1  0  0  0  0
 15  8  1  0  0  0  0
 16  9  1  0  0  0  0
 19 10  1  0  0  0  0
 21 23  1  0  0  0  0
 21  2  1  0  0  0  0
 22 21  1  0  0  0  0
 24 11  1  0  0  0  0
 25 26  1  0  0  0  0
 25 24  1  0  0  0  0
M  END
>  <minimizedAffinity>
-4.56241465

$$$$

 OpenBabel03252506323D

 26 27  0  0  1  0  0  0  0  0999 V2000
   39.3900   32.2380   41.0530 C   0  0  0  0  0  0  0  0  0  0  0  0
   38.4250   32.8820   40.2490 C   0  0  0  0  0  0  0  0  0  0  0  0
   37.1690   32.2990   40.1000 C   0  0  0  0  0  0  0  0  0  0  0  0
   36.9710   31.1270   40.7590 N   0  0  0  0  0  0  0  0  0  0  0  0
   37.8830   30.5270   41.5160 C   0  0  0  0  0  0  0  0  0  0  0  0
   39.0860   31.0790   41.6600 N   0  0  0  0  0  0  0  0  0  0  0  0
   37.5430   29.3180   42.1540 N   0  0  0  0  0  0  0  0  0  0  0  0
   38.3020   28.7180   43.2550 C   0  0  0  0  0  0  0  0  0  0  0  0
   38.2040   27.2480   42.9450 C   0  0  0  0  0  0  0  0  0  0  0  0
   37.1830   27.0880   41.8460 C   0  0  0  0  0  0  0  0  0  0  0  0
   36.4530   28.4170   41.9320 C   0  0  2  0  0  0  0  0  0  0  0  0
   40.3930   32.6240   41.2220 H   0  0  0  0  0  0  0  0  0  0  0  0
   36.4640   32.8060   39.4880 H   0  0  0  0  0  0  0  0  0  0  0  0
   37.8700   28.9770   44.2380 H   0  0  0  0  0  0  0  0  0  0  0  0
   39.3530   29.0350   43.1290 H   0  0  0  0  0  0  0  0  0  0  0  0
   39.1790   26.7910   42.6860 H   0  0  0  0  0  0  0  0  0  0  0  0
   37.8000   26.7450   43.8470 H   0  0  0  0  0  0  0  0  0  0  0  0
   36.5190   26.2130   41.9690 H   0  0  0  0  0  0  0  0  0  0  0  0
   37.7150   27.0890   40.8670 H   0  0  0  0  0  0  0  0  0  0  0  0
   35.7350   28.4010   42.7900 H   0  0  0  0  0  0  0  0  0  0  0  0
   38.8300   34.1180   39.6360 N   0  0  0  0  0  0  0  0  0  0  0  0
   39.8110   34.2610   39.3880 H   0  0  0  0  0  0  0  0  0  0  0  0
   38.0700   34.8190   39.4780 H   0  0  0  0  0  0  0  0  0  0  0  0
   35.7760   28.6340   40.6200 C   0  0  0  0  0  2  0  0  0  0  0  0
   36.3200   27.5530   39.6640 C   0  0  0  0  0  2  0  0  0  0  0  0
   36.1790   26.5720   40.1840 H   0  0  0  0  0  0  0  0  0  0  0  0
  1 12  1  0  0  0  0
  1  6  1  0  0  0  0
  2  1  2  0  0  0  0
  3  2  1  0  0  0  0
  3  4  2  0  0  0  0
  4  5  1  0  0  0  0
  5  6  2  0  0  0  0
  5  7  1  0  0  0  0
  7  8  1  0  0  0  0
  8 14  1  0  0  0  0
  9  8  1  0  0  0  0
  9 17  1  0  0  0  0
 10 11  1  0  0  0  0
 10 18  1  0  0  0  0
 10  9  1  0  0  0  0
 11  7  1  0  0  0  0
 11 20  1  1  0  0  0
 13  3  1  0  0  0  0
 15  8  1  0  0  0  0
 16  9  1  0  0  0  0
 19 10  1  0  0  0  0
 21  2  1  0  0  0  0
 22 21  1  0  0  0  0
 23 21  1  0  0  0  0
 24 11  1  0  0  0  0
 25 26  1  0  0  0  0
 25 24  1  0  0  0  0
M  END
>  <minimizedAffinity>
-4.54814672

$$$$

 OpenBabel03252506323D

 26 27  0  0  1  0  0  0  0  0999 V2000
   37.3140   32.1060   40.3850 C   0  0  0  0  0  0  0  0  0  0  0  0
   38.6420   32.4820   40.0850 C   0  0  0  0  0  0  0  0  0  0  0  0
   39.6770   31.5950   40.3700 C   0  0  0  0  0  0  0  0  0  0  0  0
   39.3150   30.4100   40.9270 N   0  0  0  0  0  0  0  0  0  0  0  0
   38.0630   30.0620   41.2060 C   0  0  0  0  0  0  0  0  0  0  0  0
   37.0690   30.9060   40.9370 N   0  0  0  0  0  0  0  0  0  0  0  0
   37.8240   28.7950   41.7740 N   0  0  0  0  0  0  0  0  0  0  0  0
   36.5110   28.1470   41.8350 C   0  0  0  0  0  0  0  0  0  0  0  0
   36.5530   27.4690   43.1780 C   0  0  0  0  0  0  0  0  0  0  0  0
   37.9720   27.5520   43.6800 C   0  0  0  0  0  0  0  0  0  0  0  0
   38.7170   27.8640   42.3930 C   0  0  2  0  0  0  0  0  0  0  0  0
   36.4480   32.7370   40.1950 H   0  0  0  0  0  0  0  0  0  0  0  0
   40.6650   31.9050   40.1340 H   0  0  0  0  0  0  0  0  0  0  0  0
   36.3680   27.4350   41.0010 H   0  0  0  0  0  0  0  0  0  0  0  0
   35.7570   28.9540   41.8700 H   0  0  0  0  0  0  0  0  0  0  0  0
   35.8240   27.8870   43.8990 H   0  0  0  0  0  0  0  0  0  0  0  0
   36.3220   26.3960   43.0150 H   0  0  0  0  0  0  0  0  0  0  0  0
   38.3290   26.6360   44.1830 H   0  0  0  0  0  0  0  0  0  0  0  0
   38.0680   28.4590   44.3200 H   0  0  0  0  0  0  0  0  0  0  0  0
   38.8390   26.9290   41.7900 H   0  0  0  0  0  0  0  0  0  0  0  0
   38.8170   33.7800   39.4950 N   0  0  0  0  0  0  0  0  0  0  0  0
   38.1630   34.5320   39.7240 H   0  0  0  0  0  0  0  0  0  0  0  0
   39.6300   33.8800   38.8450 H   0  0  0  0  0  0  0  0  0  0  0  0
   40.0230   28.4760   42.7760 C   0  0  0  0  0  2  0  0  0  0  0  0
   40.8160   27.3810   43.5190 C   0  0  0  0  0  2  0  0  0  0  0  0
   40.8210   26.4850   42.8490 H   0  0  0  0  0  0  0  0  0  0  0  0
  1  6  1  0  0  0  0
  2  3  1  0  0  0  0
  2  1  2  0  0  0  0
  3  4  2  0  0  0  0
  4  5  1  0  0  0  0
  5  7  1  0  0  0  0
  6  5  2  0  0  0  0
  7  8  1  0  0  0  0
  7 11  1  0  0  0  0
  8 15  1  0  0  0  0
  8  9  1  0  0  0  0
  9 10  1  0  0  0  0
  9 16  1  0  0  0  0
 10 18  1  0  0  0  0
 10 19  1  0  0  0  0
 11 20  1  6  0  0  0
 11 24  1  0  0  0  0
 11 10  1  0  0  0  0
 12  1  1  0  0  0  0
 13  3  1  0  0  0  0
 14  8  1  0  0  0  0
 17  9  1  0  0  0  0
 21 22  1  0  0  0  0
 21  2  1  0  0  0  0
 23 21  1  0  0  0  0
 24 25  1  0  0  0  0
 26 25  1  0  0  0  0
M  END
>  <minimizedAffinity>
-4.5148325

$$$$

 OpenBabel03252506323D

 26 27  0  0  1  0  0  0  0  0999 V2000
   39.9340   31.3700   39.0810 C   0  0  0  0  0  0  0  0  0  0  0  0
   39.1490   31.6000   37.9300 C   0  0  0  0  0  0  0  0  0  0  0  0
   37.8310   31.1520   37.9110 C   0  0  0  0  0  0  0  0  0  0  0  0
   37.3980   30.5140   39.0290 N   0  0  0  0  0  0  0  0  0  0  0  0
   38.1420   30.3020   40.1100 C   0  0  0  0  0  0  0  0  0  0  0  0
   39.4040   30.7270   40.1340 N   0  0  0  0  0  0  0  0  0  0  0  0
   37.5650   29.6360   41.2090 N   0  0  0  0  0  0  0  0  0  0  0  0
   38.1330   29.6170   42.5590 C   0  0  0  0  0  0  0  0  0  0  0  0
   37.8240   28.2170   43.0150 C   0  0  0  0  0  0  0  0  0  0  0  0
   36.8760   27.6150   42.0080 C   0  0  0  0  0  0  0  0  0  0  0  0
   36.3650   28.8630   41.3090 C   0  0  2  0  0  0  0  0  0  0  0  0
   40.9710   31.6870   39.1800 H   0  0  0  0  0  0  0  0  0  0  0  0
   37.2650   31.3380   37.0320 H   0  0  0  0  0  0  0  0  0  0  0  0
   37.6750   30.3880   43.2060 H   0  0  0  0  0  0  0  0  0  0  0  0
   39.2280   29.7180   42.4480 H   0  0  0  0  0  0  0  0  0  0  0  0
   38.7290   27.5970   43.1660 H   0  0  0  0  0  0  0  0  0  0  0  0
   37.2780   28.2930   43.9780 H   0  0  0  0  0  0  0  0  0  0  0  0
   36.0740   27.0000   42.4520 H   0  0  0  0  0  0  0  0  0  0  0  0
   37.4740   27.0580   41.2490 H   0  0  0  0  0  0  0  0  0  0  0  0
   35.5910   29.3620   41.9440 H   0  0  0  0  0  0  0  0  0  0  0  0
   39.7920   32.2960   36.8500 N   0  0  0  0  0  0  0  0  0  0  0  0
   40.7990   32.1920   36.7100 H   0  0  0  0  0  0  0  0  0  0  0  0
   39.1690   32.8860   36.2530 H   0  0  0  0  0  0  0  0  0  0  0  0
   35.8320   28.4390   39.9810 C   0  0  0  0  0  2  0  0  0  0  0  0
   36.3970   27.0280   39.7150 C   0  0  0  0  0  2  0  0  0  0  0  0
   36.1450   26.4120   40.6150 H   0  0  0  0  0  0  0  0  0  0  0  0
  1 12  1  0  0  0  0
  1  6  1  0  0  0  0
  2  1  2  0  0  0  0
  3  2  1  0  0  0  0
  3  4  2  0  0  0  0
  4  5  1  0  0  0  0
  5  6  2  0  0  0  0
  5  7  1  0  0  0  0
  7 11  1  0  0  0  0
  7  8  1  0  0  0  0
  8  9  1  0  0  0  0
  8 14  1  0  0  0  0
  9 16  1  0  0  0  0
  9 17  1  0  0  0  0
 10 18  1  0  0  0  0
 10  9  1  0  0  0  0
 11 20  1  1  0  0  0
 11 10  1  0  0  0  0
 13  3  1  0  0  0  0
 15  8  1  0  0  0  0
 19 10  1  0  0  0  0
 21  2  1  0  0  0  0
 22 21  1  0  0  0  0
 23 21  1  0  0  0  0
 24 11  1  0  0  0  0
 25 24  1  0  0  0  0
 25 26  1  0  0  0  0
M  END
>  <minimizedAffinity>
-4.48646688

$$$$

 OpenBabel03252506323D

 26 27  0  0  1  0  0  0  0  0999 V2000
   36.6510   30.7550   39.4010 C   0  0  0  0  0  0  0  0  0  0  0  0
   37.1890   31.6490   40.3510 C   0  0  0  0  0  0  0  0  0  0  0  0
   37.9010   31.1390   41.4340 C   0  0  0  0  0  0  0  0  0  0  0  0
   38.0220   29.7870   41.4870 N   0  0  0  0  0  0  0  0  0  0  0  0
   37.5140   28.9500   40.5880 C   0  0  0  0  0  0  0  0  0  0  0  0
   36.8310   29.4330   39.5520 N   0  0  0  0  0  0  0  0  0  0  0  0
   37.7240   27.5680   40.7570 N   0  0  0  0  0  0  0  0  0  0  0  0
   37.5180   26.5630   39.7110 C   0  0  0  0  0  0  0  0  0  0  0  0
   36.9490   25.4060   40.4880 C   0  0  0  0  0  0  0  0  0  0  0  0
   37.1110   25.7250   41.9530 C   0  0  0  0  0  0  0  0  0  0  0  0
   38.1630   26.8200   41.8960 C   0  0  2  0  0  0  0  0  0  0  0  0
   36.0830   31.0690   38.5270 H   0  0  0  0  0  0  0  0  0  0  0  0
   38.2930   31.8360   42.1320 H   0  0  0  0  0  0  0  0  0  0  0  0
   38.4630   26.3090   39.1970 H   0  0  0  0  0  0  0  0  0  0  0  0
   36.7330   26.9560   39.0390 H   0  0  0  0  0  0  0  0  0  0  0  0
   35.9000   25.1750   40.2200 H   0  0  0  0  0  0  0  0  0  0  0  0
   37.5790   24.5190   40.2710 H   0  0  0  0  0  0  0  0  0  0  0  0
   37.4090   24.8620   42.5740 H   0  0  0  0  0  0  0  0  0  0  0  0
   36.1760   26.2120   42.3140 H   0  0  0  0  0  0  0  0  0  0  0  0
   39.1740   26.3670   41.7420 H   0  0  0  0  0  0  0  0  0  0  0  0
   36.9520   33.0470   40.1140 N   0  0  0  0  0  0  0  0  0  0  0  0
   36.0990   33.3410   39.6320 H   0  0  0  0  0  0  0  0  0  0  0  0
   37.6910   33.7000   40.4610 H   0  0  0  0  0  0  0  0  0  0  0  0
   38.0670   27.5900   43.1710 C   0  0  0  0  0  2  0  0  0  0  0  0
   36.6210   27.4130   43.6800 C   0  0  0  0  0  2  0  0  0  0  0  0
   36.4280   26.3110   43.7040 H   0  0  0  0  0  0  0  0  0  0  0  0
  1  6  2  0  0  0  0
  1  2  1  0  0  0  0
  2  3  2  0  0  0  0
  3  4  1  0  0  0  0
  3 13  1  0  0  0  0
  5  7  1  0  0  0  0
  5  4  2  0  0  0  0
  6  5  1  0  0  0  0
  7 11  1  0  0  0  0
  8  9  1  0  0  0  0
  8  7  1  0  0  0  0
  9 10  1  0  0  0  0
 10 19  1  0  0  0  0
 10 18  1  0  0  0  0
 11 20  1  6  0  0  0
 11 10  1  0  0  0  0
 11 24  1  0  0  0  0
 12  1  1  0  0  0  0
 14  8  1  0  0  0  0
 15  8  1  0  0  0  0
 16  9  1  0  0  0  0
 17  9  1  0  0  0  0
 21  2  1  0  0  0  0
 21 23  1  0  0  0  0
 22 21  1  0  0  0  0
 24 25  1  0  0  0  0
 25 26  1  0  0  0  0
M  END
>  <minimizedAffinity>
-4.42178345

$$$$

 OpenBabel03252506323D

 26 27  0  0  1  0  0  0  0  0999 V2000
   35.4230   29.2960   39.7440 C   0  0  0  0  0  0  0  0  0  0  0  0
   36.0350   29.7650   40.9270 C   0  0  0  0  0  0  0  0  0  0  0  0
   36.8220   28.8920   41.6740 C   0  0  0  0  0  0  0  0  0  0  0  0
   36.9400   27.6280   41.1900 N   0  0  0  0  0  0  0  0  0  0  0  0
   36.3620   27.1940   40.0750 C   0  0  0  0  0  0  0  0  0  0  0  0
   35.6070   28.0240   39.3580 N   0  0  0  0  0  0  0  0  0  0  0  0
   36.5760   25.8590   39.6790 N   0  0  0  0  0  0  0  0  0  0  0  0
   36.2870   25.3340   38.3410 C   0  0  0  0  0  0  0  0  0  0  0  0
   35.7720   23.9530   38.6460 C   0  0  0  0  0  0  0  0  0  0  0  0
   36.0430   23.6830   40.1050 C   0  0  0  0  0  0  0  0  0  0  0  0
   37.0940   24.7390   40.4040 C   0  0  2  0  0  0  0  0  0  0  0  0
   34.7930   29.9110   39.1030 H   0  0  0  0  0  0  0  0  0  0  0  0
   37.2690   29.2730   42.5590 H   0  0  0  0  0  0  0  0  0  0  0  0
   37.1900   25.3210   37.7040 H   0  0  0  0  0  0  0  0  0  0  0  0
   35.4570   25.9370   37.9320 H   0  0  0  0  0  0  0  0  0  0  0  0
   34.7040   23.8190   38.3840 H   0  0  0  0  0  0  0  0  0  0  0  0
   36.3780   23.2340   38.0580 H   0  0  0  0  0  0  0  0  0  0  0  0
   36.3820   22.6540   40.3200 H   0  0  0  0  0  0  0  0  0  0  0  0
   35.1400   23.9700   40.6920 H   0  0  0  0  0  0  0  0  0  0  0  0
   38.0880   24.4060   40.0150 H   0  0  0  0  0  0  0  0  0  0  0  0
   35.7890   31.1390   41.2690 N   0  0  0  0  0  0  0  0  0  0  0  0
   34.9050   31.5770   40.9990 H   0  0  0  0  0  0  0  0  0  0  0  0
   36.5550   31.6250   41.7890 H   0  0  0  0  0  0  0  0  0  0  0  0
   37.0960   24.9530   41.8810 C   0  0  0  0  0  2  0  0  0  0  0  0
   38.3930   24.3070   42.4130 C   0  0  0  0  0  2  0  0  0  0  0  0
   39.2300   24.7370   41.8080 H   0  0  0  0  0  0  0  0  0  0  0  0
  1  2  1  0  0  0  0
  2 21  1  0  0  0  0
  2  3  2  0  0  0  0
  3 13  1  0  0  0  0
  4  3  1  0  0  0  0
  5  4  2  0  0  0  0
  6  1  2  0  0  0  0
  6  5  1  0  0  0  0
  7  5  1  0  0  0  0
  7 11  1  0  0  0  0
  8  9  1  0  0  0  0
  8  7  1  0  0  0  0
  9 10  1  0  0  0  0
 10 18  1  0  0  0  0
 10 11  1  0  0  0  0
 10 19  1  0  0  0  0
 11 20  1  6  0  0  0
 11 24  1  0  0  0  0
 12  1  1  0  0  0  0
 14  8  1  0  0  0  0
 15  8  1  0  0  0  0
 16  9  1  0  0  0  0
 17  9  1  0  0  0  0
 21 23  1  0  0  0  0
 22 21  1  0  0  0  0
 24 25  1  0  0  0  0
 26 25  1  0  0  0  0
M  END
>  <minimizedAffinity>
-4.39524174

$$$$

 OpenBabel03252506323D

 26 27  0  0  1  0  0  0  0  0999 V2000
   40.8640   25.1790   41.3990 C   0  0  0  0  0  0  0  0  0  0  0  0
   41.3030   25.2900   42.7370 C   0  0  0  0  0  0  0  0  0  0  0  0
   40.4700   25.8980   43.6730 C   0  0  0  0  0  0  0  0  0  0  0  0
   39.2740   26.3460   43.2100 N   0  0  0  0  0  0  0  0  0  0  0  0
   38.8670   26.2370   41.9500 C   0  0  0  0  0  0  0  0  0  0  0  0
   39.6600   25.6570   41.0500 N   0  0  0  0  0  0  0  0  0  0  0  0
   37.5950   26.7350   41.6040 N   0  0  0  0  0  0  0  0  0  0  0  0
   36.8840   26.4060   40.3650 C   0  0  0  0  0  0  0  0  0  0  0  0
   36.2210   27.7130   40.0230 C   0  0  0  0  0  0  0  0  0  0  0  0
   36.3790   28.6230   41.2160 C   0  0  0  0  0  0  0  0  0  0  0  0
   36.7150   27.6190   42.3040 C   0  0  2  0  0  0  0  0  0  0  0  0
   41.4510   24.7180   40.6060 H   0  0  0  0  0  0  0  0  0  0  0  0
   40.8270   25.9680   44.6710 H   0  0  0  0  0  0  0  0  0  0  0  0
   36.1590   25.5860   40.5160 H   0  0  0  0  0  0  0  0  0  0  0  0
   37.6530   26.1910   39.6020 H   0  0  0  0  0  0  0  0  0  0  0  0
   36.6090   28.1680   39.0910 H   0  0  0  0  0  0  0  0  0  0  0  0
   35.1370   27.5140   39.9010 H   0  0  0  0  0  0  0  0  0  0  0  0
   35.4860   29.2330   41.4410 H   0  0  0  0  0  0  0  0  0  0  0  0
   37.2950   29.2410   41.0700 H   0  0  0  0  0  0  0  0  0  0  0  0
   35.7820   27.1050   42.6470 H   0  0  0  0  0  0  0  0  0  0  0  0
   42.6030   24.7510   43.0270 N   0  0  0  0  0  0  0  0  0  0  0  0
   43.3230   24.7510   42.3020 H   0  0  0  0  0  0  0  0  0  0  0  0
   42.7360   24.3790   43.9950 H   0  0  0  0  0  0  0  0  0  0  0  0
   37.3940   28.3680   43.4020 C   0  0  0  0  0  2  0  0  0  0  0  0
   38.0200   29.6200   42.7530 C   0  0  0  0  0  2  0  0  0  0  0  0
   37.1980   30.1260   42.1870 H   0  0  0  0  0  0  0  0  0  0  0  0
  1  2  1  0  0  0  0
  2 21  1  0  0  0  0
  2  3  2  0  0  0  0
  3 13  1  0  0  0  0
  4  3  1  0  0  0  0
  5  4  2  0  0  0  0
  6  1  2  0  0  0  0
  6  5  1  0  0  0  0
  7  5  1  0  0  0  0
  7 11  1  0  0  0  0
  8 14  1  0  0  0  0
  8  7  1  0  0  0  0
  9  8  1  0  0  0  0
  9 10  1  0  0  0  0
 10 18  1  0  0  0  0
 10 11  1  0  0  0  0
 11 20  1  1  0  0  0
 11 24  1  0  0  0  0
 12  1  1  0  0  0  0
 15  8  1  0  0  0  0
 16  9  1  0  0  0  0
 17  9  1  0  0  0  0
 19 10  1  0  0  0  0
 21 23  1  0  0  0  0
 22 21  1  0  0  0  0
 25 24  1  0  0  0  0
 26 25  1  0  0  0  0
M  END
>  <minimizedAffinity>
-4.38483763

$$$$
