
 OpenBabel03252509143D

 39 42  0  0  1  0  0  0  0  0999 V2000
   47.4890   32.5720   44.2880 C   0  0  0  0  0  0  0  0  0  0  0  0
   46.7950   33.5460   43.5650 C   0  0  0  0  0  0  0  0  0  0  0  0
   45.7540   34.2900   44.1110 C   0  0  0  0  0  0  0  0  0  0  0  0
   45.3760   34.0610   45.4400 C   0  0  0  0  0  0  0  0  0  0  0  0
   44.4480   34.5710   46.2740 N   0  0  0  0  0  0  0  0  0  0  0  0
   44.5350   33.9600   47.4770 C   0  0  0  0  0  0  0  0  0  0  0  0
   45.5240   33.0750   47.3580 N   0  0  0  0  0  0  0  0  0  0  0  0
   46.0720   33.0980   46.1300 C   0  0  0  0  0  0  0  0  0  0  0  0
   47.1070   32.3450   45.6190 C   0  0  0  0  0  0  0  0  0  0  0  0
   48.2800   32.0500   43.7720 H   0  0  0  0  0  0  0  0  0  0  0  0
   43.7640   35.3320   46.0150 H   0  0  0  0  0  0  0  0  0  0  0  0
   43.9470   34.1210   48.3690 H   0  0  0  0  0  0  0  0  0  0  0  0
   47.6370   31.6040   46.1630 H   0  0  0  0  0  0  0  0  0  0  0  0
   47.0320   33.2330   39.9280 C   0  0  0  0  0  0  0  0  0  0  0  0
   47.8890   34.2780   39.5790 C   0  0  0  0  0  0  0  0  0  0  0  0
   48.3810   35.0830   40.6000 C   0  0  0  0  0  0  0  0  0  0  0  0
   48.0060   34.8210   41.8950 N   0  0  0  0  0  0  0  0  0  0  0  0
   47.1750   33.7990   42.1770 C   0  0  0  0  0  0  0  0  0  0  0  0
   46.6700   32.9860   41.2250 N   0  0  0  0  0  0  0  0  0  0  0  0
   46.6470   32.6030   39.1400 H   0  0  0  0  0  0  0  0  0  0  0  0
   48.1610   34.4530   38.5510 H   0  0  0  0  0  0  0  0  0  0  0  0
   49.0500   35.9110   40.4030 H   0  0  0  0  0  0  0  0  0  0  0  0
   44.8890   35.5200   43.1760 S   0  0  0  0  0  0  0  0  0  0  0  0
   42.3510   35.4500   42.4970 N   0  0  0  0  0  0  0  0  0  0  0  0
   43.6160   34.8520   42.0850 C   0  0  1  0  0  0  0  0  0  0  0  0
   43.9960   35.2750   40.6770 C   0  0  0  0  0  0  0  0  0  0  0  0
   42.9370   35.2600   39.7900 O   0  0  0  0  0  0  0  0  0  0  0  0
   41.7890   34.6480   40.2500 C   0  0  0  0  0  0  0  0  0  0  0  0
   41.3340   35.3480   41.4950 C   0  0  1  0  0  0  0  0  0  0  0  0
   42.1100   35.0230   43.4160 H   0  0  0  0  0  0  0  0  0  0  0  0
   43.5480   33.7460   42.1720 H   0  0  0  0  0  0  0  0  0  0  0  0
   44.4230   36.2980   40.7080 H   0  0  0  0  0  0  0  0  0  0  0  0
   44.7000   34.5520   40.2730 H   0  0  0  0  0  0  0  0  0  0  0  0
   41.0190   34.7690   39.4830 H   0  0  0  0  0  0  0  0  0  0  0  0
   42.0150   33.5940   40.4870 H   0  0  0  0  0  0  0  0  0  0  0  0
   40.9070   36.3530   41.2550 H   0  0  0  0  0  0  0  0  0  0  0  0
   40.1870   34.5230   42.0880 C   0  0  0  0  0  2  0  0  0  0  0  0
   39.7130   33.4400   41.1790 C   0  0  0  0  0  2  0  0  0  0  0  0
   40.2080   32.4660   41.4040 H   0  0  0  0  0  0  0  0  0  0  0  0
  1  9  1  0  0  0  0
  2  3  1  0  0  0  0
  2  1  2  0  0  0  0
  3  4  2  0  0  0  0
  4  8  1  0  0  0  0
  4  5  1  0  0  0  0
  5  6  1  0  0  0  0
  6 12  1  0  0  0  0
  7  6  2  0  0  0  0
  8  7  1  0  0  0  0
  9  8  2  0  0  0  0
  9 13  1  0  0  0  0
 10  1  1  0  0  0  0
 11  5  1  0  0  0  0
 14 19  1  0  0  0  0
 15 14  2  0  0  0  0
 15 16  1  0  0  0  0
 16 17  2  0  0  0  0
 17 18  1  0  0  0  0
 18  2  1  0  0  0  0
 19 18  2  0  0  0  0
 20 14  1  0  0  0  0
 21 15  1  0  0  0  0
 22 16  1  0  0  0  0
 23  3  1  0  0  0  0
 24 30  1  0  0  0  0
 25 31  1  1  0  0  0
 25 24  1  0  0  0  0
 25 23  1  0  0  0  0
 26 32  1  0  0  0  0
 26 25  1  0  0  0  0
 27 28  1  0  0  0  0
 27 26  1  0  0  0  0
 28 35  1  0  0  0  0
 28 29  1  0  0  0  0
 29 36  1  6  0  0  0
 29 37  1  0  0  0  0
 29 24  1  0  0  0  0
 33 26  1  0  0  0  0
 34 28  1  0  0  0  0
 38 39  1  0  0  0  0
 38 37  1  0  0  0  0
M  END
>  <minimizedAffinity>
-5.81855726

>  <minimizedRMSD>
0.238737673

$$$$
