
 OpenBabel03252509143D

 39 42  0  0  1  0  0  0  0  0999 V2000
   47.4860   32.5740   44.2740 C   0  0  0  0  0  0  0  0  0  0  0  0
   46.7930   33.5460   43.5480 C   0  0  0  0  0  0  0  0  0  0  0  0
   45.7520   34.2920   44.0930 C   0  0  0  0  0  0  0  0  0  0  0  0
   45.3750   34.0680   45.4230 C   0  0  0  0  0  0  0  0  0  0  0  0
   44.4480   34.5810   46.2560 N   0  0  0  0  0  0  0  0  0  0  0  0
   44.5350   33.9740   47.4610 C   0  0  0  0  0  0  0  0  0  0  0  0
   45.5240   33.0880   47.3440 N   0  0  0  0  0  0  0  0  0  0  0  0
   46.0710   33.1070   46.1160 C   0  0  0  0  0  0  0  0  0  0  0  0
   47.1050   32.3520   45.6060 C   0  0  0  0  0  0  0  0  0  0  0  0
   48.2760   32.0500   43.7600 H   0  0  0  0  0  0  0  0  0  0  0  0
   43.7640   35.3420   45.9950 H   0  0  0  0  0  0  0  0  0  0  0  0
   43.9480   34.1390   48.3530 H   0  0  0  0  0  0  0  0  0  0  0  0
   47.6350   31.6110   46.1520 H   0  0  0  0  0  0  0  0  0  0  0  0
   47.0360   33.2150   39.9140 C   0  0  0  0  0  0  0  0  0  0  0  0
   47.8850   34.2650   39.5600 C   0  0  0  0  0  0  0  0  0  0  0  0
   48.3690   35.0800   40.5770 C   0  0  0  0  0  0  0  0  0  0  0  0
   47.9950   34.8210   41.8730 N   0  0  0  0  0  0  0  0  0  0  0  0
   47.1720   33.7950   42.1600 C   0  0  0  0  0  0  0  0  0  0  0  0
   46.6740   32.9730   41.2120 N   0  0  0  0  0  0  0  0  0  0  0  0
   46.6560   32.5780   39.1280 H   0  0  0  0  0  0  0  0  0  0  0  0
   48.1560   34.4360   38.5310 H   0  0  0  0  0  0  0  0  0  0  0  0
   49.0320   35.9110   40.3760 H   0  0  0  0  0  0  0  0  0  0  0  0
   44.8880   35.5200   43.1540 S   0  0  0  0  0  0  0  0  0  0  0  0
   42.3540   35.4690   42.4590 N   0  0  0  0  0  0  0  0  0  0  0  0
   43.6150   34.8500   42.0660 C   0  0  1  0  0  0  0  0  0  0  0  0
   44.0090   35.2470   40.6540 C   0  0  0  0  0  0  0  0  0  0  0  0
   42.9560   35.2300   39.7600 O   0  0  0  0  0  0  0  0  0  0  0  0
   41.7980   34.6380   40.2210 C   0  0  0  0  0  0  0  0  0  0  0  0
   41.3430   35.3630   41.4520 C   0  0  1  0  0  0  0  0  0  0  0  0
   42.1010   35.0590   43.3830 H   0  0  0  0  0  0  0  0  0  0  0  0
   43.5340   33.7470   42.1690 H   0  0  0  0  0  0  0  0  0  0  0  0
   44.4470   36.2650   40.6720 H   0  0  0  0  0  0  0  0  0  0  0  0
   44.7070   34.5090   40.2660 H   0  0  0  0  0  0  0  0  0  0  0  0
   41.0350   34.7560   39.4470 H   0  0  0  0  0  0  0  0  0  0  0  0
   42.0100   33.5860   40.4760 H   0  0  0  0  0  0  0  0  0  0  0  0
   40.9290   36.3690   41.1930 H   0  0  0  0  0  0  0  0  0  0  0  0
   40.1820   34.5600   42.0500 C   0  0  0  0  0  2  0  0  0  0  0  0
   40.1360   33.1480   41.5690 C   0  0  0  0  0  2  0  0  0  0  0  0
   40.6580   32.4570   42.2720 H   0  0  0  0  0  0  0  0  0  0  0  0
  1  9  1  0  0  0  0
  2  3  1  0  0  0  0
  2  1  2  0  0  0  0
  3  4  2  0  0  0  0
  4  8  1  0  0  0  0
  4  5  1  0  0  0  0
  5  6  1  0  0  0  0
  6 12  1  0  0  0  0
  7  6  2  0  0  0  0
  8  7  1  0  0  0  0
  9  8  2  0  0  0  0
  9 13  1  0  0  0  0
 10  1  1  0  0  0  0
 11  5  1  0  0  0  0
 14 19  1  0  0  0  0
 15 14  2  0  0  0  0
 15 16  1  0  0  0  0
 16 17  2  0  0  0  0
 17 18  1  0  0  0  0
 18  2  1  0  0  0  0
 19 18  2  0  0  0  0
 20 14  1  0  0  0  0
 21 15  1  0  0  0  0
 22 16  1  0  0  0  0
 23  3  1  0  0  0  0
 24 30  1  0  0  0  0
 25 31  1  1  0  0  0
 25 24  1  0  0  0  0
 25 23  1  0  0  0  0
 26 32  1  0  0  0  0
 26 25  1  0  0  0  0
 27 28  1  0  0  0  0
 27 26  1  0  0  0  0
 28 35  1  0  0  0  0
 28 29  1  0  0  0  0
 29 36  1  6  0  0  0
 29 37  1  0  0  0  0
 29 24  1  0  0  0  0
 33 26  1  0  0  0  0
 34 28  1  0  0  0  0
 38 37  1  0  0  0  0
 38 39  1  0  0  0  0
M  END
>  <minimizedAffinity>
-5.81525803

>  <minimizedRMSD>
0.532685697

$$$$
