
 OpenBabel03252509143D

 39 42  0  0  1  0  0  0  0  0999 V2000
   47.4860   32.5760   44.2660 C   0  0  0  0  0  0  0  0  0  0  0  0
   46.7920   33.5480   43.5390 C   0  0  0  0  0  0  0  0  0  0  0  0
   45.7520   34.2950   44.0840 C   0  0  0  0  0  0  0  0  0  0  0  0
   45.3760   34.0720   45.4150 C   0  0  0  0  0  0  0  0  0  0  0  0
   44.4500   34.5860   46.2480 N   0  0  0  0  0  0  0  0  0  0  0  0
   44.5370   33.9800   47.4530 C   0  0  0  0  0  0  0  0  0  0  0  0
   45.5270   33.0940   47.3360 N   0  0  0  0  0  0  0  0  0  0  0  0
   46.0730   33.1120   46.1080 C   0  0  0  0  0  0  0  0  0  0  0  0
   47.1060   32.3560   45.5980 C   0  0  0  0  0  0  0  0  0  0  0  0
   48.2760   32.0520   43.7520 H   0  0  0  0  0  0  0  0  0  0  0  0
   43.7650   35.3470   45.9870 H   0  0  0  0  0  0  0  0  0  0  0  0
   43.9510   34.1460   48.3460 H   0  0  0  0  0  0  0  0  0  0  0  0
   47.6370   31.6170   46.1450 H   0  0  0  0  0  0  0  0  0  0  0  0
   47.0310   33.2130   39.9050 C   0  0  0  0  0  0  0  0  0  0  0  0
   47.8810   34.2620   39.5490 C   0  0  0  0  0  0  0  0  0  0  0  0
   48.3670   35.0770   40.5640 C   0  0  0  0  0  0  0  0  0  0  0  0
   47.9940   34.8210   41.8620 N   0  0  0  0  0  0  0  0  0  0  0  0
   47.1700   33.7950   42.1500 C   0  0  0  0  0  0  0  0  0  0  0  0
   46.6700   32.9720   41.2030 N   0  0  0  0  0  0  0  0  0  0  0  0
   46.6500   32.5760   39.1200 H   0  0  0  0  0  0  0  0  0  0  0  0
   48.1510   34.4320   38.5200 H   0  0  0  0  0  0  0  0  0  0  0  0
   49.0300   35.9080   40.3620 H   0  0  0  0  0  0  0  0  0  0  0  0
   44.8860   35.5210   43.1450 S   0  0  0  0  0  0  0  0  0  0  0  0
   42.3520   35.4670   42.4550 N   0  0  0  0  0  0  0  0  0  0  0  0
   43.6120   34.8490   42.0590 C   0  0  1  0  0  0  0  0  0  0  0  0
   44.0020   35.2460   40.6460 C   0  0  0  0  0  0  0  0  0  0  0  0
   42.9480   35.2280   39.7540 O   0  0  0  0  0  0  0  0  0  0  0  0
   41.7910   34.6360   40.2190 C   0  0  0  0  0  0  0  0  0  0  0  0
   41.3380   35.3600   41.4510 C   0  0  1  0  0  0  0  0  0  0  0  0
   42.1010   35.0570   43.3800 H   0  0  0  0  0  0  0  0  0  0  0  0
   43.5320   33.7460   42.1620 H   0  0  0  0  0  0  0  0  0  0  0  0
   44.4400   36.2650   40.6630 H   0  0  0  0  0  0  0  0  0  0  0  0
   44.7010   34.5100   40.2570 H   0  0  0  0  0  0  0  0  0  0  0  0
   41.0260   34.7530   39.4460 H   0  0  0  0  0  0  0  0  0  0  0  0
   42.0050   33.5840   40.4730 H   0  0  0  0  0  0  0  0  0  0  0  0
   40.9220   36.3660   41.1920 H   0  0  0  0  0  0  0  0  0  0  0  0
   40.1790   34.5560   42.0510 C   0  0  0  0  0  2  0  0  0  0  0  0
   40.1330   33.1450   41.5690 C   0  0  0  0  0  2  0  0  0  0  0  0
   40.6580   32.4530   42.2710 H   0  0  0  0  0  0  0  0  0  0  0  0
  1  9  1  0  0  0  0
  2  3  1  0  0  0  0
  2  1  2  0  0  0  0
  3  4  2  0  0  0  0
  4  8  1  0  0  0  0
  4  5  1  0  0  0  0
  5  6  1  0  0  0  0
  6 12  1  0  0  0  0
  7  6  2  0  0  0  0
  8  7  1  0  0  0  0
  9  8  2  0  0  0  0
  9 13  1  0  0  0  0
 10  1  1  0  0  0  0
 11  5  1  0  0  0  0
 14 19  1  0  0  0  0
 15 14  2  0  0  0  0
 15 16  1  0  0  0  0
 16 17  2  0  0  0  0
 17 18  1  0  0  0  0
 18  2  1  0  0  0  0
 19 18  2  0  0  0  0
 20 14  1  0  0  0  0
 21 15  1  0  0  0  0
 22 16  1  0  0  0  0
 23  3  1  0  0  0  0
 24 30  1  0  0  0  0
 25 31  1  1  0  0  0
 25 24  1  0  0  0  0
 25 23  1  0  0  0  0
 26 32  1  0  0  0  0
 26 25  1  0  0  0  0
 27 28  1  0  0  0  0
 27 26  1  0  0  0  0
 28 35  1  0  0  0  0
 28 29  1  0  0  0  0
 29 36  1  6  0  0  0
 29 37  1  0  0  0  0
 29 24  1  0  0  0  0
 33 26  1  0  0  0  0
 34 28  1  0  0  0  0
 38 37  1  0  0  0  0
 38 39  1  0  0  0  0
M  END
>  <minimizedAffinity>
-5.81553602

>  <minimizedRMSD>
0.265972257

$$$$
