
 OpenBabel03252509143D

 39 42  0  0  1  0  0  0  0  0999 V2000
   47.4880   32.5700   44.2840 C   0  0  0  0  0  0  0  0  0  0  0  0
   46.7940   33.5440   43.5600 C   0  0  0  0  0  0  0  0  0  0  0  0
   45.7530   34.2880   44.1070 C   0  0  0  0  0  0  0  0  0  0  0  0
   45.3770   34.0610   45.4370 C   0  0  0  0  0  0  0  0  0  0  0  0
   44.4500   34.5720   46.2710 N   0  0  0  0  0  0  0  0  0  0  0  0
   44.5370   33.9620   47.4740 C   0  0  0  0  0  0  0  0  0  0  0  0
   45.5270   33.0760   47.3550 N   0  0  0  0  0  0  0  0  0  0  0  0
   46.0730   33.0990   46.1270 C   0  0  0  0  0  0  0  0  0  0  0  0
   47.1070   32.3450   45.6150 C   0  0  0  0  0  0  0  0  0  0  0  0
   48.2780   32.0480   43.7680 H   0  0  0  0  0  0  0  0  0  0  0  0
   43.7650   35.3330   46.0120 H   0  0  0  0  0  0  0  0  0  0  0  0
   43.9500   34.1240   48.3670 H   0  0  0  0  0  0  0  0  0  0  0  0
   47.6380   31.6040   46.1600 H   0  0  0  0  0  0  0  0  0  0  0  0
   47.0320   33.2240   39.9250 C   0  0  0  0  0  0  0  0  0  0  0  0
   47.8850   34.2720   39.5730 C   0  0  0  0  0  0  0  0  0  0  0  0
   48.3730   35.0820   40.5920 C   0  0  0  0  0  0  0  0  0  0  0  0
   47.9990   34.8200   41.8880 N   0  0  0  0  0  0  0  0  0  0  0  0
   47.1720   33.7950   42.1720 C   0  0  0  0  0  0  0  0  0  0  0  0
   46.6710   32.9780   41.2220 N   0  0  0  0  0  0  0  0  0  0  0  0
   46.6490   32.5900   39.1370 H   0  0  0  0  0  0  0  0  0  0  0  0
   48.1550   34.4450   38.5450 H   0  0  0  0  0  0  0  0  0  0  0  0
   49.0380   35.9120   40.3930 H   0  0  0  0  0  0  0  0  0  0  0  0
   44.8880   35.5180   43.1710 S   0  0  0  0  0  0  0  0  0  0  0  0
   42.3520   35.4560   42.4850 N   0  0  0  0  0  0  0  0  0  0  0  0
   43.6150   34.8490   42.0810 C   0  0  1  0  0  0  0  0  0  0  0  0
   44.0010   35.2610   40.6720 C   0  0  0  0  0  0  0  0  0  0  0  0
   42.9450   35.2450   39.7810 O   0  0  0  0  0  0  0  0  0  0  0  0
   41.7930   34.6420   40.2420 C   0  0  0  0  0  0  0  0  0  0  0  0
   41.3370   35.3530   41.4810 C   0  0  1  0  0  0  0  0  0  0  0  0
   42.1050   35.0360   43.4060 H   0  0  0  0  0  0  0  0  0  0  0  0
   43.5420   33.7440   42.1750 H   0  0  0  0  0  0  0  0  0  0  0  0
   44.4330   36.2820   40.6970 H   0  0  0  0  0  0  0  0  0  0  0  0
   44.7030   34.5320   40.2740 H   0  0  0  0  0  0  0  0  0  0  0  0
   41.0260   34.7630   39.4720 H   0  0  0  0  0  0  0  0  0  0  0  0
   42.0130   33.5890   40.4860 H   0  0  0  0  0  0  0  0  0  0  0  0
   40.9160   36.3580   41.2330 H   0  0  0  0  0  0  0  0  0  0  0  0
   40.1840   34.5370   42.0760 C   0  0  0  0  0  2  0  0  0  0  0  0
   39.9020   33.2820   41.3200 C   0  0  0  0  0  2  0  0  0  0  0  0
   40.4320   32.4060   41.7640 H   0  0  0  0  0  0  0  0  0  0  0  0
  1  9  1  0  0  0  0
  2  3  1  0  0  0  0
  2  1  2  0  0  0  0
  3  4  2  0  0  0  0
  4  8  1  0  0  0  0
  4  5  1  0  0  0  0
  5  6  1  0  0  0  0
  6 12  1  0  0  0  0
  7  6  2  0  0  0  0
  8  7  1  0  0  0  0
  9  8  2  0  0  0  0
  9 13  1  0  0  0  0
 10  1  1  0  0  0  0
 11  5  1  0  0  0  0
 14 19  1  0  0  0  0
 15 14  2  0  0  0  0
 15 16  1  0  0  0  0
 16 17  2  0  0  0  0
 17 18  1  0  0  0  0
 18  2  1  0  0  0  0
 19 18  2  0  0  0  0
 20 14  1  0  0  0  0
 21 15  1  0  0  0  0
 22 16  1  0  0  0  0
 23  3  1  0  0  0  0
 24 30  1  0  0  0  0
 25 31  1  1  0  0  0
 25 24  1  0  0  0  0
 25 23  1  0  0  0  0
 26 32  1  0  0  0  0
 26 25  1  0  0  0  0
 27 28  1  0  0  0  0
 27 26  1  0  0  0  0
 28 35  1  0  0  0  0
 28 29  1  0  0  0  0
 29 36  1  6  0  0  0
 29 37  1  0  0  0  0
 29 24  1  0  0  0  0
 33 26  1  0  0  0  0
 34 28  1  0  0  0  0
 38 39  1  0  0  0  0
 38 37  1  0  0  0  0
M  END
>  <minimizedAffinity>
-5.80951881

>  <minimizedRMSD>
0.239852548

$$$$
