
 OpenBabel03252507373D

 32 35  0  0  0  0  0  0  0  0999 V2000
   45.2040   34.9060   43.1100 C   0  0  0  0  0  0  0  0  0  0  0  0
   45.8850   33.8010   43.6850 C   0  0  0  0  0  0  0  0  0  0  0  0
   45.8090   33.6730   45.0700 C   0  0  0  0  0  0  0  0  0  0  0  0
   45.1080   34.5820   45.7820 N   0  0  0  0  0  0  0  0  0  0  0  0
   44.4680   35.6270   45.2020 C   0  0  0  0  0  0  0  0  0  0  0  0
   44.5210   35.7790   43.8840 N   0  0  0  0  0  0  0  0  0  0  0  0
   46.4400   33.0770   43.1410 H   0  0  0  0  0  0  0  0  0  0  0  0
   43.9140   36.3470   45.7730 H   0  0  0  0  0  0  0  0  0  0  0  0
   46.7570   32.8350   47.1500 C   0  0  0  0  0  0  0  0  0  0  0  0
   46.4510   32.5950   45.8150 C   0  0  0  0  0  0  0  0  0  0  0  0
   46.7670   31.3740   45.2890 C   0  0  0  0  0  0  0  0  0  0  0  0
   47.3750   30.3810   46.0290 C   0  0  0  0  0  0  0  0  0  0  0  0
   47.7680   29.1180   45.7080 N   0  0  0  0  0  0  0  0  0  0  0  0
   48.3240   28.5700   46.8550 C   0  0  0  0  0  0  0  0  0  0  0  0
   48.2570   29.4910   47.8230 N   0  0  0  0  0  0  0  0  0  0  0  0
   47.6800   30.6070   47.3410 C   0  0  0  0  0  0  0  0  0  0  0  0
   47.3710   31.8290   47.8970 C   0  0  0  0  0  0  0  0  0  0  0  0
   46.5330   33.7800   47.6250 H   0  0  0  0  0  0  0  0  0  0  0  0
   46.5120   31.2250   44.2420 H   0  0  0  0  0  0  0  0  0  0  0  0
   47.6660   28.6510   44.7630 H   0  0  0  0  0  0  0  0  0  0  0  0
   48.7100   27.5650   46.8420 H   0  0  0  0  0  0  0  0  0  0  0  0
   47.6140   32.0190   48.9510 H   0  0  0  0  0  0  0  0  0  0  0  0
   45.2750   35.0420   41.7270 O   0  0  0  0  0  0  0  0  0  0  0  0
   44.1360   34.8630   40.9500 C   0  0  0  0  0  0  0  0  0  0  0  0
   44.4730   33.7550   40.2620 C   0  0  0  0  0  0  0  0  0  0  0  0
   42.9370   33.4690   39.1840 S   0  0  0  0  0  0  0  0  0  0  0  0
   42.1420   35.0120   39.9590 C   0  0  0  0  0  0  0  0  0  0  0  0
   42.9460   35.3160   40.6450 N   0  0  0  0  0  0  0  0  0  0  0  0
   45.1240   32.8040   39.8730 H   0  0  0  0  0  0  0  0  0  0  0  0
   40.7870   35.5090   39.6000 C   0  0  0  0  0  2  0  0  0  0  0  0
   40.2850   36.3380   40.7300 C   0  0  0  0  0  2  0  0  0  0  0  0
   40.6720   37.3880   40.5970 H   0  0  0  0  0  0  0  0  0  0  0  0
  1  2  2  0  0  0  0
  1  6  1  0  0  0  0
  2  3  1  0  0  0  0
  3  4  2  0  0  0  0
  3 10  1  0  0  0  0
  5  8  1  0  0  0  0
  5  4  1  0  0  0  0
  6  5  2  0  0  0  0
  7  2  1  0  0  0  0
  9 18  1  0  0  0  0
  9 17  1  0  0  0  0
 10  9  2  0  0  0  0
 11 10  1  0  0  0  0
 11 12  2  0  0  0  0
 12 16  1  0  0  0  0
 13 12  1  0  0  0  0
 13 14  1  0  0  0  0
 14 15  2  0  0  0  0
 16 15  1  0  0  0  0
 16 17  2  0  0  0  0
 17 22  1  0  0  0  0
 19 11  1  0  0  0  0
 20 13  1  0  0  0  0
 21 14  1  0  0  0  0
 23  1  1  0  0  0  0
 24 23  1  0  0  0  0
 25 24  2  0  0  0  0
 26 27  1  0  0  0  0
 26 25  1  0  0  0  0
 27 28  2  0  0  0  0
 28 24  1  0  0  0  0
 29 25  1  0  0  0  0
 30 27  1  0  0  0  0
 30 31  1  0  0  0  0
 32 31  1  0  0  0  0
M  END
>  <minimizedAffinity>
-5.81265068

>  <minimizedRMSD>
0.563586771

$$$$
