
 OpenBabel03252509143D

 39 42  0  0  1  0  0  0  0  0999 V2000
   47.4600   32.6900   44.0750 C   0  0  0  0  0  0  0  0  0  0  0  0
   46.7520   33.6110   43.2980 C   0  0  0  0  0  0  0  0  0  0  0  0
   45.6970   34.3660   43.8020 C   0  0  0  0  0  0  0  0  0  0  0  0
   45.3210   34.2040   45.1420 C   0  0  0  0  0  0  0  0  0  0  0  0
   44.3820   34.7430   45.9460 N   0  0  0  0  0  0  0  0  0  0  0  0
   44.4770   34.2000   47.1800 C   0  0  0  0  0  0  0  0  0  0  0  0
   45.4820   33.3270   47.1110 N   0  0  0  0  0  0  0  0  0  0  0  0
   46.0320   33.2930   45.8840 C   0  0  0  0  0  0  0  0  0  0  0  0
   47.0800   32.5310   45.4160 C   0  0  0  0  0  0  0  0  0  0  0  0
   48.2610   32.1550   43.5890 H   0  0  0  0  0  0  0  0  0  0  0  0
   43.6860   35.4770   45.6440 H   0  0  0  0  0  0  0  0  0  0  0  0
   43.8850   34.4010   48.0620 H   0  0  0  0  0  0  0  0  0  0  0  0
   47.6220   31.8290   46.0000 H   0  0  0  0  0  0  0  0  0  0  0  0
   46.9490   33.1420   39.6770 C   0  0  0  0  0  0  0  0  0  0  0  0
   47.8410   34.1410   39.2800 C   0  0  0  0  0  0  0  0  0  0  0  0
   48.3680   34.9690   40.2630 C   0  0  0  0  0  0  0  0  0  0  0  0
   47.9940   34.7730   41.5710 N   0  0  0  0  0  0  0  0  0  0  0  0
   47.1290   33.7940   41.8990 C   0  0  0  0  0  0  0  0  0  0  0  0
   46.5880   32.9620   40.9840 N   0  0  0  0  0  0  0  0  0  0  0  0
   46.5360   32.4950   38.9160 H   0  0  0  0  0  0  0  0  0  0  0  0
   48.1100   34.2640   38.2440 H   0  0  0  0  0  0  0  0  0  0  0  0
   49.0640   35.7630   40.0290 H   0  0  0  0  0  0  0  0  0  0  0  0
   44.8120   35.5280   42.8000 S   0  0  0  0  0  0  0  0  0  0  0  0
   42.2460   35.4040   42.2520 N   0  0  0  0  0  0  0  0  0  0  0  0
   43.4940   34.7910   41.8130 C   0  0  1  0  0  0  0  0  0  0  0  0
   43.8000   35.1370   40.3660 C   0  0  0  0  0  0  0  0  0  0  0  0
   42.7000   35.0650   39.5350 O   0  0  0  0  0  0  0  0  0  0  0  0
   41.5810   34.4730   40.0850 C   0  0  0  0  0  0  0  0  0  0  0  0
   41.1810   35.2390   41.3100 C   0  0  1  0  0  0  0  0  0  0  0  0
   42.0530   35.0270   43.2050 H   0  0  0  0  0  0  0  0  0  0  0  0
   43.4410   33.6920   41.9640 H   0  0  0  0  0  0  0  0  0  0  0  0
   44.2190   36.1630   40.3180 H   0  0  0  0  0  0  0  0  0  0  0  0
   44.4900   34.3970   39.9690 H   0  0  0  0  0  0  0  0  0  0  0  0
   40.7740   34.5460   39.3510 H   0  0  0  0  0  0  0  0  0  0  0  0
   41.8280   33.4360   40.3690 H   0  0  0  0  0  0  0  0  0  0  0  0
   40.7330   36.2260   41.0350 H   0  0  0  0  0  0  0  0  0  0  0  0
   40.0720   34.4410   42.0040 C   0  0  0  0  0  2  0  0  0  0  0  0
   40.0710   32.9950   41.6350 C   0  0  0  0  0  2  0  0  0  0  0  0
   40.6410   32.3820   42.3740 H   0  0  0  0  0  0  0  0  0  0  0  0
  1  9  1  0  0  0  0
  2  3  1  0  0  0  0
  2  1  2  0  0  0  0
  3  4  2  0  0  0  0
  4  8  1  0  0  0  0
  4  5  1  0  0  0  0
  5  6  1  0  0  0  0
  6 12  1  0  0  0  0
  7  6  2  0  0  0  0
  8  7  1  0  0  0  0
  9  8  2  0  0  0  0
  9 13  1  0  0  0  0
 10  1  1  0  0  0  0
 11  5  1  0  0  0  0
 14 19  1  0  0  0  0
 15 14  2  0  0  0  0
 15 16  1  0  0  0  0
 16 17  2  0  0  0  0
 17 18  1  0  0  0  0
 18  2  1  0  0  0  0
 19 18  2  0  0  0  0
 20 14  1  0  0  0  0
 21 15  1  0  0  0  0
 22 16  1  0  0  0  0
 23  3  1  0  0  0  0
 24 30  1  0  0  0  0
 25 31  1  1  0  0  0
 25 24  1  0  0  0  0
 25 23  1  0  0  0  0
 26 25  1  0  0  0  0
 27 28  1  0  0  0  0
 27 26  1  0  0  0  0
 28 35  1  0  0  0  0
 28 29  1  0  0  0  0
 29 36  1  6  0  0  0
 29 37  1  0  0  0  0
 29 24  1  0  0  0  0
 32 26  1  0  0  0  0
 33 26  1  0  0  0  0
 34 28  1  0  0  0  0
 38 37  1  0  0  0  0
 38 39  1  0  0  0  0
M  END
>  <minimizedAffinity>
-5.73896551

>  <minimizedRMSD>
0.736487985

$$$$
