
 OpenBabel03252507373D

 32 35  0  0  0  0  0  0  0  0999 V2000
   44.9880   34.8390   43.1950 C   0  0  0  0  0  0  0  0  0  0  0  0
   45.6830   33.7200   43.7250 C   0  0  0  0  0  0  0  0  0  0  0  0
   45.7330   33.6170   45.1130 C   0  0  0  0  0  0  0  0  0  0  0  0
   45.1340   34.5610   45.8700 N   0  0  0  0  0  0  0  0  0  0  0  0
   44.4770   35.6190   45.3330 C   0  0  0  0  0  0  0  0  0  0  0  0
   44.4110   35.7470   44.0130 N   0  0  0  0  0  0  0  0  0  0  0  0
   46.1590   32.9680   43.1450 H   0  0  0  0  0  0  0  0  0  0  0  0
   44.0040   36.3660   45.9390 H   0  0  0  0  0  0  0  0  0  0  0  0
   46.7720   32.7520   47.1380 C   0  0  0  0  0  0  0  0  0  0  0  0
   46.4060   32.5290   45.8160 C   0  0  0  0  0  0  0  0  0  0  0  0
   46.6970   31.3150   45.2600 C   0  0  0  0  0  0  0  0  0  0  0  0
   47.3360   30.3110   45.9590 C   0  0  0  0  0  0  0  0  0  0  0  0
   47.7130   29.0530   45.6050 N   0  0  0  0  0  0  0  0  0  0  0  0
   48.3180   28.4890   46.7200 C   0  0  0  0  0  0  0  0  0  0  0  0
   48.2950   29.3980   47.7020 N   0  0  0  0  0  0  0  0  0  0  0  0
   47.6990   30.5210   47.2600 C   0  0  0  0  0  0  0  0  0  0  0  0
   47.4170   31.7350   47.8440 C   0  0  0  0  0  0  0  0  0  0  0  0
   46.5700   33.6900   47.6340 H   0  0  0  0  0  0  0  0  0  0  0  0
   46.3960   31.1790   44.2240 H   0  0  0  0  0  0  0  0  0  0  0  0
   47.5680   28.5980   44.6600 H   0  0  0  0  0  0  0  0  0  0  0  0
   48.7020   27.4850   46.6760 H   0  0  0  0  0  0  0  0  0  0  0  0
   47.7060   31.9120   48.8890 H   0  0  0  0  0  0  0  0  0  0  0  0
   44.9330   34.9510   41.8090 O   0  0  0  0  0  0  0  0  0  0  0  0
   43.7030   34.9700   41.1600 C   0  0  0  0  0  0  0  0  0  0  0  0
   43.9140   34.0550   40.1940 C   0  0  0  0  0  0  0  0  0  0  0  0
   42.2510   34.0450   39.2800 S   0  0  0  0  0  0  0  0  0  0  0  0
   41.6110   35.3650   40.4900 C   0  0  0  0  0  0  0  0  0  0  0  0
   42.5030   35.4910   41.1220 N   0  0  0  0  0  0  0  0  0  0  0  0
   44.4790   33.2190   39.5150 H   0  0  0  0  0  0  0  0  0  0  0  0
   40.2430   35.9430   40.4300 C   0  0  0  0  0  0  0  0  0  0  0  0
   39.3320   34.9120   39.8600 C   0  0  0  0  0  0  0  0  0  0  0  0
   38.9810   34.2480   40.7000 H   0  0  0  0  0  0  0  0  0  0  0  0
  1  2  2  0  0  0  0
  1  6  1  0  0  0  0
  2  3  1  0  0  0  0
  3 10  1  0  0  0  0
  3  4  2  0  0  0  0
  5  4  1  0  0  0  0
  5  8  1  0  0  0  0
  6  5  2  0  0  0  0
  7  2  1  0  0  0  0
  9 18  1  0  0  0  0
  9 17  1  0  0  0  0
 10  9  2  0  0  0  0
 11 10  1  0  0  0  0
 11 12  2  0  0  0  0
 12 16  1  0  0  0  0
 13 12  1  0  0  0  0
 13 14  1  0  0  0  0
 14 15  2  0  0  0  0
 16 15  1  0  0  0  0
 16 17  2  0  0  0  0
 17 22  1  0  0  0  0
 19 11  1  0  0  0  0
 20 13  1  0  0  0  0
 21 14  1  0  0  0  0
 23  1  1  0  0  0  0
 24 23  1  0  0  0  0
 25 24  2  0  0  0  0
 26 25  1  0  0  0  0
 26 27  1  0  0  0  0
 27 28  2  0  0  0  0
 28 24  1  0  0  0  0
 29 25  1  0  0  0  0
 30 27  1  0  0  0  0
 31 30  1  0  0  0  0
 31 32  1  0  0  0  0
M  END
>  <minimizedAffinity>
-5.87175035

>  <minimizedRMSD>
0.802259922

$$$$
