
 OpenBabel03252509143D

 39 42  0  0  1  0  0  0  0  0999 V2000
   47.5290   32.6500   44.1630 C   0  0  0  0  0  0  0  0  0  0  0  0
   46.8560   33.5720   43.3580 C   0  0  0  0  0  0  0  0  0  0  0  0
   45.7900   34.3380   43.8210 C   0  0  0  0  0  0  0  0  0  0  0  0
   45.3670   34.1870   45.1470 C   0  0  0  0  0  0  0  0  0  0  0  0
   44.4060   34.7380   45.9160 N   0  0  0  0  0  0  0  0  0  0  0  0
   44.4540   34.2020   47.1550 C   0  0  0  0  0  0  0  0  0  0  0  0
   45.4540   33.3200   47.1260 N   0  0  0  0  0  0  0  0  0  0  0  0
   46.0450   33.2740   45.9190 C   0  0  0  0  0  0  0  0  0  0  0  0
   47.1020   32.5010   45.4910 C   0  0  0  0  0  0  0  0  0  0  0  0
   48.3420   32.1050   43.7090 H   0  0  0  0  0  0  0  0  0  0  0  0
   43.7260   35.4760   45.5860 H   0  0  0  0  0  0  0  0  0  0  0  0
   43.8340   34.4120   48.0150 H   0  0  0  0  0  0  0  0  0  0  0  0
   47.6180   31.7990   46.0980 H   0  0  0  0  0  0  0  0  0  0  0  0
   47.3620   32.9500   39.7900 C   0  0  0  0  0  0  0  0  0  0  0  0
   48.0850   34.0710   39.3760 C   0  0  0  0  0  0  0  0  0  0  0  0
   48.3940   35.0330   40.3300 C   0  0  0  0  0  0  0  0  0  0  0  0
   47.9780   34.8440   41.6260 N   0  0  0  0  0  0  0  0  0  0  0  0
   47.2820   33.7430   41.9720 C   0  0  0  0  0  0  0  0  0  0  0  0
   46.9570   32.7780   41.0850 N   0  0  0  0  0  0  0  0  0  0  0  0
   47.1190   32.1980   39.0520 H   0  0  0  0  0  0  0  0  0  0  0  0
   48.3930   34.1840   38.3500 H   0  0  0  0  0  0  0  0  0  0  0  0
   48.9510   35.9260   40.0810 H   0  0  0  0  0  0  0  0  0  0  0  0
   44.9500   35.5000   42.7820 S   0  0  0  0  0  0  0  0  0  0  0  0
   42.5000   35.7120   41.8570 N   0  0  0  0  0  0  0  0  0  0  0  0
   43.6200   34.7790   41.8000 C   0  0  1  0  0  0  0  0  0  0  0  0
   44.1570   34.6480   40.3860 C   0  0  0  0  0  0  0  0  0  0  0  0
   43.1690   34.5550   39.4240 O   0  0  0  0  0  0  0  0  0  0  0  0
   41.8920   34.3580   39.9070 C   0  0  0  0  0  0  0  0  0  0  0  0
   41.5390   35.4950   40.8190 C   0  0  1  0  0  0  0  0  0  0  0  0
   42.1210   35.6570   42.8270 H   0  0  0  0  0  0  0  0  0  0  0  0
   43.3040   33.7950   42.2070 H   0  0  0  0  0  0  0  0  0  0  0  0
   44.7980   35.5230   40.1570 H   0  0  0  0  0  0  0  0  0  0  0  0
   44.7030   33.7110   40.3050 H   0  0  0  0  0  0  0  0  0  0  0  0
   41.2090   34.3750   39.0530 H   0  0  0  0  0  0  0  0  0  0  0  0
   41.8650   33.4130   40.4750 H   0  0  0  0  0  0  0  0  0  0  0  0
   41.3590   36.4330   40.2380 H   0  0  0  0  0  0  0  0  0  0  0  0
   40.2070   35.1420   41.4920 C   0  0  0  0  0  2  0  0  0  0  0  0
   39.9550   33.6730   41.5580 C   0  0  0  0  0  2  0  0  0  0  0  0
   40.2840   33.2430   42.5340 H   0  0  0  0  0  0  0  0  0  0  0  0
  1  9  1  0  0  0  0
  2  3  1  0  0  0  0
  2  1  2  0  0  0  0
  3  4  2  0  0  0  0
  4  5  1  0  0  0  0
  4  8  1  0  0  0  0
  5  6  1  0  0  0  0
  6 12  1  0  0  0  0
  7  6  2  0  0  0  0
  8  7  1  0  0  0  0
  9  8  2  0  0  0  0
  9 13  1  0  0  0  0
 10  1  1  0  0  0  0
 11  5  1  0  0  0  0
 14 19  1  0  0  0  0
 15 14  2  0  0  0  0
 15 16  1  0  0  0  0
 16 17  2  0  0  0  0
 17 18  1  0  0  0  0
 18  2  1  0  0  0  0
 19 18  2  0  0  0  0
 20 14  1  0  0  0  0
 21 15  1  0  0  0  0
 22 16  1  0  0  0  0
 23  3  1  0  0  0  0
 24 30  1  0  0  0  0
 25 24  1  0  0  0  0
 25 31  1  1  0  0  0
 25 23  1  0  0  0  0
 26 25  1  0  0  0  0
 27 28  1  0  0  0  0
 27 26  1  0  0  0  0
 28 35  1  0  0  0  0
 28 29  1  0  0  0  0
 29 36  1  6  0  0  0
 29 37  1  0  0  0  0
 29 24  1  0  0  0  0
 32 26  1  0  0  0  0
 33 26  1  0  0  0  0
 34 28  1  0  0  0  0
 37 38  1  0  0  0  0
 38 39  1  0  0  0  0
M  END
>  <minimizedAffinity>
-5.58426714

>  <minimizedRMSD>
0.776729941

$$$$
