
 OpenBabel03252506493D

 23 24  0  0  0  0  0  0  0  0999 V2000
   37.4780   28.2910   43.5220 S   0  0  0  0  0  0  0  0  0  0  0  0
   35.8160   29.4150   41.0290 Cl  0  0  0  0  0  0  0  0  0  0  0  0
   37.3630   30.1520   41.4080 C   0  0  0  0  0  0  0  0  0  0  0  0
   38.0020   29.6070   42.4880 C   0  0  0  0  0  0  0  0  0  0  0  0
   39.2470   30.1690   42.8270 C   0  0  0  0  0  0  0  0  0  0  0  0
   39.7640   31.2180   42.0790 C   0  0  0  0  0  0  0  0  0  0  0  0
   39.1090   31.7570   40.9920 C   0  0  0  0  0  0  0  0  0  0  0  0
   37.8710   31.1900   40.6640 C   0  0  0  0  0  0  0  0  0  0  0  0
   36.9400   31.7890   39.3020 Cl  0  0  0  0  0  0  0  0  0  0  0  0
   39.8390   29.8190   43.6600 H   0  0  0  0  0  0  0  0  0  0  0  0
   40.7310   31.6550   42.3410 H   0  0  0  0  0  0  0  0  0  0  0  0
   39.5010   32.5670   40.4100 H   0  0  0  0  0  0  0  0  0  0  0  0
   38.2650   26.7340   43.1420 C   0  0  0  0  0  0  0  0  0  0  0  0
   39.5410   26.5500   43.6790 C   0  0  0  0  0  0  0  0  0  0  0  0
   40.2180   25.3490   43.4210 C   0  0  0  0  0  0  0  0  0  0  0  0
   39.5920   24.4290   42.6590 N   0  0  0  0  0  0  0  0  0  0  0  0
   38.3600   24.6200   42.1460 C   0  0  0  0  0  0  0  0  0  0  0  0
   37.6740   25.7780   42.3800 N   0  0  0  0  0  0  0  0  0  0  0  0
   40.0100   27.3180   44.2890 H   0  0  0  0  0  0  0  0  0  0  0  0
   41.2030   25.2200   43.8430 H   0  0  0  0  0  0  0  0  0  0  0  0
   37.7010   23.5900   41.3140 C   0  0  0  0  0  2  0  0  0  0  0  0
   36.4830   24.0570   40.5890 C   0  0  0  0  0  2  0  0  0  0  0  0
   35.6510   23.2980   40.6550 H   0  0  0  0  0  0  0  0  0  0  0  0
  2  3  1  0  0  0  0
  3  4  1  0  0  0  0
  4  5  2  0  0  0  0
  4  1  1  0  0  0  0
  5 10  1  0  0  0  0
  6 11  1  0  0  0  0
  6  5  1  0  0  0  0
  7  6  2  0  0  0  0
  8  7  1  0  0  0  0
  8  3  2  0  0  0  0
  9  8  1  0  0  0  0
 12  7  1  0  0  0  0
 13  1  1  0  0  0  0
 13 14  1  0  0  0  0
 14 19  1  0  0  0  0
 15 14  2  0  0  0  0
 15 20  1  0  0  0  0
 16 15  1  0  0  0  0
 17 18  1  0  0  0  0
 17 16  2  0  0  0  0
 18 13  2  0  0  0  0
 21 17  1  0  0  0  0
 22 23  1  0  0  0  0
 22 21  1  0  0  0  0
M  END
>  <minimizedAffinity>
-5.02405691

$$$$

 OpenBabel03252506493D

 23 24  0  0  0  0  0  0  0  0999 V2000
   35.6040   28.9100   40.5560 S   0  0  0  0  0  0  0  0  0  0  0  0
   36.6040   25.9210   40.0040 Cl  0  0  0  0  0  0  0  0  0  0  0  0
   37.2250   26.7670   41.4110 C   0  0  0  0  0  0  0  0  0  0  0  0
   36.7420   28.0380   41.5670 C   0  0  0  0  0  0  0  0  0  0  0  0
   37.2140   28.7540   42.6830 C   0  0  0  0  0  0  0  0  0  0  0  0
   38.1200   28.1650   43.5550 C   0  0  0  0  0  0  0  0  0  0  0  0
   38.5970   26.8820   43.3850 C   0  0  0  0  0  0  0  0  0  0  0  0
   38.1210   26.1800   42.2710 C   0  0  0  0  0  0  0  0  0  0  0  0
   38.6540   24.5400   41.9460 Cl  0  0  0  0  0  0  0  0  0  0  0  0
   36.9010   29.7630   42.9040 H   0  0  0  0  0  0  0  0  0  0  0  0
   38.4860   28.7190   44.4220 H   0  0  0  0  0  0  0  0  0  0  0  0
   39.2960   26.4210   44.0540 H   0  0  0  0  0  0  0  0  0  0  0  0
   36.3690   30.1780   39.5580 C   0  0  0  0  0  0  0  0  0  0  0  0
   36.7350   29.7960   38.2650 C   0  0  0  0  0  0  0  0  0  0  0  0
   37.3410   30.7420   37.4250 C   0  0  0  0  0  0  0  0  0  0  0  0
   37.5390   31.9810   37.9190 N   0  0  0  0  0  0  0  0  0  0  0  0
   37.1800   32.3360   39.1700 C   0  0  0  0  0  0  0  0  0  0  0  0
   36.5880   31.4380   40.0110 N   0  0  0  0  0  0  0  0  0  0  0  0
   36.5570   28.7850   37.9060 H   0  0  0  0  0  0  0  0  0  0  0  0
   37.6180   30.4330   36.4290 H   0  0  0  0  0  0  0  0  0  0  0  0
   37.4120   33.7050   39.6800 C   0  0  0  0  0  2  0  0  0  0  0  0
   38.8250   34.0020   40.0540 C   0  0  0  0  0  2  0  0  0  0  0  0
   38.8810   34.5580   41.0350 H   0  0  0  0  0  0  0  0  0  0  0  0
  1  4  1  0  0  0  0
  2  3  1  0  0  0  0
  3  4  2  0  0  0  0
  3  8  1  0  0  0  0
  4  5  1  0  0  0  0
  5 10  1  0  0  0  0
  5  6  2  0  0  0  0
  6 11  1  0  0  0  0
  7  6  1  0  0  0  0
  7 12  1  0  0  0  0
  8  7  2  0  0  0  0
  9  8  1  0  0  0  0
 13 18  1  0  0  0  0
 13  1  1  0  0  0  0
 14 13  2  0  0  0  0
 15 16  2  0  0  0  0
 15 14  1  0  0  0  0
 16 17  1  0  0  0  0
 17 21  1  0  0  0  0
 17 18  2  0  0  0  0
 19 14  1  0  0  0  0
 20 15  1  0  0  0  0
 21 22  1  0  0  0  0
 22 23  1  0  0  0  0
M  END
>  <minimizedAffinity>
-5.02190924

$$$$

 OpenBabel03252506493D

 23 24  0  0  0  0  0  0  0  0999 V2000
   37.5260   28.4840   43.3710 S   0  0  0  0  0  0  0  0  0  0  0  0
   39.5060   30.7840   42.3560 Cl  0  0  0  0  0  0  0  0  0  0  0  0
   38.0820   30.4180   41.3960 C   0  0  0  0  0  0  0  0  0  0  0  0
   37.2950   29.4220   41.9080 C   0  0  0  0  0  0  0  0  0  0  0  0
   36.1410   29.0970   41.1690 C   0  0  0  0  0  0  0  0  0  0  0  0
   35.8550   29.7740   39.9910 C   0  0  0  0  0  0  0  0  0  0  0  0
   36.6580   30.7760   39.4890 C   0  0  0  0  0  0  0  0  0  0  0  0
   37.8020   31.0910   40.2320 C   0  0  0  0  0  0  0  0  0  0  0  0
   38.9040   32.3480   39.6960 Cl  0  0  0  0  0  0  0  0  0  0  0  0
   35.4480   28.3280   41.4770 H   0  0  0  0  0  0  0  0  0  0  0  0
   34.9600   29.5220   39.4180 H   0  0  0  0  0  0  0  0  0  0  0  0
   36.4440   31.3030   38.5810 H   0  0  0  0  0  0  0  0  0  0  0  0
   38.3220   26.9110   43.0870 C   0  0  0  0  0  0  0  0  0  0  0  0
   39.5760   26.7480   43.6800 C   0  0  0  0  0  0  0  0  0  0  0  0
   40.2590   25.5360   43.4980 C   0  0  0  0  0  0  0  0  0  0  0  0
   39.6600   24.5860   42.7510 N   0  0  0  0  0  0  0  0  0  0  0  0
   38.4480   24.7580   42.1840 C   0  0  0  0  0  0  0  0  0  0  0  0
   37.7580   25.9260   42.3430 N   0  0  0  0  0  0  0  0  0  0  0  0
   40.0240   27.5410   44.2740 H   0  0  0  0  0  0  0  0  0  0  0  0
   41.2270   25.4240   43.9620 H   0  0  0  0  0  0  0  0  0  0  0  0
   37.8190   23.6950   41.3710 C   0  0  0  0  0  2  0  0  0  0  0  0
   36.4690   24.0360   40.8340 C   0  0  0  0  0  2  0  0  0  0  0  0
   35.7520   23.1720   40.9500 H   0  0  0  0  0  0  0  0  0  0  0  0
  3  4  1  0  0  0  0
  3  2  1  0  0  0  0
  4  1  1  0  0  0  0
  5 10  1  0  0  0  0
  5  4  2  0  0  0  0
  6  5  1  0  0  0  0
  7  6  2  0  0  0  0
  7  8  1  0  0  0  0
  8  3  2  0  0  0  0
  9  8  1  0  0  0  0
 11  6  1  0  0  0  0
 12  7  1  0  0  0  0
 13  1  1  0  0  0  0
 13 14  1  0  0  0  0
 14 19  1  0  0  0  0
 15 14  2  0  0  0  0
 15 20  1  0  0  0  0
 16 15  1  0  0  0  0
 17 18  1  0  0  0  0
 17 16  2  0  0  0  0
 18 13  2  0  0  0  0
 21 17  1  0  0  0  0
 22 23  1  0  0  0  0
 22 21  1  0  0  0  0
M  END
>  <minimizedAffinity>
-4.93166828

$$$$

 OpenBabel03252506493D

 23 24  0  0  0  0  0  0  0  0999 V2000
   36.8960   29.9070   39.6940 S   0  0  0  0  0  0  0  0  0  0  0  0
   36.4580   26.7370   39.6800 Cl  0  0  0  0  0  0  0  0  0  0  0  0
   36.9320   27.5120   41.1820 C   0  0  0  0  0  0  0  0  0  0  0  0
   37.0950   28.8680   41.0930 C   0  0  0  0  0  0  0  0  0  0  0  0
   37.4750   29.5300   42.2750 C   0  0  0  0  0  0  0  0  0  0  0  0
   37.6640   28.8090   43.4470 C   0  0  0  0  0  0  0  0  0  0  0  0
   37.4940   27.4430   43.5210 C   0  0  0  0  0  0  0  0  0  0  0  0
   37.1170   26.7940   42.3390 C   0  0  0  0  0  0  0  0  0  0  0  0
   36.8710   25.0570   42.3050 Cl  0  0  0  0  0  0  0  0  0  0  0  0
   37.6330   30.5970   42.3220 H   0  0  0  0  0  0  0  0  0  0  0  0
   37.9580   29.3230   44.3650 H   0  0  0  0  0  0  0  0  0  0  0  0
   37.6380   26.8800   44.4220 H   0  0  0  0  0  0  0  0  0  0  0  0
   37.9500   31.3470   39.7240 C   0  0  0  0  0  0  0  0  0  0  0  0
   37.3130   32.5620   39.9880 C   0  0  0  0  0  0  0  0  0  0  0  0
   38.0820   33.7350   40.0270 C   0  0  0  0  0  0  0  0  0  0  0  0
   39.4070   33.6230   39.8030 N   0  0  0  0  0  0  0  0  0  0  0  0
   40.0080   32.4430   39.5490 C   0  0  0  0  0  0  0  0  0  0  0  0
   39.2880   31.2830   39.5050 N   0  0  0  0  0  0  0  0  0  0  0  0
   36.2410   32.6080   40.1620 H   0  0  0  0  0  0  0  0  0  0  0  0
   37.5770   34.6660   40.2330 H   0  0  0  0  0  0  0  0  0  0  0  0
   41.4650   32.3550   39.3080 C   0  0  0  0  0  2  0  0  0  0  0  0
   42.3150   32.8260   40.4400 C   0  0  0  0  0  2  0  0  0  0  0  0
   43.1690   33.4660   40.0720 H   0  0  0  0  0  0  0  0  0  0  0  0
  1 13  1  0  0  0  0
  1  4  1  0  0  0  0
  2  3  1  0  0  0  0
  3  8  1  0  0  0  0
  4  3  2  0  0  0  0
  4  5  1  0  0  0  0
  5 10  1  0  0  0  0
  5  6  2  0  0  0  0
  6  7  1  0  0  0  0
  6 11  1  0  0  0  0
  7 12  1  0  0  0  0
  8  7  2  0  0  0  0
  9  8  1  0  0  0  0
 13 14  1  0  0  0  0
 14 15  2  0  0  0  0
 14 19  1  0  0  0  0
 15 20  1  0  0  0  0
 16 15  1  0  0  0  0
 17 16  2  0  0  0  0
 18 17  1  0  0  0  0
 18 13  2  0  0  0  0
 21 17  1  0  0  0  0
 21 22  1  0  0  0  0
 23 22  1  0  0  0  0
M  END
>  <minimizedAffinity>
-4.64410782

$$$$

 OpenBabel03252506493D

 23 24  0  0  0  0  0  0  0  0999 V2000
   36.3280   30.1500   41.3200 S   0  0  0  0  0  0  0  0  0  0  0  0
   35.3500   28.5040   38.7560 Cl  0  0  0  0  0  0  0  0  0  0  0  0
   36.4010   29.8890   38.5130 C   0  0  0  0  0  0  0  0  0  0  0  0
   36.7680   30.5310   39.6650 C   0  0  0  0  0  0  0  0  0  0  0  0
   37.6120   31.6480   39.5170 C   0  0  0  0  0  0  0  0  0  0  0  0
   38.0260   32.0440   38.2520 C   0  0  0  0  0  0  0  0  0  0  0  0
   37.6470   31.3870   37.1000 C   0  0  0  0  0  0  0  0  0  0  0  0
   36.8080   30.2770   37.2600 C   0  0  0  0  0  0  0  0  0  0  0  0
   36.2580   29.3590   35.8700 Cl  0  0  0  0  0  0  0  0  0  0  0  0
   37.9640   32.2290   40.3560 H   0  0  0  0  0  0  0  0  0  0  0  0
   38.6810   32.9110   38.1360 H   0  0  0  0  0  0  0  0  0  0  0  0
   37.9630   31.6870   36.1210 H   0  0  0  0  0  0  0  0  0  0  0  0
   37.1930   28.7330   41.9760 C   0  0  0  0  0  0  0  0  0  0  0  0
   38.3790   29.0070   42.6600 C   0  0  0  0  0  0  0  0  0  0  0  0
   39.1110   27.9390   43.2020 C   0  0  0  0  0  0  0  0  0  0  0  0
   38.6220   26.6940   43.0290 N   0  0  0  0  0  0  0  0  0  0  0  0
   37.4750   26.4450   42.3660 C   0  0  0  0  0  0  0  0  0  0  0  0
   36.7400   27.4620   41.8270 N   0  0  0  0  0  0  0  0  0  0  0  0
   38.7380   30.0260   42.7760 H   0  0  0  0  0  0  0  0  0  0  0  0
   40.0250   28.1660   43.7290 H   0  0  0  0  0  0  0  0  0  0  0  0
   36.9670   25.0660   42.1940 C   0  0  0  0  0  2  0  0  0  0  0  0
   37.9950   24.0680   41.7760 C   0  0  0  0  0  2  0  0  0  0  0  0
   37.6000   23.3900   40.9650 H   0  0  0  0  0  0  0  0  0  0  0  0
  1 13  1  0  0  0  0
  3  2  1  0  0  0  0
  3  4  1  0  0  0  0
  4  1  1  0  0  0  0
  5  4  2  0  0  0  0
  5 10  1  0  0  0  0
  6  5  1  0  0  0  0
  7  8  1  0  0  0  0
  7  6  2  0  0  0  0
  8  3  2  0  0  0  0
  9  8  1  0  0  0  0
 11  6  1  0  0  0  0
 12  7  1  0  0  0  0
 13 14  1  0  0  0  0
 14 19  1  0  0  0  0
 14 15  2  0  0  0  0
 15 20  1  0  0  0  0
 16 15  1  0  0  0  0
 17 16  2  0  0  0  0
 18 13  2  0  0  0  0
 18 17  1  0  0  0  0
 21 17  1  0  0  0  0
 22 21  1  0  0  0  0
 23 22  1  0  0  0  0
M  END
>  <minimizedAffinity>
-4.64389801

$$$$

 OpenBabel03252506493D

 23 24  0  0  0  0  0  0  0  0999 V2000
   37.7010   29.3720   39.4220 S   0  0  0  0  0  0  0  0  0  0  0  0
   40.6150   30.3970   40.2550 Cl  0  0  0  0  0  0  0  0  0  0  0  0
   39.3410   31.5830   40.0290 C   0  0  0  0  0  0  0  0  0  0  0  0
   38.1300   31.0540   39.6740 C   0  0  0  0  0  0  0  0  0  0  0  0
   37.0790   31.9710   39.4830 C   0  0  0  0  0  0  0  0  0  0  0  0
   37.3020   33.3300   39.6540 C   0  0  0  0  0  0  0  0  0  0  0  0
   38.5280   33.8490   40.0120 C   0  0  0  0  0  0  0  0  0  0  0  0
   39.5660   32.9280   40.2000 C   0  0  0  0  0  0  0  0  0  0  0  0
   41.1730   33.4650   40.6560 Cl  0  0  0  0  0  0  0  0  0  0  0  0
   36.0820   31.6650   39.2020 H   0  0  0  0  0  0  0  0  0  0  0  0
   36.4870   34.0430   39.5060 H   0  0  0  0  0  0  0  0  0  0  0  0
   38.7080   34.8970   40.1460 H   0  0  0  0  0  0  0  0  0  0  0  0
   37.4990   28.4560   40.9420 C   0  0  0  0  0  0  0  0  0  0  0  0
   37.4780   29.2170   42.1120 C   0  0  0  0  0  0  0  0  0  0  0  0
   37.3220   28.5620   43.3430 C   0  0  0  0  0  0  0  0  0  0  0  0
   37.2010   27.2190   43.3270 N   0  0  0  0  0  0  0  0  0  0  0  0
   37.2240   26.4970   42.1880 C   0  0  0  0  0  0  0  0  0  0  0  0
   37.3740   27.1050   40.9740 N   0  0  0  0  0  0  0  0  0  0  0  0
   37.5790   30.2990   42.0810 H   0  0  0  0  0  0  0  0  0  0  0  0
   37.3070   29.1630   44.2400 H   0  0  0  0  0  0  0  0  0  0  0  0
   37.0890   25.0240   42.2050 C   0  0  0  0  0  2  0  0  0  0  0  0
   36.6760   24.4190   40.9050 C   0  0  0  0  0  2  0  0  0  0  0  0
   35.8850   23.6280   41.0550 H   0  0  0  0  0  0  0  0  0  0  0  0
  1  4  1  0  0  0  0
  1 13  1  0  0  0  0
  3  8  1  0  0  0  0
  3  2  1  0  0  0  0
  4  3  2  0  0  0  0
  5  6  2  0  0  0  0
  5  4  1  0  0  0  0
  6  7  1  0  0  0  0
  7 12  1  0  0  0  0
  7  8  2  0  0  0  0
  8  9  1  0  0  0  0
 10  5  1  0  0  0  0
 11  6  1  0  0  0  0
 13 18  2  0  0  0  0
 13 14  1  0  0  0  0
 14 15  2  0  0  0  0
 15 20  1  0  0  0  0
 16 15  1  0  0  0  0
 17 21  1  0  0  0  0
 17 16  2  0  0  0  0
 18 17  1  0  0  0  0
 19 14  1  0  0  0  0
 22 23  1  0  0  0  0
 22 21  1  0  0  0  0
M  END
>  <minimizedAffinity>
-4.62494421

$$$$

 OpenBabel03252506493D

 23 24  0  0  0  0  0  0  0  0999 V2000
   35.5120   28.9490   40.5320 S   0  0  0  0  0  0  0  0  0  0  0  0
   36.5860   25.9790   40.0130 Cl  0  0  0  0  0  0  0  0  0  0  0  0
   37.1890   26.8580   41.4080 C   0  0  0  0  0  0  0  0  0  0  0  0
   36.6740   28.1180   41.5500 C   0  0  0  0  0  0  0  0  0  0  0  0
   37.1310   28.8580   42.6570 C   0  0  0  0  0  0  0  0  0  0  0  0
   38.0540   28.3030   43.5330 C   0  0  0  0  0  0  0  0  0  0  0  0
   38.5630   27.0310   43.3760 C   0  0  0  0  0  0  0  0  0  0  0  0
   38.1020   26.3040   42.2720 C   0  0  0  0  0  0  0  0  0  0  0  0
   38.6760   24.6740   41.9650 Cl  0  0  0  0  0  0  0  0  0  0  0  0
   36.7940   29.8620   42.8670 H   0  0  0  0  0  0  0  0  0  0  0  0
   38.4090   28.8760   44.3920 H   0  0  0  0  0  0  0  0  0  0  0  0
   39.2760   26.5950   44.0480 H   0  0  0  0  0  0  0  0  0  0  0  0
   36.2400   29.6760   39.0730 C   0  0  0  0  0  0  0  0  0  0  0  0
   36.8130   30.9380   39.2440 C   0  0  0  0  0  0  0  0  0  0  0  0
   37.4030   31.5690   38.1390 C   0  0  0  0  0  0  0  0  0  0  0  0
   37.3830   30.9150   36.9600 N   0  0  0  0  0  0  0  0  0  0  0  0
   36.8250   29.6960   36.8090 C   0  0  0  0  0  0  0  0  0  0  0  0
   36.2430   29.0560   37.8660 N   0  0  0  0  0  0  0  0  0  0  0  0
   36.8080   31.4320   40.2130 H   0  0  0  0  0  0  0  0  0  0  0  0
   37.8430   32.5440   38.2850 H   0  0  0  0  0  0  0  0  0  0  0  0
   36.8190   29.0050   35.5020 C   0  0  0  0  0  2  0  0  0  0  0  0
   36.2360   29.7970   34.3790 C   0  0  0  0  0  2  0  0  0  0  0  0
   35.5540   29.1630   33.7420 H   0  0  0  0  0  0  0  0  0  0  0  0
  1  4  1  0  0  0  0
  2  3  1  0  0  0  0
  3  4  2  0  0  0  0
  3  8  1  0  0  0  0
  4  5  1  0  0  0  0
  5 10  1  0  0  0  0
  5  6  2  0  0  0  0
  6 11  1  0  0  0  0
  7  6  1  0  0  0  0
  7 12  1  0  0  0  0
  8  7  2  0  0  0  0
  9  8  1  0  0  0  0
 13 14  1  0  0  0  0
 13  1  1  0  0  0  0
 14 19  1  0  0  0  0
 15 20  1  0  0  0  0
 15 14  2  0  0  0  0
 16 15  1  0  0  0  0
 17 16  2  0  0  0  0
 17 18  1  0  0  0  0
 18 13  2  0  0  0  0
 21 17  1  0  0  0  0
 22 21  1  0  0  0  0
 23 22  1  0  0  0  0
M  END
>  <minimizedAffinity>
-4.5684185

$$$$

 OpenBabel03252506493D

 23 24  0  0  0  0  0  0  0  0999 V2000
   36.5770   28.5540   41.9310 S   0  0  0  0  0  0  0  0  0  0  0  0
   36.7230   25.8730   40.1900 Cl  0  0  0  0  0  0  0  0  0  0  0  0
   37.8140   26.0490   41.5530 C   0  0  0  0  0  0  0  0  0  0  0  0
   37.6810   27.2260   42.2390 C   0  0  0  0  0  0  0  0  0  0  0  0
   38.5380   27.4080   43.3410 C   0  0  0  0  0  0  0  0  0  0  0  0
   39.4540   26.4220   43.6800 C   0  0  0  0  0  0  0  0  0  0  0  0
   39.5770   25.2410   42.9790 C   0  0  0  0  0  0  0  0  0  0  0  0
   38.7200   25.0700   41.8850 C   0  0  0  0  0  0  0  0  0  0  0  0
   38.7800   23.6090   40.9150 Cl  0  0  0  0  0  0  0  0  0  0  0  0
   38.5200   28.2970   43.9530 H   0  0  0  0  0  0  0  0  0  0  0  0
   40.1200   26.5630   44.5350 H   0  0  0  0  0  0  0  0  0  0  0  0
   40.2820   24.4750   43.2350 H   0  0  0  0  0  0  0  0  0  0  0  0
   37.4000   30.0560   41.4260 C   0  0  0  0  0  0  0  0  0  0  0  0
   36.6200   30.9630   40.7040 C   0  0  0  0  0  0  0  0  0  0  0  0
   37.2030   32.1660   40.2750 C   0  0  0  0  0  0  0  0  0  0  0  0
   38.4970   32.3800   40.5860 N   0  0  0  0  0  0  0  0  0  0  0  0
   39.2380   31.4950   41.2840 C   0  0  0  0  0  0  0  0  0  0  0  0
   38.7000   30.3160   41.7160 N   0  0  0  0  0  0  0  0  0  0  0  0
   35.5790   30.7510   40.4740 H   0  0  0  0  0  0  0  0  0  0  0  0
   36.5880   32.8570   39.7190 H   0  0  0  0  0  0  0  0  0  0  0  0
   40.6560   31.7610   41.6090 C   0  0  0  0  0  2  0  0  0  0  0  0
   41.2840   30.7660   42.5270 C   0  0  0  0  0  2  0  0  0  0  0  0
   41.9060   31.2760   43.3190 H   0  0  0  0  0  0  0  0  0  0  0  0
  1  4  1  0  0  0  0
  2  3  1  0  0  0  0
  3  8  2  0  0  0  0
  3  4  1  0  0  0  0
  4  5  2  0  0  0  0
  5  6  1  0  0  0  0
  5 10  1  0  0  0  0
  6 11  1  0  0  0  0
  7 12  1  0  0  0  0
  7  6  2  0  0  0  0
  8  7  1  0  0  0  0
  9  8  1  0  0  0  0
 13 18  1  0  0  0  0
 13  1  1  0  0  0  0
 14 13  2  0  0  0  0
 15 16  2  0  0  0  0
 15 14  1  0  0  0  0
 16 17  1  0  0  0  0
 17 21  1  0  0  0  0
 17 18  2  0  0  0  0
 19 14  1  0  0  0  0
 20 15  1  0  0  0  0
 21 22  1  0  0  0  0
 22 23  1  0  0  0  0
M  END
>  <minimizedAffinity>
-4.49181843

$$$$

 OpenBabel03252506493D

 23 24  0  0  0  0  0  0  0  0999 V2000
   38.9720   29.4390   42.7550 S   0  0  0  0  0  0  0  0  0  0  0  0
   36.5860   27.3770   43.2980 Cl  0  0  0  0  0  0  0  0  0  0  0  0
   37.9700   26.8320   42.3660 C   0  0  0  0  0  0  0  0  0  0  0  0
   38.9400   27.7800   42.1850 C   0  0  0  0  0  0  0  0  0  0  0  0
   40.0690   27.3850   41.4430 C   0  0  0  0  0  0  0  0  0  0  0  0
   40.1550   26.0940   40.9400 C   0  0  0  0  0  0  0  0  0  0  0  0
   39.1690   25.1490   41.1310 C   0  0  0  0  0  0  0  0  0  0  0  0
   38.0500   25.5530   41.8710 C   0  0  0  0  0  0  0  0  0  0  0  0
   36.7290   24.4410   42.1810 Cl  0  0  0  0  0  0  0  0  0  0  0  0
   40.8950   28.0500   41.2380 H   0  0  0  0  0  0  0  0  0  0  0  0
   41.0310   25.7860   40.3640 H   0  0  0  0  0  0  0  0  0  0  0  0
   39.2270   24.1500   40.7460 H   0  0  0  0  0  0  0  0  0  0  0  0
   38.2710   30.6010   41.5940 C   0  0  0  0  0  0  0  0  0  0  0  0
   37.0780   30.2070   40.9850 C   0  0  0  0  0  0  0  0  0  0  0  0
   36.4710   31.0720   40.0620 C   0  0  0  0  0  0  0  0  0  0  0  0
   37.0820   32.2480   39.8110 N   0  0  0  0  0  0  0  0  0  0  0  0
   38.2350   32.6150   40.4070 C   0  0  0  0  0  0  0  0  0  0  0  0
   38.8500   31.7960   41.3110 N   0  0  0  0  0  0  0  0  0  0  0  0
   36.6190   29.2490   41.2150 H   0  0  0  0  0  0  0  0  0  0  0  0
   35.5490   30.7550   39.5990 H   0  0  0  0  0  0  0  0  0  0  0  0
   38.8780   33.9130   40.1100 C   0  0  0  0  0  2  0  0  0  0  0  0
   40.3450   33.9590   40.3800 C   0  0  0  0  0  2  0  0  0  0  0  0
   40.6360   34.9170   40.9020 H   0  0  0  0  0  0  0  0  0  0  0  0
  3  2  1  0  0  0  0
  4  3  1  0  0  0  0
  4  1  1  0  0  0  0
  5  4  2  0  0  0  0
  6  7  2  0  0  0  0
  6  5  1  0  0  0  0
  7  8  1  0  0  0  0
  8  9  1  0  0  0  0
  8  3  2  0  0  0  0
 10  5  1  0  0  0  0
 11  6  1  0  0  0  0
 12  7  1  0  0  0  0
 13  1  1  0  0  0  0
 14 19  1  0  0  0  0
 14 13  2  0  0  0  0
 15 14  1  0  0  0  0
 16 15  2  0  0  0  0
 16 17  1  0  0  0  0
 17 18  2  0  0  0  0
 18 13  1  0  0  0  0
 20 15  1  0  0  0  0
 21 22  1  0  0  0  0
 21 17  1  0  0  0  0
 22 23  1  0  0  0  0
M  END
>  <minimizedAffinity>
-4.48477936

$$$$
