
 OpenBabel03242512073D

 21 22  0  0  1  0  0  0  0  0999 V2000
   36.8990   29.0870   41.4780 C   0  0  0  0  0  0  0  0  0  0  0  0
   35.7200   28.9000   41.1510 O   0  0  0  0  0  0  0  0  0  0  0  0
   38.7550   30.6590   41.6720 C   0  0  0  0  0  0  0  0  0  0  0  0
   37.4930   30.3580   41.2460 C   0  0  0  0  0  0  0  0  0  0  0  0
   36.7800   31.3450   40.5410 C   0  0  0  0  0  0  0  0  0  0  0  0
   37.3510   32.5430   40.3060 N   0  0  0  0  0  0  0  0  0  0  0  0
   38.6180   32.8190   40.7440 C   0  0  0  0  0  0  0  0  0  0  0  0
   39.2850   31.8850   41.4080 N   0  0  0  0  0  0  0  0  0  0  0  0
   39.3340   29.9280   42.2170 H   0  0  0  0  0  0  0  0  0  0  0  0
   35.7620   31.1480   40.1800 H   0  0  0  0  0  0  0  0  0  0  0  0
   39.0040   33.7950   40.5170 H   0  0  0  0  0  0  0  0  0  0  0  0
   37.6050   27.9320   42.1110 C   0  0  1  0  0  0  0  0  0  0  0  0
   37.0640   27.6140   43.5440 C   0  0  0  0  0  0  0  0  0  0  0  0
   36.9030   26.6990   42.3790 C   0  0  2  0  0  0  0  0  0  0  0  0
   38.6770   28.2020   42.2970 H   0  0  0  0  0  0  0  0  0  0  0  0
   37.7660   27.2540   44.3030 H   0  0  0  0  0  0  0  0  0  0  0  0
   36.2160   28.1970   43.9050 H   0  0  0  0  0  0  0  0  0  0  0  0
   35.8760   26.6220   41.9690 H   0  0  0  0  0  0  0  0  0  0  0  0
   37.6320   25.3740   42.3460 C   0  0  0  0  0  2  0  0  0  0  0  0
   36.7800   24.3710   41.5640 C   0  0  0  0  0  2  0  0  0  0  0  0
   36.2300   24.9930   40.7990 H   0  0  0  0  0  0  0  0  0  0  0  0
  1 12  1  0  0  0  0
  2  1  2  0  0  0  0
  3  9  1  0  0  0  0
  4  1  1  0  0  0  0
  4  3  2  0  0  0  0
  5  4  1  0  0  0  0
  6  5  2  0  0  0  0
  6  7  1  0  0  0  0
  7  8  2  0  0  0  0
  8  3  1  0  0  0  0
 10  5  1  0  0  0  0
 11  7  1  0  0  0  0
 12 15  1  6  0  0  0
 12 14  1  0  0  0  0
 12 13  1  0  0  0  0
 13 17  1  0  0  0  0
 13 16  1  0  0  0  0
 14 18  1  6  0  0  0
 14 13  1  0  0  0  0
 19 14  1  0  0  0  0
 20 19  1  0  0  0  0
 21 20  1  0  0  0  0
M  END
>  <minimizedAffinity>
-4.10391426

$$$$

 OpenBabel03242512073D

 21 22  0  0  1  0  0  0  0  0999 V2000
   36.8590   29.0800   41.4450 C   0  0  0  0  0  0  0  0  0  0  0  0
   35.6760   28.8840   41.1390 O   0  0  0  0  0  0  0  0  0  0  0  0
   36.7740   31.3380   40.5250 C   0  0  0  0  0  0  0  0  0  0  0  0
   37.4430   30.3520   41.1930 C   0  0  0  0  0  0  0  0  0  0  0  0
   38.7430   30.6290   41.6520 C   0  0  0  0  0  0  0  0  0  0  0  0
   39.2880   31.8420   41.4280 N   0  0  0  0  0  0  0  0  0  0  0  0
   38.5950   32.8130   40.7560 C   0  0  0  0  0  0  0  0  0  0  0  0
   37.3700   32.5460   40.3260 N   0  0  0  0  0  0  0  0  0  0  0  0
   35.7740   31.1630   40.1560 H   0  0  0  0  0  0  0  0  0  0  0  0
   39.3190   29.8670   42.1930 H   0  0  0  0  0  0  0  0  0  0  0  0
   39.0960   33.7520   40.6180 H   0  0  0  0  0  0  0  0  0  0  0  0
   37.5810   27.9340   42.0770 C   0  0  1  0  0  0  0  0  0  0  0  0
   37.0740   27.6350   43.5260 C   0  0  0  0  0  0  0  0  0  0  0  0
   36.8870   26.7050   42.3780 C   0  0  2  0  0  0  0  0  0  0  0  0
   38.6560   28.2080   42.2340 H   0  0  0  0  0  0  0  0  0  0  0  0
   37.7940   27.2860   44.2740 H   0  0  0  0  0  0  0  0  0  0  0  0
   36.2350   28.2230   43.8990 H   0  0  0  0  0  0  0  0  0  0  0  0
   35.8500   26.6210   41.9930 H   0  0  0  0  0  0  0  0  0  0  0  0
   37.6150   25.3800   42.3460 C   0  0  0  0  0  2  0  0  0  0  0  0
   36.7640   24.3760   41.5620 C   0  0  0  0  0  2  0  0  0  0  0  0
   36.2150   24.9990   40.7960 H   0  0  0  0  0  0  0  0  0  0  0  0
  1 12  1  0  0  0  0
  2  1  2  0  0  0  0
  3  4  1  0  0  0  0
  4  1  1  0  0  0  0
  4  5  2  0  0  0  0
  5 10  1  0  0  0  0
  6  5  1  0  0  0  0
  7  6  2  0  0  0  0
  8  3  2  0  0  0  0
  8  7  1  0  0  0  0
  9  3  1  0  0  0  0
 11  7  1  0  0  0  0
 12 15  1  6  0  0  0
 12 14  1  0  0  0  0
 12 13  1  0  0  0  0
 13 17  1  0  0  0  0
 13 16  1  0  0  0  0
 14 18  1  6  0  0  0
 14 13  1  0  0  0  0
 19 14  1  0  0  0  0
 20 19  1  0  0  0  0
 21 20  1  0  0  0  0
M  END
>  <minimizedAffinity>
-4.10380316

$$$$

 OpenBabel03242512073D

 21 22  0  0  1  0  0  0  0  0999 V2000
   36.8300   30.3750   41.1320 C   0  0  0  0  0  0  0  0  0  0  0  0
   35.6380   30.3360   40.7990 O   0  0  0  0  0  0  0  0  0  0  0  0
   38.6420   29.3560   42.4090 C   0  0  0  0  0  0  0  0  0  0  0  0
   37.3700   29.3170   41.9140 C   0  0  0  0  0  0  0  0  0  0  0  0
   36.5780   28.1940   42.2120 C   0  0  0  0  0  0  0  0  0  0  0  0
   37.0850   27.2000   42.9690 N   0  0  0  0  0  0  0  0  0  0  0  0
   38.3640   27.2640   43.4530 C   0  0  0  0  0  0  0  0  0  0  0  0
   39.1050   28.3260   43.1680 N   0  0  0  0  0  0  0  0  0  0  0  0
   39.2810   30.2020   42.2000 H   0  0  0  0  0  0  0  0  0  0  0  0
   35.5500   28.1180   41.8360 H   0  0  0  0  0  0  0  0  0  0  0  0
   38.6960   26.4340   44.0480 H   0  0  0  0  0  0  0  0  0  0  0  0
   37.6130   31.5580   40.6610 C   0  0  1  0  0  0  0  0  0  0  0  0
   38.1250   31.3880   39.1930 C   0  0  0  0  0  0  0  0  0  0  0  0
   37.1090   32.3970   39.6000 C   0  0  2  0  0  0  0  0  0  0  0  0
   38.5600   31.6410   41.2540 H   0  0  0  0  0  0  0  0  0  0  0  0
   39.0970   31.8130   38.9220 H   0  0  0  0  0  0  0  0  0  0  0  0
   37.8220   30.4910   38.6520 H   0  0  0  0  0  0  0  0  0  0  0  0
   36.0710   32.1950   39.2670 H   0  0  0  0  0  0  0  0  0  0  0  0
   37.4430   33.8720   39.5610 C   0  0  0  0  0  2  0  0  0  0  0  0
   38.7580   34.0940   40.3120 C   0  0  0  0  0  2  0  0  0  0  0  0
   39.3460   33.1440   40.1520 H   0  0  0  0  0  0  0  0  0  0  0  0
  1  4  1  0  0  0  0
  2  1  2  0  0  0  0
  3  8  1  0  0  0  0
  4  5  1  0  0  0  0
  4  3  2  0  0  0  0
  5  6  2  0  0  0  0
  6  7  1  0  0  0  0
  7 11  1  0  0  0  0
  8  7  2  0  0  0  0
  9  3  1  0  0  0  0
 10  5  1  0  0  0  0
 12  1  1  0  0  0  0
 12 15  1  1  0  0  0
 13 14  1  0  0  0  0
 13 12  1  0  0  0  0
 14 18  1  6  0  0  0
 14 12  1  0  0  0  0
 16 13  1  0  0  0  0
 17 13  1  0  0  0  0
 19 14  1  0  0  0  0
 19 20  1  0  0  0  0
 21 20  1  0  0  0  0
M  END
>  <minimizedAffinity>
-3.92877173

$$$$

 OpenBabel03242512073D

 21 22  0  0  1  0  0  0  0  0999 V2000
   38.1410   29.0760   42.5190 C   0  0  0  0  0  0  0  0  0  0  0  0
   38.7870   29.8090   43.2800 O   0  0  0  0  0  0  0  0  0  0  0  0
   36.5410   30.3930   41.2300 C   0  0  0  0  0  0  0  0  0  0  0  0
   37.6550   29.6030   41.2910 C   0  0  0  0  0  0  0  0  0  0  0  0
   38.3380   29.3290   40.0930 C   0  0  0  0  0  0  0  0  0  0  0  0
   37.8870   29.8450   38.9320 N   0  0  0  0  0  0  0  0  0  0  0  0
   36.7680   30.6330   38.8990 C   0  0  0  0  0  0  0  0  0  0  0  0
   36.1290   30.8880   40.0320 N   0  0  0  0  0  0  0  0  0  0  0  0
   35.9890   30.6250   42.1280 H   0  0  0  0  0  0  0  0  0  0  0  0
   39.2370   28.6990   40.0940 H   0  0  0  0  0  0  0  0  0  0  0  0
   36.4710   31.0060   37.9370 H   0  0  0  0  0  0  0  0  0  0  0  0
   37.9340   27.6670   42.9710 C   0  0  1  0  0  0  0  0  0  0  0  0
   36.5460   27.4590   43.6610 C   0  0  0  0  0  0  0  0  0  0  0  0
   36.9200   26.8410   42.3590 C   0  0  2  0  0  0  0  0  0  0  0  0
   38.6640   27.4220   43.7850 H   0  0  0  0  0  0  0  0  0  0  0  0
   36.4720   26.7480   44.4910 H   0  0  0  0  0  0  0  0  0  0  0  0
   35.8630   28.3090   43.6900 H   0  0  0  0  0  0  0  0  0  0  0  0
   36.4180   27.2640   41.4660 H   0  0  0  0  0  0  0  0  0  0  0  0
   37.1070   25.3430   42.2530 C   0  0  0  0  0  2  0  0  0  0  0  0
   36.9150   24.9320   40.7910 C   0  0  0  0  0  2  0  0  0  0  0  0
   37.2720   25.8200   40.1910 H   0  0  0  0  0  0  0  0  0  0  0  0
  1 12  1  0  0  0  0
  1  2  2  0  0  0  0
  3  4  1  0  0  0  0
  3  9  1  0  0  0  0
  4  1  1  0  0  0  0
  5 10  1  0  0  0  0
  5  4  2  0  0  0  0
  6  5  1  0  0  0  0
  7  6  2  0  0  0  0
  7  8  1  0  0  0  0
  8  3  2  0  0  0  0
 11  7  1  0  0  0  0
 12 13  1  0  0  0  0
 12 15  1  1  0  0  0
 13 17  1  0  0  0  0
 13 16  1  0  0  0  0
 14 18  1  6  0  0  0
 14 12  1  0  0  0  0
 14 13  1  0  0  0  0
 19 14  1  0  0  0  0
 20 19  1  0  0  0  0
 21 20  1  0  0  0  0
M  END
>  <minimizedAffinity>
-3.92162514

$$$$

 OpenBabel03242512073D

 21 22  0  0  1  0  0  0  0  0999 V2000
   38.1150   28.9850   42.5240 C   0  0  0  0  0  0  0  0  0  0  0  0
   38.7260   29.7130   43.3170 O   0  0  0  0  0  0  0  0  0  0  0  0
   38.3040   29.2180   40.1020 C   0  0  0  0  0  0  0  0  0  0  0  0
   37.6810   29.5210   41.2790 C   0  0  0  0  0  0  0  0  0  0  0  0
   36.5670   30.3770   41.2370 C   0  0  0  0  0  0  0  0  0  0  0  0
   36.1460   30.8690   40.0540 N   0  0  0  0  0  0  0  0  0  0  0  0
   36.7880   30.5490   38.8890 C   0  0  0  0  0  0  0  0  0  0  0  0
   37.8380   29.7410   38.9350 N   0  0  0  0  0  0  0  0  0  0  0  0
   39.1640   28.5640   40.0940 H   0  0  0  0  0  0  0  0  0  0  0  0
   36.0350   30.6500   42.1580 H   0  0  0  0  0  0  0  0  0  0  0  0
   36.3930   30.9800   37.9880 H   0  0  0  0  0  0  0  0  0  0  0  0
   37.8900   27.5720   42.9560 C   0  0  1  0  0  0  0  0  0  0  0  0
   36.4810   27.3630   43.6040 C   0  0  0  0  0  0  0  0  0  0  0  0
   36.8920   26.7550   42.3080 C   0  0  2  0  0  0  0  0  0  0  0  0
   38.5950   27.3180   43.7890 H   0  0  0  0  0  0  0  0  0  0  0  0
   36.3810   26.6450   44.4240 H   0  0  0  0  0  0  0  0  0  0  0  0
   35.8010   28.2150   43.6190 H   0  0  0  0  0  0  0  0  0  0  0  0
   36.4180   27.1880   41.4040 H   0  0  0  0  0  0  0  0  0  0  0  0
   37.0770   25.2580   42.1930 C   0  0  0  0  0  2  0  0  0  0  0  0
   38.5680   24.9400   42.3390 C   0  0  0  0  0  2  0  0  0  0  0  0
   38.9670   25.7380   43.0310 H   0  0  0  0  0  0  0  0  0  0  0  0
  1 12  1  0  0  0  0
  1  2  2  0  0  0  0
  3  4  1  0  0  0  0
  4  1  1  0  0  0  0
  5  4  2  0  0  0  0
  5 10  1  0  0  0  0
  6  5  1  0  0  0  0
  7  8  1  0  0  0  0
  7  6  2  0  0  0  0
  8  3  2  0  0  0  0
  9  3  1  0  0  0  0
 11  7  1  0  0  0  0
 12 13  1  0  0  0  0
 12 15  1  1  0  0  0
 13 17  1  0  0  0  0
 13 16  1  0  0  0  0
 14 18  1  6  0  0  0
 14 12  1  0  0  0  0
 14 13  1  0  0  0  0
 19 14  1  0  0  0  0
 19 20  1  0  0  0  0
 20 21  1  0  0  0  0
M  END
>  <minimizedAffinity>
-3.86174822

$$$$

 OpenBabel03242512073D

 21 22  0  0  1  0  0  0  0  0999 V2000
   38.0130   30.8230   41.0490 C   0  0  0  0  0  0  0  0  0  0  0  0
   38.8940   31.5950   41.4480 O   0  0  0  0  0  0  0  0  0  0  0  0
   38.3720   29.3500   42.9610 C   0  0  0  0  0  0  0  0  0  0  0  0
   37.6880   29.6760   41.8250 C   0  0  0  0  0  0  0  0  0  0  0  0
   36.6190   28.8490   41.4360 C   0  0  0  0  0  0  0  0  0  0  0  0
   36.3000   27.7730   42.1830 N   0  0  0  0  0  0  0  0  0  0  0  0
   37.0020   27.4690   43.3180 C   0  0  0  0  0  0  0  0  0  0  0  0
   38.0090   28.2530   43.6790 N   0  0  0  0  0  0  0  0  0  0  0  0
   39.2000   29.9610   43.2920 H   0  0  0  0  0  0  0  0  0  0  0  0
   36.0410   29.0710   40.5300 H   0  0  0  0  0  0  0  0  0  0  0  0
   36.6880   26.5970   43.8590 H   0  0  0  0  0  0  0  0  0  0  0  0
   37.3500   31.1810   39.7590 C   0  0  1  0  0  0  0  0  0  0  0  0
   37.2010   32.7280   39.5740 C   0  0  0  0  0  0  0  0  0  0  0  0
   38.0800   31.8760   38.7250 C   0  0  2  0  0  0  0  0  0  0  0  0
   36.2880   30.8220   39.7700 H   0  0  0  0  0  0  0  0  0  0  0  0
   36.3160   33.1130   39.0580 H   0  0  0  0  0  0  0  0  0  0  0  0
   37.6350   33.3720   40.3390 H   0  0  0  0  0  0  0  0  0  0  0  0
   39.1700   31.9950   38.8920 H   0  0  0  0  0  0  0  0  0  0  0  0
   37.7480   31.6550   37.2660 C   0  0  0  0  0  2  0  0  0  0  0  0
   37.0750   30.2880   37.1210 C   0  0  0  0  0  2  0  0  0  0  0  0
   36.5200   30.1350   38.0930 H   0  0  0  0  0  0  0  0  0  0  0  0
  1  2  2  0  0  0  0
  1  4  1  0  0  0  0
  3  9  1  0  0  0  0
  3  8  1  0  0  0  0
  4  3  2  0  0  0  0
  5  4  1  0  0  0  0
  5  6  2  0  0  0  0
  6  7  1  0  0  0  0
  7  8  2  0  0  0  0
  7 11  1  0  0  0  0
 10  5  1  0  0  0  0
 12 15  1  6  0  0  0
 12  1  1  0  0  0  0
 13 12  1  0  0  0  0
 13 17  1  0  0  0  0
 14 18  1  1  0  0  0
 14 13  1  0  0  0  0
 14 12  1  0  0  0  0
 16 13  1  0  0  0  0
 19 14  1  0  0  0  0
 20 19  1  0  0  0  0
 20 21  1  0  0  0  0
M  END
>  <minimizedAffinity>
-3.80233002

$$$$

 OpenBabel03242512073D

 21 22  0  0  1  0  0  0  0  0999 V2000
   37.9210   26.9790   42.2040 C   0  0  0  0  0  0  0  0  0  0  0  0
   38.5300   26.9430   43.2810 O   0  0  0  0  0  0  0  0  0  0  0  0
   36.1190   28.2600   41.1720 C   0  0  0  0  0  0  0  0  0  0  0  0
   37.3460   28.2050   41.7690 C   0  0  0  0  0  0  0  0  0  0  0  0
   38.0400   29.4120   41.9670 C   0  0  0  0  0  0  0  0  0  0  0  0
   37.4860   30.5750   41.5710 N   0  0  0  0  0  0  0  0  0  0  0  0
   36.2540   30.6020   40.9750 C   0  0  0  0  0  0  0  0  0  0  0  0
   35.6040   29.4610   40.7910 N   0  0  0  0  0  0  0  0  0  0  0  0
   35.5550   27.3540   41.0020 H   0  0  0  0  0  0  0  0  0  0  0  0
   39.0300   29.4160   42.4420 H   0  0  0  0  0  0  0  0  0  0  0  0
   35.8790   31.5660   40.6880 H   0  0  0  0  0  0  0  0  0  0  0  0
   37.8520   25.6980   41.4370 C   0  0  1  0  0  0  0  0  0  0  0  0
   38.1650   24.4510   42.3280 C   0  0  0  0  0  0  0  0  0  0  0  0
   36.8290   24.7210   41.7270 C   0  0  2  0  0  0  0  0  0  0  0  0
   38.6690   25.6750   40.6700 H   0  0  0  0  0  0  0  0  0  0  0  0
   38.6950   23.6040   41.8800 H   0  0  0  0  0  0  0  0  0  0  0  0
   38.3330   24.6200   43.3930 H   0  0  0  0  0  0  0  0  0  0  0  0
   36.0390   25.0370   42.4380 H   0  0  0  0  0  0  0  0  0  0  0  0
   36.2890   23.8230   40.6370 C   0  0  0  0  0  2  0  0  0  0  0  0
   37.2380   23.8900   39.4370 C   0  0  0  0  0  2  0  0  0  0  0  0
   38.2590   24.0650   39.8860 H   0  0  0  0  0  0  0  0  0  0  0  0
  1  2  2  0  0  0  0
  3  4  1  0  0  0  0
  4  5  2  0  0  0  0
  4  1  1  0  0  0  0
  5 10  1  0  0  0  0
  6  5  1  0  0  0  0
  7  6  2  0  0  0  0
  8  7  1  0  0  0  0
  8  3  2  0  0  0  0
  9  3  1  0  0  0  0
 11  7  1  0  0  0  0
 12 15  1  6  0  0  0
 12 14  1  0  0  0  0
 12  1  1  0  0  0  0
 12 13  1  0  0  0  0
 13 17  1  0  0  0  0
 14 13  1  0  0  0  0
 14 18  1  1  0  0  0
 16 13  1  0  0  0  0
 19 14  1  0  0  0  0
 20 21  1  0  0  0  0
 20 19  1  0  0  0  0
M  END
>  <minimizedAffinity>
-3.68881249

$$$$

 OpenBabel03242512073D

 21 22  0  0  1  0  0  0  0  0999 V2000
   37.1820   28.9090   41.4830 C   0  0  0  0  0  0  0  0  0  0  0  0
   37.5310   29.9950   41.9620 O   0  0  0  0  0  0  0  0  0  0  0  0
   36.9680   28.6060   39.0710 C   0  0  0  0  0  0  0  0  0  0  0  0
   36.4130   28.8900   40.2860 C   0  0  0  0  0  0  0  0  0  0  0  0
   35.0330   29.1530   40.3380 C   0  0  0  0  0  0  0  0  0  0  0  0
   34.3020   29.1170   39.2060 N   0  0  0  0  0  0  0  0  0  0  0  0
   34.8830   28.8290   38.0000 C   0  0  0  0  0  0  0  0  0  0  0  0
   36.1850   28.5820   37.9580 N   0  0  0  0  0  0  0  0  0  0  0  0
   38.0250   28.4000   38.9910 H   0  0  0  0  0  0  0  0  0  0  0  0
   34.5440   29.3870   41.2930 H   0  0  0  0  0  0  0  0  0  0  0  0
   34.2350   28.8190   37.1440 H   0  0  0  0  0  0  0  0  0  0  0  0
   37.6200   27.6850   42.2200 C   0  0  1  0  0  0  0  0  0  0  0  0
   36.6350   27.2990   43.3730 C   0  0  0  0  0  0  0  0  0  0  0  0
   36.8440   26.4700   42.1540 C   0  0  2  0  0  0  0  0  0  0  0  0
   38.5780   27.8960   42.7630 H   0  0  0  0  0  0  0  0  0  0  0  0
   37.0440   26.8600   44.2890 H   0  0  0  0  0  0  0  0  0  0  0  0
   35.7280   27.8940   43.4840 H   0  0  0  0  0  0  0  0  0  0  0  0
   36.0050   26.4640   41.4290 H   0  0  0  0  0  0  0  0  0  0  0  0
   37.5160   25.1190   42.2570 C   0  0  0  0  0  2  0  0  0  0  0  0
   36.8020   24.1470   41.3140 C   0  0  0  0  0  2  0  0  0  0  0  0
   36.4390   24.7880   40.4590 H   0  0  0  0  0  0  0  0  0  0  0  0
  1  2  2  0  0  0  0
  1 12  1  0  0  0  0
  3  4  1  0  0  0  0
  4  5  2  0  0  0  0
  4  1  1  0  0  0  0
  5 10  1  0  0  0  0
  6  5  1  0  0  0  0
  7  6  2  0  0  0  0
  8  7  1  0  0  0  0
  8  3  2  0  0  0  0
  9  3  1  0  0  0  0
 11  7  1  0  0  0  0
 12 15  1  1  0  0  0
 12 13  1  0  0  0  0
 13 17  1  0  0  0  0
 13 16  1  0  0  0  0
 14 18  1  6  0  0  0
 14 12  1  0  0  0  0
 14 19  1  0  0  0  0
 14 13  1  0  0  0  0
 20 19  1  0  0  0  0
 21 20  1  0  0  0  0
M  END
>  <minimizedAffinity>
-3.68395925

$$$$

 OpenBabel03242512073D

 21 22  0  0  1  0  0  0  0  0999 V2000
   35.9540   29.0560   40.3860 C   0  0  0  0  0  0  0  0  0  0  0  0
   35.0070   28.6360   39.7090 O   0  0  0  0  0  0  0  0  0  0  0  0
   37.3010   30.2440   38.7340 C   0  0  0  0  0  0  0  0  0  0  0  0
   36.6710   30.2030   39.9450 C   0  0  0  0  0  0  0  0  0  0  0  0
   36.7300   31.3470   40.7610 C   0  0  0  0  0  0  0  0  0  0  0  0
   37.3940   32.4400   40.3340 N   0  0  0  0  0  0  0  0  0  0  0  0
   38.0170   32.4550   39.1150 C   0  0  0  0  0  0  0  0  0  0  0  0
   37.9570   31.3730   38.3510 N   0  0  0  0  0  0  0  0  0  0  0  0
   37.2790   29.3850   38.0800 H   0  0  0  0  0  0  0  0  0  0  0  0
   36.2400   31.3590   41.7430 H   0  0  0  0  0  0  0  0  0  0  0  0
   38.5250   33.3610   38.8460 H   0  0  0  0  0  0  0  0  0  0  0  0
   36.2580   28.3050   41.6420 C   0  0  1  0  0  0  0  0  0  0  0  0
   36.9590   26.9340   41.3620 C   0  0  0  0  0  0  0  0  0  0  0  0
   37.6240   28.0760   42.0490 C   0  0  2  0  0  0  0  0  0  0  0  0
   35.3010   28.0050   42.1410 H   0  0  0  0  0  0  0  0  0  0  0  0
   36.7350   26.0860   42.0170 H   0  0  0  0  0  0  0  0  0  0  0  0
   37.2080   26.6960   40.3270 H   0  0  0  0  0  0  0  0  0  0  0  0
   38.4040   28.6010   41.4610 H   0  0  0  0  0  0  0  0  0  0  0  0
   37.9860   27.9780   43.5140 C   0  0  0  0  0  2  0  0  0  0  0  0
   39.2170   27.0780   43.6520 C   0  0  0  0  0  2  0  0  0  0  0  0
   39.8020   27.2410   42.7000 H   0  0  0  0  0  0  0  0  0  0  0  0
  1 12  1  0  0  0  0
  2  1  2  0  0  0  0
  3  4  1  0  0  0  0
  4  1  1  0  0  0  0
  4  5  2  0  0  0  0
  5 10  1  0  0  0  0
  6  5  1  0  0  0  0
  7  6  2  0  0  0  0
  8  3  2  0  0  0  0
  8  7  1  0  0  0  0
  9  3  1  0  0  0  0
 11  7  1  0  0  0  0
 12 14  1  0  0  0  0
 12 15  1  1  0  0  0
 13 12  1  0  0  0  0
 13 16  1  0  0  0  0
 13 14  1  0  0  0  0
 14 18  1  6  0  0  0
 14 19  1  0  0  0  0
 17 13  1  0  0  0  0
 19 20  1  0  0  0  0
 21 20  1  0  0  0  0
M  END
>  <minimizedAffinity>
-3.66675162

$$$$
