
 OpenBabel03252502343D

 34 35  0  0  1  0  0  0  0  0999 V2000
   46.6480   31.6650   45.0740 C   0  0  2  0  0  0  0  0  0  0  0  0
   45.6850   30.7270   44.3250 C   0  0  0  0  0  0  0  0  0  0  0  0
   45.8580   29.3770   45.0190 C   0  0  0  0  0  0  0  0  0  0  0  0
   45.1800   29.5590   46.3560 C   0  0  0  0  0  0  0  0  0  0  0  0
   45.8700   30.5930   47.1680 C   0  0  0  0  0  0  0  0  0  0  0  0
   46.1430   31.8840   46.4560 C   0  0  1  0  0  0  0  0  0  0  0  0
   47.6180   31.1080   45.0500 H   0  0  0  0  0  0  0  0  0  0  0  0
   44.6530   31.0860   44.3590 H   0  0  0  0  0  0  0  0  0  0  0  0
   46.0860   30.6120   43.3000 H   0  0  0  0  0  0  0  0  0  0  0  0
   45.4040   28.5680   44.4400 H   0  0  0  0  0  0  0  0  0  0  0  0
   46.9390   29.2490   45.2080 H   0  0  0  0  0  0  0  0  0  0  0  0
   45.1430   28.6310   46.9480 H   0  0  0  0  0  0  0  0  0  0  0  0
   44.1360   29.9070   46.1300 H   0  0  0  0  0  0  0  0  0  0  0  0
   45.2560   30.7930   48.0830 H   0  0  0  0  0  0  0  0  0  0  0  0
   46.8240   30.1680   47.5420 H   0  0  0  0  0  0  0  0  0  0  0  0
   45.1620   32.3990   46.3580 H   0  0  0  0  0  0  0  0  0  0  0  0
   47.9160   34.3490   42.7760 C   0  0  0  0  0  0  0  0  0  0  0  0
   47.9110   33.1530   43.5150 C   0  0  0  0  0  0  0  0  0  0  0  0
   46.7560   32.8720   44.2700 C   0  0  0  0  0  0  0  0  0  0  0  0
   45.7370   33.7680   44.2320 N   0  0  0  0  0  0  0  0  0  0  0  0
   45.7670   34.9000   43.5190 C   0  0  0  0  0  0  0  0  0  0  0  0
   46.8720   35.1820   42.7890 N   0  0  0  0  0  0  0  0  0  0  0  0
   48.7440   32.4650   43.5190 H   0  0  0  0  0  0  0  0  0  0  0  0
   49.1520   34.6270   41.9810 C   0  0  0  0  0  0  0  0  0  0  0  0
   49.6060   33.4920   41.3400 F   0  0  0  0  0  0  0  0  0  0  0  0
   48.8700   35.6580   41.0830 F   0  0  0  0  0  0  0  0  0  0  0  0
   50.1340   35.1450   42.8190 F   0  0  0  0  0  0  0  0  0  0  0  0
   44.6250   35.8480   43.5130 C   0  0  0  0  0  0  0  0  0  0  0  0
   43.7040   35.5270   42.5670 F   0  0  0  0  0  0  0  0  0  0  0  0
   45.1120   37.1610   43.3210 F   0  0  0  0  0  0  0  0  0  0  0  0
   44.0290   35.9100   44.7500 F   0  0  0  0  0  0  0  0  0  0  0  0
   47.0530   32.7000   47.2980 C   0  0  0  0  0  0  0  0  0  0  0  0
   47.7660   31.8280   48.3230 C   0  0  0  0  0  0  0  0  0  0  0  0
   48.3100   32.4460   49.0650 H   0  0  0  0  0  0  0  0  0  0  0  0
  1  7  1  1  0  0  0
  1  6  1  0  0  0  0
  2  8  1  0  0  0  0
  2  3  1  0  0  0  0
  2  1  1  0  0  0  0
  3 11  1  0  0  0  0
  3  4  1  0  0  0  0
  4 12  1  0  0  0  0
  4  5  1  0  0  0  0
  5 15  1  0  0  0  0
  5 14  1  0  0  0  0
  6 16  1  6  0  0  0
  6  5  1  0  0  0  0
  6 32  1  0  0  0  0
  9  2  1  0  0  0  0
 10  3  1  0  0  0  0
 13  4  1  0  0  0  0
 17 22  2  0  0  0  0
 17 18  1  0  0  0  0
 18 23  1  0  0  0  0
 18 19  2  0  0  0  0
 19  1  1  0  0  0  0
 20 19  1  0  0  0  0
 21 20  2  0  0  0  0
 22 21  1  0  0  0  0
 24 17  1  0  0  0  0
 24 27  1  0  0  0  0
 25 24  1  0  0  0  0
 26 24  1  0  0  0  0
 28 21  1  0  0  0  0
 28 31  1  0  0  0  0
 29 28  1  0  0  0  0
 30 28  1  0  0  0  0
 32 33  1  0  0  0  0
 33 34  1  0  0  0  0
M  END
>  <minimizedAffinity>
-5.97710276

>  <minimizedRMSD>
0.865620077

$$$$
