
 OpenBabel03242518343D

 29 31  0  0  1  0  0  0  0  0999 V2000
   47.3030   33.6640   39.7930 C   0  0  0  0  0  0  0  0  0  0  0  0
   48.2380   34.2400   38.9370 C   0  0  0  0  0  0  0  0  0  0  0  0
   47.8020   34.0780   37.6300 C   0  0  0  0  0  0  0  0  0  0  0  0
   46.6160   33.4050   37.7690 C   0  0  0  0  0  0  0  0  0  0  0  0
   46.3370   33.1700   39.0280 O   0  0  0  0  0  0  0  0  0  0  0  0
   49.1290   34.7150   39.3180 H   0  0  0  0  0  0  0  0  0  0  0  0
   48.3210   34.4230   36.7520 H   0  0  0  0  0  0  0  0  0  0  0  0
   45.7570   32.9990   36.6440 C   0  0  2  0  0  0  0  0  0  0  0  0
   44.7460   31.9400   36.8400 C   0  0  0  0  0  0  0  0  0  0  0  0
   45.9970   31.5690   36.1480 C   0  0  2  0  0  0  0  0  0  0  0  0
   45.6480   33.7750   35.8600 H   0  0  0  0  0  0  0  0  0  0  0  0
   43.8040   31.9870   36.2560 H   0  0  0  0  0  0  0  0  0  0  0  0
   44.5500   31.6760   37.8960 H   0  0  0  0  0  0  0  0  0  0  0  0
   45.9020   31.4920   35.0390 H   0  0  0  0  0  0  0  0  0  0  0  0
   47.0660   30.7430   36.7150 C   0  0  0  0  0  0  0  0  0  0  0  0
   48.2790   30.4670   35.9220 C   0  0  0  0  0  0  0  0  0  0  0  0
   49.1950   30.5420   36.5890 H   0  0  0  0  0  0  0  0  0  0  0  0
   47.2700   33.5590   41.1950 O   0  0  0  0  0  0  0  0  0  0  0  0
   47.3600   34.7310   41.9840 C   0  0  0  0  0  0  0  0  0  0  0  0
   48.2070   35.5790   41.6200 O   0  0  0  0  0  0  0  0  0  0  0  0
   46.4720   34.7990   43.0980 C   0  0  0  0  0  0  0  0  0  0  0  0
   45.5850   35.8400   43.0650 C   0  0  0  0  0  0  0  0  0  0  0  0
   44.6820   35.9720   44.1220 C   0  0  0  0  0  0  0  0  0  0  0  0
   44.7400   35.0630   45.1110 N   0  0  0  0  0  0  0  0  0  0  0  0
   45.6120   34.0560   45.1250 C   0  0  0  0  0  0  0  0  0  0  0  0
   46.4740   33.9430   44.1000 N   0  0  0  0  0  0  0  0  0  0  0  0
   45.5140   36.5860   42.2850 H   0  0  0  0  0  0  0  0  0  0  0  0
   43.9640   36.7930   44.1220 H   0  0  0  0  0  0  0  0  0  0  0  0
   45.5690   33.3830   45.9720 H   0  0  0  0  0  0  0  0  0  0  0  0
  1 18  1  0  0  0  0
  2  6  1  0  0  0  0
  2  1  2  0  0  0  0
  3  4  2  0  0  0  0
  3  2  1  0  0  0  0
  4  5  1  0  0  0  0
  5  1  1  0  0  0  0
  7  3  1  0  0  0  0
  8 11  1  6  0  0  0
  8  9  1  0  0  0  0
  8  4  1  0  0  0  0
  9 13  1  0  0  0  0
 10 14  1  6  0  0  0
 10  8  1  0  0  0  0
 10 15  1  0  0  0  0
 10  9  1  0  0  0  0
 12  9  1  0  0  0  0
 16 17  1  0  0  0  0
 16 15  1  0  0  0  0
 18 19  1  0  0  0  0
 19 21  1  0  0  0  0
 20 19  2  0  0  0  0
 21 26  1  0  0  0  0
 22 21  2  0  0  0  0
 22 23  1  0  0  0  0
 23 28  1  0  0  0  0
 23 24  2  0  0  0  0
 24 25  1  0  0  0  0
 25 29  1  0  0  0  0
 26 25  2  0  0  0  0
 27 22  1  0  0  0  0
M  END
>  <minimizedAffinity>
-4.29552746

>  <minimizedRMSD>
0.243492678

$$$$
