
 OpenBabel03252509333D

 34 35  0  0  1  0  0  0  0  0999 V2000
   44.5830   35.1100   45.4440 O   0  0  0  0  0  0  0  0  0  0  0  0
   45.4840   34.1350   44.7500 P   0  0  2  0  0  0  0  0  0  0  0  0
   44.6510   32.8030   44.1640 O   0  0  0  0  0  0  0  0  0  0  0  0
   44.6000   32.7880   43.1770 H   0  0  0  0  0  0  0  0  0  0  0  0
   46.6140   33.5250   45.8610 O   0  0  0  0  0  0  0  0  0  0  0  0
   46.6020   32.1610   45.7830 C   0  0  0  0  0  0  0  0  0  0  0  0
   46.1350   31.6900   44.9320 H   0  0  0  0  0  0  0  0  0  0  0  0
   47.6910   31.8530   45.7470 H   0  0  0  0  0  0  0  0  0  0  0  0
   45.5240   31.6710   49.3090 C   0  0  0  0  0  0  0  0  0  0  0  0
   46.0410   32.2830   48.1600 C   0  0  0  0  0  0  0  0  0  0  0  0
   46.0660   31.5370   46.9950 C   0  0  0  0  0  0  0  0  0  0  0  0
   45.5900   30.2540   47.0280 N   0  0  0  0  0  0  0  0  0  0  0  0
   45.0990   29.6980   48.1570 C   0  0  0  0  0  0  0  0  0  0  0  0
   45.0730   30.4150   49.2820 N   0  0  0  0  0  0  0  0  0  0  0  0
   45.4760   32.2000   50.2550 H   0  0  0  0  0  0  0  0  0  0  0  0
   46.3920   33.3110   48.2550 H   0  0  0  0  0  0  0  0  0  0  0  0
   44.7810   28.6810   47.9490 H   0  0  0  0  0  0  0  0  0  0  0  0
   46.3410   34.9230   43.5350 O   0  0  0  0  0  0  0  0  0  0  0  0
   46.4830   34.0790   42.4460 C   0  0  1  0  0  0  0  0  0  0  0  0
   45.6720   34.4840   41.2450 C   0  0  0  0  0  0  0  0  0  0  0  0
   46.2910   33.6280   40.1580 C   0  0  0  0  0  0  0  0  0  0  0  0
   47.7230   33.3860   40.5840 C   0  0  0  0  0  0  0  0  0  0  0  0
   47.8990   34.1540   41.8790 C   0  0  1  0  0  0  0  0  0  0  0  0
   46.3170   33.0120   42.7000 H   0  0  0  0  0  0  0  0  0  0  0  0
   45.7690   35.5530   41.0550 H   0  0  0  0  0  0  0  0  0  0  0  0
   44.5980   34.1670   41.3740 H   0  0  0  0  0  0  0  0  0  0  0  0
   46.2640   34.1460   39.1850 H   0  0  0  0  0  0  0  0  0  0  0  0
   45.7420   32.6700   40.0040 H   0  0  0  0  0  0  0  0  0  0  0  0
   47.8950   32.3000   40.7230 H   0  0  0  0  0  0  0  0  0  0  0  0
   48.4300   33.7430   39.7860 H   0  0  0  0  0  0  0  0  0  0  0  0
   48.6020   33.6340   42.5370 H   0  0  0  0  0  0  0  0  0  0  0  0
   48.3740   35.5580   41.6500 C   0  0  0  0  0  2  0  0  0  0  0  0
   48.9940   35.6050   40.2560 C   0  0  0  0  0  2  0  0  0  0  0  0
   50.0510   35.9630   40.2840 H   0  0  0  0  0  0  0  0  0  0  0  0
  2  1  2  1  0  0  0
  2  5  1  0  0  0  0
  3  2  1  0  0  0  0
  4  3  1  0  0  0  0
  6  5  1  0  0  0  0
  6 11  1  0  0  0  0
  7  6  1  0  0  0  0
  8  6  1  0  0  0  0
  9 15  1  0  0  0  0
 10 16  1  0  0  0  0
 10  9  2  0  0  0  0
 11 12  2  0  0  0  0
 11 10  1  0  0  0  0
 12 13  1  0  0  0  0
 13 14  2  0  0  0  0
 14  9  1  0  0  0  0
 17 13  1  0  0  0  0
 18  2  1  0  0  0  0
 19 24  1  1  0  0  0
 19 18  1  0  0  0  0
 20 26  1  0  0  0  0
 20 19  1  0  0  0  0
 21 22  1  0  0  0  0
 21 20  1  0  0  0  0
 22 29  1  0  0  0  0
 22 23  1  0  0  0  0
 23 19  1  0  0  0  0
 23 31  1  1  0  0  0
 25 20  1  0  0  0  0
 27 21  1  0  0  0  0
 28 21  1  0  0  0  0
 30 22  1  0  0  0  0
 32 23  1  0  0  0  0
 33 34  1  0  0  0  0
 33 32  1  0  0  0  0
M  END
>  <minimizedAffinity>
-4.81371737

>  <minimizedRMSD>
0.885629594

$$$$
