
 OpenBabel03242522253D

 36 38  0  0  1  0  0  0  0  0999 V2000
   44.9040   34.9820   45.2080 C   0  0  0  0  0  0  0  0  0  0  0  0
   45.4730   35.1350   43.9330 C   0  0  0  0  0  0  0  0  0  0  0  0
   46.4800   34.2790   43.4760 C   0  0  0  0  0  0  0  0  0  0  0  0
   46.8830   33.2890   44.3240 N   0  0  0  0  0  0  0  0  0  0  0  0
   46.3290   33.1590   45.5350 C   0  0  0  0  0  0  0  0  0  0  0  0
   45.3640   33.9780   45.9750 N   0  0  0  0  0  0  0  0  0  0  0  0
   44.1370   35.6280   45.5660 H   0  0  0  0  0  0  0  0  0  0  0  0
   45.1230   35.9420   43.2840 H   0  0  0  0  0  0  0  0  0  0  0  0
   46.8470   32.0450   46.3860 C   0  0  2  0  0  0  0  0  0  0  0  0
   47.4340   30.9330   45.5410 C   0  0  0  0  0  0  0  0  0  0  0  0
   46.3240   29.9220   45.2930 C   0  0  0  0  0  0  0  0  0  0  0  0
   45.9180   29.2720   46.4310 O   0  0  0  0  0  0  0  0  0  0  0  0
   45.8500   30.0670   47.5520 C   0  0  0  0  0  0  0  0  0  0  0  0
   45.6410   31.5120   47.1370 C   0  0  1  0  0  0  0  0  0  0  0  0
   47.6260   32.4090   47.0700 H   0  0  0  0  0  0  0  0  0  0  0  0
   48.2760   30.4330   46.0470 H   0  0  0  0  0  0  0  0  0  0  0  0
   47.7470   31.3340   44.5660 H   0  0  0  0  0  0  0  0  0  0  0  0
   46.6240   29.1580   44.5570 H   0  0  0  0  0  0  0  0  0  0  0  0
   45.4690   30.4740   44.8160 H   0  0  0  0  0  0  0  0  0  0  0  0
   46.8350   30.0470   48.0750 H   0  0  0  0  0  0  0  0  0  0  0  0
   45.0750   29.7890   48.2630 H   0  0  0  0  0  0  0  0  0  0  0  0
   44.7180   31.5650   46.5310 H   0  0  0  0  0  0  0  0  0  0  0  0
   45.4290   32.3270   48.4010 C   0  0  0  0  0  0  0  0  0  0  0  0
   45.2830   31.4760   49.6220 C   0  0  0  0  0  0  0  0  0  0  0  0
   45.0580   30.4020   49.3510 H   0  0  0  0  0  0  0  0  0  0  0  0
   45.1000   32.6750   41.4280 Cl  0  0  0  0  0  0  0  0  0  0  0  0
   46.4910   33.7130   41.1050 C   0  0  0  0  0  0  0  0  0  0  0  0
   47.0750   34.4330   42.1470 C   0  0  0  0  0  0  0  0  0  0  0  0
   48.1500   35.2250   41.8560 C   0  0  0  0  0  0  0  0  0  0  0  0
   48.6440   35.3080   40.5610 C   0  0  0  0  0  0  0  0  0  0  0  0
   48.0180   34.5650   39.5650 C   0  0  0  0  0  0  0  0  0  0  0  0
   48.6600   34.6840   37.9310 Cl  0  0  0  0  0  0  0  0  0  0  0  0
   46.9450   33.7620   39.8100 C   0  0  0  0  0  0  0  0  0  0  0  0
   48.5900   35.7750   42.6700 H   0  0  0  0  0  0  0  0  0  0  0  0
   49.4920   35.9300   40.3260 H   0  0  0  0  0  0  0  0  0  0  0  0
   46.4570   33.1850   39.0380 H   0  0  0  0  0  0  0  0  0  0  0  0
  1  7  1  0  0  0  0
  1  6  1  0  0  0  0
  2  1  2  0  0  0  0
  3  2  1  0  0  0  0
  3  4  2  0  0  0  0
  4  5  1  0  0  0  0
  5  6  2  0  0  0  0
  5  9  1  0  0  0  0
  8  2  1  0  0  0  0
  9 15  1  1  0  0  0
  9 14  1  0  0  0  0
 10 16  1  0  0  0  0
 10  9  1  0  0  0  0
 11 10  1  0  0  0  0
 11 12  1  0  0  0  0
 12 13  1  0  0  0  0
 13 20  1  0  0  0  0
 13 21  1  0  0  0  0
 14 22  1  6  0  0  0
 14 13  1  0  0  0  0
 14 23  1  0  0  0  0
 17 10  1  0  0  0  0
 18 11  1  0  0  0  0
 19 11  1  0  0  0  0
 23 24  1  0  0  0  0
 25 24  1  0  0  0  0
 27 26  1  0  0  0  0
 27 28  1  0  0  0  0
 28  3  1  0  0  0  0
 29 28  2  0  0  0  0
 29 34  1  0  0  0  0
 30 29  1  0  0  0  0
 31 33  1  0  0  0  0
 31 30  2  0  0  0  0
 32 31  1  0  0  0  0
 33 27  2  0  0  0  0
 35 30  1  0  0  0  0
 36 33  1  0  0  0  0
M  END
>  <minimizedAffinity>
-6.38145733

>  <minimizedRMSD>
0.916700542

$$$$
