
 OpenBabel03252501163D

 29 31  0  0  1  0  0  0  0  0999 V2000
   46.1640   30.9370   44.1890 C   0  0  1  0  0  0  0  0  0  0  0  0
   45.0770   31.4990   43.3610 C   0  0  0  0  0  0  0  0  0  0  0  0
   46.2650   32.3810   43.9160 C   0  0  2  0  0  0  0  0  0  0  0  0
   46.9370   30.2710   43.7410 H   0  0  0  0  0  0  0  0  0  0  0  0
   44.0990   31.7670   43.7850 H   0  0  0  0  0  0  0  0  0  0  0  0
   45.0690   31.3300   42.2710 H   0  0  0  0  0  0  0  0  0  0  0  0
   45.9490   33.1490   44.6240 H   0  0  0  0  0  0  0  0  0  0  0  0
   45.6230   30.7080   47.8990 C   0  0  0  0  0  0  0  0  0  0  0  0
   46.0370   31.2280   46.6860 C   0  0  0  0  0  0  0  0  0  0  0  0
   45.7560   30.4780   45.5500 C   0  0  0  0  0  0  0  0  0  0  0  0
   45.1040   29.2990   45.6690 N   0  0  0  0  0  0  0  0  0  0  0  0
   44.7150   28.8260   46.8840 C   0  0  0  0  0  0  0  0  0  0  0  0
   44.9810   29.5430   47.9980 N   0  0  0  0  0  0  0  0  0  0  0  0
   46.5630   32.1770   46.5840 H   0  0  0  0  0  0  0  0  0  0  0  0
   44.1940   27.8910   47.0280 H   0  0  0  0  0  0  0  0  0  0  0  0
   45.9050   31.5050   49.1380 C   0  0  0  0  0  0  0  0  0  0  0  0
   47.0600   31.0050   49.6940 F   0  0  0  0  0  0  0  0  0  0  0  0
   44.8710   31.2690   50.0190 F   0  0  0  0  0  0  0  0  0  0  0  0
   46.0590   32.8290   48.8480 F   0  0  0  0  0  0  0  0  0  0  0  0
   47.2250   32.7540   42.8290 C   0  0  0  0  0  0  0  0  0  0  0  0
   48.1200   31.9230   42.1580 C   0  0  0  0  0  0  0  0  0  0  0  0
   48.7170   32.8190   41.2820 C   0  0  0  0  0  0  0  0  0  0  0  0
   48.1990   34.0970   41.4350 C   0  0  0  0  0  0  0  0  0  0  0  0
   47.3150   33.9660   42.3800 O   0  0  0  0  0  0  0  0  0  0  0  0
   48.2660   30.8760   42.3190 H   0  0  0  0  0  0  0  0  0  0  0  0
   49.5010   32.5310   40.5640 H   0  0  0  0  0  0  0  0  0  0  0  0
   48.6250   35.2830   40.6470 C   0  0  0  0  0  0  0  0  0  0  0  0
   49.2840   36.2970   41.5500 C   0  0  0  0  0  0  0  0  0  0  0  0
   50.3340   36.0670   41.7960 H   0  0  0  0  0  0  0  0  0  0  0  0
  1  4  1  6  0  0  0
  1 10  1  0  0  0  0
  2  5  1  0  0  0  0
  2  3  1  0  0  0  0
  2  1  1  0  0  0  0
  3  1  1  0  0  0  0
  3  7  1  1  0  0  0
  6  2  1  0  0  0  0
  8 13  1  0  0  0  0
  8 16  1  0  0  0  0
  9  8  2  0  0  0  0
 10 11  2  0  0  0  0
 10  9  1  0  0  0  0
 11 12  1  0  0  0  0
 12 15  1  0  0  0  0
 12 13  2  0  0  0  0
 14  9  1  0  0  0  0
 16 17  1  0  0  0  0
 16 18  1  0  0  0  0
 19 16  1  0  0  0  0
 20  3  1  0  0  0  0
 21 25  1  0  0  0  0
 21 20  2  0  0  0  0
 22 23  2  0  0  0  0
 22 21  1  0  0  0  0
 23 24  1  0  0  0  0
 24 20  1  0  0  0  0
 26 22  1  0  0  0  0
 27 23  1  0  0  0  0
 27 28  1  0  0  0  0
 28 29  1  0  0  0  0
M  END
>  <minimizedAffinity>
-4.85181093

>  <minimizedRMSD>
1.93941629

$$$$
