
 OpenBabel03242513593D

 42 46  0  0  0  0  0  0  0  0999 V2000
   44.5100   33.4770   42.4330 C   0  0  0  0  0  0  0  0  0  0  0  0
   44.3130   34.8430   42.6170 C   0  0  0  0  0  0  0  0  0  0  0  0
   44.6740   35.3980   43.8670 C   0  0  0  0  0  0  0  0  0  0  0  0
   45.1850   34.5750   44.8060 N   0  0  0  0  0  0  0  0  0  0  0  0
   45.3640   33.2510   44.5960 C   0  0  0  0  0  0  0  0  0  0  0  0
   45.0180   32.7160   43.3930 N   0  0  0  0  0  0  0  0  0  0  0  0
   44.2260   33.0730   41.4640 H   0  0  0  0  0  0  0  0  0  0  0  0
   44.5550   36.4400   44.0890 H   0  0  0  0  0  0  0  0  0  0  0  0
   45.9110   32.3210   45.5750 C   0  0  0  0  0  0  0  0  0  0  0  0
   46.7890   32.7420   46.5700 C   0  0  0  0  0  0  0  0  0  0  0  0
   47.1190   31.6290   47.3260 C   0  0  0  0  0  0  0  0  0  0  0  0
   46.4560   30.5830   46.7930 N   0  0  0  0  0  0  0  0  0  0  0  0
   45.7490   31.0250   45.7570 N   0  0  0  0  0  0  0  0  0  0  0  0
   47.2170   33.7250   46.8230 H   0  0  0  0  0  0  0  0  0  0  0  0
   47.7660   31.5320   48.1820 H   0  0  0  0  0  0  0  0  0  0  0  0
   47.4490   28.3160   46.9320 C   0  0  0  0  0  0  0  0  0  0  0  0
   46.4060   29.2030   47.1430 C   0  0  0  0  0  0  0  0  0  0  0  0
   45.2290   28.7360   47.7310 C   0  0  0  0  0  0  0  0  0  0  0  0
   44.3700   29.3660   47.9290 H   0  0  0  0  0  0  0  0  0  0  0  0
   45.1310   27.3930   48.0910 C   0  0  0  0  0  0  0  0  0  0  0  0
   44.2330   26.9860   48.5510 H   0  0  0  0  0  0  0  0  0  0  0  0
   46.1750   26.4850   47.8840 C   0  0  0  0  0  3  0  0  0  0  0  0
   47.3420   26.9790   47.2940 C   0  0  0  0  0  3  0  0  0  0  0  0
   49.6010   29.2710   45.8160 N   0  0  0  0  0  0  0  0  0  0  0  0
   48.6340   28.8520   46.3240 C   0  0  0  0  0  0  0  0  0  0  0  0
   43.7920   35.7110   41.6750 O   0  0  0  0  0  0  0  0  0  0  0  0
   42.9120   35.3470   40.6610 C   0  0  0  0  0  0  0  0  0  0  0  0
   43.1820   35.2470   39.3180 C   0  0  0  0  0  0  0  0  0  0  0  0
   42.1890   34.8710   38.4390 C   0  0  0  0  0  0  0  0  0  0  0  0
   40.9010   34.5820   38.8550 C   0  0  0  0  0  0  0  0  0  0  0  0
   39.9940   34.2260   37.9540 N   0  0  0  0  0  0  0  0  0  0  0  0
   38.7260   33.9360   38.3230 C   0  0  0  0  0  0  0  0  0  0  0  0
   38.4110   34.0250   39.6710 C   0  0  0  0  0  0  0  0  0  0  0  0
   39.3660   34.4000   40.6240 C   0  0  0  0  0  0  0  0  0  0  0  0
   40.6500   34.6890   40.2090 C   0  0  0  0  0  0  0  0  0  0  0  0
   41.6400   35.0680   41.1250 C   0  0  0  0  0  0  0  0  0  0  0  0
   44.2050   35.4820   39.0290 H   0  0  0  0  0  0  0  0  0  0  0  0
   42.4370   34.8030   37.3790 H   0  0  0  0  0  0  0  0  0  0  0  0
   37.9700   33.6430   37.6010 H   0  0  0  0  0  0  0  0  0  0  0  0
   37.4350   33.8140   40.0570 H   0  0  0  0  0  0  0  0  0  0  0  0
   39.1240   34.4700   41.6810 H   0  0  0  0  0  0  0  0  0  0  0  0
   41.3230   35.1160   42.1550 H   0  0  0  0  0  0  0  0  0  0  0  0
  1  2  2  0  0  0  0
  1  6  1  0  0  0  0
  2  3  1  0  0  0  0
  3  8  1  0  0  0  0
  3  4  2  0  0  0  0
  5  4  1  0  0  0  0
  5  9  1  0  0  0  0
  6  5  2  0  0  0  0
  7  1  1  0  0  0  0
  9 13  2  0  0  0  0
  9 10  1  0  0  0  0
 10 14  1  0  0  0  0
 10 11  2  0  0  0  0
 11 15  1  0  0  0  0
 12 17  1  0  0  0  0
 12 11  1  0  0  0  0
 13 12  1  0  0  0  0
 16 17  2  0  0  0  0
 16 23  1  0  0  0  0
 17 18  1  0  0  0  0
 18 19  1  0  0  0  0
 18 20  2  0  0  0  0
 20 21  1  0  0  0  0
 22 20  1  0  0  0  0
 23 22  2  0  0  0  0
 24 25  3  0  0  0  0
 25 16  1  0  0  0  0
 26  2  1  0  0  0  0
 27 36  1  0  0  0  0
 27 26  1  0  0  0  0
 28 27  2  0  0  0  0
 29 30  2  0  0  0  0
 29 28  1  0  0  0  0
 30 35  1  0  0  0  0
 31 32  2  0  0  0  0
 31 30  1  0  0  0  0
 32 33  1  0  0  0  0
 33 40  1  0  0  0  0
 33 34  2  0  0  0  0
 34 41  1  0  0  0  0
 35 34  1  0  0  0  0
 35 36  2  0  0  0  0
 36 42  1  0  0  0  0
 37 28  1  0  0  0  0
 38 29  1  0  0  0  0
 39 32  1  0  0  0  0
M  END
>  <minimizedAffinity>
-6.23586035

>  <minimizedRMSD>
3.28927493

$$$$
