
 OpenBabel03242519253D

 41 44  0  0  0  0  0  0  0  0999 V2000
   47.9070   33.7900   42.8910 C   0  0  0  0  0  0  0  0  0  0  0  0
   48.5800   35.0050   42.6560 C   0  0  0  0  0  0  0  0  0  0  0  0
   49.9480   35.0010   42.3390 C   0  0  0  0  0  0  0  0  0  0  0  0
   50.5460   33.7700   42.2790 N   0  0  0  0  0  0  0  0  0  0  0  0
   49.8620   32.6070   42.5120 C   0  0  0  0  0  0  0  0  0  0  0  0
   48.5710   32.6350   42.8110 N   0  0  0  0  0  0  0  0  0  0  0  0
   48.1900   36.0080   42.6830 H   0  0  0  0  0  0  0  0  0  0  0  0
   50.5250   35.8810   42.1480 H   0  0  0  0  0  0  0  0  0  0  0  0
   46.4770   33.9200   43.2210 C   0  0  0  0  0  0  0  0  0  0  0  0
   45.7720   34.9280   42.4300 C   0  0  0  0  0  0  0  0  0  0  0  0
   45.3270   36.1150   43.2060 C   0  0  0  0  0  0  0  0  0  0  0  0
   44.5190   35.7570   44.4410 C   0  0  0  0  0  0  0  0  0  0  0  0
   44.9790   34.4970   45.1340 C   0  0  0  0  0  0  0  0  0  0  0  0
   46.4060   34.1630   44.7390 C   0  0  0  0  0  0  0  0  0  0  0  0
   46.0180   32.8930   43.1070 H   0  0  0  0  0  0  0  0  0  0  0  0
   46.3380   35.2820   41.5620 H   0  0  0  0  0  0  0  0  0  0  0  0
   44.8430   34.4630   41.9880 H   0  0  0  0  0  0  0  0  0  0  0  0
   44.6040   36.6810   42.5480 H   0  0  0  0  0  0  0  0  0  0  0  0
   46.0820   36.8420   43.4920 H   0  0  0  0  0  0  0  0  0  0  0  0
   43.4230   35.7200   44.2090 H   0  0  0  0  0  0  0  0  0  0  0  0
   44.6230   36.5710   45.1890 H   0  0  0  0  0  0  0  0  0  0  0  0
   44.3180   33.6510   44.8070 H   0  0  0  0  0  0  0  0  0  0  0  0
   44.9250   34.5350   46.2280 H   0  0  0  0  0  0  0  0  0  0  0  0
   47.0620   35.0230   44.9320 H   0  0  0  0  0  0  0  0  0  0  0  0
   46.7300   33.2550   45.2640 H   0  0  0  0  0  0  0  0  0  0  0  0
   50.6630   31.3880   42.4120 C   0  0  0  0  0  0  0  0  0  0  0  0
   51.5470   31.3110   41.3930 N   0  0  0  0  0  0  0  0  0  0  0  0
   52.1940   30.1370   41.4540 C   0  0  0  0  0  0  0  0  0  0  0  0
   51.6950   29.4790   42.5370 N   0  0  0  0  0  0  0  0  0  0  0  0
   50.7550   30.2430   43.1270 N   0  0  0  0  0  0  0  0  0  0  0  0
   52.9690   29.7170   40.8180 H   0  0  0  0  0  0  0  0  0  0  0  0
   52.9580   27.9290   44.0480 C   0  0  0  0  0  0  0  0  0  0  0  0
   52.0080   28.2000   43.0810 C   0  0  0  0  0  0  0  0  0  0  0  0
   51.2430   27.1600   42.5430 C   0  0  0  0  0  0  0  0  0  0  0  0
   50.4750   27.3150   41.7740 H   0  0  0  0  0  0  0  0  0  0  0  0
   51.4120   25.8500   42.9540 C   0  0  0  0  0  0  0  0  0  0  0  0
   50.8100   25.0560   42.5260 H   0  0  0  0  0  0  0  0  0  0  0  0
   52.3760   25.6200   43.9270 C   0  0  0  0  0  3  0  0  0  0  0  0
   53.1460   26.6270   44.4770 C   0  0  0  0  0  3  0  0  0  0  0  0
   54.2910   29.9450   44.9670 N   0  0  0  0  0  0  0  0  0  0  0  0
   53.6880   29.0360   44.5410 C   0  0  0  0  0  0  0  0  0  0  0  0
  1  9  1  0  0  0  0
  2  7  1  0  0  0  0
  2  1  2  0  0  0  0
  3  2  1  0  0  0  0
  4  3  2  0  0  0  0
  4  5  1  0  0  0  0
  5  6  2  0  0  0  0
  6  1  1  0  0  0  0
  8  3  1  0  0  0  0
  9 14  1  0  0  0  0
 10 11  1  0  0  0  0
 10  9  1  0  0  0  0
 11 19  1  0  0  0  0
 11 12  1  0  0  0  0
 12 13  1  0  0  0  0
 12 21  1  0  0  0  0
 13 23  1  0  0  0  0
 14 24  1  0  0  0  0
 14 13  1  0  0  0  0
 14 25  1  0  0  0  0
 15  9  1  0  0  0  0
 16 10  1  0  0  0  0
 17 10  1  0  0  0  0
 18 11  1  0  0  0  0
 20 12  1  0  0  0  0
 22 13  1  0  0  0  0
 26  5  1  0  0  0  0
 26 30  2  0  0  0  0
 27 28  2  0  0  0  0
 27 26  1  0  0  0  0
 28 29  1  0  0  0  0
 29 33  1  0  0  0  0
 29 30  1  0  0  0  0
 31 28  1  0  0  0  0
 32 39  1  0  0  0  0
 32 41  1  0  0  0  0
 33 32  2  0  0  0  0
 34 36  2  0  0  0  0
 34 33  1  0  0  0  0
 35 34  1  0  0  0  0
 36 38  1  0  0  0  0
 37 36  1  0  0  0  0
 38 39  2  0  0  0  0
 41 40  3  0  0  0  0
M  END
>  <minimizedAffinity>
-4.19142199

>  <minimizedRMSD>
0.599246919

$$$$
