
 OpenBabel03252507223D

 48 51  0  0  1  0  0  0  0  0999 V2000
   47.3650   33.4560   43.0460 C   0  0  0  0  0  0  0  0  0  0  0  0
   48.5360   33.4930   43.5770 O   0  0  0  0  0  0  0  0  0  0  0  0
   47.0170   32.6320   41.9120 N   0  0  0  0  0  0  0  0  0  0  0  0
   45.8400   31.8330   41.6650 C   0  0  0  0  0  0  0  0  0  0  0  0
   45.2760   32.2180   40.2910 C   0  0  0  0  0  0  0  0  0  0  0  0
   46.2580   31.8710   39.2090 C   0  0  0  0  0  0  0  0  0  0  0  0
   47.6140   31.5980   39.8200 C   0  0  0  0  0  0  0  0  0  0  0  0
   48.0040   32.6430   40.8370 C   0  0  2  0  0  0  0  0  0  0  0  0
   45.0310   32.0660   42.4130 H   0  0  0  0  0  0  0  0  0  0  0  0
   46.0430   30.7470   41.6260 H   0  0  0  0  0  0  0  0  0  0  0  0
   45.0560   33.3130   40.3180 H   0  0  0  0  0  0  0  0  0  0  0  0
   44.3380   31.6420   40.1600 H   0  0  0  0  0  0  0  0  0  0  0  0
   46.3780   32.7800   38.5800 H   0  0  0  0  0  0  0  0  0  0  0  0
   45.9440   30.9820   38.6510 H   0  0  0  0  0  0  0  0  0  0  0  0
   48.4110   31.5190   39.0690 H   0  0  0  0  0  0  0  0  0  0  0  0
   47.5740   30.5670   40.2900 H   0  0  0  0  0  0  0  0  0  0  0  0
   47.9160   33.6210   40.3520 H   0  0  0  0  0  0  0  0  0  0  0  0
   45.9440   35.4300   42.9120 C   0  0  0  0  0  0  0  0  0  0  0  0
   46.3550   34.2900   43.6280 C   0  0  0  0  0  0  0  0  0  0  0  0
   45.7850   34.0100   44.8600 C   0  0  0  0  0  0  0  0  0  0  0  0
   44.8440   34.8630   45.3190 N   0  0  0  0  0  0  0  0  0  0  0  0
   44.4320   35.9580   44.6550 C   0  0  0  0  0  0  0  0  0  0  0  0
   44.9980   36.2280   43.4460 N   0  0  0  0  0  0  0  0  0  0  0  0
   46.3790   35.6690   41.9490 H   0  0  0  0  0  0  0  0  0  0  0  0
   43.6730   36.6280   45.0610 H   0  0  0  0  0  0  0  0  0  0  0  0
   46.2260   32.8280   45.5780 C   0  0  0  0  0  0  0  0  0  0  0  0
   45.8800   31.5890   45.1280 C   0  0  0  0  0  0  0  0  0  0  0  0
   46.3140   30.4970   45.8340 C   0  0  0  0  0  0  0  0  0  0  0  0
   47.0860   30.5880   46.9820 C   0  0  0  0  0  0  0  0  0  0  0  0
   47.4020   31.8740   47.3870 C   0  0  0  0  0  0  0  0  0  0  0  0
   46.9670   32.9200   46.6820 N   0  0  0  0  0  0  0  0  0  0  0  0
   45.2890   31.3770   44.2530 H   0  0  0  0  0  0  0  0  0  0  0  0
   46.0500   29.4840   45.4890 H   0  0  0  0  0  0  0  0  0  0  0  0
   47.4150   29.7140   47.5200 H   0  0  0  0  0  0  0  0  0  0  0  0
   48.0060   31.9710   48.2760 H   0  0  0  0  0  0  0  0  0  0  0  0
   49.4040   32.4640   41.2600 C   0  0  0  0  0  0  0  0  0  0  0  0
   49.9500   32.6900   40.2770 H   0  0  0  0  0  0  0  0  0  0  0  0
   49.8320   33.3330   41.8560 H   0  0  0  0  0  0  0  0  0  0  0  0
   50.8490   30.4830   40.8650 C   0  0  0  0  0  0  0  0  0  0  0  0
   49.9210   31.1820   41.6750 C   0  0  0  0  0  0  0  0  0  0  0  0
   49.6280   30.3860   42.7860 C   0  0  0  0  0  0  0  0  0  0  0  0
   48.8930   30.7620   43.4820 H   0  0  0  0  0  0  0  0  0  0  0  0
   50.0880   29.1690   43.1190 C   0  0  0  0  0  0  0  0  0  0  0  0
   49.7580   28.6660   44.0340 H   0  0  0  0  0  0  0  0  0  0  0  0
   50.9860   28.5410   42.2960 C   0  0  0  0  0  3  0  0  0  0  0  0
   51.3650   29.2150   41.1550 C   0  0  0  0  0  3  0  0  0  0  0  0
   51.7220   31.6660   38.6840 N   0  0  0  0  0  0  0  0  0  0  0  0
   51.3310   31.1260   39.6580 C   0  0  0  0  0  0  0  0  0  0  0  0
  1  2  2  0  0  0  0
  1 19  1  0  0  0  0
  3  1  1  0  0  0  0
  4  3  1  0  0  0  0
  4  9  1  0  0  0  0
  5 11  1  0  0  0  0
  5  4  1  0  0  0  0
  6  7  1  0  0  0  0
  6  5  1  0  0  0  0
  7 16  1  0  0  0  0
  7  8  1  0  0  0  0
  8 17  1  6  0  0  0
  8 36  1  0  0  0  0
  8  3  1  0  0  0  0
 10  4  1  0  0  0  0
 12  5  1  0  0  0  0
 13  6  1  0  0  0  0
 14  6  1  0  0  0  0
 15  7  1  0  0  0  0
 18 23  2  0  0  0  0
 18 19  1  0  0  0  0
 19 20  2  0  0  0  0
 20 21  1  0  0  0  0
 20 26  1  0  0  0  0
 22 25  1  0  0  0  0
 22 21  2  0  0  0  0
 23 22  1  0  0  0  0
 24 18  1  0  0  0  0
 26 31  1  0  0  0  0
 27 26  2  0  0  0  0
 27 28  1  0  0  0  0
 28 29  2  0  0  0  0
 29 30  1  0  0  0  0
 29 34  1  0  0  0  0
 30 35  1  0  0  0  0
 31 30  2  0  0  0  0
 32 27  1  0  0  0  0
 33 28  1  0  0  0  0
 36 40  1  0  0  0  0
 36 38  1  0  0  0  0
 37 36  1  0  0  0  0
 39 46  2  0  0  0  0
 39 40  1  0  0  0  0
 40 41  2  0  0  0  0
 41 43  1  0  0  0  0
 41 42  1  0  0  0  0
 43 44  1  0  0  0  0
 45 43  2  0  0  0  0
 46 45  1  0  0  0  0
 47 48  3  0  0  0  0
 48 39  1  0  0  0  0
M  END
>  <minimizedAffinity>
-4.93754339

>  <minimizedRMSD>
1.86440408

$$$$
