
 OpenBabel03242522473D

 42 45  0  0  0  0  0  0  0  0999 V2000
   45.7220   34.2750   42.0680 C   0  0  0  0  0  0  0  0  0  0  0  0
   46.9570   33.7570   41.6570 C   0  0  0  0  0  0  0  0  0  0  0  0
   47.8100   33.1540   42.6250 C   0  0  0  0  0  0  0  0  0  0  0  0
   47.3630   33.1210   43.9040 N   0  0  0  0  0  0  0  0  0  0  0  0
   46.1720   33.6260   44.2740 C   0  0  0  0  0  0  0  0  0  0  0  0
   45.3800   34.1880   43.3610 N   0  0  0  0  0  0  0  0  0  0  0  0
   44.8830   34.8710   41.1080 N   0  0  0  0  0  0  0  0  0  0  0  0
   48.7630   32.7510   42.3350 H   0  0  0  0  0  0  0  0  0  0  0  0
   45.3300   35.5050   40.4060 H   0  0  0  0  0  0  0  0  0  0  0  0
   43.8630   34.6510   41.1460 H   0  0  0  0  0  0  0  0  0  0  0  0
   47.4180   33.8020   40.2880 C   0  0  0  0  0  0  0  0  0  0  0  0
   48.2110   34.7500   39.6850 C   0  0  0  0  0  0  0  0  0  0  0  0
   48.5600   34.6440   38.3530 C   0  0  0  0  0  0  0  0  0  0  0  0
   48.1250   33.5710   37.5640 C   0  0  0  0  0  0  0  0  0  0  0  0
   48.5190   33.5610   36.2880 N   0  0  0  0  0  0  0  0  0  0  0  0
   48.1030   32.5170   35.4970 C   0  0  0  0  0  0  0  0  0  0  0  0
   47.3020   31.5490   36.0870 C   0  0  0  0  0  0  0  0  0  0  0  0
   46.9050   31.5720   37.4020 C   0  0  0  0  0  0  0  0  0  0  0  0
   47.3300   32.6250   38.1810 C   0  0  0  0  0  0  0  0  0  0  0  0
   46.9710   32.7220   39.5200 C   0  0  0  0  0  0  0  0  0  0  0  0
   48.5230   35.5590   40.3320 H   0  0  0  0  0  0  0  0  0  0  0  0
   49.1840   35.4070   37.9100 H   0  0  0  0  0  0  0  0  0  0  0  0
   48.3810   32.4390   34.4550 H   0  0  0  0  0  0  0  0  0  0  0  0
   46.9490   30.7060   35.5010 H   0  0  0  0  0  0  0  0  0  0  0  0
   46.2770   30.8000   37.8360 H   0  0  0  0  0  0  0  0  0  0  0  0
   46.3460   31.9220   39.8870 H   0  0  0  0  0  0  0  0  0  0  0  0
   45.7750   33.5360   45.7170 C   0  0  0  0  0  0  0  0  0  0  0  0
   45.7370   34.5960   46.0780 H   0  0  0  0  0  0  0  0  0  0  0  0
   44.8520   32.9880   45.8890 H   0  0  0  0  0  0  0  0  0  0  0  0
   46.9430   32.9020   46.5020 C   0  0  0  0  0  0  0  0  0  0  0  0
   47.0990   33.4730   47.4500 H   0  0  0  0  0  0  0  0  0  0  0  0
   47.8290   32.8730   45.8710 H   0  0  0  0  0  0  0  0  0  0  0  0
   47.1300   30.7880   47.8730 C   0  0  0  0  0  0  0  0  0  0  0  0
   46.5220   31.5250   46.8800 C   0  0  0  0  0  0  0  0  0  0  0  0
   45.4650   30.9320   46.2140 C   0  0  0  0  0  0  0  0  0  0  0  0
   44.9840   31.5210   45.4240 H   0  0  0  0  0  0  0  0  0  0  0  0
   44.9570   29.6720   46.4420 C   0  0  0  0  0  0  0  0  0  0  0  0
   44.1230   29.3120   45.8560 H   0  0  0  0  0  0  0  0  0  0  0  0
   45.5940   28.9670   47.4430 C   0  0  0  0  0  3  0  0  0  0  0  0
   46.6610   29.5000   48.1540 C   0  0  0  0  0  3  0  0  0  0  0  0
   49.1100   31.8460   49.1770 N   0  0  0  0  0  0  0  0  0  0  0  0
   48.2300   31.3710   48.5850 C   0  0  0  0  0  0  0  0  0  0  0  0
  1  6  1  0  0  0  0
  2  1  2  0  0  0  0
  2  3  1  0  0  0  0
  3  4  2  0  0  0  0
  4  5  1  0  0  0  0
  5 27  1  0  0  0  0
  6  5  2  0  0  0  0
  7 10  1  0  0  0  0
  7  1  1  0  0  0  0
  8  3  1  0  0  0  0
  9  7  1  0  0  0  0
 11  2  1  0  0  0  0
 12 11  1  0  0  0  0
 12 21  1  0  0  0  0
 13 12  2  0  0  0  0
 14 19  1  0  0  0  0
 14 13  1  0  0  0  0
 15 14  2  0  0  0  0
 16 17  2  0  0  0  0
 16 15  1  0  0  0  0
 17 18  1  0  0  0  0
 18 25  1  0  0  0  0
 18 19  2  0  0  0  0
 19 20  1  0  0  0  0
 20 26  1  0  0  0  0
 20 11  2  0  0  0  0
 22 13  1  0  0  0  0
 23 16  1  0  0  0  0
 24 17  1  0  0  0  0
 27 29  1  0  0  0  0
 27 28  1  0  0  0  0
 27 30  1  0  0  0  0
 30 34  1  0  0  0  0
 30 31  1  0  0  0  0
 32 30  1  0  0  0  0
 33 40  1  0  0  0  0
 33 42  1  0  0  0  0
 34 33  2  0  0  0  0
 35 37  2  0  0  0  0
 35 34  1  0  0  0  0
 36 35  1  0  0  0  0
 37 39  1  0  0  0  0
 38 37  1  0  0  0  0
 39 40  2  0  0  0  0
 42 41  3  0  0  0  0
M  END
>  <minimizedAffinity>
-5.24485922

>  <minimizedRMSD>
3.00435567

$$$$
