
 OpenBabel03242512013D

 48 51  0  0  1  0  0  0  0  0999 V2000
   47.1960   34.1100   42.4230 C   0  0  2  0  0  0  0  0  0  0  0  0
   48.5700   34.6920   42.5690 C   0  0  0  0  0  0  0  0  0  0  0  0
   48.8800   35.6880   41.5200 C   0  0  0  0  0  0  0  0  0  0  0  0
   48.7140   35.1190   40.1180 C   0  0  0  0  0  0  0  0  0  0  0  0
   47.5000   34.2580   39.9630 C   0  0  0  0  0  0  0  0  0  0  0  0
   46.5350   34.3720   41.1200 C   0  0  1  0  0  0  0  0  0  0  0  0
   47.3080   32.9860   42.5300 H   0  0  0  0  0  0  0  0  0  0  0  0
   49.3430   33.8990   42.5060 H   0  0  0  0  0  0  0  0  0  0  0  0
   48.6980   35.1680   43.5550 H   0  0  0  0  0  0  0  0  0  0  0  0
   49.9140   36.0490   41.6090 H   0  0  0  0  0  0  0  0  0  0  0  0
   48.2090   36.5650   41.6000 H   0  0  0  0  0  0  0  0  0  0  0  0
   48.7670   35.9610   39.4270 H   0  0  0  0  0  0  0  0  0  0  0  0
   49.6180   34.4650   39.9600 H   0  0  0  0  0  0  0  0  0  0  0  0
   46.9660   34.6220   39.0550 H   0  0  0  0  0  0  0  0  0  0  0  0
   47.7670   33.1900   39.7470 H   0  0  0  0  0  0  0  0  0  0  0  0
   46.0410   35.3460   40.9960 H   0  0  0  0  0  0  0  0  0  0  0  0
   46.2980   34.4780   43.5350 C   0  0  0  0  0  0  0  0  0  0  0  0
   45.5940   35.6480   43.3090 C   0  0  0  0  0  0  0  0  0  0  0  0
   44.6930   36.1210   44.2780 C   0  0  0  0  0  0  0  0  0  0  0  0
   44.5860   35.3350   45.4320 N   0  0  0  0  0  0  0  0  0  0  0  0
   45.2950   34.2040   45.6050 C   0  0  0  0  0  0  0  0  0  0  0  0
   46.1500   33.7850   44.6470 N   0  0  0  0  0  0  0  0  0  0  0  0
   45.5410   36.3820   42.5200 H   0  0  0  0  0  0  0  0  0  0  0  0
   44.0720   36.9770   44.2930 H   0  0  0  0  0  0  0  0  0  0  0  0
   45.1320   33.6750   46.5380 H   0  0  0  0  0  0  0  0  0  0  0  0
   45.4660   33.3310   40.9230 C   0  0  2  0  0  0  0  0  0  0  0  0
   44.8400   33.2040   39.5490 C   0  0  0  0  0  0  0  0  0  0  0  0
   44.0550   33.7380   40.6820 C   0  0  1  0  0  0  0  0  0  0  0  0
   45.6910   32.3370   41.3600 H   0  0  0  0  0  0  0  0  0  0  0  0
   44.5450   32.2110   39.1560 H   0  0  0  0  0  0  0  0  0  0  0  0
   45.0910   33.9380   38.7520 H   0  0  0  0  0  0  0  0  0  0  0  0
   43.8890   34.8380   40.7410 H   0  0  0  0  0  0  0  0  0  0  0  0
   43.0740   32.9240   41.4670 C   0  0  0  0  0  0  0  0  0  0  0  0
   43.3510   33.0210   42.5380 H   0  0  0  0  0  0  0  0  0  0  0  0
   43.1810   31.8500   41.2380 H   0  0  0  0  0  0  0  0  0  0  0  0
   41.6520   33.4070   41.3420 C   0  0  0  0  0  0  0  0  0  0  0  0
   41.5460   33.9050   40.3640 H   0  0  0  0  0  0  0  0  0  0  0  0
   41.4300   34.1670   42.1040 H   0  0  0  0  0  0  0  0  0  0  0  0
   39.4100   32.6410   40.9090 C   0  0  0  0  0  0  0  0  0  0  0  0
   40.6440   32.3460   41.4680 C   0  0  0  0  0  0  0  0  0  0  0  0
   40.8240   31.1110   42.0840 C   0  0  0  0  0  0  0  0  0  0  0  0
   41.8050   30.9330   42.5020 H   0  0  0  0  0  0  0  0  0  0  0  0
   39.7740   30.1870   42.1350 C   0  0  0  0  0  0  0  0  0  0  0  0
   39.9480   29.2370   42.6210 H   0  0  0  0  0  0  0  0  0  0  0  0
   38.5730   30.5460   41.5590 C   0  0  0  0  0  3  0  0  0  0  0  0
   38.3360   31.7540   40.9360 C   0  0  0  0  0  3  0  0  0  0  0  0
   38.9200   34.9130   39.7170 N   0  0  0  0  0  0  0  0  0  0  0  0
   39.1470   33.9110   40.2500 C   0  0  0  0  0  0  0  0  0  0  0  0
  1  7  1  1  0  0  0
  1  2  1  0  0  0  0
  1 17  1  0  0  0  0
  2  9  1  0  0  0  0
  3 11  1  0  0  0  0
  3 10  1  0  0  0  0
  3  2  1  0  0  0  0
  4  3  1  0  0  0  0
  5  4  1  0  0  0  0
  5  6  1  0  0  0  0
  6 16  1  1  0  0  0
  6  1  1  0  0  0  0
  8  2  1  0  0  0  0
 12  4  1  0  0  0  0
 13  4  1  0  0  0  0
 14  5  1  0  0  0  0
 15  5  1  0  0  0  0
 17 22  1  0  0  0  0
 18 17  2  0  0  0  0
 18 19  1  0  0  0  0
 19 24  1  0  0  0  0
 19 20  2  0  0  0  0
 20 21  1  0  0  0  0
 21 25  1  0  0  0  0
 22 21  2  0  0  0  0
 23 18  1  0  0  0  0
 26  6  1  0  0  0  0
 26 29  1  1  0  0  0
 27 28  1  0  0  0  0
 27 26  1  0  0  0  0
 28 32  1  6  0  0  0
 28 26  1  0  0  0  0
 28 33  1  0  0  0  0
 30 27  1  0  0  0  0
 31 27  1  0  0  0  0
 33 34  1  0  0  0  0
 35 33  1  0  0  0  0
 36 33  1  0  0  0  0
 36 40  1  0  0  0  0
 36 38  1  0  0  0  0
 37 36  1  0  0  0  0
 39 46  2  0  0  0  0
 39 40  1  0  0  0  0
 40 41  2  0  0  0  0
 41 43  1  0  0  0  0
 41 42  1  0  0  0  0
 43 44  1  0  0  0  0
 45 43  2  0  0  0  0
 46 45  1  0  0  0  0
 47 48  3  0  0  0  0
 48 39  1  0  0  0  0
M  END
>  <minimizedAffinity>
-6.46353054

>  <minimizedRMSD>
0.631514847

$$$$
