
 OpenBabel03242518013D

 38 40  0  0  0  0  0  0  0  0999 V2000
   46.5500   31.2800   46.2210 C   0  0  0  0  0  0  0  0  0  0  0  0
   45.5250   31.5350   46.5350 H   0  0  0  0  0  0  0  0  0  0  0  0
   46.4240   30.3170   45.6430 H   0  0  0  0  0  0  0  0  0  0  0  0
   47.3250   31.5720   48.5610 C   0  0  0  0  0  0  0  0  0  0  0  0
   47.4880   30.9910   47.2920 C   0  0  0  0  0  0  0  0  0  0  0  0
   48.5910   30.1420   47.1480 C   0  0  0  0  0  0  0  0  0  0  0  0
   49.4110   29.9330   48.2020 N   0  0  0  0  0  0  0  0  0  0  0  0
   49.2180   30.5080   49.3960 C   0  0  0  0  0  0  0  0  0  0  0  0
   48.1830   31.3190   49.5670 N   0  0  0  0  0  0  0  0  0  0  0  0
   46.5100   32.2450   48.7940 H   0  0  0  0  0  0  0  0  0  0  0  0
   48.7100   29.7000   46.1720 H   0  0  0  0  0  0  0  0  0  0  0  0
   50.9980   31.2390   50.9330 C   0  0  0  0  0  0  0  0  0  0  0  0
   50.1480   30.2330   50.4870 C   0  0  0  0  0  0  0  0  0  0  0  0
   50.1700   28.9660   51.0660 C   0  0  0  0  0  0  0  0  0  0  0  0
   49.5080   28.1840   50.7170 H   0  0  0  0  0  0  0  0  0  0  0  0
   51.0330   28.6590   52.1000 C   0  0  0  0  0  0  0  0  0  0  0  0
   51.0550   27.6810   52.5530 H   0  0  0  0  0  0  0  0  0  0  0  0
   51.8540   29.6900   52.5060 C   0  0  0  0  0  0  0  0  0  0  0  0
   51.8770   30.9580   51.9750 C   0  0  0  0  0  0  0  0  0  0  0  0
   50.9390   33.5780   49.8580 N   0  0  0  0  0  0  0  0  0  0  0  0
   50.9710   32.5320   50.3390 C   0  0  0  0  0  0  0  0  0  0  0  0
   47.1930   32.3100   45.3140 C   0  0  0  0  0  0  0  0  0  0  0  0
   47.5690   31.8000   44.4000 H   0  0  0  0  0  0  0  0  0  0  0  0
   48.1340   32.7370   45.7730 H   0  0  0  0  0  0  0  0  0  0  0  0
   46.4900   34.1090   43.7970 C   0  0  0  0  0  0  0  0  0  0  0  0
   46.3500   33.4740   45.0190 C   0  0  0  0  0  0  0  0  0  0  0  0
   45.4620   33.8730   45.9800 C   0  0  0  0  0  0  0  0  0  0  0  0
   44.6630   34.9680   45.7130 C   0  0  0  0  0  0  0  0  0  0  0  0
   44.7250   35.6590   44.5400 C   0  0  0  0  0  0  0  0  0  0  0  0
   45.6560   35.1910   43.6110 C   0  0  0  0  0  0  0  0  0  0  0  0
   45.3040   33.4360   46.9340 H   0  0  0  0  0  0  0  0  0  0  0  0
   43.9340   35.3410   46.4310 H   0  0  0  0  0  0  0  0  0  0  0  0
   44.1250   36.5170   44.2860 H   0  0  0  0  0  0  0  0  0  0  0  0
   45.7190   35.7310   42.6680 H   0  0  0  0  0  0  0  0  0  0  0  0
   47.6060   33.6360   42.5480 S   0  0  0  0  0  0  0  0  0  0  0  0
   49.0150   34.0870   42.8260 O   0  0  0  0  0  0  0  0  0  0  0  0
   47.2250   34.3420   41.2620 O   0  0  0  0  0  0  0  0  0  0  0  0
   47.5460   32.3020   42.2360 H   0  0  0  0  0  0  0  0  0  0  0  0
  1  2  1  0  0  0  0
  1  5  1  0  0  0  0
  3  1  1  0  0  0  0
  4 10  1  0  0  0  0
  4  9  1  0  0  0  0
  5  4  2  0  0  0  0
  6  5  1  0  0  0  0
  6  7  2  0  0  0  0
  7  8  1  0  0  0  0
  8  9  2  0  0  0  0
  8 13  1  0  0  0  0
 11  6  1  0  0  0  0
 12 19  1  0  0  0  0
 13 12  2  0  0  0  0
 13 14  1  0  0  0  0
 14 16  2  0  0  0  0
 15 14  1  0  0  0  0
 16 18  1  0  0  0  0
 16 17  1  0  0  0  0
 19 18  2  0  0  0  0
 20 21  3  0  0  0  0
 21 12  1  0  0  0  0
 22 24  1  0  0  0  0
 22  1  1  0  0  0  0
 23 22  1  0  0  0  0
 25 26  1  0  0  0  0
 26 22  1  0  0  0  0
 26 27  2  0  0  0  0
 27 31  1  0  0  0  0
 28 27  1  0  0  0  0
 28 32  1  0  0  0  0
 29 28  2  0  0  0  0
 30 25  2  0  0  0  0
 30 29  1  0  0  0  0
 33 29  1  0  0  0  0
 34 30  1  0  0  0  0
 35 36  2  0  0  0  0
 35 25  1  0  0  0  0
 37 35  2  0  0  0  0
 38 35  1  0  0  0  0
M  END
>  <minimizedAffinity>
-5.40420723

>  <minimizedRMSD>
0.735950351

$$$$
