
 OpenBabel03252503223D

 41 45  0  0  1  0  0  0  0  0999 V2000
   49.0230   30.7930   37.6830 C   0  0  1  0  0  0  0  0  0  0  0  0
   48.5850   30.5290   36.3260 C   0  0  0  0  0  0  0  0  0  0  0  0
   49.7640   31.4420   36.5490 C   0  0  2  0  0  0  0  0  0  0  0  0
   49.5180   29.9890   38.2660 H   0  0  0  0  0  0  0  0  0  0  0  0
   47.6490   31.0420   35.9780 H   0  0  0  0  0  0  0  0  0  0  0  0
   48.7940   29.5760   35.8220 H   0  0  0  0  0  0  0  0  0  0  0  0
   49.6210   32.5240   36.4130 H   0  0  0  0  0  0  0  0  0  0  0  0
   51.0970   30.8660   36.2480 C   0  0  0  0  0  0  0  0  0  0  0  0
   51.4250   30.2430   35.0470 C   0  0  0  0  0  0  0  0  0  0  0  0
   52.6980   29.7440   34.8220 C   0  0  0  0  0  0  0  0  0  0  0  0
   53.6680   29.8600   35.7910 C   0  0  0  0  0  0  0  0  0  0  0  0
   54.9340   29.3890   35.6110 N   0  0  0  0  0  0  0  0  0  0  0  0
   55.8720   29.5180   36.5740 C   0  0  0  0  0  0  0  0  0  0  0  0
   55.6270   30.1340   37.8130 C   0  0  0  0  0  0  0  0  0  0  0  0
   54.3400   30.6190   38.0130 C   0  0  0  0  0  0  0  0  0  0  0  0
   53.3910   30.4780   37.0150 C   0  0  0  0  0  0  0  0  0  0  0  0
   52.1030   30.9580   37.1920 C   0  0  0  0  0  0  0  0  0  0  0  0
   50.6620   30.1580   34.2990 H   0  0  0  0  0  0  0  0  0  0  0  0
   52.9630   29.2600   33.8980 H   0  0  0  0  0  0  0  0  0  0  0  0
   56.8820   29.1490   36.4460 H   0  0  0  0  0  0  0  0  0  0  0  0
   56.4150   30.2110   38.5500 H   0  0  0  0  0  0  0  0  0  0  0  0
   54.1230   31.0980   38.9550 H   0  0  0  0  0  0  0  0  0  0  0  0
   51.9760   31.4040   38.1700 H   0  0  0  0  0  0  0  0  0  0  0  0
   48.2870   33.0910   38.4200 C   0  0  0  0  0  0  0  0  0  0  0  0
   48.2390   31.6720   38.5930 C   0  0  0  0  0  0  0  0  0  0  0  0
   47.4730   31.1620   39.6240 C   0  0  0  0  0  0  0  0  0  0  0  0
   46.8100   32.0560   40.4130 N   0  0  0  0  0  0  0  0  0  0  0  0
   46.8660   33.3870   40.2400 C   0  0  0  0  0  0  0  0  0  0  0  0
   47.6080   33.9110   39.2370 N   0  0  0  0  0  0  0  0  0  0  0  0
   48.9130   33.4290   37.5830 H   0  0  0  0  0  0  0  0  0  0  0  0
   47.4100   30.1010   39.7840 H   0  0  0  0  0  0  0  0  0  0  0  0
   46.7720   34.8680   42.1990 C   0  0  0  0  0  0  0  0  0  0  0  0
   46.1210   34.2690   41.1390 C   0  0  0  0  0  0  0  0  0  0  0  0
   44.7780   34.4720   40.8890 C   0  0  0  0  0  0  0  0  0  0  0  0
   44.2600   34.0110   40.0640 H   0  0  0  0  0  0  0  0  0  0  0  0
   44.0210   35.2880   41.6930 C   0  0  0  0  0  0  0  0  0  0  0  0
   42.9680   35.5160   41.5880 H   0  0  0  0  0  0  0  0  0  0  0  0
   44.6580   35.9050   42.7720 C   0  0  0  0  0  0  0  0  0  0  0  0
   46.0000   35.6830   42.9990 C   0  0  0  0  0  0  0  0  0  0  0  0
   49.2990   34.4510   42.6590 N   0  0  0  0  0  0  0  0  0  0  0  0
   48.1670   34.6460   42.4450 C   0  0  0  0  0  0  0  0  0  0  0  0
  1  4  1  1  0  0  0
  1 25  1  0  0  0  0
  2  3  1  0  0  0  0
  2  1  1  0  0  0  0
  3  7  1  6  0  0  0
  3  1  1  0  0  0  0
  5  2  1  0  0  0  0
  6  2  1  0  0  0  0
  8  3  1  0  0  0  0
  8 17  1  0  0  0  0
  9  8  2  0  0  0  0
 10  9  1  0  0  0  0
 10 11  2  0  0  0  0
 11 16  1  0  0  0  0
 12 11  1  0  0  0  0
 12 13  2  0  0  0  0
 13 14  1  0  0  0  0
 14 15  2  0  0  0  0
 14 21  1  0  0  0  0
 15 22  1  0  0  0  0
 16 17  2  0  0  0  0
 16 15  1  0  0  0  0
 17 23  1  0  0  0  0
 18  9  1  0  0  0  0
 19 10  1  0  0  0  0
 20 13  1  0  0  0  0
 24 25  2  0  0  0  0
 24 29  1  0  0  0  0
 25 26  1  0  0  0  0
 26 31  1  0  0  0  0
 26 27  2  0  0  0  0
 28 27  1  0  0  0  0
 28 33  1  0  0  0  0
 29 28  2  0  0  0  0
 30 24  1  0  0  0  0
 32 41  1  0  0  0  0
 32 39  1  0  0  0  0
 33 32  2  0  0  0  0
 34 33  1  0  0  0  0
 34 36  2  0  0  0  0
 35 34  1  0  0  0  0
 36 38  1  0  0  0  0
 37 36  1  0  0  0  0
 38 39  2  0  0  0  0
 41 40  3  0  0  0  0
M  END
>  <minimizedAffinity>
-5.01530981

>  <minimizedRMSD>
6.09131432

$$$$
