
 OpenBabel03252506323D

 33 35  0  0  1  0  0  0  0  0999 V2000
   37.6710   32.9030   39.5610 C   0  0  0  0  0  0  0  0  0  0  0  0
   38.4560   32.8720   40.7260 C   0  0  0  0  0  0  0  0  0  0  0  0
   38.8130   31.6440   41.2800 C   0  0  0  0  0  0  0  0  0  0  0  0
   38.3680   30.5210   40.6410 N   0  0  0  0  0  0  0  0  0  0  0  0
   37.6150   30.5950   39.5230 C   0  0  0  0  0  0  0  0  0  0  0  0
   37.2560   31.7630   38.9690 N   0  0  0  0  0  0  0  0  0  0  0  0
   37.2100   29.3480   38.9560 N   0  0  0  0  0  0  0  0  0  0  0  0
   36.7120   29.2030   37.5780 C   0  0  0  0  0  0  0  0  0  0  0  0
   35.6470   28.1570   37.7600 C   0  0  0  0  0  0  0  0  0  0  0  0
   35.8190   27.5740   39.1360 C   0  0  0  0  0  0  0  0  0  0  0  0
   37.1840   28.0370   39.5190 C   0  0  2  0  0  0  0  0  0  0  0  0
   37.3980   33.8610   39.1390 H   0  0  0  0  0  0  0  0  0  0  0  0
   39.4120   31.6570   42.1670 H   0  0  0  0  0  0  0  0  0  0  0  0
   37.5900   28.8490   36.9890 H   0  0  0  0  0  0  0  0  0  0  0  0
   36.3280   30.1650   37.1920 H   0  0  0  0  0  0  0  0  0  0  0  0
   34.6730   28.6680   37.6180 H   0  0  0  0  0  0  0  0  0  0  0  0
   35.8280   27.3720   36.9990 H   0  0  0  0  0  0  0  0  0  0  0  0
   35.0340   28.0700   39.7770 H   0  0  0  0  0  0  0  0  0  0  0  0
   35.7090   26.4700   39.1540 H   0  0  0  0  0  0  0  0  0  0  0  0
   37.8950   27.4170   38.8830 H   0  0  0  0  0  0  0  0  0  0  0  0
   38.7810   27.4730   41.3490 C   0  0  0  0  0  0  0  0  0  0  0  0
   37.5070   27.8790   40.9260 C   0  0  0  0  0  0  0  0  0  0  0  0
   36.6600   28.0590   41.9960 C   0  0  0  0  0  0  0  0  0  0  0  0
   35.6290   28.3640   41.7820 H   0  0  0  0  0  0  0  0  0  0  0  0
   36.9600   27.8820   43.3170 C   0  0  0  0  0  0  0  0  0  0  0  0
   36.2150   28.0520   44.0980 H   0  0  0  0  0  0  0  0  0  0  0  0
   38.2180   27.4870   43.6460 C   0  0  0  0  0  3  0  0  0  0  0  0
   39.1570   27.2730   42.6640 C   0  0  0  0  0  3  0  0  0  0  0  0
   40.6140   27.0550   39.5060 N   0  0  0  0  0  0  0  0  0  0  0  0
   39.7920   27.2400   40.3270 C   0  0  0  0  0  0  0  0  0  0  0  0
   38.8420   34.1510   41.2730 N   0  0  0  0  0  0  0  0  0  0  0  0
   38.1320   34.9050   41.4620 H   0  0  0  0  0  0  0  0  0  0  0  0
   39.8850   34.1320   41.4130 H   0  0  0  0  0  0  0  0  0  0  0  0
  1  2  1  0  0  0  0
  2 31  1  0  0  0  0
  2  3  2  0  0  0  0
  3 13  1  0  0  0  0
  4  3  1  0  0  0  0
  5  4  2  0  0  0  0
  6  5  1  0  0  0  0
  6  1  2  0  0  0  0
  7 11  1  0  0  0  0
  7  5  1  0  0  0  0
  8  9  1  0  0  0  0
  8  7  1  0  0  0  0
  9 10  1  0  0  0  0
 10 19  1  0  0  0  0
 10 11  1  0  0  0  0
 10 18  1  0  0  0  0
 11 20  1  6  0  0  0
 11 22  1  0  0  0  0
 12  1  1  0  0  0  0
 14  8  1  0  0  0  0
 15  8  1  0  0  0  0
 16  9  1  0  0  0  0
 17  9  1  0  0  0  0
 21 28  1  0  0  0  0
 22 21  2  0  0  0  0
 22 23  1  0  0  0  0
 23 25  2  0  0  0  0
 24 23  1  0  0  0  0
 25 27  1  0  0  0  0
 25 26  1  0  0  0  0
 28 27  2  0  0  0  0
 29 30  3  0  0  0  0
 30 21  1  0  0  0  0
 31 33  1  0  0  0  0
 31 32  1  0  0  0  0
M  END
>  <minimizedAffinity>
-5.41994572

$$$$

 OpenBabel03252506323D

 33 35  0  0  1  0  0  0  0  0999 V2000
   37.3280   31.9140   38.3310 C   0  0  0  0  0  0  0  0  0  0  0  0
   37.3710   32.3420   39.6680 C   0  0  0  0  0  0  0  0  0  0  0  0
   37.7820   31.4550   40.6610 C   0  0  0  0  0  0  0  0  0  0  0  0
   38.1270   30.1930   40.2620 N   0  0  0  0  0  0  0  0  0  0  0  0
   38.0720   29.8210   38.9660 C   0  0  0  0  0  0  0  0  0  0  0  0
   37.6790   30.6550   37.9910 N   0  0  0  0  0  0  0  0  0  0  0  0
   38.4550   28.4750   38.6840 N   0  0  0  0  0  0  0  0  0  0  0  0
   38.8080   27.9940   37.3370 C   0  0  0  0  0  0  0  0  0  0  0  0
   38.2180   26.6100   37.3570 C   0  0  0  0  0  0  0  0  0  0  0  0
   37.8500   26.2980   38.7820 C   0  0  0  0  0  0  0  0  0  0  0  0
   38.5850   27.3460   39.5470 C   0  0  2  0  0  0  0  0  0  0  0  0
   37.0070   32.6090   37.5670 H   0  0  0  0  0  0  0  0  0  0  0  0
   37.8030   31.8150   41.6680 H   0  0  0  0  0  0  0  0  0  0  0  0
   39.9220   28.0030   37.3100 H   0  0  0  0  0  0  0  0  0  0  0  0
   38.3780   28.6470   36.5570 H   0  0  0  0  0  0  0  0  0  0  0  0
   37.3460   26.6270   36.6720 H   0  0  0  0  0  0  0  0  0  0  0  0
   39.0100   25.9130   37.0170 H   0  0  0  0  0  0  0  0  0  0  0  0
   36.7350   26.4600   38.8510 H   0  0  0  0  0  0  0  0  0  0  0  0
   38.1210   25.2650   39.0820 H   0  0  0  0  0  0  0  0  0  0  0  0
   39.6790   27.0410   39.4890 H   0  0  0  0  0  0  0  0  0  0  0  0
   39.1150   27.6760   41.9610 C   0  0  0  0  0  0  0  0  0  0  0  0
   38.1790   27.4830   40.9350 C   0  0  0  0  0  0  0  0  0  0  0  0
   36.8980   27.4150   41.4340 C   0  0  0  0  0  0  0  0  0  0  0  0
   36.0830   27.2510   40.7210 H   0  0  0  0  0  0  0  0  0  0  0  0
   36.5230   27.5170   42.7440 C   0  0  0  0  0  0  0  0  0  0  0  0
   35.4740   27.4510   43.0430 H   0  0  0  0  0  0  0  0  0  0  0  0
   37.4910   27.7040   43.6800 C   0  0  0  0  0  3  0  0  0  0  0  0
   38.8120   27.7870   43.3040 C   0  0  0  0  0  3  0  0  0  0  0  0
   41.6550   27.8330   41.2840 N   0  0  0  0  0  0  0  0  0  0  0  0
   40.5200   27.7670   41.5880 C   0  0  0  0  0  0  0  0  0  0  0  0
   36.9730   33.7080   39.9160 N   0  0  0  0  0  0  0  0  0  0  0  0
   36.0620   34.0890   39.5520 H   0  0  0  0  0  0  0  0  0  0  0  0
   37.7360   34.1600   40.4820 H   0  0  0  0  0  0  0  0  0  0  0  0
  1  2  1  0  0  0  0
  2 31  1  0  0  0  0
  2  3  2  0  0  0  0
  3 13  1  0  0  0  0
  4  3  1  0  0  0  0
  5  4  2  0  0  0  0
  6  1  2  0  0  0  0
  6  5  1  0  0  0  0
  7  5  1  0  0  0  0
  7 11  1  0  0  0  0
  8  9  1  0  0  0  0
  8  7  1  0  0  0  0
  9 10  1  0  0  0  0
 10 18  1  0  0  0  0
 10 19  1  0  0  0  0
 10 11  1  0  0  0  0
 11 20  1  1  0  0  0
 11 22  1  0  0  0  0
 12  1  1  0  0  0  0
 14  8  1  0  0  0  0
 15  8  1  0  0  0  0
 16  9  1  0  0  0  0
 17  9  1  0  0  0  0
 21 28  1  0  0  0  0
 22 23  1  0  0  0  0
 22 21  2  0  0  0  0
 23 25  2  0  0  0  0
 24 23  1  0  0  0  0
 25 26  1  0  0  0  0
 25 27  1  0  0  0  0
 28 27  2  0  0  0  0
 29 30  3  0  0  0  0
 30 21  1  0  0  0  0
 31 33  1  0  0  0  0
 32 31  1  0  0  0  0
M  END
>  <minimizedAffinity>
-5.13567781

$$$$

 OpenBabel03252506323D

 33 35  0  0  1  0  0  0  0  0999 V2000
   35.0770   26.8250   37.6930 C   0  0  0  0  0  0  0  0  0  0  0  0
   35.1670   28.1610   38.1180 C   0  0  0  0  0  0  0  0  0  0  0  0
   36.0410   28.4950   39.1500 C   0  0  0  0  0  0  0  0  0  0  0  0
   36.7730   27.4790   39.6980 N   0  0  0  0  0  0  0  0  0  0  0  0
   36.6570   26.2080   39.2610 C   0  0  0  0  0  0  0  0  0  0  0  0
   35.8220   25.8580   38.2690 N   0  0  0  0  0  0  0  0  0  0  0  0
   37.4740   25.2410   39.9210 N   0  0  0  0  0  0  0  0  0  0  0  0
   37.7620   23.9060   39.3690 C   0  0  0  0  0  0  0  0  0  0  0  0
   37.7570   23.0660   40.6180 C   0  0  0  0  0  0  0  0  0  0  0  0
   37.7720   24.0070   41.7930 C   0  0  0  0  0  0  0  0  0  0  0  0
   38.1630   25.3040   41.1690 C   0  0  2  0  0  0  0  0  0  0  0  0
   34.3950   26.5740   36.8910 H   0  0  0  0  0  0  0  0  0  0  0  0
   36.0850   29.5220   39.4480 H   0  0  0  0  0  0  0  0  0  0  0  0
   38.7670   23.9990   38.8980 H   0  0  0  0  0  0  0  0  0  0  0  0
   36.9950   23.6070   38.6320 H   0  0  0  0  0  0  0  0  0  0  0  0
   36.8480   22.4350   40.5720 H   0  0  0  0  0  0  0  0  0  0  0  0
   38.6900   22.4670   40.6110 H   0  0  0  0  0  0  0  0  0  0  0  0
   36.7070   24.0470   42.1630 H   0  0  0  0  0  0  0  0  0  0  0  0
   38.4620   23.6810   42.5980 H   0  0  0  0  0  0  0  0  0  0  0  0
   39.2660   25.1880   40.9150 H   0  0  0  0  0  0  0  0  0  0  0  0
   38.9040   27.5090   42.0650 C   0  0  0  0  0  0  0  0  0  0  0  0
   37.9660   26.4680   42.0130 C   0  0  0  0  0  0  0  0  0  0  0  0
   36.9110   26.7050   42.8660 C   0  0  0  0  0  0  0  0  0  0  0  0
   36.1210   25.9470   42.9180 H   0  0  0  0  0  0  0  0  0  0  0  0
   36.7430   27.7890   43.6790 C   0  0  0  0  0  0  0  0  0  0  0  0
   35.8650   27.8870   44.3230 H   0  0  0  0  0  0  0  0  0  0  0  0
   37.6970   28.7560   43.6720 C   0  0  0  0  0  3  0  0  0  0  0  0
   38.8020   28.6340   42.8620 C   0  0  0  0  0  3  0  0  0  0  0  0
   41.0390   27.3180   40.5360 N   0  0  0  0  0  0  0  0  0  0  0  0
   40.0820   27.4020   41.2160 C   0  0  0  0  0  0  0  0  0  0  0  0
   34.3230   29.1090   37.4310 N   0  0  0  0  0  0  0  0  0  0  0  0
   33.2890   28.9450   37.3180 H   0  0  0  0  0  0  0  0  0  0  0  0
   34.9360   29.9050   37.1140 H   0  0  0  0  0  0  0  0  0  0  0  0
  1  2  2  0  0  0  0
  1  6  1  0  0  0  0
  2  3  1  0  0  0  0
  3 13  1  0  0  0  0
  3  4  2  0  0  0  0
  5  4  1  0  0  0  0
  5  7  1  0  0  0  0
  6  5  2  0  0  0  0
  7 11  1  0  0  0  0
  8  7  1  0  0  0  0
  8  9  1  0  0  0  0
  9 10  1  0  0  0  0
 10 18  1  0  0  0  0
 10 19  1  0  0  0  0
 11 20  1  6  0  0  0
 11 10  1  0  0  0  0
 11 22  1  0  0  0  0
 12  1  1  0  0  0  0
 14  8  1  0  0  0  0
 15  8  1  0  0  0  0
 16  9  1  0  0  0  0
 17  9  1  0  0  0  0
 21 28  1  0  0  0  0
 22 21  2  0  0  0  0
 22 23  1  0  0  0  0
 23 24  1  0  0  0  0
 23 25  2  0  0  0  0
 25 26  1  0  0  0  0
 27 25  1  0  0  0  0
 28 27  2  0  0  0  0
 29 30  3  0  0  0  0
 30 21  1  0  0  0  0
 31  2  1  0  0  0  0
 32 31  1  0  0  0  0
 33 31  1  0  0  0  0
M  END
>  <minimizedAffinity>
-4.99724817

$$$$

 OpenBabel03252506323D

 33 35  0  0  1  0  0  0  0  0999 V2000
   42.0840   26.3460   41.8710 C   0  0  0  0  0  0  0  0  0  0  0  0
   41.9870   25.4490   40.7940 C   0  0  0  0  0  0  0  0  0  0  0  0
   40.7670   25.2920   40.1390 C   0  0  0  0  0  0  0  0  0  0  0  0
   39.7170   26.0390   40.5940 N   0  0  0  0  0  0  0  0  0  0  0  0
   39.8520   26.8910   41.6330 C   0  0  0  0  0  0  0  0  0  0  0  0
   41.0140   27.0600   42.2820 N   0  0  0  0  0  0  0  0  0  0  0  0
   38.6770   27.6070   42.0120 N   0  0  0  0  0  0  0  0  0  0  0  0
   38.6960   28.8170   42.8520 C   0  0  0  0  0  0  0  0  0  0  0  0
   37.4540   28.6200   43.6780 C   0  0  0  0  0  0  0  0  0  0  0  0
   36.6720   27.4970   43.0530 C   0  0  0  0  0  0  0  0  0  0  0  0
   37.3040   27.3670   41.7080 C   0  0  2  0  0  0  0  0  0  0  0  0
   43.0350   26.4610   42.3740 H   0  0  0  0  0  0  0  0  0  0  0  0
   40.7290   24.6000   39.3230 H   0  0  0  0  0  0  0  0  0  0  0  0
   38.6250   29.6670   42.1360 H   0  0  0  0  0  0  0  0  0  0  0  0
   39.6230   28.8690   43.4520 H   0  0  0  0  0  0  0  0  0  0  0  0
   37.7910   28.3990   44.7100 H   0  0  0  0  0  0  0  0  0  0  0  0
   36.8700   29.5590   43.6160 H   0  0  0  0  0  0  0  0  0  0  0  0
   36.8870   26.5880   43.6850 H   0  0  0  0  0  0  0  0  0  0  0  0
   35.5820   27.7020   43.0080 H   0  0  0  0  0  0  0  0  0  0  0  0
   36.9540   28.2810   41.1280 H   0  0  0  0  0  0  0  0  0  0  0  0
   36.5780   26.1850   39.6370 C   0  0  0  0  0  0  0  0  0  0  0  0
   36.9530   26.1560   40.9870 C   0  0  0  0  0  0  0  0  0  0  0  0
   36.9070   24.8760   41.4910 C   0  0  0  0  0  0  0  0  0  0  0  0
   37.1680   24.7350   42.5460 H   0  0  0  0  0  0  0  0  0  0  0  0
   36.5500   23.7420   40.8160 C   0  0  0  0  0  0  0  0  0  0  0  0
   36.5450   22.7660   41.3060 H   0  0  0  0  0  0  0  0  0  0  0  0
   36.1990   23.8530   39.5080 C   0  0  0  0  0  3  0  0  0  0  0  0
   36.2050   25.0830   38.8900 C   0  0  0  0  0  3  0  0  0  0  0  0
   36.5810   28.5150   38.4100 N   0  0  0  0  0  0  0  0  0  0  0  0
   36.5760   27.4750   38.9610 C   0  0  0  0  0  0  0  0  0  0  0  0
   43.1940   24.7390   40.4420 N   0  0  0  0  0  0  0  0  0  0  0  0
   43.7540   24.2160   41.1630 H   0  0  0  0  0  0  0  0  0  0  0  0
   43.3440   24.8670   39.4080 H   0  0  0  0  0  0  0  0  0  0  0  0
  1  6  1  0  0  0  0
  1 12  1  0  0  0  0
  2  1  2  0  0  0  0
  3  4  2  0  0  0  0
  3  2  1  0  0  0  0
  4  5  1  0  0  0  0
  5  7  1  0  0  0  0
  5  6  2  0  0  0  0
  7  8  1  0  0  0  0
  8 15  1  0  0  0  0
  8  9  1  0  0  0  0
  9 16  1  0  0  0  0
 10  9  1  0  0  0  0
 10 18  1  0  0  0  0
 11 20  1  6  0  0  0
 11  7  1  0  0  0  0
 11 10  1  0  0  0  0
 13  3  1  0  0  0  0
 14  8  1  0  0  0  0
 17  9  1  0  0  0  0
 19 10  1  0  0  0  0
 21 22  1  0  0  0  0
 22 23  2  0  0  0  0
 22 11  1  0  0  0  0
 23 24  1  0  0  0  0
 25 26  1  0  0  0  0
 25 23  1  0  0  0  0
 27 25  2  0  0  0  0
 28 27  1  0  0  0  0
 28 21  2  0  0  0  0
 29 30  3  0  0  0  0
 30 21  1  0  0  0  0
 31  2  1  0  0  0  0
 31 32  1  0  0  0  0
 33 31  1  0  0  0  0
M  END
>  <minimizedAffinity>
-4.96677113

$$$$

 OpenBabel03252506323D

 33 35  0  0  1  0  0  0  0  0999 V2000
   38.3500   31.9500   37.1370 C   0  0  0  0  0  0  0  0  0  0  0  0
   39.6450   31.7760   37.6540 C   0  0  0  0  0  0  0  0  0  0  0  0
   39.8760   30.7860   38.6070 C   0  0  0  0  0  0  0  0  0  0  0  0
   38.8040   30.0290   38.9890 N   0  0  0  0  0  0  0  0  0  0  0  0
   37.5750   30.2290   38.4680 C   0  0  0  0  0  0  0  0  0  0  0  0
   37.3250   31.1750   37.5500 N   0  0  0  0  0  0  0  0  0  0  0  0
   36.5410   29.3740   38.9550 N   0  0  0  0  0  0  0  0  0  0  0  0
   35.2500   29.1860   38.2720 C   0  0  0  0  0  0  0  0  0  0  0  0
   34.3110   29.0800   39.4430 C   0  0  0  0  0  0  0  0  0  0  0  0
   35.1520   28.9110   40.6800 C   0  0  0  0  0  0  0  0  0  0  0  0
   36.4880   28.5520   40.1210 C   0  0  2  0  0  0  0  0  0  0  0  0
   38.1800   32.7210   36.3980 H   0  0  0  0  0  0  0  0  0  0  0  0
   40.8740   30.6810   38.9790 H   0  0  0  0  0  0  0  0  0  0  0  0
   35.3610   28.2350   37.7020 H   0  0  0  0  0  0  0  0  0  0  0  0
   35.0280   30.0360   37.6020 H   0  0  0  0  0  0  0  0  0  0  0  0
   33.7040   30.0070   39.4480 H   0  0  0  0  0  0  0  0  0  0  0  0
   33.6960   28.1720   39.2860 H   0  0  0  0  0  0  0  0  0  0  0  0
   35.1830   29.9280   41.1670 H   0  0  0  0  0  0  0  0  0  0  0  0
   34.7480   28.1480   41.3760 H   0  0  0  0  0  0  0  0  0  0  0  0
   36.3710   27.4870   39.7390 H   0  0  0  0  0  0  0  0  0  0  0  0
   38.5670   27.6270   41.1380 C   0  0  0  0  0  0  0  0  0  0  0  0
   37.5830   28.6230   41.0720 C   0  0  0  0  0  0  0  0  0  0  0  0
   37.7970   29.5990   42.0180 C   0  0  0  0  0  0  0  0  0  0  0  0
   37.0770   30.4250   42.0680 H   0  0  0  0  0  0  0  0  0  0  0  0
   38.8140   29.6480   42.9290 C   0  0  0  0  0  0  0  0  0  0  0  0
   38.8980   30.4710   43.6440 H   0  0  0  0  0  0  0  0  0  0  0  0
   39.7290   28.6440   42.9300 C   0  0  0  0  0  3  0  0  0  0  0  0
   39.6230   27.6090   42.0300 C   0  0  0  0  0  3  0  0  0  0  0  0
   38.4080   25.6230   39.4380 N   0  0  0  0  0  0  0  0  0  0  0  0
   38.4760   26.5210   40.1960 C   0  0  0  0  0  0  0  0  0  0  0  0
   40.6630   32.6610   37.1410 N   0  0  0  0  0  0  0  0  0  0  0  0
   40.5300   33.7050   37.1300 H   0  0  0  0  0  0  0  0  0  0  0  0
   41.4690   32.0630   36.8230 H   0  0  0  0  0  0  0  0  0  0  0  0
  1  6  2  0  0  0  0
  1  2  1  0  0  0  0
  2  3  2  0  0  0  0
  3 13  1  0  0  0  0
  3  4  1  0  0  0  0
  5  7  1  0  0  0  0
  5  4  2  0  0  0  0
  6  5  1  0  0  0  0
  7 11  1  0  0  0  0
  8  7  1  0  0  0  0
  8  9  1  0  0  0  0
  9 16  1  0  0  0  0
  9 10  1  0  0  0  0
 10 18  1  0  0  0  0
 10 19  1  0  0  0  0
 11 20  1  6  0  0  0
 11 10  1  0  0  0  0
 11 22  1  0  0  0  0
 12  1  1  0  0  0  0
 14  8  1  0  0  0  0
 15  8  1  0  0  0  0
 17  9  1  0  0  0  0
 21 28  1  0  0  0  0
 22 21  2  0  0  0  0
 22 23  1  0  0  0  0
 23 24  1  0  0  0  0
 23 25  2  0  0  0  0
 25 27  1  0  0  0  0
 25 26  1  0  0  0  0
 28 27  2  0  0  0  0
 29 30  3  0  0  0  0
 30 21  1  0  0  0  0
 31  2  1  0  0  0  0
 32 31  1  0  0  0  0
 33 31  1  0  0  0  0
M  END
>  <minimizedAffinity>
-4.95211887

$$$$

 OpenBabel03252506323D

 33 35  0  0  1  0  0  0  0  0999 V2000
   40.5810   28.8720   37.2940 C   0  0  0  0  0  0  0  0  0  0  0  0
   40.4300   27.6260   37.9250 C   0  0  0  0  0  0  0  0  0  0  0  0
   39.4700   27.4750   38.9240 C   0  0  0  0  0  0  0  0  0  0  0  0
   38.7190   28.5730   39.2350 N   0  0  0  0  0  0  0  0  0  0  0  0
   38.8970   29.7540   38.6050 C   0  0  0  0  0  0  0  0  0  0  0  0
   39.8130   29.9270   37.6400 N   0  0  0  0  0  0  0  0  0  0  0  0
   38.0510   30.8240   39.0270 N   0  0  0  0  0  0  0  0  0  0  0  0
   37.8350   32.0500   38.2410 C   0  0  0  0  0  0  0  0  0  0  0  0
   37.7590   33.0860   39.3300 C   0  0  0  0  0  0  0  0  0  0  0  0
   37.6320   32.3540   40.6390 C   0  0  0  0  0  0  0  0  0  0  0  0
   37.2640   30.9740   40.2080 C   0  0  2  0  0  0  0  0  0  0  0  0
   41.3290   28.9800   36.5190 H   0  0  0  0  0  0  0  0  0  0  0  0
   39.3820   26.5120   39.3830 H   0  0  0  0  0  0  0  0  0  0  0  0
   36.8680   31.8880   37.7120 H   0  0  0  0  0  0  0  0  0  0  0  0
   38.6630   32.2160   37.5290 H   0  0  0  0  0  0  0  0  0  0  0  0
   38.6830   33.6940   39.2550 H   0  0  0  0  0  0  0  0  0  0  0  0
   36.8430   33.6820   39.1480 H   0  0  0  0  0  0  0  0  0  0  0  0
   38.6640   32.3680   41.0960 H   0  0  0  0  0  0  0  0  0  0  0  0
   36.8890   32.8140   41.3210 H   0  0  0  0  0  0  0  0  0  0  0  0
   36.1880   31.0550   39.8510 H   0  0  0  0  0  0  0  0  0  0  0  0
   36.3920   28.9740   41.4140 C   0  0  0  0  0  0  0  0  0  0  0  0
   37.3700   29.9650   41.2470 C   0  0  0  0  0  0  0  0  0  0  0  0
   38.3650   29.8480   42.1910 C   0  0  0  0  0  0  0  0  0  0  0  0
   39.1790   30.5820   42.1650 H   0  0  0  0  0  0  0  0  0  0  0  0
   38.4470   28.9130   43.1840 C   0  0  0  0  0  0  0  0  0  0  0  0
   39.2820   28.9030   43.8880 H   0  0  0  0  0  0  0  0  0  0  0  0
   37.4590   27.9860   43.2800 C   0  0  0  0  0  3  0  0  0  0  0  0
   36.4070   27.9990   42.3930 C   0  0  0  0  0  3  0  0  0  0  0  0
   34.3660   28.9630   39.7330 N   0  0  0  0  0  0  0  0  0  0  0  0
   35.2690   28.9680   40.4880 C   0  0  0  0  0  0  0  0  0  0  0  0
   41.3050   26.5700   37.4740 N   0  0  0  0  0  0  0  0  0  0  0  0
   42.3470   26.7050   37.4200 H   0  0  0  0  0  0  0  0  0  0  0  0
   40.7020   25.7370   37.2450 H   0  0  0  0  0  0  0  0  0  0  0  0
  1  6  2  0  0  0  0
  1  2  1  0  0  0  0
  2  3  2  0  0  0  0
  3  4  1  0  0  0  0
  3 13  1  0  0  0  0
  5  7  1  0  0  0  0
  5  4  2  0  0  0  0
  6  5  1  0  0  0  0
  7 11  1  0  0  0  0
  8  7  1  0  0  0  0
  8  9  1  0  0  0  0
  9 10  1  0  0  0  0
 10 18  1  0  0  0  0
 10 19  1  0  0  0  0
 11 20  1  6  0  0  0
 11 10  1  0  0  0  0
 11 22  1  0  0  0  0
 12  1  1  0  0  0  0
 14  8  1  0  0  0  0
 15  8  1  0  0  0  0
 16  9  1  0  0  0  0
 17  9  1  0  0  0  0
 21 28  1  0  0  0  0
 22 21  2  0  0  0  0
 22 23  1  0  0  0  0
 23 25  2  0  0  0  0
 24 23  1  0  0  0  0
 25 27  1  0  0  0  0
 25 26  1  0  0  0  0
 28 27  2  0  0  0  0
 29 30  3  0  0  0  0
 30 21  1  0  0  0  0
 31  2  1  0  0  0  0
 32 31  1  0  0  0  0
 33 31  1  0  0  0  0
M  END
>  <minimizedAffinity>
-4.81506252

$$$$

 OpenBabel03252506323D

 33 35  0  0  1  0  0  0  0  0999 V2000
   39.4070   26.9300   37.1010 C   0  0  0  0  0  0  0  0  0  0  0  0
   39.6530   28.1440   37.7660 C   0  0  0  0  0  0  0  0  0  0  0  0
   39.6090   28.1840   39.1580 C   0  0  0  0  0  0  0  0  0  0  0  0
   39.3240   27.0150   39.8060 N   0  0  0  0  0  0  0  0  0  0  0  0
   39.0940   25.8700   39.1290 C   0  0  0  0  0  0  0  0  0  0  0  0
   39.1280   25.8030   37.7890 N   0  0  0  0  0  0  0  0  0  0  0  0
   38.8030   24.7200   39.9240 N   0  0  0  0  0  0  0  0  0  0  0  0
   38.8820   23.3390   39.4180 C   0  0  0  0  0  0  0  0  0  0  0  0
   37.7150   22.7020   40.1220 C   0  0  0  0  0  0  0  0  0  0  0  0
   37.2530   23.6610   41.1860 C   0  0  0  0  0  0  0  0  0  0  0  0
   38.3970   24.6130   41.2880 C   0  0  2  0  0  0  0  0  0  0  0  0
   39.4420   26.9080   36.0200 H   0  0  0  0  0  0  0  0  0  0  0  0
   39.8020   29.1250   39.6310 H   0  0  0  0  0  0  0  0  0  0  0  0
   39.8720   22.9610   39.7640 H   0  0  0  0  0  0  0  0  0  0  0  0
   38.8020   23.3150   38.3170 H   0  0  0  0  0  0  0  0  0  0  0  0
   36.9470   22.5030   39.3480 H   0  0  0  0  0  0  0  0  0  0  0  0
   38.0890   21.7730   40.5970 H   0  0  0  0  0  0  0  0  0  0  0  0
   36.3440   24.1740   40.7590 H   0  0  0  0  0  0  0  0  0  0  0  0
   37.0130   23.1590   42.1460 H   0  0  0  0  0  0  0  0  0  0  0  0
   39.2220   24.0270   41.8070 H   0  0  0  0  0  0  0  0  0  0  0  0
   39.0360   26.3840   42.9220 C   0  0  0  0  0  0  0  0  0  0  0  0
   38.1110   25.8300   42.0260 C   0  0  0  0  0  0  0  0  0  0  0  0
   36.9490   26.5680   41.9880 C   0  0  0  0  0  0  0  0  0  0  0  0
   36.1460   26.2190   41.3290 H   0  0  0  0  0  0  0  0  0  0  0  0
   36.6730   27.6980   42.7050 C   0  0  0  0  0  0  0  0  0  0  0  0
   35.7160   28.2160   42.6050 H   0  0  0  0  0  0  0  0  0  0  0  0
   37.6230   28.1720   43.5530 C   0  0  0  0  0  3  0  0  0  0  0  0
   38.8280   27.5210   43.6800 C   0  0  0  0  0  3  0  0  0  0  0  0
   41.3590   25.1750   43.1970 N   0  0  0  0  0  0  0  0  0  0  0  0
   40.3190   25.7110   43.0730 C   0  0  0  0  0  0  0  0  0  0  0  0
   39.9390   29.2850   36.9300 N   0  0  0  0  0  0  0  0  0  0  0  0
   39.3090   29.5530   36.1310 H   0  0  0  0  0  0  0  0  0  0  0  0
   40.8290   29.7200   37.2850 H   0  0  0  0  0  0  0  0  0  0  0  0
  1  2  2  0  0  0  0
  1  6  1  0  0  0  0
  2  3  1  0  0  0  0
  3 13  1  0  0  0  0
  3  4  2  0  0  0  0
  5  4  1  0  0  0  0
  5  7  1  0  0  0  0
  6  5  2  0  0  0  0
  7 11  1  0  0  0  0
  8 14  1  0  0  0  0
  8  7  1  0  0  0  0
  8  9  1  0  0  0  0
  9 17  1  0  0  0  0
  9 10  1  0  0  0  0
 10 11  1  0  0  0  0
 10 19  1  0  0  0  0
 11 20  1  1  0  0  0
 11 22  1  0  0  0  0
 12  1  1  0  0  0  0
 15  8  1  0  0  0  0
 16  9  1  0  0  0  0
 18 10  1  0  0  0  0
 21 30  1  0  0  0  0
 21 28  1  0  0  0  0
 22 21  2  0  0  0  0
 23 22  1  0  0  0  0
 23 25  2  0  0  0  0
 24 23  1  0  0  0  0
 25 27  1  0  0  0  0
 26 25  1  0  0  0  0
 27 28  2  0  0  0  0
 30 29  3  0  0  0  0
 31 33  1  0  0  0  0
 31  2  1  0  0  0  0
 32 31  1  0  0  0  0
M  END
>  <minimizedAffinity>
-4.81169748

$$$$

 OpenBabel03252506323D

 33 35  0  0  1  0  0  0  0  0999 V2000
   39.7100   31.0380   38.0220 C   0  0  0  0  0  0  0  0  0  0  0  0
   40.6690   30.5360   38.9170 C   0  0  0  0  0  0  0  0  0  0  0  0
   40.3110   29.5320   39.8140 C   0  0  0  0  0  0  0  0  0  0  0  0
   39.0200   29.0860   39.7660 N   0  0  0  0  0  0  0  0  0  0  0  0
   38.1280   29.5960   38.8890 C   0  0  0  0  0  0  0  0  0  0  0  0
   38.4460   30.5630   38.0160 N   0  0  0  0  0  0  0  0  0  0  0  0
   36.8110   29.0470   38.9450 N   0  0  0  0  0  0  0  0  0  0  0  0
   35.8210   29.1960   37.8650 C   0  0  0  0  0  0  0  0  0  0  0  0
   34.5490   29.3540   38.6540 C   0  0  0  0  0  0  0  0  0  0  0  0
   34.8560   28.9850   40.0800 C   0  0  0  0  0  0  0  0  0  0  0  0
   36.1660   28.2820   39.9620 C   0  0  2  0  0  0  0  0  0  0  0  0
   39.9970   31.8180   37.3290 H   0  0  0  0  0  0  0  0  0  0  0  0
   41.0670   29.1730   40.4820 H   0  0  0  0  0  0  0  0  0  0  0  0
   35.8740   28.2430   37.2910 H   0  0  0  0  0  0  0  0  0  0  0  0
   36.0570   30.0670   37.2270 H   0  0  0  0  0  0  0  0  0  0  0  0
   34.2290   30.4080   38.5320 H   0  0  0  0  0  0  0  0  0  0  0  0
   33.8160   28.6370   38.2350 H   0  0  0  0  0  0  0  0  0  0  0  0
   34.9760   29.9640   40.6280 H   0  0  0  0  0  0  0  0  0  0  0  0
   34.0640   28.3630   40.5460 H   0  0  0  0  0  0  0  0  0  0  0  0
   35.9210   27.2800   39.4820 H   0  0  0  0  0  0  0  0  0  0  0  0
   37.4090   26.8310   41.5640 C   0  0  0  0  0  0  0  0  0  0  0  0
   36.8600   28.0740   41.2210 C   0  0  0  0  0  0  0  0  0  0  0  0
   37.0480   28.9970   42.2250 C   0  0  0  0  0  0  0  0  0  0  0  0
   36.6450   30.0050   42.0720 H   0  0  0  0  0  0  0  0  0  0  0  0
   37.6780   28.7900   43.4200 C   0  0  0  0  0  0  0  0  0  0  0  0
   37.7780   29.5910   44.1570 H   0  0  0  0  0  0  0  0  0  0  0  0
   38.1840   27.5560   43.6770 C   0  0  0  0  0  3  0  0  0  0  0  0
   38.0580   26.5470   42.7500 C   0  0  0  0  0  3  0  0  0  0  0  0
   37.1950   24.8770   39.8120 N   0  0  0  0  0  0  0  0  0  0  0  0
   37.2890   25.7480   40.5980 C   0  0  0  0  0  0  0  0  0  0  0  0
   41.9880   31.1170   38.8350 N   0  0  0  0  0  0  0  0  0  0  0  0
   42.1320   32.1600   38.8620 H   0  0  0  0  0  0  0  0  0  0  0  0
   42.6770   30.3250   38.7520 H   0  0  0  0  0  0  0  0  0  0  0  0
  1  2  1  0  0  0  0
  2  3  2  0  0  0  0
  3 13  1  0  0  0  0
  4  3  1  0  0  0  0
  5  7  1  0  0  0  0
  5  4  2  0  0  0  0
  6  1  2  0  0  0  0
  6  5  1  0  0  0  0
  7 11  1  0  0  0  0
  8  9  1  0  0  0  0
  8  7  1  0  0  0  0
  9 10  1  0  0  0  0
 10 19  1  0  0  0  0
 10 18  1  0  0  0  0
 11 20  1  6  0  0  0
 11 10  1  0  0  0  0
 11 22  1  0  0  0  0
 12  1  1  0  0  0  0
 14  8  1  0  0  0  0
 15  8  1  0  0  0  0
 16  9  1  0  0  0  0
 17  9  1  0  0  0  0
 21 28  1  0  0  0  0
 22 21  2  0  0  0  0
 22 23  1  0  0  0  0
 23 25  2  0  0  0  0
 24 23  1  0  0  0  0
 25 27  1  0  0  0  0
 25 26  1  0  0  0  0
 28 27  2  0  0  0  0
 29 30  3  0  0  0  0
 30 21  1  0  0  0  0
 31 32  1  0  0  0  0
 31  2  1  0  0  0  0
 33 31  1  0  0  0  0
M  END
>  <minimizedAffinity>
-4.80198526

$$$$

 OpenBabel03252506323D

 33 35  0  0  1  0  0  0  0  0999 V2000
   40.9940   30.1820   37.5950 C   0  0  0  0  0  0  0  0  0  0  0  0
   40.0030   31.1770   37.6180 C   0  0  0  0  0  0  0  0  0  0  0  0
   38.8050   30.9370   38.2890 C   0  0  0  0  0  0  0  0  0  0  0  0
   38.6660   29.7210   38.8980 N   0  0  0  0  0  0  0  0  0  0  0  0
   39.6440   28.7920   38.8520 C   0  0  0  0  0  0  0  0  0  0  0  0
   40.8060   28.9960   38.2120 N   0  0  0  0  0  0  0  0  0  0  0  0
   39.3710   27.5620   39.5240 N   0  0  0  0  0  0  0  0  0  0  0  0
   40.4120   26.5890   39.8970 C   0  0  0  0  0  0  0  0  0  0  0  0
   39.6980   25.2880   39.6540 C   0  0  0  0  0  0  0  0  0  0  0  0
   38.2390   25.6050   39.4600 C   0  0  0  0  0  0  0  0  0  0  0  0
   38.1370   27.0020   39.9710 C   0  0  2  0  0  0  0  0  0  0  0  0
   41.9210   30.3760   37.0710 H   0  0  0  0  0  0  0  0  0  0  0  0
   38.0720   31.7170   38.2860 H   0  0  0  0  0  0  0  0  0  0  0  0
   40.6220   26.7890   40.9730 H   0  0  0  0  0  0  0  0  0  0  0  0
   41.3180   26.7200   39.2770 H   0  0  0  0  0  0  0  0  0  0  0  0
   40.1690   24.8290   38.7630 H   0  0  0  0  0  0  0  0  0  0  0  0
   39.8250   24.6720   40.5660 H   0  0  0  0  0  0  0  0  0  0  0  0
   38.0670   25.5740   38.3450 H   0  0  0  0  0  0  0  0  0  0  0  0
   37.5690   24.8950   39.9860 H   0  0  0  0  0  0  0  0  0  0  0  0
   38.2350   26.9100   41.1010 H   0  0  0  0  0  0  0  0  0  0  0  0
   36.2510   28.5290   40.5430 C   0  0  0  0  0  0  0  0  0  0  0  0
   36.9010   27.6850   39.6320 C   0  0  0  0  0  0  0  0  0  0  0  0
   36.2000   27.5920   38.4510 C   0  0  0  0  0  0  0  0  0  0  0  0
   36.6090   26.9440   37.6670 H   0  0  0  0  0  0  0  0  0  0  0  0
   35.0230   28.2140   38.1460 C   0  0  0  0  0  0  0  0  0  0  0  0
   34.5420   28.0760   37.1740 H   0  0  0  0  0  0  0  0  0  0  0  0
   34.4560   29.0170   39.0830 C   0  0  0  0  0  3  0  0  0  0  0  0
   35.0610   29.1910   40.3060 C   0  0  0  0  0  3  0  0  0  0  0  0
   37.3740   28.8820   42.8990 N   0  0  0  0  0  0  0  0  0  0  0  0
   36.8730   28.7280   41.8450 C   0  0  0  0  0  0  0  0  0  0  0  0
   40.3120   32.4040   36.9240 N   0  0  0  0  0  0  0  0  0  0  0  0
   40.6510   32.4020   35.9270 H   0  0  0  0  0  0  0  0  0  0  0  0
   40.1320   33.1980   37.5920 H   0  0  0  0  0  0  0  0  0  0  0  0
  1  2  2  0  0  0  0
  1  6  1  0  0  0  0
  2  3  1  0  0  0  0
  3  4  2  0  0  0  0
  5  4  1  0  0  0  0
  5  7  1  0  0  0  0
  6  5  2  0  0  0  0
  7  8  1  0  0  0  0
  7 11  1  0  0  0  0
  8 14  1  0  0  0  0
  9  8  1  0  0  0  0
  9 17  1  0  0  0  0
 10  9  1  0  0  0  0
 10 11  1  0  0  0  0
 10 19  1  0  0  0  0
 11 20  1  1  0  0  0
 12  1  1  0  0  0  0
 13  3  1  0  0  0  0
 15  8  1  0  0  0  0
 16  9  1  0  0  0  0
 18 10  1  0  0  0  0
 21 30  1  0  0  0  0
 22 11  1  0  0  0  0
 22 21  2  0  0  0  0
 23 22  1  0  0  0  0
 24 23  1  0  0  0  0
 25 23  2  0  0  0  0
 25 27  1  0  0  0  0
 26 25  1  0  0  0  0
 27 28  2  0  0  0  0
 28 21  1  0  0  0  0
 30 29  3  0  0  0  0
 31 33  1  0  0  0  0
 31  2  1  0  0  0  0
 32 31  1  0  0  0  0
M  END
>  <minimizedAffinity>
-4.7807126

$$$$
