
 OpenBabel03252509083D

 42 45  0  0  0  0  0  0  0  0999 V2000
   47.5910   31.8280   38.9160 C   0  0  0  0  0  0  0  0  0  0  0  0
   47.1600   33.1210   38.9300 C   0  0  0  0  0  0  0  0  0  0  0  0
   47.8060   34.0650   38.1510 C   0  0  0  0  0  0  0  0  0  0  0  0
   48.8720   33.7220   37.3660 C   0  0  0  0  0  0  0  0  0  0  0  0
   49.3450   32.4180   37.3210 C   0  0  0  0  0  0  0  0  0  0  0  0
   48.6830   31.4780   38.1120 C   0  0  0  0  0  0  0  0  0  0  0  0
   47.4790   35.0970   38.1460 H   0  0  0  0  0  0  0  0  0  0  0  0
   49.4070   34.4030   36.7470 H   0  0  0  0  0  0  0  0  0  0  0  0
   50.1620   32.0650   36.7430 H   0  0  0  0  0  0  0  0  0  0  0  0
   49.0230   30.4530   38.1020 H   0  0  0  0  0  0  0  0  0  0  0  0
   45.3610   35.3160   43.2450 Cl  0  0  0  0  0  0  0  0  0  0  0  0
   45.1810   34.5750   41.6730 C   0  0  0  0  0  0  0  0  0  0  0  0
   46.2620   34.1640   40.9640 C   0  0  0  0  0  0  0  0  0  0  0  0
   46.0290   33.5980   39.7210 C   0  0  0  0  0  0  0  0  0  0  0  0
   44.7700   33.4610   39.2290 C   0  0  0  0  0  0  0  0  0  0  0  0
   43.6870   33.8690   39.9340 C   0  0  0  0  0  0  0  0  0  0  0  0
   43.9060   34.4320   41.1740 C   0  0  0  0  0  0  0  0  0  0  0  0
   44.6370   33.0120   38.2440 H   0  0  0  0  0  0  0  0  0  0  0  0
   42.6930   33.7470   39.5180 H   0  0  0  0  0  0  0  0  0  0  0  0
   43.0270   34.7530   41.7290 H   0  0  0  0  0  0  0  0  0  0  0  0
   49.5850   35.7010   41.9360 C   0  0  0  0  0  0  0  0  0  0  0  0
   48.3070   35.5360   41.3930 C   0  0  0  0  0  0  0  0  0  0  0  0
   47.5990   34.3500   41.5250 C   0  0  0  0  0  0  0  0  0  0  0  0
   48.2390   33.3970   42.2070 N   0  0  0  0  0  0  0  0  0  0  0  0
   49.4620   33.5410   42.7320 C   0  0  0  0  0  0  0  0  0  0  0  0
   50.1310   34.6860   42.5980 N   0  0  0  0  0  0  0  0  0  0  0  0
   50.1030   36.6420   41.8100 H   0  0  0  0  0  0  0  0  0  0  0  0
   47.8680   36.3620   40.8580 H   0  0  0  0  0  0  0  0  0  0  0  0
   49.7680   32.6240   43.2400 H   0  0  0  0  0  0  0  0  0  0  0  0
   46.8960   30.6400   39.8980 S   0  0  0  0  0  0  0  0  0  0  0  0
   47.3150   29.2460   39.3170 O   0  0  0  0  0  0  0  0  0  0  0  0
   47.5840   30.6830   41.2300 O   0  0  0  0  0  0  0  0  0  0  0  0
   44.3460   30.0780   38.9230 C   0  0  0  0  0  0  0  0  0  0  0  0
   45.2150   30.3090   40.0180 C   0  0  0  0  0  0  0  0  0  0  0  0
   44.4960   30.2220   41.2040 C   0  0  0  0  0  0  0  0  0  0  0  0
   45.0240   30.3560   42.1350 H   0  0  0  0  0  0  0  0  0  0  0  0
   43.1540   29.9590   41.3650 C   0  0  0  0  0  0  0  0  0  0  0  0
   42.6840   29.9130   42.3370 H   0  0  0  0  0  0  0  0  0  0  0  0
   42.4410   29.7590   40.2030 C   0  0  0  0  0  3  0  0  0  0  0  0
   42.9980   29.8080   38.9450 C   0  0  0  0  0  3  0  0  0  0  0  0
   45.4590   30.0810   36.5310 N   0  0  0  0  0  0  0  0  0  0  0  0
   44.9590   30.0770   37.5970 C   0  0  0  0  0  0  0  0  0  0  0  0
  1  2  1  0  0  0  0
  1 30  1  0  0  0  0
  2 14  1  0  0  0  0
  3  2  2  0  0  0  0
  4  3  1  0  0  0  0
  5  4  2  0  0  0  0
  5  6  1  0  0  0  0
  6  1  2  0  0  0  0
  7  3  1  0  0  0  0
  8  4  1  0  0  0  0
  9  5  1  0  0  0  0
 10  6  1  0  0  0  0
 12 11  1  0  0  0  0
 13 23  1  0  0  0  0
 13 12  2  0  0  0  0
 14 13  1  0  0  0  0
 15 14  2  0  0  0  0
 15 16  1  0  0  0  0
 16 17  2  0  0  0  0
 17 12  1  0  0  0  0
 17 20  1  0  0  0  0
 18 15  1  0  0  0  0
 19 16  1  0  0  0  0
 21 26  1  0  0  0  0
 22 23  1  0  0  0  0
 22 21  2  0  0  0  0
 23 24  2  0  0  0  0
 24 25  1  0  0  0  0
 25 29  1  0  0  0  0
 26 25  2  0  0  0  0
 27 21  1  0  0  0  0
 28 22  1  0  0  0  0
 30 34  1  0  0  0  0
 30 32  2  0  0  0  0
 31 30  2  0  0  0  0
 33 40  2  0  0  0  0
 33 34  1  0  0  0  0
 34 35  2  0  0  0  0
 35 37  1  0  0  0  0
 35 36  1  0  0  0  0
 37 38  1  0  0  0  0
 39 37  2  0  0  0  0
 40 39  1  0  0  0  0
 41 42  3  0  0  0  0
 42 33  1  0  0  0  0
M  END
>  <minimizedAffinity>
-4.49441576

>  <minimizedRMSD>
1.13443899

$$$$
