
 OpenBabel03252506463D

 43 46  0  0  1  0  0  0  0  0999 V2000
   49.2460   33.2110   41.4750 N   0  0  1  0  0  0  0  0  0  0  0  0
   50.5920   33.1250   41.9740 C   0  0  0  0  0  0  0  0  0  0  0  0
   51.2630   31.8020   41.7270 C   0  0  0  0  0  0  0  0  0  0  0  0
   50.5370   30.7190   42.4810 C   0  0  0  0  0  0  0  0  0  0  0  0
   49.0660   31.0080   42.5570 C   0  0  0  0  0  0  0  0  0  0  0  0
   48.6710   31.8840   41.3840 C   0  0  2  0  0  0  0  0  0  0  0  0
   50.6280   33.3410   43.0540 H   0  0  0  0  0  0  0  0  0  0  0  0
   51.2020   33.9400   41.4930 H   0  0  0  0  0  0  0  0  0  0  0  0
   51.4900   31.5900   40.6890 H   0  0  0  0  0  0  0  0  0  0  0  0
   52.2630   31.9020   42.2670 H   0  0  0  0  0  0  0  0  0  0  0  0
   50.9160   30.6360   43.5250 H   0  0  0  0  0  0  0  0  0  0  0  0
   50.7600   29.7450   42.0010 H   0  0  0  0  0  0  0  0  0  0  0  0
   48.8320   31.6520   43.4670 H   0  0  0  0  0  0  0  0  0  0  0  0
   48.4410   30.1300   42.5770 H   0  0  0  0  0  0  0  0  0  0  0  0
   47.5700   32.0210   41.4780 H   0  0  0  0  0  0  0  0  0  0  0  0
   47.1260   34.5520   42.0370 C   0  0  1  0  0  0  0  0  0  0  0  0
   48.2470   35.4640   41.7130 C   0  0  0  0  0  0  0  0  0  0  0  0
   48.5300   34.1270   42.2720 C   0  0  2  0  0  0  0  0  0  0  0  0
   46.6050   34.1330   41.1320 H   0  0  0  0  0  0  0  0  0  0  0  0
   48.4810   35.6930   40.6590 H   0  0  0  0  0  0  0  0  0  0  0  0
   48.3940   36.3270   42.3870 H   0  0  0  0  0  0  0  0  0  0  0  0
   48.7880   34.0680   43.3720 H   0  0  0  0  0  0  0  0  0  0  0  0
   45.4750   36.0410   43.2060 C   0  0  0  0  0  0  0  0  0  0  0  0
   46.2480   34.8740   43.1620 C   0  0  0  0  0  0  0  0  0  0  0  0
   46.1310   33.9890   44.2580 C   0  0  0  0  0  0  0  0  0  0  0  0
   45.2920   34.3180   45.2710 N   0  0  0  0  0  0  0  0  0  0  0  0
   44.5660   35.4430   45.2810 C   0  0  0  0  0  0  0  0  0  0  0  0
   44.6500   36.3270   44.2400 N   0  0  0  0  0  0  0  0  0  0  0  0
   45.5280   36.7500   42.3940 H   0  0  0  0  0  0  0  0  0  0  0  0
   46.7040   33.0780   44.2740 H   0  0  0  0  0  0  0  0  0  0  0  0
   43.9410   35.5620   46.1620 H   0  0  0  0  0  0  0  0  0  0  0  0
   48.9260   31.2300   40.1400 N   0  0  0  0  0  0  0  0  0  0  0  0
   49.0230   30.1850   40.3330 H   0  0  0  0  0  0  0  0  0  0  0  0
   48.2700   32.0890   37.8880 C   0  0  0  0  0  0  0  0  0  0  0  0
   49.1300   31.4140   38.7650 C   0  0  0  0  0  0  0  0  0  0  0  0
   50.2760   30.8480   38.2440 C   0  0  0  0  0  0  0  0  0  0  0  0
   51.0660   30.2800   38.7150 H   0  0  0  0  0  0  0  0  0  0  0  0
   50.6100   30.9190   36.9010 C   0  0  0  0  0  0  0  0  0  0  0  0
   51.4630   30.5260   36.3770 H   0  0  0  0  0  0  0  0  0  0  0  0
   49.7520   31.5860   36.0600 C   0  0  0  0  0  3  0  0  0  0  0  0
   48.6070   32.1530   36.5620 C   0  0  0  0  0  3  0  0  0  0  0  0
   46.1190   33.1190   38.9070 N   0  0  0  0  0  0  0  0  0  0  0  0
   47.0820   32.6690   38.4510 C   0  0  0  0  0  0  0  0  0  0  0  0
  1  2  1  1  0  0  0
  1 18  1  0  0  0  0
  2  7  1  0  0  0  0
  3  2  1  0  0  0  0
  3 10  1  0  0  0  0
  3  4  1  0  0  0  0
  4  5  1  0  0  0  0
  4 11  1  0  0  0  0
  5 14  1  0  0  0  0
  5 13  1  0  0  0  0
  6  1  1  0  0  0  0
  6 15  1  1  0  0  0
  6  5  1  0  0  0  0
  8  2  1  0  0  0  0
  9  3  1  0  0  0  0
 12  4  1  0  0  0  0
 16 19  1  6  0  0  0
 16 18  1  0  0  0  0
 16 24  1  0  0  0  0
 17 16  1  0  0  0  0
 17 18  1  0  0  0  0
 17 21  1  0  0  0  0
 18 22  1  1  0  0  0
 20 17  1  0  0  0  0
 23 28  1  0  0  0  0
 24 23  2  0  0  0  0
 24 25  1  0  0  0  0
 25 30  1  0  0  0  0
 25 26  2  0  0  0  0
 26 27  1  0  0  0  0
 27 31  1  0  0  0  0
 28 27  2  0  0  0  0
 29 23  1  0  0  0  0
 32 33  1  0  0  0  0
 32  6  1  0  0  0  0
 34 43  1  0  0  0  0
 34 35  1  0  0  0  0
 35 32  1  0  0  0  0
 36 37  1  0  0  0  0
 36 35  2  0  0  0  0
 38 36  1  0  0  0  0
 39 38  1  0  0  0  0
 40 41  1  0  0  0  0
 40 38  2  0  0  0  0
 41 34  2  0  0  0  0
 43 42  3  0  0  0  0
M  END
>  <minimizedAffinity>
-4.88700104

>  <minimizedRMSD>
2.33061242

$$$$
