
 OpenBabel03242513413D

 41 44  0  0  0  0  0  0  0  0999 V2000
   47.7630   31.0580   46.0130 C   0  0  0  0  0  0  0  0  0  0  0  0
   47.0020   32.0970   45.5150 C   0  0  0  0  0  0  0  0  0  0  0  0
   45.9890   32.5770   46.2920 C   0  0  0  0  0  0  0  0  0  0  0  0
   45.6990   32.0660   47.5480 C   0  0  0  0  0  0  0  0  0  0  0  0
   44.8060   32.2980   48.5370 N   0  0  0  0  0  0  0  0  0  0  0  0
   45.0100   31.4580   49.5680 C   0  0  0  0  0  0  0  0  0  0  0  0
   46.0520   30.6880   49.2110 N   0  0  0  0  0  0  0  0  0  0  0  0
   46.4870   31.0410   47.9840 C   0  0  0  0  0  0  0  0  0  0  0  0
   47.5120   30.5140   47.2650 C   0  0  0  0  0  0  0  0  0  0  0  0
   48.5750   30.6490   45.4310 H   0  0  0  0  0  0  0  0  0  0  0  0
   45.3550   33.3970   45.9470 H   0  0  0  0  0  0  0  0  0  0  0  0
   44.0720   33.0560   48.4450 H   0  0  0  0  0  0  0  0  0  0  0  0
   44.4440   31.4350   50.4650 H   0  0  0  0  0  0  0  0  0  0  0  0
   47.2220   34.4300   42.7020 C   0  0  0  0  0  0  0  0  0  0  0  0
   47.8210   33.6710   41.7080 C   0  0  0  0  0  0  0  0  0  0  0  0
   48.1410   32.3480   42.0360 C   0  0  0  0  0  0  0  0  0  0  0  0
   47.8670   31.8630   43.2700 N   0  0  0  0  0  0  0  0  0  0  0  0
   47.2800   32.6580   44.1960 C   0  0  0  0  0  0  0  0  0  0  0  0
   46.9580   33.9200   43.9330 N   0  0  0  0  0  0  0  0  0  0  0  0
   46.9380   35.4700   42.5360 H   0  0  0  0  0  0  0  0  0  0  0  0
   48.6090   31.7460   41.2670 H   0  0  0  0  0  0  0  0  0  0  0  0
   48.0800   34.2920   40.3870 C   0  0  0  0  0  0  0  0  0  0  0  0
   48.5720   35.5510   40.6830 F   0  0  0  0  0  0  0  0  0  0  0  0
   46.8830   34.4160   39.7310 F   0  0  0  0  0  0  0  0  0  0  0  0
   48.9750   33.4910   39.6940 F   0  0  0  0  0  0  0  0  0  0  0  0
   48.2730   29.4750   47.7650 O   0  0  0  0  0  0  0  0  0  0  0  0
   49.8770   28.2260   49.3780 O   0  0  0  0  0  0  0  0  0  0  0  0
   49.4950   29.6250   48.9230 P   0  0  2  0  0  0  0  0  0  0  0  0
   48.8150   30.4090   50.2820 O   0  0  0  0  0  0  0  0  0  0  0  0
   49.4950   30.3810   51.0190 H   0  0  0  0  0  0  0  0  0  0  0  0
   50.8410   30.4470   48.3910 O   0  0  0  0  0  0  0  0  0  0  0  0
   53.2090   30.6290   48.4950 C   0  0  0  0  0  0  0  0  0  0  0  0
   51.9740   30.6020   49.1520 C   0  0  0  0  0  0  0  0  0  0  0  0
   52.0180   30.7350   50.5250 C   0  0  0  0  0  0  0  0  0  0  0  0
   51.0980   30.7180   51.0520 H   0  0  0  0  0  0  0  0  0  0  0  0
   53.1710   30.8880   51.2530 C   0  0  0  0  0  0  0  0  0  0  0  0
   53.1330   30.9890   52.3440 H   0  0  0  0  0  0  0  0  0  0  0  0
   54.3770   30.9100   50.5580 C   0  0  0  0  0  3  0  0  0  0  0  0
   54.3920   30.7810   49.1860 C   0  0  0  0  0  3  0  0  0  0  0  0
   53.4210   30.3860   45.9170 N   0  0  0  0  0  0  0  0  0  0  0  0
   53.3340   30.5030   47.0670 C   0  0  0  0  0  0  0  0  0  0  0  0
  1  9  1  0  0  0  0
  2  1  2  0  0  0  0
  2  3  1  0  0  0  0
  3  4  2  0  0  0  0
  4  8  1  0  0  0  0
  4  5  1  0  0  0  0
  5  6  1  0  0  0  0
  6 13  1  0  0  0  0
  7  6  2  0  0  0  0
  8  7  1  0  0  0  0
  9 26  1  0  0  0  0
  9  8  2  0  0  0  0
 10  1  1  0  0  0  0
 11  3  1  0  0  0  0
 12  5  1  0  0  0  0
 14 19  1  0  0  0  0
 15 16  1  0  0  0  0
 15 14  2  0  0  0  0
 16 17  2  0  0  0  0
 17 18  1  0  0  0  0
 18  2  1  0  0  0  0
 19 18  2  0  0  0  0
 20 14  1  0  0  0  0
 21 16  1  0  0  0  0
 22 23  1  0  0  0  0
 22 15  1  0  0  0  0
 24 22  1  0  0  0  0
 25 22  1  0  0  0  0
 26 28  1  0  0  0  0
 28 27  2  1  0  0  0
 28 29  1  0  0  0  0
 29 30  1  0  0  0  0
 31 28  1  0  0  0  0
 31 33  1  0  0  0  0
 32 33  2  0  0  0  0
 32 39  1  0  0  0  0
 33 34  1  0  0  0  0
 34 35  1  0  0  0  0
 34 36  2  0  0  0  0
 36 37  1  0  0  0  0
 38 36  1  0  0  0  0
 39 38  2  0  0  0  0
 40 41  3  0  0  0  0
 41 32  1  0  0  0  0
M  END
>  <minimizedAffinity>
-5.78217506

>  <minimizedRMSD>
2.31920147

$$$$
