
 OpenBabel03252507223D

 48 51  0  0  1  0  0  0  0  0999 V2000
   47.5090   33.4860   42.8740 C   0  0  0  0  0  0  0  0  0  0  0  0
   48.6390   33.4890   43.4900 O   0  0  0  0  0  0  0  0  0  0  0  0
   47.2330   32.6980   41.6960 N   0  0  0  0  0  0  0  0  0  0  0  0
   46.0650   31.9270   41.3420 C   0  0  0  0  0  0  0  0  0  0  0  0
   45.6100   32.3560   39.9410 C   0  0  0  0  0  0  0  0  0  0  0  0
   46.6640   32.0210   38.9250 C   0  0  0  0  0  0  0  0  0  0  0  0
   47.9660   31.7080   39.6260 C   0  0  0  0  0  0  0  0  0  0  0  0
   48.2960   32.7190   40.6960 C   0  0  2  0  0  0  0  0  0  0  0  0
   45.2080   32.1550   42.0340 H   0  0  0  0  0  0  0  0  0  0  0  0
   46.2540   30.8390   41.2880 H   0  0  0  0  0  0  0  0  0  0  0  0
   45.4060   33.4550   39.9810 H   0  0  0  0  0  0  0  0  0  0  0  0
   44.6760   31.8010   39.7260 H   0  0  0  0  0  0  0  0  0  0  0  0
   46.8440   32.9430   38.3320 H   0  0  0  0  0  0  0  0  0  0  0  0
   46.3770   31.1520   38.3220 H   0  0  0  0  0  0  0  0  0  0  0  0
   48.8150   31.6350   38.9340 H   0  0  0  0  0  0  0  0  0  0  0  0
   47.8750   30.6660   40.0640 H   0  0  0  0  0  0  0  0  0  0  0  0
   48.2600   33.7110   40.2330 H   0  0  0  0  0  0  0  0  0  0  0  0
   46.1110   35.4710   42.6730 C   0  0  0  0  0  0  0  0  0  0  0  0
   46.4730   34.3220   43.4030 C   0  0  0  0  0  0  0  0  0  0  0  0
   45.8300   34.0370   44.5970 C   0  0  0  0  0  0  0  0  0  0  0  0
   44.8690   34.8930   45.0080 N   0  0  0  0  0  0  0  0  0  0  0  0
   44.5040   35.9960   44.3300 C   0  0  0  0  0  0  0  0  0  0  0  0
   45.1410   36.2710   43.1580 N   0  0  0  0  0  0  0  0  0  0  0  0
   46.6030   35.7140   41.7390 H   0  0  0  0  0  0  0  0  0  0  0  0
   43.7260   36.6670   44.6960 H   0  0  0  0  0  0  0  0  0  0  0  0
   46.2210   32.8470   45.3310 C   0  0  0  0  0  0  0  0  0  0  0  0
   45.8770   31.6140   44.8610 C   0  0  0  0  0  0  0  0  0  0  0  0
   46.2640   30.5140   45.5820 C   0  0  0  0  0  0  0  0  0  0  0  0
   46.9840   30.5910   46.7630 C   0  0  0  0  0  0  0  0  0  0  0  0
   47.3000   31.8700   47.1880 C   0  0  0  0  0  0  0  0  0  0  0  0
   46.9130   32.9250   46.4670 N   0  0  0  0  0  0  0  0  0  0  0  0
   45.3230   31.4130   43.9600 H   0  0  0  0  0  0  0  0  0  0  0  0
   46.0000   29.5060   45.2230 H   0  0  0  0  0  0  0  0  0  0  0  0
   47.2760   29.7100   47.3130 H   0  0  0  0  0  0  0  0  0  0  0  0
   47.8650   31.9560   48.1030 H   0  0  0  0  0  0  0  0  0  0  0  0
   49.6590   32.5050   41.2160 C   0  0  0  0  0  0  0  0  0  0  0  0
   50.2780   32.7220   40.2750 H   0  0  0  0  0  0  0  0  0  0  0  0
   50.0640   33.3610   41.8460 H   0  0  0  0  0  0  0  0  0  0  0  0
   51.0760   30.4870   40.9100 C   0  0  0  0  0  0  0  0  0  0  0  0
   50.1140   31.2090   41.6590 C   0  0  0  0  0  0  0  0  0  0  0  0
   49.7280   30.4170   42.7450 C   0  0  0  0  0  0  0  0  0  0  0  0
   48.9580   30.8110   43.3910 H   0  0  0  0  0  0  0  0  0  0  0  0
   50.1340   29.1890   43.1010 C   0  0  0  0  0  0  0  0  0  0  0  0
   49.7300   28.6920   43.9910 H   0  0  0  0  0  0  0  0  0  0  0  0
   51.0690   28.5400   42.3390 C   0  0  0  0  0  3  0  0  0  0  0  0
   51.5390   29.2070   41.2280 C   0  0  0  0  0  3  0  0  0  0  0  0
   52.1230   31.6540   38.7970 N   0  0  0  0  0  0  0  0  0  0  0  0
   51.6530   31.1210   39.7400 C   0  0  0  0  0  0  0  0  0  0  0  0
  1 19  1  0  0  0  0
  1  2  2  0  0  0  0
  3  1  1  0  0  0  0
  4  3  1  0  0  0  0
  4  9  1  0  0  0  0
  5 11  1  0  0  0  0
  5  4  1  0  0  0  0
  6  7  1  0  0  0  0
  6  5  1  0  0  0  0
  7 16  1  0  0  0  0
  7  8  1  0  0  0  0
  8 17  1  6  0  0  0
  8 36  1  0  0  0  0
  8  3  1  0  0  0  0
 10  4  1  0  0  0  0
 12  5  1  0  0  0  0
 13  6  1  0  0  0  0
 14  6  1  0  0  0  0
 15  7  1  0  0  0  0
 18 23  2  0  0  0  0
 18 19  1  0  0  0  0
 19 20  2  0  0  0  0
 20 21  1  0  0  0  0
 20 26  1  0  0  0  0
 22 25  1  0  0  0  0
 22 21  2  0  0  0  0
 23 22  1  0  0  0  0
 24 18  1  0  0  0  0
 26 31  1  0  0  0  0
 27 26  2  0  0  0  0
 27 28  1  0  0  0  0
 28 29  2  0  0  0  0
 29 30  1  0  0  0  0
 29 34  1  0  0  0  0
 30 35  1  0  0  0  0
 31 30  2  0  0  0  0
 32 27  1  0  0  0  0
 33 28  1  0  0  0  0
 36 40  1  0  0  0  0
 36 38  1  0  0  0  0
 37 36  1  0  0  0  0
 39 46  2  0  0  0  0
 39 40  1  0  0  0  0
 40 41  2  0  0  0  0
 41 43  1  0  0  0  0
 41 42  1  0  0  0  0
 43 44  1  0  0  0  0
 45 43  2  0  0  0  0
 46 45  1  0  0  0  0
 47 48  3  0  0  0  0
 48 39  1  0  0  0  0
M  END
>  <minimizedAffinity>
-4.94776011

>  <minimizedRMSD>
0.539926529

$$$$
