
 OpenBabel03242513593D

 42 46  0  0  0  0  0  0  0  0999 V2000
   46.0510   33.1710   42.8110 C   0  0  0  0  0  0  0  0  0  0  0  0
   46.1900   33.2680   41.4280 C   0  0  0  0  0  0  0  0  0  0  0  0
   47.0210   32.3230   40.7810 C   0  0  0  0  0  0  0  0  0  0  0  0
   47.6280   31.3860   41.5380 N   0  0  0  0  0  0  0  0  0  0  0  0
   47.4730   31.3180   42.8790 C   0  0  0  0  0  0  0  0  0  0  0  0
   46.6740   32.2270   43.5030 N   0  0  0  0  0  0  0  0  0  0  0  0
   45.4080   33.9080   43.2860 H   0  0  0  0  0  0  0  0  0  0  0  0
   47.1800   32.3280   39.7210 H   0  0  0  0  0  0  0  0  0  0  0  0
   48.1060   30.3280   43.7410 C   0  0  0  0  0  0  0  0  0  0  0  0
   48.2280   28.9960   43.3520 C   0  0  0  0  0  0  0  0  0  0  0  0
   48.8670   28.3250   44.3820 C   0  0  0  0  0  0  0  0  0  0  0  0
   49.1150   29.2320   45.3480 N   0  0  0  0  0  0  0  0  0  0  0  0
   48.6520   30.4100   44.9380 N   0  0  0  0  0  0  0  0  0  0  0  0
   47.9260   28.4500   42.4450 H   0  0  0  0  0  0  0  0  0  0  0  0
   49.1470   27.2880   44.4730 H   0  0  0  0  0  0  0  0  0  0  0  0
   49.0480   29.1350   47.8240 C   0  0  0  0  0  0  0  0  0  0  0  0
   49.7400   29.1260   46.6240 C   0  0  0  0  0  0  0  0  0  0  0  0
   51.1310   29.0100   46.6440 C   0  0  0  0  0  0  0  0  0  0  0  0
   51.7420   28.9970   45.7490 H   0  0  0  0  0  0  0  0  0  0  0  0
   51.7890   28.9040   47.8680 C   0  0  0  0  0  0  0  0  0  0  0  0
   52.8720   28.8110   47.9320 H   0  0  0  0  0  0  0  0  0  0  0  0
   51.1070   28.9090   49.0890 C   0  0  0  0  0  3  0  0  0  0  0  0
   49.7130   29.0270   49.0380 C   0  0  0  0  0  3  0  0  0  0  0  0
   46.4550   29.3370   47.6810 N   0  0  0  0  0  0  0  0  0  0  0  0
   47.6200   29.2560   47.7420 C   0  0  0  0  0  0  0  0  0  0  0  0
   45.5800   34.2160   40.6270 O   0  0  0  0  0  0  0  0  0  0  0  0
   44.2850   34.1210   40.1300 C   0  0  0  0  0  0  0  0  0  0  0  0
   43.8370   33.3010   39.1230 C   0  0  0  0  0  0  0  0  0  0  0  0
   42.5110   33.3290   38.7470 C   0  0  0  0  0  0  0  0  0  0  0  0
   41.5860   34.1650   39.3500 C   0  0  0  0  0  0  0  0  0  0  0  0
   40.3260   34.1400   38.9380 N   0  0  0  0  0  0  0  0  0  0  0  0
   39.3950   34.9420   39.5030 C   0  0  0  0  0  0  0  0  0  0  0  0
   39.8060   35.7860   40.5240 C   0  0  0  0  0  0  0  0  0  0  0  0
   41.1360   35.8140   40.9610 C   0  0  0  0  0  0  0  0  0  0  0  0
   42.0580   34.9810   40.3590 C   0  0  0  0  0  0  0  0  0  0  0  0
   43.3990   34.9730   40.7620 C   0  0  0  0  0  0  0  0  0  0  0  0
   44.5910   32.6590   38.6730 H   0  0  0  0  0  0  0  0  0  0  0  0
   42.1880   32.6660   37.9430 H   0  0  0  0  0  0  0  0  0  0  0  0
   38.3580   34.9360   39.1790 H   0  0  0  0  0  0  0  0  0  0  0  0
   39.1420   36.4550   41.0310 H   0  0  0  0  0  0  0  0  0  0  0  0
   41.4630   36.4730   41.7610 H   0  0  0  0  0  0  0  0  0  0  0  0
   43.6460   35.6560   41.5610 H   0  0  0  0  0  0  0  0  0  0  0  0
  1  7  1  0  0  0  0
  1  6  1  0  0  0  0
  2  1  2  0  0  0  0
  3  2  1  0  0  0  0
  3  4  2  0  0  0  0
  4  5  1  0  0  0  0
  5  6  2  0  0  0  0
  5  9  1  0  0  0  0
  8  3  1  0  0  0  0
  9 13  2  0  0  0  0
 10  9  1  0  0  0  0
 10 11  2  0  0  0  0
 11 15  1  0  0  0  0
 11 12  1  0  0  0  0
 12 17  1  0  0  0  0
 13 12  1  0  0  0  0
 14 10  1  0  0  0  0
 16 23  1  0  0  0  0
 17 18  1  0  0  0  0
 17 16  2  0  0  0  0
 18 20  2  0  0  0  0
 19 18  1  0  0  0  0
 20 21  1  0  0  0  0
 20 22  1  0  0  0  0
 23 22  2  0  0  0  0
 24 25  3  0  0  0  0
 25 16  1  0  0  0  0
 26  2  1  0  0  0  0
 27 26  1  0  0  0  0
 27 36  1  0  0  0  0
 28 27  2  0  0  0  0
 29 28  1  0  0  0  0
 29 30  2  0  0  0  0
 30 35  1  0  0  0  0
 31 30  1  0  0  0  0
 31 32  2  0  0  0  0
 32 33  1  0  0  0  0
 33 34  2  0  0  0  0
 33 40  1  0  0  0  0
 34 41  1  0  0  0  0
 35 36  2  0  0  0  0
 35 34  1  0  0  0  0
 36 42  1  0  0  0  0
 37 28  1  0  0  0  0
 38 29  1  0  0  0  0
 39 32  1  0  0  0  0
M  END
>  <minimizedAffinity>
-4.62235212

>  <minimizedRMSD>
3.70753551

$$$$
