
 OpenBabel03242513593D

 42 46  0  0  0  0  0  0  0  0999 V2000
   45.0500   34.6250   45.0390 C   0  0  0  0  0  0  0  0  0  0  0  0
   45.6470   34.6820   43.7820 C   0  0  0  0  0  0  0  0  0  0  0  0
   46.7550   33.8370   43.5390 C   0  0  0  0  0  0  0  0  0  0  0  0
   47.1680   33.0270   44.5350 N   0  0  0  0  0  0  0  0  0  0  0  0
   46.5680   32.9950   45.7460 C   0  0  0  0  0  0  0  0  0  0  0  0
   45.5010   33.8080   45.9810 N   0  0  0  0  0  0  0  0  0  0  0  0
   44.2010   35.2840   45.2020 H   0  0  0  0  0  0  0  0  0  0  0  0
   47.2700   33.8190   42.5990 H   0  0  0  0  0  0  0  0  0  0  0  0
   46.9740   32.1400   46.8540 C   0  0  0  0  0  0  0  0  0  0  0  0
   46.3370   32.1980   48.0910 C   0  0  0  0  0  0  0  0  0  0  0  0
   46.9540   31.2710   48.9150 C   0  0  0  0  0  0  0  0  0  0  0  0
   47.9250   30.6840   48.1870 N   0  0  0  0  0  0  0  0  0  0  0  0
   47.9120   31.2200   46.9700 N   0  0  0  0  0  0  0  0  0  0  0  0
   45.5030   32.8060   48.4750 H   0  0  0  0  0  0  0  0  0  0  0  0
   46.7580   31.0100   49.9420 H   0  0  0  0  0  0  0  0  0  0  0  0
   50.0560   29.9040   49.1840 C   0  0  0  0  0  0  0  0  0  0  0  0
   48.8740   29.6700   48.5000 C   0  0  0  0  0  0  0  0  0  0  0  0
   48.5790   28.3690   48.0830 C   0  0  0  0  0  0  0  0  0  0  0  0
   47.6770   28.1070   47.5440 H   0  0  0  0  0  0  0  0  0  0  0  0
   49.4770   27.3420   48.3650 C   0  0  0  0  0  0  0  0  0  0  0  0
   49.2890   26.3140   48.0590 H   0  0  0  0  0  0  0  0  0  0  0  0
   50.6740   27.5610   49.0550 C   0  0  0  0  0  3  0  0  0  0  0  0
   50.9440   28.8730   49.4600 C   0  0  0  0  0  3  0  0  0  0  0  0
   50.5080   32.3570   49.9360 N   0  0  0  0  0  0  0  0  0  0  0  0
   50.3070   31.2580   49.5880 C   0  0  0  0  0  0  0  0  0  0  0  0
   45.2460   35.5010   42.7410 O   0  0  0  0  0  0  0  0  0  0  0  0
   44.3490   35.1340   41.7430 C   0  0  0  0  0  0  0  0  0  0  0  0
   44.5970   34.3360   40.6530 C   0  0  0  0  0  0  0  0  0  0  0  0
   43.5900   34.0690   39.7500 C   0  0  0  0  0  0  0  0  0  0  0  0
   42.3110   34.5780   39.8920 C   0  0  0  0  0  0  0  0  0  0  0  0
   41.3900   34.2790   38.9850 N   0  0  0  0  0  0  0  0  0  0  0  0
   40.1300   34.7580   39.0910 C   0  0  0  0  0  0  0  0  0  0  0  0
   39.8380   35.5680   40.1780 C   0  0  0  0  0  0  0  0  0  0  0  0
   40.8080   35.8850   41.1380 C   0  0  0  0  0  0  0  0  0  0  0  0
   42.0840   35.3780   40.9950 C   0  0  0  0  0  0  0  0  0  0  0  0
   43.0870   35.6660   41.9290 C   0  0  0  0  0  0  0  0  0  0  0  0
   45.6130   33.9550   40.5740 H   0  0  0  0  0  0  0  0  0  0  0  0
   43.8200   33.4320   38.8940 H   0  0  0  0  0  0  0  0  0  0  0  0
   39.3630   34.5250   38.3580 H   0  0  0  0  0  0  0  0  0  0  0  0
   38.8700   35.9920   40.3470 H   0  0  0  0  0  0  0  0  0  0  0  0
   40.5840   36.5190   41.9920 H   0  0  0  0  0  0  0  0  0  0  0  0
   42.7880   36.3020   42.7480 H   0  0  0  0  0  0  0  0  0  0  0  0
  1  7  1  0  0  0  0
  1  6  1  0  0  0  0
  2  1  2  0  0  0  0
  3  2  1  0  0  0  0
  3  4  2  0  0  0  0
  4  5  1  0  0  0  0
  5  6  2  0  0  0  0
  5  9  1  0  0  0  0
  8  3  1  0  0  0  0
  9 13  2  0  0  0  0
  9 10  1  0  0  0  0
 10 14  1  0  0  0  0
 10 11  2  0  0  0  0
 11 15  1  0  0  0  0
 12 17  1  0  0  0  0
 12 11  1  0  0  0  0
 13 12  1  0  0  0  0
 16 23  1  0  0  0  0
 16 25  1  0  0  0  0
 17 16  2  0  0  0  0
 18 20  2  0  0  0  0
 18 17  1  0  0  0  0
 19 18  1  0  0  0  0
 20 22  1  0  0  0  0
 21 20  1  0  0  0  0
 22 23  2  0  0  0  0
 25 24  3  0  0  0  0
 26  2  1  0  0  0  0
 27 36  1  0  0  0  0
 27 26  1  0  0  0  0
 28 27  2  0  0  0  0
 29 30  2  0  0  0  0
 29 28  1  0  0  0  0
 30 35  1  0  0  0  0
 31 32  2  0  0  0  0
 31 30  1  0  0  0  0
 32 33  1  0  0  0  0
 33 40  1  0  0  0  0
 33 34  2  0  0  0  0
 34 41  1  0  0  0  0
 35 34  1  0  0  0  0
 35 36  2  0  0  0  0
 36 42  1  0  0  0  0
 37 28  1  0  0  0  0
 38 29  1  0  0  0  0
 39 32  1  0  0  0  0
M  END
>  <minimizedAffinity>
-6.71268892

>  <minimizedRMSD>
1.69729233

$$$$
