
 OpenBabel03252507223D

 48 51  0  0  1  0  0  0  0  0999 V2000
   47.4480   33.5050   42.9100 C   0  0  0  0  0  0  0  0  0  0  0  0
   48.5810   33.4780   43.5180 O   0  0  0  0  0  0  0  0  0  0  0  0
   47.1550   32.7540   41.7120 N   0  0  0  0  0  0  0  0  0  0  0  0
   45.9760   32.0050   41.3450 C   0  0  0  0  0  0  0  0  0  0  0  0
   45.5180   32.4780   39.9590 C   0  0  0  0  0  0  0  0  0  0  0  0
   46.5620   32.1590   38.9280 C   0  0  0  0  0  0  0  0  0  0  0  0
   47.8650   31.8120   39.6110 C   0  0  0  0  0  0  0  0  0  0  0  0
   48.2130   32.7900   40.7070 C   0  0  2  0  0  0  0  0  0  0  0  0
   45.1260   32.2230   42.0480 H   0  0  0  0  0  0  0  0  0  0  0  0
   46.1530   30.9170   41.2600 H   0  0  0  0  0  0  0  0  0  0  0  0
   45.3260   33.5770   40.0310 H   0  0  0  0  0  0  0  0  0  0  0  0
   44.5760   31.9400   39.7350 H   0  0  0  0  0  0  0  0  0  0  0  0
   46.7490   33.0950   38.3580 H   0  0  0  0  0  0  0  0  0  0  0  0
   46.2620   31.3100   38.3020 H   0  0  0  0  0  0  0  0  0  0  0  0
   48.7090   31.7490   38.9120 H   0  0  0  0  0  0  0  0  0  0  0  0
   47.7650   30.7600   40.0210 H   0  0  0  0  0  0  0  0  0  0  0  0
   48.1850   33.7950   40.2720 H   0  0  0  0  0  0  0  0  0  0  0  0
   46.0520   35.4960   42.7590 C   0  0  0  0  0  0  0  0  0  0  0  0
   46.4240   34.3380   43.4680 C   0  0  0  0  0  0  0  0  0  0  0  0
   45.8040   34.0410   44.6710 C   0  0  0  0  0  0  0  0  0  0  0  0
   44.8530   34.8940   45.1100 N   0  0  0  0  0  0  0  0  0  0  0  0
   44.4780   36.0060   44.4520 C   0  0  0  0  0  0  0  0  0  0  0  0
   45.0940   36.2930   43.2710 N   0  0  0  0  0  0  0  0  0  0  0  0
   46.5270   35.7490   41.8180 H   0  0  0  0  0  0  0  0  0  0  0  0
   43.7100   36.6750   44.8400 H   0  0  0  0  0  0  0  0  0  0  0  0
   46.2050   32.8400   45.3830 C   0  0  0  0  0  0  0  0  0  0  0  0
   45.8690   31.6140   44.8920 C   0  0  0  0  0  0  0  0  0  0  0  0
   46.2650   30.5050   45.5930 C   0  0  0  0  0  0  0  0  0  0  0  0
   46.9870   30.5660   46.7750 C   0  0  0  0  0  0  0  0  0  0  0  0
   47.2940   31.8400   47.2210 C   0  0  0  0  0  0  0  0  0  0  0  0
   46.8970   32.9040   46.5190 N   0  0  0  0  0  0  0  0  0  0  0  0
   45.3160   31.4240   43.9880 H   0  0  0  0  0  0  0  0  0  0  0  0
   46.0090   29.5010   45.2160 H   0  0  0  0  0  0  0  0  0  0  0  0
   47.2860   29.6780   47.3090 H   0  0  0  0  0  0  0  0  0  0  0  0
   47.8600   31.9140   48.1360 H   0  0  0  0  0  0  0  0  0  0  0  0
   49.5760   32.5460   41.2120 C   0  0  0  0  0  0  0  0  0  0  0  0
   50.1910   32.7670   40.2690 H   0  0  0  0  0  0  0  0  0  0  0  0
   50.0000   33.3860   41.8510 H   0  0  0  0  0  0  0  0  0  0  0  0
   50.9600   30.5130   40.8650 C   0  0  0  0  0  0  0  0  0  0  0  0
   50.0140   31.2360   41.6310 C   0  0  0  0  0  0  0  0  0  0  0  0
   49.6210   30.4340   42.7060 C   0  0  0  0  0  0  0  0  0  0  0  0
   48.8610   30.8280   43.3640 H   0  0  0  0  0  0  0  0  0  0  0  0
   50.0110   29.1930   43.0410 C   0  0  0  0  0  0  0  0  0  0  0  0
   49.6060   28.6890   43.9250 H   0  0  0  0  0  0  0  0  0  0  0  0
   50.9320   28.5420   42.2630 C   0  0  0  0  0  3  0  0  0  0  0  0
   51.4070   29.2200   41.1610 C   0  0  0  0  0  3  0  0  0  0  0  0
   52.0140   31.6970   38.7650 N   0  0  0  0  0  0  0  0  0  0  0  0
   51.5420   31.1570   39.7020 C   0  0  0  0  0  0  0  0  0  0  0  0
  1 19  1  0  0  0  0
  1  2  2  0  0  0  0
  3  1  1  0  0  0  0
  4  3  1  0  0  0  0
  4  9  1  0  0  0  0
  5 11  1  0  0  0  0
  5  4  1  0  0  0  0
  6  7  1  0  0  0  0
  6  5  1  0  0  0  0
  7 16  1  0  0  0  0
  7  8  1  0  0  0  0
  8 17  1  6  0  0  0
  8 36  1  0  0  0  0
  8  3  1  0  0  0  0
 10  4  1  0  0  0  0
 12  5  1  0  0  0  0
 13  6  1  0  0  0  0
 14  6  1  0  0  0  0
 15  7  1  0  0  0  0
 18 23  2  0  0  0  0
 18 19  1  0  0  0  0
 19 20  2  0  0  0  0
 20 21  1  0  0  0  0
 20 26  1  0  0  0  0
 22 25  1  0  0  0  0
 22 21  2  0  0  0  0
 23 22  1  0  0  0  0
 24 18  1  0  0  0  0
 26 31  1  0  0  0  0
 27 26  2  0  0  0  0
 27 28  1  0  0  0  0
 28 29  2  0  0  0  0
 29 30  1  0  0  0  0
 29 34  1  0  0  0  0
 30 35  1  0  0  0  0
 31 30  2  0  0  0  0
 32 27  1  0  0  0  0
 33 28  1  0  0  0  0
 36 40  1  0  0  0  0
 36 38  1  0  0  0  0
 37 36  1  0  0  0  0
 39 46  2  0  0  0  0
 39 40  1  0  0  0  0
 40 41  2  0  0  0  0
 41 43  1  0  0  0  0
 41 42  1  0  0  0  0
 43 44  1  0  0  0  0
 45 43  2  0  0  0  0
 46 45  1  0  0  0  0
 47 48  3  0  0  0  0
 48 39  1  0  0  0  0
M  END
>  <minimizedAffinity>
-4.97946215

>  <minimizedRMSD>
0.702557445

$$$$
