
 OpenBabel03242519243D

 41 44  0  0  0  0  0  0  0  0999 V2000
   47.9140   33.8710   42.8760 C   0  0  0  0  0  0  0  0  0  0  0  0
   48.5510   35.1060   42.6490 C   0  0  0  0  0  0  0  0  0  0  0  0
   49.9160   35.1440   42.3200 C   0  0  0  0  0  0  0  0  0  0  0  0
   50.5470   33.9300   42.2430 N   0  0  0  0  0  0  0  0  0  0  0  0
   49.8970   32.7460   42.4700 C   0  0  0  0  0  0  0  0  0  0  0  0
   48.6090   32.7350   42.7790 N   0  0  0  0  0  0  0  0  0  0  0  0
   48.1330   36.0970   42.6890 H   0  0  0  0  0  0  0  0  0  0  0  0
   50.4660   36.0410   42.1340 H   0  0  0  0  0  0  0  0  0  0  0  0
   46.4840   33.9570   43.2190 C   0  0  0  0  0  0  0  0  0  0  0  0
   45.7460   34.9600   42.4500 C   0  0  0  0  0  0  0  0  0  0  0  0
   45.2760   36.1210   43.2490 C   0  0  0  0  0  0  0  0  0  0  0  0
   44.4880   35.7230   44.4830 C   0  0  0  0  0  0  0  0  0  0  0  0
   44.9860   34.4640   45.1520 C   0  0  0  0  0  0  0  0  0  0  0  0
   46.4190   34.1740   44.7410 C   0  0  0  0  0  0  0  0  0  0  0  0
   46.0510   32.9210   43.0920 H   0  0  0  0  0  0  0  0  0  0  0  0
   46.2960   35.3420   41.5830 H   0  0  0  0  0  0  0  0  0  0  0  0
   44.8260   34.4770   42.0080 H   0  0  0  0  0  0  0  0  0  0  0  0
   44.5330   36.6780   42.6050 H   0  0  0  0  0  0  0  0  0  0  0  0
   46.0140   36.8630   43.5400 H   0  0  0  0  0  0  0  0  0  0  0  0
   43.3910   35.6600   44.2590 H   0  0  0  0  0  0  0  0  0  0  0  0
   44.5760   36.5270   45.2440 H   0  0  0  0  0  0  0  0  0  0  0  0
   44.3440   33.6060   44.8160 H   0  0  0  0  0  0  0  0  0  0  0  0
   44.9400   34.4830   46.2470 H   0  0  0  0  0  0  0  0  0  0  0  0
   47.0530   35.0480   44.9440 H   0  0  0  0  0  0  0  0  0  0  0  0
   46.7700   33.2670   45.2480 H   0  0  0  0  0  0  0  0  0  0  0  0
   50.7310   31.5510   42.3510 C   0  0  0  0  0  0  0  0  0  0  0  0
   51.4950   31.4380   41.2420 N   0  0  0  0  0  0  0  0  0  0  0  0
   52.1930   30.2930   41.2980 C   0  0  0  0  0  0  0  0  0  0  0  0
   51.8480   29.6900   42.4690 N   0  0  0  0  0  0  0  0  0  0  0  0
   50.9520   30.4590   43.1180 N   0  0  0  0  0  0  0  0  0  0  0  0
   52.9050   29.8590   40.6020 H   0  0  0  0  0  0  0  0  0  0  0  0
   51.6640   27.2290   42.9020 C   0  0  0  0  0  0  0  0  0  0  0  0
   52.2740   28.4610   43.0500 C   0  0  0  0  0  0  0  0  0  0  0  0
   53.4270   28.5800   43.8330 C   0  0  0  0  0  0  0  0  0  0  0  0
   53.9520   29.5320   43.9850 H   0  0  0  0  0  0  0  0  0  0  0  0
   53.9830   27.4870   44.4730 C   0  0  0  0  0  0  0  0  0  0  0  0
   54.8760   27.5980   45.0760 H   0  0  0  0  0  0  0  0  0  0  0  0
   53.3400   26.2680   44.3000 C   0  0  0  0  0  3  0  0  0  0  0  0
   52.2010   26.1190   43.5330 C   0  0  0  0  0  3  0  0  0  0  0  0
   49.5490   27.1470   41.4170 N   0  0  0  0  0  0  0  0  0  0  0  0
   50.5030   27.1940   42.0940 C   0  0  0  0  0  0  0  0  0  0  0  0
  1  9  1  0  0  0  0
  2  7  1  0  0  0  0
  2  1  2  0  0  0  0
  3  2  1  0  0  0  0
  4  3  2  0  0  0  0
  4  5  1  0  0  0  0
  5  6  2  0  0  0  0
  6  1  1  0  0  0  0
  8  3  1  0  0  0  0
  9 14  1  0  0  0  0
 10  9  1  0  0  0  0
 10 11  1  0  0  0  0
 11 19  1  0  0  0  0
 11 12  1  0  0  0  0
 12 13  1  0  0  0  0
 12 21  1  0  0  0  0
 13 23  1  0  0  0  0
 14 24  1  0  0  0  0
 14 13  1  0  0  0  0
 14 25  1  0  0  0  0
 15  9  1  0  0  0  0
 16 10  1  0  0  0  0
 17 10  1  0  0  0  0
 18 11  1  0  0  0  0
 20 12  1  0  0  0  0
 22 13  1  0  0  0  0
 26  5  1  0  0  0  0
 26 30  2  0  0  0  0
 27 28  2  0  0  0  0
 27 26  1  0  0  0  0
 28 29  1  0  0  0  0
 29 33  1  0  0  0  0
 29 30  1  0  0  0  0
 31 28  1  0  0  0  0
 32 33  2  0  0  0  0
 32 39  1  0  0  0  0
 33 34  1  0  0  0  0
 34 35  1  0  0  0  0
 34 36  2  0  0  0  0
 36 37  1  0  0  0  0
 38 36  1  0  0  0  0
 39 38  2  0  0  0  0
 40 41  3  0  0  0  0
 41 32  1  0  0  0  0
M  END
>  <minimizedAffinity>
-4.05624008

>  <minimizedRMSD>
1.1195668

$$$$
