
 OpenBabel03252503163D

 37 40  0  0  0  0  0  0  0  0999 V2000
   44.8480   34.4030   41.0100 C   0  0  0  0  0  0  0  0  0  0  0  0
   43.5500   34.8610   40.8870 C   0  0  0  0  0  0  0  0  0  0  0  0
   43.0440   34.2160   39.8210 N   0  0  0  0  0  0  0  0  0  0  0  0
   43.9960   33.3990   39.3150 C   0  0  0  0  0  0  0  0  0  0  0  0
   45.1180   33.5140   40.0520 N   0  0  0  0  0  0  0  0  0  0  0  0
   43.9680   32.5060   38.1970 N   0  0  0  0  0  0  0  0  0  0  0  0
   43.0450   35.5710   41.4970 H   0  0  0  0  0  0  0  0  0  0  0  0
   43.5110   33.0030   37.4080 H   0  0  0  0  0  0  0  0  0  0  0  0
   44.3670   31.5410   38.2670 H   0  0  0  0  0  0  0  0  0  0  0  0
   40.7600   33.5200   39.7750 C   0  0  0  0  0  0  0  0  0  0  0  0
   41.7610   34.2980   39.2430 C   0  0  0  0  0  0  0  0  0  0  0  0
   41.4260   35.1050   38.1750 C   0  0  0  0  0  0  0  0  0  0  0  0
   42.2100   35.7110   37.7630 H   0  0  0  0  0  0  0  0  0  0  0  0
   40.1450   35.1420   37.6510 C   0  0  0  0  0  0  0  0  0  0  0  0
   39.8910   35.7850   36.8060 H   0  0  0  0  0  0  0  0  0  0  0  0
   39.1300   34.3590   38.1840 C   0  0  0  0  0  3  0  0  0  0  0  0
   39.4850   33.5570   39.2530 C   0  0  0  0  0  3  0  0  0  0  0  0
   41.2110   31.9370   41.7710 N   0  0  0  0  0  0  0  0  0  0  0  0
   41.0060   32.6480   40.8860 C   0  0  0  0  0  0  0  0  0  0  0  0
   45.8420   34.8310   42.0630 C   0  0  0  0  0  0  0  0  0  0  0  0
   47.0030   35.2600   41.8080 O   0  0  0  0  0  0  0  0  0  0  0  0
   44.8010   35.8270   44.0410 C   0  0  0  0  0  0  0  0  0  0  0  0
   45.4990   34.7630   43.4460 C   0  0  0  0  0  0  0  0  0  0  0  0
   45.7990   33.7120   44.2890 C   0  0  0  0  0  0  0  0  0  0  0  0
   45.4570   33.6930   45.5810 N   0  0  0  0  0  0  0  0  0  0  0  0
   44.7790   34.7520   46.1110 C   0  0  0  0  0  0  0  0  0  0  0  0
   44.4580   35.8120   45.3290 N   0  0  0  0  0  0  0  0  0  0  0  0
   44.5100   36.7080   43.4790 H   0  0  0  0  0  0  0  0  0  0  0  0
   44.5250   34.6870   47.1630 H   0  0  0  0  0  0  0  0  0  0  0  0
   46.5060   32.6070   43.7570 C   0  0  0  0  0  0  0  0  0  0  0  0
   47.8150   32.2700   43.6030 C   0  0  0  0  0  0  0  0  0  0  0  0
   48.2250   31.1450   43.0590 C   0  0  0  0  0  0  0  0  0  0  0  0
   47.2490   30.3090   42.6430 C   0  0  0  0  0  0  0  0  0  0  0  0
   45.6940   31.1840   43.0570 S   0  0  0  0  0  0  0  0  0  0  0  0
   48.5050   33.0490   43.9890 H   0  0  0  0  0  0  0  0  0  0  0  0
   49.2570   30.8480   42.9230 H   0  0  0  0  0  0  0  0  0  0  0  0
   47.4080   29.2460   42.1270 H   0  0  0  0  0  0  0  0  0  0  0  0
  1 20  1  0  0  0  0
  2  1  2  0  0  0  0
  2  7  1  0  0  0  0
  3  2  1  0  0  0  0
  4  3  1  0  0  0  0
  4  5  2  0  0  0  0
  5  1  1  0  0  0  0
  6  9  1  0  0  0  0
  6  4  1  0  0  0  0
  8  6  1  0  0  0  0
 10 19  1  0  0  0  0
 11 10  2  0  0  0  0
 11  3  1  0  0  0  0
 12 11  1  0  0  0  0
 13 12  1  0  0  0  0
 14 12  2  0  0  0  0
 14 16  1  0  0  0  0
 15 14  1  0  0  0  0
 16 17  2  0  0  0  0
 17 10  1  0  0  0  0
 19 18  3  0  0  0  0
 20 23  1  0  0  0  0
 21 20  2  0  0  0  0
 22 27  1  0  0  0  0
 23 22  2  0  0  0  0
 23 24  1  0  0  0  0
 24 25  2  0  0  0  0
 25 26  1  0  0  0  0
 26 29  1  0  0  0  0
 27 26  2  0  0  0  0
 28 22  1  0  0  0  0
 30 24  1  0  0  0  0
 31 30  2  0  0  0  0
 31 35  1  0  0  0  0
 32 31  1  0  0  0  0
 33 34  1  0  0  0  0
 33 32  2  0  0  0  0
 34 30  1  0  0  0  0
 36 32  1  0  0  0  0
 37 33  1  0  0  0  0
M  END
>  <minimizedAffinity>
-5.95402336

>  <minimizedRMSD>
1.26229072

$$$$
