
 OpenBabel03242522473D

 42 45  0  0  0  0  0  0  0  0999 V2000
   45.8160   34.5810   44.0040 C   0  0  0  0  0  0  0  0  0  0  0  0
   46.8550   33.8680   43.3930 C   0  0  0  0  0  0  0  0  0  0  0  0
   47.4730   32.7990   44.1040 C   0  0  0  0  0  0  0  0  0  0  0  0
   47.0050   32.5360   45.3480 N   0  0  0  0  0  0  0  0  0  0  0  0
   46.0050   33.2360   45.9150 C   0  0  0  0  0  0  0  0  0  0  0  0
   45.4330   34.2350   45.2420 N   0  0  0  0  0  0  0  0  0  0  0  0
   45.2100   35.6360   43.2980 N   0  0  0  0  0  0  0  0  0  0  0  0
   48.2720   32.2380   43.6560 H   0  0  0  0  0  0  0  0  0  0  0  0
   45.8390   36.2860   42.7720 H   0  0  0  0  0  0  0  0  0  0  0  0
   44.1700   35.7160   43.3350 H   0  0  0  0  0  0  0  0  0  0  0  0
   47.3410   34.1620   42.0640 C   0  0  0  0  0  0  0  0  0  0  0  0
   48.3050   35.0680   41.6880 C   0  0  0  0  0  0  0  0  0  0  0  0
   48.6530   35.2300   40.3620 C   0  0  0  0  0  0  0  0  0  0  0  0
   48.0440   34.4800   39.3480 C   0  0  0  0  0  0  0  0  0  0  0  0
   48.4530   34.7110   38.0970 N   0  0  0  0  0  0  0  0  0  0  0  0
   47.8680   33.9850   37.0870 C   0  0  0  0  0  0  0  0  0  0  0  0
   46.8920   33.0650   37.4450 C   0  0  0  0  0  0  0  0  0  0  0  0
   46.4830   32.8370   38.7360 C   0  0  0  0  0  0  0  0  0  0  0  0
   47.0780   33.5730   39.7360 C   0  0  0  0  0  0  0  0  0  0  0  0
   46.7190   33.4020   41.0680 C   0  0  0  0  0  0  0  0  0  0  0  0
   48.7480   35.6230   42.5040 H   0  0  0  0  0  0  0  0  0  0  0  0
   49.4140   35.9510   40.1010 H   0  0  0  0  0  0  0  0  0  0  0  0
   48.1460   34.1160   36.0500 H   0  0  0  0  0  0  0  0  0  0  0  0
   46.4020   32.4700   36.6810 H   0  0  0  0  0  0  0  0  0  0  0  0
   45.7160   32.1100   38.9860 H   0  0  0  0  0  0  0  0  0  0  0  0
   45.9520   32.6640   41.2460 H   0  0  0  0  0  0  0  0  0  0  0  0
   45.5650   32.8620   47.2980 C   0  0  0  0  0  0  0  0  0  0  0  0
   46.4300   33.1210   47.9610 H   0  0  0  0  0  0  0  0  0  0  0  0
   44.6310   33.3250   47.6060 H   0  0  0  0  0  0  0  0  0  0  0  0
   45.4670   31.3240   47.3750 C   0  0  0  0  0  0  0  0  0  0  0  0
   45.3290   30.9140   46.3450 H   0  0  0  0  0  0  0  0  0  0  0  0
   44.6650   31.0470   48.0560 H   0  0  0  0  0  0  0  0  0  0  0  0
   47.3380   29.6290   47.4830 C   0  0  0  0  0  0  0  0  0  0  0  0
   46.7770   30.8250   47.8760 C   0  0  0  0  0  0  0  0  0  0  0  0
   47.4890   31.5840   48.7870 C   0  0  0  0  0  0  0  0  0  0  0  0
   47.0400   32.5340   49.0990 H   0  0  0  0  0  0  0  0  0  0  0  0
   48.7080   31.2640   49.3430 C   0  0  0  0  0  0  0  0  0  0  0  0
   49.1730   31.9400   50.0480 H   0  0  0  0  0  0  0  0  0  0  0  0
   49.2340   30.0610   48.9240 C   0  0  0  0  0  3  0  0  0  0  0  0
   48.5760   29.2460   48.0120 C   0  0  0  0  0  3  0  0  0  0  0  0
   46.0630   28.1600   45.7620 N   0  0  0  0  0  0  0  0  0  0  0  0
   46.6280   28.8150   46.5400 C   0  0  0  0  0  0  0  0  0  0  0  0
  1  6  1  0  0  0  0
  2  1  2  0  0  0  0
  2  3  1  0  0  0  0
  3  4  2  0  0  0  0
  4  5  1  0  0  0  0
  5 27  1  0  0  0  0
  6  5  2  0  0  0  0
  7 10  1  0  0  0  0
  7  1  1  0  0  0  0
  8  3  1  0  0  0  0
  9  7  1  0  0  0  0
 11  2  1  0  0  0  0
 12 11  1  0  0  0  0
 12 21  1  0  0  0  0
 13 12  2  0  0  0  0
 14 19  1  0  0  0  0
 14 13  1  0  0  0  0
 15 14  2  0  0  0  0
 16 17  2  0  0  0  0
 16 15  1  0  0  0  0
 17 18  1  0  0  0  0
 18 25  1  0  0  0  0
 18 19  2  0  0  0  0
 19 20  1  0  0  0  0
 20 26  1  0  0  0  0
 20 11  2  0  0  0  0
 22 13  1  0  0  0  0
 23 16  1  0  0  0  0
 24 17  1  0  0  0  0
 27 30  1  0  0  0  0
 27 29  1  0  0  0  0
 27 28  1  0  0  0  0
 30 34  1  0  0  0  0
 30 32  1  0  0  0  0
 31 30  1  0  0  0  0
 33 34  2  0  0  0  0
 33 40  1  0  0  0  0
 34 35  1  0  0  0  0
 35 36  1  0  0  0  0
 35 37  2  0  0  0  0
 37 38  1  0  0  0  0
 39 37  1  0  0  0  0
 40 39  2  0  0  0  0
 41 42  3  0  0  0  0
 42 33  1  0  0  0  0
M  END
>  <minimizedAffinity>
-6.38060236

>  <minimizedRMSD>
3.01101828

$$$$
