
 OpenBabel03242517283D

 41 43  0  0  1  0  0  0  0  0999 V2000
   44.9940   34.6600   44.9470 C   0  0  0  0  0  0  0  0  0  0  0  0
   45.8960   34.6010   43.8470 C   0  0  0  0  0  0  0  0  0  0  0  0
   46.9990   33.7330   43.9560 C   0  0  0  0  0  0  0  0  0  0  0  0
   47.1450   33.0050   45.0900 N   0  0  0  0  0  0  0  0  0  0  0  0
   46.2790   33.0810   46.1140 C   0  0  0  0  0  0  0  0  0  0  0  0
   45.2210   33.9060   46.0240 N   0  0  0  0  0  0  0  0  0  0  0  0
   46.4980   32.2960   47.2540 N   0  0  0  0  0  0  0  0  0  0  0  0
   47.7180   32.4340   47.9970 C   0  0  0  0  0  0  0  0  0  0  0  0
   47.9960   31.2860   48.9170 C   0  0  0  0  0  0  0  0  0  0  0  0
   46.8570   30.6580   49.4910 N   0  0  0  0  0  0  0  0  0  0  0  0
   45.6090   31.2940   49.1660 C   0  0  0  0  0  0  0  0  0  0  0  0
   45.4720   31.3500   47.6650 C   0  0  2  0  0  0  0  0  0  0  0  0
   44.1490   35.3280   44.8580 H   0  0  0  0  0  0  0  0  0  0  0  0
   45.7890   35.1690   42.9520 H   0  0  0  0  0  0  0  0  0  0  0  0
   47.7280   33.6400   43.1480 H   0  0  0  0  0  0  0  0  0  0  0  0
   47.7730   33.4110   48.5490 H   0  0  0  0  0  0  0  0  0  0  0  0
   48.5490   32.4680   47.2570 H   0  0  0  0  0  0  0  0  0  0  0  0
   48.6320   30.5090   48.4410 H   0  0  0  0  0  0  0  0  0  0  0  0
   48.6050   31.6950   49.7670 H   0  0  0  0  0  0  0  0  0  0  0  0
   46.8380   29.6340   49.5050 H   0  0  0  0  0  0  0  0  0  0  0  0
   44.7910   30.6920   49.6060 H   0  0  0  0  0  0  0  0  0  0  0  0
   45.5840   32.3200   49.5520 H   0  0  0  0  0  0  0  0  0  0  0  0
   44.4880   31.8040   47.4360 H   0  0  0  0  0  0  0  0  0  0  0  0
   45.6560   30.0090   47.0330 C   0  0  0  0  0  0  0  0  0  0  0  0
   45.3350   30.0500   45.9790 H   0  0  0  0  0  0  0  0  0  0  0  0
   46.7210   29.7180   47.1680 H   0  0  0  0  0  0  0  0  0  0  0  0
   44.8360   29.0180   47.8280 C   0  0  0  0  0  0  0  0  0  0  0  0
   45.1250   27.7340   47.8280 C   0  0  0  0  0  0  0  0  0  0  0  0
   44.3640   26.6930   48.5840 C   0  0  0  0  0  0  0  0  0  0  0  0
   43.5270   27.1080   49.1590 H   0  0  0  0  0  0  0  0  0  0  0  0
   45.0620   26.1000   49.2130 H   0  0  0  0  0  0  0  0  0  0  0  0
   44.3700   24.5560   47.2050 C   0  0  0  0  0  0  0  0  0  0  0  0
   43.8080   25.7700   47.5550 C   0  0  0  0  0  0  0  0  0  0  0  0
   42.6350   26.1210   46.8750 C   0  0  0  0  0  0  0  0  0  0  0  0
   42.1930   27.0780   47.1520 H   0  0  0  0  0  0  0  0  0  0  0  0
   42.0150   25.3600   45.9030 C   0  0  0  0  0  0  0  0  0  0  0  0
   41.1180   25.7440   45.4550 H   0  0  0  0  0  0  0  0  0  0  0  0
   42.6090   24.1590   45.5840 C   0  0  0  0  0  0  0  0  0  0  0  0
   43.7590   23.7730   46.2250 C   0  0  0  0  0  0  0  0  0  0  0  0
   46.5270   23.8210   48.4110 N   0  0  0  0  0  0  0  0  0  0  0  0
   45.5610   24.1550   47.8670 C   0  0  0  0  0  0  0  0  0  0  0  0
  1  6  1  0  0  0  0
  2  3  1  0  0  0  0
  2  1  2  0  0  0  0
  3  4  2  0  0  0  0
  4  5  1  0  0  0  0
  5  7  1  0  0  0  0
  6  5  2  0  0  0  0
  7 12  1  0  0  0  0
  7  8  1  0  0  0  0
  8 16  1  0  0  0  0
  8  9  1  0  0  0  0
  9 10  1  0  0  0  0
  9 19  1  0  0  0  0
 10 20  1  0  0  0  0
 11 10  1  0  0  0  0
 11 22  1  0  0  0  0
 11 21  1  0  0  0  0
 12 23  1  6  0  0  0
 12 11  1  0  0  0  0
 13  1  1  0  0  0  0
 14  2  1  0  0  0  0
 15  3  1  0  0  0  0
 17  8  1  0  0  0  0
 18  9  1  0  0  0  0
 24 26  1  0  0  0  0
 24 12  1  0  0  0  0
 24 27  1  0  0  0  0
 25 24  1  0  0  0  0
 28 27  2  0  0  0  0
 28 29  1  0  0  0  0
 29 30  1  0  0  0  0
 29 31  1  0  0  0  0
 32 33  1  0  0  0  0
 32 41  1  0  0  0  0
 33 29  1  0  0  0  0
 34 35  1  0  0  0  0
 34 33  2  0  0  0  0
 36 34  1  0  0  0  0
 37 36  1  0  0  0  0
 38 36  2  0  0  0  0
 38 39  1  0  0  0  0
 39 32  2  0  0  0  0
 41 40  3  0  0  0  0
M  END
>  <minimizedAffinity>
-5.71382189

>  <minimizedRMSD>
1.29940212

$$$$
