
 OpenBabel03252504483D

 28 29  0  0  0  0  0  0  0  0999 V2000
   37.9490   29.3480   43.0400 O   0  0  0  0  0  0  0  0  0  0  0  0
   37.0480   28.3720   42.2700 P   0  0  1  0  0  0  0  0  0  0  0  0
   36.1580   27.5680   43.4870 O   0  0  0  0  0  0  0  0  0  0  0  0
   36.0360   26.6190   43.3060 H   0  0  0  0  0  0  0  0  0  0  0  0
   36.0410   29.3190   41.2910 O   0  0  0  0  0  0  0  0  0  0  0  0
   37.1290   32.2090   39.4330 C   0  0  0  0  0  0  0  0  0  0  0  0
   37.3170   31.6710   38.1670 C   0  0  0  0  0  0  0  0  0  0  0  0
   37.0550   30.3110   38.0060 C   0  0  0  0  0  0  0  0  0  0  0  0
   36.6400   29.5930   39.0690 N   0  0  0  0  0  0  0  0  0  0  0  0
   36.4720   30.1760   40.2920 C   0  0  0  0  0  0  0  0  0  0  0  0
   36.7170   31.4950   40.4840 N   0  0  0  0  0  0  0  0  0  0  0  0
   37.6490   32.2810   37.3480 H   0  0  0  0  0  0  0  0  0  0  0  0
   37.1960   29.8810   37.0330 H   0  0  0  0  0  0  0  0  0  0  0  0
   37.4190   33.6790   39.5980 C   0  0  0  0  0  0  0  0  0  0  0  0
   37.1080   34.2260   38.6860 H   0  0  0  0  0  0  0  0  0  0  0  0
   38.5260   33.7410   39.7120 H   0  0  0  0  0  0  0  0  0  0  0  0
   36.9470   34.0480   40.5160 H   0  0  0  0  0  0  0  0  0  0  0  0
   37.8820   27.2400   41.4090 O   0  0  0  0  0  0  0  0  0  0  0  0
   38.0980   24.7210   41.5690 C   0  0  0  0  0  0  0  0  0  0  0  0
   37.6490   25.9370   41.1230 C   0  0  0  0  0  0  0  0  0  0  0  0
   36.6930   25.8870   40.0970 C   0  0  0  0  0  0  0  0  0  0  0  0
   36.1810   26.7110   39.5720 H   0  0  0  0  0  0  0  0  0  0  0  0
   36.2320   24.6760   39.5690 C   0  0  0  0  0  0  0  0  0  0  0  0
   35.5010   24.5570   38.7840 H   0  0  0  0  0  0  0  0  0  0  0  0
   36.7200   23.4820   40.0590 C   0  0  0  0  0  3  0  0  0  0  0  0
   37.6610   23.5170   41.0660 C   0  0  0  0  0  3  0  0  0  0  0  0
   39.8670   24.8740   43.4460 N   0  0  0  0  0  0  0  0  0  0  0  0
   39.0690   24.8140   42.6100 C   0  0  0  0  0  0  0  0  0  0  0  0
  2  1  2  1  0  0  0
  2  3  1  0  0  0  0
  4  3  1  0  0  0  0
  5  2  1  0  0  0  0
  6 14  1  0  0  0  0
  6 11  1  0  0  0  0
  7  6  2  0  0  0  0
  8  7  1  0  0  0  0
  8  9  2  0  0  0  0
  9 10  1  0  0  0  0
 10 11  2  0  0  0  0
 10  5  1  0  0  0  0
 12  7  1  0  0  0  0
 13  8  1  0  0  0  0
 14 16  1  0  0  0  0
 14 17  1  0  0  0  0
 15 14  1  0  0  0  0
 18  2  1  0  0  0  0
 19 28  1  0  0  0  0
 20 18  1  0  0  0  0
 20 19  1  0  0  0  0
 21 20  2  0  0  0  0
 22 21  1  0  0  0  0
 23 25  2  0  0  0  0
 23 21  1  0  0  0  0
 24 23  1  0  0  0  0
 25 26  1  0  0  0  0
 26 19  2  0  0  0  0
 28 27  3  0  0  0  0
M  END
>  <minimizedAffinity>
-5.11642933

$$$$

 OpenBabel03252504483D

 28 29  0  0  0  0  0  0  0  0999 V2000
   37.9890   31.9260   40.4830 O   0  0  0  0  0  0  0  0  0  0  0  0
   37.3970   30.6370   41.0700 P   0  0  1  0  0  0  0  0  0  0  0  0
   35.7660   31.0300   41.4000 O   0  0  0  0  0  0  0  0  0  0  0  0
   35.4430   30.6460   42.2340 H   0  0  0  0  0  0  0  0  0  0  0  0
   37.5150   29.4600   39.8570 O   0  0  0  0  0  0  0  0  0  0  0  0
   36.0150   29.2230   36.5880 C   0  0  0  0  0  0  0  0  0  0  0  0
   34.6940   28.9430   36.9090 C   0  0  0  0  0  0  0  0  0  0  0  0
   34.3710   28.8470   38.2620 C   0  0  0  0  0  0  0  0  0  0  0  0
   35.3410   29.0260   39.1810 N   0  0  0  0  0  0  0  0  0  0  0  0
   36.6260   29.3000   38.8070 C   0  0  0  0  0  0  0  0  0  0  0  0
   36.9740   29.4000   37.5010 N   0  0  0  0  0  0  0  0  0  0  0  0
   33.9540   28.8080   36.1430 H   0  0  0  0  0  0  0  0  0  0  0  0
   33.3530   28.6310   38.5250 H   0  0  0  0  0  0  0  0  0  0  0  0
   36.3550   29.3200   35.1230 C   0  0  0  0  0  0  0  0  0  0  0  0
   35.5160   29.7920   34.5750 H   0  0  0  0  0  0  0  0  0  0  0  0
   36.4740   28.2640   34.7870 H   0  0  0  0  0  0  0  0  0  0  0  0
   37.3110   29.8420   34.9990 H   0  0  0  0  0  0  0  0  0  0  0  0
   38.1080   30.1630   42.4800 O   0  0  0  0  0  0  0  0  0  0  0  0
   38.6510   27.8280   43.2970 C   0  0  0  0  0  0  0  0  0  0  0  0
   38.8660   29.0950   42.8210 C   0  0  0  0  0  0  0  0  0  0  0  0
   40.2110   29.4390   42.6120 C   0  0  0  0  0  0  0  0  0  0  0  0
   40.6460   30.3830   42.2410 H   0  0  0  0  0  0  0  0  0  0  0  0
   41.2550   28.5460   42.8710 C   0  0  0  0  0  0  0  0  0  0  0  0
   42.3090   28.7360   42.7350 H   0  0  0  0  0  0  0  0  0  0  0  0
   40.9770   27.2820   43.3490 C   0  0  0  0  0  3  0  0  0  0  0  0
   39.6610   26.9310   43.5600 C   0  0  0  0  0  3  0  0  0  0  0  0
   36.1570   27.2710   43.6790 N   0  0  0  0  0  0  0  0  0  0  0  0
   37.2720   27.5160   43.4970 C   0  0  0  0  0  0  0  0  0  0  0  0
  2  1  2  6  0  0  0
  2  3  1  0  0  0  0
  2 18  1  0  0  0  0
  3  4  1  0  0  0  0
  5  2  1  0  0  0  0
  6  7  2  0  0  0  0
  6 11  1  0  0  0  0
  7  8  1  0  0  0  0
  8 13  1  0  0  0  0
  8  9  2  0  0  0  0
 10  9  1  0  0  0  0
 10  5  1  0  0  0  0
 11 10  2  0  0  0  0
 12  7  1  0  0  0  0
 14  6  1  0  0  0  0
 15 14  1  0  0  0  0
 16 14  1  0  0  0  0
 17 14  1  0  0  0  0
 18 20  1  0  0  0  0
 19 28  1  0  0  0  0
 19 26  1  0  0  0  0
 20 19  2  0  0  0  0
 21 20  1  0  0  0  0
 21 23  2  0  0  0  0
 22 21  1  0  0  0  0
 23 25  1  0  0  0  0
 24 23  1  0  0  0  0
 25 26  2  0  0  0  0
 28 27  3  0  0  0  0
M  END
>  <minimizedAffinity>
-5.05472708

$$$$

 OpenBabel03252504483D

 28 29  0  0  0  0  0  0  0  0999 V2000
   35.0640   29.4240   40.6470 O   0  0  0  0  0  0  0  0  0  0  0  0
   36.5080   29.0590   41.0180 P   0  0  1  0  0  0  0  0  0  0  0  0
   36.6230   29.4220   42.6840 O   0  0  0  0  0  0  0  0  0  0  0  0
   37.4750   29.8230   42.9290 H   0  0  0  0  0  0  0  0  0  0  0  0
   36.6710   27.3970   40.7340 O   0  0  0  0  0  0  0  0  0  0  0  0
   39.3020   26.0490   42.7950 C   0  0  0  0  0  0  0  0  0  0  0  0
   39.0850   24.6850   42.6640 C   0  0  0  0  0  0  0  0  0  0  0  0
   38.0230   24.2800   41.8570 C   0  0  0  0  0  0  0  0  0  0  0  0
   37.2670   25.2180   41.2510 N   0  0  0  0  0  0  0  0  0  0  0  0
   37.5270   26.5490   41.4150 C   0  0  0  0  0  0  0  0  0  0  0  0
   38.5520   26.9760   42.1930 N   0  0  0  0  0  0  0  0  0  0  0  0
   39.7130   23.9720   43.1660 H   0  0  0  0  0  0  0  0  0  0  0  0
   37.8440   23.2280   41.7460 H   0  0  0  0  0  0  0  0  0  0  0  0
   40.4500   26.4760   43.6730 C   0  0  0  0  0  0  0  0  0  0  0  0
   41.2930   25.7660   43.5580 H   0  0  0  0  0  0  0  0  0  0  0  0
   40.0510   26.4180   44.7130 H   0  0  0  0  0  0  0  0  0  0  0  0
   40.7170   27.5160   43.4540 H   0  0  0  0  0  0  0  0  0  0  0  0
   37.6430   29.9490   40.2180 O   0  0  0  0  0  0  0  0  0  0  0  0
   39.0080   31.9620   40.9250 C   0  0  0  0  0  0  0  0  0  0  0  0
   38.0250   31.2460   40.2930 C   0  0  0  0  0  0  0  0  0  0  0  0
   37.1490   31.9990   39.4970 C   0  0  0  0  0  0  0  0  0  0  0  0
   36.2870   31.6670   38.8930 H   0  0  0  0  0  0  0  0  0  0  0  0
   37.2740   33.3850   39.3600 C   0  0  0  0  0  0  0  0  0  0  0  0
   36.6420   34.0290   38.7680 H   0  0  0  0  0  0  0  0  0  0  0  0
   38.2840   34.0530   40.0200 C   0  0  0  0  0  3  0  0  0  0  0  0
   39.1520   33.3260   40.8060 C   0  0  0  0  0  3  0  0  0  0  0  0
   40.5850   30.5010   42.3590 N   0  0  0  0  0  0  0  0  0  0  0  0
   39.8780   31.1630   41.7250 C   0  0  0  0  0  0  0  0  0  0  0  0
  2  1  2  6  0  0  0
  2  3  1  0  0  0  0
  3  4  1  0  0  0  0
  5  2  1  0  0  0  0
  5 10  1  0  0  0  0
  6 14  1  0  0  0  0
  7  6  1  0  0  0  0
  7 12  1  0  0  0  0
  8  7  2  0  0  0  0
  9 10  2  0  0  0  0
  9  8  1  0  0  0  0
 10 11  1  0  0  0  0
 11  6  2  0  0  0  0
 13  8  1  0  0  0  0
 14 16  1  0  0  0  0
 15 14  1  0  0  0  0
 17 14  1  0  0  0  0
 18 20  1  0  0  0  0
 18  2  1  0  0  0  0
 19 28  1  0  0  0  0
 20 19  2  0  0  0  0
 21 20  1  0  0  0  0
 22 21  1  0  0  0  0
 23 21  2  0  0  0  0
 23 25  1  0  0  0  0
 24 23  1  0  0  0  0
 25 26  2  0  0  0  0
 26 19  1  0  0  0  0
 28 27  3  0  0  0  0
M  END
>  <minimizedAffinity>
-5.00627422

$$$$

 OpenBabel03252504483D

 28 29  0  0  0  0  0  0  0  0999 V2000
   37.4380   29.4530   40.0660 O   0  0  0  0  0  0  0  0  0  0  0  0
   37.1230   29.9050   41.4980 P   0  0  1  0  0  0  0  0  0  0  0  0
   35.7720   30.9380   41.3290 O   0  0  0  0  0  0  0  0  0  0  0  0
   35.8120   31.7160   41.9130 H   0  0  0  0  0  0  0  0  0  0  0  0
   36.7260   28.5050   42.3660 O   0  0  0  0  0  0  0  0  0  0  0  0
   38.2540   25.2470   42.1640 C   0  0  0  0  0  0  0  0  0  0  0  0
   39.3200   25.3860   43.0410 C   0  0  0  0  0  0  0  0  0  0  0  0
   39.4700   26.6180   43.6760 C   0  0  0  0  0  0  0  0  0  0  0  0
   38.5860   27.6020   43.4120 N   0  0  0  0  0  0  0  0  0  0  0  0
   37.5540   27.4090   42.5390 C   0  0  0  0  0  0  0  0  0  0  0  0
   37.3800   26.2240   41.9050 N   0  0  0  0  0  0  0  0  0  0  0  0
   40.0000   24.5740   43.2220 H   0  0  0  0  0  0  0  0  0  0  0  0
   40.2900   26.7400   44.3570 H   0  0  0  0  0  0  0  0  0  0  0  0
   38.1040   23.9130   41.4800 C   0  0  0  0  0  0  0  0  0  0  0  0
   38.3860   23.1010   42.1780 H   0  0  0  0  0  0  0  0  0  0  0  0
   38.8260   23.9450   40.6310 H   0  0  0  0  0  0  0  0  0  0  0  0
   37.0880   23.8150   41.0780 H   0  0  0  0  0  0  0  0  0  0  0  0
   38.3410   30.7620   42.2070 O   0  0  0  0  0  0  0  0  0  0  0  0
   39.5650   32.4870   40.8140 C   0  0  0  0  0  0  0  0  0  0  0  0
   39.3840   31.4680   41.7140 C   0  0  0  0  0  0  0  0  0  0  0  0
   40.5550   30.9860   42.3180 C   0  0  0  0  0  0  0  0  0  0  0  0
   40.6810   30.1830   43.0650 H   0  0  0  0  0  0  0  0  0  0  0  0
   41.8160   31.5110   42.0210 C   0  0  0  0  0  0  0  0  0  0  0  0
   42.7580   31.1940   42.4440 H   0  0  0  0  0  0  0  0  0  0  0  0
   41.9360   32.5370   41.1070 C   0  0  0  0  0  3  0  0  0  0  0  0
   40.7950   33.0200   40.5040 C   0  0  0  0  0  3  0  0  0  0  0  0
   37.3600   33.3170   39.7530 N   0  0  0  0  0  0  0  0  0  0  0  0
   38.3530   32.9500   40.2200 C   0  0  0  0  0  0  0  0  0  0  0  0
  2  1  2  6  0  0  0
  2 18  1  0  0  0  0
  2  5  1  0  0  0  0
  3  2  1  0  0  0  0
  3  4  1  0  0  0  0
  5 10  1  0  0  0  0
  6  7  1  0  0  0  0
  7 12  1  0  0  0  0
  7  8  2  0  0  0  0
  8 13  1  0  0  0  0
  9  8  1  0  0  0  0
 10  9  2  0  0  0  0
 11  6  2  0  0  0  0
 11 10  1  0  0  0  0
 14  6  1  0  0  0  0
 14 15  1  0  0  0  0
 16 14  1  0  0  0  0
 17 14  1  0  0  0  0
 19 20  1  0  0  0  0
 20 18  1  0  0  0  0
 20 21  2  0  0  0  0
 21 22  1  0  0  0  0
 23 21  1  0  0  0  0
 23 24  1  0  0  0  0
 25 23  2  0  0  0  0
 26 19  2  0  0  0  0
 26 25  1  0  0  0  0
 27 28  3  0  0  0  0
 28 19  1  0  0  0  0
M  END
>  <minimizedAffinity>
-4.99791098

$$$$

 OpenBabel03252504483D

 28 29  0  0  0  0  0  0  0  0999 V2000
   37.1710   32.2180   39.9290 O   0  0  0  0  0  0  0  0  0  0  0  0
   37.0470   30.8320   40.5780 P   0  0  1  0  0  0  0  0  0  0  0  0
   35.4490   30.7870   41.1820 O   0  0  0  0  0  0  0  0  0  0  0  0
   35.3820   30.3510   42.0500 H   0  0  0  0  0  0  0  0  0  0  0  0
   37.2720   29.7000   39.3380 O   0  0  0  0  0  0  0  0  0  0  0  0
   35.7350   29.2810   36.1040 C   0  0  0  0  0  0  0  0  0  0  0  0
   34.4440   28.9140   36.4570 C   0  0  0  0  0  0  0  0  0  0  0  0
   34.1520   28.8260   37.8170 C   0  0  0  0  0  0  0  0  0  0  0  0
   35.1230   29.0960   38.7130 N   0  0  0  0  0  0  0  0  0  0  0  0
   36.3780   29.4520   38.3090 C   0  0  0  0  0  0  0  0  0  0  0  0
   36.6950   29.5480   36.9950 N   0  0  0  0  0  0  0  0  0  0  0  0
   33.7020   28.7090   35.7080 H   0  0  0  0  0  0  0  0  0  0  0  0
   33.1580   28.5440   38.1040 H   0  0  0  0  0  0  0  0  0  0  0  0
   36.0410   29.3690   34.6320 C   0  0  0  0  0  0  0  0  0  0  0  0
   35.1610   29.7670   34.0900 H   0  0  0  0  0  0  0  0  0  0  0  0
   36.2310   28.3160   34.3160 H   0  0  0  0  0  0  0  0  0  0  0  0
   36.9550   29.9540   34.4780 H   0  0  0  0  0  0  0  0  0  0  0  0
   38.0820   30.5970   41.8410 O   0  0  0  0  0  0  0  0  0  0  0  0
   39.8930   28.9900   42.5830 C   0  0  0  0  0  0  0  0  0  0  0  0
   38.6310   29.4910   42.3940 C   0  0  0  0  0  0  0  0  0  0  0  0
   37.5870   28.6900   42.8820 C   0  0  0  0  0  0  0  0  0  0  0  0
   36.4970   28.8640   42.8560 H   0  0  0  0  0  0  0  0  0  0  0  0
   37.8220   27.4670   43.5170 C   0  0  0  0  0  0  0  0  0  0  0  0
   37.0750   26.7990   43.9170 H   0  0  0  0  0  0  0  0  0  0  0  0
   39.1150   27.0140   43.6790 C   0  0  0  0  0  3  0  0  0  0  0  0
   40.1510   27.7890   43.2040 C   0  0  0  0  0  3  0  0  0  0  0  0
   41.7700   30.5180   41.6790 N   0  0  0  0  0  0  0  0  0  0  0  0
   40.9280   29.8310   42.0730 C   0  0  0  0  0  0  0  0  0  0  0  0
  2  1  2  6  0  0  0
  2  3  1  0  0  0  0
  2 18  1  0  0  0  0
  3  4  1  0  0  0  0
  5  2  1  0  0  0  0
  6  7  2  0  0  0  0
  6 11  1  0  0  0  0
  7  8  1  0  0  0  0
  8 13  1  0  0  0  0
  8  9  2  0  0  0  0
 10  9  1  0  0  0  0
 10  5  1  0  0  0  0
 11 10  2  0  0  0  0
 12  7  1  0  0  0  0
 14  6  1  0  0  0  0
 15 14  1  0  0  0  0
 16 14  1  0  0  0  0
 17 14  1  0  0  0  0
 18 20  1  0  0  0  0
 19 26  1  0  0  0  0
 20 19  2  0  0  0  0
 20 21  1  0  0  0  0
 21 23  2  0  0  0  0
 22 21  1  0  0  0  0
 23 25  1  0  0  0  0
 23 24  1  0  0  0  0
 26 25  2  0  0  0  0
 27 28  3  0  0  0  0
 28 19  1  0  0  0  0
M  END
>  <minimizedAffinity>
-4.97036219

$$$$

 OpenBabel03252504483D

 28 29  0  0  0  0  0  0  0  0999 V2000
   36.6000   31.5080   39.0180 O   0  0  0  0  0  0  0  0  0  0  0  0
   37.0960   31.1190   40.4180 P   0  0  1  0  0  0  0  0  0  0  0  0
   35.6880   31.1370   41.3870 O   0  0  0  0  0  0  0  0  0  0  0  0
   35.8420   31.5050   42.2750 H   0  0  0  0  0  0  0  0  0  0  0  0
   37.7330   29.5550   40.2820 O   0  0  0  0  0  0  0  0  0  0  0  0
   37.1960   26.2930   41.7170 C   0  0  0  0  0  0  0  0  0  0  0  0
   36.9370   26.6120   43.0430 C   0  0  0  0  0  0  0  0  0  0  0  0
   36.9590   27.9620   43.3920 C   0  0  0  0  0  0  0  0  0  0  0  0
   37.2270   28.8790   42.4410 N   0  0  0  0  0  0  0  0  0  0  0  0
   37.4740   28.5080   41.1500 C   0  0  0  0  0  0  0  0  0  0  0  0
   37.4610   27.2050   40.7770 N   0  0  0  0  0  0  0  0  0  0  0  0
   36.7280   25.8470   43.7670 H   0  0  0  0  0  0  0  0  0  0  0  0
   36.7610   28.2230   44.4130 H   0  0  0  0  0  0  0  0  0  0  0  0
   37.1740   24.8310   41.3520 C   0  0  0  0  0  0  0  0  0  0  0  0
   36.3800   24.3140   41.9250 H   0  0  0  0  0  0  0  0  0  0  0  0
   38.1730   24.4440   41.6620 H   0  0  0  0  0  0  0  0  0  0  0  0
   37.0750   24.7230   40.2650 H   0  0  0  0  0  0  0  0  0  0  0  0
   38.1770   32.1870   41.0590 O   0  0  0  0  0  0  0  0  0  0  0  0
   40.6980   31.9510   41.1020 C   0  0  0  0  0  0  0  0  0  0  0  0
   39.4700   32.4730   40.7840 C   0  0  0  0  0  0  0  0  0  0  0  0
   39.4940   33.6050   39.9560 C   0  0  0  0  0  0  0  0  0  0  0  0
   38.6560   34.2050   39.5610 H   0  0  0  0  0  0  0  0  0  0  0  0
   40.6900   34.1600   39.4890 C   0  0  0  0  0  0  0  0  0  0  0  0
   40.7880   35.0260   38.8510 H   0  0  0  0  0  0  0  0  0  0  0  0
   41.8960   33.5910   39.8420 C   0  0  0  0  0  3  0  0  0  0  0  0
   41.8880   32.4790   40.6560 C   0  0  0  0  0  3  0  0  0  0  0  0
   40.5610   29.8730   42.6310 N   0  0  0  0  0  0  0  0  0  0  0  0
   40.6330   30.8020   41.9450 C   0  0  0  0  0  0  0  0  0  0  0  0
  2  1  2  6  0  0  0
  2 18  1  0  0  0  0
  2  3  1  0  0  0  0
  3  4  1  0  0  0  0
  5  2  1  0  0  0  0
  5 10  1  0  0  0  0
  6  7  1  0  0  0  0
  7  8  2  0  0  0  0
  7 12  1  0  0  0  0
  8 13  1  0  0  0  0
  9  8  1  0  0  0  0
 10  9  2  0  0  0  0
 11 10  1  0  0  0  0
 11  6  2  0  0  0  0
 14 16  1  0  0  0  0
 14  6  1  0  0  0  0
 14 15  1  0  0  0  0
 17 14  1  0  0  0  0
 19 28  1  0  0  0  0
 20 18  1  0  0  0  0
 20 19  1  0  0  0  0
 21 20  2  0  0  0  0
 22 21  1  0  0  0  0
 23 25  2  0  0  0  0
 23 21  1  0  0  0  0
 24 23  1  0  0  0  0
 25 26  1  0  0  0  0
 26 19  2  0  0  0  0
 28 27  3  0  0  0  0
M  END
>  <minimizedAffinity>
-4.95446634

$$$$

 OpenBabel03252504483D

 28 29  0  0  0  0  0  0  0  0999 V2000
   37.7160   28.7000   43.6650 O   0  0  0  0  0  0  0  0  0  0  0  0
   37.8920   29.1610   42.2110 P   0  0  1  0  0  0  0  0  0  0  0  0
   36.3860   29.8580   41.8020 O   0  0  0  0  0  0  0  0  0  0  0  0
   36.1050   29.6510   40.8930 H   0  0  0  0  0  0  0  0  0  0  0  0
   39.1270   30.3210   42.2220 O   0  0  0  0  0  0  0  0  0  0  0  0
   38.2470   33.0740   40.0700 C   0  0  0  0  0  0  0  0  0  0  0  0
   39.4580   33.7430   39.9660 C   0  0  0  0  0  0  0  0  0  0  0  0
   40.5460   33.2080   40.6540 C   0  0  0  0  0  0  0  0  0  0  0  0
   40.3730   32.0830   41.3780 N   0  0  0  0  0  0  0  0  0  0  0  0
   39.1570   31.4660   41.4440 C   0  0  0  0  0  0  0  0  0  0  0  0
   38.0790   31.9600   40.7870 N   0  0  0  0  0  0  0  0  0  0  0  0
   39.5500   34.6370   39.3780 H   0  0  0  0  0  0  0  0  0  0  0  0
   41.4890   33.7150   40.5830 H   0  0  0  0  0  0  0  0  0  0  0  0
   37.0770   33.6640   39.3260 C   0  0  0  0  0  0  0  0  0  0  0  0
   37.4220   34.0870   38.3620 H   0  0  0  0  0  0  0  0  0  0  0  0
   36.7050   34.4840   39.9830 H   0  0  0  0  0  0  0  0  0  0  0  0
   36.2880   32.9100   39.2190 H   0  0  0  0  0  0  0  0  0  0  0  0
   38.1930   27.9300   41.1570 O   0  0  0  0  0  0  0  0  0  0  0  0
   38.2140   25.4920   41.8440 C   0  0  0  0  0  0  0  0  0  0  0  0
   37.8610   26.6180   41.1460 C   0  0  0  0  0  0  0  0  0  0  0  0
   36.9040   26.4250   40.1370 C   0  0  0  0  0  0  0  0  0  0  0  0
   36.4580   27.1580   39.4420 H   0  0  0  0  0  0  0  0  0  0  0  0
   36.3510   25.1700   39.8670 C   0  0  0  0  0  0  0  0  0  0  0  0
   35.6140   24.9440   39.1110 H   0  0  0  0  0  0  0  0  0  0  0  0
   36.7450   24.0720   40.6030 C   0  0  0  0  0  3  0  0  0  0  0  0
   37.6850   24.2460   41.5960 C   0  0  0  0  0  3  0  0  0  0  0  0
   39.9850   25.9000   43.6800 N   0  0  0  0  0  0  0  0  0  0  0  0
   39.1880   25.7270   42.8590 C   0  0  0  0  0  0  0  0  0  0  0  0
  2  5  1  0  0  0  0
  2  1  2  1  0  0  0
  3  2  1  0  0  0  0
  4  3  1  0  0  0  0
  6 11  1  0  0  0  0
  7  6  2  0  0  0  0
  7  8  1  0  0  0  0
  8  9  2  0  0  0  0
  9 10  1  0  0  0  0
 10  5  1  0  0  0  0
 11 10  2  0  0  0  0
 12  7  1  0  0  0  0
 13  8  1  0  0  0  0
 14 16  1  0  0  0  0
 14  6  1  0  0  0  0
 15 14  1  0  0  0  0
 17 14  1  0  0  0  0
 18  2  1  0  0  0  0
 19 28  1  0  0  0  0
 20 18  1  0  0  0  0
 20 19  2  0  0  0  0
 21 20  1  0  0  0  0
 22 21  1  0  0  0  0
 23 21  2  0  0  0  0
 23 25  1  0  0  0  0
 24 23  1  0  0  0  0
 25 26  2  0  0  0  0
 26 19  1  0  0  0  0
 28 27  3  0  0  0  0
M  END
>  <minimizedAffinity>
-4.92662239

$$$$

 OpenBabel03252504483D

 28 29  0  0  0  0  0  0  0  0999 V2000
   39.7700   31.5560   39.4510 O   0  0  0  0  0  0  0  0  0  0  0  0
   39.0190   31.4070   40.7810 P   0  0  1  0  0  0  0  0  0  0  0  0
   39.6370   32.6640   41.7600 O   0  0  0  0  0  0  0  0  0  0  0  0
   39.7660   32.3970   42.6870 H   0  0  0  0  0  0  0  0  0  0  0  0
   37.3770   31.6430   40.4340 O   0  0  0  0  0  0  0  0  0  0  0  0
   35.8340   29.5990   37.8980 C   0  0  0  0  0  0  0  0  0  0  0  0
   34.8500   28.9480   38.6280 C   0  0  0  0  0  0  0  0  0  0  0  0
   34.7590   29.2460   39.9870 C   0  0  0  0  0  0  0  0  0  0  0  0
   35.6170   30.1380   40.5200 N   0  0  0  0  0  0  0  0  0  0  0  0
   36.5670   30.7500   39.7530 C   0  0  0  0  0  0  0  0  0  0  0  0
   36.6830   30.4840   38.4300 N   0  0  0  0  0  0  0  0  0  0  0  0
   34.1870   28.2430   38.1610 H   0  0  0  0  0  0  0  0  0  0  0  0
   34.0020   28.7490   40.5640 H   0  0  0  0  0  0  0  0  0  0  0  0
   35.9270   29.2670   36.4310 C   0  0  0  0  0  0  0  0  0  0  0  0
   34.9120   29.1090   36.0180 H   0  0  0  0  0  0  0  0  0  0  0  0
   36.5000   28.3110   36.3910 H   0  0  0  0  0  0  0  0  0  0  0  0
   36.4990   30.0440   35.9110 H   0  0  0  0  0  0  0  0  0  0  0  0
   39.3010   29.9730   41.5460 O   0  0  0  0  0  0  0  0  0  0  0  0
   38.1300   27.7680   41.1190 C   0  0  0  0  0  0  0  0  0  0  0  0
   38.5290   28.8910   41.7980 C   0  0  0  0  0  0  0  0  0  0  0  0
   38.0400   29.0070   43.1080 C   0  0  0  0  0  0  0  0  0  0  0  0
   38.2090   29.8030   43.8540 H   0  0  0  0  0  0  0  0  0  0  0  0
   37.2040   28.0410   43.6780 C   0  0  0  0  0  0  0  0  0  0  0  0
   36.7900   28.0600   44.6750 H   0  0  0  0  0  0  0  0  0  0  0  0
   36.8360   26.9310   42.9460 C   0  0  0  0  0  3  0  0  0  0  0  0
   37.3080   26.8050   41.6570 C   0  0  0  0  0  3  0  0  0  0  0  0
   39.0620   27.6390   38.7130 N   0  0  0  0  0  0  0  0  0  0  0  0
   38.6470   27.6860   39.7910 C   0  0  0  0  0  0  0  0  0  0  0  0
  2  1  2  6  0  0  0
  2 18  1  0  0  0  0
  2  3  1  0  0  0  0
  3  4  1  0  0  0  0
  5  2  1  0  0  0  0
  6 11  2  0  0  0  0
  6  7  1  0  0  0  0
  7  8  2  0  0  0  0
  8  9  1  0  0  0  0
  8 13  1  0  0  0  0
 10  5  1  0  0  0  0
 10  9  2  0  0  0  0
 11 10  1  0  0  0  0
 12  7  1  0  0  0  0
 14  6  1  0  0  0  0
 15 14  1  0  0  0  0
 16 14  1  0  0  0  0
 17 14  1  0  0  0  0
 18 20  1  0  0  0  0
 19 26  2  0  0  0  0
 19 20  1  0  0  0  0
 20 21  2  0  0  0  0
 21 23  1  0  0  0  0
 21 22  1  0  0  0  0
 23 24  1  0  0  0  0
 25 23  2  0  0  0  0
 26 25  1  0  0  0  0
 27 28  3  0  0  0  0
 28 19  1  0  0  0  0
M  END
>  <minimizedAffinity>
-4.87180614

$$$$

 OpenBabel03252504483D

 28 29  0  0  0  0  0  0  0  0999 V2000
   39.1050   30.2350   42.8830 O   0  0  0  0  0  0  0  0  0  0  0  0
   38.1860   29.1450   42.3140 P   0  0  1  0  0  0  0  0  0  0  0  0
   36.6080   29.7660   42.5280 O   0  0  0  0  0  0  0  0  0  0  0  0
   35.9660   29.0880   42.7990 H   0  0  0  0  0  0  0  0  0  0  0  0
   38.5760   29.0000   40.6710 O   0  0  0  0  0  0  0  0  0  0  0  0
   35.6080   29.1300   38.6310 C   0  0  0  0  0  0  0  0  0  0  0  0
   36.1300   29.5270   37.4080 C   0  0  0  0  0  0  0  0  0  0  0  0
   37.5070   29.7350   37.3370 C   0  0  0  0  0  0  0  0  0  0  0  0
   38.2550   29.5470   38.4420 N   0  0  0  0  0  0  0  0  0  0  0  0
   37.6870   29.1550   39.6210 C   0  0  0  0  0  0  0  0  0  0  0  0
   36.3530   28.9430   39.7250 N   0  0  0  0  0  0  0  0  0  0  0  0
   35.4960   29.6650   36.5520 H   0  0  0  0  0  0  0  0  0  0  0  0
   37.9240   30.0420   36.3970 H   0  0  0  0  0  0  0  0  0  0  0  0
   34.1190   28.9110   38.6980 C   0  0  0  0  0  0  0  0  0  0  0  0
   33.7630   28.4670   37.7480 H   0  0  0  0  0  0  0  0  0  0  0  0
   33.6860   29.9310   38.8190 H   0  0  0  0  0  0  0  0  0  0  0  0
   33.8720   28.3140   39.5830 H   0  0  0  0  0  0  0  0  0  0  0  0
   38.2870   27.7070   43.1150 O   0  0  0  0  0  0  0  0  0  0  0  0
   39.2730   25.4160   42.6770 C   0  0  0  0  0  0  0  0  0  0  0  0
   38.3390   26.4190   42.7030 C   0  0  0  0  0  0  0  0  0  0  0  0
   37.0830   26.0850   42.1760 C   0  0  0  0  0  0  0  0  0  0  0  0
   36.1730   26.7020   42.0810 H   0  0  0  0  0  0  0  0  0  0  0  0
   36.8070   24.8140   41.6610 C   0  0  0  0  0  0  0  0  0  0  0  0
   35.8690   24.4830   41.2410 H   0  0  0  0  0  0  0  0  0  0  0  0
   37.7870   23.8440   41.6620 C   0  0  0  0  0  3  0  0  0  0  0  0
   39.0270   24.1580   42.1760 C   0  0  0  0  0  3  0  0  0  0  0  0
   41.5540   26.1010   43.6800 N   0  0  0  0  0  0  0  0  0  0  0  0
   40.5380   25.7940   43.2210 C   0  0  0  0  0  0  0  0  0  0  0  0
  2  3  1  0  0  0  0
  2  1  2  1  0  0  0
  2 18  1  0  0  0  0
  3  4  1  0  0  0  0
  5  2  1  0  0  0  0
  6 14  1  0  0  0  0
  6 11  1  0  0  0  0
  7  6  2  0  0  0  0
  8  7  1  0  0  0  0
  8  9  2  0  0  0  0
  9 10  1  0  0  0  0
 10 11  2  0  0  0  0
 10  5  1  0  0  0  0
 12  7  1  0  0  0  0
 13  8  1  0  0  0  0
 14 16  1  0  0  0  0
 14 17  1  0  0  0  0
 15 14  1  0  0  0  0
 19 20  1  0  0  0  0
 19 28  1  0  0  0  0
 20 18  1  0  0  0  0
 21 20  2  0  0  0  0
 22 21  1  0  0  0  0
 23 25  2  0  0  0  0
 23 21  1  0  0  0  0
 24 23  1  0  0  0  0
 25 26  1  0  0  0  0
 26 19  2  0  0  0  0
 28 27  3  0  0  0  0
M  END
>  <minimizedAffinity>
-4.83297348

$$$$
