
 OpenBabel03242511063D

 28 30  0  0  1  0  0  0  0  0999 V2000
   45.8830   32.2840   44.5400 C   0  0  1  0  0  0  0  0  0  0  0  0
   47.1160   31.6470   43.9670 C   0  0  0  0  0  0  0  0  0  0  0  0
   46.9660   31.9450   45.4710 C   0  0  2  0  0  0  0  0  0  0  0  0
   44.9640   31.6560   44.5560 H   0  0  0  0  0  0  0  0  0  0  0  0
   47.7020   32.3200   43.3390 H   0  0  0  0  0  0  0  0  0  0  0  0
   47.0210   30.5940   43.6370 H   0  0  0  0  0  0  0  0  0  0  0  0
   47.6830   32.7590   45.7780 H   0  0  0  0  0  0  0  0  0  0  0  0
   44.6810   35.7710   44.9000 C   0  0  0  0  0  0  0  0  0  0  0  0
   44.9890   36.3130   43.6030 C   0  0  0  0  0  0  0  0  0  0  0  0
   45.6150   35.4520   42.6460 C   0  0  0  0  0  0  0  0  0  0  0  0
   45.8840   34.1880   42.9950 N   0  0  0  0  0  0  0  0  0  0  0  0
   45.5780   33.7090   44.2320 C   0  0  0  0  0  0  0  0  0  0  0  0
   44.9880   34.4890   45.1640 N   0  0  0  0  0  0  0  0  0  0  0  0
   44.2100   36.4550   45.5910 H   0  0  0  0  0  0  0  0  0  0  0  0
   44.7490   37.3290   43.3850 H   0  0  0  0  0  0  0  0  0  0  0  0
   45.8340   35.8890   41.6800 H   0  0  0  0  0  0  0  0  0  0  0  0
   46.9360   30.8090   46.3310 N   0  0  0  0  0  0  0  0  0  0  0  0
   46.0910   30.2020   46.2080 H   0  0  0  0  0  0  0  0  0  0  0  0
   47.7940   30.8730   48.6060 C   0  0  0  0  0  0  0  0  0  0  0  0
   47.9170   30.4520   47.2980 C   0  0  0  0  0  0  0  0  0  0  0  0
   48.9980   29.6790   46.9340 C   0  0  0  0  0  0  0  0  0  0  0  0
   49.1600   29.3160   45.9410 H   0  0  0  0  0  0  0  0  0  0  0  0
   49.9630   29.3200   47.8570 C   0  0  0  0  0  0  0  0  0  0  0  0
   50.8310   28.7210   47.6490 H   0  0  0  0  0  0  0  0  0  0  0  0
   49.7780   29.7770   49.1580 C   0  0  0  0  0  0  0  0  0  0  0  0
   48.7220   30.5470   49.5740 C   0  0  0  0  0  0  0  0  0  0  0  0
   45.7120   32.3150   49.1880 N   0  0  0  0  0  0  0  0  0  0  0  0
   46.6390   31.6800   48.9280 C   0  0  0  0  0  0  0  0  0  0  0  0
  1  4  1  1  0  0  0
  1  3  1  0  0  0  0
  2  1  1  0  0  0  0
  2  3  1  0  0  0  0
  3  7  1  1  0  0  0
  3 17  1  0  0  0  0
  5  2  1  0  0  0  0
  6  2  1  0  0  0  0
  8 13  1  0  0  0  0
  8 14  1  0  0  0  0
  9  8  2  0  0  0  0
 10 11  2  0  0  0  0
 10  9  1  0  0  0  0
 11 12  1  0  0  0  0
 12  1  1  0  0  0  0
 12 13  2  0  0  0  0
 15  9  1  0  0  0  0
 16 10  1  0  0  0  0
 17 20  1  0  0  0  0
 18 17  1  0  0  0  0
 19 28  1  0  0  0  0
 19 26  1  0  0  0  0
 20 19  2  0  0  0  0
 21 20  1  0  0  0  0
 21 23  2  0  0  0  0
 22 21  1  0  0  0  0
 23 25  1  0  0  0  0
 24 23  1  0  0  0  0
 25 26  2  0  0  0  0
 28 27  3  0  0  0  0
M  END
>  <minimizedAffinity>
-4.46472311

>  <minimizedRMSD>
3.91119862

$$$$
