
 OpenBabel03242519253D

 41 44  0  0  0  0  0  0  0  0999 V2000
   47.8830   33.7270   42.8760 C   0  0  0  0  0  0  0  0  0  0  0  0
   48.5900   34.9320   42.7080 C   0  0  0  0  0  0  0  0  0  0  0  0
   49.9570   34.9060   42.3840 C   0  0  0  0  0  0  0  0  0  0  0  0
   50.5180   33.6630   42.2520 N   0  0  0  0  0  0  0  0  0  0  0  0
   49.8000   32.5100   42.4230 C   0  0  0  0  0  0  0  0  0  0  0  0
   48.5120   32.5590   42.7290 N   0  0  0  0  0  0  0  0  0  0  0  0
   48.2300   35.9430   42.7930 H   0  0  0  0  0  0  0  0  0  0  0  0
   50.5590   35.7790   42.2410 H   0  0  0  0  0  0  0  0  0  0  0  0
   46.4580   33.8790   43.2200 C   0  0  0  0  0  0  0  0  0  0  0  0
   45.7580   34.8860   42.4230 C   0  0  0  0  0  0  0  0  0  0  0  0
   45.3360   36.0890   43.1880 C   0  0  0  0  0  0  0  0  0  0  0  0
   44.5370   35.7580   44.4360 C   0  0  0  0  0  0  0  0  0  0  0  0
   44.9890   34.5020   45.1410 C   0  0  0  0  0  0  0  0  0  0  0  0
   46.4070   34.1440   44.7360 C   0  0  0  0  0  0  0  0  0  0  0  0
   45.9850   32.8570   43.1250 H   0  0  0  0  0  0  0  0  0  0  0  0
   46.3190   35.2210   41.5440 H   0  0  0  0  0  0  0  0  0  0  0  0
   44.8180   34.4270   41.9980 H   0  0  0  0  0  0  0  0  0  0  0  0
   44.6130   36.6550   42.5290 H   0  0  0  0  0  0  0  0  0  0  0  0
   46.1030   36.8100   43.4550 H   0  0  0  0  0  0  0  0  0  0  0  0
   43.4380   35.7320   44.2160 H   0  0  0  0  0  0  0  0  0  0  0  0
   44.6590   36.5800   45.1720 H   0  0  0  0  0  0  0  0  0  0  0  0
   44.3120   33.6600   44.8320 H   0  0  0  0  0  0  0  0  0  0  0  0
   44.9470   34.5550   46.2350 H   0  0  0  0  0  0  0  0  0  0  0  0
   47.0760   34.9980   44.9100 H   0  0  0  0  0  0  0  0  0  0  0  0
   46.7240   33.2390   45.2690 H   0  0  0  0  0  0  0  0  0  0  0  0
   50.5650   31.2760   42.2510 C   0  0  0  0  0  0  0  0  0  0  0  0
   51.5890   31.3000   41.3690 N   0  0  0  0  0  0  0  0  0  0  0  0
   52.1790   30.0950   41.3390 C   0  0  0  0  0  0  0  0  0  0  0  0
   51.5000   29.3140   42.2240 N   0  0  0  0  0  0  0  0  0  0  0  0
   50.5090   30.0340   42.7850 N   0  0  0  0  0  0  0  0  0  0  0  0
   53.0240   29.7310   40.7630 H   0  0  0  0  0  0  0  0  0  0  0  0
   51.0760   26.8510   42.0280 C   0  0  0  0  0  0  0  0  0  0  0  0
   51.6840   27.9520   42.6020 C   0  0  0  0  0  0  0  0  0  0  0  0
   52.5760   27.7820   43.6660 C   0  0  0  0  0  0  0  0  0  0  0  0
   53.0860   28.6180   44.1600 H   0  0  0  0  0  0  0  0  0  0  0  0
   52.8730   26.5280   44.1660 C   0  0  0  0  0  0  0  0  0  0  0  0
   53.5670   26.4130   44.9910 H   0  0  0  0  0  0  0  0  0  0  0  0
   52.2430   25.4470   43.5610 C   0  0  0  0  0  3  0  0  0  0  0  0
   51.3580   25.5850   42.5100 C   0  0  0  0  0  3  0  0  0  0  0  0
   49.4590   27.3080   40.0620 N   0  0  0  0  0  0  0  0  0  0  0  0
   50.1880   27.1090   40.9580 C   0  0  0  0  0  0  0  0  0  0  0  0
  1  9  1  0  0  0  0
  2  7  1  0  0  0  0
  2  1  2  0  0  0  0
  3  2  1  0  0  0  0
  4  3  2  0  0  0  0
  4  5  1  0  0  0  0
  5  6  2  0  0  0  0
  6  1  1  0  0  0  0
  8  3  1  0  0  0  0
  9 14  1  0  0  0  0
 10 11  1  0  0  0  0
 10  9  1  0  0  0  0
 11 19  1  0  0  0  0
 11 12  1  0  0  0  0
 12 13  1  0  0  0  0
 12 21  1  0  0  0  0
 13 23  1  0  0  0  0
 14 24  1  0  0  0  0
 14 13  1  0  0  0  0
 14 25  1  0  0  0  0
 15  9  1  0  0  0  0
 16 10  1  0  0  0  0
 17 10  1  0  0  0  0
 18 11  1  0  0  0  0
 20 12  1  0  0  0  0
 22 13  1  0  0  0  0
 26  5  1  0  0  0  0
 26 30  2  0  0  0  0
 27 26  1  0  0  0  0
 28 27  2  0  0  0  0
 28 29  1  0  0  0  0
 29 33  1  0  0  0  0
 29 30  1  0  0  0  0
 31 28  1  0  0  0  0
 32 39  2  0  0  0  0
 32 33  1  0  0  0  0
 33 34  2  0  0  0  0
 34 35  1  0  0  0  0
 34 36  1  0  0  0  0
 36 37  1  0  0  0  0
 38 36  2  0  0  0  0
 39 38  1  0  0  0  0
 40 41  3  0  0  0  0
 41 32  1  0  0  0  0
M  END
>  <minimizedAffinity>
-3.97999573

>  <minimizedRMSD>
0.325330913

$$$$
