
 OpenBabel03242517283D

 41 43  0  0  1  0  0  0  0  0999 V2000
   45.0120   34.6160   44.9370 C   0  0  0  0  0  0  0  0  0  0  0  0
   45.9180   34.5550   43.8390 C   0  0  0  0  0  0  0  0  0  0  0  0
   47.0240   33.6920   43.9550 C   0  0  0  0  0  0  0  0  0  0  0  0
   47.1690   32.9700   45.0920 N   0  0  0  0  0  0  0  0  0  0  0  0
   46.3000   33.0460   46.1140 C   0  0  0  0  0  0  0  0  0  0  0  0
   45.2390   33.8660   46.0170 N   0  0  0  0  0  0  0  0  0  0  0  0
   46.5190   32.2660   47.2570 N   0  0  0  0  0  0  0  0  0  0  0  0
   47.7360   32.4120   48.0020 C   0  0  0  0  0  0  0  0  0  0  0  0
   48.0160   31.2680   48.9280 C   0  0  0  0  0  0  0  0  0  0  0  0
   46.8780   30.6370   49.5010 N   0  0  0  0  0  0  0  0  0  0  0  0
   45.6290   31.2680   49.1700 C   0  0  0  0  0  0  0  0  0  0  0  0
   45.4960   31.3170   47.6690 C   0  0  2  0  0  0  0  0  0  0  0  0
   44.1650   35.2800   44.8430 H   0  0  0  0  0  0  0  0  0  0  0  0
   45.8110   35.1200   42.9420 H   0  0  0  0  0  0  0  0  0  0  0  0
   47.7550   33.5990   43.1490 H   0  0  0  0  0  0  0  0  0  0  0  0
   47.7850   33.3910   48.5510 H   0  0  0  0  0  0  0  0  0  0  0  0
   48.5690   32.4470   47.2650 H   0  0  0  0  0  0  0  0  0  0  0  0
   48.6560   30.4920   48.4560 H   0  0  0  0  0  0  0  0  0  0  0  0
   48.6210   31.6830   49.7780 H   0  0  0  0  0  0  0  0  0  0  0  0
   46.8630   29.6140   49.5190 H   0  0  0  0  0  0  0  0  0  0  0  0
   44.8120   30.6640   49.6100 H   0  0  0  0  0  0  0  0  0  0  0  0
   45.5980   32.2950   49.5520 H   0  0  0  0  0  0  0  0  0  0  0  0
   44.5110   31.7670   47.4350 H   0  0  0  0  0  0  0  0  0  0  0  0
   45.6860   29.9750   47.0420 C   0  0  0  0  0  0  0  0  0  0  0  0
   45.4980   30.0420   45.9580 H   0  0  0  0  0  0  0  0  0  0  0  0
   46.7110   29.6280   47.3000 H   0  0  0  0  0  0  0  0  0  0  0  0
   44.7270   29.0210   47.7170 C   0  0  0  0  0  3  0  0  0  0  0  0
   45.0500   27.7630   47.9330 C   0  0  0  0  0  3  0  0  0  0  0  0
   44.1590   26.7590   48.5900 C   0  0  0  0  0  0  0  0  0  0  0  0
   43.0960   27.0260   48.5310 H   0  0  0  0  0  0  0  0  0  0  0  0
   44.4970   26.5820   49.6330 H   0  0  0  0  0  0  0  0  0  0  0  0
   43.4880   24.9960   46.8860 C   0  0  0  0  0  0  0  0  0  0  0  0
   44.3600   25.4870   47.8410 C   0  0  0  0  0  0  0  0  0  0  0  0
   45.4960   24.7080   48.0910 C   0  0  0  0  0  0  0  0  0  0  0  0
   46.1810   25.0970   48.8440 H   0  0  0  0  0  0  0  0  0  0  0  0
   45.8010   23.5140   47.4680 C   0  0  0  0  0  0  0  0  0  0  0  0
   46.7080   23.0120   47.7520 H   0  0  0  0  0  0  0  0  0  0  0  0
   44.9080   23.0610   46.5250 C   0  0  0  0  0  3  0  0  0  0  0  0
   43.7800   23.7910   46.2450 C   0  0  0  0  0  3  0  0  0  0  0  0
   41.3720   26.3660   46.3500 N   0  0  0  0  0  0  0  0  0  0  0  0
   42.3200   25.7490   46.5950 C   0  0  0  0  0  0  0  0  0  0  0  0
  1  6  1  0  0  0  0
  2  3  1  0  0  0  0
  2  1  2  0  0  0  0
  3  4  2  0  0  0  0
  4  5  1  0  0  0  0
  5  7  1  0  0  0  0
  6  5  2  0  0  0  0
  7 12  1  0  0  0  0
  7  8  1  0  0  0  0
  8 16  1  0  0  0  0
  8  9  1  0  0  0  0
  9 10  1  0  0  0  0
  9 19  1  0  0  0  0
 10 20  1  0  0  0  0
 11 10  1  0  0  0  0
 11 22  1  0  0  0  0
 11 21  1  0  0  0  0
 12 23  1  6  0  0  0
 12 11  1  0  0  0  0
 13  1  1  0  0  0  0
 14  2  1  0  0  0  0
 15  3  1  0  0  0  0
 17  8  1  0  0  0  0
 18  9  1  0  0  0  0
 24 26  1  0  0  0  0
 24 12  1  0  0  0  0
 24 27  1  0  0  0  0
 25 24  1  0  0  0  0
 27 28  2  0  0  0  0
 28 29  1  0  0  0  0
 29 31  1  0  0  0  0
 30 29  1  0  0  0  0
 32 33  1  0  0  0  0
 33 34  2  0  0  0  0
 33 29  1  0  0  0  0
 34 35  1  0  0  0  0
 36 37  1  0  0  0  0
 36 34  1  0  0  0  0
 38 36  2  0  0  0  0
 39 38  1  0  0  0  0
 39 32  2  0  0  0  0
 40 41  3  0  0  0  0
 41 32  1  0  0  0  0
M  END
>  <minimizedAffinity>
-5.51408482

>  <minimizedRMSD>
1.28558481

$$$$
