
 OpenBabel03252509233D

 28 30  0  0  1  0  0  0  0  0999 V2000
   45.7000   33.8510   43.3870 C   0  0  1  0  0  0  0  0  0  0  0  0
   46.0370   35.3430   43.1420 C   0  0  0  0  0  0  0  0  0  0  0  0
   46.9080   34.1350   42.7040 C   0  0  2  0  0  0  0  0  0  0  0  0
   44.7610   33.5290   42.9070 H   0  0  0  0  0  0  0  0  0  0  0  0
   46.4100   35.9550   43.9550 H   0  0  0  0  0  0  0  0  0  0  0  0
   45.4180   35.8040   42.3520 H   0  0  0  0  0  0  0  0  0  0  0  0
   47.8930   34.0990   43.2140 H   0  0  0  0  0  0  0  0  0  0  0  0
   45.0110   33.8890   47.0800 C   0  0  0  0  0  0  0  0  0  0  0  0
   44.9800   34.2910   45.7200 C   0  0  0  0  0  0  0  0  0  0  0  0
   45.7470   33.5390   44.8710 C   0  0  0  0  0  0  0  0  0  0  0  0
   46.4980   32.4700   45.3180 N   0  0  0  0  0  0  0  0  0  0  0  0
   46.5000   32.1240   46.6180 C   0  0  0  0  0  0  0  0  0  0  0  0
   45.7540   32.8340   47.5040 N   0  0  0  0  0  0  0  0  0  0  0  0
   44.4040   34.4800   47.7590 H   0  0  0  0  0  0  0  0  0  0  0  0
   47.0720   31.2950   47.0060 H   0  0  0  0  0  0  0  0  0  0  0  0
   44.2280   35.4130   45.2630 N   0  0  0  0  0  0  0  0  0  0  0  0
   43.2570   35.4820   44.9440 H   0  0  0  0  0  0  0  0  0  0  0  0
   44.9150   36.2030   45.3260 H   0  0  0  0  0  0  0  0  0  0  0  0
   47.9790   34.6280   40.4900 C   0  0  0  0  0  0  0  0  0  0  0  0
   47.0540   33.9230   41.2360 C   0  0  0  0  0  0  0  0  0  0  0  0
   46.2180   32.9800   40.6380 C   0  0  0  0  0  0  0  0  0  0  0  0
   45.4710   32.3990   41.1900 H   0  0  0  0  0  0  0  0  0  0  0  0
   46.3200   32.7500   39.2670 C   0  0  0  0  0  0  0  0  0  0  0  0
   45.6770   32.0160   38.7700 H   0  0  0  0  0  0  0  0  0  0  0  0
   47.2520   33.4670   38.5420 C   0  0  0  0  0  3  0  0  0  0  0  0
   48.0920   34.4080   39.1160 C   0  0  0  0  0  3  0  0  0  0  0  0
   49.5210   36.3810   41.6290 N   0  0  0  0  0  0  0  0  0  0  0  0
   48.8280   35.5910   41.1220 C   0  0  0  0  0  0  0  0  0  0  0  0
  1  4  1  6  0  0  0
  1 10  1  0  0  0  0
  2  1  1  0  0  0  0
  2  5  1  0  0  0  0
  3  2  1  0  0  0  0
  3  7  1  1  0  0  0
  3  1  1  0  0  0  0
  6  2  1  0  0  0  0
  8 13  1  0  0  0  0
  8 14  1  0  0  0  0
  9  8  2  0  0  0  0
 10 11  2  0  0  0  0
 10  9  1  0  0  0  0
 11 12  1  0  0  0  0
 12 15  1  0  0  0  0
 12 13  2  0  0  0  0
 16 18  1  0  0  0  0
 16  9  1  0  0  0  0
 17 16  1  0  0  0  0
 19 28  1  0  0  0  0
 19 20  1  0  0  0  0
 20  3  1  0  0  0  0
 21 22  1  0  0  0  0
 21 20  2  0  0  0  0
 23 21  1  0  0  0  0
 24 23  1  0  0  0  0
 25 26  1  0  0  0  0
 25 23  2  0  0  0  0
 26 19  2  0  0  0  0
 28 27  3  0  0  0  0
M  END
>  <minimizedAffinity>
-4.90295029

>  <minimizedRMSD>
1.90620625

$$$$
