
 OpenBabel03252503273D

 26 27  0  0  0  0  0  0  0  0999 V2000
   44.3670   35.1070   41.2250 C   0  0  0  0  0  0  0  0  0  0  0  0
   45.4960   34.3430   40.9020 C   0  0  0  0  0  0  0  0  0  0  0  0
   46.5050   34.2780   41.8820 C   0  0  0  0  0  0  0  0  0  0  0  0
   46.3010   34.9480   43.0460 N   0  0  0  0  0  0  0  0  0  0  0  0
   45.2040   35.6640   43.3150 C   0  0  0  0  0  0  0  0  0  0  0  0
   44.2290   35.7450   42.3950 N   0  0  0  0  0  0  0  0  0  0  0  0
   42.5060   34.0600   40.2420 C   0  0  0  0  0  0  0  0  0  0  0  0
   42.8440   33.0760   40.9730 O   0  0  0  0  0  0  0  0  0  0  0  0
   43.2960   35.2340   40.2900 N   0  0  0  0  0  0  0  0  0  0  0  0
   45.5900   33.8380   39.9740 H   0  0  0  0  0  0  0  0  0  0  0  0
   45.0490   36.1860   44.2600 H   0  0  0  0  0  0  0  0  0  0  0  0
   42.9700   35.9920   39.6450 H   0  0  0  0  0  0  0  0  0  0  0  0
   40.1520   34.5710   39.3890 C   0  0  0  0  0  0  0  0  0  0  0  0
   41.2970   33.7940   39.4470 C   0  0  0  0  0  0  0  0  0  0  0  0
   41.3970   32.6240   38.7250 C   0  0  0  0  0  0  0  0  0  0  0  0
   42.2390   31.9410   38.6970 H   0  0  0  0  0  0  0  0  0  0  0  0
   40.3180   32.2290   37.9230 C   0  0  0  0  0  0  0  0  0  0  0  0
   40.3320   31.3330   37.3340 H   0  0  0  0  0  0  0  0  0  0  0  0
   39.1700   32.9930   37.8560 C   0  0  0  0  0  3  0  0  0  0  0  0
   39.0990   34.1550   38.5900 C   0  0  0  0  0  3  0  0  0  0  0  0
   40.1680   36.7340   40.8350 N   0  0  0  0  0  0  0  0  0  0  0  0
   40.1500   35.7670   40.1870 C   0  0  0  0  0  0  0  0  0  0  0  0
   47.6720   33.4820   41.5280 C   0  0  0  0  0  0  0  0  0  0  0  0
   47.5720   32.2250   42.1160 F   0  0  0  0  0  0  0  0  0  0  0  0
   48.7740   34.0790   42.1150 F   0  0  0  0  0  0  0  0  0  0  0  0
   47.8110   33.2900   40.1860 F   0  0  0  0  0  0  0  0  0  0  0  0
  1  6  1  0  0  0  0
  2  1  2  0  0  0  0
  2  3  1  0  0  0  0
  3  4  2  0  0  0  0
  4  5  1  0  0  0  0
  5 11  1  0  0  0  0
  6  5  2  0  0  0  0
  7  9  1  0  0  0  0
  7  8  2  0  0  0  0
  9  1  1  0  0  0  0
 10  2  1  0  0  0  0
 12  9  1  0  0  0  0
 13 14  1  0  0  0  0
 13 22  1  0  0  0  0
 14  7  1  0  0  0  0
 15 14  2  0  0  0  0
 16 15  1  0  0  0  0
 17 15  1  0  0  0  0
 18 17  1  0  0  0  0
 19 17  2  0  0  0  0
 19 20  1  0  0  0  0
 20 13  2  0  0  0  0
 22 21  3  0  0  0  0
 23  3  1  0  0  0  0
 23 25  1  0  0  0  0
 23 24  1  0  0  0  0
 26 23  1  0  0  0  0
M  END
>  <minimizedAffinity>
-5.45341492

>  <minimizedRMSD>
2.96497798

$$$$
