
 OpenBabel03252503293D

 26 27  0  0  0  0  0  0  0  0999 V2000
   39.3360   28.0020   41.7240 C   0  0  0  0  0  0  0  0  0  0  0  0
   38.3680   27.0280   41.4450 C   0  0  0  0  0  0  0  0  0  0  0  0
   38.3560   25.9030   42.2910 C   0  0  0  0  0  0  0  0  0  0  0  0
   39.2680   25.8560   43.2960 N   0  0  0  0  0  0  0  0  0  0  0  0
   40.1740   26.8110   43.5290 C   0  0  0  0  0  0  0  0  0  0  0  0
   40.2100   27.8920   42.7340 N   0  0  0  0  0  0  0  0  0  0  0  0
   38.3940   30.0950   41.2170 C   0  0  0  0  0  0  0  0  0  0  0  0
   37.5380   29.7720   42.1010 O   0  0  0  0  0  0  0  0  0  0  0  0
   39.4270   29.1740   40.9150 N   0  0  0  0  0  0  0  0  0  0  0  0
   37.6780   27.1290   40.6460 H   0  0  0  0  0  0  0  0  0  0  0  0
   40.8930   26.7660   44.3480 H   0  0  0  0  0  0  0  0  0  0  0  0
   40.0790   29.5000   40.1630 H   0  0  0  0  0  0  0  0  0  0  0  0
   37.2750   31.7490   39.6250 C   0  0  0  0  0  0  0  0  0  0  0  0
   38.1510   31.4280   40.6470 C   0  0  0  0  0  0  0  0  0  0  0  0
   38.9240   32.3990   41.2480 C   0  0  0  0  0  0  0  0  0  0  0  0
   39.6400   32.2630   42.0510 H   0  0  0  0  0  0  0  0  0  0  0  0
   38.8110   33.7240   40.8060 C   0  0  0  0  0  0  0  0  0  0  0  0
   39.3810   34.5260   41.2310 H   0  0  0  0  0  0  0  0  0  0  0  0
   37.9430   34.0580   39.7850 C   0  0  0  0  0  3  0  0  0  0  0  0
   37.1850   33.0670   39.2050 C   0  0  0  0  0  3  0  0  0  0  0  0
   35.9100   29.7860   38.5940 N   0  0  0  0  0  0  0  0  0  0  0  0
   36.5200   30.6590   39.0650 C   0  0  0  0  0  0  0  0  0  0  0  0
   37.3440   24.9000   41.9860 C   0  0  0  0  0  0  0  0  0  0  0  0
   36.8070   25.1500   40.7290 F   0  0  0  0  0  0  0  0  0  0  0  0
   36.3010   25.0800   42.8780 F   0  0  0  0  0  0  0  0  0  0  0  0
   37.8300   23.6270   41.9720 F   0  0  0  0  0  0  0  0  0  0  0  0
  1  6  1  0  0  0  0
  2  1  2  0  0  0  0
  2  3  1  0  0  0  0
  3  4  2  0  0  0  0
  4  5  1  0  0  0  0
  5 11  1  0  0  0  0
  6  5  2  0  0  0  0
  7  8  2  0  0  0  0
  9  7  1  0  0  0  0
  9  1  1  0  0  0  0
 10  2  1  0  0  0  0
 12  9  1  0  0  0  0
 13 14  1  0  0  0  0
 14  7  1  0  0  0  0
 14 15  2  0  0  0  0
 15 16  1  0  0  0  0
 17 18  1  0  0  0  0
 17 15  1  0  0  0  0
 19 17  2  0  0  0  0
 20 13  2  0  0  0  0
 20 19  1  0  0  0  0
 21 22  3  0  0  0  0
 22 13  1  0  0  0  0
 23  3  1  0  0  0  0
 23 25  1  0  0  0  0
 24 23  1  0  0  0  0
 26 23  1  0  0  0  0
M  END
>  <minimizedAffinity>
-5.48104954

$$$$

 OpenBabel03252503293D

 26 27  0  0  0  0  0  0  0  0999 V2000
   38.0160   29.7060   38.5630 C   0  0  0  0  0  0  0  0  0  0  0  0
   38.0450   30.8280   39.4020 C   0  0  0  0  0  0  0  0  0  0  0  0
   37.7810   32.0690   38.7910 C   0  0  0  0  0  0  0  0  0  0  0  0
   37.5190   32.0760   37.4580 N   0  0  0  0  0  0  0  0  0  0  0  0
   37.4990   30.9780   36.6950 C   0  0  0  0  0  0  0  0  0  0  0  0
   37.7510   29.7840   37.2520 N   0  0  0  0  0  0  0  0  0  0  0  0
   37.1690   27.9110   39.8210 C   0  0  0  0  0  0  0  0  0  0  0  0
   36.1410   28.6520   39.9340 O   0  0  0  0  0  0  0  0  0  0  0  0
   38.2780   28.4080   39.0950 N   0  0  0  0  0  0  0  0  0  0  0  0
   38.2500   30.7540   40.4400 H   0  0  0  0  0  0  0  0  0  0  0  0
   37.2740   30.9980   35.6270 H   0  0  0  0  0  0  0  0  0  0  0  0
   39.0930   27.7520   39.0630 H   0  0  0  0  0  0  0  0  0  0  0  0
   37.2650   26.3210   41.8180 C   0  0  0  0  0  0  0  0  0  0  0  0
   37.0110   26.6100   40.4880 C   0  0  0  0  0  0  0  0  0  0  0  0
   36.5690   25.6320   39.6230 C   0  0  0  0  0  0  0  0  0  0  0  0
   36.3420   25.7430   38.5690 H   0  0  0  0  0  0  0  0  0  0  0  0
   36.3790   24.3320   40.1110 C   0  0  0  0  0  0  0  0  0  0  0  0
   36.0350   23.5270   39.4930 H   0  0  0  0  0  0  0  0  0  0  0  0
   36.6300   24.0290   41.4340 C   0  0  0  0  0  3  0  0  0  0  0  0
   37.0710   25.0270   42.2730 C   0  0  0  0  0  3  0  0  0  0  0  0
   38.0840   28.3000   43.2980 N   0  0  0  0  0  0  0  0  0  0  0  0
   37.7270   27.4140   42.6320 C   0  0  0  0  0  0  0  0  0  0  0  0
   37.8160   33.2250   39.6770 C   0  0  0  0  0  0  0  0  0  0  0  0
   39.0360   33.8780   39.5400 F   0  0  0  0  0  0  0  0  0  0  0  0
   37.7940   32.7500   40.9770 F   0  0  0  0  0  0  0  0  0  0  0  0
   36.8380   34.1370   39.4170 F   0  0  0  0  0  0  0  0  0  0  0  0
  1  9  1  0  0  0  0
  1  2  1  0  0  0  0
  2 10  1  0  0  0  0
  3  2  2  0  0  0  0
  3 23  1  0  0  0  0
  4  3  1  0  0  0  0
  5  6  1  0  0  0  0
  5  4  2  0  0  0  0
  6  1  2  0  0  0  0
  7  8  2  0  0  0  0
  7 14  1  0  0  0  0
  9  7  1  0  0  0  0
 11  5  1  0  0  0  0
 12  9  1  0  0  0  0
 13 20  1  0  0  0  0
 13 22  1  0  0  0  0
 14 13  2  0  0  0  0
 15 17  2  0  0  0  0
 15 14  1  0  0  0  0
 16 15  1  0  0  0  0
 17 19  1  0  0  0  0
 18 17  1  0  0  0  0
 19 20  2  0  0  0  0
 22 21  3  0  0  0  0
 23 25  1  0  0  0  0
 24 23  1  0  0  0  0
 26 23  1  0  0  0  0
M  END
>  <minimizedAffinity>
-5.28211403

$$$$

 OpenBabel03252503293D

 26 27  0  0  0  0  0  0  0  0999 V2000
   38.1300   29.6370   41.7880 C   0  0  0  0  0  0  0  0  0  0  0  0
   37.6500   30.4840   40.7800 C   0  0  0  0  0  0  0  0  0  0  0  0
   38.3040   31.7240   40.6460 C   0  0  0  0  0  0  0  0  0  0  0  0
   39.3340   31.9910   41.4890 N   0  0  0  0  0  0  0  0  0  0  0  0
   39.7620   31.1500   42.4370 C   0  0  0  0  0  0  0  0  0  0  0  0
   39.1530   29.9640   42.5890 N   0  0  0  0  0  0  0  0  0  0  0  0
   37.9160   27.4290   41.0100 C   0  0  0  0  0  0  0  0  0  0  0  0
   38.6920   27.8250   40.0830 O   0  0  0  0  0  0  0  0  0  0  0  0
   37.5240   28.3620   42.0000 N   0  0  0  0  0  0  0  0  0  0  0  0
   36.8430   30.2110   40.1480 H   0  0  0  0  0  0  0  0  0  0  0  0
   40.6000   31.3740   43.0990 H   0  0  0  0  0  0  0  0  0  0  0  0
   36.8680   27.9700   42.7170 H   0  0  0  0  0  0  0  0  0  0  0  0
   38.0400   24.9580   41.6440 C   0  0  0  0  0  0  0  0  0  0  0  0
   37.5550   26.0090   40.8860 C   0  0  0  0  0  0  0  0  0  0  0  0
   36.6370   25.7920   39.8790 C   0  0  0  0  0  0  0  0  0  0  0  0
   36.1940   26.5350   39.2260 H   0  0  0  0  0  0  0  0  0  0  0  0
   36.2000   24.4840   39.6320 C   0  0  0  0  0  0  0  0  0  0  0  0
   35.4880   24.2470   38.8670 H   0  0  0  0  0  0  0  0  0  0  0  0
   36.6770   23.4260   40.3790 C   0  0  0  0  0  3  0  0  0  0  0  0
   37.5920   23.6740   41.3760 C   0  0  0  0  0  3  0  0  0  0  0  0
   39.7790   25.5790   43.4780 N   0  0  0  0  0  0  0  0  0  0  0  0
   38.9970   25.2940   42.6650 C   0  0  0  0  0  0  0  0  0  0  0  0
   37.7910   32.5930   39.5950 C   0  0  0  0  0  0  0  0  0  0  0  0
   36.7600   31.9480   38.9220 F   0  0  0  0  0  0  0  0  0  0  0  0
   38.8010   32.7530   38.6620 F   0  0  0  0  0  0  0  0  0  0  0  0
   37.2940   33.7720   40.0620 F   0  0  0  0  0  0  0  0  0  0  0  0
  1  9  1  0  0  0  0
  1  6  1  0  0  0  0
  2  1  2  0  0  0  0
  3  2  1  0  0  0  0
  3  4  2  0  0  0  0
  4  5  1  0  0  0  0
  5  6  2  0  0  0  0
  5 11  1  0  0  0  0
  7  9  1  0  0  0  0
  8  7  2  0  0  0  0
  9 12  1  0  0  0  0
 10  2  1  0  0  0  0
 13 22  1  0  0  0  0
 14  7  1  0  0  0  0
 14 13  2  0  0  0  0
 15 14  1  0  0  0  0
 16 15  1  0  0  0  0
 17 15  2  0  0  0  0
 17 19  1  0  0  0  0
 18 17  1  0  0  0  0
 19 20  2  0  0  0  0
 20 13  1  0  0  0  0
 22 21  3  0  0  0  0
 23 26  1  0  0  0  0
 23  3  1  0  0  0  0
 24 23  1  0  0  0  0
 25 23  1  0  0  0  0
M  END
>  <minimizedAffinity>
-5.21088123

$$$$

 OpenBabel03252503293D

 26 27  0  0  0  0  0  0  0  0999 V2000
   40.8580   32.0780   40.9030 C   0  0  0  0  0  0  0  0  0  0  0  0
   40.7890   32.1410   39.5040 C   0  0  0  0  0  0  0  0  0  0  0  0
   41.8990   32.7110   38.8520 C   0  0  0  0  0  0  0  0  0  0  0  0
   42.9330   33.1420   39.6190 N   0  0  0  0  0  0  0  0  0  0  0  0
   42.9590   33.0590   40.9540 C   0  0  0  0  0  0  0  0  0  0  0  0
   41.9110   32.5240   41.6010 N   0  0  0  0  0  0  0  0  0  0  0  0
   39.7650   30.1080   41.5720 C   0  0  0  0  0  0  0  0  0  0  0  0
   40.6510   29.5360   40.8610 O   0  0  0  0  0  0  0  0  0  0  0  0
   39.7760   31.5220   41.6490 N   0  0  0  0  0  0  0  0  0  0  0  0
   39.9520   31.7780   38.9620 H   0  0  0  0  0  0  0  0  0  0  0  0
   43.8020   33.3990   41.5570 H   0  0  0  0  0  0  0  0  0  0  0  0
   39.0050   31.9210   42.2340 H   0  0  0  0  0  0  0  0  0  0  0  0
   37.4680   29.1720   42.1810 C   0  0  0  0  0  0  0  0  0  0  0  0
   38.8510   29.1560   42.2210 C   0  0  0  0  0  0  0  0  0  0  0  0
   39.5280   28.1850   42.9280 C   0  0  0  0  0  0  0  0  0  0  0  0
   40.6020   28.0770   43.0290 H   0  0  0  0  0  0  0  0  0  0  0  0
   38.7910   27.2080   43.6110 C   0  0  0  0  0  0  0  0  0  0  0  0
   39.2550   26.4250   44.1770 H   0  0  0  0  0  0  0  0  0  0  0  0
   37.4110   27.2130   43.5820 C   0  0  0  0  0  3  0  0  0  0  0  0
   36.7640   28.1960   42.8680 C   0  0  0  0  0  3  0  0  0  0  0  0
   36.3900   31.0990   40.8010 N   0  0  0  0  0  0  0  0  0  0  0  0
   36.8620   30.2330   41.4190 C   0  0  0  0  0  0  0  0  0  0  0  0
   41.8100   32.7690   37.3990 C   0  0  0  0  0  0  0  0  0  0  0  0
   40.5040   32.5020   37.0030 F   0  0  0  0  0  0  0  0  0  0  0  0
   42.5700   31.7290   36.8950 F   0  0  0  0  0  0  0  0  0  0  0  0
   42.1470   33.9850   36.8840 F   0  0  0  0  0  0  0  0  0  0  0  0
  1  6  1  0  0  0  0
  1  9  1  0  0  0  0
  2  1  2  0  0  0  0
  3  2  1  0  0  0  0
  3  4  2  0  0  0  0
  4  5  1  0  0  0  0
  5 11  1  0  0  0  0
  5  6  2  0  0  0  0
  7  9  1  0  0  0  0
  7 14  1  0  0  0  0
  8  7  2  0  0  0  0
  9 12  1  0  0  0  0
 10  2  1  0  0  0  0
 13 14  2  0  0  0  0
 13 20  1  0  0  0  0
 14 15  1  0  0  0  0
 15 16  1  0  0  0  0
 15 17  2  0  0  0  0
 17 18  1  0  0  0  0
 19 17  1  0  0  0  0
 20 19  2  0  0  0  0
 21 22  3  0  0  0  0
 22 13  1  0  0  0  0
 23  3  1  0  0  0  0
 24 23  1  0  0  0  0
 25 23  1  0  0  0  0
 26 23  1  0  0  0  0
M  END
>  <minimizedAffinity>
-5.12966967

$$$$

 OpenBabel03252503293D

 26 27  0  0  0  0  0  0  0  0999 V2000
   37.1490   29.1770   39.8890 C   0  0  0  0  0  0  0  0  0  0  0  0
   37.0770   28.0620   40.7350 C   0  0  0  0  0  0  0  0  0  0  0  0
   37.5700   28.2400   42.0420 C   0  0  0  0  0  0  0  0  0  0  0  0
   38.0640   29.4610   42.3720 N   0  0  0  0  0  0  0  0  0  0  0  0
   38.1110   30.5010   41.5320 C   0  0  0  0  0  0  0  0  0  0  0  0
   37.6510   30.3560   40.2800 N   0  0  0  0  0  0  0  0  0  0  0  0
   35.2630   29.1180   38.4870 C   0  0  0  0  0  0  0  0  0  0  0  0
   34.6170   29.1840   39.5800 O   0  0  0  0  0  0  0  0  0  0  0  0
   36.6780   29.0880   38.5450 N   0  0  0  0  0  0  0  0  0  0  0  0
   36.6720   27.1350   40.4160 H   0  0  0  0  0  0  0  0  0  0  0  0
   38.4990   31.4800   41.8160 H   0  0  0  0  0  0  0  0  0  0  0  0
   37.1400   29.0100   37.6080 H   0  0  0  0  0  0  0  0  0  0  0  0
   34.7740   28.9170   35.9880 C   0  0  0  0  0  0  0  0  0  0  0  0
   34.3880   29.0890   37.3060 C   0  0  0  0  0  0  0  0  0  0  0  0
   33.0620   29.2690   37.6370 C   0  0  0  0  0  0  0  0  0  0  0  0
   32.6480   29.4140   38.6290 H   0  0  0  0  0  0  0  0  0  0  0  0
   32.1040   29.2750   36.6150 C   0  0  0  0  0  0  0  0  0  0  0  0
   31.0570   29.4070   36.8050 H   0  0  0  0  0  0  0  0  0  0  0  0
   32.4750   29.1060   35.2960 C   0  0  0  0  0  3  0  0  0  0  0  0
   33.8060   28.9300   34.9970 C   0  0  0  0  0  3  0  0  0  0  0  0
   37.3240   28.5890   35.5770 N   0  0  0  0  0  0  0  0  0  0  0  0
   36.1830   28.7420   35.7530 C   0  0  0  0  0  0  0  0  0  0  0  0
   37.4890   27.0710   42.9070 C   0  0  0  0  0  0  0  0  0  0  0  0
   37.3360   25.9280   42.1300 F   0  0  0  0  0  0  0  0  0  0  0  0
   36.3210   27.1790   43.6410 F   0  0  0  0  0  0  0  0  0  0  0  0
   38.5980   26.8890   43.6790 F   0  0  0  0  0  0  0  0  0  0  0  0
  1  6  2  0  0  0  0
  1  2  1  0  0  0  0
  2  3  2  0  0  0  0
  3  4  1  0  0  0  0
  3 23  1  0  0  0  0
  5 11  1  0  0  0  0
  5  4  2  0  0  0  0
  6  5  1  0  0  0  0
  7  9  1  0  0  0  0
  7  8  2  0  0  0  0
  9  1  1  0  0  0  0
 10  2  1  0  0  0  0
 12  9  1  0  0  0  0
 13 14  1  0  0  0  0
 14 15  2  0  0  0  0
 14  7  1  0  0  0  0
 15 16  1  0  0  0  0
 17 18  1  0  0  0  0
 17 15  1  0  0  0  0
 19 17  2  0  0  0  0
 20 19  1  0  0  0  0
 20 13  2  0  0  0  0
 21 22  3  0  0  0  0
 22 13  1  0  0  0  0
 23 25  1  0  0  0  0
 23 26  1  0  0  0  0
 24 23  1  0  0  0  0
M  END
>  <minimizedAffinity>
-5.041399

$$$$

 OpenBabel03252503293D

 26 27  0  0  0  0  0  0  0  0999 V2000
   38.6020   28.9600   42.7130 C   0  0  0  0  0  0  0  0  0  0  0  0
   39.3800   27.7990   42.6110 C   0  0  0  0  0  0  0  0  0  0  0  0
   38.6740   26.5830   42.5210 C   0  0  0  0  0  0  0  0  0  0  0  0
   37.3180   26.6360   42.5360 N   0  0  0  0  0  0  0  0  0  0  0  0
   36.6140   27.7690   42.6320 C   0  0  0  0  0  0  0  0  0  0  0  0
   37.2620   28.9400   42.7230 N   0  0  0  0  0  0  0  0  0  0  0  0
   39.7360   30.6680   41.5640 C   0  0  0  0  0  0  0  0  0  0  0  0
   39.6050   29.8960   40.5620 O   0  0  0  0  0  0  0  0  0  0  0  0
   39.2310   30.2370   42.8150 N   0  0  0  0  0  0  0  0  0  0  0  0
   40.4400   27.8270   42.5980 H   0  0  0  0  0  0  0  0  0  0  0  0
   35.5230   27.7960   42.6300 H   0  0  0  0  0  0  0  0  0  0  0  0
   39.3950   30.9150   43.5960 H   0  0  0  0  0  0  0  0  0  0  0  0
   39.8510   33.0380   40.6170 C   0  0  0  0  0  0  0  0  0  0  0  0
   40.4120   31.9300   41.2280 C   0  0  0  0  0  0  0  0  0  0  0  0
   41.7430   31.9180   41.5870 C   0  0  0  0  0  0  0  0  0  0  0  0
   42.2850   31.1100   42.0660 H   0  0  0  0  0  0  0  0  0  0  0  0
   42.5260   33.0500   41.3230 C   0  0  0  0  0  0  0  0  0  0  0  0
   43.5650   33.1070   41.5780 H   0  0  0  0  0  0  0  0  0  0  0  0
   41.9790   34.1610   40.7120 C   0  0  0  0  0  3  0  0  0  0  0  0
   40.6480   34.1430   40.3650 C   0  0  0  0  0  3  0  0  0  0  0  0
   37.3210   32.8740   40.0240 N   0  0  0  0  0  0  0  0  0  0  0  0
   38.4550   32.9430   40.2800 C   0  0  0  0  0  0  0  0  0  0  0  0
   39.4990   25.3860   42.4170 C   0  0  0  0  0  0  0  0  0  0  0  0
   38.6970   24.2970   42.0950 F   0  0  0  0  0  0  0  0  0  0  0  0
   40.0000   25.1180   43.6780 F   0  0  0  0  0  0  0  0  0  0  0  0
   40.4640   25.4750   41.4590 F   0  0  0  0  0  0  0  0  0  0  0  0
  1  6  1  0  0  0  0
  1  9  1  0  0  0  0
  2  1  2  0  0  0  0
  3  4  2  0  0  0  0
  3  2  1  0  0  0  0
  4  5  1  0  0  0  0
  5  6  2  0  0  0  0
  7  9  1  0  0  0  0
  8  7  2  0  0  0  0
  9 12  1  0  0  0  0
 10  2  1  0  0  0  0
 11  5  1  0  0  0  0
 13 14  1  0  0  0  0
 14  7  1  0  0  0  0
 14 15  2  0  0  0  0
 15 16  1  0  0  0  0
 17 18  1  0  0  0  0
 17 15  1  0  0  0  0
 19 17  2  0  0  0  0
 20 13  2  0  0  0  0
 20 19  1  0  0  0  0
 21 22  3  0  0  0  0
 22 13  1  0  0  0  0
 23  3  1  0  0  0  0
 23 25  1  0  0  0  0
 24 23  1  0  0  0  0
 26 23  1  0  0  0  0
M  END
>  <minimizedAffinity>
-5.00087261

$$$$

 OpenBabel03252503293D

 26 27  0  0  0  0  0  0  0  0999 V2000
   37.5010   30.6220   37.4870 C   0  0  0  0  0  0  0  0  0  0  0  0
   36.7840   30.5070   38.6850 C   0  0  0  0  0  0  0  0  0  0  0  0
   35.9030   29.4120   38.7810 C   0  0  0  0  0  0  0  0  0  0  0  0
   35.8270   28.5660   37.7220 N   0  0  0  0  0  0  0  0  0  0  0  0
   36.5340   28.7110   36.5960 C   0  0  0  0  0  0  0  0  0  0  0  0
   37.3770   29.7490   36.4770 N   0  0  0  0  0  0  0  0  0  0  0  0
   39.6160   31.5010   38.0160 C   0  0  0  0  0  0  0  0  0  0  0  0
   39.7230   30.4530   38.7290 O   0  0  0  0  0  0  0  0  0  0  0  0
   38.4120   31.7040   37.2980 N   0  0  0  0  0  0  0  0  0  0  0  0
   36.8950   31.2010   39.4800 H   0  0  0  0  0  0  0  0  0  0  0  0
   36.4710   28.0160   35.7580 H   0  0  0  0  0  0  0  0  0  0  0  0
   38.3880   32.5970   36.7520 H   0  0  0  0  0  0  0  0  0  0  0  0
   41.0110   33.4750   38.8410 C   0  0  0  0  0  0  0  0  0  0  0  0
   40.8170   32.3480   38.0610 C   0  0  0  0  0  0  0  0  0  0  0  0
   41.7970   31.9060   37.1990 C   0  0  0  0  0  0  0  0  0  0  0  0
   41.7540   31.0440   36.5430 H   0  0  0  0  0  0  0  0  0  0  0  0
   43.0020   32.6180   37.1220 C   0  0  0  0  0  0  0  0  0  0  0  0
   43.8050   32.3270   36.4750 H   0  0  0  0  0  0  0  0  0  0  0  0
   43.2090   33.7440   37.8930 C   0  0  0  0  0  3  0  0  0  0  0  0
   42.2110   34.1610   38.7440 C   0  0  0  0  0  3  0  0  0  0  0  0
   39.0510   34.1530   40.4150 N   0  0  0  0  0  0  0  0  0  0  0  0
   39.9210   33.8510   39.7030 C   0  0  0  0  0  0  0  0  0  0  0  0
   35.1650   29.3090   40.0330 C   0  0  0  0  0  0  0  0  0  0  0  0
   35.4590   30.4040   40.8360 F   0  0  0  0  0  0  0  0  0  0  0  0
   35.6540   28.2080   40.7130 F   0  0  0  0  0  0  0  0  0  0  0  0
   33.8130   29.2840   39.8630 F   0  0  0  0  0  0  0  0  0  0  0  0
  1  2  1  0  0  0  0
  2  3  2  0  0  0  0
  2 10  1  0  0  0  0
  3 23  1  0  0  0  0
  4  3  1  0  0  0  0
  5  4  2  0  0  0  0
  6  5  1  0  0  0  0
  6  1  2  0  0  0  0
  7 14  1  0  0  0  0
  7  8  2  0  0  0  0
  9  1  1  0  0  0  0
  9  7  1  0  0  0  0
 11  5  1  0  0  0  0
 12  9  1  0  0  0  0
 13 22  1  0  0  0  0
 14 13  2  0  0  0  0
 15 14  1  0  0  0  0
 16 15  1  0  0  0  0
 17 15  2  0  0  0  0
 17 19  1  0  0  0  0
 18 17  1  0  0  0  0
 19 20  2  0  0  0  0
 20 13  1  0  0  0  0
 22 21  3  0  0  0  0
 23 25  1  0  0  0  0
 23 24  1  0  0  0  0
 26 23  1  0  0  0  0
M  END
>  <minimizedAffinity>
-4.97938299

$$$$

 OpenBabel03252503293D

 26 27  0  0  0  0  0  0  0  0999 V2000
   37.6050   29.3520   39.8100 C   0  0  0  0  0  0  0  0  0  0  0  0
   37.7440   29.0610   41.1730 C   0  0  0  0  0  0  0  0  0  0  0  0
   37.2010   27.8360   41.6060 C   0  0  0  0  0  0  0  0  0  0  0  0
   36.6000   27.0470   40.6790 N   0  0  0  0  0  0  0  0  0  0  0  0
   36.4920   27.3630   39.3840 C   0  0  0  0  0  0  0  0  0  0  0  0
   36.9970   28.5260   38.9470 N   0  0  0  0  0  0  0  0  0  0  0  0
   39.5290   30.5270   39.1420 C   0  0  0  0  0  0  0  0  0  0  0  0
   40.1360   29.4730   39.5130 O   0  0  0  0  0  0  0  0  0  0  0  0
   38.1200   30.5740   39.2820 N   0  0  0  0  0  0  0  0  0  0  0  0
   38.2330   29.7200   41.8450 H   0  0  0  0  0  0  0  0  0  0  0  0
   36.0160   26.7120   38.6490 H   0  0  0  0  0  0  0  0  0  0  0  0
   37.6940   31.4800   38.9770 H   0  0  0  0  0  0  0  0  0  0  0  0
   40.4880   32.8870   38.9610 C   0  0  0  0  0  0  0  0  0  0  0  0
   40.4370   31.5510   38.6050 C   0  0  0  0  0  0  0  0  0  0  0  0
   41.2870   31.0410   37.6470 C   0  0  0  0  0  0  0  0  0  0  0  0
   41.3340   30.0180   37.2900 H   0  0  0  0  0  0  0  0  0  0  0  0
   42.2080   31.9000   37.0330 C   0  0  0  0  0  0  0  0  0  0  0  0
   42.8980   31.5670   36.2830 H   0  0  0  0  0  0  0  0  0  0  0  0
   42.2690   33.2350   37.3770 C   0  0  0  0  0  3  0  0  0  0  0  0
   41.4070   33.7150   38.3370 C   0  0  0  0  0  3  0  0  0  0  0  0
   38.7850   33.6680   40.7690 N   0  0  0  0  0  0  0  0  0  0  0  0
   39.5530   33.3160   39.9680 C   0  0  0  0  0  0  0  0  0  0  0  0
   37.3530   27.5500   43.0270 C   0  0  0  0  0  0  0  0  0  0  0  0
   38.0320   28.5970   43.6400 F   0  0  0  0  0  0  0  0  0  0  0  0
   38.1850   26.4500   43.1410 F   0  0  0  0  0  0  0  0  0  0  0  0
   36.1660   27.4010   43.6790 F   0  0  0  0  0  0  0  0  0  0  0  0
  1  2  1  0  0  0  0
  2  3  2  0  0  0  0
  2 10  1  0  0  0  0
  3 23  1  0  0  0  0
  4  3  1  0  0  0  0
  5  4  2  0  0  0  0
  6  5  1  0  0  0  0
  6  1  2  0  0  0  0
  7  9  1  0  0  0  0
  7  8  2  0  0  0  0
  9  1  1  0  0  0  0
 11  5  1  0  0  0  0
 12  9  1  0  0  0  0
 13 22  1  0  0  0  0
 14 13  1  0  0  0  0
 14  7  1  0  0  0  0
 15 14  2  0  0  0  0
 16 15  1  0  0  0  0
 17 19  2  0  0  0  0
 17 15  1  0  0  0  0
 18 17  1  0  0  0  0
 19 20  1  0  0  0  0
 20 13  2  0  0  0  0
 22 21  3  0  0  0  0
 23 25  1  0  0  0  0
 23 24  1  0  0  0  0
 23 26  1  0  0  0  0
M  END
>  <minimizedAffinity>
-4.97589684

$$$$

 OpenBabel03252503293D

 26 27  0  0  0  0  0  0  0  0999 V2000
   38.1920   29.8320   41.7610 C   0  0  0  0  0  0  0  0  0  0  0  0
   37.8660   30.7620   40.7650 C   0  0  0  0  0  0  0  0  0  0  0  0
   38.6490   31.9310   40.7240 C   0  0  0  0  0  0  0  0  0  0  0  0
   39.6460   32.0570   41.6370 N   0  0  0  0  0  0  0  0  0  0  0  0
   39.9270   31.1420   42.5700 C   0  0  0  0  0  0  0  0  0  0  0  0
   39.1920   30.0200   42.6340 N   0  0  0  0  0  0  0  0  0  0  0  0
   37.8050   27.6890   40.8760 C   0  0  0  0  0  0  0  0  0  0  0  0
   38.6730   28.0360   40.0140 O   0  0  0  0  0  0  0  0  0  0  0  0
   37.4490   28.6200   41.8820 N   0  0  0  0  0  0  0  0  0  0  0  0
   37.0750   30.5980   40.0760 H   0  0  0  0  0  0  0  0  0  0  0  0
   40.7400   31.2520   43.2890 H   0  0  0  0  0  0  0  0  0  0  0  0
   36.7130   28.2720   42.5410 H   0  0  0  0  0  0  0  0  0  0  0  0
   36.4990   25.8760   39.6390 C   0  0  0  0  0  0  0  0  0  0  0  0
   37.3090   26.3200   40.6690 C   0  0  0  0  0  0  0  0  0  0  0  0
   37.7380   25.4570   41.6560 C   0  0  0  0  0  0  0  0  0  0  0  0
   38.3690   25.6940   42.5050 H   0  0  0  0  0  0  0  0  0  0  0  0
   37.3390   24.1150   41.6010 C   0  0  0  0  0  0  0  0  0  0  0  0
   37.6390   23.3920   42.3340 H   0  0  0  0  0  0  0  0  0  0  0  0
   36.5300   23.6590   40.5800 C   0  0  0  0  0  3  0  0  0  0  0  0
   36.1170   24.5440   39.6110 C   0  0  0  0  0  3  0  0  0  0  0  0
   35.7790   27.6420   37.8670 N   0  0  0  0  0  0  0  0  0  0  0  0
   36.1050   26.8600   38.6660 C   0  0  0  0  0  0  0  0  0  0  0  0
   38.2940   32.8870   39.6840 C   0  0  0  0  0  0  0  0  0  0  0  0
   36.9130   32.9100   39.5260 F   0  0  0  0  0  0  0  0  0  0  0  0
   38.7960   32.4030   38.4880 F   0  0  0  0  0  0  0  0  0  0  0  0
   38.6900   34.1610   39.9610 F   0  0  0  0  0  0  0  0  0  0  0  0
  1  9  1  0  0  0  0
  1  6  1  0  0  0  0
  2  1  2  0  0  0  0
  3  2  1  0  0  0  0
  3  4  2  0  0  0  0
  4  5  1  0  0  0  0
  5  6  2  0  0  0  0
  5 11  1  0  0  0  0
  7  9  1  0  0  0  0
  8  7  2  0  0  0  0
  9 12  1  0  0  0  0
 10  2  1  0  0  0  0
 13 14  1  0  0  0  0
 14  7  1  0  0  0  0
 14 15  2  0  0  0  0
 15 16  1  0  0  0  0
 17 15  1  0  0  0  0
 17 18  1  0  0  0  0
 19 17  2  0  0  0  0
 20 13  2  0  0  0  0
 20 19  1  0  0  0  0
 21 22  3  0  0  0  0
 22 13  1  0  0  0  0
 23 26  1  0  0  0  0
 23  3  1  0  0  0  0
 24 23  1  0  0  0  0
 25 23  1  0  0  0  0
M  END
>  <minimizedAffinity>
-4.95555067

$$$$
