
 OpenBabel03252507223D

 48 51  0  0  1  0  0  0  0  0999 V2000
   47.4510   33.5010   42.9120 C   0  0  0  0  0  0  0  0  0  0  0  0
   48.5830   33.4760   43.5220 O   0  0  0  0  0  0  0  0  0  0  0  0
   47.1610   32.7480   41.7150 N   0  0  0  0  0  0  0  0  0  0  0  0
   45.9830   31.9990   41.3470 C   0  0  0  0  0  0  0  0  0  0  0  0
   45.5260   32.4690   39.9590 C   0  0  0  0  0  0  0  0  0  0  0  0
   46.5720   32.1490   38.9310 C   0  0  0  0  0  0  0  0  0  0  0  0
   47.8740   31.8040   39.6170 C   0  0  0  0  0  0  0  0  0  0  0  0
   48.2200   32.7830   40.7110 C   0  0  2  0  0  0  0  0  0  0  0  0
   45.1310   32.2180   42.0490 H   0  0  0  0  0  0  0  0  0  0  0  0
   46.1590   30.9100   41.2640 H   0  0  0  0  0  0  0  0  0  0  0  0
   45.3340   33.5690   40.0300 H   0  0  0  0  0  0  0  0  0  0  0  0
   44.5850   31.9300   39.7350 H   0  0  0  0  0  0  0  0  0  0  0  0
   46.7600   33.0840   38.3600 H   0  0  0  0  0  0  0  0  0  0  0  0
   46.2730   31.2990   38.3060 H   0  0  0  0  0  0  0  0  0  0  0  0
   48.7190   31.7390   38.9190 H   0  0  0  0  0  0  0  0  0  0  0  0
   47.7730   30.7520   40.0280 H   0  0  0  0  0  0  0  0  0  0  0  0
   48.1930   33.7870   40.2740 H   0  0  0  0  0  0  0  0  0  0  0  0
   46.0550   35.4920   42.7550 C   0  0  0  0  0  0  0  0  0  0  0  0
   46.4270   34.3350   43.4670 C   0  0  0  0  0  0  0  0  0  0  0  0
   45.8040   34.0400   44.6700 C   0  0  0  0  0  0  0  0  0  0  0  0
   44.8530   34.8930   45.1060 N   0  0  0  0  0  0  0  0  0  0  0  0
   44.4790   36.0050   44.4450 C   0  0  0  0  0  0  0  0  0  0  0  0
   45.0950   36.2890   43.2650 N   0  0  0  0  0  0  0  0  0  0  0  0
   46.5310   35.7430   41.8150 H   0  0  0  0  0  0  0  0  0  0  0  0
   43.7100   36.6740   44.8310 H   0  0  0  0  0  0  0  0  0  0  0  0
   46.2050   32.8410   45.3850 C   0  0  0  0  0  0  0  0  0  0  0  0
   45.8710   31.6130   44.8960 C   0  0  0  0  0  0  0  0  0  0  0  0
   46.2660   30.5060   45.5990 C   0  0  0  0  0  0  0  0  0  0  0  0
   46.9860   30.5690   46.7820 C   0  0  0  0  0  0  0  0  0  0  0  0
   47.2920   31.8450   47.2260 C   0  0  0  0  0  0  0  0  0  0  0  0
   46.8960   32.9070   46.5220 N   0  0  0  0  0  0  0  0  0  0  0  0
   45.3180   31.4220   43.9920 H   0  0  0  0  0  0  0  0  0  0  0  0
   46.0110   29.5010   45.2240 H   0  0  0  0  0  0  0  0  0  0  0  0
   47.2850   29.6820   47.3180 H   0  0  0  0  0  0  0  0  0  0  0  0
   47.8570   31.9210   48.1420 H   0  0  0  0  0  0  0  0  0  0  0  0
   49.5820   32.5400   41.2190 C   0  0  0  0  0  0  0  0  0  0  0  0
   50.1990   32.7590   40.2760 H   0  0  0  0  0  0  0  0  0  0  0  0
   50.0050   33.3810   41.8570 H   0  0  0  0  0  0  0  0  0  0  0  0
   50.9700   30.5080   40.8810 C   0  0  0  0  0  0  0  0  0  0  0  0
   50.0200   31.2310   41.6420 C   0  0  0  0  0  0  0  0  0  0  0  0
   49.6230   30.4290   42.7160 C   0  0  0  0  0  0  0  0  0  0  0  0
   48.8600   30.8230   43.3690 H   0  0  0  0  0  0  0  0  0  0  0  0
   50.0120   29.1890   43.0550 C   0  0  0  0  0  0  0  0  0  0  0  0
   49.6030   28.6860   43.9360 H   0  0  0  0  0  0  0  0  0  0  0  0
   50.9370   28.5390   42.2800 C   0  0  0  0  0  3  0  0  0  0  0  0
   51.4160   29.2160   41.1800 C   0  0  0  0  0  3  0  0  0  0  0  0
   52.0320   31.6920   38.7840 N   0  0  0  0  0  0  0  0  0  0  0  0
   51.5570   31.1520   39.7210 C   0  0  0  0  0  0  0  0  0  0  0  0
  1 19  1  0  0  0  0
  1  2  2  0  0  0  0
  3  1  1  0  0  0  0
  4  3  1  0  0  0  0
  4  9  1  0  0  0  0
  5 11  1  0  0  0  0
  5  4  1  0  0  0  0
  6  7  1  0  0  0  0
  6  5  1  0  0  0  0
  7 16  1  0  0  0  0
  7  8  1  0  0  0  0
  8 17  1  6  0  0  0
  8 36  1  0  0  0  0
  8  3  1  0  0  0  0
 10  4  1  0  0  0  0
 12  5  1  0  0  0  0
 13  6  1  0  0  0  0
 14  6  1  0  0  0  0
 15  7  1  0  0  0  0
 18 23  2  0  0  0  0
 18 19  1  0  0  0  0
 19 20  2  0  0  0  0
 20 21  1  0  0  0  0
 20 26  1  0  0  0  0
 22 25  1  0  0  0  0
 22 21  2  0  0  0  0
 23 22  1  0  0  0  0
 24 18  1  0  0  0  0
 26 31  1  0  0  0  0
 27 26  2  0  0  0  0
 27 28  1  0  0  0  0
 28 29  2  0  0  0  0
 29 30  1  0  0  0  0
 29 34  1  0  0  0  0
 30 35  1  0  0  0  0
 31 30  2  0  0  0  0
 32 27  1  0  0  0  0
 33 28  1  0  0  0  0
 36 40  1  0  0  0  0
 36 38  1  0  0  0  0
 37 36  1  0  0  0  0
 39 46  2  0  0  0  0
 39 40  1  0  0  0  0
 40 41  2  0  0  0  0
 41 43  1  0  0  0  0
 41 42  1  0  0  0  0
 43 44  1  0  0  0  0
 45 43  2  0  0  0  0
 46 45  1  0  0  0  0
 47 48  3  0  0  0  0
 48 39  1  0  0  0  0
M  END
>  <minimizedAffinity>
-4.97980881

>  <minimizedRMSD>
1.07721794

$$$$
