
 OpenBabel03242519253D

 41 44  0  0  0  0  0  0  0  0999 V2000
   47.9080   33.7910   42.8900 C   0  0  0  0  0  0  0  0  0  0  0  0
   48.5800   35.0050   42.6560 C   0  0  0  0  0  0  0  0  0  0  0  0
   49.9490   35.0010   42.3390 C   0  0  0  0  0  0  0  0  0  0  0  0
   50.5470   33.7690   42.2790 N   0  0  0  0  0  0  0  0  0  0  0  0
   49.8620   32.6070   42.5120 C   0  0  0  0  0  0  0  0  0  0  0  0
   48.5710   32.6350   42.8110 N   0  0  0  0  0  0  0  0  0  0  0  0
   48.1900   36.0080   42.6830 H   0  0  0  0  0  0  0  0  0  0  0  0
   50.5250   35.8810   42.1480 H   0  0  0  0  0  0  0  0  0  0  0  0
   46.4770   33.9200   43.2210 C   0  0  0  0  0  0  0  0  0  0  0  0
   45.7730   34.9290   42.4300 C   0  0  0  0  0  0  0  0  0  0  0  0
   45.3280   36.1150   43.2070 C   0  0  0  0  0  0  0  0  0  0  0  0
   44.5200   35.7570   44.4410 C   0  0  0  0  0  0  0  0  0  0  0  0
   44.9790   34.4970   45.1330 C   0  0  0  0  0  0  0  0  0  0  0  0
   46.4070   34.1630   44.7390 C   0  0  0  0  0  0  0  0  0  0  0  0
   46.0190   32.8930   43.1060 H   0  0  0  0  0  0  0  0  0  0  0  0
   46.3390   35.2830   41.5620 H   0  0  0  0  0  0  0  0  0  0  0  0
   44.8430   34.4640   41.9880 H   0  0  0  0  0  0  0  0  0  0  0  0
   44.6050   36.6820   42.5480 H   0  0  0  0  0  0  0  0  0  0  0  0
   46.0830   36.8420   43.4930 H   0  0  0  0  0  0  0  0  0  0  0  0
   43.4240   35.7200   44.2090 H   0  0  0  0  0  0  0  0  0  0  0  0
   44.6230   36.5700   45.1900 H   0  0  0  0  0  0  0  0  0  0  0  0
   44.3170   33.6510   44.8060 H   0  0  0  0  0  0  0  0  0  0  0  0
   44.9250   34.5340   46.2280 H   0  0  0  0  0  0  0  0  0  0  0  0
   47.0620   35.0220   44.9330 H   0  0  0  0  0  0  0  0  0  0  0  0
   46.7290   33.2550   45.2630 H   0  0  0  0  0  0  0  0  0  0  0  0
   50.6630   31.3880   42.4120 C   0  0  0  0  0  0  0  0  0  0  0  0
   51.5480   31.3110   41.3940 N   0  0  0  0  0  0  0  0  0  0  0  0
   52.1950   30.1370   41.4550 C   0  0  0  0  0  0  0  0  0  0  0  0
   51.6950   29.4790   42.5370 N   0  0  0  0  0  0  0  0  0  0  0  0
   50.7550   30.2420   43.1270 N   0  0  0  0  0  0  0  0  0  0  0  0
   52.9690   29.7170   40.8190 H   0  0  0  0  0  0  0  0  0  0  0  0
   52.9590   27.9290   44.0480 C   0  0  0  0  0  0  0  0  0  0  0  0
   52.0080   28.1990   43.0810 C   0  0  0  0  0  0  0  0  0  0  0  0
   51.2420   27.1590   42.5440 C   0  0  0  0  0  0  0  0  0  0  0  0
   50.4740   27.3160   41.7760 H   0  0  0  0  0  0  0  0  0  0  0  0
   51.4100   25.8490   42.9550 C   0  0  0  0  0  0  0  0  0  0  0  0
   50.8080   25.0570   42.5280 H   0  0  0  0  0  0  0  0  0  0  0  0
   52.3750   25.6200   43.9270 C   0  0  0  0  0  0  0  0  0  0  0  0
   53.1450   26.6260   44.4760 C   0  0  0  0  0  0  0  0  0  0  0  0
   54.2930   29.9430   44.9650 N   0  0  0  0  0  0  0  0  0  0  0  0
   53.6890   29.0360   44.5390 C   0  0  0  0  0  0  0  0  0  0  0  0
  1  9  1  0  0  0  0
  2  7  1  0  0  0  0
  2  1  2  0  0  0  0
  3  2  1  0  0  0  0
  4  3  2  0  0  0  0
  4  5  1  0  0  0  0
  5  6  2  0  0  0  0
  6  1  1  0  0  0  0
  8  3  1  0  0  0  0
  9 14  1  0  0  0  0
 10 11  1  0  0  0  0
 10  9  1  0  0  0  0
 11 19  1  0  0  0  0
 11 12  1  0  0  0  0
 12 13  1  0  0  0  0
 12 21  1  0  0  0  0
 13 23  1  0  0  0  0
 14 24  1  0  0  0  0
 14 13  1  0  0  0  0
 14 25  1  0  0  0  0
 15  9  1  0  0  0  0
 16 10  1  0  0  0  0
 17 10  1  0  0  0  0
 18 11  1  0  0  0  0
 20 12  1  0  0  0  0
 22 13  1  0  0  0  0
 26  5  1  0  0  0  0
 26 30  2  0  0  0  0
 27 28  2  0  0  0  0
 27 26  1  0  0  0  0
 28 29  1  0  0  0  0
 29 33  1  0  0  0  0
 29 30  1  0  0  0  0
 31 28  1  0  0  0  0
 32 39  1  0  0  0  0
 32 41  1  0  0  0  0
 33 32  2  0  0  0  0
 34 36  2  0  0  0  0
 34 33  1  0  0  0  0
 35 34  1  0  0  0  0
 36 38  1  0  0  0  0
 37 36  1  0  0  0  0
 38 39  2  0  0  0  0
 41 40  3  0  0  0  0
M  END
>  <minimizedAffinity>
-4.19144249

>  <minimizedRMSD>
0.721962154

$$$$
