
 OpenBabel03252506463D

 43 46  0  0  1  0  0  0  0  0999 V2000
   49.5520   33.4880   41.3810 N   0  0  1  0  0  0  0  0  0  0  0  0
   50.7020   33.0570   42.1290 C   0  0  0  0  0  0  0  0  0  0  0  0
   51.2530   31.7230   41.7090 C   0  0  0  0  0  0  0  0  0  0  0  0
   50.2330   30.6480   41.9790 C   0  0  0  0  0  0  0  0  0  0  0  0
   48.8380   31.1700   41.7960 C   0  0  0  0  0  0  0  0  0  0  0  0
   48.8670   32.3370   40.8280 C   0  0  2  0  0  0  0  0  0  0  0  0
   50.4830   33.0230   43.2080 H   0  0  0  0  0  0  0  0  0  0  0  0
   51.5090   33.8360   42.0210 H   0  0  0  0  0  0  0  0  0  0  0  0
   51.7140   31.7050   40.7280 H   0  0  0  0  0  0  0  0  0  0  0  0
   52.0830   31.5230   42.4650 H   0  0  0  0  0  0  0  0  0  0  0  0
   50.3160   30.2730   43.0240 H   0  0  0  0  0  0  0  0  0  0  0  0
   50.4550   29.7780   41.3280 H   0  0  0  0  0  0  0  0  0  0  0  0
   48.4540   31.6310   42.7650 H   0  0  0  0  0  0  0  0  0  0  0  0
   48.1290   30.4340   41.4520 H   0  0  0  0  0  0  0  0  0  0  0  0
   47.8040   32.6440   40.7060 H   0  0  0  0  0  0  0  0  0  0  0  0
   47.3570   34.7050   41.9400 C   0  0  1  0  0  0  0  0  0  0  0  0
   48.4510   35.6800   41.7220 C   0  0  0  0  0  0  0  0  0  0  0  0
   48.7680   34.3210   42.2050 C   0  0  2  0  0  0  0  0  0  0  0  0
   46.8910   34.3270   40.9890 H   0  0  0  0  0  0  0  0  0  0  0  0
   48.7170   35.9870   40.6970 H   0  0  0  0  0  0  0  0  0  0  0  0
   48.5360   36.5010   42.4560 H   0  0  0  0  0  0  0  0  0  0  0  0
   48.9850   34.1990   43.3090 H   0  0  0  0  0  0  0  0  0  0  0  0
   45.5740   36.0290   43.1130 C   0  0  0  0  0  0  0  0  0  0  0  0
   46.4240   34.9170   43.0460 C   0  0  0  0  0  0  0  0  0  0  0  0
   46.3300   33.9770   44.0970 C   0  0  0  0  0  0  0  0  0  0  0  0
   45.4370   34.2040   45.0930 N   0  0  0  0  0  0  0  0  0  0  0  0
   44.6390   35.2770   45.1260 C   0  0  0  0  0  0  0  0  0  0  0  0
   44.6980   36.2120   44.1290 N   0  0  0  0  0  0  0  0  0  0  0  0
   45.6060   36.7760   42.3360 H   0  0  0  0  0  0  0  0  0  0  0  0
   46.9610   33.1050   44.0930 H   0  0  0  0  0  0  0  0  0  0  0  0
   43.9790   35.3150   45.9880 H   0  0  0  0  0  0  0  0  0  0  0  0
   49.3560   31.9360   39.5480 N   0  0  0  0  0  0  0  0  0  0  0  0
   50.4040   32.1330   39.5210 H   0  0  0  0  0  0  0  0  0  0  0  0
   48.5910   32.1490   37.1790 C   0  0  0  0  0  0  0  0  0  0  0  0
   49.0040   31.4110   38.2960 C   0  0  0  0  0  0  0  0  0  0  0  0
   49.0530   30.0360   38.1840 C   0  0  0  0  0  0  0  0  0  0  0  0
   49.3220   29.2720   38.9010 H   0  0  0  0  0  0  0  0  0  0  0  0
   48.7130   29.3600   37.0230 C   0  0  0  0  0  0  0  0  0  0  0  0
   48.7080   28.3060   36.8100 H   0  0  0  0  0  0  0  0  0  0  0  0
   48.3110   30.1050   35.9400 C   0  0  0  0  0  3  0  0  0  0  0  0
   48.2570   31.4750   36.0360 C   0  0  0  0  0  3  0  0  0  0  0  0
   48.4990   34.7280   37.4420 N   0  0  0  0  0  0  0  0  0  0  0  0
   48.5490   33.5780   37.3180 C   0  0  0  0  0  0  0  0  0  0  0  0
  1  2  1  1  0  0  0
  1 18  1  0  0  0  0
  2  7  1  0  0  0  0
  3  4  1  0  0  0  0
  3  2  1  0  0  0  0
  3 10  1  0  0  0  0
  4 11  1  0  0  0  0
  5  4  1  0  0  0  0
  5 13  1  0  0  0  0
  6 15  1  6  0  0  0
  6  1  1  0  0  0  0
  6  5  1  0  0  0  0
  8  2  1  0  0  0  0
  9  3  1  0  0  0  0
 12  4  1  0  0  0  0
 14  5  1  0  0  0  0
 16 19  1  6  0  0  0
 16 18  1  0  0  0  0
 16 24  1  0  0  0  0
 17 16  1  0  0  0  0
 17 18  1  0  0  0  0
 17 21  1  0  0  0  0
 18 22  1  1  0  0  0
 20 17  1  0  0  0  0
 23 28  1  0  0  0  0
 24 23  2  0  0  0  0
 24 25  1  0  0  0  0
 25 26  2  0  0  0  0
 26 27  1  0  0  0  0
 27 31  1  0  0  0  0
 28 27  2  0  0  0  0
 29 23  1  0  0  0  0
 30 25  1  0  0  0  0
 32  6  1  0  0  0  0
 33 32  1  0  0  0  0
 34 43  1  0  0  0  0
 34 35  1  0  0  0  0
 35 32  1  0  0  0  0
 36 35  2  0  0  0  0
 36 37  1  0  0  0  0
 38 36  1  0  0  0  0
 39 38  1  0  0  0  0
 40 41  1  0  0  0  0
 40 38  2  0  0  0  0
 41 34  2  0  0  0  0
 43 42  3  0  0  0  0
M  END
>  <minimizedAffinity>
-5.06138039

>  <minimizedRMSD>
1.65205157

$$$$
