
 OpenBabel03252503273D

 26 27  0  0  0  0  0  0  0  0999 V2000
   45.1960   34.6990   42.9580 C   0  0  0  0  0  0  0  0  0  0  0  0
   46.2000   35.1700   42.1020 C   0  0  0  0  0  0  0  0  0  0  0  0
   47.5090   34.7300   42.3770 C   0  0  0  0  0  0  0  0  0  0  0  0
   47.6880   33.8940   43.4310 N   0  0  0  0  0  0  0  0  0  0  0  0
   46.6990   33.4650   44.2220 C   0  0  0  0  0  0  0  0  0  0  0  0
   45.4430   33.8730   43.9850 N   0  0  0  0  0  0  0  0  0  0  0  0
   43.2510   34.4110   41.6700 C   0  0  0  0  0  0  0  0  0  0  0  0
   43.9710   33.5910   41.0140 O   0  0  0  0  0  0  0  0  0  0  0  0
   43.8400   35.0970   42.7600 N   0  0  0  0  0  0  0  0  0  0  0  0
   45.9920   35.8190   41.2890 H   0  0  0  0  0  0  0  0  0  0  0  0
   46.8570   32.7830   45.0590 H   0  0  0  0  0  0  0  0  0  0  0  0
   43.1950   35.7700   43.2360 H   0  0  0  0  0  0  0  0  0  0  0  0
   40.9200   33.4950   41.1680 C   0  0  0  0  0  0  0  0  0  0  0  0
   41.8750   34.4970   41.1600 C   0  0  0  0  0  0  0  0  0  0  0  0
   41.5940   35.7390   40.6300 C   0  0  0  0  0  0  0  0  0  0  0  0
   42.2610   36.5910   40.5690 H   0  0  0  0  0  0  0  0  0  0  0  0
   40.3210   35.9740   40.0950 C   0  0  0  0  0  0  0  0  0  0  0  0
   40.0370   36.9160   39.6700 H   0  0  0  0  0  0  0  0  0  0  0  0
   39.3600   34.9830   40.0940 C   0  0  0  0  0  0  0  0  0  0  0  0
   39.6700   33.7540   40.6300 C   0  0  0  0  0  0  0  0  0  0  0  0
   41.6390   31.2260   42.2220 N   0  0  0  0  0  0  0  0  0  0  0  0
   41.3190   32.2370   41.7410 C   0  0  0  0  0  0  0  0  0  0  0  0
   48.5400   35.2310   41.4770 C   0  0  0  0  0  0  0  0  0  0  0  0
   49.7040   34.4900   41.6470 F   0  0  0  0  0  0  0  0  0  0  0  0
   48.8560   36.5150   41.8840 F   0  0  0  0  0  0  0  0  0  0  0  0
   48.1980   35.1480   40.1610 F   0  0  0  0  0  0  0  0  0  0  0  0
  1  6  1  0  0  0  0
  2  3  1  0  0  0  0
  2  1  2  0  0  0  0
  3  4  2  0  0  0  0
  4  5  1  0  0  0  0
  5 11  1  0  0  0  0
  6  5  2  0  0  0  0
  7  9  1  0  0  0  0
  8  7  2  0  0  0  0
  9  1  1  0  0  0  0
  9 12  1  0  0  0  0
 10  2  1  0  0  0  0
 13 22  1  0  0  0  0
 14 13  1  0  0  0  0
 14  7  1  0  0  0  0
 15 14  2  0  0  0  0
 16 15  1  0  0  0  0
 17 15  1  0  0  0  0
 18 17  1  0  0  0  0
 19 17  2  0  0  0  0
 19 20  1  0  0  0  0
 20 13  2  0  0  0  0
 22 21  3  0  0  0  0
 23 24  1  0  0  0  0
 23 25  1  0  0  0  0
 23  3  1  0  0  0  0
 26 23  1  0  0  0  0
M  END
>  <minimizedAffinity>
-6.38166904

>  <minimizedRMSD>
1.05775905

$$$$
