
 OpenBabel03252504473D

 28 29  0  0  0  0  0  0  0  0999 V2000
   45.3300   30.8940   49.5810 O   0  0  0  0  0  0  0  0  0  0  0  0
   45.7410   31.0120   48.1060 P   0  0  1  0  0  0  0  0  0  0  0  0
   44.4980   30.2050   47.2540 O   0  0  0  0  0  0  0  0  0  0  0  0
   44.8300   29.6770   46.5070 H   0  0  0  0  0  0  0  0  0  0  0  0
   45.7640   32.6670   47.7460 O   0  0  0  0  0  0  0  0  0  0  0  0
   45.2880   34.6630   44.7830 C   0  0  0  0  0  0  0  0  0  0  0  0
   46.2240   34.1080   43.9220 C   0  0  0  0  0  0  0  0  0  0  0  0
   46.9920   33.0510   44.4070 C   0  0  0  0  0  0  0  0  0  0  0  0
   46.7950   32.6250   45.6710 N   0  0  0  0  0  0  0  0  0  0  0  0
   45.8580   33.2080   46.4750 C   0  0  0  0  0  0  0  0  0  0  0  0
   45.0940   34.2380   46.0350 N   0  0  0  0  0  0  0  0  0  0  0  0
   46.3470   34.4810   42.9220 H   0  0  0  0  0  0  0  0  0  0  0  0
   47.7200   32.6120   43.7520 H   0  0  0  0  0  0  0  0  0  0  0  0
   44.4650   35.8080   44.2500 C   0  0  0  0  0  0  0  0  0  0  0  0
   44.2340   35.6360   43.1810 H   0  0  0  0  0  0  0  0  0  0  0  0
   45.1220   36.7030   44.3530 H   0  0  0  0  0  0  0  0  0  0  0  0
   43.5760   35.9480   44.8760 H   0  0  0  0  0  0  0  0  0  0  0  0
   47.1710   30.2700   47.7560 O   0  0  0  0  0  0  0  0  0  0  0  0
   49.3300   29.2800   48.6350 C   0  0  0  0  0  0  0  0  0  0  0  0
   48.3690   30.2250   48.3840 C   0  0  0  0  0  0  0  0  0  0  0  0
   48.6410   31.5070   48.8860 C   0  0  0  0  0  0  0  0  0  0  0  0
   48.0390   32.4300   48.8200 H   0  0  0  0  0  0  0  0  0  0  0  0
   49.8120   31.7960   49.5920 C   0  0  0  0  0  0  0  0  0  0  0  0
   50.0910   32.7530   50.0070 H   0  0  0  0  0  0  0  0  0  0  0  0
   50.7440   30.8030   49.8140 C   0  0  0  0  0  0  0  0  0  0  0  0
   50.4900   29.5390   49.3280 C   0  0  0  0  0  0  0  0  0  0  0  0
   48.7830   26.9370   47.6920 N   0  0  0  0  0  0  0  0  0  0  0  0
   49.0180   27.9900   48.1110 C   0  0  0  0  0  0  0  0  0  0  0  0
  2  1  2  1  0  0  0
  3  2  1  0  0  0  0
  4  3  1  0  0  0  0
  5  2  1  0  0  0  0
  6 11  1  0  0  0  0
  7  8  1  0  0  0  0
  7  6  2  0  0  0  0
  8  9  2  0  0  0  0
  9 10  1  0  0  0  0
 10  5  1  0  0  0  0
 11 10  2  0  0  0  0
 12  7  1  0  0  0  0
 13  8  1  0  0  0  0
 14 16  1  0  0  0  0
 14  6  1  0  0  0  0
 14 17  1  0  0  0  0
 15 14  1  0  0  0  0
 18  2  1  0  0  0  0
 18 20  1  0  0  0  0
 19 26  1  0  0  0  0
 20 19  2  0  0  0  0
 20 21  1  0  0  0  0
 21 23  2  0  0  0  0
 22 21  1  0  0  0  0
 23 25  1  0  0  0  0
 23 24  1  0  0  0  0
 26 25  2  0  0  0  0
 27 28  3  0  0  0  0
 28 19  1  0  0  0  0
M  END
>  <minimizedAffinity>
-4.92277241

>  <minimizedRMSD>
1.51289487

$$$$
