
 OpenBabel03252507223D

 48 51  0  0  1  0  0  0  0  0999 V2000
   47.4520   33.5010   42.9130 C   0  0  0  0  0  0  0  0  0  0  0  0
   48.5840   33.4750   43.5230 O   0  0  0  0  0  0  0  0  0  0  0  0
   47.1620   32.7480   41.7160 N   0  0  0  0  0  0  0  0  0  0  0  0
   45.9840   31.9990   41.3470 C   0  0  0  0  0  0  0  0  0  0  0  0
   45.5270   32.4710   39.9600 C   0  0  0  0  0  0  0  0  0  0  0  0
   46.5730   32.1500   38.9310 C   0  0  0  0  0  0  0  0  0  0  0  0
   47.8750   31.8050   39.6170 C   0  0  0  0  0  0  0  0  0  0  0  0
   48.2210   32.7830   40.7120 C   0  0  2  0  0  0  0  0  0  0  0  0
   45.1320   32.2180   42.0490 H   0  0  0  0  0  0  0  0  0  0  0  0
   46.1600   30.9110   41.2640 H   0  0  0  0  0  0  0  0  0  0  0  0
   45.3360   33.5700   40.0300 H   0  0  0  0  0  0  0  0  0  0  0  0
   44.5860   31.9320   39.7350 H   0  0  0  0  0  0  0  0  0  0  0  0
   46.7610   33.0860   38.3610 H   0  0  0  0  0  0  0  0  0  0  0  0
   46.2740   31.3010   38.3060 H   0  0  0  0  0  0  0  0  0  0  0  0
   48.7200   31.7400   38.9190 H   0  0  0  0  0  0  0  0  0  0  0  0
   47.7740   30.7530   40.0280 H   0  0  0  0  0  0  0  0  0  0  0  0
   48.1940   33.7880   40.2750 H   0  0  0  0  0  0  0  0  0  0  0  0
   46.0560   35.4910   42.7560 C   0  0  0  0  0  0  0  0  0  0  0  0
   46.4280   34.3350   43.4680 C   0  0  0  0  0  0  0  0  0  0  0  0
   45.8070   34.0400   44.6710 C   0  0  0  0  0  0  0  0  0  0  0  0
   44.8550   34.8930   45.1070 N   0  0  0  0  0  0  0  0  0  0  0  0
   44.4800   36.0040   44.4470 C   0  0  0  0  0  0  0  0  0  0  0  0
   45.0960   36.2890   43.2660 N   0  0  0  0  0  0  0  0  0  0  0  0
   46.5310   35.7420   41.8160 H   0  0  0  0  0  0  0  0  0  0  0  0
   43.7110   36.6740   44.8330 H   0  0  0  0  0  0  0  0  0  0  0  0
   46.2080   32.8410   45.3860 C   0  0  0  0  0  0  0  0  0  0  0  0
   45.8770   31.6130   44.8960 C   0  0  0  0  0  0  0  0  0  0  0  0
   46.2720   30.5060   45.6000 C   0  0  0  0  0  0  0  0  0  0  0  0
   46.9900   30.5700   46.7840 C   0  0  0  0  0  0  0  0  0  0  0  0
   47.2930   31.8460   47.2290 C   0  0  0  0  0  0  0  0  0  0  0  0
   46.8970   32.9080   46.5250 N   0  0  0  0  0  0  0  0  0  0  0  0
   45.3260   31.4210   43.9910 H   0  0  0  0  0  0  0  0  0  0  0  0
   46.0200   29.5010   45.2240 H   0  0  0  0  0  0  0  0  0  0  0  0
   47.2890   29.6840   47.3200 H   0  0  0  0  0  0  0  0  0  0  0  0
   47.8560   31.9230   48.1470 H   0  0  0  0  0  0  0  0  0  0  0  0
   49.5830   32.5400   41.2200 C   0  0  0  0  0  0  0  0  0  0  0  0
   50.2000   32.7600   40.2770 H   0  0  0  0  0  0  0  0  0  0  0  0
   50.0070   33.3810   41.8580 H   0  0  0  0  0  0  0  0  0  0  0  0
   50.9710   30.5090   40.8800 C   0  0  0  0  0  0  0  0  0  0  0  0
   50.0210   31.2310   41.6410 C   0  0  0  0  0  0  0  0  0  0  0  0
   49.6240   30.4290   42.7160 C   0  0  0  0  0  0  0  0  0  0  0  0
   48.8620   30.8230   43.3700 H   0  0  0  0  0  0  0  0  0  0  0  0
   50.0130   29.1890   43.0530 C   0  0  0  0  0  0  0  0  0  0  0  0
   49.6050   28.6850   43.9350 H   0  0  0  0  0  0  0  0  0  0  0  0
   50.9380   28.5390   42.2790 C   0  0  0  0  0  0  0  0  0  0  0  0
   51.4170   29.2160   41.1790 C   0  0  0  0  0  0  0  0  0  0  0  0
   52.0320   31.6920   38.7840 N   0  0  0  0  0  0  0  0  0  0  0  0
   51.5560   31.1520   39.7200 C   0  0  0  0  0  0  0  0  0  0  0  0
  1 19  1  0  0  0  0
  1  2  2  0  0  0  0
  3  1  1  0  0  0  0
  4  3  1  0  0  0  0
  4  9  1  0  0  0  0
  5 11  1  0  0  0  0
  5  4  1  0  0  0  0
  6  7  1  0  0  0  0
  6  5  1  0  0  0  0
  7 16  1  0  0  0  0
  7  8  1  0  0  0  0
  8 17  1  6  0  0  0
  8 36  1  0  0  0  0
  8  3  1  0  0  0  0
 10  4  1  0  0  0  0
 12  5  1  0  0  0  0
 13  6  1  0  0  0  0
 14  6  1  0  0  0  0
 15  7  1  0  0  0  0
 18 23  2  0  0  0  0
 18 19  1  0  0  0  0
 19 20  2  0  0  0  0
 20 21  1  0  0  0  0
 20 26  1  0  0  0  0
 22 25  1  0  0  0  0
 22 21  2  0  0  0  0
 23 22  1  0  0  0  0
 24 18  1  0  0  0  0
 26 31  1  0  0  0  0
 27 26  2  0  0  0  0
 27 28  1  0  0  0  0
 28 29  2  0  0  0  0
 29 30  1  0  0  0  0
 29 34  1  0  0  0  0
 30 35  1  0  0  0  0
 31 30  2  0  0  0  0
 32 27  1  0  0  0  0
 33 28  1  0  0  0  0
 36 40  1  0  0  0  0
 36 38  1  0  0  0  0
 37 36  1  0  0  0  0
 39 46  2  0  0  0  0
 39 40  1  0  0  0  0
 40 41  2  0  0  0  0
 41 43  1  0  0  0  0
 41 42  1  0  0  0  0
 43 44  1  0  0  0  0
 45 43  2  0  0  0  0
 46 45  1  0  0  0  0
 47 48  3  0  0  0  0
 48 39  1  0  0  0  0
M  END
>  <minimizedAffinity>
-4.98684645

>  <minimizedRMSD>
1.11838472

$$$$
