
 OpenBabel03252508033D

 43 46  0  0  1  0  0  0  0  0999 V2000
   42.0150   33.1240   41.2220 C   0  0  0  0  0  0  0  0  0  0  0  0
   42.7330   34.2780   41.3560 C   0  0  0  0  0  0  0  0  0  0  0  0
   42.0310   35.5000   41.3040 C   0  0  0  0  0  0  0  0  0  0  0  0
   40.6700   35.5830   41.1280 C   0  0  0  0  0  0  0  0  0  0  0  0
   39.9570   34.4190   40.9950 C   0  0  0  0  0  0  0  0  0  0  0  0
   40.6310   33.2340   41.0440 C   0  0  0  0  0  0  0  0  0  0  0  0
   42.5110   36.4650   41.3900 H   0  0  0  0  0  0  0  0  0  0  0  0
   40.1420   36.4990   41.0890 H   0  0  0  0  0  0  0  0  0  0  0  0
   38.9060   34.4060   40.8570 H   0  0  0  0  0  0  0  0  0  0  0  0
   40.0500   32.3040   40.9360 H   0  0  0  0  0  0  0  0  0  0  0  0
   42.7130   31.5990   41.3640 S   0  0  0  0  0  0  0  0  0  0  0  0
   41.6710   30.7410   40.5790 O   0  0  0  0  0  0  0  0  0  0  0  0
   42.7270   31.0880   42.7540 O   0  0  0  0  0  0  0  0  0  0  0  0
   43.9130   31.2290   39.0650 C   0  0  0  0  0  0  0  0  0  0  0  0
   43.9000   30.8450   40.4350 C   0  0  0  0  0  0  0  0  0  0  0  0
   44.9400   29.9570   40.6970 C   0  0  0  0  0  0  0  0  0  0  0  0
   44.9380   29.7110   41.7770 H   0  0  0  0  0  0  0  0  0  0  0  0
   45.9210   29.4210   39.8950 C   0  0  0  0  0  0  0  0  0  0  0  0
   46.6270   28.7410   40.3310 H   0  0  0  0  0  0  0  0  0  0  0  0
   45.7780   29.8930   38.6380 C   0  0  0  0  0  3  0  0  0  0  0  0
   44.8390   30.7650   38.1640 C   0  0  0  0  0  3  0  0  0  0  0  0
   42.1490   32.8700   38.0450 N   0  0  0  0  0  0  0  0  0  0  0  0
   42.9320   32.1520   38.5040 C   0  0  0  0  0  0  0  0  0  0  0  0
   44.1720   34.2980   41.5470 C   0  0  0  0  0  0  0  0  0  0  0  0
   45.0200   34.2310   40.6070 O   0  0  0  0  0  0  0  0  0  0  0  0
   44.5590   34.4060   42.9310 C   0  0  0  0  0  0  0  0  0  0  0  0
   44.3150   35.6830   43.5440 C   0  0  0  0  0  0  0  0  0  0  0  0
   44.6740   35.8110   44.8780 C   0  0  0  0  0  0  0  0  0  0  0  0
   45.2230   34.7400   45.5080 N   0  0  0  0  0  0  0  0  0  0  0  0
   45.4340   33.5430   44.8730 C   0  0  0  0  0  0  0  0  0  0  0  0
   45.1040   33.4170   43.6340 N   0  0  0  0  0  0  0  0  0  0  0  0
   43.8920   36.5660   43.1200 H   0  0  0  0  0  0  0  0  0  0  0  0
   44.5420   36.7070   45.4390 H   0  0  0  0  0  0  0  0  0  0  0  0
   46.0270   32.4300   45.6440 C   0  0  1  0  0  0  0  0  0  0  0  0
   46.9760   32.7460   46.7760 C   0  0  0  0  0  0  0  0  0  0  0  0
   45.5630   32.3300   47.0450 C   0  0  1  0  0  0  0  0  0  0  0  0
   46.1460   31.4780   45.1020 H   0  0  0  0  0  0  0  0  0  0  0  0
   47.3070   33.7920   46.8510 H   0  0  0  0  0  0  0  0  0  0  0  0
   47.7770   31.9790   46.9760 H   0  0  0  0  0  0  0  0  0  0  0  0
   45.4250   31.3470   47.5360 H   0  0  0  0  0  0  0  0  0  0  0  0
   44.7700   33.3950   47.6320 N   0  0  0  0  0  0  0  0  0  0  0  0
   45.2830   33.8360   48.4200 H   0  0  0  0  0  0  0  0  0  0  0  0
   43.8690   32.9680   47.9840 H   0  0  0  0  0  0  0  0  0  0  0  0
  1  2  1  0  0  0  0
  1 11  1  0  0  0  0
  2 24  1  0  0  0  0
  3  2  2  0  0  0  0
  3  7  1  0  0  0  0
  4  3  1  0  0  0  0
  5  6  1  0  0  0  0
  5  4  2  0  0  0  0
  6  1  2  0  0  0  0
  8  4  1  0  0  0  0
  9  5  1  0  0  0  0
 10  6  1  0  0  0  0
 11 13  2  0  0  0  0
 12 11  2  0  0  0  0
 14 15  1  0  0  0  0
 15 16  2  0  0  0  0
 15 11  1  0  0  0  0
 16 17  1  0  0  0  0
 18 19  1  0  0  0  0
 18 16  1  0  0  0  0
 20 18  2  0  0  0  0
 21 20  1  0  0  0  0
 21 14  2  0  0  0  0
 22 23  3  0  0  0  0
 23 14  1  0  0  0  0
 24 26  1  0  0  0  0
 25 24  2  0  0  0  0
 26 27  2  0  0  0  0
 26 31  1  0  0  0  0
 27 28  1  0  0  0  0
 28 33  1  0  0  0  0
 28 29  2  0  0  0  0
 30 29  1  0  0  0  0
 30 34  1  0  0  0  0
 31 30  2  0  0  0  0
 32 27  1  0  0  0  0
 34 37  1  6  0  0  0
 34 35  1  0  0  0  0
 34 36  1  0  0  0  0
 35 38  1  0  0  0  0
 35 39  1  0  0  0  0
 35 36  1  0  0  0  0
 36 40  1  1  0  0  0
 36 41  1  0  0  0  0
 41 43  1  0  0  0  0
 41 42  1  0  0  0  0
M  END
>  <minimizedAffinity>
-5.60359478

>  <minimizedRMSD>
1.27678227

$$$$
