
 OpenBabel03242519243D

 41 44  0  0  0  0  0  0  0  0999 V2000
   47.8850   33.7310   42.8750 C   0  0  0  0  0  0  0  0  0  0  0  0
   48.5910   34.9370   42.7070 C   0  0  0  0  0  0  0  0  0  0  0  0
   49.9580   34.9130   42.3850 C   0  0  0  0  0  0  0  0  0  0  0  0
   50.5210   33.6710   42.2530 N   0  0  0  0  0  0  0  0  0  0  0  0
   49.8050   32.5170   42.4230 C   0  0  0  0  0  0  0  0  0  0  0  0
   48.5160   32.5630   42.7280 N   0  0  0  0  0  0  0  0  0  0  0  0
   48.2290   35.9470   42.7920 H   0  0  0  0  0  0  0  0  0  0  0  0
   50.5590   35.7860   42.2420 H   0  0  0  0  0  0  0  0  0  0  0  0
   46.4600   33.8810   43.2180 C   0  0  0  0  0  0  0  0  0  0  0  0
   45.7590   34.8880   42.4220 C   0  0  0  0  0  0  0  0  0  0  0  0
   45.3360   36.0890   43.1870 C   0  0  0  0  0  0  0  0  0  0  0  0
   44.5360   35.7570   44.4340 C   0  0  0  0  0  0  0  0  0  0  0  0
   44.9890   34.5000   45.1380 C   0  0  0  0  0  0  0  0  0  0  0  0
   46.4080   34.1450   44.7340 C   0  0  0  0  0  0  0  0  0  0  0  0
   45.9890   32.8580   43.1220 H   0  0  0  0  0  0  0  0  0  0  0  0
   46.3210   35.2240   41.5430 H   0  0  0  0  0  0  0  0  0  0  0  0
   44.8200   34.4270   41.9950 H   0  0  0  0  0  0  0  0  0  0  0  0
   44.6120   36.6550   42.5280 H   0  0  0  0  0  0  0  0  0  0  0  0
   46.1020   36.8110   43.4550 H   0  0  0  0  0  0  0  0  0  0  0  0
   43.4380   35.7290   44.2130 H   0  0  0  0  0  0  0  0  0  0  0  0
   44.6570   36.5790   45.1710 H   0  0  0  0  0  0  0  0  0  0  0  0
   44.3140   33.6580   44.8290 H   0  0  0  0  0  0  0  0  0  0  0  0
   44.9460   34.5530   46.2330 H   0  0  0  0  0  0  0  0  0  0  0  0
   47.0750   34.9990   44.9090 H   0  0  0  0  0  0  0  0  0  0  0  0
   46.7260   33.2400   45.2670 H   0  0  0  0  0  0  0  0  0  0  0  0
   50.5710   31.2830   42.2510 C   0  0  0  0  0  0  0  0  0  0  0  0
   51.5870   31.3050   41.3600 N   0  0  0  0  0  0  0  0  0  0  0  0
   52.1800   30.1020   41.3320 C   0  0  0  0  0  0  0  0  0  0  0  0
   51.5120   29.3240   42.2280 N   0  0  0  0  0  0  0  0  0  0  0  0
   50.5240   30.0440   42.7940 N   0  0  0  0  0  0  0  0  0  0  0  0
   53.0220   29.7360   40.7510 H   0  0  0  0  0  0  0  0  0  0  0  0
   51.0960   26.8590   42.0490 C   0  0  0  0  0  0  0  0  0  0  0  0
   51.7030   27.9650   42.6130 C   0  0  0  0  0  0  0  0  0  0  0  0
   52.6030   27.8040   43.6720 C   0  0  0  0  0  0  0  0  0  0  0  0
   53.1130   28.6450   44.1580 H   0  0  0  0  0  0  0  0  0  0  0  0
   52.9090   26.5540   44.1770 C   0  0  0  0  0  0  0  0  0  0  0  0
   53.6080   26.4470   44.9980 H   0  0  0  0  0  0  0  0  0  0  0  0
   52.2780   25.4680   43.5830 C   0  0  0  0  0  3  0  0  0  0  0  0
   51.3850   25.5960   42.5370 C   0  0  0  0  0  3  0  0  0  0  0  0
   49.4650   27.2970   40.0920 N   0  0  0  0  0  0  0  0  0  0  0  0
   50.1990   27.1080   40.9840 C   0  0  0  0  0  0  0  0  0  0  0  0
  1  9  1  0  0  0  0
  2  7  1  0  0  0  0
  2  1  2  0  0  0  0
  3  2  1  0  0  0  0
  4  3  2  0  0  0  0
  4  5  1  0  0  0  0
  5  6  2  0  0  0  0
  6  1  1  0  0  0  0
  8  3  1  0  0  0  0
  9 14  1  0  0  0  0
 10 11  1  0  0  0  0
 10  9  1  0  0  0  0
 11 19  1  0  0  0  0
 11 12  1  0  0  0  0
 12 13  1  0  0  0  0
 12 21  1  0  0  0  0
 13 23  1  0  0  0  0
 14 24  1  0  0  0  0
 14 13  1  0  0  0  0
 14 25  1  0  0  0  0
 15  9  1  0  0  0  0
 16 10  1  0  0  0  0
 17 10  1  0  0  0  0
 18 11  1  0  0  0  0
 20 12  1  0  0  0  0
 22 13  1  0  0  0  0
 26  5  1  0  0  0  0
 26 30  2  0  0  0  0
 27 26  1  0  0  0  0
 28 27  2  0  0  0  0
 28 29  1  0  0  0  0
 29 33  1  0  0  0  0
 29 30  1  0  0  0  0
 31 28  1  0  0  0  0
 32 39  2  0  0  0  0
 32 33  1  0  0  0  0
 33 34  2  0  0  0  0
 34 35  1  0  0  0  0
 34 36  1  0  0  0  0
 36 37  1  0  0  0  0
 38 36  2  0  0  0  0
 39 38  1  0  0  0  0
 40 41  3  0  0  0  0
 41 32  1  0  0  0  0
M  END
>  <minimizedAffinity>
-3.97928977

>  <minimizedRMSD>
0.571563959

$$$$
