
 OpenBabel03242519253D

 41 44  0  0  0  0  0  0  0  0999 V2000
   47.9060   33.7910   42.8910 C   0  0  0  0  0  0  0  0  0  0  0  0
   48.5780   35.0060   42.6560 C   0  0  0  0  0  0  0  0  0  0  0  0
   49.9460   35.0020   42.3380 C   0  0  0  0  0  0  0  0  0  0  0  0
   50.5450   33.7710   42.2790 N   0  0  0  0  0  0  0  0  0  0  0  0
   49.8600   32.6080   42.5130 C   0  0  0  0  0  0  0  0  0  0  0  0
   48.5690   32.6360   42.8120 N   0  0  0  0  0  0  0  0  0  0  0  0
   48.1880   36.0090   42.6830 H   0  0  0  0  0  0  0  0  0  0  0  0
   50.5230   35.8820   42.1470 H   0  0  0  0  0  0  0  0  0  0  0  0
   46.4760   33.9210   43.2220 C   0  0  0  0  0  0  0  0  0  0  0  0
   45.7710   34.9300   42.4320 C   0  0  0  0  0  0  0  0  0  0  0  0
   45.3260   36.1160   43.2080 C   0  0  0  0  0  0  0  0  0  0  0  0
   44.5180   35.7580   44.4430 C   0  0  0  0  0  0  0  0  0  0  0  0
   44.9790   34.4980   45.1350 C   0  0  0  0  0  0  0  0  0  0  0  0
   46.4060   34.1640   44.7410 C   0  0  0  0  0  0  0  0  0  0  0  0
   46.0170   32.8940   43.1080 H   0  0  0  0  0  0  0  0  0  0  0  0
   46.3370   35.2830   41.5630 H   0  0  0  0  0  0  0  0  0  0  0  0
   44.8410   34.4640   41.9900 H   0  0  0  0  0  0  0  0  0  0  0  0
   44.6020   36.6820   42.5500 H   0  0  0  0  0  0  0  0  0  0  0  0
   46.0810   36.8430   43.4930 H   0  0  0  0  0  0  0  0  0  0  0  0
   43.4220   35.7210   44.2110 H   0  0  0  0  0  0  0  0  0  0  0  0
   44.6220   36.5720   45.1910 H   0  0  0  0  0  0  0  0  0  0  0  0
   44.3170   33.6520   44.8090 H   0  0  0  0  0  0  0  0  0  0  0  0
   44.9250   34.5360   46.2300 H   0  0  0  0  0  0  0  0  0  0  0  0
   47.0610   35.0240   44.9330 H   0  0  0  0  0  0  0  0  0  0  0  0
   46.7290   33.2570   45.2650 H   0  0  0  0  0  0  0  0  0  0  0  0
   50.6610   31.3890   42.4130 C   0  0  0  0  0  0  0  0  0  0  0  0
   51.5480   31.3130   41.3960 N   0  0  0  0  0  0  0  0  0  0  0  0
   52.1950   30.1390   41.4570 C   0  0  0  0  0  0  0  0  0  0  0  0
   51.6930   29.4800   42.5370 N   0  0  0  0  0  0  0  0  0  0  0  0
   50.7520   30.2430   43.1270 N   0  0  0  0  0  0  0  0  0  0  0  0
   52.9700   29.7200   40.8220 H   0  0  0  0  0  0  0  0  0  0  0  0
   52.9560   27.9290   44.0470 C   0  0  0  0  0  0  0  0  0  0  0  0
   52.0050   28.2000   43.0810 C   0  0  0  0  0  0  0  0  0  0  0  0
   51.2390   27.1610   42.5440 C   0  0  0  0  0  0  0  0  0  0  0  0
   50.4700   27.3180   41.7750 H   0  0  0  0  0  0  0  0  0  0  0  0
   51.4060   25.8510   42.9550 C   0  0  0  0  0  0  0  0  0  0  0  0
   50.8030   25.0580   42.5290 H   0  0  0  0  0  0  0  0  0  0  0  0
   52.3720   25.6190   43.9270 C   0  0  0  0  0  3  0  0  0  0  0  0
   53.1430   26.6260   44.4760 C   0  0  0  0  0  3  0  0  0  0  0  0
   54.2930   29.9430   44.9630 N   0  0  0  0  0  0  0  0  0  0  0  0
   53.6880   29.0350   44.5390 C   0  0  0  0  0  0  0  0  0  0  0  0
  1  9  1  0  0  0  0
  2  7  1  0  0  0  0
  2  1  2  0  0  0  0
  3  2  1  0  0  0  0
  4  3  2  0  0  0  0
  4  5  1  0  0  0  0
  5  6  2  0  0  0  0
  6  1  1  0  0  0  0
  8  3  1  0  0  0  0
  9 14  1  0  0  0  0
 10 11  1  0  0  0  0
 10  9  1  0  0  0  0
 11 19  1  0  0  0  0
 11 12  1  0  0  0  0
 12 13  1  0  0  0  0
 12 21  1  0  0  0  0
 13 23  1  0  0  0  0
 14 24  1  0  0  0  0
 14 13  1  0  0  0  0
 14 25  1  0  0  0  0
 15  9  1  0  0  0  0
 16 10  1  0  0  0  0
 17 10  1  0  0  0  0
 18 11  1  0  0  0  0
 20 12  1  0  0  0  0
 22 13  1  0  0  0  0
 26  5  1  0  0  0  0
 26 30  2  0  0  0  0
 27 28  2  0  0  0  0
 27 26  1  0  0  0  0
 28 29  1  0  0  0  0
 29 33  1  0  0  0  0
 29 30  1  0  0  0  0
 31 28  1  0  0  0  0
 32 39  1  0  0  0  0
 32 41  1  0  0  0  0
 33 32  2  0  0  0  0
 34 36  2  0  0  0  0
 34 33  1  0  0  0  0
 35 34  1  0  0  0  0
 36 38  1  0  0  0  0
 37 36  1  0  0  0  0
 38 39  2  0  0  0  0
 41 40  3  0  0  0  0
M  END
>  <minimizedAffinity>
-4.19080687

>  <minimizedRMSD>
1.48860943

$$$$
