
 OpenBabel03252508023D

 43 46  0  0  1  0  0  0  0  0999 V2000
   42.0400   33.2750   41.1330 C   0  0  0  0  0  0  0  0  0  0  0  0
   42.8040   34.3940   41.3070 C   0  0  0  0  0  0  0  0  0  0  0  0
   42.1590   35.6470   41.2540 C   0  0  0  0  0  0  0  0  0  0  0  0
   40.8100   35.7940   41.0370 C   0  0  0  0  0  0  0  0  0  0  0  0
   40.0500   34.6650   40.8640 C   0  0  0  0  0  0  0  0  0  0  0  0
   40.6680   33.4510   40.9140 C   0  0  0  0  0  0  0  0  0  0  0  0
   42.6790   36.5880   41.3700 H   0  0  0  0  0  0  0  0  0  0  0  0
   40.3250   36.7330   40.9970 H   0  0  0  0  0  0  0  0  0  0  0  0
   39.0040   34.7020   40.6940 H   0  0  0  0  0  0  0  0  0  0  0  0
   40.0500   32.5490   40.7740 H   0  0  0  0  0  0  0  0  0  0  0  0
   42.6640   31.7180   41.2720 S   0  0  0  0  0  0  0  0  0  0  0  0
   41.5030   30.8940   40.6300 O   0  0  0  0  0  0  0  0  0  0  0  0
   42.7890   31.2600   42.6750 O   0  0  0  0  0  0  0  0  0  0  0  0
   43.7810   29.4670   40.5350 C   0  0  0  0  0  0  0  0  0  0  0  0
   43.7100   30.8620   40.2660 C   0  0  0  0  0  0  0  0  0  0  0  0
   44.4990   31.1800   39.1640 C   0  0  0  0  0  0  0  0  0  0  0  0
   44.3880   32.2600   38.9430 H   0  0  0  0  0  0  0  0  0  0  0  0
   45.2920   30.4120   38.3420 C   0  0  0  0  0  0  0  0  0  0  0  0
   45.8170   30.8920   37.5400 H   0  0  0  0  0  0  0  0  0  0  0  0
   45.2380   29.1250   38.7460 C   0  0  0  0  0  3  0  0  0  0  0  0
   44.5340   28.5940   39.7900 C   0  0  0  0  0  3  0  0  0  0  0  0
   42.4970   28.3490   42.5240 N   0  0  0  0  0  0  0  0  0  0  0  0
   43.0560   28.8470   41.6410 C   0  0  0  0  0  0  0  0  0  0  0  0
   44.2360   34.3460   41.5430 C   0  0  0  0  0  0  0  0  0  0  0  0
   45.1080   34.2360   40.6290 O   0  0  0  0  0  0  0  0  0  0  0  0
   44.5850   34.4380   42.9380 C   0  0  0  0  0  0  0  0  0  0  0  0
   44.3030   35.7010   43.5640 C   0  0  0  0  0  0  0  0  0  0  0  0
   44.6250   35.8140   44.9080 C   0  0  0  0  0  0  0  0  0  0  0  0
   45.1760   34.7430   45.5370 N   0  0  0  0  0  0  0  0  0  0  0  0
   45.4240   33.5590   44.8890 C   0  0  0  0  0  0  0  0  0  0  0  0
   45.1280   33.4470   43.6400 N   0  0  0  0  0  0  0  0  0  0  0  0
   43.8760   36.5840   43.1420 H   0  0  0  0  0  0  0  0  0  0  0  0
   44.4630   36.6990   45.4800 H   0  0  0  0  0  0  0  0  0  0  0  0
   46.0150   32.4440   45.6580 C   0  0  1  0  0  0  0  0  0  0  0  0
   46.9660   32.7570   46.7900 C   0  0  0  0  0  0  0  0  0  0  0  0
   45.5520   32.3430   47.0590 C   0  0  1  0  0  0  0  0  0  0  0  0
   46.1330   31.4930   45.1150 H   0  0  0  0  0  0  0  0  0  0  0  0
   47.2990   33.8020   46.8660 H   0  0  0  0  0  0  0  0  0  0  0  0
   47.7650   31.9890   46.9880 H   0  0  0  0  0  0  0  0  0  0  0  0
   45.4130   31.3600   47.5490 H   0  0  0  0  0  0  0  0  0  0  0  0
   44.7610   33.4090   47.6480 N   0  0  0  0  0  0  0  0  0  0  0  0
   45.2750   33.8480   48.4360 H   0  0  0  0  0  0  0  0  0  0  0  0
   43.8600   32.9830   48.0000 H   0  0  0  0  0  0  0  0  0  0  0  0
  1 11  1  0  0  0  0
  1  2  1  0  0  0  0
  2 24  1  0  0  0  0
  3  2  2  0  0  0  0
  3  7  1  0  0  0  0
  4  3  1  0  0  0  0
  5  6  1  0  0  0  0
  5  4  2  0  0  0  0
  6  1  2  0  0  0  0
  8  4  1  0  0  0  0
  9  5  1  0  0  0  0
 10  6  1  0  0  0  0
 11 13  2  0  0  0  0
 12 11  2  0  0  0  0
 14 23  1  0  0  0  0
 15 14  1  0  0  0  0
 15 11  1  0  0  0  0
 16 15  2  0  0  0  0
 17 16  1  0  0  0  0
 18 20  2  0  0  0  0
 18 16  1  0  0  0  0
 19 18  1  0  0  0  0
 20 21  1  0  0  0  0
 21 14  2  0  0  0  0
 23 22  3  0  0  0  0
 24 26  1  0  0  0  0
 25 24  2  0  0  0  0
 26 27  2  0  0  0  0
 26 31  1  0  0  0  0
 27 28  1  0  0  0  0
 28 33  1  0  0  0  0
 28 29  2  0  0  0  0
 30 29  1  0  0  0  0
 30 34  1  0  0  0  0
 31 30  2  0  0  0  0
 32 27  1  0  0  0  0
 34 37  1  6  0  0  0
 34 35  1  0  0  0  0
 34 36  1  0  0  0  0
 35 38  1  0  0  0  0
 35 39  1  0  0  0  0
 35 36  1  0  0  0  0
 36 40  1  1  0  0  0
 36 41  1  0  0  0  0
 41 43  1  0  0  0  0
 41 42  1  0  0  0  0
M  END
>  <minimizedAffinity>
-5.52876568

>  <minimizedRMSD>
1.22959864

$$$$
