
 OpenBabel03242518013D

 38 40  0  0  0  0  0  0  0  0999 V2000
   46.2620   31.4510   45.8960 C   0  0  0  0  0  0  0  0  0  0  0  0
   45.2760   31.7870   46.2560 H   0  0  0  0  0  0  0  0  0  0  0  0
   46.0300   30.5190   45.2990 H   0  0  0  0  0  0  0  0  0  0  0  0
   46.9920   31.3900   48.2690 C   0  0  0  0  0  0  0  0  0  0  0  0
   47.2090   31.0480   46.9220 C   0  0  0  0  0  0  0  0  0  0  0  0
   48.3710   30.3150   46.6600 C   0  0  0  0  0  0  0  0  0  0  0  0
   49.1950   29.9870   47.6810 N   0  0  0  0  0  0  0  0  0  0  0  0
   48.9490   30.3330   48.9510 C   0  0  0  0  0  0  0  0  0  0  0  0
   47.8560   31.0280   49.2350 N   0  0  0  0  0  0  0  0  0  0  0  0
   46.1290   31.9540   48.5940 H   0  0  0  0  0  0  0  0  0  0  0  0
   48.5320   30.0570   45.6260 H   0  0  0  0  0  0  0  0  0  0  0  0
   50.2310   28.6030   50.1460 C   0  0  0  0  0  0  0  0  0  0  0  0
   49.8860   29.9400   50.0000 C   0  0  0  0  0  0  0  0  0  0  0  0
   50.4200   30.9160   50.8390 C   0  0  0  0  0  0  0  0  0  0  0  0
   50.1510   31.9580   50.7250 H   0  0  0  0  0  0  0  0  0  0  0  0
   51.3110   30.5940   51.8460 C   0  0  0  0  0  0  0  0  0  0  0  0
   51.7280   31.3410   52.4990 H   0  0  0  0  0  0  0  0  0  0  0  0
   51.6210   29.2540   51.9500 C   0  0  0  0  0  3  0  0  0  0  0  0
   51.1260   28.2490   51.1510 C   0  0  0  0  0  3  0  0  0  0  0  0
   49.2380   26.8150   48.5800 N   0  0  0  0  0  0  0  0  0  0  0  0
   49.6820   27.6100   49.2840 C   0  0  0  0  0  0  0  0  0  0  0  0
   46.9620   32.4450   44.9920 C   0  0  0  0  0  0  0  0  0  0  0  0
   47.2890   31.9220   44.0670 H   0  0  0  0  0  0  0  0  0  0  0  0
   47.9380   32.8000   45.4410 H   0  0  0  0  0  0  0  0  0  0  0  0
   46.3670   34.3100   43.5080 C   0  0  0  0  0  0  0  0  0  0  0  0
   46.1990   33.6690   44.7230 C   0  0  0  0  0  0  0  0  0  0  0  0
   45.3510   34.1130   45.7010 C   0  0  0  0  0  0  0  0  0  0  0  0
   44.6260   35.2650   45.4580 C   0  0  0  0  0  0  0  0  0  0  0  0
   44.7220   35.9660   44.2940 C   0  0  0  0  0  0  0  0  0  0  0  0
   45.6080   35.4480   43.3470 C   0  0  0  0  0  0  0  0  0  0  0  0
   45.1750   33.6750   46.6510 H   0  0  0  0  0  0  0  0  0  0  0  0
   43.9330   35.6770   46.1900 H   0  0  0  0  0  0  0  0  0  0  0  0
   44.1800   36.8670   44.0600 H   0  0  0  0  0  0  0  0  0  0  0  0
   45.6980   35.9970   42.4120 H   0  0  0  0  0  0  0  0  0  0  0  0
   47.4340   33.7790   42.2390 S   0  0  0  0  0  0  0  0  0  0  0  0
   48.8700   34.1520   42.4930 O   0  0  0  0  0  0  0  0  0  0  0  0
   47.0690   34.5070   40.9610 O   0  0  0  0  0  0  0  0  0  0  0  0
   47.2960   32.4500   41.9270 H   0  0  0  0  0  0  0  0  0  0  0  0
  1  2  1  0  0  0  0
  1  5  1  0  0  0  0
  3  1  1  0  0  0  0
  4 10  1  0  0  0  0
  4  9  1  0  0  0  0
  5  4  2  0  0  0  0
  6  5  1  0  0  0  0
  6  7  2  0  0  0  0
  7  8  1  0  0  0  0
  8  9  2  0  0  0  0
  8 13  1  0  0  0  0
 11  6  1  0  0  0  0
 12 19  1  0  0  0  0
 13 12  2  0  0  0  0
 13 14  1  0  0  0  0
 14 16  2  0  0  0  0
 15 14  1  0  0  0  0
 16 18  1  0  0  0  0
 16 17  1  0  0  0  0
 19 18  2  0  0  0  0
 20 21  3  0  0  0  0
 21 12  1  0  0  0  0
 22 24  1  0  0  0  0
 22  1  1  0  0  0  0
 23 22  1  0  0  0  0
 25 26  1  0  0  0  0
 26 22  1  0  0  0  0
 26 27  2  0  0  0  0
 27 31  1  0  0  0  0
 28 27  1  0  0  0  0
 28 32  1  0  0  0  0
 29 28  2  0  0  0  0
 30 25  2  0  0  0  0
 30 29  1  0  0  0  0
 33 29  1  0  0  0  0
 34 30  1  0  0  0  0
 35 36  2  0  0  0  0
 35 25  1  0  0  0  0
 37 35  2  0  0  0  0
 38 35  1  0  0  0  0
M  END
>  <minimizedAffinity>
-5.35360003

>  <minimizedRMSD>
0.745821595

$$$$
