
 OpenBabel03252506463D

 43 46  0  0  1  0  0  0  0  0999 V2000
   49.8400   33.5850   41.5200 N   0  0  1  0  0  0  0  0  0  0  0  0
   50.7450   32.9370   42.4300 C   0  0  0  0  0  0  0  0  0  0  0  0
   51.2590   31.6070   41.9520 C   0  0  0  0  0  0  0  0  0  0  0  0
   50.1150   30.6340   41.8390 C   0  0  0  0  0  0  0  0  0  0  0  0
   48.8500   31.3330   41.4350 C   0  0  0  0  0  0  0  0  0  0  0  0
   49.2030   32.5970   40.6740 C   0  0  2  0  0  0  0  0  0  0  0  0
   50.2800   32.7990   43.4190 H   0  0  0  0  0  0  0  0  0  0  0  0
   51.6190   33.6230   42.6110 H   0  0  0  0  0  0  0  0  0  0  0  0
   51.9310   31.6530   41.1020 H   0  0  0  0  0  0  0  0  0  0  0  0
   51.8730   31.2220   42.8330 H   0  0  0  0  0  0  0  0  0  0  0  0
   49.9220   30.1290   42.8130 H   0  0  0  0  0  0  0  0  0  0  0  0
   50.4050   29.8280   41.1340 H   0  0  0  0  0  0  0  0  0  0  0  0
   48.2950   31.7170   42.3540 H   0  0  0  0  0  0  0  0  0  0  0  0
   48.1790   30.7320   40.8440 H   0  0  0  0  0  0  0  0  0  0  0  0
   48.2270   33.0380   40.3700 H   0  0  0  0  0  0  0  0  0  0  0  0
   47.5290   34.6290   41.9480 C   0  0  1  0  0  0  0  0  0  0  0  0
   48.5330   35.6830   41.6760 C   0  0  0  0  0  0  0  0  0  0  0  0
   48.9620   34.3990   42.2650 C   0  0  2  0  0  0  0  0  0  0  0  0
   47.1220   34.1390   41.0200 H   0  0  0  0  0  0  0  0  0  0  0  0
   48.7940   35.9370   40.6350 H   0  0  0  0  0  0  0  0  0  0  0  0
   48.5240   36.5610   42.3470 H   0  0  0  0  0  0  0  0  0  0  0  0
   49.1630   34.3790   43.3790 H   0  0  0  0  0  0  0  0  0  0  0  0
   45.6600   35.9120   43.0290 C   0  0  0  0  0  0  0  0  0  0  0  0
   46.5530   34.8330   43.0180 C   0  0  0  0  0  0  0  0  0  0  0  0
   46.4610   33.9180   44.0910 C   0  0  0  0  0  0  0  0  0  0  0  0
   45.5300   34.1350   45.0520 N   0  0  0  0  0  0  0  0  0  0  0  0
   44.6910   35.1780   45.0320 C   0  0  0  0  0  0  0  0  0  0  0  0
   44.7460   36.0880   44.0120 N   0  0  0  0  0  0  0  0  0  0  0  0
   45.6890   36.6410   42.2330 H   0  0  0  0  0  0  0  0  0  0  0  0
   47.1250   33.0710   44.1300 H   0  0  0  0  0  0  0  0  0  0  0  0
   44.0030   35.2130   45.8720 H   0  0  0  0  0  0  0  0  0  0  0  0
   49.9360   32.2970   39.4860 N   0  0  0  0  0  0  0  0  0  0  0  0
   50.9230   32.6860   39.6020 H   0  0  0  0  0  0  0  0  0  0  0  0
   49.3210   32.3110   37.0640 C   0  0  0  0  0  0  0  0  0  0  0  0
   49.8710   31.7200   38.2090 C   0  0  0  0  0  0  0  0  0  0  0  0
   50.3790   30.4400   38.0990 C   0  0  0  0  0  0  0  0  0  0  0  0
   50.8310   29.7890   38.8340 H   0  0  0  0  0  0  0  0  0  0  0  0
   50.3670   29.7230   36.9140 C   0  0  0  0  0  0  0  0  0  0  0  0
   50.7270   28.7320   36.7000 H   0  0  0  0  0  0  0  0  0  0  0  0
   49.8230   30.3240   35.8050 C   0  0  0  0  0  0  0  0  0  0  0  0
   49.3140   31.5960   35.8970 C   0  0  0  0  0  0  0  0  0  0  0  0
   48.3640   34.7080   37.3220 N   0  0  0  0  0  0  0  0  0  0  0  0
   48.7980   33.6430   37.2010 C   0  0  0  0  0  0  0  0  0  0  0  0
  1 18  1  0  0  0  0
  1  2  1  1  0  0  0
  2  8  1  0  0  0  0
  2  7  1  0  0  0  0
  3  2  1  0  0  0  0
  3 10  1  0  0  0  0
  4  3  1  0  0  0  0
  4 11  1  0  0  0  0
  5  4  1  0  0  0  0
  5 13  1  0  0  0  0
  6 15  1  6  0  0  0
  6  5  1  0  0  0  0
  6  1  1  0  0  0  0
  9  3  1  0  0  0  0
 12  4  1  0  0  0  0
 14  5  1  0  0  0  0
 16 19  1  6  0  0  0
 16 18  1  0  0  0  0
 16 24  1  0  0  0  0
 17 16  1  0  0  0  0
 17 18  1  0  0  0  0
 17 21  1  0  0  0  0
 18 22  1  1  0  0  0
 20 17  1  0  0  0  0
 23 28  1  0  0  0  0
 24 23  2  0  0  0  0
 24 25  1  0  0  0  0
 25 30  1  0  0  0  0
 25 26  2  0  0  0  0
 27 26  1  0  0  0  0
 27 31  1  0  0  0  0
 28 27  2  0  0  0  0
 29 23  1  0  0  0  0
 32 33  1  0  0  0  0
 32  6  1  0  0  0  0
 34 43  1  0  0  0  0
 34 35  1  0  0  0  0
 35 32  1  0  0  0  0
 36 35  2  0  0  0  0
 36 37  1  0  0  0  0
 38 36  1  0  0  0  0
 39 38  1  0  0  0  0
 40 41  1  0  0  0  0
 40 38  2  0  0  0  0
 41 34  2  0  0  0  0
 43 42  3  0  0  0  0
M  END
>  <minimizedAffinity>
-5.34604359

>  <minimizedRMSD>
2.11062741

$$$$
