
 OpenBabel03252507463D

 38 40  0  0  0  0  0  0  0  0999 V2000
   46.9570   34.3310   40.9000 C   0  0  0  0  0  0  0  0  0  0  0  0
   47.0800   35.1040   40.1070 H   0  0  0  0  0  0  0  0  0  0  0  0
   46.3640   33.4560   40.5640 H   0  0  0  0  0  0  0  0  0  0  0  0
   48.3070   33.9640   41.3420 C   0  0  0  0  0  0  0  0  0  0  0  0
   48.7400   32.6980   40.9800 C   0  0  0  0  0  0  0  0  0  0  0  0
   50.0090   32.2510   41.3650 C   0  0  0  0  0  0  0  0  0  0  0  0
   50.7820   33.1060   42.1010 N   0  0  0  0  0  0  0  0  0  0  0  0
   50.3150   34.3360   42.4300 C   0  0  0  0  0  0  0  0  0  0  0  0
   49.1050   34.7350   42.0500 N   0  0  0  0  0  0  0  0  0  0  0  0
   50.3110   31.2630   41.0670 H   0  0  0  0  0  0  0  0  0  0  0  0
   50.9070   35.0280   43.0110 H   0  0  0  0  0  0  0  0  0  0  0  0
   47.7020   31.5790   40.0260 S   0  0  0  0  0  0  0  0  0  0  0  0
   47.0300   31.4730   37.2260 C   0  0  0  0  0  0  0  0  0  0  0  0
   47.7660   31.9490   38.2860 C   0  0  0  0  0  0  0  0  0  0  0  0
   48.7660   32.8910   38.0140 C   0  0  0  0  0  0  0  0  0  0  0  0
   49.4420   33.3720   38.7270 H   0  0  0  0  0  0  0  0  0  0  0  0
   49.0210   33.3430   36.7220 C   0  0  0  0  0  0  0  0  0  0  0  0
   49.7670   34.0550   36.4520 H   0  0  0  0  0  0  0  0  0  0  0  0
   48.2590   32.8440   35.6650 C   0  0  0  0  0  3  0  0  0  0  0  0
   47.2870   31.9240   35.9560 C   0  0  0  0  0  3  0  0  0  0  0  0
   45.2580   29.7100   37.8550 N   0  0  0  0  0  0  0  0  0  0  0  0
   46.0540   30.5110   37.5800 C   0  0  0  0  0  0  0  0  0  0  0  0
   46.1350   34.9830   41.9820 C   0  0  0  0  0  0  0  0  0  0  0  0
   46.4670   36.0350   42.1260 H   0  0  0  0  0  0  0  0  0  0  0  0
   46.2980   34.4730   42.9610 H   0  0  0  0  0  0  0  0  0  0  0  0
   44.6670   34.9590   41.7270 C   0  0  0  0  0  0  0  0  0  0  0  0
   43.7730   35.4560   42.7250 C   0  0  0  0  0  0  0  0  0  0  0  0
   42.1250   35.2140   41.9570 S   0  0  0  0  0  0  0  0  0  0  0  0
   42.9340   34.4710   40.3980 C   0  0  0  0  0  0  0  0  0  0  0  0
   44.0400   34.5250   40.6690 N   0  0  0  0  0  0  0  0  0  0  0  0
   44.0420   35.8710   43.6930 H   0  0  0  0  0  0  0  0  0  0  0  0
   42.2000   34.0260   39.2980 O   0  0  0  0  0  0  0  0  0  0  0  0
   40.3110   34.5540   37.5210 O   0  0  0  0  0  0  0  0  0  0  0  0
   41.4060   35.1910   38.3620 P   0  0  0  0  0  0  0  0  0  0  0  0
   40.7060   36.3140   39.4090 O   0  0  0  0  0  0  0  0  0  0  0  0
   39.8690   35.8970   39.7510 H   0  0  0  0  0  0  0  0  0  0  0  0
   42.5370   36.0000   37.3840 O   0  0  0  0  0  0  0  0  0  0  0  0
   42.8570   35.4100   36.6580 H   0  0  0  0  0  0  0  0  0  0  0  0
  1  4  1  0  0  0  0
  1 23  1  0  0  0  0
  2  1  1  0  0  0  0
  3  1  1  0  0  0  0
  4  9  1  0  0  0  0
  5  4  2  0  0  0  0
  5  6  1  0  0  0  0
  6  7  2  0  0  0  0
  7  8  1  0  0  0  0
  8 11  1  0  0  0  0
  9  8  2  0  0  0  0
 10  6  1  0  0  0  0
 12  5  1  0  0  0  0
 13 22  1  0  0  0  0
 13 14  1  0  0  0  0
 14 12  1  0  0  0  0
 15 14  2  0  0  0  0
 15 16  1  0  0  0  0
 17 15  1  0  0  0  0
 18 17  1  0  0  0  0
 19 20  1  0  0  0  0
 19 17  2  0  0  0  0
 20 13  2  0  0  0  0
 22 21  3  0  0  0  0
 23 24  1  0  0  0  0
 23 25  1  0  0  0  0
 26 23  1  0  0  0  0
 26 27  2  0  0  0  0
 27 31  1  0  0  0  0
 28 27  1  0  0  0  0
 29 30  2  0  0  0  0
 29 28  1  0  0  0  0
 30 26  1  0  0  0  0
 32 29  1  0  0  0  0
 33 34  2  0  0  0  0
 34 32  1  0  0  0  0
 34 35  1  0  0  0  0
 35 36  1  0  0  0  0
 37 34  1  0  0  0  0
 38 37  1  0  0  0  0
M  END
>  <minimizedAffinity>
-4.76143599

>  <minimizedRMSD>
0.569410563

$$$$
