
 OpenBabel03242519243D

 41 44  0  0  0  0  0  0  0  0999 V2000
   47.9090   33.7880   42.8900 C   0  0  0  0  0  0  0  0  0  0  0  0
   48.5820   35.0030   42.6570 C   0  0  0  0  0  0  0  0  0  0  0  0
   49.9500   34.9990   42.3400 C   0  0  0  0  0  0  0  0  0  0  0  0
   50.5480   33.7680   42.2790 N   0  0  0  0  0  0  0  0  0  0  0  0
   49.8630   32.6050   42.5120 C   0  0  0  0  0  0  0  0  0  0  0  0
   48.5720   32.6330   42.8100 N   0  0  0  0  0  0  0  0  0  0  0  0
   48.1910   36.0060   42.6830 H   0  0  0  0  0  0  0  0  0  0  0  0
   50.5270   35.8800   42.1500 H   0  0  0  0  0  0  0  0  0  0  0  0
   46.4790   33.9180   43.2200 C   0  0  0  0  0  0  0  0  0  0  0  0
   45.7740   34.9260   42.4280 C   0  0  0  0  0  0  0  0  0  0  0  0
   45.3280   36.1120   43.2030 C   0  0  0  0  0  0  0  0  0  0  0  0
   44.5200   35.7560   44.4380 C   0  0  0  0  0  0  0  0  0  0  0  0
   44.9800   34.4960   45.1320 C   0  0  0  0  0  0  0  0  0  0  0  0
   46.4070   34.1620   44.7380 C   0  0  0  0  0  0  0  0  0  0  0  0
   46.0200   32.8910   43.1060 H   0  0  0  0  0  0  0  0  0  0  0  0
   46.3400   35.2790   41.5600 H   0  0  0  0  0  0  0  0  0  0  0  0
   44.8450   34.4590   41.9860 H   0  0  0  0  0  0  0  0  0  0  0  0
   44.6050   36.6780   42.5440 H   0  0  0  0  0  0  0  0  0  0  0  0
   46.0830   36.8400   43.4880 H   0  0  0  0  0  0  0  0  0  0  0  0
   43.4240   35.7170   44.2050 H   0  0  0  0  0  0  0  0  0  0  0  0
   44.6230   36.5700   45.1860 H   0  0  0  0  0  0  0  0  0  0  0  0
   44.3190   33.6490   44.8050 H   0  0  0  0  0  0  0  0  0  0  0  0
   44.9260   34.5350   46.2260 H   0  0  0  0  0  0  0  0  0  0  0  0
   47.0630   35.0220   44.9310 H   0  0  0  0  0  0  0  0  0  0  0  0
   46.7310   33.2550   45.2630 H   0  0  0  0  0  0  0  0  0  0  0  0
   50.6650   31.3860   42.4120 C   0  0  0  0  0  0  0  0  0  0  0  0
   51.5480   31.3090   41.3920 N   0  0  0  0  0  0  0  0  0  0  0  0
   52.1960   30.1350   41.4530 C   0  0  0  0  0  0  0  0  0  0  0  0
   51.6970   29.4770   42.5360 N   0  0  0  0  0  0  0  0  0  0  0  0
   50.7570   30.2410   43.1270 N   0  0  0  0  0  0  0  0  0  0  0  0
   52.9700   29.7150   40.8170 H   0  0  0  0  0  0  0  0  0  0  0  0
   52.9610   27.9270   44.0470 C   0  0  0  0  0  0  0  0  0  0  0  0
   52.0110   28.1980   43.0810 C   0  0  0  0  0  0  0  0  0  0  0  0
   51.2460   27.1570   42.5420 C   0  0  0  0  0  0  0  0  0  0  0  0
   50.4780   27.3140   41.7730 H   0  0  0  0  0  0  0  0  0  0  0  0
   51.4160   25.8480   42.9520 C   0  0  0  0  0  0  0  0  0  0  0  0
   50.8150   25.0540   42.5250 H   0  0  0  0  0  0  0  0  0  0  0  0
   52.3810   25.6180   43.9250 C   0  0  0  0  0  3  0  0  0  0  0  0
   53.1500   26.6250   44.4750 C   0  0  0  0  0  3  0  0  0  0  0  0
   54.2930   29.9440   44.9660 N   0  0  0  0  0  0  0  0  0  0  0  0
   53.6900   29.0340   44.5390 C   0  0  0  0  0  0  0  0  0  0  0  0
  1  9  1  0  0  0  0
  2  7  1  0  0  0  0
  2  1  2  0  0  0  0
  3  2  1  0  0  0  0
  4  3  2  0  0  0  0
  4  5  1  0  0  0  0
  5  6  2  0  0  0  0
  6  1  1  0  0  0  0
  8  3  1  0  0  0  0
  9 14  1  0  0  0  0
 10 11  1  0  0  0  0
 10  9  1  0  0  0  0
 11 19  1  0  0  0  0
 11 12  1  0  0  0  0
 12 13  1  0  0  0  0
 12 21  1  0  0  0  0
 13 23  1  0  0  0  0
 14 24  1  0  0  0  0
 14 13  1  0  0  0  0
 14 25  1  0  0  0  0
 15  9  1  0  0  0  0
 16 10  1  0  0  0  0
 17 10  1  0  0  0  0
 18 11  1  0  0  0  0
 20 12  1  0  0  0  0
 22 13  1  0  0  0  0
 26  5  1  0  0  0  0
 26 30  2  0  0  0  0
 27 28  2  0  0  0  0
 27 26  1  0  0  0  0
 28 29  1  0  0  0  0
 29 33  1  0  0  0  0
 29 30  1  0  0  0  0
 31 28  1  0  0  0  0
 32 39  1  0  0  0  0
 32 41  1  0  0  0  0
 33 32  2  0  0  0  0
 34 36  2  0  0  0  0
 34 33  1  0  0  0  0
 35 34  1  0  0  0  0
 36 38  1  0  0  0  0
 37 36  1  0  0  0  0
 38 39  2  0  0  0  0
 41 40  3  0  0  0  0
M  END
>  <minimizedAffinity>
-4.18949795

>  <minimizedRMSD>
1.23599207

$$$$
