
 OpenBabel03252507223D

 48 51  0  0  1  0  0  0  0  0999 V2000
   47.4510   33.5000   42.9130 C   0  0  0  0  0  0  0  0  0  0  0  0
   48.5830   33.4740   43.5240 O   0  0  0  0  0  0  0  0  0  0  0  0
   47.1600   32.7480   41.7160 N   0  0  0  0  0  0  0  0  0  0  0  0
   45.9820   31.9990   41.3470 C   0  0  0  0  0  0  0  0  0  0  0  0
   45.5250   32.4710   39.9600 C   0  0  0  0  0  0  0  0  0  0  0  0
   46.5710   32.1510   38.9310 C   0  0  0  0  0  0  0  0  0  0  0  0
   47.8730   31.8050   39.6170 C   0  0  0  0  0  0  0  0  0  0  0  0
   48.2190   32.7830   40.7120 C   0  0  2  0  0  0  0  0  0  0  0  0
   45.1300   32.2180   42.0500 H   0  0  0  0  0  0  0  0  0  0  0  0
   46.1580   30.9110   41.2640 H   0  0  0  0  0  0  0  0  0  0  0  0
   45.3340   33.5710   40.0310 H   0  0  0  0  0  0  0  0  0  0  0  0
   44.5840   31.9330   39.7350 H   0  0  0  0  0  0  0  0  0  0  0  0
   46.7590   33.0870   38.3610 H   0  0  0  0  0  0  0  0  0  0  0  0
   46.2720   31.3020   38.3060 H   0  0  0  0  0  0  0  0  0  0  0  0
   48.7180   31.7410   38.9190 H   0  0  0  0  0  0  0  0  0  0  0  0
   47.7720   30.7530   40.0280 H   0  0  0  0  0  0  0  0  0  0  0  0
   48.1920   33.7880   40.2760 H   0  0  0  0  0  0  0  0  0  0  0  0
   46.0540   35.4910   42.7580 C   0  0  0  0  0  0  0  0  0  0  0  0
   46.4270   34.3340   43.4690 C   0  0  0  0  0  0  0  0  0  0  0  0
   45.8050   34.0390   44.6720 C   0  0  0  0  0  0  0  0  0  0  0  0
   44.8530   34.8920   45.1080 N   0  0  0  0  0  0  0  0  0  0  0  0
   44.4790   36.0040   44.4490 C   0  0  0  0  0  0  0  0  0  0  0  0
   45.0950   36.2890   43.2680 N   0  0  0  0  0  0  0  0  0  0  0  0
   46.5310   35.7420   41.8180 H   0  0  0  0  0  0  0  0  0  0  0  0
   43.7100   36.6730   44.8350 H   0  0  0  0  0  0  0  0  0  0  0  0
   46.2060   32.8400   45.3870 C   0  0  0  0  0  0  0  0  0  0  0  0
   45.8710   31.6120   44.8980 C   0  0  0  0  0  0  0  0  0  0  0  0
   46.2660   30.5040   45.6000 C   0  0  0  0  0  0  0  0  0  0  0  0
   46.9870   30.5670   46.7830 C   0  0  0  0  0  0  0  0  0  0  0  0
   47.2930   31.8430   47.2270 C   0  0  0  0  0  0  0  0  0  0  0  0
   46.8970   32.9050   46.5230 N   0  0  0  0  0  0  0  0  0  0  0  0
   45.3180   31.4210   43.9940 H   0  0  0  0  0  0  0  0  0  0  0  0
   46.0110   29.5000   45.2250 H   0  0  0  0  0  0  0  0  0  0  0  0
   47.2860   29.6800   47.3180 H   0  0  0  0  0  0  0  0  0  0  0  0
   47.8580   31.9190   48.1430 H   0  0  0  0  0  0  0  0  0  0  0  0
   49.5810   32.5400   41.2200 C   0  0  0  0  0  0  0  0  0  0  0  0
   50.1980   32.7600   40.2780 H   0  0  0  0  0  0  0  0  0  0  0  0
   50.0050   33.3800   41.8590 H   0  0  0  0  0  0  0  0  0  0  0  0
   50.9690   30.5080   40.8800 C   0  0  0  0  0  0  0  0  0  0  0  0
   50.0190   31.2310   41.6410 C   0  0  0  0  0  0  0  0  0  0  0  0
   49.6220   30.4280   42.7150 C   0  0  0  0  0  0  0  0  0  0  0  0
   48.8590   30.8230   43.3690 H   0  0  0  0  0  0  0  0  0  0  0  0
   50.0110   29.1880   43.0520 C   0  0  0  0  0  0  0  0  0  0  0  0
   49.6010   28.6840   43.9340 H   0  0  0  0  0  0  0  0  0  0  0  0
   50.9350   28.5370   42.2790 C   0  0  0  0  0  3  0  0  0  0  0  0
   51.4140   29.2160   41.1780 C   0  0  0  0  0  3  0  0  0  0  0  0
   52.0310   31.6920   38.7840 N   0  0  0  0  0  0  0  0  0  0  0  0
   51.5550   31.1520   39.7200 C   0  0  0  0  0  0  0  0  0  0  0  0
  1 19  1  0  0  0  0
  1  2  2  0  0  0  0
  3  1  1  0  0  0  0
  4  3  1  0  0  0  0
  4  9  1  0  0  0  0
  5 11  1  0  0  0  0
  5  4  1  0  0  0  0
  6  7  1  0  0  0  0
  6  5  1  0  0  0  0
  7 16  1  0  0  0  0
  7  8  1  0  0  0  0
  8 17  1  6  0  0  0
  8 36  1  0  0  0  0
  8  3  1  0  0  0  0
 10  4  1  0  0  0  0
 12  5  1  0  0  0  0
 13  6  1  0  0  0  0
 14  6  1  0  0  0  0
 15  7  1  0  0  0  0
 18 23  2  0  0  0  0
 18 19  1  0  0  0  0
 19 20  2  0  0  0  0
 20 21  1  0  0  0  0
 20 26  1  0  0  0  0
 22 25  1  0  0  0  0
 22 21  2  0  0  0  0
 23 22  1  0  0  0  0
 24 18  1  0  0  0  0
 26 31  1  0  0  0  0
 27 26  2  0  0  0  0
 27 28  1  0  0  0  0
 28 29  2  0  0  0  0
 29 30  1  0  0  0  0
 29 34  1  0  0  0  0
 30 35  1  0  0  0  0
 31 30  2  0  0  0  0
 32 27  1  0  0  0  0
 33 28  1  0  0  0  0
 36 40  1  0  0  0  0
 36 38  1  0  0  0  0
 37 36  1  0  0  0  0
 39 46  2  0  0  0  0
 39 40  1  0  0  0  0
 40 41  2  0  0  0  0
 41 43  1  0  0  0  0
 41 42  1  0  0  0  0
 43 44  1  0  0  0  0
 45 43  2  0  0  0  0
 46 45  1  0  0  0  0
 47 48  3  0  0  0  0
 48 39  1  0  0  0  0
M  END
>  <minimizedAffinity>
-4.97690725

>  <minimizedRMSD>
0.551794171

$$$$
