
 OpenBabel03242522473D

 42 45  0  0  0  0  0  0  0  0999 V2000
   45.7880   34.6400   44.0150 C   0  0  0  0  0  0  0  0  0  0  0  0
   46.8560   33.9500   43.4290 C   0  0  0  0  0  0  0  0  0  0  0  0
   47.4700   32.8840   44.1490 C   0  0  0  0  0  0  0  0  0  0  0  0
   46.9700   32.6030   45.3770 N   0  0  0  0  0  0  0  0  0  0  0  0
   45.9410   33.2820   45.9200 C   0  0  0  0  0  0  0  0  0  0  0  0
   45.3740   34.2770   45.2380 N   0  0  0  0  0  0  0  0  0  0  0  0
   45.1860   35.6920   43.3010 N   0  0  0  0  0  0  0  0  0  0  0  0
   48.2910   32.3410   43.7210 H   0  0  0  0  0  0  0  0  0  0  0  0
   45.8200   36.3570   42.8000 H   0  0  0  0  0  0  0  0  0  0  0  0
   44.1440   35.7550   43.3070 H   0  0  0  0  0  0  0  0  0  0  0  0
   47.3770   34.2640   42.1180 C   0  0  0  0  0  0  0  0  0  0  0  0
   48.3500   35.1750   41.7820 C   0  0  0  0  0  0  0  0  0  0  0  0
   48.7320   35.3560   40.4670 C   0  0  0  0  0  0  0  0  0  0  0  0
   48.1500   34.6220   39.4270 C   0  0  0  0  0  0  0  0  0  0  0  0
   48.5920   34.8720   38.1900 N   0  0  0  0  0  0  0  0  0  0  0  0
   48.0320   34.1620   37.1550 C   0  0  0  0  0  0  0  0  0  0  0  0
   47.0480   33.2370   37.4730 C   0  0  0  0  0  0  0  0  0  0  0  0
   46.6040   32.9900   38.7500 C   0  0  0  0  0  0  0  0  0  0  0  0
   47.1740   33.7100   39.7760 C   0  0  0  0  0  0  0  0  0  0  0  0
   46.7800   33.5190   41.0950 C   0  0  0  0  0  0  0  0  0  0  0  0
   48.7720   35.7170   42.6170 H   0  0  0  0  0  0  0  0  0  0  0  0
   49.5010   36.0810   40.2380 H   0  0  0  0  0  0  0  0  0  0  0  0
   48.3370   34.3090   36.1270 H   0  0  0  0  0  0  0  0  0  0  0  0
   46.5780   32.6540   36.6870 H   0  0  0  0  0  0  0  0  0  0  0  0
   45.8310   32.2600   38.9680 H   0  0  0  0  0  0  0  0  0  0  0  0
   46.0090   32.7790   41.2420 H   0  0  0  0  0  0  0  0  0  0  0  0
   45.4670   32.8880   47.2850 C   0  0  0  0  0  0  0  0  0  0  0  0
   45.4150   33.8450   47.8660 H   0  0  0  0  0  0  0  0  0  0  0  0
   44.5330   32.3320   47.2860 H   0  0  0  0  0  0  0  0  0  0  0  0
   46.5880   32.0790   47.9730 C   0  0  0  0  0  0  0  0  0  0  0  0
   46.5220   32.2300   49.0780 H   0  0  0  0  0  0  0  0  0  0  0  0
   47.5500   32.3710   47.5580 H   0  0  0  0  0  0  0  0  0  0  0  0
   47.2800   29.6570   47.7770 C   0  0  0  0  0  0  0  0  0  0  0  0
   46.3160   30.6400   47.7080 C   0  0  0  0  0  0  0  0  0  0  0  0
   45.0350   30.2410   47.3720 C   0  0  0  0  0  0  0  0  0  0  0  0
   44.2700   31.0240   47.3180 H   0  0  0  0  0  0  0  0  0  0  0  0
   44.6230   28.9560   47.0980 C   0  0  0  0  0  0  0  0  0  0  0  0
   43.5890   28.7630   46.8460 H   0  0  0  0  0  0  0  0  0  0  0  0
   45.6170   28.0030   47.1780 C   0  0  0  0  0  3  0  0  0  0  0  0
   46.9260   28.3300   47.5090 C   0  0  0  0  0  3  0  0  0  0  0  0
   49.7050   30.3330   48.4170 N   0  0  0  0  0  0  0  0  0  0  0  0
   48.6200   30.0340   48.1210 C   0  0  0  0  0  0  0  0  0  0  0  0
  1  6  1  0  0  0  0
  2  1  2  0  0  0  0
  2  3  1  0  0  0  0
  3  4  2  0  0  0  0
  4  5  1  0  0  0  0
  5 27  1  0  0  0  0
  6  5  2  0  0  0  0
  7 10  1  0  0  0  0
  7  1  1  0  0  0  0
  8  3  1  0  0  0  0
  9  7  1  0  0  0  0
 11  2  1  0  0  0  0
 12 11  1  0  0  0  0
 12 21  1  0  0  0  0
 13 12  2  0  0  0  0
 14 19  1  0  0  0  0
 14 13  1  0  0  0  0
 15 14  2  0  0  0  0
 16 17  2  0  0  0  0
 16 15  1  0  0  0  0
 17 18  1  0  0  0  0
 18 25  1  0  0  0  0
 18 19  2  0  0  0  0
 19 20  1  0  0  0  0
 20 26  1  0  0  0  0
 20 11  2  0  0  0  0
 22 13  1  0  0  0  0
 23 16  1  0  0  0  0
 24 17  1  0  0  0  0
 27 29  1  0  0  0  0
 27 28  1  0  0  0  0
 27 30  1  0  0  0  0
 30 31  1  0  0  0  0
 32 30  1  0  0  0  0
 33 42  1  0  0  0  0
 34 33  1  0  0  0  0
 34 30  1  0  0  0  0
 35 34  2  0  0  0  0
 36 35  1  0  0  0  0
 37 39  2  0  0  0  0
 37 35  1  0  0  0  0
 38 37  1  0  0  0  0
 39 40  1  0  0  0  0
 40 33  2  0  0  0  0
 42 41  3  0  0  0  0
M  END
>  <minimizedAffinity>
-6.31007719

>  <minimizedRMSD>
3.16356993

$$$$
