
 OpenBabel03252509253D

 28 30  0  0  1  0  0  0  0  0999 V2000
   36.1650   28.7930   39.4930 C   0  0  1  0  0  0  0  0  0  0  0  0
   36.1990   27.9320   38.2070 C   0  0  0  0  0  0  0  0  0  0  0  0
   37.1280   27.7570   39.4370 C   0  0  2  0  0  0  0  0  0  0  0  0
   35.2060   28.7390   40.0330 H   0  0  0  0  0  0  0  0  0  0  0  0
   36.6440   28.3280   37.3010 H   0  0  0  0  0  0  0  0  0  0  0  0
   35.3530   27.2250   38.1350 H   0  0  0  0  0  0  0  0  0  0  0  0
   38.1950   27.9580   39.2100 H   0  0  0  0  0  0  0  0  0  0  0  0
   36.9660   32.4480   39.8300 C   0  0  0  0  0  0  0  0  0  0  0  0
   36.4690   31.1630   40.1640 C   0  0  0  0  0  0  0  0  0  0  0  0
   36.5940   30.2150   39.1830 C   0  0  0  0  0  0  0  0  0  0  0  0
   37.1620   30.5030   37.9580 N   0  0  0  0  0  0  0  0  0  0  0  0
   37.6200   31.7380   37.6820 C   0  0  0  0  0  0  0  0  0  0  0  0
   37.5230   32.7160   38.6200 N   0  0  0  0  0  0  0  0  0  0  0  0
   36.8710   33.2040   40.6030 H   0  0  0  0  0  0  0  0  0  0  0  0
   38.0710   32.0010   36.7380 H   0  0  0  0  0  0  0  0  0  0  0  0
   35.8550   30.8730   41.4180 N   0  0  0  0  0  0  0  0  0  0  0  0
   36.2630   30.5640   42.3060 H   0  0  0  0  0  0  0  0  0  0  0  0
   34.8390   31.0550   41.2350 H   0  0  0  0  0  0  0  0  0  0  0  0
   37.1080   26.4560   41.5830 C   0  0  0  0  0  0  0  0  0  0  0  0
   36.9720   26.4900   40.2090 C   0  0  0  0  0  0  0  0  0  0  0  0
   36.6830   25.3330   39.4860 C   0  0  0  0  0  0  0  0  0  0  0  0
   36.5670   25.3120   38.3980 H   0  0  0  0  0  0  0  0  0  0  0  0
   36.5280   24.1250   40.1670 C   0  0  0  0  0  0  0  0  0  0  0  0
   36.3010   23.2000   39.6260 H   0  0  0  0  0  0  0  0  0  0  0  0
   36.6680   24.1160   41.5410 C   0  0  0  0  0  3  0  0  0  0  0  0
   36.9560   25.2560   42.2770 C   0  0  0  0  0  3  0  0  0  0  0  0
   37.6380   28.6330   42.8960 N   0  0  0  0  0  0  0  0  0  0  0  0
   37.4050   27.6550   42.3060 C   0  0  0  0  0  0  0  0  0  0  0  0
  1  4  1  1  0  0  0
  2  3  1  0  0  0  0
  2  1  1  0  0  0  0
  3  7  1  6  0  0  0
  3  1  1  0  0  0  0
  3 20  1  0  0  0  0
  5  2  1  0  0  0  0
  6  2  1  0  0  0  0
  8  9  1  0  0  0  0
  8 14  1  0  0  0  0
  9 16  1  0  0  0  0
 10  1  1  0  0  0  0
 10  9  2  0  0  0  0
 11 10  1  0  0  0  0
 12 11  2  0  0  0  0
 12 13  1  0  0  0  0
 13  8  2  0  0  0  0
 15 12  1  0  0  0  0
 16 17  1  0  0  0  0
 18 16  1  0  0  0  0
 19 26  1  0  0  0  0
 19 28  1  0  0  0  0
 20 19  2  0  0  0  0
 21 23  2  0  0  0  0
 21 20  1  0  0  0  0
 22 21  1  0  0  0  0
 23 25  1  0  0  0  0
 24 23  1  0  0  0  0
 25 26  2  0  0  0  0
 28 27  3  0  0  0  0
M  END
>  <minimizedAffinity>
-5.2743845

$$$$

 OpenBabel03252509253D

 28 30  0  0  1  0  0  0  0  0999 V2000
   38.3140   31.2970   40.6920 C   0  0  1  0  0  0  0  0  0  0  0  0
   37.0950   30.8870   39.8300 C   0  0  0  0  0  0  0  0  0  0  0  0
   38.1870   29.9250   40.3670 C   0  0  2  0  0  0  0  0  0  0  0  0
   38.0370   31.7480   41.6590 H   0  0  0  0  0  0  0  0  0  0  0  0
   37.0910   31.0900   38.7650 H   0  0  0  0  0  0  0  0  0  0  0  0
   36.1430   30.8990   40.3910 H   0  0  0  0  0  0  0  0  0  0  0  0
   38.7880   29.4540   39.5620 H   0  0  0  0  0  0  0  0  0  0  0  0
   40.4680   34.1570   39.5540 C   0  0  0  0  0  0  0  0  0  0  0  0
   39.5100   33.4370   40.3130 C   0  0  0  0  0  0  0  0  0  0  0  0
   39.2620   32.1620   39.8830 C   0  0  0  0  0  0  0  0  0  0  0  0
   39.9020   31.6240   38.7830 N   0  0  0  0  0  0  0  0  0  0  0  0
   40.8040   32.3430   38.0900 C   0  0  0  0  0  0  0  0  0  0  0  0
   41.0900   33.6140   38.4750 N   0  0  0  0  0  0  0  0  0  0  0  0
   40.6710   35.1690   39.8910 H   0  0  0  0  0  0  0  0  0  0  0  0
   41.3250   31.9590   37.2270 H   0  0  0  0  0  0  0  0  0  0  0  0
   38.8280   34.0020   41.4310 N   0  0  0  0  0  0  0  0  0  0  0  0
   39.0800   34.0310   42.4230 H   0  0  0  0  0  0  0  0  0  0  0  0
   37.9620   34.4100   41.0020 H   0  0  0  0  0  0  0  0  0  0  0  0
   37.3520   27.6430   40.9920 C   0  0  0  0  0  0  0  0  0  0  0  0
   37.7430   28.9130   41.3680 C   0  0  0  0  0  0  0  0  0  0  0  0
   37.7350   29.3000   42.7080 C   0  0  0  0  0  0  0  0  0  0  0  0
   38.0350   30.2950   43.0530 H   0  0  0  0  0  0  0  0  0  0  0  0
   37.3270   28.3850   43.6800 C   0  0  0  0  0  0  0  0  0  0  0  0
   37.3100   28.6610   44.7390 H   0  0  0  0  0  0  0  0  0  0  0  0
   36.9410   27.1210   43.2790 C   0  0  0  0  0  3  0  0  0  0  0  0
   36.9410   26.7180   41.9520 C   0  0  0  0  0  3  0  0  0  0  0  0
   37.3880   26.9610   38.4860 N   0  0  0  0  0  0  0  0  0  0  0  0
   37.3670   27.2660   39.6120 C   0  0  0  0  0  0  0  0  0  0  0  0
  1  4  1  1  0  0  0
  2  3  1  0  0  0  0
  2  6  1  0  0  0  0
  2  1  1  0  0  0  0
  3  7  1  6  0  0  0
  3  1  1  0  0  0  0
  3 20  1  0  0  0  0
  5  2  1  0  0  0  0
  8 14  1  0  0  0  0
  8  9  1  0  0  0  0
  9 16  1  0  0  0  0
 10  9  2  0  0  0  0
 10  1  1  0  0  0  0
 11 10  1  0  0  0  0
 12 13  1  0  0  0  0
 12 11  2  0  0  0  0
 13  8  2  0  0  0  0
 15 12  1  0  0  0  0
 16 17  1  0  0  0  0
 18 16  1  0  0  0  0
 19 20  2  0  0  0  0
 19 26  1  0  0  0  0
 20 21  1  0  0  0  0
 21 22  1  0  0  0  0
 21 23  2  0  0  0  0
 23 24  1  0  0  0  0
 25 23  1  0  0  0  0
 26 25  2  0  0  0  0
 27 28  3  0  0  0  0
 28 19  1  0  0  0  0
M  END
>  <minimizedAffinity>
-5.02684546

$$$$

 OpenBabel03252509253D

 28 30  0  0  1  0  0  0  0  0999 V2000
   37.9080   29.3470   41.8010 C   0  0  1  0  0  0  0  0  0  0  0  0
   39.2070   29.9010   42.4390 C   0  0  0  0  0  0  0  0  0  0  0  0
   38.7660   30.1020   40.9640 C   0  0  2  0  0  0  0  0  0  0  0  0
   36.9890   29.7280   42.2750 H   0  0  0  0  0  0  0  0  0  0  0  0
   40.0460   29.2400   42.6210 H   0  0  0  0  0  0  0  0  0  0  0  0
   39.0270   30.7540   43.1180 H   0  0  0  0  0  0  0  0  0  0  0  0
   39.4490   29.6200   40.2350 H   0  0  0  0  0  0  0  0  0  0  0  0
   37.1480   25.7090   42.3470 C   0  0  0  0  0  0  0  0  0  0  0  0
   37.0990   27.1160   42.5220 C   0  0  0  0  0  0  0  0  0  0  0  0
   37.9610   27.8320   41.7360 C   0  0  0  0  0  0  0  0  0  0  0  0
   38.8170   27.2190   40.8430 N   0  0  0  0  0  0  0  0  0  0  0  0
   38.8320   25.8800   40.7100 C   0  0  0  0  0  0  0  0  0  0  0  0
   37.9960   25.1200   41.4630 N   0  0  0  0  0  0  0  0  0  0  0  0
   36.4670   25.1340   42.9660 H   0  0  0  0  0  0  0  0  0  0  0  0
   39.4850   25.3640   40.0230 H   0  0  0  0  0  0  0  0  0  0  0  0
   36.2360   27.7470   43.4650 N   0  0  0  0  0  0  0  0  0  0  0  0
   35.2700   28.0740   43.3730 H   0  0  0  0  0  0  0  0  0  0  0  0
   36.8300   27.8100   44.3280 H   0  0  0  0  0  0  0  0  0  0  0  0
   37.4430   31.7750   39.6440 C   0  0  0  0  0  0  0  0  0  0  0  0
   38.4430   31.4990   40.5550 C   0  0  0  0  0  0  0  0  0  0  0  0
   39.1930   32.5240   41.1320 C   0  0  0  0  0  0  0  0  0  0  0  0
   39.9940   32.3530   41.8570 H   0  0  0  0  0  0  0  0  0  0  0  0
   38.9250   33.8470   40.7780 C   0  0  0  0  0  0  0  0  0  0  0  0
   39.4980   34.6720   41.2140 H   0  0  0  0  0  0  0  0  0  0  0  0
   37.9200   34.0980   39.8640 C   0  0  0  0  0  3  0  0  0  0  0  0
   37.1630   33.0930   39.2800 C   0  0  0  0  0  3  0  0  0  0  0  0
   36.0590   29.8440   38.5940 N   0  0  0  0  0  0  0  0  0  0  0  0
   36.6840   30.7090   39.0640 C   0  0  0  0  0  0  0  0  0  0  0  0
  1  4  1  1  0  0  0
  1  2  1  0  0  0  0
  2  5  1  0  0  0  0
  2  6  1  0  0  0  0
  3  7  1  6  0  0  0
  3  1  1  0  0  0  0
  3  2  1  0  0  0  0
  8  9  1  0  0  0  0
  8 14  1  0  0  0  0
  9 16  1  0  0  0  0
 10  1  1  0  0  0  0
 10  9  2  0  0  0  0
 11 10  1  0  0  0  0
 12 11  2  0  0  0  0
 12 13  1  0  0  0  0
 13  8  2  0  0  0  0
 15 12  1  0  0  0  0
 16 18  1  0  0  0  0
 17 16  1  0  0  0  0
 19 20  1  0  0  0  0
 20  3  1  0  0  0  0
 20 21  2  0  0  0  0
 21 22  1  0  0  0  0
 23 21  1  0  0  0  0
 23 24  1  0  0  0  0
 25 23  2  0  0  0  0
 26 19  2  0  0  0  0
 26 25  1  0  0  0  0
 27 28  3  0  0  0  0
 28 19  1  0  0  0  0
M  END
>  <minimizedAffinity>
-4.90390873

$$$$

 OpenBabel03252509253D

 28 30  0  0  1  0  0  0  0  0999 V2000
   36.9330   29.4230   41.3470 C   0  0  1  0  0  0  0  0  0  0  0  0
   35.5690   29.2390   40.6370 C   0  0  0  0  0  0  0  0  0  0  0  0
   36.8620   28.4380   40.3310 C   0  0  2  0  0  0  0  0  0  0  0  0
   36.8950   29.2200   42.4290 H   0  0  0  0  0  0  0  0  0  0  0  0
   35.2430   29.9590   39.8950 H   0  0  0  0  0  0  0  0  0  0  0  0
   34.8190   28.7250   41.2640 H   0  0  0  0  0  0  0  0  0  0  0  0
   37.2560   28.6190   39.3100 H   0  0  0  0  0  0  0  0  0  0  0  0
   39.2830   32.3400   41.0620 C   0  0  0  0  0  0  0  0  0  0  0  0
   38.7700   31.0850   41.4800 C   0  0  0  0  0  0  0  0  0  0  0  0
   37.5170   30.7830   41.0160 C   0  0  0  0  0  0  0  0  0  0  0  0
   36.8110   31.6470   40.2020 N   0  0  0  0  0  0  0  0  0  0  0  0
   37.3370   32.8290   39.8300 C   0  0  0  0  0  0  0  0  0  0  0  0
   38.5770   33.1790   40.2600 N   0  0  0  0  0  0  0  0  0  0  0  0
   40.2760   32.5860   41.4250 H   0  0  0  0  0  0  0  0  0  0  0  0
   36.8170   33.5300   39.1950 H   0  0  0  0  0  0  0  0  0  0  0  0
   39.4860   30.2060   42.3440 N   0  0  0  0  0  0  0  0  0  0  0  0
   40.1630   29.4670   42.1330 H   0  0  0  0  0  0  0  0  0  0  0  0
   39.1600   30.4900   43.2990 H   0  0  0  0  0  0  0  0  0  0  0  0
   36.5340   26.0390   39.6770 C   0  0  0  0  0  0  0  0  0  0  0  0
   36.8270   26.9810   40.6430 C   0  0  0  0  0  0  0  0  0  0  0  0
   37.1030   26.6020   41.9570 C   0  0  0  0  0  0  0  0  0  0  0  0
   37.3400   27.3120   42.7550 H   0  0  0  0  0  0  0  0  0  0  0  0
   37.0810   25.2480   42.2940 C   0  0  0  0  0  0  0  0  0  0  0  0
   37.2930   24.9210   43.3180 H   0  0  0  0  0  0  0  0  0  0  0  0
   36.7850   24.3240   41.3110 C   0  0  0  0  0  3  0  0  0  0  0  0
   36.5080   24.6810   40.0000 C   0  0  0  0  0  3  0  0  0  0  0  0
   36.0210   26.7750   37.2400 N   0  0  0  0  0  0  0  0  0  0  0  0
   36.2540   26.4480   38.3350 C   0  0  0  0  0  0  0  0  0  0  0  0
  1  4  1  1  0  0  0
  2  6  1  0  0  0  0
  2  1  1  0  0  0  0
  3  7  1  6  0  0  0
  3  2  1  0  0  0  0
  3 20  1  0  0  0  0
  3  1  1  0  0  0  0
  5  2  1  0  0  0  0
  8 14  1  0  0  0  0
  8  9  1  0  0  0  0
  9 16  1  0  0  0  0
 10  1  1  0  0  0  0
 10  9  2  0  0  0  0
 11 10  1  0  0  0  0
 12 11  2  0  0  0  0
 12 13  1  0  0  0  0
 13  8  2  0  0  0  0
 15 12  1  0  0  0  0
 16 18  1  0  0  0  0
 17 16  1  0  0  0  0
 19 26  2  0  0  0  0
 19 20  1  0  0  0  0
 20 21  2  0  0  0  0
 21 23  1  0  0  0  0
 21 22  1  0  0  0  0
 23 24  1  0  0  0  0
 25 23  2  0  0  0  0
 26 25  1  0  0  0  0
 27 28  3  0  0  0  0
 28 19  1  0  0  0  0
M  END
>  <minimizedAffinity>
-4.85430002

$$$$

 OpenBabel03252509253D

 28 30  0  0  1  0  0  0  0  0999 V2000
   38.0070   29.3140   42.2220 C   0  0  1  0  0  0  0  0  0  0  0  0
   36.6380   28.5990   42.1080 C   0  0  0  0  0  0  0  0  0  0  0  0
   37.9730   28.1000   41.4940 C   0  0  2  0  0  0  0  0  0  0  0  0
   38.3610   29.4210   43.2600 H   0  0  0  0  0  0  0  0  0  0  0  0
   35.8860   28.9740   41.4230 H   0  0  0  0  0  0  0  0  0  0  0  0
   36.3240   28.1100   43.0470 H   0  0  0  0  0  0  0  0  0  0  0  0
   37.9630   28.0790   40.3850 H   0  0  0  0  0  0  0  0  0  0  0  0
   38.9520   32.6820   40.8500 C   0  0  0  0  0  0  0  0  0  0  0  0
   39.0050   31.5130   41.6520 C   0  0  0  0  0  0  0  0  0  0  0  0
   37.9770   30.6280   41.4640 C   0  0  0  0  0  0  0  0  0  0  0  0
   36.9630   30.8680   40.5570 N   0  0  0  0  0  0  0  0  0  0  0  0
   36.9510   31.9910   39.8170 C   0  0  0  0  0  0  0  0  0  0  0  0
   37.9480   32.9030   39.9610 N   0  0  0  0  0  0  0  0  0  0  0  0
   39.7640   33.3870   40.9930 H   0  0  0  0  0  0  0  0  0  0  0  0
   36.1780   32.2140   39.0980 H   0  0  0  0  0  0  0  0  0  0  0  0
   40.0360   31.2800   42.6090 N   0  0  0  0  0  0  0  0  0  0  0  0
   40.9510   30.8320   42.5100 H   0  0  0  0  0  0  0  0  0  0  0  0
   39.6400   31.6870   43.4910 H   0  0  0  0  0  0  0  0  0  0  0  0
   38.1770   25.5990   41.5260 C   0  0  0  0  0  0  0  0  0  0  0  0
   38.5220   26.8300   42.0500 C   0  0  0  0  0  0  0  0  0  0  0  0
   39.4020   26.9310   43.1280 C   0  0  0  0  0  0  0  0  0  0  0  0
   39.7030   27.8830   43.5760 H   0  0  0  0  0  0  0  0  0  0  0  0
   39.9400   25.7680   43.6800 C   0  0  0  0  0  0  0  0  0  0  0  0
   40.6330   25.8160   44.5260 H   0  0  0  0  0  0  0  0  0  0  0  0
   39.5800   24.5490   43.1380 C   0  0  0  0  0  3  0  0  0  0  0  0
   38.7070   24.4280   42.0670 C   0  0  0  0  0  3  0  0  0  0  0  0
   36.5400   25.4430   39.5160 N   0  0  0  0  0  0  0  0  0  0  0  0
   37.2720   25.5170   40.4200 C   0  0  0  0  0  0  0  0  0  0  0  0
  1  4  1  1  0  0  0
  2  1  1  0  0  0  0
  2  6  1  0  0  0  0
  3  7  1  6  0  0  0
  3 20  1  0  0  0  0
  3  2  1  0  0  0  0
  3  1  1  0  0  0  0
  5  2  1  0  0  0  0
  8 14  1  0  0  0  0
  8  9  1  0  0  0  0
  9 16  1  0  0  0  0
 10  9  2  0  0  0  0
 10  1  1  0  0  0  0
 11 10  1  0  0  0  0
 12 13  1  0  0  0  0
 12 11  2  0  0  0  0
 13  8  2  0  0  0  0
 15 12  1  0  0  0  0
 16 18  1  0  0  0  0
 17 16  1  0  0  0  0
 19 20  2  0  0  0  0
 19 26  1  0  0  0  0
 20 21  1  0  0  0  0
 21 22  1  0  0  0  0
 21 23  2  0  0  0  0
 23 24  1  0  0  0  0
 25 23  1  0  0  0  0
 26 25  2  0  0  0  0
 27 28  3  0  0  0  0
 28 19  1  0  0  0  0
M  END
>  <minimizedAffinity>
-4.82533503

$$$$

 OpenBabel03252509253D

 28 30  0  0  1  0  0  0  0  0999 V2000
   38.3810   32.2970   39.0340 C   0  0  1  0  0  0  0  0  0  0  0  0
   38.2920   31.7250   37.5980 C   0  0  0  0  0  0  0  0  0  0  0  0
   38.2710   30.8910   38.9060 C   0  0  2  0  0  0  0  0  0  0  0  0
   37.5520   32.9770   39.2880 H   0  0  0  0  0  0  0  0  0  0  0  0
   39.1820   31.6630   36.9830 H   0  0  0  0  0  0  0  0  0  0  0  0
   37.3110   31.9010   37.1200 H   0  0  0  0  0  0  0  0  0  0  0  0
   39.1490   30.2210   39.0100 H   0  0  0  0  0  0  0  0  0  0  0  0
   41.2550   34.1570   40.5820 C   0  0  0  0  0  0  0  0  0  0  0  0
   39.9320   33.6860   40.3840 C   0  0  0  0  0  0  0  0  0  0  0  0
   39.7480   32.9110   39.2700 C   0  0  0  0  0  0  0  0  0  0  0  0
   40.7840   32.6170   38.4050 N   0  0  0  0  0  0  0  0  0  0  0  0
   42.0250   33.0860   38.6310 C   0  0  0  0  0  0  0  0  0  0  0  0
   42.2640   33.8590   39.7220 N   0  0  0  0  0  0  0  0  0  0  0  0
   41.4080   34.7720   41.4630 H   0  0  0  0  0  0  0  0  0  0  0  0
   42.8600   32.8790   37.9790 H   0  0  0  0  0  0  0  0  0  0  0  0
   38.8560   34.0140   41.2600 N   0  0  0  0  0  0  0  0  0  0  0  0
   38.5220   33.5500   42.1110 H   0  0  0  0  0  0  0  0  0  0  0  0
   38.4530   34.8810   40.8310 H   0  0  0  0  0  0  0  0  0  0  0  0
   36.7140   29.7080   40.4780 C   0  0  0  0  0  0  0  0  0  0  0  0
   37.0030   30.1670   39.2080 C   0  0  0  0  0  0  0  0  0  0  0  0
   36.1130   29.9680   38.1530 C   0  0  0  0  0  0  0  0  0  0  0  0
   36.2990   30.3130   37.1310 H   0  0  0  0  0  0  0  0  0  0  0  0
   34.9140   29.2950   38.3900 C   0  0  0  0  0  0  0  0  0  0  0  0
   34.1960   29.1240   37.5800 H   0  0  0  0  0  0  0  0  0  0  0  0
   34.6480   28.8460   39.6680 C   0  0  0  0  0  3  0  0  0  0  0  0
   35.5190   29.0330   40.7300 C   0  0  0  0  0  3  0  0  0  0  0  0
   38.3890   30.0990   42.4240 N   0  0  0  0  0  0  0  0  0  0  0  0
   37.6410   29.9220   41.5480 C   0  0  0  0  0  0  0  0  0  0  0  0
  1 10  1  0  0  0  0
  1  4  1  1  0  0  0
  2  3  1  0  0  0  0
  2  1  1  0  0  0  0
  3  7  1  1  0  0  0
  3  1  1  0  0  0  0
  3 20  1  0  0  0  0
  5  2  1  0  0  0  0
  6  2  1  0  0  0  0
  8 14  1  0  0  0  0
  9  8  1  0  0  0  0
  9 16  1  0  0  0  0
 10  9  2  0  0  0  0
 11 12  2  0  0  0  0
 11 10  1  0  0  0  0
 12 13  1  0  0  0  0
 13  8  2  0  0  0  0
 15 12  1  0  0  0  0
 16 17  1  0  0  0  0
 18 16  1  0  0  0  0
 19 26  1  0  0  0  0
 19 28  1  0  0  0  0
 20 19  2  0  0  0  0
 21 23  2  0  0  0  0
 21 20  1  0  0  0  0
 22 21  1  0  0  0  0
 23 25  1  0  0  0  0
 24 23  1  0  0  0  0
 25 26  2  0  0  0  0
 28 27  3  0  0  0  0
M  END
>  <minimizedAffinity>
-4.79273462

$$$$

 OpenBabel03252509253D

 28 30  0  0  1  0  0  0  0  0999 V2000
   36.8300   28.5980   40.3050 C   0  0  1  0  0  0  0  0  0  0  0  0
   35.7950   28.0660   39.2830 C   0  0  0  0  0  0  0  0  0  0  0  0
   37.2060   27.4720   39.5340 C   0  0  2  0  0  0  0  0  0  0  0  0
   36.4750   28.5620   41.3480 H   0  0  0  0  0  0  0  0  0  0  0  0
   35.6360   28.5920   38.3490 H   0  0  0  0  0  0  0  0  0  0  0  0
   34.9530   27.5300   39.7570 H   0  0  0  0  0  0  0  0  0  0  0  0
   37.8790   27.5590   38.6560 H   0  0  0  0  0  0  0  0  0  0  0  0
   37.3150   32.3180   40.1000 C   0  0  0  0  0  0  0  0  0  0  0  0
   36.7510   31.0720   40.4760 C   0  0  0  0  0  0  0  0  0  0  0  0
   37.3190   29.9730   39.8890 C   0  0  0  0  0  0  0  0  0  0  0  0
   38.3640   30.0810   38.9930 N   0  0  0  0  0  0  0  0  0  0  0  0
   38.8680   31.2840   38.6630 C   0  0  0  0  0  0  0  0  0  0  0  0
   38.3440   32.4080   39.2170 N   0  0  0  0  0  0  0  0  0  0  0  0
   36.8700   33.1940   40.5610 H   0  0  0  0  0  0  0  0  0  0  0  0
   39.6840   31.4100   37.9680 H   0  0  0  0  0  0  0  0  0  0  0  0
   35.6530   30.9620   41.3790 N   0  0  0  0  0  0  0  0  0  0  0  0
   35.6320   30.8850   42.4000 H   0  0  0  0  0  0  0  0  0  0  0  0
   34.8180   30.9790   40.7440 H   0  0  0  0  0  0  0  0  0  0  0  0
   37.4070   24.9800   39.3150 C   0  0  0  0  0  0  0  0  0  0  0  0
   37.2520   26.0980   40.1120 C   0  0  0  0  0  0  0  0  0  0  0  0
   37.1300   25.9820   41.4960 C   0  0  0  0  0  0  0  0  0  0  0  0
   37.0060   26.8380   42.1670 H   0  0  0  0  0  0  0  0  0  0  0  0
   37.1680   24.7150   42.0800 C   0  0  0  0  0  0  0  0  0  0  0  0
   37.0740   24.5940   43.1640 H   0  0  0  0  0  0  0  0  0  0  0  0
   37.3230   23.6130   41.2630 C   0  0  0  0  0  3  0  0  0  0  0  0
   37.4460   23.7070   39.8840 C   0  0  0  0  0  3  0  0  0  0  0  0
   37.6300   25.2260   36.7390 N   0  0  0  0  0  0  0  0  0  0  0  0
   37.5290   25.1210   37.8960 C   0  0  0  0  0  0  0  0  0  0  0  0
  1  4  1  1  0  0  0
  2  3  1  0  0  0  0
  2  6  1  0  0  0  0
  2  1  1  0  0  0  0
  3  7  1  6  0  0  0
  3 20  1  0  0  0  0
  3  1  1  0  0  0  0
  5  2  1  0  0  0  0
  8  9  1  0  0  0  0
  8 14  1  0  0  0  0
  9 16  1  0  0  0  0
 10  1  1  0  0  0  0
 10  9  2  0  0  0  0
 11 10  1  0  0  0  0
 12 11  2  0  0  0  0
 12 13  1  0  0  0  0
 13  8  2  0  0  0  0
 15 12  1  0  0  0  0
 16 17  1  0  0  0  0
 18 16  1  0  0  0  0
 19 26  2  0  0  0  0
 19 20  1  0  0  0  0
 20 21  2  0  0  0  0
 21 23  1  0  0  0  0
 21 22  1  0  0  0  0
 23 24  1  0  0  0  0
 25 23  2  0  0  0  0
 26 25  1  0  0  0  0
 27 28  3  0  0  0  0
 28 19  1  0  0  0  0
M  END
>  <minimizedAffinity>
-4.73422623

$$$$

 OpenBabel03252509253D

 28 30  0  0  1  0  0  0  0  0999 V2000
   38.7390   30.8950   40.0620 C   0  0  1  0  0  0  0  0  0  0  0  0
   39.0130   29.6030   39.2530 C   0  0  0  0  0  0  0  0  0  0  0  0
   39.3310   29.8130   40.7570 C   0  0  2  0  0  0  0  0  0  0  0  0
   37.6710   31.1680   40.1050 H   0  0  0  0  0  0  0  0  0  0  0  0
   39.8520   29.5600   38.5690 H   0  0  0  0  0  0  0  0  0  0  0  0
   38.0960   29.0280   39.0280 H   0  0  0  0  0  0  0  0  0  0  0  0
   40.4170   29.7830   40.9820 H   0  0  0  0  0  0  0  0  0  0  0  0
   40.5770   34.1610   39.8070 C   0  0  0  0  0  0  0  0  0  0  0  0
   39.6680   33.1840   40.2870 C   0  0  0  0  0  0  0  0  0  0  0  0
   39.6220   32.0230   39.5630 C   0  0  0  0  0  0  0  0  0  0  0  0
   40.4070   31.8280   38.4430 N   0  0  0  0  0  0  0  0  0  0  0  0
   41.2560   32.7830   38.0220 C   0  0  0  0  0  0  0  0  0  0  0  0
   41.3440   33.9540   38.7040 N   0  0  0  0  0  0  0  0  0  0  0  0
   40.6200   35.0840   40.3760 H   0  0  0  0  0  0  0  0  0  0  0  0
   41.8860   32.6690   37.1520 H   0  0  0  0  0  0  0  0  0  0  0  0
   38.8370   33.3960   41.4260 N   0  0  0  0  0  0  0  0  0  0  0  0
   39.0080   33.2220   42.4210 H   0  0  0  0  0  0  0  0  0  0  0  0
   37.9590   33.7930   41.0110 H   0  0  0  0  0  0  0  0  0  0  0  0
   39.1800   28.3000   42.7530 C   0  0  0  0  0  0  0  0  0  0  0  0
   38.5600   28.9740   41.7190 C   0  0  0  0  0  0  0  0  0  0  0  0
   37.1800   28.8960   41.5350 C   0  0  0  0  0  0  0  0  0  0  0  0
   36.6460   29.4120   40.7310 H   0  0  0  0  0  0  0  0  0  0  0  0
   36.4180   28.1230   42.4130 C   0  0  0  0  0  0  0  0  0  0  0  0
   35.3330   28.0420   42.2920 H   0  0  0  0  0  0  0  0  0  0  0  0
   37.0600   27.4570   43.4380 C   0  0  0  0  0  3  0  0  0  0  0  0
   38.4310   27.5230   43.6380 C   0  0  0  0  0  3  0  0  0  0  0  0
   41.7530   28.4770   43.0580 N   0  0  0  0  0  0  0  0  0  0  0  0
   40.5980   28.3940   42.9240 C   0  0  0  0  0  0  0  0  0  0  0  0
  1  4  1  1  0  0  0
  1  3  1  0  0  0  0
  2  1  1  0  0  0  0
  2  3  1  0  0  0  0
  3  7  1  1  0  0  0
  3 20  1  0  0  0  0
  5  2  1  0  0  0  0
  6  2  1  0  0  0  0
  8  9  1  0  0  0  0
  8 14  1  0  0  0  0
  9 16  1  0  0  0  0
 10  1  1  0  0  0  0
 10  9  2  0  0  0  0
 11 10  1  0  0  0  0
 12 11  2  0  0  0  0
 12 13  1  0  0  0  0
 13  8  2  0  0  0  0
 15 12  1  0  0  0  0
 16 17  1  0  0  0  0
 18 16  1  0  0  0  0
 19 28  1  0  0  0  0
 19 26  1  0  0  0  0
 20 19  2  0  0  0  0
 21 20  1  0  0  0  0
 21 23  2  0  0  0  0
 22 21  1  0  0  0  0
 23 25  1  0  0  0  0
 24 23  1  0  0  0  0
 25 26  2  0  0  0  0
 28 27  3  0  0  0  0
M  END
>  <minimizedAffinity>
-4.68751907

$$$$

 OpenBabel03252509253D

 28 30  0  0  1  0  0  0  0  0999 V2000
   37.0950   26.3160   41.4710 C   0  0  1  0  0  0  0  0  0  0  0  0
   36.3440   27.5080   42.1150 C   0  0  0  0  0  0  0  0  0  0  0  0
   37.0730   27.5320   40.7450 C   0  0  2  0  0  0  0  0  0  0  0  0
   36.4470   25.4470   41.2710 H   0  0  0  0  0  0  0  0  0  0  0  0
   36.7990   28.0590   42.9300 H   0  0  0  0  0  0  0  0  0  0  0  0
   35.2450   27.4010   42.0750 H   0  0  0  0  0  0  0  0  0  0  0  0
   37.9430   28.2200   40.7260 H   0  0  0  0  0  0  0  0  0  0  0  0
   39.9000   24.4130   43.0900 C   0  0  0  0  0  0  0  0  0  0  0  0
   38.6970   24.6530   42.3790 C   0  0  0  0  0  0  0  0  0  0  0  0
   38.3240   25.9680   42.2900 C   0  0  0  0  0  0  0  0  0  0  0  0
   39.0720   26.9800   42.8580 N   0  0  0  0  0  0  0  0  0  0  0  0
   40.2080   26.7060   43.5260 C   0  0  0  0  0  0  0  0  0  0  0  0
   40.6260   25.4200   43.6430 N   0  0  0  0  0  0  0  0  0  0  0  0
   40.2020   23.3730   43.1640 H   0  0  0  0  0  0  0  0  0  0  0  0
   40.8200   27.4690   43.9830 H   0  0  0  0  0  0  0  0  0  0  0  0
   37.9090   23.6060   41.8170 N   0  0  0  0  0  0  0  0  0  0  0  0
   37.9530   23.1560   40.8980 H   0  0  0  0  0  0  0  0  0  0  0  0
   37.2340   23.3750   42.5860 H   0  0  0  0  0  0  0  0  0  0  0  0
   35.7790   28.9680   39.1470 C   0  0  0  0  0  0  0  0  0  0  0  0
   36.2130   27.7180   39.5420 C   0  0  0  0  0  0  0  0  0  0  0  0
   35.8610   26.5750   38.8240 C   0  0  0  0  0  0  0  0  0  0  0  0
   36.1810   25.5650   39.0990 H   0  0  0  0  0  0  0  0  0  0  0  0
   35.0580   26.7030   37.6900 C   0  0  0  0  0  0  0  0  0  0  0  0
   34.7650   25.8230   37.1080 H   0  0  0  0  0  0  0  0  0  0  0  0
   34.6360   27.9630   37.3150 C   0  0  0  0  0  3  0  0  0  0  0  0
   34.9750   29.1110   38.0150 C   0  0  0  0  0  3  0  0  0  0  0  0
   36.4580   31.0690   40.5150 N   0  0  0  0  0  0  0  0  0  0  0  0
   36.1520   30.1290   39.8970 C   0  0  0  0  0  0  0  0  0  0  0  0
  1  4  1  6  0  0  0
  1  2  1  0  0  0  0
  1 10  1  0  0  0  0
  2  5  1  0  0  0  0
  3  7  1  6  0  0  0
  3  1  1  0  0  0  0
  3  2  1  0  0  0  0
  6  2  1  0  0  0  0
  8 14  1  0  0  0  0
  8 13  1  0  0  0  0
  9  8  2  0  0  0  0
 10  9  1  0  0  0  0
 10 11  2  0  0  0  0
 11 12  1  0  0  0  0
 12 13  2  0  0  0  0
 12 15  1  0  0  0  0
 16  9  1  0  0  0  0
 16 18  1  0  0  0  0
 17 16  1  0  0  0  0
 19 20  1  0  0  0  0
 19 28  1  0  0  0  0
 20  3  1  0  0  0  0
 21 22  1  0  0  0  0
 21 20  2  0  0  0  0
 23 21  1  0  0  0  0
 24 23  1  0  0  0  0
 25 23  2  0  0  0  0
 25 26  1  0  0  0  0
 26 19  2  0  0  0  0
 28 27  3  0  0  0  0
M  END
>  <minimizedAffinity>
-4.67446566

$$$$
