
 OpenBabel03242517283D

 41 43  0  0  1  0  0  0  0  0999 V2000
   45.0120   34.6160   44.9380 C   0  0  0  0  0  0  0  0  0  0  0  0
   45.9180   34.5560   43.8400 C   0  0  0  0  0  0  0  0  0  0  0  0
   47.0240   33.6930   43.9550 C   0  0  0  0  0  0  0  0  0  0  0  0
   47.1690   32.9700   45.0930 N   0  0  0  0  0  0  0  0  0  0  0  0
   46.3000   33.0460   46.1140 C   0  0  0  0  0  0  0  0  0  0  0  0
   45.2390   33.8660   46.0170 N   0  0  0  0  0  0  0  0  0  0  0  0
   46.5190   32.2660   47.2570 N   0  0  0  0  0  0  0  0  0  0  0  0
   47.7360   32.4110   48.0020 C   0  0  0  0  0  0  0  0  0  0  0  0
   48.0170   31.2670   48.9280 C   0  0  0  0  0  0  0  0  0  0  0  0
   46.8790   30.6370   49.5010 N   0  0  0  0  0  0  0  0  0  0  0  0
   45.6290   31.2670   49.1700 C   0  0  0  0  0  0  0  0  0  0  0  0
   45.4960   31.3170   47.6690 C   0  0  2  0  0  0  0  0  0  0  0  0
   44.1650   35.2800   44.8440 H   0  0  0  0  0  0  0  0  0  0  0  0
   45.8110   35.1200   42.9420 H   0  0  0  0  0  0  0  0  0  0  0  0
   47.7550   33.6000   43.1500 H   0  0  0  0  0  0  0  0  0  0  0  0
   47.7860   33.3910   48.5520 H   0  0  0  0  0  0  0  0  0  0  0  0
   48.5690   32.4470   47.2650 H   0  0  0  0  0  0  0  0  0  0  0  0
   48.6560   30.4920   48.4560 H   0  0  0  0  0  0  0  0  0  0  0  0
   48.6220   31.6820   49.7780 H   0  0  0  0  0  0  0  0  0  0  0  0
   46.8630   29.6130   49.5190 H   0  0  0  0  0  0  0  0  0  0  0  0
   44.8120   30.6630   49.6100 H   0  0  0  0  0  0  0  0  0  0  0  0
   45.5980   32.2940   49.5520 H   0  0  0  0  0  0  0  0  0  0  0  0
   44.5110   31.7660   47.4350 H   0  0  0  0  0  0  0  0  0  0  0  0
   45.6860   29.9750   47.0420 C   0  0  0  0  0  0  0  0  0  0  0  0
   45.4990   30.0430   45.9580 H   0  0  0  0  0  0  0  0  0  0  0  0
   46.7110   29.6270   47.3010 H   0  0  0  0  0  0  0  0  0  0  0  0
   44.7260   29.0210   47.7150 C   0  0  0  0  0  3  0  0  0  0  0  0
   45.0490   27.7640   47.9350 C   0  0  0  0  0  3  0  0  0  0  0  0
   44.1580   26.7600   48.5900 C   0  0  0  0  0  0  0  0  0  0  0  0
   43.0950   27.0270   48.5300 H   0  0  0  0  0  0  0  0  0  0  0  0
   44.4950   26.5830   49.6330 H   0  0  0  0  0  0  0  0  0  0  0  0
   43.4870   24.9970   46.8860 C   0  0  0  0  0  0  0  0  0  0  0  0
   44.3580   25.4880   47.8410 C   0  0  0  0  0  0  0  0  0  0  0  0
   45.4950   24.7100   48.0920 C   0  0  0  0  0  0  0  0  0  0  0  0
   46.1800   25.0980   48.8440 H   0  0  0  0  0  0  0  0  0  0  0  0
   45.8010   23.5150   47.4690 C   0  0  0  0  0  0  0  0  0  0  0  0
   46.7080   23.0140   47.7520 H   0  0  0  0  0  0  0  0  0  0  0  0
   44.9070   23.0620   46.5250 C   0  0  0  0  0  3  0  0  0  0  0  0
   43.7790   23.7920   46.2460 C   0  0  0  0  0  3  0  0  0  0  0  0
   41.3700   26.3660   46.3490 N   0  0  0  0  0  0  0  0  0  0  0  0
   42.3190   25.7500   46.5960 C   0  0  0  0  0  0  0  0  0  0  0  0
  1  6  1  0  0  0  0
  2  3  1  0  0  0  0
  2  1  2  0  0  0  0
  3  4  2  0  0  0  0
  4  5  1  0  0  0  0
  5  7  1  0  0  0  0
  6  5  2  0  0  0  0
  7 12  1  0  0  0  0
  7  8  1  0  0  0  0
  8 16  1  0  0  0  0
  8  9  1  0  0  0  0
  9 10  1  0  0  0  0
  9 19  1  0  0  0  0
 10 20  1  0  0  0  0
 11 10  1  0  0  0  0
 11 22  1  0  0  0  0
 11 21  1  0  0  0  0
 12 23  1  6  0  0  0
 12 11  1  0  0  0  0
 13  1  1  0  0  0  0
 14  2  1  0  0  0  0
 15  3  1  0  0  0  0
 17  8  1  0  0  0  0
 18  9  1  0  0  0  0
 24 26  1  0  0  0  0
 24 12  1  0  0  0  0
 24 27  1  0  0  0  0
 25 24  1  0  0  0  0
 27 28  2  0  0  0  0
 28 29  1  0  0  0  0
 29 31  1  0  0  0  0
 30 29  1  0  0  0  0
 32 33  1  0  0  0  0
 33 34  2  0  0  0  0
 33 29  1  0  0  0  0
 34 35  1  0  0  0  0
 36 37  1  0  0  0  0
 36 34  1  0  0  0  0
 38 36  2  0  0  0  0
 39 38  1  0  0  0  0
 39 32  2  0  0  0  0
 40 41  3  0  0  0  0
 41 32  1  0  0  0  0
M  END
>  <minimizedAffinity>
-5.51285601

>  <minimizedRMSD>
1.41741776

$$$$
