
 OpenBabel03242519243D

 41 44  0  0  0  0  0  0  0  0999 V2000
   47.9020   33.8610   42.8630 C   0  0  0  0  0  0  0  0  0  0  0  0
   48.5570   35.0920   42.6700 C   0  0  0  0  0  0  0  0  0  0  0  0
   49.9220   35.1190   42.3420 C   0  0  0  0  0  0  0  0  0  0  0  0
   50.5360   33.8990   42.2300 N   0  0  0  0  0  0  0  0  0  0  0  0
   49.8680   32.7190   42.4240 C   0  0  0  0  0  0  0  0  0  0  0  0
   48.5800   32.7180   42.7340 N   0  0  0  0  0  0  0  0  0  0  0  0
   48.1540   36.0880   42.7380 H   0  0  0  0  0  0  0  0  0  0  0  0
   50.4860   36.0140   42.1810 H   0  0  0  0  0  0  0  0  0  0  0  0
   46.4730   33.9590   43.2080 C   0  0  0  0  0  0  0  0  0  0  0  0
   45.7420   34.9660   42.4400 C   0  0  0  0  0  0  0  0  0  0  0  0
   45.2830   36.1320   43.2390 C   0  0  0  0  0  0  0  0  0  0  0  0
   44.4930   35.7410   44.4750 C   0  0  0  0  0  0  0  0  0  0  0  0
   44.9830   34.4790   45.1440 C   0  0  0  0  0  0  0  0  0  0  0  0
   46.4130   34.1780   44.7310 C   0  0  0  0  0  0  0  0  0  0  0  0
   46.0320   32.9260   43.0830 H   0  0  0  0  0  0  0  0  0  0  0  0
   46.2930   35.3440   41.5720 H   0  0  0  0  0  0  0  0  0  0  0  0
   44.8170   34.4900   42.0000 H   0  0  0  0  0  0  0  0  0  0  0  0
   44.5420   36.6950   42.5960 H   0  0  0  0  0  0  0  0  0  0  0  0
   46.0270   36.8690   43.5290 H   0  0  0  0  0  0  0  0  0  0  0  0
   43.3960   35.6860   44.2530 H   0  0  0  0  0  0  0  0  0  0  0  0
   44.5890   36.5440   45.2360 H   0  0  0  0  0  0  0  0  0  0  0  0
   44.3340   33.6250   44.8100 H   0  0  0  0  0  0  0  0  0  0  0  0
   44.9390   34.4990   46.2390 H   0  0  0  0  0  0  0  0  0  0  0  0
   47.0540   35.0460   44.9310 H   0  0  0  0  0  0  0  0  0  0  0  0
   46.7570   33.2680   45.2380 H   0  0  0  0  0  0  0  0  0  0  0  0
   50.6840   31.5160   42.2720 C   0  0  0  0  0  0  0  0  0  0  0  0
   51.5870   31.5040   41.2660 N   0  0  0  0  0  0  0  0  0  0  0  0
   52.2460   30.3350   41.2740 C   0  0  0  0  0  0  0  0  0  0  0  0
   51.7350   29.6130   42.3090 N   0  0  0  0  0  0  0  0  0  0  0  0
   50.7770   30.3330   42.9240 N   0  0  0  0  0  0  0  0  0  0  0  0
   53.0360   29.9590   40.6300 H   0  0  0  0  0  0  0  0  0  0  0  0
   51.4900   27.1200   42.3640 C   0  0  0  0  0  0  0  0  0  0  0  0
   52.0520   28.3090   42.7880 C   0  0  0  0  0  0  0  0  0  0  0  0
   53.0350   28.3010   43.7840 C   0  0  0  0  0  0  0  0  0  0  0  0
   53.5150   29.2140   44.1590 H   0  0  0  0  0  0  0  0  0  0  0  0
   53.4670   27.1230   44.3640 C   0  0  0  0  0  0  0  0  0  0  0  0
   54.2300   27.1360   45.1340 H   0  0  0  0  0  0  0  0  0  0  0  0
   52.8780   25.9500   43.9100 C   0  0  0  0  0  3  0  0  0  0  0  0
   51.9050   25.9260   42.9290 C   0  0  0  0  0  3  0  0  0  0  0  0
   49.6940   27.2760   40.5100 N   0  0  0  0  0  0  0  0  0  0  0  0
   50.5040   27.2140   41.3550 C   0  0  0  0  0  0  0  0  0  0  0  0
  1  9  1  0  0  0  0
  2  7  1  0  0  0  0
  2  1  2  0  0  0  0
  3  2  1  0  0  0  0
  4  3  2  0  0  0  0
  4  5  1  0  0  0  0
  5  6  2  0  0  0  0
  6  1  1  0  0  0  0
  8  3  1  0  0  0  0
  9 14  1  0  0  0  0
 10  9  1  0  0  0  0
 10 11  1  0  0  0  0
 11 19  1  0  0  0  0
 11 12  1  0  0  0  0
 12 13  1  0  0  0  0
 12 21  1  0  0  0  0
 13 23  1  0  0  0  0
 14 24  1  0  0  0  0
 14 13  1  0  0  0  0
 14 25  1  0  0  0  0
 15  9  1  0  0  0  0
 16 10  1  0  0  0  0
 17 10  1  0  0  0  0
 18 11  1  0  0  0  0
 20 12  1  0  0  0  0
 22 13  1  0  0  0  0
 26  5  1  0  0  0  0
 26 30  2  0  0  0  0
 27 28  2  0  0  0  0
 27 26  1  0  0  0  0
 28 29  1  0  0  0  0
 29 33  1  0  0  0  0
 29 30  1  0  0  0  0
 31 28  1  0  0  0  0
 32 33  2  0  0  0  0
 32 39  1  0  0  0  0
 33 34  1  0  0  0  0
 34 35  1  0  0  0  0
 34 36  2  0  0  0  0
 36 37  1  0  0  0  0
 38 36  1  0  0  0  0
 39 38  2  0  0  0  0
 40 41  3  0  0  0  0
 41 32  1  0  0  0  0
M  END
>  <minimizedAffinity>
-4.03382254

>  <minimizedRMSD>
0.941013634

$$$$
