
 OpenBabel03242520343D

 29 31  0  0  1  0  0  0  0  0999 V2000
   46.0700   33.4960   40.3050 C   0  0  0  0  0  0  0  0  0  0  0  0
   46.5550   33.2940   41.6380 C   0  0  0  0  0  0  0  0  0  0  0  0
   45.6750   33.4630   42.6920 C   0  0  0  0  0  0  0  0  0  0  0  0
   44.3870   33.8140   42.4060 N   0  0  0  0  0  0  0  0  0  0  0  0
   43.9610   33.9960   41.1600 C   0  0  0  0  0  0  0  0  0  0  0  0
   44.7920   33.8380   40.1120 N   0  0  0  0  0  0  0  0  0  0  0  0
   46.7990   33.3510   39.5180 H   0  0  0  0  0  0  0  0  0  0  0  0
   45.9850   33.3240   43.7170 H   0  0  0  0  0  0  0  0  0  0  0  0
   41.6970   33.4460   40.3560 C   0  0  0  0  0  0  0  0  0  0  0  0
   42.5620   34.3750   40.9010 C   0  0  0  0  0  0  0  0  0  0  0  0
   42.1060   35.6450   41.1970 C   0  0  0  0  0  0  0  0  0  0  0  0
   42.7530   36.3990   41.6240 H   0  0  0  0  0  0  0  0  0  0  0  0
   40.7890   36.0160   40.9580 C   0  0  0  0  0  0  0  0  0  0  0  0
   40.4410   37.0040   41.1900 H   0  0  0  0  0  0  0  0  0  0  0  0
   39.9400   35.0740   40.4140 C   0  0  0  0  0  3  0  0  0  0  0  0
   40.3770   33.7860   40.1060 C   0  0  0  0  0  3  0  0  0  0  0  0
   42.4780   31.0220   39.7880 N   0  0  0  0  0  0  0  0  0  0  0  0
   42.1360   32.1010   40.0310 C   0  0  0  0  0  0  0  0  0  0  0  0
   47.9880   32.9300   41.8810 C   0  0  1  0  0  0  0  0  0  0  0  0
   48.9530   32.9600   40.8040 C   0  0  0  0  0  0  0  0  0  0  0  0
   49.0230   34.0490   41.8080 C   0  0  1  0  0  0  0  0  0  0  0  0
   48.1270   32.3110   42.7790 H   0  0  0  0  0  0  0  0  0  0  0  0
   48.6890   33.2140   39.7480 H   0  0  0  0  0  0  0  0  0  0  0  0
   49.7760   32.1840   40.7980 H   0  0  0  0  0  0  0  0  0  0  0  0
   49.9150   34.0020   42.4860 H   0  0  0  0  0  0  0  0  0  0  0  0
   48.6100   35.4390   41.4870 C   0  0  0  0  0  0  0  0  0  0  0  0
   49.5890   36.3640   41.8110 F   0  0  0  0  0  0  0  0  0  0  0  0
   47.4360   35.8040   42.1230 F   0  0  0  0  0  0  0  0  0  0  0  0
   48.4180   35.5220   40.1250 F   0  0  0  0  0  0  0  0  0  0  0  0
  1  2  1  0  0  0  0
  2 19  1  0  0  0  0
  2  3  2  0  0  0  0
  3  8  1  0  0  0  0
  4  3  1  0  0  0  0
  5  4  2  0  0  0  0
  6  1  2  0  0  0  0
  6  5  1  0  0  0  0
  7  1  1  0  0  0  0
  9 10  1  0  0  0  0
 10  5  1  0  0  0  0
 10 11  2  0  0  0  0
 11 12  1  0  0  0  0
 13 14  1  0  0  0  0
 13 11  1  0  0  0  0
 15 13  2  0  0  0  0
 16  9  2  0  0  0  0
 16 15  1  0  0  0  0
 17 18  3  0  0  0  0
 18  9  1  0  0  0  0
 19 22  1  1  0  0  0
 20 21  1  0  0  0  0
 20 19  1  0  0  0  0
 21 19  1  0  0  0  0
 21 25  1  1  0  0  0
 23 20  1  0  0  0  0
 24 20  1  0  0  0  0
 26 21  1  0  0  0  0
 26 27  1  0  0  0  0
 26 28  1  0  0  0  0
 29 26  1  0  0  0  0
M  END
>  <minimizedAffinity>
-5.43657684

>  <minimizedRMSD>
5.109828

$$$$
