
 OpenBabel03252503163D

 37 40  0  0  0  0  0  0  0  0999 V2000
   43.9160   35.3620   42.0210 C   0  0  0  0  0  0  0  0  0  0  0  0
   42.5690   35.1060   42.1910 C   0  0  0  0  0  0  0  0  0  0  0  0
   42.1310   34.6890   40.9900 N   0  0  0  0  0  0  0  0  0  0  0  0
   43.1700   34.6920   40.1240 C   0  0  0  0  0  0  0  0  0  0  0  0
   44.2800   35.1100   40.7620 N   0  0  0  0  0  0  0  0  0  0  0  0
   43.2370   34.3380   38.7380 N   0  0  0  0  0  0  0  0  0  0  0  0
   41.9890   35.2100   43.0760 H   0  0  0  0  0  0  0  0  0  0  0  0
   42.4160   34.7620   38.2650 H   0  0  0  0  0  0  0  0  0  0  0  0
   44.0200   33.7510   38.3680 H   0  0  0  0  0  0  0  0  0  0  0  0
   40.4320   33.0130   40.8860 C   0  0  0  0  0  0  0  0  0  0  0  0
   40.8400   34.2930   40.5890 C   0  0  0  0  0  0  0  0  0  0  0  0
   39.9410   35.0940   39.9150 C   0  0  0  0  0  0  0  0  0  0  0  0
   40.2630   36.0920   39.6850 H   0  0  0  0  0  0  0  0  0  0  0  0
   38.6840   34.6460   39.5470 C   0  0  0  0  0  0  0  0  0  0  0  0
   37.9800   35.2890   39.0130 H   0  0  0  0  0  0  0  0  0  0  0  0
   38.2670   33.3560   39.8440 C   0  0  0  0  0  0  0  0  0  0  0  0
   39.1810   32.5680   40.5190 C   0  0  0  0  0  0  0  0  0  0  0  0
   41.9920   31.3680   42.1340 N   0  0  0  0  0  0  0  0  0  0  0  0
   41.2920   32.1020   41.5840 C   0  0  0  0  0  0  0  0  0  0  0  0
   44.8640   35.8580   43.0870 C   0  0  0  0  0  0  0  0  0  0  0  0
   45.2040   37.0670   43.2240 O   0  0  0  0  0  0  0  0  0  0  0  0
   44.8510   34.7790   45.2820 C   0  0  0  0  0  0  0  0  0  0  0  0
   45.4410   34.9450   44.0190 C   0  0  0  0  0  0  0  0  0  0  0  0
   46.5670   34.1800   43.7900 C   0  0  0  0  0  0  0  0  0  0  0  0
   47.0720   33.3380   44.6960 N   0  0  0  0  0  0  0  0  0  0  0  0
   46.4610   33.2120   45.9100 C   0  0  0  0  0  0  0  0  0  0  0  0
   45.3520   33.9390   46.1890 N   0  0  0  0  0  0  0  0  0  0  0  0
   43.9620   35.3260   45.5770 H   0  0  0  0  0  0  0  0  0  0  0  0
   46.9110   32.5150   46.6080 H   0  0  0  0  0  0  0  0  0  0  0  0
   47.2160   34.3020   42.5380 C   0  0  0  0  0  0  0  0  0  0  0  0
   47.9880   35.2410   41.9270 C   0  0  0  0  0  0  0  0  0  0  0  0
   48.4860   35.1090   40.7170 C   0  0  0  0  0  0  0  0  0  0  0  0
   48.1840   33.9530   40.0850 C   0  0  0  0  0  0  0  0  0  0  0  0
   47.1480   33.0370   41.2860 S   0  0  0  0  0  0  0  0  0  0  0  0
   48.1540   36.1360   42.5620 H   0  0  0  0  0  0  0  0  0  0  0  0
   49.1030   35.8360   40.2040 H   0  0  0  0  0  0  0  0  0  0  0  0
   48.5350   33.6400   38.9900 H   0  0  0  0  0  0  0  0  0  0  0  0
  1  2  2  0  0  0  0
  1 20  1  0  0  0  0
  2  7  1  0  0  0  0
  3  2  1  0  0  0  0
  4  5  2  0  0  0  0
  4  3  1  0  0  0  0
  5  1  1  0  0  0  0
  6  4  1  0  0  0  0
  8  6  1  0  0  0  0
  9  6  1  0  0  0  0
 10 19  1  0  0  0  0
 11 10  1  0  0  0  0
 11  3  1  0  0  0  0
 12 11  2  0  0  0  0
 13 12  1  0  0  0  0
 14 16  2  0  0  0  0
 14 12  1  0  0  0  0
 15 14  1  0  0  0  0
 16 17  1  0  0  0  0
 17 10  2  0  0  0  0
 19 18  3  0  0  0  0
 20 21  2  0  0  0  0
 20 23  1  0  0  0  0
 22 28  1  0  0  0  0
 22 27  1  0  0  0  0
 23 22  2  0  0  0  0
 24 23  1  0  0  0  0
 24 25  2  0  0  0  0
 25 26  1  0  0  0  0
 26 27  2  0  0  0  0
 26 29  1  0  0  0  0
 30 24  1  0  0  0  0
 31 30  2  0  0  0  0
 31 35  1  0  0  0  0
 32 31  1  0  0  0  0
 33 32  2  0  0  0  0
 33 34  1  0  0  0  0
 34 30  1  0  0  0  0
 36 32  1  0  0  0  0
 37 33  1  0  0  0  0
M  END
>  <minimizedAffinity>
-7.00544882

>  <minimizedRMSD>
3.38196778

$$$$
