
 OpenBabel03242520543D

 32 33  0  0  0  0  0  0  0  0999 V2000
   46.0460   30.6620   46.7250 C   0  0  0  0  0  0  0  0  0  0  0  0
   46.5100   30.9920   47.6600 H   0  0  0  0  0  0  0  0  0  0  0  0
   46.8390   29.9960   46.2580 H   0  0  0  0  0  0  0  0  0  0  0  0
   45.0450   28.5800   46.1740 C   0  0  0  0  0  0  0  0  0  0  0  0
   45.9560   28.1300   45.4400 O   0  0  0  0  0  0  0  0  0  0  0  0
   44.9050   29.7960   46.8790 N   0  0  0  0  0  0  0  0  0  0  0  0
   44.0600   30.0210   47.4410 H   0  0  0  0  0  0  0  0  0  0  0  0
   42.7490   27.6020   45.5590 C   0  0  0  0  0  0  0  0  0  0  0  0
   43.8940   27.6460   46.3230 C   0  0  0  0  0  0  0  0  0  0  0  0
   44.1080   26.7650   47.3810 C   0  0  0  0  0  0  0  0  0  0  0  0
   44.9880   26.7500   48.0210 H   0  0  0  0  0  0  0  0  0  0  0  0
   43.1550   25.8150   47.6800 C   0  0  0  0  0  0  0  0  0  0  0  0
   43.2950   25.1090   48.5080 H   0  0  0  0  0  0  0  0  0  0  0  0
   42.0130   25.7860   46.9000 C   0  0  0  0  0  0  0  0  0  0  0  0
   41.7880   26.6600   45.8430 C   0  0  0  0  0  0  0  0  0  0  0  0
   42.5990   29.3410   43.6580 N   0  0  0  0  0  0  0  0  0  0  0  0
   42.6660   28.5660   44.5120 C   0  0  0  0  0  0  0  0  0  0  0  0
   46.0180   32.9770   46.0310 C   0  0  0  0  0  0  0  0  0  0  0  0
   45.7860   31.7190   45.7420 C   0  0  0  0  0  0  0  0  0  0  0  0
   44.5550   35.9140   44.3990 C   0  0  0  0  0  0  0  0  0  0  0  0
   45.3380   36.0240   43.2440 C   0  0  0  0  0  0  0  0  0  0  0  0
   46.3540   35.1030   43.0240 C   0  0  0  0  0  0  0  0  0  0  0  0
   46.5120   34.1560   43.9570 N   0  0  0  0  0  0  0  0  0  0  0  0
   45.7610   34.0540   45.0640 C   0  0  0  0  0  0  0  0  0  0  0  0
   44.7730   34.9390   45.2880 N   0  0  0  0  0  0  0  0  0  0  0  0
   43.7730   36.6560   44.5210 H   0  0  0  0  0  0  0  0  0  0  0  0
   45.2330   36.7800   42.4750 H   0  0  0  0  0  0  0  0  0  0  0  0
   47.1960   35.0940   41.9400 O   0  0  0  0  0  0  0  0  0  0  0  0
   46.8580   34.2170   40.8670 C   0  0  0  0  0  0  0  0  0  0  0  0
   45.4990   34.3500   40.5720 F   0  0  0  0  0  0  0  0  0  0  0  0
   47.6010   34.6000   39.7490 F   0  0  0  0  0  0  0  0  0  0  0  0
   47.1850   32.9050   41.1690 F   0  0  0  0  0  0  0  0  0  0  0  0
  1  6  1  0  0  0  0
  1  2  1  0  0  0  0
  3  1  1  0  0  0  0
  4  9  1  0  0  0  0
  4  6  1  0  0  0  0
  5  4  2  0  0  0  0
  6  7  1  0  0  0  0
  8 15  2  0  0  0  0
  8  9  1  0  0  0  0
  9 10  2  0  0  0  0
 10 12  1  0  0  0  0
 10 11  1  0  0  0  0
 12 13  1  0  0  0  0
 14 12  2  0  0  0  0
 15 14  1  0  0  0  0
 16 17  3  0  0  0  0
 17  8  1  0  0  0  0
 19 18  2  0  0  0  0
 19  1  1  0  0  0  0
 20 26  1  0  0  0  0
 20 25  1  0  0  0  0
 21 20  2  0  0  0  0
 22 21  1  0  0  0  0
 22 23  2  0  0  0  0
 23 24  1  0  0  0  0
 24 25  2  0  0  0  0
 24 18  1  0  0  0  0
 27 21  1  0  0  0  0
 28 22  1  0  0  0  0
 29 32  1  0  0  0  0
 29 28  1  0  0  0  0
 30 29  1  0  0  0  0
 31 29  1  0  0  0  0
M  END
>  <minimizedAffinity>
-5.46977139

>  <minimizedRMSD>
3.28981066

$$$$
