
 OpenBabel03242518353D

 36 39  0  0  1  0  0  0  0  0999 V2000
   47.3820   33.8300   39.7130 C   0  0  0  0  0  0  0  0  0  0  0  0
   48.3590   34.6110   39.1010 C   0  0  0  0  0  0  0  0  0  0  0  0
   48.3230   34.3820   37.7380 C   0  0  0  0  0  0  0  0  0  0  0  0
   47.3190   33.4630   37.5880 C   0  0  0  0  0  0  0  0  0  0  0  0
   46.7770   33.1490   38.7480 O   0  0  0  0  0  0  0  0  0  0  0  0
   48.9980   35.2670   39.6960 H   0  0  0  0  0  0  0  0  0  0  0  0
   48.9760   34.8580   37.0190 H   0  0  0  0  0  0  0  0  0  0  0  0
   46.8920   32.9000   36.2900 C   0  0  2  0  0  0  0  0  0  0  0  0
   46.3230   31.5400   36.2430 C   0  0  0  0  0  0  0  0  0  0  0  0
   47.7510   31.6970   35.8330 C   0  0  1  0  0  0  0  0  0  0  0  0
   46.6240   33.6130   35.4900 H   0  0  0  0  0  0  0  0  0  0  0  0
   45.5380   31.2650   35.5270 H   0  0  0  0  0  0  0  0  0  0  0  0
   46.1440   31.0740   37.2560 H   0  0  0  0  0  0  0  0  0  0  0  0
   48.5680   31.3770   36.4950 H   0  0  0  0  0  0  0  0  0  0  0  0
   47.8000   30.7450   33.4300 C   0  0  0  0  0  0  0  0  0  0  0  0
   48.0550   31.6940   34.3870 C   0  0  0  0  0  0  0  0  0  0  0  0
   48.6730   32.8930   34.0160 C   0  0  0  0  0  0  0  0  0  0  0  0
   48.9350   33.7330   34.6720 H   0  0  0  0  0  0  0  0  0  0  0  0
   49.0310   33.1340   32.6850 C   0  0  0  0  0  0  0  0  0  0  0  0
   49.5090   34.0490   32.3620 H   0  0  0  0  0  0  0  0  0  0  0  0
   48.7630   32.1580   31.7260 C   0  0  0  0  0  0  0  0  0  0  0  0
   48.1450   30.9620   32.1120 C   0  0  0  0  0  0  0  0  0  0  0  0
   46.7120   28.5380   34.2720 N   0  0  0  0  0  0  0  0  0  0  0  0
   47.1930   29.5380   33.8970 C   0  0  0  0  0  0  0  0  0  0  0  0
   47.0060   33.6960   41.0680 O   0  0  0  0  0  0  0  0  0  0  0  0
   47.2620   34.7560   41.9670 C   0  0  0  0  0  0  0  0  0  0  0  0
   48.2070   35.5250   41.6710 O   0  0  0  0  0  0  0  0  0  0  0  0
   46.4050   34.8230   43.1080 C   0  0  0  0  0  0  0  0  0  0  0  0
   45.5240   35.8690   43.1090 C   0  0  0  0  0  0  0  0  0  0  0  0
   44.6550   35.9960   44.1940 C   0  0  0  0  0  0  0  0  0  0  0  0
   44.7310   35.0770   45.1910 N   0  0  0  0  0  0  0  0  0  0  0  0
   45.6080   34.0730   45.1460 C   0  0  0  0  0  0  0  0  0  0  0  0
   46.4330   33.9600   44.1060 N   0  0  0  0  0  0  0  0  0  0  0  0
   45.4160   36.6340   42.3420 H   0  0  0  0  0  0  0  0  0  0  0  0
   43.9360   36.8070   44.2440 H   0  0  0  0  0  0  0  0  0  0  0  0
   45.6550   33.3470   45.9500 H   0  0  0  0  0  0  0  0  0  0  0  0
  1 25  1  0  0  0  0
  2  6  1  0  0  0  0
  2  1  2  0  0  0  0
  3  2  1  0  0  0  0
  4  3  2  0  0  0  0
  4  5  1  0  0  0  0
  5  1  1  0  0  0  0
  7  3  1  0  0  0  0
  8 11  1  6  0  0  0
  8  4  1  0  0  0  0
  9  8  1  0  0  0  0
  9 13  1  0  0  0  0
 10  9  1  0  0  0  0
 10  8  1  0  0  0  0
 10 14  1  1  0  0  0
 12  9  1  0  0  0  0
 15 24  1  0  0  0  0
 15 16  1  0  0  0  0
 16 10  1  0  0  0  0
 17 16  2  0  0  0  0
 17 18  1  0  0  0  0
 19 17  1  0  0  0  0
 20 19  1  0  0  0  0
 21 22  1  0  0  0  0
 21 19  2  0  0  0  0
 22 15  2  0  0  0  0
 24 23  3  0  0  0  0
 25 26  1  0  0  0  0
 26 28  1  0  0  0  0
 27 26  2  0  0  0  0
 28 29  2  0  0  0  0
 28 33  1  0  0  0  0
 29 30  1  0  0  0  0
 30 35  1  0  0  0  0
 30 31  2  0  0  0  0
 32 31  1  0  0  0  0
 32 36  1  0  0  0  0
 33 32  2  0  0  0  0
 34 29  1  0  0  0  0
M  END
>  <minimizedAffinity>
-5.53851843

>  <minimizedRMSD>
1.91826212

$$$$
