
 OpenBabel03242518373D

 36 39  0  0  1  0  0  0  0  0999 V2000
   38.3690   32.0020   40.9760 C   0  0  0  0  0  0  0  0  0  0  0  0
   37.1960   32.1380   40.2390 C   0  0  0  0  0  0  0  0  0  0  0  0
   36.4350   30.9940   40.3980 C   0  0  0  0  0  0  0  0  0  0  0  0
   37.1910   30.2130   41.2310 C   0  0  0  0  0  0  0  0  0  0  0  0
   38.3190   30.8120   41.5610 O   0  0  0  0  0  0  0  0  0  0  0  0
   37.0050   33.0450   39.6620 H   0  0  0  0  0  0  0  0  0  0  0  0
   35.4710   30.8300   39.9350 H   0  0  0  0  0  0  0  0  0  0  0  0
   36.7930   28.8710   41.7040 C   0  0  2  0  0  0  0  0  0  0  0  0
   37.5600   28.2270   42.7870 C   0  0  0  0  0  0  0  0  0  0  0  0
   37.8400   27.7760   41.3900 C   0  0  1  0  0  0  0  0  0  0  0  0
   35.7420   28.5690   41.5490 H   0  0  0  0  0  0  0  0  0  0  0  0
   37.0800   27.5720   43.5250 H   0  0  0  0  0  0  0  0  0  0  0  0
   38.3400   28.8900   43.2630 H   0  0  0  0  0  0  0  0  0  0  0  0
   38.7570   28.0860   40.8690 H   0  0  0  0  0  0  0  0  0  0  0  0
   36.7660   26.1150   39.7260 C   0  0  0  0  0  0  0  0  0  0  0  0
   37.2530   26.4940   40.9520 C   0  0  0  0  0  0  0  0  0  0  0  0
   37.2550   25.5710   42.0030 C   0  0  0  0  0  0  0  0  0  0  0  0
   37.6110   25.7360   43.0270 H   0  0  0  0  0  0  0  0  0  0  0  0
   36.7710   24.2710   41.8180 C   0  0  0  0  0  0  0  0  0  0  0  0
   36.7590   23.5310   42.6060 H   0  0  0  0  0  0  0  0  0  0  0  0
   36.2830   23.9040   40.5640 C   0  0  0  0  0  3  0  0  0  0  0  0
   36.2850   24.8390   39.5220 C   0  0  0  0  0  3  0  0  0  0  0  0
   36.7590   27.9610   37.8940 N   0  0  0  0  0  0  0  0  0  0  0  0
   36.7730   27.1260   38.7150 C   0  0  0  0  0  0  0  0  0  0  0  0
   39.4670   32.8730   41.1530 O   0  0  0  0  0  0  0  0  0  0  0  0
   39.6340   33.9670   40.2720 C   0  0  0  0  0  0  0  0  0  0  0  0
   38.9700   34.9990   40.5290 O   0  0  0  0  0  0  0  0  0  0  0  0
   40.5480   33.7610   39.1930 C   0  0  0  0  0  0  0  0  0  0  0  0
   41.5000   34.7320   39.0480 C   0  0  0  0  0  0  0  0  0  0  0  0
   42.4260   34.5950   38.0130 C   0  0  0  0  0  0  0  0  0  0  0  0
   42.3340   33.5070   37.2050 N   0  0  0  0  0  0  0  0  0  0  0  0
   41.3870   32.5850   37.3870 C   0  0  0  0  0  0  0  0  0  0  0  0
   40.5070   32.7250   38.3770 N   0  0  0  0  0  0  0  0  0  0  0  0
   41.6240   35.6230   39.6600 H   0  0  0  0  0  0  0  0  0  0  0  0
   43.2010   35.3370   37.8530 H   0  0  0  0  0  0  0  0  0  0  0  0
   41.3270   31.7220   36.7330 H   0  0  0  0  0  0  0  0  0  0  0  0
  1 25  1  0  0  0  0
  1  5  1  0  0  0  0
  2  3  1  0  0  0  0
  2  1  2  0  0  0  0
  3  4  2  0  0  0  0
  4  5  1  0  0  0  0
  4  8  1  0  0  0  0
  6  2  1  0  0  0  0
  7  3  1  0  0  0  0
  8 11  1  6  0  0  0
  8  9  1  0  0  0  0
  9 13  1  0  0  0  0
  9 12  1  0  0  0  0
 10 14  1  6  0  0  0
 10  8  1  0  0  0  0
 10  9  1  0  0  0  0
 15 16  1  0  0  0  0
 16 10  1  0  0  0  0
 16 17  2  0  0  0  0
 17 18  1  0  0  0  0
 19 17  1  0  0  0  0
 19 20  1  0  0  0  0
 21 19  2  0  0  0  0
 22 15  2  0  0  0  0
 22 21  1  0  0  0  0
 23 24  3  0  0  0  0
 24 15  1  0  0  0  0
 26 27  2  0  0  0  0
 26 25  1  0  0  0  0
 28 26  1  0  0  0  0
 29 28  1  0  0  0  0
 29 34  1  0  0  0  0
 30 29  2  0  0  0  0
 31 32  2  0  0  0  0
 31 30  1  0  0  0  0
 32 33  1  0  0  0  0
 33 28  2  0  0  0  0
 35 30  1  0  0  0  0
 36 32  1  0  0  0  0
M  END
>  <minimizedAffinity>
-6.09154367

$$$$

 OpenBabel03242518373D

 36 39  0  0  1  0  0  0  0  0999 V2000
   38.4750   32.0450   40.7840 C   0  0  0  0  0  0  0  0  0  0  0  0
   37.1950   32.2540   40.2770 C   0  0  0  0  0  0  0  0  0  0  0  0
   36.5470   31.0370   40.1870 C   0  0  0  0  0  0  0  0  0  0  0  0
   37.4740   30.1390   40.6460 C   0  0  0  0  0  0  0  0  0  0  0  0
   38.5960   30.7400   40.9910 O   0  0  0  0  0  0  0  0  0  0  0  0
   36.8570   33.2620   40.0240 H   0  0  0  0  0  0  0  0  0  0  0  0
   35.5360   30.9060   39.8240 H   0  0  0  0  0  0  0  0  0  0  0  0
   37.2450   28.6830   40.7470 C   0  0  2  0  0  0  0  0  0  0  0  0
   36.0290   28.1840   41.4170 C   0  0  0  0  0  0  0  0  0  0  0  0
   37.3010   28.1530   42.2000 C   0  0  1  0  0  0  0  0  0  0  0  0
   37.7370   28.0380   39.9960 H   0  0  0  0  0  0  0  0  0  0  0  0
   35.5240   27.2670   41.0900 H   0  0  0  0  0  0  0  0  0  0  0  0
   35.2900   28.9890   41.6990 H   0  0  0  0  0  0  0  0  0  0  0  0
   37.4920   28.8840   42.9980 H   0  0  0  0  0  0  0  0  0  0  0  0
   39.2990   26.5740   42.6450 C   0  0  0  0  0  0  0  0  0  0  0  0
   37.9920   26.8550   42.3370 C   0  0  0  0  0  0  0  0  0  0  0  0
   37.0950   25.8010   42.1310 C   0  0  0  0  0  0  0  0  0  0  0  0
   36.0300   25.8780   41.8800 H   0  0  0  0  0  0  0  0  0  0  0  0
   37.5140   24.4710   42.2380 C   0  0  0  0  0  0  0  0  0  0  0  0
   36.8490   23.6310   42.0870 H   0  0  0  0  0  0  0  0  0  0  0  0
   38.8470   24.2050   42.5540 C   0  0  0  0  0  3  0  0  0  0  0  0
   39.7330   25.2700   42.7560 C   0  0  0  0  0  3  0  0  0  0  0  0
   40.8580   28.6310   42.9680 N   0  0  0  0  0  0  0  0  0  0  0  0
   40.1560   27.7070   42.8110 C   0  0  0  0  0  0  0  0  0  0  0  0
   39.5260   32.9450   41.0680 O   0  0  0  0  0  0  0  0  0  0  0  0
   39.7400   34.0540   40.2180 C   0  0  0  0  0  0  0  0  0  0  0  0
   39.1000   35.0980   40.4880 O   0  0  0  0  0  0  0  0  0  0  0  0
   40.6650   33.8480   39.1490 C   0  0  0  0  0  0  0  0  0  0  0  0
   41.5960   34.8370   38.9910 C   0  0  0  0  0  0  0  0  0  0  0  0
   42.5330   34.7010   37.9660 C   0  0  0  0  0  0  0  0  0  0  0  0
   42.4710   33.5950   37.1790 N   0  0  0  0  0  0  0  0  0  0  0  0
   41.5440   32.6560   37.3720 C   0  0  0  0  0  0  0  0  0  0  0  0
   40.6540   32.7950   38.3540 N   0  0  0  0  0  0  0  0  0  0  0  0
   41.6960   35.7430   39.5870 H   0  0  0  0  0  0  0  0  0  0  0  0
   43.2920   35.4570   37.7970 H   0  0  0  0  0  0  0  0  0  0  0  0
   41.5090   31.7790   36.7360 H   0  0  0  0  0  0  0  0  0  0  0  0
  1  5  1  0  0  0  0
  1 25  1  0  0  0  0
  2  1  2  0  0  0  0
  3  2  1  0  0  0  0
  3  4  2  0  0  0  0
  4  8  1  0  0  0  0
  4  5  1  0  0  0  0
  6  2  1  0  0  0  0
  7  3  1  0  0  0  0
  8 11  1  6  0  0  0
  8  9  1  0  0  0  0
  8 10  1  0  0  0  0
  9 13  1  0  0  0  0
  9 10  1  0  0  0  0
 10 16  1  0  0  0  0
 10 14  1  1  0  0  0
 12  9  1  0  0  0  0
 15 22  1  0  0  0  0
 15 24  1  0  0  0  0
 16 15  2  0  0  0  0
 17 19  2  0  0  0  0
 17 16  1  0  0  0  0
 18 17  1  0  0  0  0
 19 21  1  0  0  0  0
 20 19  1  0  0  0  0
 21 22  2  0  0  0  0
 24 23  3  0  0  0  0
 26 27  2  0  0  0  0
 26 25  1  0  0  0  0
 28 26  1  0  0  0  0
 29 28  1  0  0  0  0
 29 34  1  0  0  0  0
 30 29  2  0  0  0  0
 31 32  2  0  0  0  0
 31 30  1  0  0  0  0
 32 33  1  0  0  0  0
 33 28  2  0  0  0  0
 35 30  1  0  0  0  0
 36 32  1  0  0  0  0
M  END
>  <minimizedAffinity>
-6.03897762

$$$$

 OpenBabel03242518373D

 36 39  0  0  1  0  0  0  0  0999 V2000
   37.0150   26.6510   42.6160 C   0  0  0  0  0  0  0  0  0  0  0  0
   37.6240   27.3250   43.6700 C   0  0  0  0  0  0  0  0  0  0  0  0
   37.5690   28.6840   43.4210 C   0  0  0  0  0  0  0  0  0  0  0  0
   36.9250   28.7690   42.2160 C   0  0  0  0  0  0  0  0  0  0  0  0
   36.6060   27.5740   41.7550 O   0  0  0  0  0  0  0  0  0  0  0  0
   38.0460   26.7720   44.5130 H   0  0  0  0  0  0  0  0  0  0  0  0
   37.9700   29.4440   44.0780 H   0  0  0  0  0  0  0  0  0  0  0  0
   36.6200   30.0360   41.5210 C   0  0  2  0  0  0  0  0  0  0  0  0
   36.2430   30.0080   40.0950 C   0  0  0  0  0  0  0  0  0  0  0  0
   37.6490   30.3950   40.4220 C   0  0  1  0  0  0  0  0  0  0  0  0
   36.2830   30.8870   42.1400 H   0  0  0  0  0  0  0  0  0  0  0  0
   35.5260   30.7230   39.6720 H   0  0  0  0  0  0  0  0  0  0  0  0
   36.0970   28.9720   39.6720 H   0  0  0  0  0  0  0  0  0  0  0  0
   38.4810   29.6950   40.2590 H   0  0  0  0  0  0  0  0  0  0  0  0
   39.0330   32.5120   40.9590 C   0  0  0  0  0  0  0  0  0  0  0  0
   37.9960   31.8300   40.3730 C   0  0  0  0  0  0  0  0  0  0  0  0
   37.0910   32.5230   39.5620 C   0  0  0  0  0  0  0  0  0  0  0  0
   36.2230   32.1090   39.0360 H   0  0  0  0  0  0  0  0  0  0  0  0
   37.2340   33.8970   39.3400 C   0  0  0  0  0  0  0  0  0  0  0  0
   36.5550   34.4650   38.7180 H   0  0  0  0  0  0  0  0  0  0  0  0
   38.2950   34.5730   39.9420 C   0  0  0  0  0  3  0  0  0  0  0  0
   39.1920   33.8660   40.7530 C   0  0  0  0  0  3  0  0  0  0  0  0
   40.6150   31.1080   42.4720 N   0  0  0  0  0  0  0  0  0  0  0  0
   39.8930   31.7350   41.7960 C   0  0  0  0  0  0  0  0  0  0  0  0
   36.8060   25.2730   42.3850 O   0  0  0  0  0  0  0  0  0  0  0  0
   37.7700   24.5360   41.6600 C   0  0  0  0  0  0  0  0  0  0  0  0
   37.3550   23.5270   41.0430 O   0  0  0  0  0  0  0  0  0  0  0  0
   39.1070   25.0370   41.7190 C   0  0  0  0  0  0  0  0  0  0  0  0
   39.8600   24.5560   42.7550 C   0  0  0  0  0  0  0  0  0  0  0  0
   41.1770   25.0030   42.8730 C   0  0  0  0  0  0  0  0  0  0  0  0
   41.6410   25.8910   41.9560 N   0  0  0  0  0  0  0  0  0  0  0  0
   40.8680   26.3310   40.9620 C   0  0  0  0  0  0  0  0  0  0  0  0
   39.6120   25.8990   40.8570 N   0  0  0  0  0  0  0  0  0  0  0  0
   39.5450   23.8460   43.5180 H   0  0  0  0  0  0  0  0  0  0  0  0
   41.8170   24.6530   43.6760 H   0  0  0  0  0  0  0  0  0  0  0  0
   41.2540   27.0390   40.2380 H   0  0  0  0  0  0  0  0  0  0  0  0
  1  2  2  0  0  0  0
  2  6  1  0  0  0  0
  3  2  1  0  0  0  0
  3  7  1  0  0  0  0
  4  3  2  0  0  0  0
  5  4  1  0  0  0  0
  5  1  1  0  0  0  0
  8 11  1  1  0  0  0
  8  4  1  0  0  0  0
  9 10  1  0  0  0  0
  9  8  1  0  0  0  0
 10 14  1  6  0  0  0
 10  8  1  0  0  0  0
 12  9  1  0  0  0  0
 13  9  1  0  0  0  0
 15 24  1  0  0  0  0
 16 10  1  0  0  0  0
 16 15  2  0  0  0  0
 17 16  1  0  0  0  0
 18 17  1  0  0  0  0
 19 17  2  0  0  0  0
 19 21  1  0  0  0  0
 20 19  1  0  0  0  0
 21 22  2  0  0  0  0
 22 15  1  0  0  0  0
 24 23  3  0  0  0  0
 25  1  1  0  0  0  0
 26 28  1  0  0  0  0
 26 25  1  0  0  0  0
 27 26  2  0  0  0  0
 28 29  1  0  0  0  0
 29 30  2  0  0  0  0
 29 34  1  0  0  0  0
 30 35  1  0  0  0  0
 31 30  1  0  0  0  0
 32 31  2  0  0  0  0
 33 32  1  0  0  0  0
 33 28  2  0  0  0  0
 36 32  1  0  0  0  0
M  END
>  <minimizedAffinity>
-5.74767828

$$$$

 OpenBabel03242518373D

 36 39  0  0  1  0  0  0  0  0999 V2000
   36.8550   29.4680   41.2370 C   0  0  0  0  0  0  0  0  0  0  0  0
   36.2200   30.6950   41.0680 C   0  0  0  0  0  0  0  0  0  0  0  0
   36.9590   31.4620   40.1860 C   0  0  0  0  0  0  0  0  0  0  0  0
   38.0180   30.6560   39.8620 C   0  0  0  0  0  0  0  0  0  0  0  0
   37.9460   29.4940   40.4830 O   0  0  0  0  0  0  0  0  0  0  0  0
   35.2880   30.9150   41.5940 H   0  0  0  0  0  0  0  0  0  0  0  0
   36.6950   32.4630   39.8730 H   0  0  0  0  0  0  0  0  0  0  0  0
   39.1010   31.0360   38.9310 C   0  0  2  0  0  0  0  0  0  0  0  0
   40.3040   30.1880   38.8340 C   0  0  0  0  0  0  0  0  0  0  0  0
   40.4120   31.4360   39.6480 C   0  0  1  0  0  0  0  0  0  0  0  0
   38.8300   31.6690   38.0680 H   0  0  0  0  0  0  0  0  0  0  0  0
   40.8470   30.0600   37.8890 H   0  0  0  0  0  0  0  0  0  0  0  0
   40.2390   29.2200   39.4120 H   0  0  0  0  0  0  0  0  0  0  0  0
   40.4210   31.3950   40.7470 H   0  0  0  0  0  0  0  0  0  0  0  0
   40.9060   33.9400   39.2370 C   0  0  0  0  0  0  0  0  0  0  0  0
   41.0960   32.5950   39.0410 C   0  0  0  0  0  0  0  0  0  0  0  0
   42.0970   32.1650   38.1620 C   0  0  0  0  0  0  0  0  0  0  0  0
   42.3570   31.1300   37.9110 H   0  0  0  0  0  0  0  0  0  0  0  0
   42.9020   33.0890   37.4860 C   0  0  0  0  0  0  0  0  0  0  0  0
   43.6860   32.7930   36.8010 H   0  0  0  0  0  0  0  0  0  0  0  0
   42.6950   34.4510   37.7000 C   0  0  0  0  0  3  0  0  0  0  0  0
   41.6900   34.8660   38.5810 C   0  0  0  0  0  3  0  0  0  0  0  0
   38.9630   34.5710   40.8460 N   0  0  0  0  0  0  0  0  0  0  0  0
   39.8450   34.2940   40.1280 C   0  0  0  0  0  0  0  0  0  0  0  0
   36.5170   28.3410   42.0190 O   0  0  0  0  0  0  0  0  0  0  0  0
   37.3330   27.9880   43.1180 C   0  0  0  0  0  0  0  0  0  0  0  0
   37.3480   28.7880   44.0830 O   0  0  0  0  0  0  0  0  0  0  0  0
   38.0420   26.7540   42.9940 C   0  0  0  0  0  0  0  0  0  0  0  0
   39.2480   26.7130   43.6360 C   0  0  0  0  0  0  0  0  0  0  0  0
   39.9950   25.5360   43.5570 C   0  0  0  0  0  0  0  0  0  0  0  0
   39.4860   24.4960   42.8470 N   0  0  0  0  0  0  0  0  0  0  0  0
   38.3030   24.5830   42.2380 C   0  0  0  0  0  0  0  0  0  0  0  0
   37.5970   25.7110   42.3190 N   0  0  0  0  0  0  0  0  0  0  0  0
   39.7080   27.5100   44.2170 H   0  0  0  0  0  0  0  0  0  0  0  0
   40.9590   25.4500   44.0470 H   0  0  0  0  0  0  0  0  0  0  0  0
   37.9100   23.7440   41.6760 H   0  0  0  0  0  0  0  0  0  0  0  0
  1 25  1  0  0  0  0
  2  1  2  0  0  0  0
  2  6  1  0  0  0  0
  3  2  1  0  0  0  0
  4  3  2  0  0  0  0
  4  5  1  0  0  0  0
  5  1  1  0  0  0  0
  7  3  1  0  0  0  0
  8 11  1  6  0  0  0
  8 10  1  0  0  0  0
  8  4  1  0  0  0  0
  9  8  1  0  0  0  0
  9 13  1  0  0  0  0
  9 10  1  0  0  0  0
 10 14  1  1  0  0  0
 12  9  1  0  0  0  0
 15 24  1  0  0  0  0
 16 15  1  0  0  0  0
 16 10  1  0  0  0  0
 17 16  2  0  0  0  0
 18 17  1  0  0  0  0
 19 21  2  0  0  0  0
 19 17  1  0  0  0  0
 20 19  1  0  0  0  0
 21 22  1  0  0  0  0
 22 15  2  0  0  0  0
 24 23  3  0  0  0  0
 25 26  1  0  0  0  0
 26 27  2  0  0  0  0
 28 26  1  0  0  0  0
 28 29  1  0  0  0  0
 29 34  1  0  0  0  0
 30 29  2  0  0  0  0
 30 35  1  0  0  0  0
 31 30  1  0  0  0  0
 32 33  1  0  0  0  0
 32 31  2  0  0  0  0
 33 28  2  0  0  0  0
 36 32  1  0  0  0  0
M  END
>  <minimizedAffinity>
-5.6939187

$$$$

 OpenBabel03242518373D

 36 39  0  0  1  0  0  0  0  0999 V2000
   36.8840   29.4660   41.1040 C   0  0  0  0  0  0  0  0  0  0  0  0
   36.2400   30.6970   41.1990 C   0  0  0  0  0  0  0  0  0  0  0  0
   36.8060   31.5670   40.2850 C   0  0  0  0  0  0  0  0  0  0  0  0
   37.7750   30.8160   39.6760 C   0  0  0  0  0  0  0  0  0  0  0  0
   37.8110   29.5900   40.1630 O   0  0  0  0  0  0  0  0  0  0  0  0
   35.4280   30.8450   41.9140 H   0  0  0  0  0  0  0  0  0  0  0  0
   36.4970   32.5940   40.1450 H   0  0  0  0  0  0  0  0  0  0  0  0
   38.6640   31.3120   38.6050 C   0  0  2  0  0  0  0  0  0  0  0  0
   39.5040   30.3560   37.8600 C   0  0  0  0  0  0  0  0  0  0  0  0
   40.1670   31.1530   38.9350 C   0  0  1  0  0  0  0  0  0  0  0  0
   38.3920   32.2660   38.1200 H   0  0  0  0  0  0  0  0  0  0  0  0
   39.7410   30.5000   36.7980 H   0  0  0  0  0  0  0  0  0  0  0  0
   39.2990   29.2710   38.0970 H   0  0  0  0  0  0  0  0  0  0  0  0
   40.4290   30.6940   39.9000 H   0  0  0  0  0  0  0  0  0  0  0  0
   41.9630   32.4020   37.5570 C   0  0  0  0  0  0  0  0  0  0  0  0
   40.9950   32.3050   38.5250 C   0  0  0  0  0  0  0  0  0  0  0  0
   40.6570   33.4390   39.2710 C   0  0  0  0  0  0  0  0  0  0  0  0
   39.9080   33.5060   40.0700 H   0  0  0  0  0  0  0  0  0  0  0  0
   41.2900   34.6650   39.0400 C   0  0  0  0  0  0  0  0  0  0  0  0
   41.0540   35.5630   39.5960 H   0  0  0  0  0  0  0  0  0  0  0  0
   42.2700   34.7440   38.0510 C   0  0  0  0  0  3  0  0  0  0  0  0
   42.5990   33.6010   37.3130 C   0  0  0  0  0  3  0  0  0  0  0  0
   42.5380   30.2080   36.2830 N   0  0  0  0  0  0  0  0  0  0  0  0
   42.2690   31.1910   36.8610 C   0  0  0  0  0  0  0  0  0  0  0  0
   36.6900   28.2540   41.8020 O   0  0  0  0  0  0  0  0  0  0  0  0
   37.4950   27.9640   42.9280 C   0  0  0  0  0  0  0  0  0  0  0  0
   37.5200   28.8290   43.8350 O   0  0  0  0  0  0  0  0  0  0  0  0
   38.1830   26.7120   42.8940 C   0  0  0  0  0  0  0  0  0  0  0  0
   39.3390   26.6680   43.6220 C   0  0  0  0  0  0  0  0  0  0  0  0
   40.0630   25.4740   43.6340 C   0  0  0  0  0  0  0  0  0  0  0  0
   39.5820   24.4210   42.9220 N   0  0  0  0  0  0  0  0  0  0  0  0
   38.4480   24.5130   42.2270 C   0  0  0  0  0  0  0  0  0  0  0  0
   37.7640   25.6570   42.2210 N   0  0  0  0  0  0  0  0  0  0  0  0
   39.7740   27.4740   44.2090 H   0  0  0  0  0  0  0  0  0  0  0  0
   40.9870   25.3850   44.1940 H   0  0  0  0  0  0  0  0  0  0  0  0
   38.0770   23.6640   41.6640 H   0  0  0  0  0  0  0  0  0  0  0  0
  1  2  2  0  0  0  0
  1 25  1  0  0  0  0
  2  6  1  0  0  0  0
  3  2  1  0  0  0  0
  4  5  1  0  0  0  0
  4  3  2  0  0  0  0
  5  1  1  0  0  0  0
  7  3  1  0  0  0  0
  8 11  1  6  0  0  0
  8 10  1  0  0  0  0
  8  4  1  0  0  0  0
  9 13  1  0  0  0  0
  9  8  1  0  0  0  0
  9 10  1  0  0  0  0
 10 14  1  1  0  0  0
 12  9  1  0  0  0  0
 15 16  1  0  0  0  0
 16 10  1  0  0  0  0
 16 17  2  0  0  0  0
 17 18  1  0  0  0  0
 19 17  1  0  0  0  0
 19 20  1  0  0  0  0
 21 19  2  0  0  0  0
 22 15  2  0  0  0  0
 22 21  1  0  0  0  0
 23 24  3  0  0  0  0
 24 15  1  0  0  0  0
 25 26  1  0  0  0  0
 26 27  2  0  0  0  0
 28 26  1  0  0  0  0
 28 29  1  0  0  0  0
 29 30  2  0  0  0  0
 29 34  1  0  0  0  0
 30 35  1  0  0  0  0
 31 30  1  0  0  0  0
 32 31  2  0  0  0  0
 33 32  1  0  0  0  0
 33 28  2  0  0  0  0
 36 32  1  0  0  0  0
M  END
>  <minimizedAffinity>
-5.62992191

$$$$

 OpenBabel03242518373D

 36 39  0  0  1  0  0  0  0  0999 V2000
   38.9690   33.8660   40.0520 C   0  0  0  0  0  0  0  0  0  0  0  0
   37.6920   34.1420   39.5700 C   0  0  0  0  0  0  0  0  0  0  0  0
   36.9510   32.9750   39.5760 C   0  0  0  0  0  0  0  0  0  0  0  0
   37.8220   32.0380   40.0650 C   0  0  0  0  0  0  0  0  0  0  0  0
   38.9980   32.5710   40.3390 O   0  0  0  0  0  0  0  0  0  0  0  0
   37.4220   35.1550   39.2640 H   0  0  0  0  0  0  0  0  0  0  0  0
   35.9220   32.9010   39.2510 H   0  0  0  0  0  0  0  0  0  0  0  0
   37.4880   30.6130   40.2650 C   0  0  2  0  0  0  0  0  0  0  0  0
   36.1100   30.2360   40.6300 C   0  0  0  0  0  0  0  0  0  0  0  0
   37.1220   30.2690   41.7280 C   0  0  1  0  0  0  0  0  0  0  0  0
   38.1220   29.8660   39.7550 H   0  0  0  0  0  0  0  0  0  0  0  0
   35.6550   29.2980   40.2840 H   0  0  0  0  0  0  0  0  0  0  0  0
   35.3710   31.0890   40.6060 H   0  0  0  0  0  0  0  0  0  0  0  0
   37.1360   31.0890   42.4600 H   0  0  0  0  0  0  0  0  0  0  0  0
   38.9240   28.6660   42.6590 C   0  0  0  0  0  0  0  0  0  0  0  0
   37.6720   28.9800   42.1950 C   0  0  0  0  0  0  0  0  0  0  0  0
   36.6880   27.9850   42.1490 C   0  0  0  0  0  0  0  0  0  0  0  0
   35.6530   28.0940   41.8030 H   0  0  0  0  0  0  0  0  0  0  0  0
   36.9680   26.6810   42.5710 C   0  0  0  0  0  0  0  0  0  0  0  0
   36.2330   25.8870   42.5510 H   0  0  0  0  0  0  0  0  0  0  0  0
   38.2460   26.3820   43.0420 C   0  0  0  0  0  3  0  0  0  0  0  0
   39.2200   27.3870   43.0810 C   0  0  0  0  0  3  0  0  0  0  0  0
   40.6440   30.6160   42.6220 N   0  0  0  0  0  0  0  0  0  0  0  0
   39.8770   29.7320   42.6460 C   0  0  0  0  0  0  0  0  0  0  0  0
   40.0930   34.6980   40.2490 O   0  0  0  0  0  0  0  0  0  0  0  0
   41.3600   34.2750   39.7840 C   0  0  0  0  0  0  0  0  0  0  0  0
   41.4650   34.0780   38.5500 O   0  0  0  0  0  0  0  0  0  0  0  0
   42.3700   34.1250   40.7830 C   0  0  0  0  0  0  0  0  0  0  0  0
   42.9180   32.8750   40.8690 C   0  0  0  0  0  0  0  0  0  0  0  0
   43.9120   32.6570   41.8240 C   0  0  0  0  0  0  0  0  0  0  0  0
   44.2820   33.6950   42.6180 N   0  0  0  0  0  0  0  0  0  0  0  0
   43.7180   34.8980   42.4960 C   0  0  0  0  0  0  0  0  0  0  0  0
   42.7700   35.0970   41.5810 N   0  0  0  0  0  0  0  0  0  0  0  0
   42.6640   32.0060   40.2640 H   0  0  0  0  0  0  0  0  0  0  0  0
   44.3790   31.6840   41.9340 H   0  0  0  0  0  0  0  0  0  0  0  0
   44.0260   35.7160   43.1370 H   0  0  0  0  0  0  0  0  0  0  0  0
  1 25  1  0  0  0  0
  1  5  1  0  0  0  0
  2  3  1  0  0  0  0
  2  1  2  0  0  0  0
  3  4  2  0  0  0  0
  4  8  1  0  0  0  0
  4  5  1  0  0  0  0
  6  2  1  0  0  0  0
  7  3  1  0  0  0  0
  8 11  1  6  0  0  0
  8  9  1  0  0  0  0
  8 10  1  0  0  0  0
  9 10  1  0  0  0  0
 10 16  1  0  0  0  0
 10 14  1  1  0  0  0
 12  9  1  0  0  0  0
 13  9  1  0  0  0  0
 15 22  1  0  0  0  0
 16 15  2  0  0  0  0
 17 16  1  0  0  0  0
 17 19  2  0  0  0  0
 18 17  1  0  0  0  0
 19 21  1  0  0  0  0
 20 19  1  0  0  0  0
 21 22  2  0  0  0  0
 23 24  3  0  0  0  0
 24 15  1  0  0  0  0
 26 25  1  0  0  0  0
 26 28  1  0  0  0  0
 27 26  2  0  0  0  0
 28 29  2  0  0  0  0
 28 33  1  0  0  0  0
 29 30  1  0  0  0  0
 30 35  1  0  0  0  0
 30 31  2  0  0  0  0
 32 31  1  0  0  0  0
 32 36  1  0  0  0  0
 33 32  2  0  0  0  0
 34 29  1  0  0  0  0
M  END
>  <minimizedAffinity>
-5.59751272

$$$$

 OpenBabel03242518373D

 36 39  0  0  1  0  0  0  0  0999 V2000
   36.6400   30.3110   38.6510 C   0  0  0  0  0  0  0  0  0  0  0  0
   35.6910   29.5290   37.9990 C   0  0  0  0  0  0  0  0  0  0  0  0
   35.9060   28.2030   38.3260 C   0  0  0  0  0  0  0  0  0  0  0  0
   36.9850   28.2450   39.1670 C   0  0  0  0  0  0  0  0  0  0  0  0
   37.4060   29.4830   39.3480 O   0  0  0  0  0  0  0  0  0  0  0  0
   34.9390   29.9910   37.3550 H   0  0  0  0  0  0  0  0  0  0  0  0
   35.3120   27.3770   37.9580 H   0  0  0  0  0  0  0  0  0  0  0  0
   37.6000   27.0580   39.7950 C   0  0  2  0  0  0  0  0  0  0  0  0
   36.7490   25.9120   40.1660 C   0  0  0  0  0  0  0  0  0  0  0  0
   37.1570   26.8420   41.2610 C   0  0  1  0  0  0  0  0  0  0  0  0
   38.6730   26.8780   39.6010 H   0  0  0  0  0  0  0  0  0  0  0  0
   37.1140   24.8780   40.1130 H   0  0  0  0  0  0  0  0  0  0  0  0
   35.6790   25.9930   39.8150 H   0  0  0  0  0  0  0  0  0  0  0  0
   36.4430   27.5630   41.6860 H   0  0  0  0  0  0  0  0  0  0  0  0
   39.0480   27.1440   42.9980 C   0  0  0  0  0  0  0  0  0  0  0  0
   38.2470   26.4100   42.1590 C   0  0  0  0  0  0  0  0  0  0  0  0
   38.4030   25.0210   42.1040 C   0  0  0  0  0  0  0  0  0  0  0  0
   37.8370   24.3160   41.4830 H   0  0  0  0  0  0  0  0  0  0  0  0
   39.3610   24.3750   42.8930 C   0  0  0  0  0  0  0  0  0  0  0  0
   39.5090   23.3040   42.8770 H   0  0  0  0  0  0  0  0  0  0  0  0
   40.1640   25.1370   43.7410 C   0  0  0  0  0  3  0  0  0  0  0  0
   39.9980   26.5260   43.7840 C   0  0  0  0  0  3  0  0  0  0  0  0
   38.6960   29.7200   42.9590 N   0  0  0  0  0  0  0  0  0  0  0  0
   38.8430   28.5590   42.9720 C   0  0  0  0  0  0  0  0  0  0  0  0
   36.8550   31.7080   38.6570 O   0  0  0  0  0  0  0  0  0  0  0  0
   37.7930   32.2620   39.5580 C   0  0  0  0  0  0  0  0  0  0  0  0
   37.4140   32.4010   40.7450 O   0  0  0  0  0  0  0  0  0  0  0  0
   39.0670   32.5950   39.0020 C   0  0  0  0  0  0  0  0  0  0  0  0
   39.7260   33.6120   39.6350 C   0  0  0  0  0  0  0  0  0  0  0  0
   40.9770   33.9900   39.1450 C   0  0  0  0  0  0  0  0  0  0  0  0
   41.4730   33.3310   38.0660 N   0  0  0  0  0  0  0  0  0  0  0  0
   40.7920   32.3440   37.4820 C   0  0  0  0  0  0  0  0  0  0  0  0
   39.5980   31.9900   37.9570 N   0  0  0  0  0  0  0  0  0  0  0  0
   39.3820   34.1770   40.5000 H   0  0  0  0  0  0  0  0  0  0  0  0
   41.5420   34.7910   39.6100 H   0  0  0  0  0  0  0  0  0  0  0  0
   41.2020   31.8270   36.6220 H   0  0  0  0  0  0  0  0  0  0  0  0
  1 25  1  0  0  0  0
  1  5  1  0  0  0  0
  2  3  1  0  0  0  0
  2  1  2  0  0  0  0
  3  4  2  0  0  0  0
  4  5  1  0  0  0  0
  4  8  1  0  0  0  0
  6  2  1  0  0  0  0
  7  3  1  0  0  0  0
  8 11  1  6  0  0  0
  8  9  1  0  0  0  0
  8 10  1  0  0  0  0
  9 10  1  0  0  0  0
 10 14  1  1  0  0  0
 10 16  1  0  0  0  0
 12  9  1  0  0  0  0
 13  9  1  0  0  0  0
 15 22  1  0  0  0  0
 16 15  2  0  0  0  0
 17 16  1  0  0  0  0
 17 19  2  0  0  0  0
 18 17  1  0  0  0  0
 19 21  1  0  0  0  0
 20 19  1  0  0  0  0
 21 22  2  0  0  0  0
 23 24  3  0  0  0  0
 24 15  1  0  0  0  0
 25 26  1  0  0  0  0
 26 27  2  0  0  0  0
 28 26  1  0  0  0  0
 28 29  1  0  0  0  0
 29 34  1  0  0  0  0
 30 35  1  0  0  0  0
 30 29  2  0  0  0  0
 31 30  1  0  0  0  0
 32 33  1  0  0  0  0
 32 31  2  0  0  0  0
 33 28  2  0  0  0  0
 36 32  1  0  0  0  0
M  END
>  <minimizedAffinity>
-5.58663416

$$$$

 OpenBabel03242518373D

 36 39  0  0  1  0  0  0  0  0999 V2000
   36.5670   28.4350   40.9980 C   0  0  0  0  0  0  0  0  0  0  0  0
   35.4490   28.9420   40.3410 C   0  0  0  0  0  0  0  0  0  0  0  0
   35.6350   30.2950   40.1250 C   0  0  0  0  0  0  0  0  0  0  0  0
   36.8670   30.5460   40.6670 C   0  0  0  0  0  0  0  0  0  0  0  0
   37.4020   29.4510   41.1740 O   0  0  0  0  0  0  0  0  0  0  0  0
   34.6130   28.2880   40.0830 H   0  0  0  0  0  0  0  0  0  0  0  0
   34.9200   30.9410   39.6330 H   0  0  0  0  0  0  0  0  0  0  0  0
   37.5190   31.8720   40.6800 C   0  0  2  0  0  0  0  0  0  0  0  0
   37.3260   32.7850   39.5370 C   0  0  0  0  0  0  0  0  0  0  0  0
   38.6120   32.0270   39.5960 C   0  0  1  0  0  0  0  0  0  0  0  0
   37.7730   32.3040   41.6640 H   0  0  0  0  0  0  0  0  0  0  0  0
   37.2850   33.8740   39.6680 H   0  0  0  0  0  0  0  0  0  0  0  0
   36.5710   32.4280   38.7780 H   0  0  0  0  0  0  0  0  0  0  0  0
   38.7930   31.1690   38.9330 H   0  0  0  0  0  0  0  0  0  0  0  0
   40.9400   32.2840   40.6890 C   0  0  0  0  0  0  0  0  0  0  0  0
   39.8140   32.7490   40.0580 C   0  0  0  0  0  0  0  0  0  0  0  0
   39.7190   34.1090   39.7400 C   0  0  0  0  0  0  0  0  0  0  0  0
   38.8840   34.6140   39.2400 H   0  0  0  0  0  0  0  0  0  0  0  0
   40.7570   34.9930   40.0550 C   0  0  0  0  0  0  0  0  0  0  0  0
   40.7190   36.0490   39.8230 H   0  0  0  0  0  0  0  0  0  0  0  0
   41.8940   34.5010   40.6940 C   0  0  0  0  0  3  0  0  0  0  0  0
   41.9750   33.1390   41.0080 C   0  0  0  0  0  3  0  0  0  0  0  0
   40.9280   29.7490   41.2720 N   0  0  0  0  0  0  0  0  0  0  0  0
   40.9440   30.8890   41.0040 C   0  0  0  0  0  0  0  0  0  0  0  0
   36.8780   27.1300   41.4400 O   0  0  0  0  0  0  0  0  0  0  0  0
   37.2160   26.9190   42.7970 C   0  0  0  0  0  0  0  0  0  0  0  0
   36.3440   27.2220   43.6440 O   0  0  0  0  0  0  0  0  0  0  0  0
   38.5170   26.3790   43.0360 C   0  0  0  0  0  0  0  0  0  0  0  0
   39.3820   27.2200   43.6800 C   0  0  0  0  0  0  0  0  0  0  0  0
   40.6720   26.7580   43.9470 C   0  0  0  0  0  0  0  0  0  0  0  0
   41.0010   25.5000   43.5530 N   0  0  0  0  0  0  0  0  0  0  0  0
   40.1210   24.7160   42.9270 C   0  0  0  0  0  0  0  0  0  0  0  0
   38.8920   25.1660   42.6760 N   0  0  0  0  0  0  0  0  0  0  0  0
   39.1790   28.2340   44.0200 H   0  0  0  0  0  0  0  0  0  0  0  0
   41.3970   27.3830   44.4560 H   0  0  0  0  0  0  0  0  0  0  0  0
   40.3990   23.7150   42.6190 H   0  0  0  0  0  0  0  0  0  0  0  0
  1  5  1  0  0  0  0
  1 25  1  0  0  0  0
  2  1  2  0  0  0  0
  3  2  1  0  0  0  0
  3  4  2  0  0  0  0
  4  8  1  0  0  0  0
  4  5  1  0  0  0  0
  6  2  1  0  0  0  0
  7  3  1  0  0  0  0
  8 11  1  1  0  0  0
  9 10  1  0  0  0  0
  9 12  1  0  0  0  0
  9  8  1  0  0  0  0
 10 14  1  6  0  0  0
 10 16  1  0  0  0  0
 10  8  1  0  0  0  0
 13  9  1  0  0  0  0
 15 24  1  0  0  0  0
 15 22  1  0  0  0  0
 16 15  2  0  0  0  0
 17 19  2  0  0  0  0
 17 16  1  0  0  0  0
 18 17  1  0  0  0  0
 19 21  1  0  0  0  0
 20 19  1  0  0  0  0
 21 22  2  0  0  0  0
 24 23  3  0  0  0  0
 25 26  1  0  0  0  0
 26 28  1  0  0  0  0
 26 27  2  0  0  0  0
 28 29  1  0  0  0  0
 29 30  2  0  0  0  0
 29 34  1  0  0  0  0
 30 35  1  0  0  0  0
 31 30  1  0  0  0  0
 32 31  2  0  0  0  0
 33 32  1  0  0  0  0
 33 28  2  0  0  0  0
 36 32  1  0  0  0  0
M  END
>  <minimizedAffinity>
-5.5608387

$$$$

 OpenBabel03242518373D

 36 39  0  0  1  0  0  0  0  0999 V2000
   38.1490   31.9810   40.2110 C   0  0  0  0  0  0  0  0  0  0  0  0
   37.3180   32.2230   39.1210 C   0  0  0  0  0  0  0  0  0  0  0  0
   36.9450   31.0130   38.5670 C   0  0  0  0  0  0  0  0  0  0  0  0
   37.5750   30.0860   39.3540 C   0  0  0  0  0  0  0  0  0  0  0  0
   38.2750   30.6640   40.3110 O   0  0  0  0  0  0  0  0  0  0  0  0
   37.0630   33.2460   38.8340 H   0  0  0  0  0  0  0  0  0  0  0  0
   36.3000   30.9060   37.7050 H   0  0  0  0  0  0  0  0  0  0  0  0
   37.4790   28.6250   39.1610 C   0  0  2  0  0  0  0  0  0  0  0  0
   36.3010   28.0600   38.4750 C   0  0  0  0  0  0  0  0  0  0  0  0
   36.3300   27.9740   39.9670 C   0  0  1  0  0  0  0  0  0  0  0  0
   38.4230   28.0510   39.1490 H   0  0  0  0  0  0  0  0  0  0  0  0
   36.3740   27.1680   37.8390 H   0  0  0  0  0  0  0  0  0  0  0  0
   35.6050   28.8310   38.0340 H   0  0  0  0  0  0  0  0  0  0  0  0
   35.7050   28.6360   40.5830 H   0  0  0  0  0  0  0  0  0  0  0  0
   37.1280   26.3790   41.8380 C   0  0  0  0  0  0  0  0  0  0  0  0
   36.6850   26.6750   40.5740 C   0  0  0  0  0  0  0  0  0  0  0  0
   36.4830   25.6370   39.6570 C   0  0  0  0  0  0  0  0  0  0  0  0
   36.1360   25.7280   38.6210 H   0  0  0  0  0  0  0  0  0  0  0  0
   36.7260   24.3070   40.0160 C   0  0  0  0  0  0  0  0  0  0  0  0
   36.5810   23.4790   39.3350 H   0  0  0  0  0  0  0  0  0  0  0  0
   37.1750   24.0250   41.3060 C   0  0  0  0  0  3  0  0  0  0  0  0
   37.3730   25.0740   42.2120 C   0  0  0  0  0  3  0  0  0  0  0  0
   37.5020   28.4300   43.3930 N   0  0  0  0  0  0  0  0  0  0  0  0
   37.3350   27.4990   42.7020 C   0  0  0  0  0  0  0  0  0  0  0  0
   38.7910   32.8610   41.1100 O   0  0  0  0  0  0  0  0  0  0  0  0
   39.4340   34.0160   40.6110 C   0  0  0  0  0  0  0  0  0  0  0  0
   38.8070   35.0970   40.7170 O   0  0  0  0  0  0  0  0  0  0  0  0
   40.7300   33.8100   40.0450 C   0  0  0  0  0  0  0  0  0  0  0  0
   41.6260   33.1810   40.8660 C   0  0  0  0  0  0  0  0  0  0  0  0
   42.9120   32.9470   40.3780 C   0  0  0  0  0  0  0  0  0  0  0  0
   43.2070   33.3540   39.1160 N   0  0  0  0  0  0  0  0  0  0  0  0
   42.2990   33.9640   38.3520 C   0  0  0  0  0  0  0  0  0  0  0  0
   41.0730   34.1840   38.8270 N   0  0  0  0  0  0  0  0  0  0  0  0
   41.4500   32.8330   41.8820 H   0  0  0  0  0  0  0  0  0  0  0  0
   43.6610   32.4520   40.9870 H   0  0  0  0  0  0  0  0  0  0  0  0
   42.5500   34.2820   37.3470 H   0  0  0  0  0  0  0  0  0  0  0  0
  1  5  1  0  0  0  0
  1 25  1  0  0  0  0
  2  1  2  0  0  0  0
  3  2  1  0  0  0  0
  3  4  2  0  0  0  0
  4  5  1  0  0  0  0
  6  2  1  0  0  0  0
  7  3  1  0  0  0  0
  8 11  1  6  0  0  0
  8  4  1  0  0  0  0
  8 10  1  0  0  0  0
  9  8  1  0  0  0  0
  9 10  1  0  0  0  0
 10 16  1  0  0  0  0
 10 14  1  1  0  0  0
 12  9  1  0  0  0  0
 13  9  1  0  0  0  0
 15 22  1  0  0  0  0
 15 24  1  0  0  0  0
 16 15  2  0  0  0  0
 17 19  2  0  0  0  0
 17 16  1  0  0  0  0
 18 17  1  0  0  0  0
 19 21  1  0  0  0  0
 20 19  1  0  0  0  0
 21 22  2  0  0  0  0
 24 23  3  0  0  0  0
 26 27  2  0  0  0  0
 26 25  1  0  0  0  0
 28 26  1  0  0  0  0
 28 29  1  0  0  0  0
 29 34  1  0  0  0  0
 30 29  2  0  0  0  0
 30 35  1  0  0  0  0
 31 30  1  0  0  0  0
 32 33  1  0  0  0  0
 32 31  2  0  0  0  0
 33 28  2  0  0  0  0
 36 32  1  0  0  0  0
M  END
>  <minimizedAffinity>
-5.55556822

$$$$
