
 OpenBabel03242518163D

 33 35  0  0  0  0  0  0  0  0999 V2000
   36.9500   29.6480   39.0120 C   0  0  0  0  0  0  0  0  0  0  0  0
   35.8300   29.8360   39.8520 C   0  0  0  0  0  0  0  0  0  0  0  0
   35.6200   29.0360   40.9210 C   0  0  0  0  0  0  0  0  0  0  0  0
   36.5750   27.9970   41.1620 C   0  0  0  0  0  0  0  0  0  0  0  0
   37.7920   28.1750   39.8290 S   0  0  0  0  0  0  0  0  0  0  0  0
   35.2400   30.6420   39.5260 H   0  0  0  0  0  0  0  0  0  0  0  0
   34.7700   29.1670   41.5710 H   0  0  0  0  0  0  0  0  0  0  0  0
   37.4990   30.2610   37.8540 C   0  0  0  0  0  0  0  0  0  0  0  0
   37.0520   29.8000   36.9430 H   0  0  0  0  0  0  0  0  0  0  0  0
   38.5870   29.9450   37.7800 H   0  0  0  0  0  0  0  0  0  0  0  0
   37.4070   31.7270   37.7440 C   0  0  0  0  0  0  0  0  0  0  0  0
   37.5820   32.0790   36.7040 H   0  0  0  0  0  0  0  0  0  0  0  0
   36.3500   32.0320   37.9860 H   0  0  0  0  0  0  0  0  0  0  0  0
   38.2650   32.3850   38.7230 C   0  0  0  0  0  0  0  0  0  0  0  0
   37.7300   33.2590   39.6430 C   0  0  0  0  0  0  0  0  0  0  0  0
   38.5960   33.8670   40.5610 C   0  0  0  0  0  0  0  0  0  0  0  0
   39.9020   33.5580   40.4870 N   0  0  0  0  0  0  0  0  0  0  0  0
   40.3910   32.6940   39.5700 C   0  0  0  0  0  0  0  0  0  0  0  0
   39.5810   32.1280   38.7140 N   0  0  0  0  0  0  0  0  0  0  0  0
   36.6620   33.4420   39.6190 H   0  0  0  0  0  0  0  0  0  0  0  0
   38.1370   34.5430   41.2610 H   0  0  0  0  0  0  0  0  0  0  0  0
   41.4580   32.5470   39.6350 H   0  0  0  0  0  0  0  0  0  0  0  0
   36.5710   27.1250   42.1170 O   0  0  0  0  0  0  0  0  0  0  0  0
   37.9660   25.1080   42.1390 C   0  0  0  0  0  0  0  0  0  0  0  0
   37.7060   26.4180   42.4870 C   0  0  0  0  0  0  0  0  0  0  0  0
   38.6430   27.0800   43.2620 C   0  0  0  0  0  0  0  0  0  0  0  0
   38.4820   28.1150   43.5620 H   0  0  0  0  0  0  0  0  0  0  0  0
   39.8070   26.4570   43.6800 C   0  0  0  0  0  0  0  0  0  0  0  0
   40.5230   27.0050   44.2870 H   0  0  0  0  0  0  0  0  0  0  0  0
   40.0780   25.1470   43.3370 C   0  0  0  0  0  3  0  0  0  0  0  0
   39.1440   24.5070   42.5730 C   0  0  0  0  0  3  0  0  0  0  0  0
   36.2100   23.8570   40.6790 N   0  0  0  0  0  0  0  0  0  0  0  0
   37.0020   24.4100   41.3390 C   0  0  0  0  0  0  0  0  0  0  0  0
  1  5  1  0  0  0  0
  1  2  2  0  0  0  0
  2  3  1  0  0  0  0
  3  4  2  0  0  0  0
  3  7  1  0  0  0  0
  4 23  1  0  0  0  0
  5  4  1  0  0  0  0
  6  2  1  0  0  0  0
  8  1  1  0  0  0  0
  9  8  1  0  0  0  0
 10  8  1  0  0  0  0
 11  8  1  0  0  0  0
 11 13  1  0  0  0  0
 11 14  1  0  0  0  0
 12 11  1  0  0  0  0
 14 15  1  0  0  0  0
 15 16  2  0  0  0  0
 16 21  1  0  0  0  0
 17 16  1  0  0  0  0
 18 22  1  0  0  0  0
 18 17  2  0  0  0  0
 19 14  2  0  0  0  0
 19 18  1  0  0  0  0
 20 15  1  0  0  0  0
 23 25  1  0  0  0  0
 24 25  2  0  0  0  0
 24 31  1  0  0  0  0
 25 26  1  0  0  0  0
 26 27  1  0  0  0  0
 26 28  2  0  0  0  0
 28 29  1  0  0  0  0
 30 28  1  0  0  0  0
 31 30  2  0  0  0  0
 32 33  3  0  0  0  0
 33 24  1  0  0  0  0
M  END
>  <minimizedAffinity>
-5.3088522

$$$$

 OpenBabel03242518163D

 33 35  0  0  0  0  0  0  0  0999 V2000
   36.7160   30.5930   40.7950 C   0  0  0  0  0  0  0  0  0  0  0  0
   35.7280   29.6090   40.5650 C   0  0  0  0  0  0  0  0  0  0  0  0
   35.7550   28.4290   41.2220 C   0  0  0  0  0  0  0  0  0  0  0  0
   36.8210   28.2190   42.1540 C   0  0  0  0  0  0  0  0  0  0  0  0
   37.7990   29.7450   42.0810 S   0  0  0  0  0  0  0  0  0  0  0  0
   35.0260   29.9340   39.8530 H   0  0  0  0  0  0  0  0  0  0  0  0
   35.0080   27.6690   41.0570 H   0  0  0  0  0  0  0  0  0  0  0  0
   37.0100   31.9030   40.3330 C   0  0  0  0  0  0  0  0  0  0  0  0
   37.8520   32.3250   40.9270 H   0  0  0  0  0  0  0  0  0  0  0  0
   36.1430   32.5740   40.6250 H   0  0  0  0  0  0  0  0  0  0  0  0
   37.3010   32.0760   38.8990 C   0  0  0  0  0  0  0  0  0  0  0  0
   36.9340   31.2190   38.2930 H   0  0  0  0  0  0  0  0  0  0  0  0
   36.7250   32.9700   38.5280 H   0  0  0  0  0  0  0  0  0  0  0  0
   38.7130   32.3690   38.6780 C   0  0  0  0  0  0  0  0  0  0  0  0
   39.3870   31.7980   37.6220 C   0  0  0  0  0  0  0  0  0  0  0  0
   40.7420   32.1100   37.4540 C   0  0  0  0  0  0  0  0  0  0  0  0
   41.3040   32.9510   38.3390 N   0  0  0  0  0  0  0  0  0  0  0  0
   40.6100   33.4920   39.3650 C   0  0  0  0  0  0  0  0  0  0  0  0
   39.3450   33.2010   39.5200 N   0  0  0  0  0  0  0  0  0  0  0  0
   38.8420   31.1310   36.9640 H   0  0  0  0  0  0  0  0  0  0  0  0
   41.2300   31.6420   36.6170 H   0  0  0  0  0  0  0  0  0  0  0  0
   41.1970   34.1480   39.9900 H   0  0  0  0  0  0  0  0  0  0  0  0
   37.0400   27.1740   42.8840 O   0  0  0  0  0  0  0  0  0  0  0  0
   38.9820   25.7400   42.4570 C   0  0  0  0  0  0  0  0  0  0  0  0
   37.6340   26.0250   42.3830 C   0  0  0  0  0  0  0  0  0  0  0  0
   36.8090   25.1000   41.7660 C   0  0  0  0  0  0  0  0  0  0  0  0
   35.7380   25.2810   41.6840 H   0  0  0  0  0  0  0  0  0  0  0  0
   37.3110   23.9230   41.2360 C   0  0  0  0  0  0  0  0  0  0  0  0
   36.6370   23.2170   40.7580 H   0  0  0  0  0  0  0  0  0  0  0  0
   38.6580   23.6270   41.3050 C   0  0  0  0  0  3  0  0  0  0  0  0
   39.4580   24.5490   41.9150 C   0  0  0  0  0  3  0  0  0  0  0  0
   40.5490   27.4800   43.5950 N   0  0  0  0  0  0  0  0  0  0  0  0
   39.8470   26.6910   43.0900 C   0  0  0  0  0  0  0  0  0  0  0  0
  1  5  1  0  0  0  0
  2  1  2  0  0  0  0
  2  3  1  0  0  0  0
  3  4  2  0  0  0  0
  4 23  1  0  0  0  0
  5  4  1  0  0  0  0
  6  2  1  0  0  0  0
  7  3  1  0  0  0  0
  8 10  1  0  0  0  0
  8  1  1  0  0  0  0
  8  9  1  0  0  0  0
 11  8  1  0  0  0  0
 12 11  1  0  0  0  0
 13 11  1  0  0  0  0
 14 11  1  0  0  0  0
 14 19  1  0  0  0  0
 15 14  2  0  0  0  0
 16 15  1  0  0  0  0
 16 17  2  0  0  0  0
 17 18  1  0  0  0  0
 18 19  2  0  0  0  0
 18 22  1  0  0  0  0
 20 15  1  0  0  0  0
 21 16  1  0  0  0  0
 24 33  1  0  0  0  0
 25 24  1  0  0  0  0
 25 23  1  0  0  0  0
 26 25  2  0  0  0  0
 27 26  1  0  0  0  0
 28 30  2  0  0  0  0
 28 26  1  0  0  0  0
 29 28  1  0  0  0  0
 30 31  1  0  0  0  0
 31 24  2  0  0  0  0
 33 32  3  0  0  0  0
M  END
>  <minimizedAffinity>
-5.20789576

$$$$

 OpenBabel03242518163D

 33 35  0  0  0  0  0  0  0  0999 V2000
   39.4780   31.9760   38.2260 C   0  0  0  0  0  0  0  0  0  0  0  0
   38.0810   31.9910   38.0140 C   0  0  0  0  0  0  0  0  0  0  0  0
   37.2230   31.6690   39.0070 C   0  0  0  0  0  0  0  0  0  0  0  0
   37.7860   31.3150   40.2740 C   0  0  0  0  0  0  0  0  0  0  0  0
   39.5800   31.4460   40.0300 S   0  0  0  0  0  0  0  0  0  0  0  0
   37.8480   32.2740   37.0280 H   0  0  0  0  0  0  0  0  0  0  0  0
   36.1550   31.6770   38.8600 H   0  0  0  0  0  0  0  0  0  0  0  0
   40.6490   32.2510   37.4730 C   0  0  0  0  0  0  0  0  0  0  0  0
   41.2810   32.9850   38.0230 H   0  0  0  0  0  0  0  0  0  0  0  0
   40.3380   32.8370   36.5520 H   0  0  0  0  0  0  0  0  0  0  0  0
   41.4870   31.1090   37.0650 C   0  0  0  0  0  0  0  0  0  0  0  0
   41.3350   30.2260   37.7230 H   0  0  0  0  0  0  0  0  0  0  0  0
   41.1560   30.7770   36.0420 H   0  0  0  0  0  0  0  0  0  0  0  0
   42.8870   31.4980   36.9450 C   0  0  0  0  0  0  0  0  0  0  0  0
   43.7720   30.7100   36.2410 C   0  0  0  0  0  0  0  0  0  0  0  0
   45.1070   31.1270   36.1560 C   0  0  0  0  0  0  0  0  0  0  0  0
   45.4440   32.2740   36.7690 N   0  0  0  0  0  0  0  0  0  0  0  0
   44.5470   33.0210   37.4510 C   0  0  0  0  0  0  0  0  0  0  0  0
   43.3030   32.6320   37.5290 N   0  0  0  0  0  0  0  0  0  0  0  0
   43.3990   29.8020   35.7830 H   0  0  0  0  0  0  0  0  0  0  0  0
   45.7630   30.4820   35.5980 H   0  0  0  0  0  0  0  0  0  0  0  0
   44.9670   33.9140   37.8880 H   0  0  0  0  0  0  0  0  0  0  0  0
   37.1580   30.9770   41.3530 O   0  0  0  0  0  0  0  0  0  0  0  0
   36.3990   28.6570   41.5910 C   0  0  0  0  0  0  0  0  0  0  0  0
   37.2440   29.7040   41.8980 C   0  0  0  0  0  0  0  0  0  0  0  0
   38.2540   29.4730   42.8170 C   0  0  0  0  0  0  0  0  0  0  0  0
   38.9460   30.2690   43.0910 H   0  0  0  0  0  0  0  0  0  0  0  0
   38.4190   28.2350   43.4150 C   0  0  0  0  0  0  0  0  0  0  0  0
   39.2220   28.0860   44.1320 H   0  0  0  0  0  0  0  0  0  0  0  0
   37.5800   27.1800   43.1140 C   0  0  0  0  0  3  0  0  0  0  0  0
   36.5890   27.4240   42.2080 C   0  0  0  0  0  3  0  0  0  0  0  0
   34.4850   29.0500   39.8700 N   0  0  0  0  0  0  0  0  0  0  0  0
   35.3480   28.8840   40.6440 C   0  0  0  0  0  0  0  0  0  0  0  0
  1  5  1  0  0  0  0
  2  1  2  0  0  0  0
  2  3  1  0  0  0  0
  3  4  2  0  0  0  0
  4 23  1  0  0  0  0
  5  4  1  0  0  0  0
  6  2  1  0  0  0  0
  7  3  1  0  0  0  0
  8  9  1  0  0  0  0
  8  1  1  0  0  0  0
 10  8  1  0  0  0  0
 11  8  1  0  0  0  0
 11 12  1  0  0  0  0
 13 11  1  0  0  0  0
 14 11  1  0  0  0  0
 14 19  1  0  0  0  0
 15 14  2  0  0  0  0
 16 15  1  0  0  0  0
 16 17  2  0  0  0  0
 17 18  1  0  0  0  0
 18 19  2  0  0  0  0
 18 22  1  0  0  0  0
 20 15  1  0  0  0  0
 21 16  1  0  0  0  0
 23 25  1  0  0  0  0
 24 25  2  0  0  0  0
 24 31  1  0  0  0  0
 25 26  1  0  0  0  0
 26 27  1  0  0  0  0
 26 28  2  0  0  0  0
 28 29  1  0  0  0  0
 30 28  1  0  0  0  0
 31 30  2  0  0  0  0
 32 33  3  0  0  0  0
 33 24  1  0  0  0  0
M  END
>  <minimizedAffinity>
-5.10299253

$$$$

 OpenBabel03242518163D

 33 35  0  0  0  0  0  0  0  0999 V2000
   34.9370   29.2070   37.5120 C   0  0  0  0  0  0  0  0  0  0  0  0
   36.2190   29.7920   37.6110 C   0  0  0  0  0  0  0  0  0  0  0  0
   36.7460   30.1150   38.8130 C   0  0  0  0  0  0  0  0  0  0  0  0
   35.9530   29.8420   39.9730 C   0  0  0  0  0  0  0  0  0  0  0  0
   34.4260   29.1100   39.3220 S   0  0  0  0  0  0  0  0  0  0  0  0
   36.6540   29.9180   36.6620 H   0  0  0  0  0  0  0  0  0  0  0  0
   37.7230   30.5610   38.9030 H   0  0  0  0  0  0  0  0  0  0  0  0
   34.0830   28.7350   36.4800 C   0  0  0  0  0  0  0  0  0  0  0  0
   34.4190   27.7240   36.1540 H   0  0  0  0  0  0  0  0  0  0  0  0
   34.2740   29.3670   35.5580 H   0  0  0  0  0  0  0  0  0  0  0  0
   32.6350   28.6930   36.7530 C   0  0  0  0  0  0  0  0  0  0  0  0
   32.1840   27.7210   36.4580 H   0  0  0  0  0  0  0  0  0  0  0  0
   32.4850   28.7640   37.8670 H   0  0  0  0  0  0  0  0  0  0  0  0
   31.9550   29.8420   36.1670 C   0  0  0  0  0  0  0  0  0  0  0  0
   31.1110   30.6180   36.9310 C   0  0  0  0  0  0  0  0  0  0  0  0
   30.4790   31.7090   36.3200 C   0  0  0  0  0  0  0  0  0  0  0  0
   30.7370   31.9330   35.0200 N   0  0  0  0  0  0  0  0  0  0  0  0
   31.5710   31.1490   34.3020 C   0  0  0  0  0  0  0  0  0  0  0  0
   32.1600   30.1310   34.8730 N   0  0  0  0  0  0  0  0  0  0  0  0
   30.9710   30.3520   37.9720 H   0  0  0  0  0  0  0  0  0  0  0  0
   29.8290   32.2870   36.9530 H   0  0  0  0  0  0  0  0  0  0  0  0
   31.6770   31.4550   33.2720 H   0  0  0  0  0  0  0  0  0  0  0  0
   36.2570   30.0680   41.2100 O   0  0  0  0  0  0  0  0  0  0  0  0
   38.3530   29.4600   42.3270 C   0  0  0  0  0  0  0  0  0  0  0  0
   37.0500   29.2060   41.9530 C   0  0  0  0  0  0  0  0  0  0  0  0
   36.4870   28.0020   42.3440 C   0  0  0  0  0  0  0  0  0  0  0  0
   35.4610   27.7570   42.0720 H   0  0  0  0  0  0  0  0  0  0  0  0
   37.2010   27.0780   43.0880 C   0  0  0  0  0  0  0  0  0  0  0  0
   36.7300   26.1430   43.3800 H   0  0  0  0  0  0  0  0  0  0  0  0
   38.5060   27.3230   43.4690 C   0  0  0  0  0  3  0  0  0  0  0  0
   39.0470   28.5130   43.0740 C   0  0  0  0  0  3  0  0  0  0  0  0
   39.4260   31.7230   41.6110 N   0  0  0  0  0  0  0  0  0  0  0  0
   38.9490   30.7010   41.9250 C   0  0  0  0  0  0  0  0  0  0  0  0
  1  2  2  0  0  0  0
  1  5  1  0  0  0  0
  2  3  1  0  0  0  0
  3  7  1  0  0  0  0
  3  4  2  0  0  0  0
  4 23  1  0  0  0  0
  5  4  1  0  0  0  0
  6  2  1  0  0  0  0
  8 11  1  0  0  0  0
  8  1  1  0  0  0  0
  9  8  1  0  0  0  0
 10  8  1  0  0  0  0
 11 13  1  0  0  0  0
 12 11  1  0  0  0  0
 14 11  1  0  0  0  0
 14 15  1  0  0  0  0
 15 20  1  0  0  0  0
 16 15  2  0  0  0  0
 16 21  1  0  0  0  0
 17 16  1  0  0  0  0
 18 19  1  0  0  0  0
 18 17  2  0  0  0  0
 19 14  2  0  0  0  0
 22 18  1  0  0  0  0
 23 25  1  0  0  0  0
 24 31  1  0  0  0  0
 25 24  2  0  0  0  0
 25 26  1  0  0  0  0
 26 28  2  0  0  0  0
 27 26  1  0  0  0  0
 28 29  1  0  0  0  0
 28 30  1  0  0  0  0
 31 30  2  0  0  0  0
 32 33  3  0  0  0  0
 33 24  1  0  0  0  0
M  END
>  <minimizedAffinity>
-5.08844709

$$$$

 OpenBabel03242518163D

 33 35  0  0  0  0  0  0  0  0999 V2000
   38.0870   29.2660   42.8910 C   0  0  0  0  0  0  0  0  0  0  0  0
   39.2710   30.0350   42.8390 C   0  0  0  0  0  0  0  0  0  0  0  0
   39.4140   31.0330   41.9390 C   0  0  0  0  0  0  0  0  0  0  0  0
   38.3220   31.2750   41.0470 C   0  0  0  0  0  0  0  0  0  0  0  0
   37.0700   30.0450   41.5100 S   0  0  0  0  0  0  0  0  0  0  0  0
   39.9620   29.7190   43.5660 H   0  0  0  0  0  0  0  0  0  0  0  0
   40.3110   31.6270   41.8890 H   0  0  0  0  0  0  0  0  0  0  0  0
   37.5740   28.1910   43.6650 C   0  0  0  0  0  0  0  0  0  0  0  0
   37.0590   28.5950   44.5660 H   0  0  0  0  0  0  0  0  0  0  0  0
   38.4570   27.6370   44.1140 H   0  0  0  0  0  0  0  0  0  0  0  0
   36.6810   27.2280   42.9950 C   0  0  0  0  0  0  0  0  0  0  0  0
   35.9960   26.7280   43.7130 H   0  0  0  0  0  0  0  0  0  0  0  0
   36.0110   27.7990   42.2940 H   0  0  0  0  0  0  0  0  0  0  0  0
   37.4380   26.2880   42.1760 C   0  0  0  0  0  0  0  0  0  0  0  0
   37.0730   26.0510   40.8700 C   0  0  0  0  0  0  0  0  0  0  0  0
   37.8310   25.1380   40.1250 C   0  0  0  0  0  0  0  0  0  0  0  0
   38.8730   24.5470   40.7350 N   0  0  0  0  0  0  0  0  0  0  0  0
   39.2010   24.8050   42.0200 C   0  0  0  0  0  0  0  0  0  0  0  0
   38.4930   25.6570   42.7130 N   0  0  0  0  0  0  0  0  0  0  0  0
   36.2150   26.5800   40.4710 H   0  0  0  0  0  0  0  0  0  0  0  0
   37.5110   24.9830   39.1100 H   0  0  0  0  0  0  0  0  0  0  0  0
   40.0610   24.2540   42.3690 H   0  0  0  0  0  0  0  0  0  0  0  0
   38.2430   32.1700   40.1160 O   0  0  0  0  0  0  0  0  0  0  0  0
   39.6500   31.7790   38.1470 C   0  0  0  0  0  0  0  0  0  0  0  0
   39.3110   32.4790   39.2860 C   0  0  0  0  0  0  0  0  0  0  0  0
   40.0910   33.5700   39.6320 C   0  0  0  0  0  0  0  0  0  0  0  0
   39.8620   34.1530   40.5240 H   0  0  0  0  0  0  0  0  0  0  0  0
   41.1770   33.9550   38.8660 C   0  0  0  0  0  0  0  0  0  0  0  0
   41.7690   34.8160   39.1640 H   0  0  0  0  0  0  0  0  0  0  0  0
   41.5250   33.2620   37.7220 C   0  0  0  0  0  3  0  0  0  0  0  0
   40.7480   32.1890   37.3950 C   0  0  0  0  0  3  0  0  0  0  0  0
   38.2180   29.7120   37.4710 N   0  0  0  0  0  0  0  0  0  0  0  0
   38.8530   30.6450   37.7790 C   0  0  0  0  0  0  0  0  0  0  0  0
  1  8  1  0  0  0  0
  2  1  2  0  0  0  0
  2  6  1  0  0  0  0
  3  2  1  0  0  0  0
  4  5  1  0  0  0  0
  4  3  2  0  0  0  0
  5  1  1  0  0  0  0
  7  3  1  0  0  0  0
  8 10  1  0  0  0  0
  8  9  1  0  0  0  0
 11  8  1  0  0  0  0
 11 12  1  0  0  0  0
 13 11  1  0  0  0  0
 14 19  1  0  0  0  0
 14 11  1  0  0  0  0
 15 14  2  0  0  0  0
 16 17  2  0  0  0  0
 16 15  1  0  0  0  0
 17 18  1  0  0  0  0
 18 22  1  0  0  0  0
 18 19  2  0  0  0  0
 20 15  1  0  0  0  0
 21 16  1  0  0  0  0
 23  4  1  0  0  0  0
 24 25  1  0  0  0  0
 25 26  2  0  0  0  0
 25 23  1  0  0  0  0
 26 27  1  0  0  0  0
 28 29  1  0  0  0  0
 28 26  1  0  0  0  0
 30 28  2  0  0  0  0
 31 30  1  0  0  0  0
 31 24  2  0  0  0  0
 32 33  3  0  0  0  0
 33 24  1  0  0  0  0
M  END
>  <minimizedAffinity>
-4.9843626

$$$$

 OpenBabel03242518163D

 33 35  0  0  0  0  0  0  0  0999 V2000
   35.7830   28.7040   37.9470 C   0  0  0  0  0  0  0  0  0  0  0  0
   35.7320   28.6740   36.5350 C   0  0  0  0  0  0  0  0  0  0  0  0
   34.5540   28.7510   35.8790 C   0  0  0  0  0  0  0  0  0  0  0  0
   33.3660   28.8640   36.6700 C   0  0  0  0  0  0  0  0  0  0  0  0
   33.9580   28.8570   38.3860 S   0  0  0  0  0  0  0  0  0  0  0  0
   36.6950   28.5880   36.1220 H   0  0  0  0  0  0  0  0  0  0  0  0
   34.5000   28.7290   34.8030 H   0  0  0  0  0  0  0  0  0  0  0  0
   36.7810   28.6630   38.9560 C   0  0  0  0  0  0  0  0  0  0  0  0
   36.8150   29.6430   39.4850 H   0  0  0  0  0  0  0  0  0  0  0  0
   37.7910   28.6270   38.4400 H   0  0  0  0  0  0  0  0  0  0  0  0
   36.7030   27.5820   39.9550 C   0  0  0  0  0  0  0  0  0  0  0  0
   35.7000   27.1040   39.9730 H   0  0  0  0  0  0  0  0  0  0  0  0
   37.4150   26.7660   39.6460 H   0  0  0  0  0  0  0  0  0  0  0  0
   37.1410   28.0430   41.2670 C   0  0  0  0  0  0  0  0  0  0  0  0
   36.7720   27.3600   42.4050 C   0  0  0  0  0  0  0  0  0  0  0  0
   37.2180   27.8450   43.6420 C   0  0  0  0  0  0  0  0  0  0  0  0
   37.9810   28.9510   43.6410 N   0  0  0  0  0  0  0  0  0  0  0  0
   38.3230   29.5950   42.5030 C   0  0  0  0  0  0  0  0  0  0  0  0
   37.9070   29.1410   41.3500 N   0  0  0  0  0  0  0  0  0  0  0  0
   36.1530   26.4770   42.2970 H   0  0  0  0  0  0  0  0  0  0  0  0
   36.9060   27.2810   44.5040 H   0  0  0  0  0  0  0  0  0  0  0  0
   38.9390   30.4660   42.6640 H   0  0  0  0  0  0  0  0  0  0  0  0
   32.1450   28.9500   36.2560 O   0  0  0  0  0  0  0  0  0  0  0  0
   30.7050   30.8690   36.7660 C   0  0  0  0  0  0  0  0  0  0  0  0
   31.5490   30.1620   35.9350 C   0  0  0  0  0  0  0  0  0  0  0  0
   31.8260   30.6950   34.6870 C   0  0  0  0  0  0  0  0  0  0  0  0
   32.4860   30.1720   33.9960 H   0  0  0  0  0  0  0  0  0  0  0  0
   31.2780   31.8980   34.2770 C   0  0  0  0  0  0  0  0  0  0  0  0
   31.5150   32.2910   33.2920 H   0  0  0  0  0  0  0  0  0  0  0  0
   30.4330   32.6150   35.1020 C   0  0  0  0  0  3  0  0  0  0  0  0
   30.1690   32.0760   36.3280 C   0  0  0  0  0  3  0  0  0  0  0  0
   30.1840   29.8870   39.1210 N   0  0  0  0  0  0  0  0  0  0  0  0
   30.4090   30.3260   38.0600 C   0  0  0  0  0  0  0  0  0  0  0  0
  1  5  1  0  0  0  0
  1  8  1  0  0  0  0
  2  1  2  0  0  0  0
  3  2  1  0  0  0  0
  3  4  2  0  0  0  0
  4  5  1  0  0  0  0
  6  2  1  0  0  0  0
  7  3  1  0  0  0  0
  8  9  1  0  0  0  0
  8 11  1  0  0  0  0
 10  8  1  0  0  0  0
 11 12  1  0  0  0  0
 11 14  1  0  0  0  0
 13 11  1  0  0  0  0
 14 19  2  0  0  0  0
 14 15  1  0  0  0  0
 15 16  2  0  0  0  0
 16 21  1  0  0  0  0
 17 16  1  0  0  0  0
 18 22  1  0  0  0  0
 18 17  2  0  0  0  0
 19 18  1  0  0  0  0
 20 15  1  0  0  0  0
 23  4  1  0  0  0  0
 24 33  1  0  0  0  0
 25 23  1  0  0  0  0
 25 24  2  0  0  0  0
 26 25  1  0  0  0  0
 27 26  1  0  0  0  0
 28 26  2  0  0  0  0
 28 30  1  0  0  0  0
 29 28  1  0  0  0  0
 30 31  2  0  0  0  0
 31 24  1  0  0  0  0
 33 32  3  0  0  0  0
M  END
>  <minimizedAffinity>
-4.96852589

$$$$

 OpenBabel03242518163D

 33 35  0  0  0  0  0  0  0  0999 V2000
   36.9010   30.6700   39.5630 C   0  0  0  0  0  0  0  0  0  0  0  0
   36.9420   29.4060   38.9350 C   0  0  0  0  0  0  0  0  0  0  0  0
   36.8480   28.2670   39.6550 C   0  0  0  0  0  0  0  0  0  0  0  0
   36.7070   28.3950   41.0740 C   0  0  0  0  0  0  0  0  0  0  0  0
   36.7110   30.1850   41.3730 S   0  0  0  0  0  0  0  0  0  0  0  0
   37.0490   29.5020   37.8930 H   0  0  0  0  0  0  0  0  0  0  0  0
   36.8780   27.2950   39.1890 H   0  0  0  0  0  0  0  0  0  0  0  0
   36.9540   32.0330   39.1690 C   0  0  0  0  0  0  0  0  0  0  0  0
   35.9180   32.4300   39.0680 H   0  0  0  0  0  0  0  0  0  0  0  0
   37.3350   32.0690   38.1010 H   0  0  0  0  0  0  0  0  0  0  0  0
   37.7430   32.9590   40.0010 C   0  0  0  0  0  0  0  0  0  0  0  0
   37.5250   34.0220   39.7620 H   0  0  0  0  0  0  0  0  0  0  0  0
   37.4260   32.8250   41.0730 H   0  0  0  0  0  0  0  0  0  0  0  0
   39.1640   32.6390   39.9440 C   0  0  0  0  0  0  0  0  0  0  0  0
   39.8150   32.5680   38.7320 C   0  0  0  0  0  0  0  0  0  0  0  0
   41.1810   32.2550   38.7300 C   0  0  0  0  0  0  0  0  0  0  0  0
   41.7740   32.0420   39.9170 N   0  0  0  0  0  0  0  0  0  0  0  0
   41.1030   32.1200   41.0870 C   0  0  0  0  0  0  0  0  0  0  0  0
   39.8290   32.4120   41.0870 N   0  0  0  0  0  0  0  0  0  0  0  0
   39.2440   32.7570   37.8300 H   0  0  0  0  0  0  0  0  0  0  0  0
   41.6490   32.2100   37.7620 H   0  0  0  0  0  0  0  0  0  0  0  0
   41.7150   31.9240   41.9540 H   0  0  0  0  0  0  0  0  0  0  0  0
   36.6010   27.4480   41.9480 O   0  0  0  0  0  0  0  0  0  0  0  0
   37.9230   25.3910   42.1230 C   0  0  0  0  0  0  0  0  0  0  0  0
   37.6940   26.7230   42.3990 C   0  0  0  0  0  0  0  0  0  0  0  0
   38.6200   27.3900   43.1830 C   0  0  0  0  0  0  0  0  0  0  0  0
   38.4810   28.4430   43.4280 H   0  0  0  0  0  0  0  0  0  0  0  0
   39.7430   26.7510   43.6800 C   0  0  0  0  0  0  0  0  0  0  0  0
   40.4510   27.3020   44.2920 H   0  0  0  0  0  0  0  0  0  0  0  0
   39.9820   25.4170   43.4090 C   0  0  0  0  0  3  0  0  0  0  0  0
   39.0600   24.7730   42.6360 C   0  0  0  0  0  3  0  0  0  0  0  0
   36.1940   24.0980   40.6670 N   0  0  0  0  0  0  0  0  0  0  0  0
   36.9710   24.6870   41.3150 C   0  0  0  0  0  0  0  0  0  0  0  0
  1  5  1  0  0  0  0
  2  1  2  0  0  0  0
  2  3  1  0  0  0  0
  3  4  2  0  0  0  0
  4  5  1  0  0  0  0
  4 23  1  0  0  0  0
  6  2  1  0  0  0  0
  7  3  1  0  0  0  0
  8  1  1  0  0  0  0
  8 11  1  0  0  0  0
  9  8  1  0  0  0  0
 10  8  1  0  0  0  0
 11 13  1  0  0  0  0
 12 11  1  0  0  0  0
 14 11  1  0  0  0  0
 14 19  1  0  0  0  0
 15 14  2  0  0  0  0
 16 15  1  0  0  0  0
 16 17  2  0  0  0  0
 17 18  1  0  0  0  0
 18 19  2  0  0  0  0
 18 22  1  0  0  0  0
 20 15  1  0  0  0  0
 21 16  1  0  0  0  0
 23 25  1  0  0  0  0
 24 25  2  0  0  0  0
 24 31  1  0  0  0  0
 25 26  1  0  0  0  0
 26 27  1  0  0  0  0
 26 28  2  0  0  0  0
 28 29  1  0  0  0  0
 30 28  1  0  0  0  0
 31 30  2  0  0  0  0
 32 33  3  0  0  0  0
 33 24  1  0  0  0  0
M  END
>  <minimizedAffinity>
-4.96424055

$$$$

 OpenBabel03242518163D

 33 35  0  0  0  0  0  0  0  0999 V2000
   36.7150   28.3620   42.0290 C   0  0  0  0  0  0  0  0  0  0  0  0
   35.7230   28.6520   41.0660 C   0  0  0  0  0  0  0  0  0  0  0  0
   35.7130   29.8350   40.4130 C   0  0  0  0  0  0  0  0  0  0  0  0
   36.7420   30.7750   40.7370 C   0  0  0  0  0  0  0  0  0  0  0  0
   37.7400   29.9420   42.0030 S   0  0  0  0  0  0  0  0  0  0  0  0
   35.0520   27.8500   40.9570 H   0  0  0  0  0  0  0  0  0  0  0  0
   34.9620   30.0700   39.6760 H   0  0  0  0  0  0  0  0  0  0  0  0
   37.0570   27.2770   42.8800 C   0  0  0  0  0  0  0  0  0  0  0  0
   36.3000   27.1900   43.6920 H   0  0  0  0  0  0  0  0  0  0  0  0
   37.9960   27.5680   43.4490 H   0  0  0  0  0  0  0  0  0  0  0  0
   37.2510   25.9540   42.2610 C   0  0  0  0  0  0  0  0  0  0  0  0
   36.7010   25.1560   42.8040 H   0  0  0  0  0  0  0  0  0  0  0  0
   36.7980   25.9780   41.2300 H   0  0  0  0  0  0  0  0  0  0  0  0
   38.6680   25.6550   42.0860 C   0  0  0  0  0  0  0  0  0  0  0  0
   39.2210   25.6130   40.8250 C   0  0  0  0  0  0  0  0  0  0  0  0
   40.5860   25.3190   40.7100 C   0  0  0  0  0  0  0  0  0  0  0  0
   41.2750   25.0970   41.8420 N   0  0  0  0  0  0  0  0  0  0  0  0
   40.6970   25.1480   43.0630 C   0  0  0  0  0  0  0  0  0  0  0  0
   39.4240   25.4210   43.1690 N   0  0  0  0  0  0  0  0  0  0  0  0
   38.5780   25.8070   39.9740 H   0  0  0  0  0  0  0  0  0  0  0  0
   40.9770   25.2960   39.7080 H   0  0  0  0  0  0  0  0  0  0  0  0
   41.3790   24.9470   43.8760 H   0  0  0  0  0  0  0  0  0  0  0  0
   36.9220   31.9550   40.2390 O   0  0  0  0  0  0  0  0  0  0  0  0
   38.8170   32.0720   38.6870 C   0  0  0  0  0  0  0  0  0  0  0  0
   38.1710   32.4210   39.8560 C   0  0  0  0  0  0  0  0  0  0  0  0
   38.8120   33.3000   40.7130 C   0  0  0  0  0  0  0  0  0  0  0  0
   38.3420   33.6040   41.6470 H   0  0  0  0  0  0  0  0  0  0  0  0
   40.0610   33.8180   40.4150 C   0  0  0  0  0  0  0  0  0  0  0  0
   40.5380   34.5070   41.1080 H   0  0  0  0  0  0  0  0  0  0  0  0
   40.7160   33.4770   39.2480 C   0  0  0  0  0  3  0  0  0  0  0  0
   40.0720   32.6090   38.4150 C   0  0  0  0  0  3  0  0  0  0  0  0
   37.6440   30.4230   37.0490 N   0  0  0  0  0  0  0  0  0  0  0  0
   38.1650   31.1610   37.7930 C   0  0  0  0  0  0  0  0  0  0  0  0
  1  8  1  0  0  0  0
  2  1  2  0  0  0  0
  3  4  2  0  0  0  0
  3  2  1  0  0  0  0
  4  5  1  0  0  0  0
  5  1  1  0  0  0  0
  6  2  1  0  0  0  0
  7  3  1  0  0  0  0
  8 10  1  0  0  0  0
  8  9  1  0  0  0  0
 11 12  1  0  0  0  0
 11  8  1  0  0  0  0
 13 11  1  0  0  0  0
 14 11  1  0  0  0  0
 14 19  1  0  0  0  0
 15 14  2  0  0  0  0
 16 15  1  0  0  0  0
 16 17  2  0  0  0  0
 17 18  1  0  0  0  0
 18 19  2  0  0  0  0
 18 22  1  0  0  0  0
 20 15  1  0  0  0  0
 21 16  1  0  0  0  0
 23  4  1  0  0  0  0
 24 25  1  0  0  0  0
 25 23  1  0  0  0  0
 25 26  2  0  0  0  0
 26 27  1  0  0  0  0
 28 26  1  0  0  0  0
 28 29  1  0  0  0  0
 30 28  2  0  0  0  0
 31 24  2  0  0  0  0
 31 30  1  0  0  0  0
 32 33  3  0  0  0  0
 33 24  1  0  0  0  0
M  END
>  <minimizedAffinity>
-4.89989328

$$$$

 OpenBabel03242518163D

 33 35  0  0  0  0  0  0  0  0999 V2000
   34.3870   28.8490   36.5880 C   0  0  0  0  0  0  0  0  0  0  0  0
   34.0070   28.9340   37.9460 C   0  0  0  0  0  0  0  0  0  0  0  0
   34.8780   28.6290   38.9330 C   0  0  0  0  0  0  0  0  0  0  0  0
   36.1940   28.2190   38.5460 C   0  0  0  0  0  0  0  0  0  0  0  0
   36.1740   28.2720   36.7320 S   0  0  0  0  0  0  0  0  0  0  0  0
   33.0090   29.2510   38.0420 H   0  0  0  0  0  0  0  0  0  0  0  0
   34.6010   28.6890   39.9730 H   0  0  0  0  0  0  0  0  0  0  0  0
   33.7910   29.0880   35.3210 C   0  0  0  0  0  0  0  0  0  0  0  0
   34.2760   28.4400   34.5550 H   0  0  0  0  0  0  0  0  0  0  0  0
   34.0940   30.1290   34.9880 H   0  0  0  0  0  0  0  0  0  0  0  0
   32.3280   28.9450   35.2130 C   0  0  0  0  0  0  0  0  0  0  0  0
   32.0320   28.3770   34.3050 H   0  0  0  0  0  0  0  0  0  0  0  0
   31.9710   28.3240   36.0810 H   0  0  0  0  0  0  0  0  0  0  0  0
   31.6630   30.2380   35.3230 C   0  0  0  0  0  0  0  0  0  0  0  0
   30.9970   30.5840   36.4780 C   0  0  0  0  0  0  0  0  0  0  0  0
   30.3720   31.8360   36.5330 C   0  0  0  0  0  0  0  0  0  0  0  0
   30.4610   32.6270   35.4500 N   0  0  0  0  0  0  0  0  0  0  0  0
   31.1240   32.2530   34.3330 C   0  0  0  0  0  0  0  0  0  0  0  0
   31.7060   31.0850   34.2830 N   0  0  0  0  0  0  0  0  0  0  0  0
   30.9840   29.8730   37.2960 H   0  0  0  0  0  0  0  0  0  0  0  0
   29.8640   32.0650   37.4530 H   0  0  0  0  0  0  0  0  0  0  0  0
   31.1080   32.9950   33.5480 H   0  0  0  0  0  0  0  0  0  0  0  0
   37.1770   27.8840   39.3160 O   0  0  0  0  0  0  0  0  0  0  0  0
   37.1310   27.0610   41.6250 C   0  0  0  0  0  0  0  0  0  0  0  0
   37.0740   26.8730   40.2600 C   0  0  0  0  0  0  0  0  0  0  0  0
   36.9030   25.5810   39.7910 C   0  0  0  0  0  0  0  0  0  0  0  0
   36.8520   25.3820   38.7210 H   0  0  0  0  0  0  0  0  0  0  0  0
   36.7910   24.5060   40.6570 C   0  0  0  0  0  0  0  0  0  0  0  0
   36.6560   23.5040   40.2580 H   0  0  0  0  0  0  0  0  0  0  0  0
   36.8450   24.6840   42.0260 C   0  0  0  0  0  3  0  0  0  0  0  0
   37.0160   25.9630   42.4720 C   0  0  0  0  0  3  0  0  0  0  0  0
   37.4400   29.4840   42.5270 N   0  0  0  0  0  0  0  0  0  0  0  0
   37.3120   28.3940   42.1230 C   0  0  0  0  0  0  0  0  0  0  0  0
  1  5  1  0  0  0  0
  1  2  2  0  0  0  0
  2  6  1  0  0  0  0
  2  3  1  0  0  0  0
  3  7  1  0  0  0  0
  4  3  2  0  0  0  0
  4 23  1  0  0  0  0
  5  4  1  0  0  0  0
  8  1  1  0  0  0  0
  9  8  1  0  0  0  0
 10  8  1  0  0  0  0
 11  8  1  0  0  0  0
 11 14  1  0  0  0  0
 11 13  1  0  0  0  0
 12 11  1  0  0  0  0
 14 15  1  0  0  0  0
 15 16  2  0  0  0  0
 15 20  1  0  0  0  0
 16 21  1  0  0  0  0
 17 16  1  0  0  0  0
 18 17  2  0  0  0  0
 19 18  1  0  0  0  0
 19 14  2  0  0  0  0
 22 18  1  0  0  0  0
 23 25  1  0  0  0  0
 24 33  1  0  0  0  0
 24 31  1  0  0  0  0
 25 24  2  0  0  0  0
 26 25  1  0  0  0  0
 26 28  2  0  0  0  0
 27 26  1  0  0  0  0
 28 30  1  0  0  0  0
 29 28  1  0  0  0  0
 30 31  2  0  0  0  0
 33 32  3  0  0  0  0
M  END
>  <minimizedAffinity>
-4.86914206

$$$$
