
 OpenBabel03252509233D

 28 30  0  0  1  0  0  0  0  0999 V2000
   46.5320   35.0770   41.9470 C   0  0  1  0  0  0  0  0  0  0  0  0
   48.0740   35.2150   41.9080 C   0  0  0  0  0  0  0  0  0  0  0  0
   47.2550   34.0510   41.2900 C   0  0  2  0  0  0  0  0  0  0  0  0
   46.0050   35.9030   41.4420 H   0  0  0  0  0  0  0  0  0  0  0  0
   48.6610   34.9950   42.7920 H   0  0  0  0  0  0  0  0  0  0  0  0
   48.4230   35.9880   41.2000 H   0  0  0  0  0  0  0  0  0  0  0  0
   47.4550   33.0720   41.7730 H   0  0  0  0  0  0  0  0  0  0  0  0
   44.6660   35.3770   45.1930 C   0  0  0  0  0  0  0  0  0  0  0  0
   45.1170   35.6980   43.8870 C   0  0  0  0  0  0  0  0  0  0  0  0
   46.0620   34.8520   43.3710 C   0  0  0  0  0  0  0  0  0  0  0  0
   46.5380   33.7670   44.0820 N   0  0  0  0  0  0  0  0  0  0  0  0
   46.0830   33.5000   45.3200 C   0  0  0  0  0  0  0  0  0  0  0  0
   45.1430   34.3050   45.8790 N   0  0  0  0  0  0  0  0  0  0  0  0
   43.9160   36.0420   45.6090 H   0  0  0  0  0  0  0  0  0  0  0  0
   46.4300   32.6630   45.9060 H   0  0  0  0  0  0  0  0  0  0  0  0
   44.6470   36.8340   43.1660 N   0  0  0  0  0  0  0  0  0  0  0  0
   43.8440   36.9420   42.5380 H   0  0  0  0  0  0  0  0  0  0  0  0
   45.3330   37.5830   43.4260 H   0  0  0  0  0  0  0  0  0  0  0  0
   46.3190   33.2360   39.1100 C   0  0  0  0  0  0  0  0  0  0  0  0
   47.2880   33.9340   39.8040 C   0  0  0  0  0  0  0  0  0  0  0  0
   48.3430   34.5590   39.1370 C   0  0  0  0  0  0  0  0  0  0  0  0
   49.1310   35.1210   39.6460 H   0  0  0  0  0  0  0  0  0  0  0  0
   48.4130   34.4750   37.7460 C   0  0  0  0  0  0  0  0  0  0  0  0
   49.2280   34.9560   37.1960 H   0  0  0  0  0  0  0  0  0  0  0  0
   47.4330   33.7720   37.0730 C   0  0  0  0  0  3  0  0  0  0  0  0
   46.3780   33.1450   37.7180 C   0  0  0  0  0  3  0  0  0  0  0  0
   44.3720   32.0800   40.3800 N   0  0  0  0  0  0  0  0  0  0  0  0
   45.2460   32.6020   39.8120 C   0  0  0  0  0  0  0  0  0  0  0  0
  1  4  1  6  0  0  0
  1 10  1  0  0  0  0
  2  1  1  0  0  0  0
  2  5  1  0  0  0  0
  3  7  1  1  0  0  0
  3  2  1  0  0  0  0
  3  1  1  0  0  0  0
  6  2  1  0  0  0  0
  8 14  1  0  0  0  0
  8 13  1  0  0  0  0
  9  8  2  0  0  0  0
 10  9  1  0  0  0  0
 10 11  2  0  0  0  0
 11 12  1  0  0  0  0
 12 13  2  0  0  0  0
 12 15  1  0  0  0  0
 16 18  1  0  0  0  0
 16  9  1  0  0  0  0
 17 16  1  0  0  0  0
 19 20  1  0  0  0  0
 19 28  1  0  0  0  0
 20  3  1  0  0  0  0
 21 22  1  0  0  0  0
 21 20  2  0  0  0  0
 23 21  1  0  0  0  0
 24 23  1  0  0  0  0
 25 26  1  0  0  0  0
 25 23  2  0  0  0  0
 26 19  2  0  0  0  0
 28 27  3  0  0  0  0
M  END
>  <minimizedAffinity>
-5.4173646

>  <minimizedRMSD>
1.19877255

$$$$
