
 OpenBabel03252508023D

 43 46  0  0  1  0  0  0  0  0999 V2000
   42.0400   33.2740   41.1320 C   0  0  0  0  0  0  0  0  0  0  0  0
   42.8040   34.3930   41.3060 C   0  0  0  0  0  0  0  0  0  0  0  0
   42.1590   35.6460   41.2530 C   0  0  0  0  0  0  0  0  0  0  0  0
   40.8100   35.7930   41.0360 C   0  0  0  0  0  0  0  0  0  0  0  0
   40.0500   34.6640   40.8630 C   0  0  0  0  0  0  0  0  0  0  0  0
   40.6680   33.4500   40.9130 C   0  0  0  0  0  0  0  0  0  0  0  0
   42.6790   36.5870   41.3690 H   0  0  0  0  0  0  0  0  0  0  0  0
   40.3250   36.7320   40.9960 H   0  0  0  0  0  0  0  0  0  0  0  0
   39.0040   34.7010   40.6930 H   0  0  0  0  0  0  0  0  0  0  0  0
   40.0500   32.5480   40.7730 H   0  0  0  0  0  0  0  0  0  0  0  0
   42.6640   31.7170   41.2710 S   0  0  0  0  0  0  0  0  0  0  0  0
   41.5030   30.8940   40.6290 O   0  0  0  0  0  0  0  0  0  0  0  0
   42.7890   31.2590   42.6740 O   0  0  0  0  0  0  0  0  0  0  0  0
   43.7810   29.4660   40.5340 C   0  0  0  0  0  0  0  0  0  0  0  0
   43.7090   30.8610   40.2650 C   0  0  0  0  0  0  0  0  0  0  0  0
   44.4990   31.1800   39.1630 C   0  0  0  0  0  0  0  0  0  0  0  0
   44.3890   32.2590   38.9430 H   0  0  0  0  0  0  0  0  0  0  0  0
   45.2920   30.4120   38.3420 C   0  0  0  0  0  0  0  0  0  0  0  0
   45.8180   30.8920   37.5400 H   0  0  0  0  0  0  0  0  0  0  0  0
   45.2390   29.1260   38.7450 C   0  0  0  0  0  3  0  0  0  0  0  0
   44.5340   28.5930   39.7890 C   0  0  0  0  0  3  0  0  0  0  0  0
   42.4970   28.3470   42.5220 N   0  0  0  0  0  0  0  0  0  0  0  0
   43.0560   28.8470   41.6390 C   0  0  0  0  0  0  0  0  0  0  0  0
   44.2360   34.3450   41.5420 C   0  0  0  0  0  0  0  0  0  0  0  0
   45.1080   34.2350   40.6280 O   0  0  0  0  0  0  0  0  0  0  0  0
   44.5850   34.4380   42.9370 C   0  0  0  0  0  0  0  0  0  0  0  0
   44.3030   35.7010   43.5630 C   0  0  0  0  0  0  0  0  0  0  0  0
   44.6250   35.8140   44.9070 C   0  0  0  0  0  0  0  0  0  0  0  0
   45.1760   34.7430   45.5350 N   0  0  0  0  0  0  0  0  0  0  0  0
   45.4230   33.5590   44.8890 C   0  0  0  0  0  0  0  0  0  0  0  0
   45.1270   33.4470   43.6390 N   0  0  0  0  0  0  0  0  0  0  0  0
   43.8760   36.5830   43.1410 H   0  0  0  0  0  0  0  0  0  0  0  0
   44.4630   36.6990   45.4780 H   0  0  0  0  0  0  0  0  0  0  0  0
   46.0150   32.4440   45.6580 C   0  0  1  0  0  0  0  0  0  0  0  0
   46.9660   32.7570   46.7890 C   0  0  0  0  0  0  0  0  0  0  0  0
   45.5510   32.3440   47.0590 C   0  0  1  0  0  0  0  0  0  0  0  0
   46.1320   31.4930   45.1150 H   0  0  0  0  0  0  0  0  0  0  0  0
   47.2990   33.8030   46.8640 H   0  0  0  0  0  0  0  0  0  0  0  0
   47.7650   31.9890   46.9880 H   0  0  0  0  0  0  0  0  0  0  0  0
   45.4120   31.3600   47.5500 H   0  0  0  0  0  0  0  0  0  0  0  0
   44.7610   33.4100   47.6480 N   0  0  0  0  0  0  0  0  0  0  0  0
   45.2760   33.8500   48.4360 H   0  0  0  0  0  0  0  0  0  0  0  0
   43.8600   32.9840   48.0000 H   0  0  0  0  0  0  0  0  0  0  0  0
  1 11  1  0  0  0  0
  1  2  1  0  0  0  0
  2 24  1  0  0  0  0
  3  2  2  0  0  0  0
  3  7  1  0  0  0  0
  4  3  1  0  0  0  0
  5  6  1  0  0  0  0
  5  4  2  0  0  0  0
  6  1  2  0  0  0  0
  8  4  1  0  0  0  0
  9  5  1  0  0  0  0
 10  6  1  0  0  0  0
 11 13  2  0  0  0  0
 12 11  2  0  0  0  0
 14 23  1  0  0  0  0
 15 14  1  0  0  0  0
 15 11  1  0  0  0  0
 16 15  2  0  0  0  0
 17 16  1  0  0  0  0
 18 20  2  0  0  0  0
 18 16  1  0  0  0  0
 19 18  1  0  0  0  0
 20 21  1  0  0  0  0
 21 14  2  0  0  0  0
 23 22  3  0  0  0  0
 24 26  1  0  0  0  0
 25 24  2  0  0  0  0
 26 27  2  0  0  0  0
 26 31  1  0  0  0  0
 27 28  1  0  0  0  0
 28 33  1  0  0  0  0
 28 29  2  0  0  0  0
 30 29  1  0  0  0  0
 30 34  1  0  0  0  0
 31 30  2  0  0  0  0
 32 27  1  0  0  0  0
 34 37  1  6  0  0  0
 34 35  1  0  0  0  0
 34 36  1  0  0  0  0
 35 38  1  0  0  0  0
 35 39  1  0  0  0  0
 35 36  1  0  0  0  0
 36 40  1  1  0  0  0
 36 41  1  0  0  0  0
 41 43  1  0  0  0  0
 41 42  1  0  0  0  0
M  END
>  <minimizedAffinity>
-5.52961254

>  <minimizedRMSD>
1.43755698

$$$$
