
 OpenBabel03252504473D

 28 29  0  0  0  0  0  0  0  0999 V2000
   45.1910   31.4120   49.5260 O   0  0  0  0  0  0  0  0  0  0  0  0
   45.7860   31.0590   48.1570 P   0  0  1  0  0  0  0  0  0  0  0  0
   44.4880   30.3540   47.2980 O   0  0  0  0  0  0  0  0  0  0  0  0
   44.7590   29.5940   46.7540 H   0  0  0  0  0  0  0  0  0  0  0  0
   46.2710   32.5220   47.4530 O   0  0  0  0  0  0  0  0  0  0  0  0
   45.0920   34.5250   44.6990 C   0  0  0  0  0  0  0  0  0  0  0  0
   45.2020   33.6340   43.6410 C   0  0  0  0  0  0  0  0  0  0  0  0
   45.6860   32.3580   43.9270 C   0  0  0  0  0  0  0  0  0  0  0  0
   46.0210   32.0550   45.1970 N   0  0  0  0  0  0  0  0  0  0  0  0
   45.8910   32.9720   46.2000 C   0  0  0  0  0  0  0  0  0  0  0  0
   45.4240   34.2210   45.9570 N   0  0  0  0  0  0  0  0  0  0  0  0
   44.9240   33.9190   42.6430 H   0  0  0  0  0  0  0  0  0  0  0  0
   45.7760   31.6590   43.1180 H   0  0  0  0  0  0  0  0  0  0  0  0
   44.5720   35.9030   44.3780 C   0  0  0  0  0  0  0  0  0  0  0  0
   43.7890   35.8350   43.5980 H   0  0  0  0  0  0  0  0  0  0  0  0
   45.4540   36.4550   43.9770 H   0  0  0  0  0  0  0  0  0  0  0  0
   44.2350   36.3950   45.2980 H   0  0  0  0  0  0  0  0  0  0  0  0
   47.0130   29.9580   48.2300 O   0  0  0  0  0  0  0  0  0  0  0  0
   49.4790   29.5720   47.8090 C   0  0  0  0  0  0  0  0  0  0  0  0
   48.3500   30.0720   48.4030 C   0  0  0  0  0  0  0  0  0  0  0  0
   48.5720   30.9410   49.4830 C   0  0  0  0  0  0  0  0  0  0  0  0
   47.8440   31.4690   50.1200 H   0  0  0  0  0  0  0  0  0  0  0  0
   49.8600   31.2700   49.9200 C   0  0  0  0  0  0  0  0  0  0  0  0
   50.1100   31.9260   50.7390 H   0  0  0  0  0  0  0  0  0  0  0  0
   50.9600   30.7340   49.2830 C   0  0  0  0  0  3  0  0  0  0  0  0
   50.7560   29.8800   48.2200 C   0  0  0  0  0  3  0  0  0  0  0  0
   49.0170   27.9800   45.8270 N   0  0  0  0  0  0  0  0  0  0  0  0
   49.2130   28.6930   46.7160 C   0  0  0  0  0  0  0  0  0  0  0  0
  2 18  1  0  0  0  0
  2  1  2  1  0  0  0
  3  2  1  0  0  0  0
  4  3  1  0  0  0  0
  5  2  1  0  0  0  0
  6 11  1  0  0  0  0
  7  8  1  0  0  0  0
  7  6  2  0  0  0  0
  8  9  2  0  0  0  0
  9 10  1  0  0  0  0
 10  5  1  0  0  0  0
 11 10  2  0  0  0  0
 12  7  1  0  0  0  0
 13  8  1  0  0  0  0
 14  6  1  0  0  0  0
 14 17  1  0  0  0  0
 15 14  1  0  0  0  0
 16 14  1  0  0  0  0
 18 20  1  0  0  0  0
 19 26  2  0  0  0  0
 19 20  1  0  0  0  0
 20 21  2  0  0  0  0
 21 23  1  0  0  0  0
 21 22  1  0  0  0  0
 23 24  1  0  0  0  0
 25 23  2  0  0  0  0
 26 25  1  0  0  0  0
 27 28  3  0  0  0  0
 28 19  1  0  0  0  0
M  END
>  <minimizedAffinity>
-4.68421507

>  <minimizedRMSD>
1.68931842

$$$$
