
 OpenBabel03252503273D

 26 27  0  0  0  0  0  0  0  0999 V2000
   44.2570   35.4970   42.3920 C   0  0  0  0  0  0  0  0  0  0  0  0
   45.5400   35.2830   41.8720 C   0  0  0  0  0  0  0  0  0  0  0  0
   46.5240   34.8700   42.7910 C   0  0  0  0  0  0  0  0  0  0  0  0
   46.1520   34.7100   44.0870 N   0  0  0  0  0  0  0  0  0  0  0  0
   44.9120   34.9220   44.5410 C   0  0  0  0  0  0  0  0  0  0  0  0
   43.9570   35.3200   43.6860 N   0  0  0  0  0  0  0  0  0  0  0  0
   42.7130   34.8560   40.7390 C   0  0  0  0  0  0  0  0  0  0  0  0
   43.2690   33.7180   40.8530 O   0  0  0  0  0  0  0  0  0  0  0  0
   43.1970   35.9220   41.5360 N   0  0  0  0  0  0  0  0  0  0  0  0
   45.7630   35.4210   40.8440 H   0  0  0  0  0  0  0  0  0  0  0  0
   44.6260   34.7760   45.5840 H   0  0  0  0  0  0  0  0  0  0  0  0
   42.7060   36.8320   41.3710 H   0  0  0  0  0  0  0  0  0  0  0  0
   40.3590   34.2950   39.9220 C   0  0  0  0  0  0  0  0  0  0  0  0
   41.6130   34.8590   39.7640 C   0  0  0  0  0  0  0  0  0  0  0  0
   41.9570   35.5050   38.5950 C   0  0  0  0  0  0  0  0  0  0  0  0
   42.9040   35.9780   38.3620 H   0  0  0  0  0  0  0  0  0  0  0  0
   41.0130   35.5820   37.5620 C   0  0  0  0  0  0  0  0  0  0  0  0
   41.2140   36.0730   36.6300 H   0  0  0  0  0  0  0  0  0  0  0  0
   39.7580   35.0240   37.7060 C   0  0  0  0  0  3  0  0  0  0  0  0
   39.4460   34.3850   38.8840 C   0  0  0  0  0  3  0  0  0  0  0  0
   39.9000   33.1280   42.2020 N   0  0  0  0  0  0  0  0  0  0  0  0
   40.1070   33.6400   41.1770 C   0  0  0  0  0  0  0  0  0  0  0  0
   47.8520   34.6560   42.2330 C   0  0  0  0  0  0  0  0  0  0  0  0
   48.2870   35.8190   41.6070 F   0  0  0  0  0  0  0  0  0  0  0  0
   47.7300   33.7160   41.2240 F   0  0  0  0  0  0  0  0  0  0  0  0
   48.7860   34.3270   43.1690 F   0  0  0  0  0  0  0  0  0  0  0  0
  1  6  1  0  0  0  0
  2  1  2  0  0  0  0
  2  3  1  0  0  0  0
  3  4  2  0  0  0  0
  4  5  1  0  0  0  0
  5 11  1  0  0  0  0
  6  5  2  0  0  0  0
  7  8  2  0  0  0  0
  7  9  1  0  0  0  0
  9  1  1  0  0  0  0
 10  2  1  0  0  0  0
 12  9  1  0  0  0  0
 13 22  1  0  0  0  0
 14 13  1  0  0  0  0
 14  7  1  0  0  0  0
 15 14  2  0  0  0  0
 16 15  1  0  0  0  0
 17 19  2  0  0  0  0
 17 15  1  0  0  0  0
 18 17  1  0  0  0  0
 19 20  1  0  0  0  0
 20 13  2  0  0  0  0
 22 21  3  0  0  0  0
 23  3  1  0  0  0  0
 23 26  1  0  0  0  0
 24 23  1  0  0  0  0
 25 23  1  0  0  0  0
M  END
>  <minimizedAffinity>
-6.04739332

>  <minimizedRMSD>
2.42072797

$$$$
