
 OpenBabel03252509233D

 28 30  0  0  1  0  0  0  0  0999 V2000
   46.5360   35.0780   41.9460 C   0  0  1  0  0  0  0  0  0  0  0  0
   48.0800   35.2030   41.9090 C   0  0  0  0  0  0  0  0  0  0  0  0
   47.2510   34.0470   41.2890 C   0  0  2  0  0  0  0  0  0  0  0  0
   46.0170   35.9090   41.4410 H   0  0  0  0  0  0  0  0  0  0  0  0
   48.6630   34.9780   42.7940 H   0  0  0  0  0  0  0  0  0  0  0  0
   48.4360   35.9750   41.2030 H   0  0  0  0  0  0  0  0  0  0  0  0
   47.4420   33.0660   41.7710 H   0  0  0  0  0  0  0  0  0  0  0  0
   44.6620   35.3850   45.1870 C   0  0  0  0  0  0  0  0  0  0  0  0
   45.1170   35.7030   43.8820 C   0  0  0  0  0  0  0  0  0  0  0  0
   46.0620   34.8560   43.3690 C   0  0  0  0  0  0  0  0  0  0  0  0
   46.5360   33.7720   44.0830 N   0  0  0  0  0  0  0  0  0  0  0  0
   46.0770   33.5070   45.3200 C   0  0  0  0  0  0  0  0  0  0  0  0
   45.1370   34.3140   45.8760 N   0  0  0  0  0  0  0  0  0  0  0  0
   43.9120   36.0520   45.5990 H   0  0  0  0  0  0  0  0  0  0  0  0
   46.4220   32.6700   45.9080 H   0  0  0  0  0  0  0  0  0  0  0  0
   44.6500   36.8390   43.1570 N   0  0  0  0  0  0  0  0  0  0  0  0
   43.8490   36.9470   42.5280 H   0  0  0  0  0  0  0  0  0  0  0  0
   45.3360   37.5880   43.4180 H   0  0  0  0  0  0  0  0  0  0  0  0
   46.3170   33.2340   39.1070 C   0  0  0  0  0  0  0  0  0  0  0  0
   47.2860   33.9310   39.8030 C   0  0  0  0  0  0  0  0  0  0  0  0
   48.3400   34.5570   39.1370 C   0  0  0  0  0  0  0  0  0  0  0  0
   49.1290   35.1180   39.6460 H   0  0  0  0  0  0  0  0  0  0  0  0
   48.4120   34.4740   37.7470 C   0  0  0  0  0  0  0  0  0  0  0  0
   49.2280   34.9550   37.1970 H   0  0  0  0  0  0  0  0  0  0  0  0
   47.4310   33.7720   37.0720 C   0  0  0  0  0  3  0  0  0  0  0  0
   46.3770   33.1440   37.7160 C   0  0  0  0  0  3  0  0  0  0  0  0
   44.3680   32.0770   40.3740 N   0  0  0  0  0  0  0  0  0  0  0  0
   45.2440   32.6010   39.8090 C   0  0  0  0  0  0  0  0  0  0  0  0
  1  4  1  6  0  0  0
  1 10  1  0  0  0  0
  2  1  1  0  0  0  0
  2  5  1  0  0  0  0
  3  7  1  1  0  0  0
  3  2  1  0  0  0  0
  3  1  1  0  0  0  0
  6  2  1  0  0  0  0
  8 14  1  0  0  0  0
  8 13  1  0  0  0  0
  9  8  2  0  0  0  0
 10  9  1  0  0  0  0
 10 11  2  0  0  0  0
 11 12  1  0  0  0  0
 12 13  2  0  0  0  0
 12 15  1  0  0  0  0
 16 18  1  0  0  0  0
 16  9  1  0  0  0  0
 17 16  1  0  0  0  0
 19 20  1  0  0  0  0
 19 28  1  0  0  0  0
 20  3  1  0  0  0  0
 21 22  1  0  0  0  0
 21 20  2  0  0  0  0
 23 21  1  0  0  0  0
 24 23  1  0  0  0  0
 25 26  1  0  0  0  0
 25 23  2  0  0  0  0
 26 19  2  0  0  0  0
 28 27  3  0  0  0  0
M  END
>  <minimizedAffinity>
-5.41823673

>  <minimizedRMSD>
0.670250297

$$$$
