
 OpenBabel03252507463D

 38 40  0  0  0  0  0  0  0  0999 V2000
   47.0630   34.2380   40.9590 C   0  0  0  0  0  0  0  0  0  0  0  0
   47.1630   34.8770   40.0520 H   0  0  0  0  0  0  0  0  0  0  0  0
   46.4840   33.3100   40.7740 H   0  0  0  0  0  0  0  0  0  0  0  0
   48.4240   33.9710   41.4370 C   0  0  0  0  0  0  0  0  0  0  0  0
   48.9670   32.7500   41.0680 C   0  0  0  0  0  0  0  0  0  0  0  0
   50.2540   32.3970   41.4860 C   0  0  0  0  0  0  0  0  0  0  0  0
   50.9360   33.2970   42.2580 N   0  0  0  0  0  0  0  0  0  0  0  0
   50.3630   34.4800   42.5930 C   0  0  0  0  0  0  0  0  0  0  0  0
   49.1370   34.7890   42.1820 N   0  0  0  0  0  0  0  0  0  0  0  0
   50.6430   31.4420   41.1820 H   0  0  0  0  0  0  0  0  0  0  0  0
   50.8810   35.2060   43.2020 H   0  0  0  0  0  0  0  0  0  0  0  0
   48.0490   31.5700   40.0650 S   0  0  0  0  0  0  0  0  0  0  0  0
   49.3920   31.4470   37.5200 C   0  0  0  0  0  0  0  0  0  0  0  0
   48.3430   31.8190   38.3280 C   0  0  0  0  0  0  0  0  0  0  0  0
   47.2890   32.5320   37.7410 C   0  0  0  0  0  0  0  0  0  0  0  0
   46.3850   32.9050   38.2270 H   0  0  0  0  0  0  0  0  0  0  0  0
   47.2860   32.8600   36.3880 C   0  0  0  0  0  0  0  0  0  0  0  0
   46.5160   33.3990   35.8850 H   0  0  0  0  0  0  0  0  0  0  0  0
   48.3630   32.4700   35.5910 C   0  0  0  0  0  3  0  0  0  0  0  0
   49.3800   31.7740   36.1870 C   0  0  0  0  0  3  0  0  0  0  0  0
   51.2880   30.1880   38.7320 N   0  0  0  0  0  0  0  0  0  0  0  0
   50.4260   30.7500   38.1910 C   0  0  0  0  0  0  0  0  0  0  0  0
   46.2380   35.0390   41.9340 C   0  0  0  0  0  0  0  0  0  0  0  0
   46.5560   36.1050   41.9110 H   0  0  0  0  0  0  0  0  0  0  0  0
   46.4150   34.6890   42.9800 H   0  0  0  0  0  0  0  0  0  0  0  0
   44.7690   34.9560   41.6990 C   0  0  0  0  0  0  0  0  0  0  0  0
   43.8690   35.3830   42.7240 C   0  0  0  0  0  0  0  0  0  0  0  0
   42.2210   35.0880   41.9710 S   0  0  0  0  0  0  0  0  0  0  0  0
   43.0390   34.4290   40.3800 C   0  0  0  0  0  0  0  0  0  0  0  0
   44.1460   34.5260   40.6370 N   0  0  0  0  0  0  0  0  0  0  0  0
   44.1330   35.7800   43.7000 H   0  0  0  0  0  0  0  0  0  0  0  0
   42.3100   33.9850   39.2770 O   0  0  0  0  0  0  0  0  0  0  0  0
   40.3600   34.4900   37.5610 O   0  0  0  0  0  0  0  0  0  0  0  0
   41.4630   35.1430   38.3780 P   0  0  0  0  0  0  0  0  0  0  0  0
   40.7670   36.2360   39.4590 O   0  0  0  0  0  0  0  0  0  0  0  0
   39.9510   35.7950   39.8190 H   0  0  0  0  0  0  0  0  0  0  0  0
   42.5470   35.9900   37.3790 O   0  0  0  0  0  0  0  0  0  0  0  0
   42.8590   35.4160   36.6360 H   0  0  0  0  0  0  0  0  0  0  0  0
  1  4  1  0  0  0  0
  1 23  1  0  0  0  0
  2  1  1  0  0  0  0
  3  1  1  0  0  0  0
  4  9  1  0  0  0  0
  5  4  2  0  0  0  0
  5  6  1  0  0  0  0
  6  7  2  0  0  0  0
  7  8  1  0  0  0  0
  8 11  1  0  0  0  0
  9  8  2  0  0  0  0
 10  6  1  0  0  0  0
 12  5  1  0  0  0  0
 13 22  1  0  0  0  0
 13 14  1  0  0  0  0
 14 12  1  0  0  0  0
 15 16  1  0  0  0  0
 15 14  2  0  0  0  0
 17 15  1  0  0  0  0
 18 17  1  0  0  0  0
 19 20  1  0  0  0  0
 19 17  2  0  0  0  0
 20 13  2  0  0  0  0
 22 21  3  0  0  0  0
 23 25  1  0  0  0  0
 24 23  1  0  0  0  0
 26 23  1  0  0  0  0
 26 27  2  0  0  0  0
 27 31  1  0  0  0  0
 28 27  1  0  0  0  0
 29 30  2  0  0  0  0
 29 28  1  0  0  0  0
 30 26  1  0  0  0  0
 32 29  1  0  0  0  0
 33 34  2  0  0  0  0
 34 32  1  0  0  0  0
 34 35  1  0  0  0  0
 35 36  1  0  0  0  0
 37 34  1  0  0  0  0
 38 37  1  0  0  0  0
M  END
>  <minimizedAffinity>
-4.77463675

>  <minimizedRMSD>
0.535753906

$$$$
