
 OpenBabel03242513413D

 41 44  0  0  0  0  0  0  0  0999 V2000
   47.7140   30.9670   46.0170 C   0  0  0  0  0  0  0  0  0  0  0  0
   46.9910   32.0410   45.5380 C   0  0  0  0  0  0  0  0  0  0  0  0
   46.0060   32.5540   46.3310 C   0  0  0  0  0  0  0  0  0  0  0  0
   45.7080   32.0400   47.5840 C   0  0  0  0  0  0  0  0  0  0  0  0
   44.8350   32.2980   48.5850 N   0  0  0  0  0  0  0  0  0  0  0  0
   45.0130   31.4380   49.6040 C   0  0  0  0  0  0  0  0  0  0  0  0
   46.0190   30.6310   49.2280 N   0  0  0  0  0  0  0  0  0  0  0  0
   46.4570   30.9800   48.0010 C   0  0  0  0  0  0  0  0  0  0  0  0
   47.4520   30.4190   47.2660 C   0  0  0  0  0  0  0  0  0  0  0  0
   48.5020   30.5310   45.4220 H   0  0  0  0  0  0  0  0  0  0  0  0
   45.4030   33.4030   46.0010 H   0  0  0  0  0  0  0  0  0  0  0  0
   44.1310   33.0870   48.5090 H   0  0  0  0  0  0  0  0  0  0  0  0
   44.4570   31.4290   50.5070 H   0  0  0  0  0  0  0  0  0  0  0  0
   47.2430   34.3840   42.7360 C   0  0  0  0  0  0  0  0  0  0  0  0
   47.8380   33.6240   41.7410 C   0  0  0  0  0  0  0  0  0  0  0  0
   48.1450   32.2960   42.0640 C   0  0  0  0  0  0  0  0  0  0  0  0
   47.8620   31.8090   43.2960 N   0  0  0  0  0  0  0  0  0  0  0  0
   47.2790   32.6050   44.2230 C   0  0  0  0  0  0  0  0  0  0  0  0
   46.9690   33.8710   43.9650 N   0  0  0  0  0  0  0  0  0  0  0  0
   46.9690   35.4270   42.5730 H   0  0  0  0  0  0  0  0  0  0  0  0
   48.6100   31.6930   41.2950 H   0  0  0  0  0  0  0  0  0  0  0  0
   48.1070   34.2480   40.4230 C   0  0  0  0  0  0  0  0  0  0  0  0
   48.6150   35.4990   40.7270 F   0  0  0  0  0  0  0  0  0  0  0  0
   46.9140   34.3890   39.7660 F   0  0  0  0  0  0  0  0  0  0  0  0
   48.9940   33.4400   39.7290 F   0  0  0  0  0  0  0  0  0  0  0  0
   48.1750   29.3440   47.7470 O   0  0  0  0  0  0  0  0  0  0  0  0
   49.7520   28.0340   49.3370 O   0  0  0  0  0  0  0  0  0  0  0  0
   49.4660   29.4390   48.8340 P   0  0  2  0  0  0  0  0  0  0  0  0
   48.9290   30.3390   50.1840 O   0  0  0  0  0  0  0  0  0  0  0  0
   49.6420   30.2850   50.8860 H   0  0  0  0  0  0  0  0  0  0  0  0
   50.8450   30.1160   48.1950 O   0  0  0  0  0  0  0  0  0  0  0  0
   52.8600   29.9990   46.9370 C   0  0  0  0  0  0  0  0  0  0  0  0
   51.5640   29.5330   47.1790 C   0  0  0  0  0  0  0  0  0  0  0  0
   51.1270   28.5150   46.3570 C   0  0  0  0  0  0  0  0  0  0  0  0
   50.1480   28.1390   46.5140 H   0  0  0  0  0  0  0  0  0  0  0  0
   51.8720   27.9550   45.3490 C   0  0  0  0  0  0  0  0  0  0  0  0
   51.4630   27.1470   44.7330 H   0  0  0  0  0  0  0  0  0  0  0  0
   53.1570   28.4510   45.1450 C   0  0  0  0  0  3  0  0  0  0  0  0
   53.6460   29.4680   45.9360 C   0  0  0  0  0  3  0  0  0  0  0  0
   53.9300   31.9180   48.3250 N   0  0  0  0  0  0  0  0  0  0  0  0
   53.4630   31.0560   47.7060 C   0  0  0  0  0  0  0  0  0  0  0  0
  1  9  1  0  0  0  0
  2  1  2  0  0  0  0
  2  3  1  0  0  0  0
  3  4  2  0  0  0  0
  4  8  1  0  0  0  0
  4  5  1  0  0  0  0
  5  6  1  0  0  0  0
  6 13  1  0  0  0  0
  7  6  2  0  0  0  0
  8  7  1  0  0  0  0
  9 26  1  0  0  0  0
  9  8  2  0  0  0  0
 10  1  1  0  0  0  0
 11  3  1  0  0  0  0
 12  5  1  0  0  0  0
 14 19  1  0  0  0  0
 15 16  1  0  0  0  0
 15 14  2  0  0  0  0
 16 17  2  0  0  0  0
 17 18  1  0  0  0  0
 18  2  1  0  0  0  0
 19 18  2  0  0  0  0
 20 14  1  0  0  0  0
 21 16  1  0  0  0  0
 22 23  1  0  0  0  0
 22 15  1  0  0  0  0
 24 22  1  0  0  0  0
 25 22  1  0  0  0  0
 26 28  1  0  0  0  0
 28 27  2  1  0  0  0
 28 29  1  0  0  0  0
 29 30  1  0  0  0  0
 31 28  1  0  0  0  0
 32 33  1  0  0  0  0
 32 41  1  0  0  0  0
 33 31  1  0  0  0  0
 34 35  1  0  0  0  0
 34 33  2  0  0  0  0
 36 34  1  0  0  0  0
 37 36  1  0  0  0  0
 38 36  2  0  0  0  0
 38 39  1  0  0  0  0
 39 32  2  0  0  0  0
 41 40  3  0  0  0  0
M  END
>  <minimizedAffinity>
-5.57706356

>  <minimizedRMSD>
0.244617283

$$$$
