
 OpenBabel03252509083D

 42 45  0  0  0  0  0  0  0  0999 V2000
   47.5180   31.7910   39.0000 C   0  0  0  0  0  0  0  0  0  0  0  0
   47.1190   33.0940   38.9810 C   0  0  0  0  0  0  0  0  0  0  0  0
   47.7970   34.0040   38.1890 C   0  0  0  0  0  0  0  0  0  0  0  0
   48.8630   33.6180   37.4250 C   0  0  0  0  0  0  0  0  0  0  0  0
   49.3040   32.3020   37.4130 C   0  0  0  0  0  0  0  0  0  0  0  0
   48.6100   31.3960   38.2160 C   0  0  0  0  0  0  0  0  0  0  0  0
   47.4960   35.0430   38.1580 H   0  0  0  0  0  0  0  0  0  0  0  0
   49.4210   34.2720   36.7970 H   0  0  0  0  0  0  0  0  0  0  0  0
   50.1190   31.9170   36.8530 H   0  0  0  0  0  0  0  0  0  0  0  0
   48.9250   30.3630   38.2330 H   0  0  0  0  0  0  0  0  0  0  0  0
   45.3300   35.4560   43.2110 Cl  0  0  0  0  0  0  0  0  0  0  0  0
   45.1470   34.6690   41.6620 C   0  0  0  0  0  0  0  0  0  0  0  0
   46.2260   34.2170   40.9740 C   0  0  0  0  0  0  0  0  0  0  0  0
   45.9910   33.6160   39.7480 C   0  0  0  0  0  0  0  0  0  0  0  0
   44.7340   33.4860   39.2520 C   0  0  0  0  0  0  0  0  0  0  0  0
   43.6540   33.9340   39.9350 C   0  0  0  0  0  0  0  0  0  0  0  0
   43.8740   34.5330   41.1580 C   0  0  0  0  0  0  0  0  0  0  0  0
   44.6000   33.0080   38.2800 H   0  0  0  0  0  0  0  0  0  0  0  0
   42.6600   33.8170   39.5160 H   0  0  0  0  0  0  0  0  0  0  0  0
   42.9970   34.8870   41.6960 H   0  0  0  0  0  0  0  0  0  0  0  0
   49.5670   35.7260   41.9270 C   0  0  0  0  0  0  0  0  0  0  0  0
   48.2900   35.5670   41.3800 C   0  0  0  0  0  0  0  0  0  0  0  0
   47.5620   34.3960   41.5390 C   0  0  0  0  0  0  0  0  0  0  0  0
   48.1830   33.4520   42.2510 N   0  0  0  0  0  0  0  0  0  0  0  0
   49.4040   33.5910   42.7800 C   0  0  0  0  0  0  0  0  0  0  0  0
   50.0920   34.7200   42.6200 N   0  0  0  0  0  0  0  0  0  0  0  0
   50.1010   36.6550   41.7790 H   0  0  0  0  0  0  0  0  0  0  0  0
   47.8680   36.3850   40.8200 H   0  0  0  0  0  0  0  0  0  0  0  0
   49.6930   32.6830   43.3150 H   0  0  0  0  0  0  0  0  0  0  0  0
   46.7830   30.6410   40.0000 S   0  0  0  0  0  0  0  0  0  0  0  0
   47.1820   29.2260   39.4600 O   0  0  0  0  0  0  0  0  0  0  0  0
   47.4500   30.7040   41.3420 O   0  0  0  0  0  0  0  0  0  0  0  0
   44.2980   30.5440   41.2560 C   0  0  0  0  0  0  0  0  0  0  0  0
   45.0940   30.3480   40.1010 C   0  0  0  0  0  0  0  0  0  0  0  0
   44.2950   29.8860   39.0620 C   0  0  0  0  0  0  0  0  0  0  0  0
   44.7530   29.7050   38.1030 H   0  0  0  0  0  0  0  0  0  0  0  0
   42.9410   29.6340   39.0810 C   0  0  0  0  0  0  0  0  0  0  0  0
   42.4060   29.2730   38.2160 H   0  0  0  0  0  0  0  0  0  0  0  0
   42.3070   29.8720   40.2810 C   0  0  0  0  0  3  0  0  0  0  0  0
   42.9470   30.3330   41.4090 C   0  0  0  0  0  3  0  0  0  0  0  0
   45.5340   31.5200   43.3730 N   0  0  0  0  0  0  0  0  0  0  0  0
   44.9790   31.0860   42.4300 C   0  0  0  0  0  0  0  0  0  0  0  0
  1 30  1  0  0  0  0
  2  1  1  0  0  0  0
  2 14  1  0  0  0  0
  3  2  2  0  0  0  0
  4  3  1  0  0  0  0
  5  4  2  0  0  0  0
  5  6  1  0  0  0  0
  6 10  1  0  0  0  0
  6  1  2  0  0  0  0
  7  3  1  0  0  0  0
  8  4  1  0  0  0  0
  9  5  1  0  0  0  0
 12 11  1  0  0  0  0
 13 23  1  0  0  0  0
 13 12  2  0  0  0  0
 14 13  1  0  0  0  0
 15 14  2  0  0  0  0
 15 16  1  0  0  0  0
 16 17  2  0  0  0  0
 17 12  1  0  0  0  0
 17 20  1  0  0  0  0
 18 15  1  0  0  0  0
 19 16  1  0  0  0  0
 21 26  1  0  0  0  0
 22 23  1  0  0  0  0
 22 21  2  0  0  0  0
 23 24  2  0  0  0  0
 24 25  1  0  0  0  0
 25 29  1  0  0  0  0
 26 25  2  0  0  0  0
 27 21  1  0  0  0  0
 28 22  1  0  0  0  0
 30 34  1  0  0  0  0
 30 32  2  0  0  0  0
 31 30  2  0  0  0  0
 33 40  1  0  0  0  0
 33 42  1  0  0  0  0
 34 33  2  0  0  0  0
 35 37  2  0  0  0  0
 35 34  1  0  0  0  0
 36 35  1  0  0  0  0
 37 39  1  0  0  0  0
 38 37  1  0  0  0  0
 39 40  2  0  0  0  0
 42 41  3  0  0  0  0
M  END
>  <minimizedAffinity>
-4.54045725

>  <minimizedRMSD>
1.24291193

$$$$
