
 OpenBabel03242515393D

 37 40  0  0  0  0  0  0  0  0999 V2000
   44.2740   34.7580   41.2370 C   0  0  0  0  0  0  0  0  0  0  0  0
   44.2800   33.5930   40.5090 C   0  0  0  0  0  0  0  0  0  0  0  0
   45.4980   32.9450   40.3120 C   0  0  0  0  0  0  0  0  0  0  0  0
   46.6030   33.5160   40.8660 N   0  0  0  0  0  0  0  0  0  0  0  0
   46.5650   34.6540   41.5730 C   0  0  0  0  0  0  0  0  0  0  0  0
   45.3990   35.2420   41.7380 N   0  0  0  0  0  0  0  0  0  0  0  0
   43.3970   33.1670   40.1190 H   0  0  0  0  0  0  0  0  0  0  0  0
   45.7930   31.4390   38.2970 C   0  0  0  0  0  0  0  0  0  0  0  0
   45.7410   31.7090   39.6280 C   0  0  0  0  0  0  0  0  0  0  0  0
   46.0030   30.5660   40.3870 C   0  0  0  0  0  0  0  0  0  0  0  0
   46.0040   30.5990   41.4750 H   0  0  0  0  0  0  0  0  0  0  0  0
   46.2760   29.3280   39.8800 C   0  0  0  0  0  0  0  0  0  0  0  0
   46.4710   28.4740   40.5110 H   0  0  0  0  0  0  0  0  0  0  0  0
   46.3090   29.1310   38.5210 C   0  0  0  0  0  3  0  0  0  0  0  0
   46.0620   30.2110   37.7370 C   0  0  0  0  0  3  0  0  0  0  0  0
   45.4850   33.3670   36.6050 N   0  0  0  0  0  0  0  0  0  0  0  0
   45.6140   32.5060   37.3690 C   0  0  0  0  0  0  0  0  0  0  0  0
   42.6580   35.5480   41.4430 S   0  0  0  0  0  0  0  0  0  0  0  0
   40.7950   34.8160   39.6420 C   0  0  0  0  0  0  0  0  0  0  0  0
   41.3560   34.4870   40.8670 C   0  0  0  0  0  0  0  0  0  0  0  0
   40.9030   33.3970   41.5660 C   0  0  0  0  0  0  0  0  0  0  0  0
   39.8850   32.5910   41.0900 C   0  0  0  0  0  0  0  0  0  0  0  0
   39.3150   32.9260   39.8450 C   0  0  0  0  0  0  0  0  0  0  0  0
   39.7660   34.0210   39.1350 C   0  0  0  0  0  0  0  0  0  0  0  0
   38.3170   31.9770   39.5760 O   0  0  0  0  0  0  0  0  0  0  0  0
   38.0500   31.3350   40.8090 C   0  0  0  0  0  0  0  0  0  0  0  0
   39.2390   31.4510   41.5710 O   0  0  0  0  0  0  0  0  0  0  0  0
   41.0930   35.6550   39.0290 H   0  0  0  0  0  0  0  0  0  0  0  0
   41.3630   33.1620   42.5290 H   0  0  0  0  0  0  0  0  0  0  0  0
   39.3190   34.2700   38.1740 H   0  0  0  0  0  0  0  0  0  0  0  0
   37.2400   31.7910   41.3810 H   0  0  0  0  0  0  0  0  0  0  0  0
   37.7950   30.2710   40.6500 H   0  0  0  0  0  0  0  0  0  0  0  0
   47.6640   35.2520   42.1420 O   0  0  0  0  0  0  0  0  0  0  0  0
   48.8330   35.4130   41.3970 C   0  0  0  0  0  0  0  0  0  0  0  0
   49.7810   34.4760   41.6700 F   0  0  0  0  0  0  0  0  0  0  0  0
   48.4160   35.4100   40.0520 F   0  0  0  0  0  0  0  0  0  0  0  0
   49.3570   36.6630   41.7260 F   0  0  0  0  0  0  0  0  0  0  0  0
  1 18  1  0  0  0  0
  1  6  1  0  0  0  0
  2  1  2  0  0  0  0
  3  2  1  0  0  0  0
  3  4  2  0  0  0  0
  4  5  1  0  0  0  0
  5  6  2  0  0  0  0
  5 33  1  0  0  0  0
  7  2  1  0  0  0  0
  8  9  1  0  0  0  0
  9  3  1  0  0  0  0
  9 10  2  0  0  0  0
 10 11  1  0  0  0  0
 12 10  1  0  0  0  0
 12 13  1  0  0  0  0
 14 12  2  0  0  0  0
 15  8  2  0  0  0  0
 15 14  1  0  0  0  0
 16 17  3  0  0  0  0
 17  8  1  0  0  0  0
 19 20  1  0  0  0  0
 20 18  1  0  0  0  0
 20 21  2  0  0  0  0
 21 29  1  0  0  0  0
 22 21  1  0  0  0  0
 22 27  1  0  0  0  0
 23 22  2  0  0  0  0
 24 19  2  0  0  0  0
 24 23  1  0  0  0  0
 25 23  1  0  0  0  0
 25 26  1  0  0  0  0
 26 31  1  0  0  0  0
 26 27  1  0  0  0  0
 28 19  1  0  0  0  0
 30 24  1  0  0  0  0
 32 26  1  0  0  0  0
 34 35  1  0  0  0  0
 34 37  1  0  0  0  0
 34 33  1  0  0  0  0
 36 34  1  0  0  0  0
M  END
>  <minimizedAffinity>
-5.57509565

>  <minimizedRMSD>
1.14999652

$$$$
