
 OpenBabel03252507463D

 38 40  0  0  0  0  0  0  0  0999 V2000
   47.0690   34.2080   40.9620 C   0  0  0  0  0  0  0  0  0  0  0  0
   47.1630   34.8150   40.0320 H   0  0  0  0  0  0  0  0  0  0  0  0
   46.4880   33.2750   40.8130 H   0  0  0  0  0  0  0  0  0  0  0  0
   48.4330   33.9570   41.4390 C   0  0  0  0  0  0  0  0  0  0  0  0
   48.9920   32.7440   41.0640 C   0  0  0  0  0  0  0  0  0  0  0  0
   50.2840   32.4060   41.4810 C   0  0  0  0  0  0  0  0  0  0  0  0
   50.9530   33.3110   42.2590 N   0  0  0  0  0  0  0  0  0  0  0  0
   50.3650   34.4850   42.5990 C   0  0  0  0  0  0  0  0  0  0  0  0
   49.1350   34.7800   42.1890 N   0  0  0  0  0  0  0  0  0  0  0  0
   50.6860   31.4580   41.1720 H   0  0  0  0  0  0  0  0  0  0  0  0
   50.8720   35.2140   43.2130 H   0  0  0  0  0  0  0  0  0  0  0  0
   48.0910   31.5580   40.0540 S   0  0  0  0  0  0  0  0  0  0  0  0
   49.3530   31.6420   37.4670 C   0  0  0  0  0  0  0  0  0  0  0  0
   48.3010   31.8850   38.3170 C   0  0  0  0  0  0  0  0  0  0  0  0
   47.1620   32.5040   37.7860 C   0  0  0  0  0  0  0  0  0  0  0  0
   46.2420   32.7700   38.3110 H   0  0  0  0  0  0  0  0  0  0  0  0
   47.0810   32.8680   36.4440 C   0  0  0  0  0  0  0  0  0  0  0  0
   46.2450   33.3400   35.9820 H   0  0  0  0  0  0  0  0  0  0  0  0
   48.1630   32.6100   35.6020 C   0  0  0  0  0  3  0  0  0  0  0  0
   49.2650   32.0040   36.1450 C   0  0  0  0  0  3  0  0  0  0  0  0
   51.4040   30.5460   38.5800 N   0  0  0  0  0  0  0  0  0  0  0  0
   50.4730   31.0330   38.0830 C   0  0  0  0  0  0  0  0  0  0  0  0
   46.2510   35.0430   41.9140 C   0  0  0  0  0  0  0  0  0  0  0  0
   46.5730   36.1070   41.8550 H   0  0  0  0  0  0  0  0  0  0  0  0
   46.4310   34.7270   42.9700 H   0  0  0  0  0  0  0  0  0  0  0  0
   44.7810   34.9580   41.6880 C   0  0  0  0  0  0  0  0  0  0  0  0
   43.8870   35.3900   42.7160 C   0  0  0  0  0  0  0  0  0  0  0  0
   42.2350   35.0910   41.9750 S   0  0  0  0  0  0  0  0  0  0  0  0
   43.0440   34.4240   40.3830 C   0  0  0  0  0  0  0  0  0  0  0  0
   44.1520   34.5220   40.6320 N   0  0  0  0  0  0  0  0  0  0  0  0
   44.1570   35.7930   43.6890 H   0  0  0  0  0  0  0  0  0  0  0  0
   42.3080   33.9720   39.2860 O   0  0  0  0  0  0  0  0  0  0  0  0
   40.3620   34.4670   37.5620 O   0  0  0  0  0  0  0  0  0  0  0  0
   41.4590   35.1260   38.3830 P   0  0  0  0  0  0  0  0  0  0  0  0
   40.7540   36.2160   39.4610 O   0  0  0  0  0  0  0  0  0  0  0  0
   39.9380   35.7720   39.8180 H   0  0  0  0  0  0  0  0  0  0  0  0
   42.5430   35.9770   37.3880 O   0  0  0  0  0  0  0  0  0  0  0  0
   42.8610   35.4040   36.6470 H   0  0  0  0  0  0  0  0  0  0  0  0
  1  4  1  0  0  0  0
  1 23  1  0  0  0  0
  2  1  1  0  0  0  0
  3  1  1  0  0  0  0
  4  9  1  0  0  0  0
  5  4  2  0  0  0  0
  5  6  1  0  0  0  0
  6  7  2  0  0  0  0
  7  8  1  0  0  0  0
  8 11  1  0  0  0  0
  9  8  2  0  0  0  0
 10  6  1  0  0  0  0
 12  5  1  0  0  0  0
 13 22  1  0  0  0  0
 13 14  1  0  0  0  0
 14 12  1  0  0  0  0
 15 16  1  0  0  0  0
 15 14  2  0  0  0  0
 17 15  1  0  0  0  0
 18 17  1  0  0  0  0
 19 20  1  0  0  0  0
 19 17  2  0  0  0  0
 20 13  2  0  0  0  0
 22 21  3  0  0  0  0
 23 25  1  0  0  0  0
 24 23  1  0  0  0  0
 26 23  1  0  0  0  0
 26 27  2  0  0  0  0
 27 31  1  0  0  0  0
 28 27  1  0  0  0  0
 29 30  2  0  0  0  0
 29 28  1  0  0  0  0
 30 26  1  0  0  0  0
 32 29  1  0  0  0  0
 33 34  2  0  0  0  0
 34 32  1  0  0  0  0
 34 35  1  0  0  0  0
 35 36  1  0  0  0  0
 37 34  1  0  0  0  0
 38 37  1  0  0  0  0
M  END
>  <minimizedAffinity>
-4.80830526

>  <minimizedRMSD>
0.299848586

$$$$
