
 OpenBabel03252508393D

 42 45  0  0  0  0  0  0  0  0999 V2000
   45.1610   33.9380   40.6990 C   0  0  0  0  0  0  0  0  0  0  0  0
   44.1090   33.6220   39.8640 C   0  0  0  0  0  0  0  0  0  0  0  0
   44.4060   33.1290   38.6310 C   0  0  0  0  0  0  0  0  0  0  0  0
   45.6800   32.9290   38.1780 C   0  0  0  0  0  0  0  0  0  0  0  0
   46.7080   33.2480   39.0210 C   0  0  0  0  0  0  0  0  0  0  0  0
   46.4720   33.7560   40.2910 C   0  0  0  0  0  0  0  0  0  0  0  0
   43.5830   32.8800   37.9750 H   0  0  0  0  0  0  0  0  0  0  0  0
   45.8370   32.5340   37.1840 H   0  0  0  0  0  0  0  0  0  0  0  0
   47.7160   33.0860   38.6500 H   0  0  0  0  0  0  0  0  0  0  0  0
   40.8390   35.2660   40.7810 C   0  0  0  0  0  0  0  0  0  0  0  0
   42.1340   35.0880   40.2590 C   0  0  0  0  0  0  0  0  0  0  0  0
   42.7740   33.8500   40.3880 C   0  0  0  0  0  0  0  0  0  0  0  0
   42.0520   32.9010   41.0290 N   0  0  0  0  0  0  0  0  0  0  0  0
   40.8280   33.0820   41.5180 C   0  0  0  0  0  0  0  0  0  0  0  0
   40.2270   34.2720   41.3890 N   0  0  0  0  0  0  0  0  0  0  0  0
   40.2390   36.5450   40.6220 N   0  0  0  0  0  0  0  0  0  0  0  0
   42.6540   35.8930   39.7560 H   0  0  0  0  0  0  0  0  0  0  0  0
   40.3580   32.2370   42.0120 H   0  0  0  0  0  0  0  0  0  0  0  0
   40.7800   37.1310   41.2960 H   0  0  0  0  0  0  0  0  0  0  0  0
   39.4490   36.6860   39.9430 H   0  0  0  0  0  0  0  0  0  0  0  0
   47.6350   34.0650   41.1060 C   0  0  0  0  0  0  0  0  0  0  0  0
   48.0820   35.3610   41.0280 C   0  0  0  0  0  0  0  0  0  0  0  0
   49.1820   35.8440   41.7390 C   0  0  0  0  0  0  0  0  0  0  0  0
   49.8430   34.9600   42.5560 C   0  0  0  0  0  0  0  0  0  0  0  0
   49.4110   33.6560   42.6500 C   0  0  0  0  0  0  0  0  0  0  0  0
   48.3130   33.2070   41.9300 C   0  0  0  0  0  0  0  0  0  0  0  0
   47.6150   36.1340   40.4010 H   0  0  0  0  0  0  0  0  0  0  0  0
   49.5200   36.8660   41.6650 H   0  0  0  0  0  0  0  0  0  0  0  0
   50.7110   35.2420   43.1500 H   0  0  0  0  0  0  0  0  0  0  0  0
   49.9270   32.9450   43.2940 H   0  0  0  0  0  0  0  0  0  0  0  0
   47.2110   31.5240   43.2380 C   0  0  0  0  0  0  0  0  0  0  0  0
   47.8550   31.8240   42.0290 C   0  0  0  0  0  0  0  0  0  0  0  0
   47.9650   30.8040   41.1390 C   0  0  0  0  0  0  0  0  0  0  0  0
   48.4690   31.0660   40.2200 H   0  0  0  0  0  0  0  0  0  0  0  0
   47.4720   29.5450   41.4090 C   0  0  0  0  0  0  0  0  0  0  0  0
   47.6130   28.8040   40.6280 H   0  0  0  0  0  0  0  0  0  0  0  0
   46.8360   29.2480   42.5990 C   0  0  0  0  0  3  0  0  0  0  0  0
   46.7260   30.2810   43.4980 C   0  0  0  0  0  3  0  0  0  0  0  0
   46.8730   33.3070   45.1190 N   0  0  0  0  0  0  0  0  0  0  0  0
   47.0280   32.5240   44.2790 C   0  0  0  0  0  0  0  0  0  0  0  0
   44.7480   34.9170   43.0750 N   0  0  0  0  0  0  0  0  0  0  0  0
   44.9380   34.4720   42.0190 C   0  0  0  0  0  0  0  0  0  0  0  0
  1 42  1  0  0  0  0
  2 12  1  0  0  0  0
  2  1  2  0  0  0  0
  3  2  1  0  0  0  0
  4  3  2  0  0  0  0
  4  5  1  0  0  0  0
  5  6  2  0  0  0  0
  6  1  1  0  0  0  0
  6 21  1  0  0  0  0
  7  3  1  0  0  0  0
  8  4  1  0  0  0  0
  9  5  1  0  0  0  0
 10 15  1  0  0  0  0
 11 12  1  0  0  0  0
 11 10  2  0  0  0  0
 12 13  2  0  0  0  0
 13 14  1  0  0  0  0
 14 18  1  0  0  0  0
 15 14  2  0  0  0  0
 16 10  1  0  0  0  0
 16 19  1  0  0  0  0
 17 11  1  0  0  0  0
 20 16  1  0  0  0  0
 21 26  1  0  0  0  0
 22 21  2  0  0  0  0
 22 23  1  0  0  0  0
 23 24  2  0  0  0  0
 24 25  1  0  0  0  0
 24 29  1  0  0  0  0
 25 30  1  0  0  0  0
 26 32  1  0  0  0  0
 26 25  2  0  0  0  0
 27 22  1  0  0  0  0
 28 23  1  0  0  0  0
 31 38  1  0  0  0  0
 31 40  1  0  0  0  0
 32 31  2  0  0  0  0
 33 35  2  0  0  0  0
 33 32  1  0  0  0  0
 34 33  1  0  0  0  0
 35 37  1  0  0  0  0
 36 35  1  0  0  0  0
 37 38  2  0  0  0  0
 40 39  3  0  0  0  0
 42 41  3  0  0  0  0
M  END
>  <minimizedAffinity>
-6.10651207

>  <minimizedRMSD>
0.441272289

$$$$
