
 OpenBabel03252502093D

 49 53  0  0  0  0  0  0  0  0999 V2000
   45.6770   33.7610   45.2820 C   0  0  0  0  0  0  0  0  0  0  0  0
   44.8900   34.7660   45.6840 N   0  0  0  0  0  0  0  0  0  0  0  0
   44.5690   35.8300   44.9510 C   0  0  0  0  0  0  0  0  0  0  0  0
   45.0510   35.9530   43.6900 N   0  0  0  0  0  0  0  0  0  0  0  0
   45.8500   35.0140   43.1700 C   0  0  0  0  0  0  0  0  0  0  0  0
   46.3450   35.1320   41.8910 C   0  0  0  0  0  0  0  0  0  0  0  0
   47.1610   34.1850   41.3470 C   0  0  0  0  0  0  0  0  0  0  0  0
   47.4740   33.0940   42.1350 C   0  0  0  0  0  0  0  0  0  0  0  0
   46.9510   33.0180   43.4170 C   0  0  0  0  0  0  0  0  0  0  0  0
   46.1420   33.9360   43.9850 C   0  0  0  0  0  0  0  0  0  0  0  0
   43.9200   36.5800   45.3900 H   0  0  0  0  0  0  0  0  0  0  0  0
   46.0840   35.9970   41.2980 H   0  0  0  0  0  0  0  0  0  0  0  0
   47.5210   34.3290   40.3410 H   0  0  0  0  0  0  0  0  0  0  0  0
   47.5750   31.9700   47.7830 C   0  0  0  0  0  0  0  0  0  0  0  0
   47.0330   30.6820   47.8360 C   0  0  0  0  0  0  0  0  0  0  0  0
   45.9770   30.4210   47.0000 C   0  0  0  0  0  0  0  0  0  0  0  0
   45.5250   31.3740   46.1910 N   0  0  0  0  0  0  0  0  0  0  0  0
   46.0200   32.5910   46.1230 C   0  0  0  0  0  0  0  0  0  0  0  0
   47.0600   32.8730   46.9390 N   0  0  0  0  0  0  0  0  0  0  0  0
   45.3890   29.1770   47.0190 N   0  0  0  0  0  0  0  0  0  0  0  0
   44.1370   28.8430   46.2850 C   0  0  0  0  0  0  0  0  0  0  0  0
   44.0110   27.3460   46.3410 C   0  0  0  0  0  0  0  0  0  0  0  0
   44.7330   27.0010   47.6040 C   0  0  0  0  0  0  0  0  0  0  0  0
   45.8270   28.0070   47.7120 C   0  0  0  0  0  0  0  0  0  0  0  0
   48.4180   32.2230   48.4340 H   0  0  0  0  0  0  0  0  0  0  0  0
   43.2850   29.3920   46.6910 H   0  0  0  0  0  0  0  0  0  0  0  0
   44.3660   29.1140   45.2220 H   0  0  0  0  0  0  0  0  0  0  0  0
   42.9630   27.0090   46.3670 H   0  0  0  0  0  0  0  0  0  0  0  0
   44.5020   26.8410   45.4960 H   0  0  0  0  0  0  0  0  0  0  0  0
   45.0960   25.9500   47.5830 H   0  0  0  0  0  0  0  0  0  0  0  0
   43.9910   27.0600   48.4250 H   0  0  0  0  0  0  0  0  0  0  0  0
   46.7180   27.5840   47.2460 H   0  0  0  0  0  0  0  0  0  0  0  0
   45.9160   28.1440   48.8320 H   0  0  0  0  0  0  0  0  0  0  0  0
   47.6100   29.7780   48.6940 N   0  0  0  0  0  0  0  0  0  0  0  0
   48.2620   29.0020   48.4170 H   0  0  0  0  0  0  0  0  0  0  0  0
   47.5490   29.6540   49.7350 H   0  0  0  0  0  0  0  0  0  0  0  0
   49.6960   32.3300   41.5560 C   0  0  0  0  0  0  0  0  0  0  0  0
   48.3490   32.1010   41.5200 C   0  0  0  0  0  0  0  0  0  0  0  0
   47.8140   30.9730   40.9250 C   0  0  0  0  0  0  0  0  0  0  0  0
   46.7430   30.8340   40.9200 H   0  0  0  0  0  0  0  0  0  0  0  0
   48.6590   30.0420   40.3480 C   0  0  0  0  0  0  0  0  0  0  0  0
   48.2860   29.1440   39.8700 H   0  0  0  0  0  0  0  0  0  0  0  0
   50.0150   30.3020   40.4010 C   0  0  0  0  0  3  0  0  0  0  0  0
   50.5460   31.4140   40.9860 C   0  0  0  0  0  3  0  0  0  0  0  0
   50.6850   34.4140   42.6710 N   0  0  0  0  0  0  0  0  0  0  0  0
   50.2430   33.4920   42.1700 C   0  0  0  0  0  0  0  0  0  0  0  0
   47.3830   31.8150   44.0670 N   0  0  0  0  0  0  0  0  0  0  0  0
   46.6540   31.1140   43.7520 H   0  0  0  0  0  0  0  0  0  0  0  0
   48.1570   31.5490   44.6830 H   0  0  0  0  0  0  0  0  0  0  0  0
  1  2  1  0  0  0  0
  1 18  1  0  0  0  0
  3 11  1  0  0  0  0
  3  2  2  0  0  0  0
  4  3  1  0  0  0  0
  5  4  2  0  0  0  0
  5 10  1  0  0  0  0
  6  5  1  0  0  0  0
  7  6  2  0  0  0  0
  7  8  1  0  0  0  0
  8  9  2  0  0  0  0
  9 10  1  0  0  0  0
  9 47  1  0  0  0  0
 10  1  2  0  0  0  0
 12  6  1  0  0  0  0
 13  7  1  0  0  0  0
 14 15  1  0  0  0  0
 14 25  1  0  0  0  0
 15 34  1  0  0  0  0
 16 20  1  0  0  0  0
 16 15  2  0  0  0  0
 17 16  1  0  0  0  0
 18 17  2  0  0  0  0
 18 19  1  0  0  0  0
 19 14  2  0  0  0  0
 20 24  1  0  0  0  0
 21 22  1  0  0  0  0
 21 26  1  0  0  0  0
 21 20  1  0  0  0  0
 22 28  1  0  0  0  0
 22 23  1  0  0  0  0
 23 24  1  0  0  0  0
 23 31  1  0  0  0  0
 24 33  1  0  0  0  0
 27 21  1  0  0  0  0
 29 22  1  0  0  0  0
 30 23  1  0  0  0  0
 32 24  1  0  0  0  0
 34 36  1  0  0  0  0
 35 34  1  0  0  0  0
 37 46  1  0  0  0  0
 38 37  1  0  0  0  0
 38  8  1  0  0  0  0
 39 38  2  0  0  0  0
 40 39  1  0  0  0  0
 41 43  2  0  0  0  0
 41 39  1  0  0  0  0
 42 41  1  0  0  0  0
 43 44  1  0  0  0  0
 44 37  2  0  0  0  0
 46 45  3  0  0  0  0
 47 49  1  0  0  0  0
 48 47  1  0  0  0  0
M  END
>  <minimizedAffinity>
-6.92815113

>  <minimizedRMSD>
0.498978049

$$$$
