
 OpenBabel03252506053D

 44 48  0  0  0  0  0  0  0  0999 V2000
   44.8420   35.9740   43.1920 Cl  0  0  0  0  0  0  0  0  0  0  0  0
   45.5800   34.7360   44.1480 C   0  0  0  0  0  0  0  0  0  0  0  0
   46.6800   34.0480   43.6650 C   0  0  0  0  0  0  0  0  0  0  0  0
   47.1830   33.0830   44.5150 C   0  0  0  0  0  0  0  0  0  0  0  0
   46.6830   32.7730   45.7580 C   0  0  0  0  0  0  0  0  0  0  0  0
   45.5970   33.4760   46.1950 C   0  0  0  0  0  0  0  0  0  0  0  0
   44.9840   33.0550   47.7850 Cl  0  0  0  0  0  0  0  0  0  0  0  0
   45.0460   34.4480   45.4020 C   0  0  0  0  0  0  0  0  0  0  0  0
   48.0580   32.5410   44.1240 H   0  0  0  0  0  0  0  0  0  0  0  0
   44.1850   34.9880   45.7780 H   0  0  0  0  0  0  0  0  0  0  0  0
   47.3720   31.7080   46.4990 C   0  0  0  0  0  0  0  0  0  0  0  0
   47.5040   30.4220   46.0260 C   0  0  0  0  0  0  0  0  0  0  0  0
   48.1440   29.4120   46.7040 C   0  0  0  0  0  0  0  0  0  0  0  0
   48.6970   29.6910   47.9440 C   0  0  0  0  0  0  0  0  0  0  0  0
   49.3170   28.6840   48.5870 N   0  0  0  0  0  0  0  0  0  0  0  0
   49.8830   28.8550   49.7930 C   0  0  0  0  0  0  0  0  0  0  0  0
   49.7990   30.1250   50.3510 C   0  0  0  0  0  0  0  0  0  0  0  0
   49.1650   31.1510   49.6950 C   0  0  0  0  0  0  0  0  0  0  0  0
   48.5890   30.9540   48.4530 C   0  0  0  0  0  0  0  0  0  0  0  0
   47.9410   31.9510   47.7520 C   0  0  0  0  0  0  0  0  0  0  0  0
   47.0740   30.1970   45.0580 H   0  0  0  0  0  0  0  0  0  0  0  0
   48.2020   28.4340   46.2610 H   0  0  0  0  0  0  0  0  0  0  0  0
   50.3760   28.0350   50.2900 H   0  0  0  0  0  0  0  0  0  0  0  0
   50.2620   30.2460   51.3270 H   0  0  0  0  0  0  0  0  0  0  0  0
   49.1060   32.1360   50.1380 H   0  0  0  0  0  0  0  0  0  0  0  0
   47.8700   32.9420   48.1780 H   0  0  0  0  0  0  0  0  0  0  0  0
   48.7330   35.5330   41.0560 C   0  0  0  0  0  0  0  0  0  0  0  0
   48.3520   34.8230   39.9070 C   0  0  0  0  0  0  0  0  0  0  0  0
   47.3750   33.8180   40.0310 C   0  0  0  0  0  0  0  0  0  0  0  0
   46.8940   33.6400   41.2770 N   0  0  0  0  0  0  0  0  0  0  0  0
   47.2620   34.3200   42.3660 C   0  0  0  0  0  0  0  0  0  0  0  0
   48.1890   35.2770   42.2660 N   0  0  0  0  0  0  0  0  0  0  0  0
   49.4730   36.2800   40.9100 H   0  0  0  0  0  0  0  0  0  0  0  0
   48.7840   35.0310   38.9650 H   0  0  0  0  0  0  0  0  0  0  0  0
   47.7440   32.0360   38.4330 C   0  0  0  0  0  0  0  0  0  0  0  0
   46.9130   33.0290   38.9040 C   0  0  0  0  0  0  0  0  0  0  0  0
   45.6940   33.2310   38.2950 C   0  0  0  0  0  0  0  0  0  0  0  0
   45.0270   33.9850   38.6270 H   0  0  0  0  0  0  0  0  0  0  0  0
   45.2570   32.4670   37.2110 C   0  0  0  0  0  0  0  0  0  0  0  0
   44.3160   32.6140   36.7320 H   0  0  0  0  0  0  0  0  0  0  0  0
   46.0760   31.4630   36.7210 C   0  0  0  0  0  3  0  0  0  0  0  0
   47.3000   31.2730   37.3460 C   0  0  0  0  0  3  0  0  0  0  0  0
   50.0610   31.5330   39.4720 N   0  0  0  0  0  0  0  0  0  0  0  0
   49.0340   31.7520   39.0060 C   0  0  0  0  0  0  0  0  0  0  0  0
  1  2  1  0  0  0  0
  2  8  1  0  0  0  0
  3  2  2  0  0  0  0
  3  4  1  0  0  0  0
  4  5  2  0  0  0  0
  5  6  1  0  0  0  0
  5 11  1  0  0  0  0
  6  7  1  0  0  0  0
  8 10  1  0  0  0  0
  8  6  2  0  0  0  0
  9  4  1  0  0  0  0
 11 20  1  0  0  0  0
 12 11  2  0  0  0  0
 12 13  1  0  0  0  0
 13 14  2  0  0  0  0
 14 19  1  0  0  0  0
 14 15  1  0  0  0  0
 15 16  2  0  0  0  0
 16 23  1  0  0  0  0
 16 17  1  0  0  0  0
 17 24  1  0  0  0  0
 18 25  1  0  0  0  0
 18 17  2  0  0  0  0
 19 18  1  0  0  0  0
 20 26  1  0  0  0  0
 20 19  2  0  0  0  0
 21 12  1  0  0  0  0
 22 13  1  0  0  0  0
 27 32  1  0  0  0  0
 28 29  1  0  0  0  0
 28 27  2  0  0  0  0
 29 30  2  0  0  0  0
 30 31  1  0  0  0  0
 31  3  1  0  0  0  0
 32 31  2  0  0  0  0
 33 27  1  0  0  0  0
 34 28  1  0  0  0  0
 35 36  1  0  0  0  0
 35 44  1  0  0  0  0
 36 29  1  0  0  0  0
 37 38  1  0  0  0  0
 37 36  2  0  0  0  0
 39 37  1  0  0  0  0
 40 39  1  0  0  0  0
 41 39  2  0  0  0  0
 41 42  1  0  0  0  0
 42 35  2  0  0  0  0
 44 43  3  0  0  0  0
M  END
>  <minimizedAffinity>
-6.8947072

>  <minimizedRMSD>
1.33745122

$$$$
