
 OpenBabel03252500363D

 47 50  0  0  1  0  0  0  0  0999 V2000
   46.2600   34.5280   43.9340 C   0  0  1  0  0  0  0  0  0  0  0  0
   45.1030   34.5670   44.7160 C   0  0  0  0  0  0  0  0  0  0  0  0
   46.1780   33.7250   45.2650 C   0  0  1  0  0  0  0  0  0  0  0  0
   46.9990   35.3790   43.9490 H   0  0  0  0  0  0  0  0  0  0  0  0
   44.8190   35.5120   45.2470 H   0  0  0  0  0  0  0  0  0  0  0  0
   44.1750   34.0220   44.3820 H   0  0  0  0  0  0  0  0  0  0  0  0
   46.9290   34.0900   45.9810 H   0  0  0  0  0  0  0  0  0  0  0  0
   45.3420   33.5440   41.8290 C   0  0  0  0  0  0  0  0  0  0  0  0
   46.4720   33.7280   42.6880 C   0  0  0  0  0  0  0  0  0  0  0  0
   47.6720   33.1810   42.3600 C   0  0  0  0  0  0  0  0  0  0  0  0
   47.7240   32.4640   41.1850 N   0  0  0  0  0  0  0  0  0  0  0  0
   46.6510   32.2990   40.3830 C   0  0  0  0  0  0  0  0  0  0  0  0
   45.4210   32.8370   40.6810 N   0  0  0  0  0  0  0  0  0  0  0  0
   44.4020   33.9720   42.0870 H   0  0  0  0  0  0  0  0  0  0  0  0
   48.5250   33.3090   42.9920 H   0  0  0  0  0  0  0  0  0  0  0  0
   47.4070   32.0760   38.0480 C   0  0  0  0  0  0  0  0  0  0  0  0
   46.8000   31.5250   39.1560 C   0  0  0  0  0  0  0  0  0  0  0  0
   46.3160   30.2330   39.1490 C   0  0  0  0  0  0  0  0  0  0  0  0
   45.8360   29.7450   39.9710 H   0  0  0  0  0  0  0  0  0  0  0  0
   46.4440   29.4720   37.9980 C   0  0  0  0  0  0  0  0  0  0  0  0
   46.0950   28.4400   37.8830 H   0  0  0  0  0  0  0  0  0  0  0  0
   47.0500   29.9820   36.8450 C   0  0  0  0  0  3  0  0  0  0  0  0
   47.5200   31.2840   36.9020 C   0  0  0  0  0  3  0  0  0  0  0  0
   48.2880   34.5090   38.0940 N   0  0  0  0  0  0  0  0  0  0  0  0
   47.9010   33.4180   38.0820 C   0  0  0  0  0  0  0  0  0  0  0  0
   46.0760   32.2460   45.2100 C   0  0  0  0  0  0  0  0  0  0  0  0
   47.0570   31.8390   44.9220 H   0  0  0  0  0  0  0  0  0  0  0  0
   45.3350   31.9220   44.4530 H   0  0  0  0  0  0  0  0  0  0  0  0
   45.7520   31.7960   46.5160 N   0  0  0  0  0  0  0  0  0  0  0  0
   46.1560   32.5700   47.6070 C   0  0  0  0  0  0  0  0  0  0  0  0
   47.5480   32.1480   48.1180 C   0  0  0  0  0  0  0  0  0  0  0  0
   47.3890   30.7670   48.6970 C   0  0  0  0  0  0  0  0  0  0  0  0
   46.9190   29.8830   47.5770 C   0  0  0  0  0  0  0  0  0  0  0  0
   45.7570   30.4210   46.7890 C   0  0  2  0  0  0  0  0  0  0  0  0
   45.4890   32.2510   48.4670 H   0  0  0  0  0  0  0  0  0  0  0  0
   46.0180   33.6490   47.5880 H   0  0  0  0  0  0  0  0  0  0  0  0
   48.2680   32.1220   47.2940 H   0  0  0  0  0  0  0  0  0  0  0  0
   47.8150   32.8700   48.9080 H   0  0  0  0  0  0  0  0  0  0  0  0
   48.4080   30.4120   48.9770 H   0  0  0  0  0  0  0  0  0  0  0  0
   46.7350   30.7540   49.5760 H   0  0  0  0  0  0  0  0  0  0  0  0
   47.7350   29.6390   46.9000 H   0  0  0  0  0  0  0  0  0  0  0  0
   46.5910   28.9110   48.0390 H   0  0  0  0  0  0  0  0  0  0  0  0
   44.8320   30.1690   47.3790 H   0  0  0  0  0  0  0  0  0  0  0  0
   45.6610   29.5900   45.5180 C   0  0  0  0  0  0  0  0  0  0  0  0
   46.6050   29.6650   44.9280 H   0  0  0  0  0  0  0  0  0  0  0  0
   45.4360   28.5360   45.7930 H   0  0  0  0  0  0  0  0  0  0  0  0
   44.7760   29.9280   44.9340 H   0  0  0  0  0  0  0  0  0  0  0  0
  1  4  1  1  0  0  0
  1  2  1  0  0  0  0
  1  3  1  0  0  0  0
  2  5  1  0  0  0  0
  2  3  1  0  0  0  0
  3  7  1  1  0  0  0
  6  2  1  0  0  0  0
  8 14  1  0  0  0  0
  8  9  1  0  0  0  0
  9  1  1  0  0  0  0
 10  9  2  0  0  0  0
 10 15  1  0  0  0  0
 11 10  1  0  0  0  0
 12 13  1  0  0  0  0
 12 11  2  0  0  0  0
 13  8  2  0  0  0  0
 16 25  1  0  0  0  0
 16 17  1  0  0  0  0
 17 12  1  0  0  0  0
 18 17  2  0  0  0  0
 18 19  1  0  0  0  0
 20 18  1  0  0  0  0
 21 20  1  0  0  0  0
 22 23  1  0  0  0  0
 22 20  2  0  0  0  0
 23 16  2  0  0  0  0
 25 24  3  0  0  0  0
 26  3  1  0  0  0  0
 26 29  1  0  0  0  0
 27 26  1  0  0  0  0
 28 26  1  0  0  0  0
 29 34  1  0  0  0  0
 29 30  1  0  0  0  0
 30 31  1  0  0  0  0
 30 35  1  0  0  0  0
 31 32  1  0  0  0  0
 31 38  1  0  0  0  0
 32 39  1  0  0  0  0
 32 40  1  0  0  0  0
 33 42  1  0  0  0  0
 33 32  1  0  0  0  0
 34 43  1  1  0  0  0
 34 33  1  0  0  0  0
 36 30  1  0  0  0  0
 37 31  1  0  0  0  0
 41 33  1  0  0  0  0
 44 46  1  0  0  0  0
 44 34  1  0  0  0  0
 45 44  1  0  0  0  0
 47 44  1  0  0  0  0
M  END
>  <minimizedAffinity>
-4.1468997

>  <minimizedRMSD>
1.21340883

$$$$
