
 OpenBabel03252507383D

 39 43  0  0  0  0  0  0  0  0999 V2000
   45.7090   34.8020   43.5300 C   0  0  0  0  0  0  0  0  0  0  0  0
   46.4250   33.7350   44.1300 C   0  0  0  0  0  0  0  0  0  0  0  0
   46.1780   33.4730   45.4580 C   0  0  0  0  0  0  0  0  0  0  0  0
   45.2750   34.2350   46.1170 N   0  0  0  0  0  0  0  0  0  0  0  0
   44.6010   35.2490   45.5270 C   0  0  0  0  0  0  0  0  0  0  0  0
   44.8190   35.5250   44.2480 N   0  0  0  0  0  0  0  0  0  0  0  0
   47.1380   33.1340   43.6120 H   0  0  0  0  0  0  0  0  0  0  0  0
   43.9030   35.7930   46.1480 H   0  0  0  0  0  0  0  0  0  0  0  0
   47.0590   32.6380   47.5710 C   0  0  0  0  0  0  0  0  0  0  0  0
   46.8240   32.4130   46.2240 C   0  0  0  0  0  0  0  0  0  0  0  0
   47.2010   31.2090   45.6950 C   0  0  0  0  0  0  0  0  0  0  0  0
   47.8000   30.2210   46.4500 C   0  0  0  0  0  0  0  0  0  0  0  0
   48.2430   28.9730   46.1390 N   0  0  0  0  0  0  0  0  0  0  0  0
   48.7500   28.4360   47.3000 C   0  0  0  0  0  0  0  0  0  0  0  0
   48.6130   29.3370   48.2770 N   0  0  0  0  0  0  0  0  0  0  0  0
   48.0340   30.4350   47.7740 C   0  0  0  0  0  0  0  0  0  0  0  0
   47.6650   31.6450   48.3390 C   0  0  0  0  0  0  0  0  0  0  0  0
   46.7840   33.5670   48.0410 H   0  0  0  0  0  0  0  0  0  0  0  0
   47.0140   31.0320   44.6280 H   0  0  0  0  0  0  0  0  0  0  0  0
   48.1860   28.5570   45.1910 H   0  0  0  0  0  0  0  0  0  0  0  0
   49.1830   27.4340   47.3700 H   0  0  0  0  0  0  0  0  0  0  0  0
   47.8570   31.8020   49.3970 H   0  0  0  0  0  0  0  0  0  0  0  0
   45.9690   35.0610   42.1780 O   0  0  0  0  0  0  0  0  0  0  0  0
   45.0470   34.6450   41.2150 C   0  0  0  0  0  0  0  0  0  0  0  0
   45.8080   33.7570   40.5480 C   0  0  0  0  0  0  0  0  0  0  0  0
   44.5860   33.1460   39.2120 S   0  0  0  0  0  0  0  0  0  0  0  0
   43.2780   34.2980   39.9130 C   0  0  0  0  0  0  0  0  0  0  0  0
   43.8260   34.7610   40.7340 N   0  0  0  0  0  0  0  0  0  0  0  0
   46.7780   33.0500   40.2010 H   0  0  0  0  0  0  0  0  0  0  0  0
   40.8600   33.6700   39.8010 C   0  0  0  0  0  0  0  0  0  0  0  0
   41.8990   34.3890   39.3270 C   0  0  0  0  0  0  0  0  0  0  0  0
   41.8100   35.2650   38.2750 C   0  0  0  0  0  0  0  0  0  0  0  0
   42.6490   35.8240   37.9160 H   0  0  0  0  0  0  0  0  0  0  0  0
   40.5600   35.3800   37.7050 C   0  0  0  0  0  0  0  0  0  0  0  0
   40.4580   36.0690   36.8670 H   0  0  0  0  0  0  0  0  0  0  0  0
   39.4860   34.6600   38.1690 C   0  0  0  0  0  3  0  0  0  0  0  0
   39.5980   33.7840   39.2280 C   0  0  0  0  0  3  0  0  0  0  0  0
   41.0890   32.0390   41.7820 N   0  0  0  0  0  0  0  0  0  0  0  0
   40.9970   32.7740   40.8940 C   0  0  0  0  0  0  0  0  0  0  0  0
  1  2  2  0  0  0  0
  1  6  1  0  0  0  0
  2  3  1  0  0  0  0
  3  4  2  0  0  0  0
  3 10  1  0  0  0  0
  5  4  1  0  0  0  0
  5  8  1  0  0  0  0
  6  5  2  0  0  0  0
  7  2  1  0  0  0  0
  9 18  1  0  0  0  0
  9 17  1  0  0  0  0
 10  9  2  0  0  0  0
 11 10  1  0  0  0  0
 11 12  2  0  0  0  0
 12 16  1  0  0  0  0
 13 12  1  0  0  0  0
 13 14  1  0  0  0  0
 14 21  1  0  0  0  0
 14 15  2  0  0  0  0
 16 15  1  0  0  0  0
 16 17  2  0  0  0  0
 17 22  1  0  0  0  0
 19 11  1  0  0  0  0
 20 13  1  0  0  0  0
 23  1  1  0  0  0  0
 24 23  1  0  0  0  0
 25 24  2  0  0  0  0
 26 27  1  0  0  0  0
 26 25  1  0  0  0  0
 27 28  2  0  0  0  0
 28 24  1  0  0  0  0
 29 25  1  0  0  0  0
 30 39  1  0  0  0  0
 31 30  1  0  0  0  0
 31 27  1  0  0  0  0
 32 31  2  0  0  0  0
 33 32  1  0  0  0  0
 34 36  2  0  0  0  0
 34 32  1  0  0  0  0
 35 34  1  0  0  0  0
 36 37  1  0  0  0  0
 37 30  2  0  0  0  0
 39 38  3  0  0  0  0
M  END
>  <minimizedAffinity>
-6.92103004

>  <minimizedRMSD>
1.46486557

$$$$
