
 OpenBabel03252507213D

 45 48  0  0  1  0  0  0  0  0999 V2000
   39.2130   27.3960   40.1310 C   0  0  0  0  0  0  0  0  0  0  0  0
   39.3120   26.3700   39.4080 O   0  0  0  0  0  0  0  0  0  0  0  0
   38.6460   27.3930   41.4420 N   0  0  0  0  0  0  0  0  0  0  0  0
   39.1030   28.0160   42.6810 C   0  0  0  0  0  0  0  0  0  0  0  0
   37.9480   28.8470   43.2820 C   0  0  0  0  0  0  0  0  0  0  0  0
   36.8290   27.9130   43.6790 C   0  0  0  0  0  0  0  0  0  0  0  0
   37.0470   26.5610   43.0600 C   0  0  0  0  0  0  0  0  0  0  0  0
   37.4150   26.6690   41.6050 C   0  0  2  0  0  0  0  0  0  0  0  0
   39.8610   28.8080   42.4160 H   0  0  0  0  0  0  0  0  0  0  0  0
   39.4600   27.3100   43.4260 H   0  0  0  0  0  0  0  0  0  0  0  0
   38.3240   29.4740   44.0870 H   0  0  0  0  0  0  0  0  0  0  0  0
   37.5620   29.4200   42.4010 H   0  0  0  0  0  0  0  0  0  0  0  0
   35.8210   28.3190   43.4630 H   0  0  0  0  0  0  0  0  0  0  0  0
   36.8830   27.7730   44.7850 H   0  0  0  0  0  0  0  0  0  0  0  0
   36.1400   25.9370   43.1640 H   0  0  0  0  0  0  0  0  0  0  0  0
   37.8430   26.0150   43.6250 H   0  0  0  0  0  0  0  0  0  0  0  0
   36.6310   27.3600   41.1700 H   0  0  0  0  0  0  0  0  0  0  0  0
   41.0950   28.8790   39.6420 C   0  0  0  0  0  0  0  0  0  0  0  0
   39.7010   28.6460   39.5980 C   0  0  0  0  0  0  0  0  0  0  0  0
   38.8660   29.5980   39.0570 C   0  0  0  0  0  0  0  0  0  0  0  0
   39.4160   30.7370   38.5800 N   0  0  0  0  0  0  0  0  0  0  0  0
   40.7510   30.9740   38.6140 C   0  0  0  0  0  0  0  0  0  0  0  0
   41.5640   30.0400   39.1450 N   0  0  0  0  0  0  0  0  0  0  0  0
   41.7590   28.1360   40.0650 H   0  0  0  0  0  0  0  0  0  0  0  0
   41.0760   31.9180   38.2050 H   0  0  0  0  0  0  0  0  0  0  0  0
   37.4410   29.3400   39.0290 C   0  0  0  0  0  0  0  0  0  0  0  0
   36.6320   29.8710   39.9900 C   0  0  0  0  0  0  0  0  0  0  0  0
   35.2800   29.6180   39.9530 C   0  0  0  0  0  0  0  0  0  0  0  0
   34.6880   28.8340   38.9670 C   0  0  0  0  0  0  0  0  0  0  0  0
   35.5580   28.3250   38.0230 C   0  0  0  0  0  0  0  0  0  0  0  0
   36.8720   28.5930   38.0900 N   0  0  0  0  0  0  0  0  0  0  0  0
   36.9330   30.4910   40.8180 H   0  0  0  0  0  0  0  0  0  0  0  0
   34.5840   30.0160   40.6950 H   0  0  0  0  0  0  0  0  0  0  0  0
   33.6310   28.6160   38.9090 H   0  0  0  0  0  0  0  0  0  0  0  0
   35.2400   27.6990   37.1990 H   0  0  0  0  0  0  0  0  0  0  0  0
   38.0450   24.2780   41.2400 C   0  0  0  0  0  0  0  0  0  0  0  0
   37.2940   25.4080   40.8890 C   0  0  0  0  0  0  0  0  0  0  0  0
   36.4690   25.1560   39.7870 C   0  0  0  0  0  0  0  0  0  0  0  0
   35.8540   25.9800   39.4480 H   0  0  0  0  0  0  0  0  0  0  0  0
   36.3920   23.9520   39.1210 C   0  0  0  0  0  0  0  0  0  0  0  0
   35.7270   23.8360   38.2760 H   0  0  0  0  0  0  0  0  0  0  0  0
   37.1780   22.9050   39.5540 C   0  0  0  0  0  3  0  0  0  0  0  0
   38.0290   23.0410   40.6310 C   0  0  0  0  0  3  0  0  0  0  0  0
   39.6500   24.6020   43.2810 N   0  0  0  0  0  0  0  0  0  0  0  0
   38.9290   24.4620   42.3780 C   0  0  0  0  0  0  0  0  0  0  0  0
  1  3  1  0  0  0  0
  2  1  2  0  0  0  0
  3  8  1  0  0  0  0
  3  4  1  0  0  0  0
  4  5  1  0  0  0  0
  4 10  1  0  0  0  0
  5  6  1  0  0  0  0
  5 11  1  0  0  0  0
  6 14  1  0  0  0  0
  7 15  1  0  0  0  0
  7 16  1  0  0  0  0
  7  6  1  0  0  0  0
  8 17  1  6  0  0  0
  8  7  1  0  0  0  0
  9  4  1  0  0  0  0
 12  5  1  0  0  0  0
 13  6  1  0  0  0  0
 18 24  1  0  0  0  0
 19 18  1  0  0  0  0
 19  1  1  0  0  0  0
 20 19  2  0  0  0  0
 21 22  2  0  0  0  0
 21 20  1  0  0  0  0
 22 23  1  0  0  0  0
 23 18  2  0  0  0  0
 25 22  1  0  0  0  0
 26 20  1  0  0  0  0
 26 27  1  0  0  0  0
 27 32  1  0  0  0  0
 28 27  2  0  0  0  0
 28 33  1  0  0  0  0
 29 28  1  0  0  0  0
 30 31  1  0  0  0  0
 30 29  2  0  0  0  0
 31 26  2  0  0  0  0
 34 29  1  0  0  0  0
 35 30  1  0  0  0  0
 36 45  1  0  0  0  0
 37 36  1  0  0  0  0
 37  8  1  0  0  0  0
 38 37  2  0  0  0  0
 39 38  1  0  0  0  0
 40 42  2  0  0  0  0
 40 38  1  0  0  0  0
 41 40  1  0  0  0  0
 42 43  1  0  0  0  0
 43 36  2  0  0  0  0
 45 44  3  0  0  0  0
M  END
>  <minimizedAffinity>
-5.9966116

$$$$

 OpenBabel03252507213D

 45 48  0  0  1  0  0  0  0  0999 V2000
   38.0630   30.2060   39.7890 C   0  0  0  0  0  0  0  0  0  0  0  0
   37.5630   30.0120   38.6500 O   0  0  0  0  0  0  0  0  0  0  0  0
   37.9130   29.3050   40.8880 N   0  0  0  0  0  0  0  0  0  0  0  0
   38.8880   28.8060   41.8520 C   0  0  0  0  0  0  0  0  0  0  0  0
   38.3480   29.0380   43.2800 C   0  0  0  0  0  0  0  0  0  0  0  0
   37.1070   28.1970   43.4760 C   0  0  0  0  0  0  0  0  0  0  0  0
   36.6160   27.6950   42.1480 C   0  0  0  0  0  0  0  0  0  0  0  0
   36.5910   28.7870   41.1140 C   0  0  2  0  0  0  0  0  0  0  0  0
   39.7900   29.4810   41.8200 H   0  0  0  0  0  0  0  0  0  0  0  0
   39.1340   27.7540   41.7300 H   0  0  0  0  0  0  0  0  0  0  0  0
   39.1360   28.8610   44.0080 H   0  0  0  0  0  0  0  0  0  0  0  0
   37.9900   30.0990   43.2470 H   0  0  0  0  0  0  0  0  0  0  0  0
   36.3140   28.7130   44.0510 H   0  0  0  0  0  0  0  0  0  0  0  0
   37.3990   27.3000   44.0730 H   0  0  0  0  0  0  0  0  0  0  0  0
   35.6030   27.2620   42.2490 H   0  0  0  0  0  0  0  0  0  0  0  0
   37.2620   26.8470   41.8060 H   0  0  0  0  0  0  0  0  0  0  0  0
   36.0470   29.6390   41.6220 H   0  0  0  0  0  0  0  0  0  0  0  0
   38.1840   32.5060   40.6100 C   0  0  0  0  0  0  0  0  0  0  0  0
   38.8300   31.4120   39.9920 C   0  0  0  0  0  0  0  0  0  0  0  0
   40.1490   31.5250   39.6090 C   0  0  0  0  0  0  0  0  0  0  0  0
   40.7870   32.6940   39.8430 N   0  0  0  0  0  0  0  0  0  0  0  0
   40.1800   33.7520   40.4360 C   0  0  0  0  0  0  0  0  0  0  0  0
   38.8900   33.6370   40.8080 N   0  0  0  0  0  0  0  0  0  0  0  0
   37.1480   32.4260   40.9150 H   0  0  0  0  0  0  0  0  0  0  0  0
   40.7870   34.6330   40.5710 H   0  0  0  0  0  0  0  0  0  0  0  0
   40.7890   30.3930   38.9700 C   0  0  0  0  0  0  0  0  0  0  0  0
   41.5350   29.5240   39.7080 C   0  0  0  0  0  0  0  0  0  0  0  0
   42.1370   28.4530   39.0890 C   0  0  0  0  0  0  0  0  0  0  0  0
   42.0210   28.2100   37.7230 C   0  0  0  0  0  0  0  0  0  0  0  0
   41.2530   29.1250   37.0300 C   0  0  0  0  0  0  0  0  0  0  0  0
   40.6800   30.1580   37.6680 N   0  0  0  0  0  0  0  0  0  0  0  0
   41.7250   29.5740   40.7680 H   0  0  0  0  0  0  0  0  0  0  0  0
   42.7470   27.7240   39.6300 H   0  0  0  0  0  0  0  0  0  0  0  0
   42.4810   27.3790   37.2070 H   0  0  0  0  0  0  0  0  0  0  0  0
   41.0760   29.0630   35.9640 H   0  0  0  0  0  0  0  0  0  0  0  0
   36.1320   27.3500   39.1220 C   0  0  0  0  0  0  0  0  0  0  0  0
   35.8090   28.4440   39.9360 C   0  0  0  0  0  0  0  0  0  0  0  0
   34.6900   29.1310   39.4550 C   0  0  0  0  0  0  0  0  0  0  0  0
   34.3720   29.9940   40.0280 H   0  0  0  0  0  0  0  0  0  0  0  0
   33.9810   28.7870   38.3240 C   0  0  0  0  0  0  0  0  0  0  0  0
   33.1230   29.3700   38.0170 H   0  0  0  0  0  0  0  0  0  0  0  0
   34.3890   27.6890   37.5960 C   0  0  0  0  0  3  0  0  0  0  0  0
   35.4800   26.9380   37.9780 C   0  0  0  0  0  3  0  0  0  0  0  0
   38.2180   25.9690   39.8880 N   0  0  0  0  0  0  0  0  0  0  0  0
   37.2880   26.5850   39.5570 C   0  0  0  0  0  0  0  0  0  0  0  0
  1 19  1  0  0  0  0
  1  3  1  0  0  0  0
  2  1  2  0  0  0  0
  3  8  1  0  0  0  0
  3  4  1  0  0  0  0
  4  5  1  0  0  0  0
  5  6  1  0  0  0  0
  5 11  1  0  0  0  0
  6 13  1  0  0  0  0
  6 14  1  0  0  0  0
  7 15  1  0  0  0  0
  7  6  1  0  0  0  0
  8 17  1  1  0  0  0
  8  7  1  0  0  0  0
  9  4  1  0  0  0  0
 10  4  1  0  0  0  0
 12  5  1  0  0  0  0
 16  7  1  0  0  0  0
 18 23  1  0  0  0  0
 18 24  1  0  0  0  0
 19 18  2  0  0  0  0
 20 21  2  0  0  0  0
 20 19  1  0  0  0  0
 21 22  1  0  0  0  0
 22 25  1  0  0  0  0
 22 23  2  0  0  0  0
 26 20  1  0  0  0  0
 26 27  1  0  0  0  0
 27 32  1  0  0  0  0
 28 33  1  0  0  0  0
 28 27  2  0  0  0  0
 29 28  1  0  0  0  0
 30 31  1  0  0  0  0
 30 29  2  0  0  0  0
 31 26  2  0  0  0  0
 34 29  1  0  0  0  0
 35 30  1  0  0  0  0
 36 45  1  0  0  0  0
 36 37  1  0  0  0  0
 37  8  1  0  0  0  0
 38 37  2  0  0  0  0
 38 39  1  0  0  0  0
 40 38  1  0  0  0  0
 41 40  1  0  0  0  0
 42 43  1  0  0  0  0
 42 40  2  0  0  0  0
 43 36  2  0  0  0  0
 45 44  3  0  0  0  0
M  END
>  <minimizedAffinity>
-5.95902681

$$$$

 OpenBabel03252507213D

 45 48  0  0  1  0  0  0  0  0999 V2000
   39.1160   28.7570   40.9090 C   0  0  0  0  0  0  0  0  0  0  0  0
   38.5830   29.7270   41.5090 O   0  0  0  0  0  0  0  0  0  0  0  0
   40.0010   28.8990   39.7960 N   0  0  0  0  0  0  0  0  0  0  0  0
   41.2720   28.2460   39.4990 C   0  0  0  0  0  0  0  0  0  0  0  0
   41.2090   27.6450   38.0770 C   0  0  0  0  0  0  0  0  0  0  0  0
   41.0810   28.7710   37.0770 C   0  0  0  0  0  0  0  0  0  0  0  0
   40.7130   30.0450   37.7850 C   0  0  0  0  0  0  0  0  0  0  0  0
   39.6020   29.8300   38.7760 C   0  0  2  0  0  0  0  0  0  0  0  0
   41.3540   27.3270   40.1470 H   0  0  0  0  0  0  0  0  0  0  0  0
   42.1350   28.9020   39.5720 H   0  0  0  0  0  0  0  0  0  0  0  0
   42.0600   26.9880   37.9140 H   0  0  0  0  0  0  0  0  0  0  0  0
   40.2200   27.1200   38.0670 H   0  0  0  0  0  0  0  0  0  0  0  0
   40.3910   28.5390   36.2420 H   0  0  0  0  0  0  0  0  0  0  0  0
   42.0870   28.9340   36.6220 H   0  0  0  0  0  0  0  0  0  0  0  0
   40.4100   30.8190   37.0560 H   0  0  0  0  0  0  0  0  0  0  0  0
   41.6170   30.4630   38.2960 H   0  0  0  0  0  0  0  0  0  0  0  0
   38.8110   29.2710   38.1900 H   0  0  0  0  0  0  0  0  0  0  0  0
   39.8040   26.7430   42.1130 C   0  0  0  0  0  0  0  0  0  0  0  0
   38.8100   27.4260   41.3750 C   0  0  0  0  0  0  0  0  0  0  0  0
   37.6000   26.8130   41.1300 C   0  0  0  0  0  0  0  0  0  0  0  0
   37.4040   25.5650   41.6100 N   0  0  0  0  0  0  0  0  0  0  0  0
   38.3480   24.8990   42.3200 C   0  0  0  0  0  0  0  0  0  0  0  0
   39.5290   25.5000   42.5570 N   0  0  0  0  0  0  0  0  0  0  0  0
   40.7570   27.2160   42.3110 H   0  0  0  0  0  0  0  0  0  0  0  0
   38.0800   23.9080   42.6520 H   0  0  0  0  0  0  0  0  0  0  0  0
   36.5990   27.5300   40.3660 C   0  0  0  0  0  0  0  0  0  0  0  0
   35.8910   28.5400   40.9450 C   0  0  0  0  0  0  0  0  0  0  0  0
   34.9430   29.2120   40.2080 C   0  0  0  0  0  0  0  0  0  0  0  0
   34.6670   28.9060   38.8790 C   0  0  0  0  0  0  0  0  0  0  0  0
   35.4160   27.8740   38.3490 C   0  0  0  0  0  0  0  0  0  0  0  0
   36.3330   27.2410   39.0970 N   0  0  0  0  0  0  0  0  0  0  0  0
   35.9810   28.8940   41.9590 H   0  0  0  0  0  0  0  0  0  0  0  0
   34.3450   30.0300   40.6200 H   0  0  0  0  0  0  0  0  0  0  0  0
   33.9300   29.4140   38.2730 H   0  0  0  0  0  0  0  0  0  0  0  0
   35.3090   27.5270   37.3280 H   0  0  0  0  0  0  0  0  0  0  0  0
   37.8730   31.6230   38.5720 C   0  0  0  0  0  0  0  0  0  0  0  0
   38.9840   31.0690   39.2220 C   0  0  0  0  0  0  0  0  0  0  0  0
   39.3990   31.8620   40.2980 C   0  0  0  0  0  0  0  0  0  0  0  0
   40.2560   31.5050   40.8560 H   0  0  0  0  0  0  0  0  0  0  0  0
   38.8000   33.0410   40.6840 C   0  0  0  0  0  0  0  0  0  0  0  0
   39.1800   33.5970   41.5300 H   0  0  0  0  0  0  0  0  0  0  0  0
   37.7090   33.4930   39.9700 C   0  0  0  0  0  3  0  0  0  0  0  0
   37.2150   32.7920   38.8910 C   0  0  0  0  0  3  0  0  0  0  0  0
   36.9870   30.2270   36.5450 N   0  0  0  0  0  0  0  0  0  0  0  0
   37.3830   30.8550   37.4400 C   0  0  0  0  0  0  0  0  0  0  0  0
  1 19  1  0  0  0  0
  1  2  2  0  0  0  0
  3  1  1  0  0  0  0
  4 10  1  0  0  0  0
  4  3  1  0  0  0  0
  4  9  1  0  0  0  0
  5  4  1  0  0  0  0
  6  7  1  0  0  0  0
  6  5  1  0  0  0  0
  7 16  1  0  0  0  0
  7  8  1  0  0  0  0
  8 17  1  6  0  0  0
  8 37  1  0  0  0  0
  8  3  1  0  0  0  0
 11  5  1  0  0  0  0
 12  5  1  0  0  0  0
 13  6  1  0  0  0  0
 14  6  1  0  0  0  0
 15  7  1  0  0  0  0
 18 24  1  0  0  0  0
 18 23  1  0  0  0  0
 19 18  2  0  0  0  0
 20 19  1  0  0  0  0
 20 21  2  0  0  0  0
 21 22  1  0  0  0  0
 22 23  2  0  0  0  0
 22 25  1  0  0  0  0
 26 27  1  0  0  0  0
 26 20  1  0  0  0  0
 27 32  1  0  0  0  0
 28 33  1  0  0  0  0
 28 27  2  0  0  0  0
 29 28  1  0  0  0  0
 30 29  2  0  0  0  0
 30 31  1  0  0  0  0
 31 26  2  0  0  0  0
 34 29  1  0  0  0  0
 35 30  1  0  0  0  0
 36 43  2  0  0  0  0
 36 37  1  0  0  0  0
 37 38  2  0  0  0  0
 38 40  1  0  0  0  0
 38 39  1  0  0  0  0
 40 41  1  0  0  0  0
 42 40  2  0  0  0  0
 43 42  1  0  0  0  0
 44 45  3  0  0  0  0
 45 36  1  0  0  0  0
M  END
>  <minimizedAffinity>
-5.8532176

$$$$

 OpenBabel03252507213D

 45 48  0  0  1  0  0  0  0  0999 V2000
   39.7710   29.6770   41.3140 C   0  0  0  0  0  0  0  0  0  0  0  0
   39.3230   30.7390   41.8200 O   0  0  0  0  0  0  0  0  0  0  0  0
   40.3780   29.6060   40.0230 N   0  0  0  0  0  0  0  0  0  0  0  0
   41.5920   28.9280   39.5750 C   0  0  0  0  0  0  0  0  0  0  0  0
   41.2560   28.0510   38.3490 C   0  0  0  0  0  0  0  0  0  0  0  0
   40.8400   28.9490   37.2060 C   0  0  0  0  0  0  0  0  0  0  0  0
   40.5570   30.3320   37.7200 C   0  0  0  0  0  0  0  0  0  0  0  0
   39.7070   30.3030   38.9600 C   0  0  2  0  0  0  0  0  0  0  0  0
   41.8720   28.1610   40.3530 H   0  0  0  0  0  0  0  0  0  0  0  0
   42.4070   29.6010   39.3210 H   0  0  0  0  0  0  0  0  0  0  0  0
   42.0890   27.3900   38.1270 H   0  0  0  0  0  0  0  0  0  0  0  0
   40.3230   27.5180   38.6660 H   0  0  0  0  0  0  0  0  0  0  0  0
   39.9990   28.5400   36.6120 H   0  0  0  0  0  0  0  0  0  0  0  0
   41.7090   29.0330   36.5110 H   0  0  0  0  0  0  0  0  0  0  0  0
   40.0530   30.9370   36.9430 H   0  0  0  0  0  0  0  0  0  0  0  0
   41.5230   30.8610   37.9200 H   0  0  0  0  0  0  0  0  0  0  0  0
   38.8430   29.6230   38.6900 H   0  0  0  0  0  0  0  0  0  0  0  0
   40.7280   28.1320   42.9510 C   0  0  0  0  0  0  0  0  0  0  0  0
   39.6590   28.4620   42.0860 C   0  0  0  0  0  0  0  0  0  0  0  0
   38.5620   27.6320   42.0100 C   0  0  0  0  0  0  0  0  0  0  0  0
   38.5460   26.5180   42.7740 N   0  0  0  0  0  0  0  0  0  0  0  0
   39.5640   26.1890   43.6080 C   0  0  0  0  0  0  0  0  0  0  0  0
   40.6350   27.0030   43.6800 N   0  0  0  0  0  0  0  0  0  0  0  0
   41.5940   28.7790   43.0180 H   0  0  0  0  0  0  0  0  0  0  0  0
   39.4420   25.2760   44.1690 H   0  0  0  0  0  0  0  0  0  0  0  0
   37.4820   27.9870   41.1120 C   0  0  0  0  0  0  0  0  0  0  0  0
   37.4590   27.4910   39.8420 C   0  0  0  0  0  0  0  0  0  0  0  0
   36.4280   27.8360   38.9990 C   0  0  0  0  0  0  0  0  0  0  0  0
   35.3900   28.6800   39.3850 C   0  0  0  0  0  0  0  0  0  0  0  0
   35.4690   29.1500   40.6810 C   0  0  0  0  0  0  0  0  0  0  0  0
   36.4900   28.7910   41.4760 N   0  0  0  0  0  0  0  0  0  0  0  0
   38.1840   26.8340   39.3920 H   0  0  0  0  0  0  0  0  0  0  0  0
   36.3580   27.4700   37.9710 H   0  0  0  0  0  0  0  0  0  0  0  0
   34.5670   28.9710   38.7470 H   0  0  0  0  0  0  0  0  0  0  0  0
   34.7340   29.8140   41.1170 H   0  0  0  0  0  0  0  0  0  0  0  0
   39.9180   32.7150   39.5820 C   0  0  0  0  0  0  0  0  0  0  0  0
   39.1260   31.5960   39.2870 C   0  0  0  0  0  0  0  0  0  0  0  0
   37.7620   31.8950   39.3720 C   0  0  0  0  0  0  0  0  0  0  0  0
   37.0780   31.0830   39.1600 H   0  0  0  0  0  0  0  0  0  0  0  0
   37.2450   33.1290   39.7020 C   0  0  0  0  0  0  0  0  0  0  0  0
   36.1750   33.2810   39.7460 H   0  0  0  0  0  0  0  0  0  0  0  0
   38.1200   34.1610   39.9730 C   0  0  0  0  0  3  0  0  0  0  0  0
   39.4850   33.9800   39.9200 C   0  0  0  0  0  3  0  0  0  0  0  0
   42.4950   32.2810   39.4560 N   0  0  0  0  0  0  0  0  0  0  0  0
   41.3510   32.4830   39.5160 C   0  0  0  0  0  0  0  0  0  0  0  0
  1  2  2  0  0  0  0
  1 19  1  0  0  0  0
  3  1  1  0  0  0  0
  4  3  1  0  0  0  0
  4  9  1  0  0  0  0
  5 12  1  0  0  0  0
  5  4  1  0  0  0  0
  6  7  1  0  0  0  0
  6  5  1  0  0  0  0
  7 16  1  0  0  0  0
  7  8  1  0  0  0  0
  8 17  1  6  0  0  0
  8 37  1  0  0  0  0
  8  3  1  0  0  0  0
 10  4  1  0  0  0  0
 11  5  1  0  0  0  0
 13  6  1  0  0  0  0
 14  6  1  0  0  0  0
 15  7  1  0  0  0  0
 18 24  1  0  0  0  0
 18 23  1  0  0  0  0
 19 18  2  0  0  0  0
 20 19  1  0  0  0  0
 20 21  2  0  0  0  0
 21 22  1  0  0  0  0
 22 23  2  0  0  0  0
 22 25  1  0  0  0  0
 26 31  1  0  0  0  0
 26 20  1  0  0  0  0
 27 26  2  0  0  0  0
 28 29  2  0  0  0  0
 28 27  1  0  0  0  0
 29 30  1  0  0  0  0
 30 35  1  0  0  0  0
 30 31  2  0  0  0  0
 32 27  1  0  0  0  0
 33 28  1  0  0  0  0
 34 29  1  0  0  0  0
 36 43  1  0  0  0  0
 37 38  1  0  0  0  0
 37 36  2  0  0  0  0
 38 40  2  0  0  0  0
 39 38  1  0  0  0  0
 40 41  1  0  0  0  0
 40 42  1  0  0  0  0
 43 42  2  0  0  0  0
 44 45  3  0  0  0  0
 45 36  1  0  0  0  0
M  END
>  <minimizedAffinity>
-5.68789959

$$$$

 OpenBabel03252507213D

 45 48  0  0  1  0  0  0  0  0999 V2000
   39.4050   28.1000   39.9930 C   0  0  0  0  0  0  0  0  0  0  0  0
   39.5550   26.8570   40.1240 O   0  0  0  0  0  0  0  0  0  0  0  0
   38.2820   28.8230   40.5000 N   0  0  0  0  0  0  0  0  0  0  0  0
   38.2110   30.0890   41.2240 C   0  0  0  0  0  0  0  0  0  0  0  0
   37.2060   31.0210   40.5110 C   0  0  0  0  0  0  0  0  0  0  0  0
   35.8250   30.4130   40.6060 C   0  0  0  0  0  0  0  0  0  0  0  0
   35.9260   28.9780   41.0400 C   0  0  0  0  0  0  0  0  0  0  0  0
   36.9890   28.2390   40.2730 C   0  0  2  0  0  0  0  0  0  0  0  0
   39.1890   30.6310   41.0800 H   0  0  0  0  0  0  0  0  0  0  0  0
   37.9250   29.9870   42.2680 H   0  0  0  0  0  0  0  0  0  0  0  0
   37.2870   32.0280   40.9110 H   0  0  0  0  0  0  0  0  0  0  0  0
   37.4990   30.9330   39.4340 H   0  0  0  0  0  0  0  0  0  0  0  0
   35.2290   30.5330   39.6800 H   0  0  0  0  0  0  0  0  0  0  0  0
   35.2730   30.9560   41.4110 H   0  0  0  0  0  0  0  0  0  0  0  0
   34.9560   28.4650   40.9100 H   0  0  0  0  0  0  0  0  0  0  0  0
   36.1350   28.9330   42.1390 H   0  0  0  0  0  0  0  0  0  0  0  0
   36.7670   28.4780   39.1890 H   0  0  0  0  0  0  0  0  0  0  0  0
   41.6370   29.0990   39.9720 C   0  0  0  0  0  0  0  0  0  0  0  0
   40.4300   28.8320   39.2870 C   0  0  0  0  0  0  0  0  0  0  0  0
   40.2700   29.2670   37.9890 C   0  0  0  0  0  0  0  0  0  0  0  0
   41.2870   29.9420   37.4100 N   0  0  0  0  0  0  0  0  0  0  0  0
   42.4510   30.2050   38.0540 C   0  0  0  0  0  0  0  0  0  0  0  0
   42.6030   29.7780   39.3230 N   0  0  0  0  0  0  0  0  0  0  0  0
   41.7710   28.7600   40.9910 H   0  0  0  0  0  0  0  0  0  0  0  0
   43.1920   30.7520   37.4920 H   0  0  0  0  0  0  0  0  0  0  0  0
   39.0210   28.9880   37.3100 C   0  0  0  0  0  0  0  0  0  0  0  0
   38.8280   27.7830   36.7030 C   0  0  0  0  0  0  0  0  0  0  0  0
   37.6380   27.5310   36.0610 C   0  0  0  0  0  0  0  0  0  0  0  0
   36.6040   28.4620   35.9990 C   0  0  0  0  0  0  0  0  0  0  0  0
   36.8590   29.6620   36.6320 C   0  0  0  0  0  0  0  0  0  0  0  0
   38.0320   29.8730   37.2500 N   0  0  0  0  0  0  0  0  0  0  0  0
   39.5260   26.9640   36.6570 H   0  0  0  0  0  0  0  0  0  0  0  0
   37.4270   26.5840   35.5560 H   0  0  0  0  0  0  0  0  0  0  0  0
   35.6580   28.2950   35.5030 H   0  0  0  0  0  0  0  0  0  0  0  0
   36.1480   30.4780   36.6650 H   0  0  0  0  0  0  0  0  0  0  0  0
   37.0070   26.1490   41.6440 C   0  0  0  0  0  0  0  0  0  0  0  0
   36.8890   26.7930   40.4050 C   0  0  0  0  0  0  0  0  0  0  0  0
   36.6910   25.8780   39.3660 C   0  0  0  0  0  0  0  0  0  0  0  0
   36.5900   26.2940   38.3710 H   0  0  0  0  0  0  0  0  0  0  0  0
   36.6180   24.5110   39.5230 C   0  0  0  0  0  0  0  0  0  0  0  0
   36.4620   23.8680   38.6680 H   0  0  0  0  0  0  0  0  0  0  0  0
   36.7480   23.9840   40.7920 C   0  0  0  0  0  3  0  0  0  0  0  0
   36.9460   24.7930   41.8900 C   0  0  0  0  0  3  0  0  0  0  0  0
   37.3680   27.7540   43.6780 N   0  0  0  0  0  0  0  0  0  0  0  0
   37.2160   27.0360   42.7750 C   0  0  0  0  0  0  0  0  0  0  0  0
  1  2  2  0  0  0  0
  1  3  1  0  0  0  0
  3  4  1  0  0  0  0
  4 10  1  0  0  0  0
  5  6  1  0  0  0  0
  5 11  1  0  0  0  0
  5  4  1  0  0  0  0
  6  7  1  0  0  0  0
  6 14  1  0  0  0  0
  7 16  1  0  0  0  0
  8 17  1  6  0  0  0
  8 37  1  0  0  0  0
  8  3  1  0  0  0  0
  8  7  1  0  0  0  0
  9  4  1  0  0  0  0
 12  5  1  0  0  0  0
 13  6  1  0  0  0  0
 15  7  1  0  0  0  0
 18 24  1  0  0  0  0
 19 18  2  0  0  0  0
 19  1  1  0  0  0  0
 20 19  1  0  0  0  0
 21 20  2  0  0  0  0
 21 22  1  0  0  0  0
 22 23  2  0  0  0  0
 23 18  1  0  0  0  0
 25 22  1  0  0  0  0
 26 20  1  0  0  0  0
 27 26  2  0  0  0  0
 28 27  1  0  0  0  0
 29 28  2  0  0  0  0
 29 30  1  0  0  0  0
 30 35  1  0  0  0  0
 30 31  2  0  0  0  0
 31 26  1  0  0  0  0
 32 27  1  0  0  0  0
 33 28  1  0  0  0  0
 34 29  1  0  0  0  0
 36 43  1  0  0  0  0
 36 45  1  0  0  0  0
 37 36  2  0  0  0  0
 38 40  2  0  0  0  0
 38 37  1  0  0  0  0
 39 38  1  0  0  0  0
 40 42  1  0  0  0  0
 41 40  1  0  0  0  0
 42 43  2  0  0  0  0
 45 44  3  0  0  0  0
M  END
>  <minimizedAffinity>
-5.62810802

$$$$

 OpenBabel03252507213D

 45 48  0  0  1  0  0  0  0  0999 V2000
   39.1710   29.0670   39.9530 C   0  0  0  0  0  0  0  0  0  0  0  0
   40.4130   29.2720   39.9490 O   0  0  0  0  0  0  0  0  0  0  0  0
   38.4140   28.7810   41.1300 N   0  0  0  0  0  0  0  0  0  0  0  0
   37.1300   29.3020   41.5890 C   0  0  0  0  0  0  0  0  0  0  0  0
   36.1980   28.1180   41.9270 C   0  0  0  0  0  0  0  0  0  0  0  0
   36.7770   27.3590   43.0990 C   0  0  0  0  0  0  0  0  0  0  0  0
   38.2030   27.7770   43.3240 C   0  0  0  0  0  0  0  0  0  0  0  0
   38.9800   27.8200   42.0370 C   0  0  2  0  0  0  0  0  0  0  0  0
   36.6100   29.7780   40.7090 H   0  0  0  0  0  0  0  0  0  0  0  0
   37.2020   29.9590   42.4530 H   0  0  0  0  0  0  0  0  0  0  0  0
   35.1830   28.4770   42.0760 H   0  0  0  0  0  0  0  0  0  0  0  0
   36.3170   27.4410   41.0430 H   0  0  0  0  0  0  0  0  0  0  0  0
   36.6690   26.2610   43.0060 H   0  0  0  0  0  0  0  0  0  0  0  0
   36.2060   27.6590   44.0100 H   0  0  0  0  0  0  0  0  0  0  0  0
   38.7010   27.0880   44.0310 H   0  0  0  0  0  0  0  0  0  0  0  0
   38.2250   28.7770   43.8270 H   0  0  0  0  0  0  0  0  0  0  0  0
   38.7640   26.8220   41.5480 H   0  0  0  0  0  0  0  0  0  0  0  0
   38.1790   27.8980   38.0470 C   0  0  0  0  0  0  0  0  0  0  0  0
   38.4750   29.1230   38.6880 C   0  0  0  0  0  0  0  0  0  0  0  0
   38.0970   30.3100   38.1010 C   0  0  0  0  0  0  0  0  0  0  0  0
   37.4480   30.2620   36.9170 N   0  0  0  0  0  0  0  0  0  0  0  0
   37.1560   29.0960   36.2900 C   0  0  0  0  0  0  0  0  0  0  0  0
   37.5280   27.9370   36.8670 N   0  0  0  0  0  0  0  0  0  0  0  0
   38.4720   26.9600   38.5010 H   0  0  0  0  0  0  0  0  0  0  0  0
   36.6350   29.1800   35.3500 H   0  0  0  0  0  0  0  0  0  0  0  0
   38.4190   31.5530   38.7740 C   0  0  0  0  0  0  0  0  0  0  0  0
   37.4670   32.2010   39.5030 C   0  0  0  0  0  0  0  0  0  0  0  0
   37.7840   33.3800   40.1360 C   0  0  0  0  0  0  0  0  0  0  0  0
   39.0510   33.9540   40.0680 C   0  0  0  0  0  0  0  0  0  0  0  0
   39.9710   33.2510   39.3160 C   0  0  0  0  0  0  0  0  0  0  0  0
   39.6260   32.1030   38.7120 N   0  0  0  0  0  0  0  0  0  0  0  0
   36.4440   31.8930   39.6490 H   0  0  0  0  0  0  0  0  0  0  0  0
   37.0620   33.9440   40.7330 H   0  0  0  0  0  0  0  0  0  0  0  0
   39.3330   34.8780   40.5530 H   0  0  0  0  0  0  0  0  0  0  0  0
   40.9940   33.5770   39.1740 H   0  0  0  0  0  0  0  0  0  0  0  0
   41.2760   26.8660   41.7750 C   0  0  0  0  0  0  0  0  0  0  0  0
   40.4200   27.8750   42.2380 C   0  0  0  0  0  0  0  0  0  0  0  0
   41.1260   28.8810   42.9080 C   0  0  0  0  0  0  0  0  0  0  0  0
   40.5380   29.7020   43.3000 H   0  0  0  0  0  0  0  0  0  0  0  0
   42.4910   28.8940   43.0950 C   0  0  0  0  0  0  0  0  0  0  0  0
   42.9630   29.7100   43.6250 H   0  0  0  0  0  0  0  0  0  0  0  0
   43.2370   27.8460   42.5960 C   0  0  0  0  0  3  0  0  0  0  0  0
   42.6460   26.8010   41.9190 C   0  0  0  0  0  3  0  0  0  0  0  0
   40.1020   24.9100   40.4960 N   0  0  0  0  0  0  0  0  0  0  0  0
   40.6150   25.7830   41.0680 C   0  0  0  0  0  0  0  0  0  0  0  0
  1  3  1  0  0  0  0
  2  1  2  0  0  0  0
  3  4  1  0  0  0  0
  3  8  1  0  0  0  0
  4  5  1  0  0  0  0
  4 10  1  0  0  0  0
  5 11  1  0  0  0  0
  5  6  1  0  0  0  0
  6  7  1  0  0  0  0
  6 14  1  0  0  0  0
  7 16  1  0  0  0  0
  7 15  1  0  0  0  0
  8 17  1  6  0  0  0
  8 37  1  0  0  0  0
  8  7  1  0  0  0  0
  9  4  1  0  0  0  0
 12  5  1  0  0  0  0
 13  6  1  0  0  0  0
 18 24  1  0  0  0  0
 18 19  1  0  0  0  0
 19  1  1  0  0  0  0
 20 19  2  0  0  0  0
 20 26  1  0  0  0  0
 21 20  1  0  0  0  0
 22 23  1  0  0  0  0
 22 21  2  0  0  0  0
 23 18  2  0  0  0  0
 25 22  1  0  0  0  0
 26 27  1  0  0  0  0
 27 32  1  0  0  0  0
 27 28  2  0  0  0  0
 28 33  1  0  0  0  0
 29 28  1  0  0  0  0
 29 34  1  0  0  0  0
 30 29  2  0  0  0  0
 31 26  2  0  0  0  0
 31 30  1  0  0  0  0
 35 30  1  0  0  0  0
 36 43  2  0  0  0  0
 36 37  1  0  0  0  0
 37 38  2  0  0  0  0
 38 40  1  0  0  0  0
 38 39  1  0  0  0  0
 40 41  1  0  0  0  0
 42 40  2  0  0  0  0
 43 42  1  0  0  0  0
 44 45  3  0  0  0  0
 45 36  1  0  0  0  0
M  END
>  <minimizedAffinity>
-5.57599831

$$$$

 OpenBabel03252507213D

 45 48  0  0  1  0  0  0  0  0999 V2000
   38.6890   30.8970   41.0470 C   0  0  0  0  0  0  0  0  0  0  0  0
   38.6280   30.2400   42.1190 O   0  0  0  0  0  0  0  0  0  0  0  0
   37.7980   30.7080   39.9460 N   0  0  0  0  0  0  0  0  0  0  0  0
   37.0960   31.6760   39.1100 C   0  0  0  0  0  0  0  0  0  0  0  0
   37.3800   31.3600   37.6250 C   0  0  0  0  0  0  0  0  0  0  0  0
   36.7800   30.0140   37.2890 C   0  0  0  0  0  0  0  0  0  0  0  0
   36.4200   29.2850   38.5530 C   0  0  0  0  0  0  0  0  0  0  0  0
   37.5300   29.3480   39.5670 C   0  0  2  0  0  0  0  0  0  0  0  0
   37.5910   32.6800   39.2450 H   0  0  0  0  0  0  0  0  0  0  0  0
   36.0210   31.7030   39.2710 H   0  0  0  0  0  0  0  0  0  0  0  0
   37.0350   32.1800   37.0000 H   0  0  0  0  0  0  0  0  0  0  0  0
   38.4890   31.2080   37.6060 H   0  0  0  0  0  0  0  0  0  0  0  0
   37.4180   29.4060   36.6180 H   0  0  0  0  0  0  0  0  0  0  0  0
   35.8260   30.1980   36.7400 H   0  0  0  0  0  0  0  0  0  0  0  0
   36.1820   28.2280   38.3340 H   0  0  0  0  0  0  0  0  0  0  0  0
   35.4780   29.7140   38.9770 H   0  0  0  0  0  0  0  0  0  0  0  0
   38.4530   29.0370   38.9890 H   0  0  0  0  0  0  0  0  0  0  0  0
   39.3290   33.2130   40.5930 C   0  0  0  0  0  0  0  0  0  0  0  0
   39.7230   31.8970   40.9280 C   0  0  0  0  0  0  0  0  0  0  0  0
   41.0570   31.6140   41.1280 C   0  0  0  0  0  0  0  0  0  0  0  0
   41.9520   32.6170   40.9970 N   0  0  0  0  0  0  0  0  0  0  0  0
   41.5900   33.8840   40.6780 C   0  0  0  0  0  0  0  0  0  0  0  0
   40.2850   34.1570   40.4820 N   0  0  0  0  0  0  0  0  0  0  0  0
   38.2840   33.4450   40.4340 H   0  0  0  0  0  0  0  0  0  0  0  0
   42.3910   34.6020   40.6000 H   0  0  0  0  0  0  0  0  0  0  0  0
   41.4370   30.2560   41.4630 C   0  0  0  0  0  0  0  0  0  0  0  0
   41.6810   29.3520   40.4730 C   0  0  0  0  0  0  0  0  0  0  0  0
   42.0410   28.0660   40.8040 C   0  0  0  0  0  0  0  0  0  0  0  0
   42.1700   27.6360   42.1210 C   0  0  0  0  0  0  0  0  0  0  0  0
   41.9100   28.5970   43.0780 C   0  0  0  0  0  0  0  0  0  0  0  0
   41.5620   29.8420   42.7180 N   0  0  0  0  0  0  0  0  0  0  0  0
   41.6200   29.5240   39.4110 H   0  0  0  0  0  0  0  0  0  0  0  0
   42.2480   27.2980   40.0530 H   0  0  0  0  0  0  0  0  0  0  0  0
   42.4510   26.6340   42.4150 H   0  0  0  0  0  0  0  0  0  0  0  0
   41.9710   28.4060   44.1420 H   0  0  0  0  0  0  0  0  0  0  0  0
   38.0640   27.1620   40.6550 C   0  0  0  0  0  0  0  0  0  0  0  0
   37.3760   28.3830   40.6450 C   0  0  0  0  0  0  0  0  0  0  0  0
   36.5460   28.5150   41.7640 C   0  0  0  0  0  0  0  0  0  0  0  0
   35.9760   29.4330   41.8340 H   0  0  0  0  0  0  0  0  0  0  0  0
   36.4120   27.5730   42.7600 C   0  0  0  0  0  0  0  0  0  0  0  0
   35.7480   27.7500   43.5950 H   0  0  0  0  0  0  0  0  0  0  0  0
   37.1390   26.4040   42.6670 C   0  0  0  0  0  3  0  0  0  0  0  0
   37.9880   26.1670   41.6070 C   0  0  0  0  0  3  0  0  0  0  0  0
   39.6640   26.7680   38.6230 N   0  0  0  0  0  0  0  0  0  0  0  0
   38.9470   26.9500   39.5210 C   0  0  0  0  0  0  0  0  0  0  0  0
  1  2  2  0  0  0  0
  3  1  1  0  0  0  0
  4  9  1  0  0  0  0
  4 10  1  0  0  0  0
  4  3  1  0  0  0  0
  5  4  1  0  0  0  0
  6  5  1  0  0  0  0
  6  7  1  0  0  0  0
  7 16  1  0  0  0  0
  7  8  1  0  0  0  0
  8 17  1  6  0  0  0
  8  3  1  0  0  0  0
  8 37  1  0  0  0  0
 11  5  1  0  0  0  0
 12  5  1  0  0  0  0
 13  6  1  0  0  0  0
 14  6  1  0  0  0  0
 15  7  1  0  0  0  0
 18 19  1  0  0  0  0
 19  1  1  0  0  0  0
 19 20  2  0  0  0  0
 20 26  1  0  0  0  0
 21 20  1  0  0  0  0
 22 21  2  0  0  0  0
 23 18  2  0  0  0  0
 23 22  1  0  0  0  0
 24 18  1  0  0  0  0
 25 22  1  0  0  0  0
 26 31  1  0  0  0  0
 27 28  1  0  0  0  0
 27 26  2  0  0  0  0
 28 29  2  0  0  0  0
 29 34  1  0  0  0  0
 29 30  1  0  0  0  0
 30 35  1  0  0  0  0
 31 30  2  0  0  0  0
 32 27  1  0  0  0  0
 33 28  1  0  0  0  0
 36 43  1  0  0  0  0
 37 36  2  0  0  0  0
 37 38  1  0  0  0  0
 38 39  1  0  0  0  0
 38 40  2  0  0  0  0
 40 41  1  0  0  0  0
 42 40  1  0  0  0  0
 43 42  2  0  0  0  0
 44 45  3  0  0  0  0
 45 36  1  0  0  0  0
M  END
>  <minimizedAffinity>
-5.564744

$$$$

 OpenBabel03252507213D

 45 48  0  0  1  0  0  0  0  0999 V2000
   39.7060   29.6170   39.3890 C   0  0  0  0  0  0  0  0  0  0  0  0
   40.1310   29.3840   40.5510 O   0  0  0  0  0  0  0  0  0  0  0  0
   38.3280   29.8180   39.0720 N   0  0  0  0  0  0  0  0  0  0  0  0
   37.6790   30.8170   38.2280 C   0  0  0  0  0  0  0  0  0  0  0  0
   36.7620   30.0990   37.2130 C   0  0  0  0  0  0  0  0  0  0  0  0
   35.6480   29.4080   37.9650 C   0  0  0  0  0  0  0  0  0  0  0  0
   35.9790   29.3490   39.4290 C   0  0  0  0  0  0  0  0  0  0  0  0
   37.3950   28.8970   39.6620 C   0  0  2  0  0  0  0  0  0  0  0  0
   38.4640   31.2780   37.5630 H   0  0  0  0  0  0  0  0  0  0  0  0
   37.0960   31.5510   38.7790 H   0  0  0  0  0  0  0  0  0  0  0  0
   36.4290   30.8020   36.4530 H   0  0  0  0  0  0  0  0  0  0  0  0
   37.4130   29.2770   36.8190 H   0  0  0  0  0  0  0  0  0  0  0  0
   35.3910   28.4140   37.5500 H   0  0  0  0  0  0  0  0  0  0  0  0
   34.7330   30.0390   37.8650 H   0  0  0  0  0  0  0  0  0  0  0  0
   35.2850   28.6680   39.9550 H   0  0  0  0  0  0  0  0  0  0  0  0
   35.8080   30.3530   39.8920 H   0  0  0  0  0  0  0  0  0  0  0  0
   37.4960   27.9630   39.0310 H   0  0  0  0  0  0  0  0  0  0  0  0
   40.7940   28.5550   37.4740 C   0  0  0  0  0  0  0  0  0  0  0  0
   40.6720   29.6820   38.3180 C   0  0  0  0  0  0  0  0  0  0  0  0
   41.4620   30.7890   38.0980 C   0  0  0  0  0  0  0  0  0  0  0  0
   42.3370   30.7590   37.0680 N   0  0  0  0  0  0  0  0  0  0  0  0
   42.4640   29.6850   36.2490 C   0  0  0  0  0  0  0  0  0  0  0  0
   41.6900   28.6050   36.4690 N   0  0  0  0  0  0  0  0  0  0  0  0
   40.1770   27.6810   37.6390 H   0  0  0  0  0  0  0  0  0  0  0  0
   43.1950   29.7740   35.4610 H   0  0  0  0  0  0  0  0  0  0  0  0
   41.3250   31.9300   38.9810 C   0  0  0  0  0  0  0  0  0  0  0  0
   42.1750   32.0840   40.0350 C   0  0  0  0  0  0  0  0  0  0  0  0
   42.0330   33.1710   40.8670 C   0  0  0  0  0  0  0  0  0  0  0  0
   41.0480   34.1370   40.6820 C   0  0  0  0  0  0  0  0  0  0  0  0
   40.2190   33.9260   39.5990 C   0  0  0  0  0  0  0  0  0  0  0  0
   40.3870   32.8540   38.8080 N   0  0  0  0  0  0  0  0  0  0  0  0
   42.9820   31.4270   40.3160 H   0  0  0  0  0  0  0  0  0  0  0  0
   42.6850   33.3450   41.7270 H   0  0  0  0  0  0  0  0  0  0  0  0
   40.9100   35.0010   41.3160 H   0  0  0  0  0  0  0  0  0  0  0  0
   39.4090   34.5940   39.3330 H   0  0  0  0  0  0  0  0  0  0  0  0
   38.0260   27.1870   41.3710 C   0  0  0  0  0  0  0  0  0  0  0  0
   37.6490   28.4950   41.0370 C   0  0  0  0  0  0  0  0  0  0  0  0
   37.5400   29.3050   42.1720 C   0  0  0  0  0  0  0  0  0  0  0  0
   37.2510   30.3350   42.0020 H   0  0  0  0  0  0  0  0  0  0  0  0
   37.7730   28.8860   43.4640 C   0  0  0  0  0  0  0  0  0  0  0  0
   37.6680   29.5760   44.2900 H   0  0  0  0  0  0  0  0  0  0  0  0
   38.1400   27.5740   43.6770 C   0  0  0  0  0  3  0  0  0  0  0  0
   38.2770   26.6860   42.6310 C   0  0  0  0  0  3  0  0  0  0  0  0
   38.2530   25.5480   39.3450 N   0  0  0  0  0  0  0  0  0  0  0  0
   38.1590   26.2820   40.2420 C   0  0  0  0  0  0  0  0  0  0  0  0
  1  2  2  0  0  0  0
  3  1  1  0  0  0  0
  3  8  1  0  0  0  0
  4 10  1  0  0  0  0
  4  3  1  0  0  0  0
  5  6  1  0  0  0  0
  5  4  1  0  0  0  0
  6  7  1  0  0  0  0
  7  8  1  0  0  0  0
  7 16  1  0  0  0  0
  7 15  1  0  0  0  0
  8 17  1  6  0  0  0
  8 37  1  0  0  0  0
  9  4  1  0  0  0  0
 11  5  1  0  0  0  0
 12  5  1  0  0  0  0
 13  6  1  0  0  0  0
 14  6  1  0  0  0  0
 18 24  1  0  0  0  0
 18 19  1  0  0  0  0
 19  1  1  0  0  0  0
 20 19  2  0  0  0  0
 20 26  1  0  0  0  0
 21 20  1  0  0  0  0
 22 23  1  0  0  0  0
 22 21  2  0  0  0  0
 23 18  2  0  0  0  0
 25 22  1  0  0  0  0
 26 27  1  0  0  0  0
 27 32  1  0  0  0  0
 27 28  2  0  0  0  0
 28 33  1  0  0  0  0
 29 28  1  0  0  0  0
 29 34  1  0  0  0  0
 30 29  2  0  0  0  0
 31 26  2  0  0  0  0
 31 30  1  0  0  0  0
 35 30  1  0  0  0  0
 36 43  1  0  0  0  0
 37 36  2  0  0  0  0
 37 38  1  0  0  0  0
 38 40  2  0  0  0  0
 39 38  1  0  0  0  0
 40 42  1  0  0  0  0
 40 41  1  0  0  0  0
 43 42  2  0  0  0  0
 44 45  3  0  0  0  0
 45 36  1  0  0  0  0
M  END
>  <minimizedAffinity>
-5.55903053

$$$$

 OpenBabel03252507213D

 45 48  0  0  1  0  0  0  0  0999 V2000
   38.6360   28.1490   39.9220 C   0  0  0  0  0  0  0  0  0  0  0  0
   39.8940   28.1410   39.8690 O   0  0  0  0  0  0  0  0  0  0  0  0
   37.7920   28.2550   38.7750 N   0  0  0  0  0  0  0  0  0  0  0  0
   36.5880   27.5170   38.4050 C   0  0  0  0  0  0  0  0  0  0  0  0
   35.4650   28.5220   38.0680 C   0  0  0  0  0  0  0  0  0  0  0  0
   35.8630   29.3050   36.8370 C   0  0  0  0  0  0  0  0  0  0  0  0
   37.3260   29.1050   36.5560 C   0  0  0  0  0  0  0  0  0  0  0  0
   38.1570   29.2480   37.8010 C   0  0  2  0  0  0  0  0  0  0  0  0
   36.1900   27.0090   39.3290 H   0  0  0  0  0  0  0  0  0  0  0  0
   36.7240   26.8390   37.5660 H   0  0  0  0  0  0  0  0  0  0  0  0
   34.5140   28.0020   37.9870 H   0  0  0  0  0  0  0  0  0  0  0  0
   35.5140   29.2520   38.9160 H   0  0  0  0  0  0  0  0  0  0  0  0
   35.5860   30.3760   36.8910 H   0  0  0  0  0  0  0  0  0  0  0  0
   35.3060   28.8760   35.9710 H   0  0  0  0  0  0  0  0  0  0  0  0
   37.6750   29.8290   35.7960 H   0  0  0  0  0  0  0  0  0  0  0  0
   37.4840   28.0980   36.0940 H   0  0  0  0  0  0  0  0  0  0  0  0
   37.8070   30.2220   38.2600 H   0  0  0  0  0  0  0  0  0  0  0  0
   37.8170   26.7520   41.7540 C   0  0  0  0  0  0  0  0  0  0  0  0
   38.0160   28.0460   41.2220 C   0  0  0  0  0  0  0  0  0  0  0  0
   37.6230   29.1500   41.9460 C   0  0  0  0  0  0  0  0  0  0  0  0
   37.0530   28.9540   43.1560 N   0  0  0  0  0  0  0  0  0  0  0  0
   36.8560   27.7190   43.6800 C   0  0  0  0  0  0  0  0  0  0  0  0
   37.2420   26.6420   42.9680 N   0  0  0  0  0  0  0  0  0  0  0  0
   38.1230   25.8780   41.1930 H   0  0  0  0  0  0  0  0  0  0  0  0
   36.3920   27.6850   44.6530 H   0  0  0  0  0  0  0  0  0  0  0  0
   37.8310   30.4660   41.3770 C   0  0  0  0  0  0  0  0  0  0  0  0
   36.8350   31.0690   40.6690 C   0  0  0  0  0  0  0  0  0  0  0  0
   37.0450   32.3190   40.1330 C   0  0  0  0  0  0  0  0  0  0  0  0
   38.2450   33.0090   40.2810 C   0  0  0  0  0  0  0  0  0  0  0  0
   39.2150   32.3470   41.0070 C   0  0  0  0  0  0  0  0  0  0  0  0
   38.9740   31.1280   41.5160 N   0  0  0  0  0  0  0  0  0  0  0  0
   35.8560   30.6690   40.4620 H   0  0  0  0  0  0  0  0  0  0  0  0
   36.2840   32.8500   39.5560 H   0  0  0  0  0  0  0  0  0  0  0  0
   38.4430   33.9900   39.8730 H   0  0  0  0  0  0  0  0  0  0  0  0
   40.1960   32.7610   41.2020 H   0  0  0  0  0  0  0  0  0  0  0  0
   40.3340   28.4060   36.9080 C   0  0  0  0  0  0  0  0  0  0  0  0
   39.5770   29.4090   37.5280 C   0  0  0  0  0  0  0  0  0  0  0  0
   40.3610   30.5230   37.8450 C   0  0  0  0  0  0  0  0  0  0  0  0
   39.8520   31.3480   38.3290 H   0  0  0  0  0  0  0  0  0  0  0  0
   41.7090   30.6370   37.5860 C   0  0  0  0  0  0  0  0  0  0  0  0
   42.2470   31.5340   37.8610 H   0  0  0  0  0  0  0  0  0  0  0  0
   42.3550   29.5850   36.9690 C   0  0  0  0  0  3  0  0  0  0  0  0
   41.6800   28.4360   36.6120 C   0  0  0  0  0  3  0  0  0  0  0  0
   38.9980   26.2480   36.2720 N   0  0  0  0  0  0  0  0  0  0  0  0
   39.5870   27.2120   36.5480 C   0  0  0  0  0  0  0  0  0  0  0  0
  1 19  1  0  0  0  0
  2  1  2  0  0  0  0
  3  1  1  0  0  0  0
  4  3  1  0  0  0  0
  4  9  1  0  0  0  0
  5  4  1  0  0  0  0
  5 12  1  0  0  0  0
  6 13  1  0  0  0  0
  6  5  1  0  0  0  0
  7  6  1  0  0  0  0
  7  8  1  0  0  0  0
  8 17  1  1  0  0  0
  8  3  1  0  0  0  0
 10  4  1  0  0  0  0
 11  5  1  0  0  0  0
 14  6  1  0  0  0  0
 15  7  1  0  0  0  0
 16  7  1  0  0  0  0
 18 23  1  0  0  0  0
 19 18  2  0  0  0  0
 19 20  1  0  0  0  0
 20 21  2  0  0  0  0
 21 22  1  0  0  0  0
 22 25  1  0  0  0  0
 23 22  2  0  0  0  0
 24 18  1  0  0  0  0
 26 31  1  0  0  0  0
 26 20  1  0  0  0  0
 27 26  2  0  0  0  0
 28 29  2  0  0  0  0
 28 27  1  0  0  0  0
 29 30  1  0  0  0  0
 30 35  1  0  0  0  0
 30 31  2  0  0  0  0
 32 27  1  0  0  0  0
 33 28  1  0  0  0  0
 34 29  1  0  0  0  0
 36 37  1  0  0  0  0
 37  8  1  0  0  0  0
 37 38  2  0  0  0  0
 38 39  1  0  0  0  0
 40 38  1  0  0  0  0
 40 41  1  0  0  0  0
 42 40  2  0  0  0  0
 43 36  2  0  0  0  0
 43 42  1  0  0  0  0
 44 45  3  0  0  0  0
 45 36  1  0  0  0  0
M  END
>  <minimizedAffinity>
-5.52499819

$$$$
