
 OpenBabel03252500373D

 47 50  0  0  1  0  0  0  0  0999 V2000
   45.6680   35.4750   43.3670 C   0  0  1  0  0  0  0  0  0  0  0  0
   44.5640   34.8890   43.9910 C   0  0  0  0  0  0  0  0  0  0  0  0
   45.8460   34.6470   44.6730 C   0  0  1  0  0  0  0  0  0  0  0  0
   45.8810   36.5750   43.4800 H   0  0  0  0  0  0  0  0  0  0  0  0
   43.7920   35.5350   44.4840 H   0  0  0  0  0  0  0  0  0  0  0  0
   44.0720   33.9820   43.5380 H   0  0  0  0  0  0  0  0  0  0  0  0
   46.2330   35.2850   45.4820 H   0  0  0  0  0  0  0  0  0  0  0  0
   45.6490   34.1250   41.2640 C   0  0  0  0  0  0  0  0  0  0  0  0
   46.3860   34.9670   42.1570 C   0  0  0  0  0  0  0  0  0  0  0  0
   47.6840   35.2700   41.8900 C   0  0  0  0  0  0  0  0  0  0  0  0
   48.2210   34.7300   40.7420 N   0  0  0  0  0  0  0  0  0  0  0  0
   47.5140   33.9380   39.9080 C   0  0  0  0  0  0  0  0  0  0  0  0
   46.2000   33.6090   40.1440 N   0  0  0  0  0  0  0  0  0  0  0  0
   44.6330   33.8880   41.4740 H   0  0  0  0  0  0  0  0  0  0  0  0
   48.2480   35.8970   42.5470 H   0  0  0  0  0  0  0  0  0  0  0  0
   49.0200   32.3330   38.8000 C   0  0  0  0  0  0  0  0  0  0  0  0
   48.1660   33.4120   38.7150 C   0  0  0  0  0  0  0  0  0  0  0  0
   47.8990   34.0290   37.5100 C   0  0  0  0  0  0  0  0  0  0  0  0
   47.2490   34.8670   37.3730 H   0  0  0  0  0  0  0  0  0  0  0  0
   48.5050   33.5510   36.3600 C   0  0  0  0  0  0  0  0  0  0  0  0
   48.3640   33.9650   35.3550 H   0  0  0  0  0  0  0  0  0  0  0  0
   49.3800   32.4600   36.3900 C   0  0  0  0  0  3  0  0  0  0  0  0
   49.6160   31.8740   37.6220 C   0  0  0  0  0  3  0  0  0  0  0  0
   49.5100   31.2120   41.0800 N   0  0  0  0  0  0  0  0  0  0  0  0
   49.2810   31.7110   40.0620 C   0  0  0  0  0  0  0  0  0  0  0  0
   46.4970   33.3170   44.6020 C   0  0  0  0  0  0  0  0  0  0  0  0
   47.5670   33.4380   44.8270 H   0  0  0  0  0  0  0  0  0  0  0  0
   46.4080   32.8800   43.5860 H   0  0  0  0  0  0  0  0  0  0  0  0
   45.9020   32.5000   45.5970 N   0  0  0  0  0  0  0  0  0  0  0  0
   45.9250   32.9440   46.9230 C   0  0  0  0  0  0  0  0  0  0  0  0
   47.1790   32.4430   47.6680 C   0  0  0  0  0  0  0  0  0  0  0  0
   47.0330   30.9490   47.7920 C   0  0  0  0  0  0  0  0  0  0  0  0
   46.9660   30.4070   46.3920 C   0  0  0  0  0  0  0  0  0  0  0  0
   45.9910   31.1060   45.4860 C   0  0  2  0  0  0  0  0  0  0  0  0
   45.1000   32.3690   47.4480 H   0  0  0  0  0  0  0  0  0  0  0  0
   45.6760   33.9780   47.1530 H   0  0  0  0  0  0  0  0  0  0  0  0
   48.0840   32.6790   47.0990 H   0  0  0  0  0  0  0  0  0  0  0  0
   47.1530   32.9180   48.6630 H   0  0  0  0  0  0  0  0  0  0  0  0
   47.9800   30.5660   48.2380 H   0  0  0  0  0  0  0  0  0  0  0  0
   46.1820   30.6620   48.4190 H   0  0  0  0  0  0  0  0  0  0  0  0
   47.9500   30.3960   45.9280 H   0  0  0  0  0  0  0  0  0  0  0  0
   46.6420   29.3330   46.4700 H   0  0  0  0  0  0  0  0  0  0  0  0
   44.9810   30.6630   45.7080 H   0  0  0  0  0  0  0  0  0  0  0  0
   46.3170   30.6700   44.0650 C   0  0  0  0  0  0  0  0  0  0  0  0
   47.3660   30.9440   43.8010 H   0  0  0  0  0  0  0  0  0  0  0  0
   46.1490   29.5740   43.9770 H   0  0  0  0  0  0  0  0  0  0  0  0
   45.5790   31.1300   43.3710 H   0  0  0  0  0  0  0  0  0  0  0  0
  1  4  1  1  0  0  0
  1  2  1  0  0  0  0
  1  3  1  0  0  0  0
  2  5  1  0  0  0  0
  2  3  1  0  0  0  0
  3  7  1  1  0  0  0
  6  2  1  0  0  0  0
  8 14  1  0  0  0  0
  8  9  1  0  0  0  0
  9  1  1  0  0  0  0
 10  9  2  0  0  0  0
 10 15  1  0  0  0  0
 11 10  1  0  0  0  0
 12 13  1  0  0  0  0
 12 11  2  0  0  0  0
 13  8  2  0  0  0  0
 16 25  1  0  0  0  0
 17 16  1  0  0  0  0
 17 12  1  0  0  0  0
 18 17  2  0  0  0  0
 19 18  1  0  0  0  0
 20 22  2  0  0  0  0
 20 18  1  0  0  0  0
 21 20  1  0  0  0  0
 22 23  1  0  0  0  0
 23 16  2  0  0  0  0
 25 24  3  0  0  0  0
 26  3  1  0  0  0  0
 26 27  1  0  0  0  0
 26 29  1  0  0  0  0
 28 26  1  0  0  0  0
 29 30  1  0  0  0  0
 30 36  1  0  0  0  0
 30 35  1  0  0  0  0
 30 31  1  0  0  0  0
 31 32  1  0  0  0  0
 31 38  1  0  0  0  0
 32 39  1  0  0  0  0
 32 40  1  0  0  0  0
 33 42  1  0  0  0  0
 33 32  1  0  0  0  0
 34 29  1  0  0  0  0
 34 43  1  1  0  0  0
 34 33  1  0  0  0  0
 37 31  1  0  0  0  0
 41 33  1  0  0  0  0
 44 34  1  0  0  0  0
 45 44  1  0  0  0  0
 46 44  1  0  0  0  0
 47 44  1  0  0  0  0
M  END
>  <minimizedAffinity>
-5.04700613

>  <minimizedRMSD>
3.45150161

$$$$
