
 OpenBabel03242511303D

 35 38  0  0  0  0  0  0  0  0999 V2000
   40.4100   30.5810   38.4970 Cl  0  0  0  0  0  0  0  0  0  0  0  0
   39.4250   31.8560   39.1090 C   0  0  0  0  0  0  0  0  0  0  0  0
   39.9690   33.1040   39.3290 C   0  0  0  0  0  0  0  0  0  0  0  0
   39.2140   34.1610   39.8250 C   0  0  0  0  0  0  0  0  0  0  0  0
   37.8870   33.8860   40.0850 C   0  0  0  0  0  0  0  0  0  0  0  0
   37.3500   32.6640   39.8720 C   0  0  0  0  0  0  0  0  0  0  0  0
   38.0990   31.6190   39.3800 C   0  0  0  0  0  0  0  0  0  0  0  0
   39.6810   35.1240   39.9820 H   0  0  0  0  0  0  0  0  0  0  0  0
   37.3120   34.7230   40.4720 H   0  0  0  0  0  0  0  0  0  0  0  0
   36.2970   32.5590   40.1100 H   0  0  0  0  0  0  0  0  0  0  0  0
   43.0500   34.0180   37.5150 C   0  0  0  0  0  0  0  0  0  0  0  0
   44.0350   33.7690   38.4590 C   0  0  0  0  0  0  0  0  0  0  0  0
   43.6590   33.2960   39.7010 C   0  0  0  0  0  0  0  0  0  0  0  0
   42.3390   33.0900   39.9570 N   0  0  0  0  0  0  0  0  0  0  0  0
   41.3820   33.3340   39.0320 C   0  0  0  0  0  0  0  0  0  0  0  0
   41.7640   33.7950   37.8240 N   0  0  0  0  0  0  0  0  0  0  0  0
   43.2820   34.3900   36.5190 H   0  0  0  0  0  0  0  0  0  0  0  0
   45.0330   33.9700   38.1380 H   0  0  0  0  0  0  0  0  0  0  0  0
   44.4320   33.1100   40.4180 H   0  0  0  0  0  0  0  0  0  0  0  0
   37.3770   30.3590   39.1990 C   0  0  0  0  0  0  0  0  0  0  0  0
   36.4210   30.2860   38.1880 C   0  0  0  0  0  0  0  0  0  0  0  0
   35.7950   28.5450   38.3540 S   0  0  0  0  0  0  0  0  0  0  0  0
   36.9800   28.2470   39.8000 C   0  0  0  0  0  0  0  0  0  0  0  0
   37.4900   29.2360   39.8750 N   0  0  0  0  0  0  0  0  0  0  0  0
   36.0990   31.0310   37.4690 H   0  0  0  0  0  0  0  0  0  0  0  0
   37.0810   26.7340   41.7890 C   0  0  0  0  0  0  0  0  0  0  0  0
   36.9420   26.8880   40.4280 C   0  0  0  0  0  0  0  0  0  0  0  0
   36.7600   25.7390   39.6900 C   0  0  0  0  0  0  0  0  0  0  0  0
   36.6460   25.7950   38.6180 H   0  0  0  0  0  0  0  0  0  0  0  0
   36.7140   24.4920   40.2400 C   0  0  0  0  0  0  0  0  0  0  0  0
   36.5710   23.5970   39.6490 H   0  0  0  0  0  0  0  0  0  0  0  0
   36.8540   24.3660   41.5940 C   0  0  0  0  0  3  0  0  0  0  0  0
   37.0380   25.4870   42.3760 C   0  0  0  0  0  3  0  0  0  0  0  0
   37.4470   28.9120   43.1540 N   0  0  0  0  0  0  0  0  0  0  0  0
   37.2780   27.9420   42.5340 C   0  0  0  0  0  0  0  0  0  0  0  0
  1  2  1  0  0  0  0
  2  3  2  0  0  0  0
  2  7  1  0  0  0  0
  3  4  1  0  0  0  0
  4  8  1  0  0  0  0
  4  5  2  0  0  0  0
  5  9  1  0  0  0  0
  6  5  1  0  0  0  0
  6 10  1  0  0  0  0
  7  6  2  0  0  0  0
 11 16  2  0  0  0  0
 11 12  1  0  0  0  0
 12 13  2  0  0  0  0
 13 14  1  0  0  0  0
 13 19  1  0  0  0  0
 15  3  1  0  0  0  0
 15 14  2  0  0  0  0
 16 15  1  0  0  0  0
 17 11  1  0  0  0  0
 18 12  1  0  0  0  0
 20  7  1  0  0  0  0
 20 24  1  0  0  0  0
 21 22  1  0  0  0  0
 21 20  2  0  0  0  0
 22 23  1  0  0  0  0
 23 24  2  0  0  0  0
 23 27  1  0  0  0  0
 25 21  1  0  0  0  0
 26 33  1  0  0  0  0
 26 35  1  0  0  0  0
 27 26  2  0  0  0  0
 28 30  2  0  0  0  0
 28 27  1  0  0  0  0
 29 28  1  0  0  0  0
 30 32  1  0  0  0  0
 31 30  1  0  0  0  0
 32 33  2  0  0  0  0
 35 34  3  0  0  0  0
M  END
>  <minimizedAffinity>
-6.16147327

$$$$

 OpenBabel03242511303D

 35 38  0  0  0  0  0  0  0  0999 V2000
   34.4140   29.0050   39.8600 Cl  0  0  0  0  0  0  0  0  0  0  0  0
   35.5160   28.0420   38.9510 C   0  0  0  0  0  0  0  0  0  0  0  0
   36.7490   27.7180   39.4800 C   0  0  0  0  0  0  0  0  0  0  0  0
   37.6710   26.9480   38.7810 C   0  0  0  0  0  0  0  0  0  0  0  0
   37.2810   26.5270   37.5260 C   0  0  0  0  0  0  0  0  0  0  0  0
   36.0750   26.8430   37.0040 C   0  0  0  0  0  0  0  0  0  0  0  0
   35.1630   27.6060   37.6970 C   0  0  0  0  0  0  0  0  0  0  0  0
   38.6260   26.7170   39.2340 H   0  0  0  0  0  0  0  0  0  0  0  0
   38.0150   25.9270   36.9950 H   0  0  0  0  0  0  0  0  0  0  0  0
   35.8720   26.4590   36.0100 H   0  0  0  0  0  0  0  0  0  0  0  0
   37.0870   27.8760   43.1510 C   0  0  0  0  0  0  0  0  0  0  0  0
   37.7630   29.0730   43.3360 C   0  0  0  0  0  0  0  0  0  0  0  0
   38.1030   29.8210   42.2250 C   0  0  0  0  0  0  0  0  0  0  0  0
   37.7640   29.3610   40.9900 N   0  0  0  0  0  0  0  0  0  0  0  0
   37.1040   28.1920   40.8160 C   0  0  0  0  0  0  0  0  0  0  0  0
   36.7780   27.4740   41.9100 N   0  0  0  0  0  0  0  0  0  0  0  0
   36.7910   27.2430   43.9840 H   0  0  0  0  0  0  0  0  0  0  0  0
   37.9710   29.3240   44.3510 H   0  0  0  0  0  0  0  0  0  0  0  0
   38.6250   30.7420   42.3850 H   0  0  0  0  0  0  0  0  0  0  0  0
   33.9000   27.8610   37.0020 C   0  0  0  0  0  0  0  0  0  0  0  0
   33.1630   26.7680   36.5510 C   0  0  0  0  0  0  0  0  0  0  0  0
   31.6930   27.5770   35.7540 S   0  0  0  0  0  0  0  0  0  0  0  0
   32.3820   29.2840   36.1960 C   0  0  0  0  0  0  0  0  0  0  0  0
   33.3290   29.0110   36.7180 N   0  0  0  0  0  0  0  0  0  0  0  0
   33.3630   25.7050   36.6290 H   0  0  0  0  0  0  0  0  0  0  0  0
   30.6530   31.0380   36.6320 C   0  0  0  0  0  0  0  0  0  0  0  0
   31.5650   30.4660   35.7740 C   0  0  0  0  0  0  0  0  0  0  0  0
   31.6880   31.0400   34.5280 C   0  0  0  0  0  0  0  0  0  0  0  0
   32.3870   30.6350   33.8110 H   0  0  0  0  0  0  0  0  0  0  0  0
   30.9620   32.1220   34.1240 C   0  0  0  0  0  0  0  0  0  0  0  0
   31.0680   32.5630   33.1410 H   0  0  0  0  0  0  0  0  0  0  0  0
   30.0640   32.6710   34.9940 C   0  0  0  0  0  3  0  0  0  0  0  0
   29.9040   32.1320   36.2540 C   0  0  0  0  0  3  0  0  0  0  0  0
   30.4220   29.9140   38.9610 N   0  0  0  0  0  0  0  0  0  0  0  0
   30.5360   30.4180   37.9190 C   0  0  0  0  0  0  0  0  0  0  0  0
  2  3  1  0  0  0  0
  2  1  1  0  0  0  0
  3 15  1  0  0  0  0
  4  8  1  0  0  0  0
  4  3  2  0  0  0  0
  5  4  1  0  0  0  0
  6  5  2  0  0  0  0
  6  7  1  0  0  0  0
  7  2  2  0  0  0  0
  9  5  1  0  0  0  0
 10  6  1  0  0  0  0
 11 12  1  0  0  0  0
 11 17  1  0  0  0  0
 12 18  1  0  0  0  0
 13 19  1  0  0  0  0
 13 12  2  0  0  0  0
 14 13  1  0  0  0  0
 15 14  2  0  0  0  0
 15 16  1  0  0  0  0
 16 11  2  0  0  0  0
 20  7  1  0  0  0  0
 21 25  1  0  0  0  0
 21 20  2  0  0  0  0
 22 23  1  0  0  0  0
 22 21  1  0  0  0  0
 23 24  2  0  0  0  0
 24 20  1  0  0  0  0
 26 35  1  0  0  0  0
 27 23  1  0  0  0  0
 27 26  2  0  0  0  0
 28 27  1  0  0  0  0
 29 28  1  0  0  0  0
 30 28  2  0  0  0  0
 30 32  1  0  0  0  0
 31 30  1  0  0  0  0
 32 33  2  0  0  0  0
 33 26  1  0  0  0  0
 35 34  3  0  0  0  0
M  END
>  <minimizedAffinity>
-5.83022308

$$$$

 OpenBabel03242511303D

 35 38  0  0  0  0  0  0  0  0999 V2000
   40.7950   30.2790   40.4960 Cl  0  0  0  0  0  0  0  0  0  0  0  0
   39.3070   31.1270   40.3050 C   0  0  0  0  0  0  0  0  0  0  0  0
   39.2870   32.3500   39.6660 C   0  0  0  0  0  0  0  0  0  0  0  0
   38.1110   33.0710   39.4930 C   0  0  0  0  0  0  0  0  0  0  0  0
   36.9650   32.4920   40.0000 C   0  0  0  0  0  0  0  0  0  0  0  0
   36.9810   31.2950   40.6270 C   0  0  0  0  0  0  0  0  0  0  0  0
   38.1460   30.5820   40.7980 C   0  0  0  0  0  0  0  0  0  0  0  0
   38.1400   34.0260   38.9850 H   0  0  0  0  0  0  0  0  0  0  0  0
   36.0570   33.0700   39.8560 H   0  0  0  0  0  0  0  0  0  0  0  0
   36.0240   30.9330   40.9860 H   0  0  0  0  0  0  0  0  0  0  0  0
   42.4970   34.1610   39.5100 C   0  0  0  0  0  0  0  0  0  0  0  0
   42.8810   33.9730   38.1900 C   0  0  0  0  0  0  0  0  0  0  0  0
   42.0580   33.2380   37.3590 C   0  0  0  0  0  0  0  0  0  0  0  0
   40.9020   32.7240   37.8610 N   0  0  0  0  0  0  0  0  0  0  0  0
   40.5330   32.9110   39.1490 C   0  0  0  0  0  0  0  0  0  0  0  0
   41.3470   33.6310   39.9480 N   0  0  0  0  0  0  0  0  0  0  0  0
   43.1020   34.7300   40.2140 H   0  0  0  0  0  0  0  0  0  0  0  0
   43.8080   34.4260   37.9180 H   0  0  0  0  0  0  0  0  0  0  0  0
   42.3680   33.1030   36.3430 H   0  0  0  0  0  0  0  0  0  0  0  0
   38.0040   29.3020   41.4930 C   0  0  0  0  0  0  0  0  0  0  0  0
   37.9080   29.3140   42.8840 C   0  0  0  0  0  0  0  0  0  0  0  0
   37.7530   27.5080   43.2900 S   0  0  0  0  0  0  0  0  0  0  0  0
   37.8510   27.0760   41.4490 C   0  0  0  0  0  0  0  0  0  0  0  0
   37.9540   28.0870   40.9910 N   0  0  0  0  0  0  0  0  0  0  0  0
   37.9180   30.1430   43.5820 H   0  0  0  0  0  0  0  0  0  0  0  0
   38.9040   24.8340   41.1050 C   0  0  0  0  0  0  0  0  0  0  0  0
   37.7760   25.6230   41.0970 C   0  0  0  0  0  0  0  0  0  0  0  0
   36.5910   25.0060   40.7600 C   0  0  0  0  0  0  0  0  0  0  0  0
   35.6720   25.5730   40.7350 H   0  0  0  0  0  0  0  0  0  0  0  0
   36.4960   23.6820   40.4440 C   0  0  0  0  0  0  0  0  0  0  0  0
   35.5590   23.2090   40.1800 H   0  0  0  0  0  0  0  0  0  0  0  0
   37.6310   22.9210   40.4600 C   0  0  0  0  0  3  0  0  0  0  0  0
   38.8420   23.4930   40.7910 C   0  0  0  0  0  3  0  0  0  0  0  0
   41.1210   26.0420   41.7100 N   0  0  0  0  0  0  0  0  0  0  0  0
   40.1250   25.5000   41.4500 C   0  0  0  0  0  0  0  0  0  0  0  0
  2  1  1  0  0  0  0
  2  7  1  0  0  0  0
  3  2  2  0  0  0  0
  4  3  1  0  0  0  0
  4  5  2  0  0  0  0
  5  6  1  0  0  0  0
  6  7  2  0  0  0  0
  6 10  1  0  0  0  0
  7 20  1  0  0  0  0
  8  4  1  0  0  0  0
  9  5  1  0  0  0  0
 11 16  1  0  0  0  0
 11 17  1  0  0  0  0
 12 11  2  0  0  0  0
 13 14  2  0  0  0  0
 13 12  1  0  0  0  0
 14 15  1  0  0  0  0
 15  3  1  0  0  0  0
 15 16  2  0  0  0  0
 18 12  1  0  0  0  0
 19 13  1  0  0  0  0
 20 21  2  0  0  0  0
 21 22  1  0  0  0  0
 21 25  1  0  0  0  0
 23 22  1  0  0  0  0
 24 23  2  0  0  0  0
 24 20  1  0  0  0  0
 26 35  1  0  0  0  0
 27 26  1  0  0  0  0
 27 23  1  0  0  0  0
 28 27  2  0  0  0  0
 29 28  1  0  0  0  0
 30 32  2  0  0  0  0
 30 28  1  0  0  0  0
 31 30  1  0  0  0  0
 32 33  1  0  0  0  0
 33 26  2  0  0  0  0
 35 34  3  0  0  0  0
M  END
>  <minimizedAffinity>
-5.67461205

$$$$

 OpenBabel03242511303D

 35 38  0  0  0  0  0  0  0  0999 V2000
   37.8290   26.9430   38.5600 Cl  0  0  0  0  0  0  0  0  0  0  0  0
   37.4870   27.3500   40.2000 C   0  0  0  0  0  0  0  0  0  0  0  0
   37.2340   26.3540   41.1200 C   0  0  0  0  0  0  0  0  0  0  0  0
   36.9490   26.6350   42.4510 C   0  0  0  0  0  0  0  0  0  0  0  0
   36.9340   27.9710   42.7980 C   0  0  0  0  0  0  0  0  0  0  0  0
   37.1810   28.9500   41.8990 C   0  0  0  0  0  0  0  0  0  0  0  0
   37.4620   28.6700   40.5820 C   0  0  0  0  0  0  0  0  0  0  0  0
   36.7570   25.8230   43.1400 H   0  0  0  0  0  0  0  0  0  0  0  0
   36.7100   28.1710   43.8420 H   0  0  0  0  0  0  0  0  0  0  0  0
   37.1430   29.9640   42.2800 H   0  0  0  0  0  0  0  0  0  0  0  0
   38.4300   22.9150   40.5180 C   0  0  0  0  0  0  0  0  0  0  0  0
   37.3410   22.3270   39.8920 C   0  0  0  0  0  0  0  0  0  0  0  0
   36.2100   23.0900   39.6740 C   0  0  0  0  0  0  0  0  0  0  0  0
   36.2000   24.3880   40.0810 N   0  0  0  0  0  0  0  0  0  0  0  0
   37.2660   24.9570   40.6920 C   0  0  0  0  0  0  0  0  0  0  0  0
   38.3630   24.2000   40.8970 N   0  0  0  0  0  0  0  0  0  0  0  0
   39.3490   22.3680   40.7170 H   0  0  0  0  0  0  0  0  0  0  0  0
   37.4720   21.3040   39.6210 H   0  0  0  0  0  0  0  0  0  0  0  0
   35.3790   22.6210   39.1890 H   0  0  0  0  0  0  0  0  0  0  0  0
   37.7100   29.8350   39.7300 C   0  0  0  0  0  0  0  0  0  0  0  0
   36.6290   30.4020   39.0580 C   0  0  0  0  0  0  0  0  0  0  0  0
   37.4230   31.8030   38.1330 S   0  0  0  0  0  0  0  0  0  0  0  0
   39.1100   31.3360   38.8550 C   0  0  0  0  0  0  0  0  0  0  0  0
   38.8440   30.4550   39.4850 N   0  0  0  0  0  0  0  0  0  0  0  0
   35.5810   30.1250   39.0520 H   0  0  0  0  0  0  0  0  0  0  0  0
   40.5340   33.3820   39.0590 C   0  0  0  0  0  0  0  0  0  0  0  0
   40.2750   32.1800   38.4390 C   0  0  0  0  0  0  0  0  0  0  0  0
   41.1400   31.8010   37.4360 C   0  0  0  0  0  0  0  0  0  0  0  0
   40.9880   30.8690   36.9120 H   0  0  0  0  0  0  0  0  0  0  0  0
   42.2120   32.5480   37.0460 C   0  0  0  0  0  0  0  0  0  0  0  0
   42.8840   32.2390   36.2560 H   0  0  0  0  0  0  0  0  0  0  0  0
   42.4470   33.7370   37.6770 C   0  0  0  0  0  3  0  0  0  0  0  0
   41.6090   34.1610   38.6880 C   0  0  0  0  0  3  0  0  0  0  0  0
   38.8750   34.0490   40.9420 N   0  0  0  0  0  0  0  0  0  0  0  0
   39.6150   33.7590   40.0920 C   0  0  0  0  0  0  0  0  0  0  0  0
  1  2  1  0  0  0  0
  2  7  2  0  0  0  0
  2  3  1  0  0  0  0
  3  4  2  0  0  0  0
  4  5  1  0  0  0  0
  4  8  1  0  0  0  0
  5  9  1  0  0  0  0
  6 10  1  0  0  0  0
  6  5  2  0  0  0  0
  7  6  1  0  0  0  0
 11 17  1  0  0  0  0
 11 16  1  0  0  0  0
 12 11  2  0  0  0  0
 13 12  1  0  0  0  0
 13 14  2  0  0  0  0
 14 15  1  0  0  0  0
 15 16  2  0  0  0  0
 15  3  1  0  0  0  0
 18 12  1  0  0  0  0
 19 13  1  0  0  0  0
 20  7  1  0  0  0  0
 21 20  2  0  0  0  0
 22 23  1  0  0  0  0
 22 21  1  0  0  0  0
 23 24  2  0  0  0  0
 24 20  1  0  0  0  0
 25 21  1  0  0  0  0
 26 35  1  0  0  0  0
 27 23  1  0  0  0  0
 27 26  2  0  0  0  0
 28 27  1  0  0  0  0
 29 28  1  0  0  0  0
 30 28  2  0  0  0  0
 30 32  1  0  0  0  0
 31 30  1  0  0  0  0
 32 33  2  0  0  0  0
 33 26  1  0  0  0  0
 35 34  3  0  0  0  0
M  END
>  <minimizedAffinity>
-5.63168478

$$$$

 OpenBabel03242511303D

 35 38  0  0  0  0  0  0  0  0999 V2000
   40.4460   29.3350   38.6410 Cl  0  0  0  0  0  0  0  0  0  0  0  0
   40.0520   30.9610   39.0540 C   0  0  0  0  0  0  0  0  0  0  0  0
   40.9720   31.9690   38.8460 C   0  0  0  0  0  0  0  0  0  0  0  0
   40.6990   33.2930   39.1680 C   0  0  0  0  0  0  0  0  0  0  0  0
   39.4540   33.5410   39.7090 C   0  0  0  0  0  0  0  0  0  0  0  0
   38.5510   32.5570   39.9160 C   0  0  0  0  0  0  0  0  0  0  0  0
   38.8220   31.2460   39.5970 C   0  0  0  0  0  0  0  0  0  0  0  0
   41.4490   34.0520   38.9870 H   0  0  0  0  0  0  0  0  0  0  0  0
   39.2590   34.5810   39.9550 H   0  0  0  0  0  0  0  0  0  0  0  0
   37.6040   32.8630   40.3460 H   0  0  0  0  0  0  0  0  0  0  0  0
   44.5710   31.2090   38.5580 C   0  0  0  0  0  0  0  0  0  0  0  0
   44.7300   31.0340   37.1910 C   0  0  0  0  0  0  0  0  0  0  0  0
   43.6250   31.1720   36.3730 C   0  0  0  0  0  0  0  0  0  0  0  0
   42.4220   31.4740   36.9320 N   0  0  0  0  0  0  0  0  0  0  0  0
   42.2730   31.6440   38.2670 C   0  0  0  0  0  0  0  0  0  0  0  0
   43.3610   31.5060   39.0530 N   0  0  0  0  0  0  0  0  0  0  0  0
   45.4010   31.1140   39.2550 H   0  0  0  0  0  0  0  0  0  0  0  0
   45.7210   30.8000   36.8760 H   0  0  0  0  0  0  0  0  0  0  0  0
   43.7650   31.0340   35.3200 H   0  0  0  0  0  0  0  0  0  0  0  0
   37.7450   30.2950   39.8750 C   0  0  0  0  0  0  0  0  0  0  0  0
   36.4400   30.7790   39.9440 C   0  0  0  0  0  0  0  0  0  0  0  0
   35.4620   29.2440   40.3140 S   0  0  0  0  0  0  0  0  0  0  0  0
   37.0530   28.2180   40.3050 C   0  0  0  0  0  0  0  0  0  0  0  0
   37.8180   28.9990   40.0860 N   0  0  0  0  0  0  0  0  0  0  0  0
   36.0550   31.7850   39.8180 H   0  0  0  0  0  0  0  0  0  0  0  0
   37.0910   26.2400   41.8360 C   0  0  0  0  0  0  0  0  0  0  0  0
   36.9060   26.7510   40.5710 C   0  0  0  0  0  0  0  0  0  0  0  0
   36.5740   25.8520   39.5810 C   0  0  0  0  0  0  0  0  0  0  0  0
   36.4170   26.1930   38.5690 H   0  0  0  0  0  0  0  0  0  0  0  0
   36.4270   24.5140   39.8010 C   0  0  0  0  0  0  0  0  0  0  0  0
   36.1660   23.8170   39.0140 H   0  0  0  0  0  0  0  0  0  0  0  0
   36.6160   24.0320   41.0650 C   0  0  0  0  0  3  0  0  0  0  0  0
   36.9490   24.8930   42.0900 C   0  0  0  0  0  3  0  0  0  0  0  0
   37.7210   27.9560   43.6800 N   0  0  0  0  0  0  0  0  0  0  0  0
   37.4440   27.1930   42.8460 C   0  0  0  0  0  0  0  0  0  0  0  0
  1  2  1  0  0  0  0
  2  7  1  0  0  0  0
  3  2  2  0  0  0  0
  3  4  1  0  0  0  0
  4  5  2  0  0  0  0
  5  6  1  0  0  0  0
  5  9  1  0  0  0  0
  6 10  1  0  0  0  0
  7 20  1  0  0  0  0
  7  6  2  0  0  0  0
  8  4  1  0  0  0  0
 11 16  1  0  0  0  0
 11 17  1  0  0  0  0
 12 11  2  0  0  0  0
 13 14  2  0  0  0  0
 13 12  1  0  0  0  0
 14 15  1  0  0  0  0
 15  3  1  0  0  0  0
 15 16  2  0  0  0  0
 18 12  1  0  0  0  0
 19 13  1  0  0  0  0
 20 21  2  0  0  0  0
 20 24  1  0  0  0  0
 21 22  1  0  0  0  0
 23 22  1  0  0  0  0
 23 27  1  0  0  0  0
 24 23  2  0  0  0  0
 25 21  1  0  0  0  0
 26 33  1  0  0  0  0
 26 35  1  0  0  0  0
 27 26  2  0  0  0  0
 28 30  2  0  0  0  0
 28 27  1  0  0  0  0
 29 28  1  0  0  0  0
 30 32  1  0  0  0  0
 31 30  1  0  0  0  0
 32 33  2  0  0  0  0
 35 34  3  0  0  0  0
M  END
>  <minimizedAffinity>
-5.63001156

$$$$

 OpenBabel03242511303D

 35 38  0  0  0  0  0  0  0  0999 V2000
   37.7330   27.2690   39.1380 Cl  0  0  0  0  0  0  0  0  0  0  0  0
   37.4880   27.4920   40.8290 C   0  0  0  0  0  0  0  0  0  0  0  0
   37.2930   26.3990   41.6480 C   0  0  0  0  0  0  0  0  0  0  0  0
   37.0880   26.5320   43.0170 C   0  0  0  0  0  0  0  0  0  0  0  0
   37.0910   27.8210   43.5070 C   0  0  0  0  0  0  0  0  0  0  0  0
   37.2800   28.8950   42.7080 C   0  0  0  0  0  0  0  0  0  0  0  0
   37.4830   28.7620   41.3530 C   0  0  0  0  0  0  0  0  0  0  0  0
   36.9400   25.6480   43.6230 H   0  0  0  0  0  0  0  0  0  0  0  0
   36.9280   27.9060   44.5780 H   0  0  0  0  0  0  0  0  0  0  0  0
   37.2630   29.8620   43.1980 H   0  0  0  0  0  0  0  0  0  0  0  0
   38.4490   23.0440   40.6370 C   0  0  0  0  0  0  0  0  0  0  0  0
   37.3370   22.5310   39.9840 C   0  0  0  0  0  0  0  0  0  0  0  0
   36.2050   23.3160   39.8880 C   0  0  0  0  0  0  0  0  0  0  0  0
   36.2160   24.5620   40.4340 N   0  0  0  0  0  0  0  0  0  0  0  0
   37.3040   25.0570   41.0700 C   0  0  0  0  0  0  0  0  0  0  0  0
   38.4020   24.2800   41.1550 N   0  0  0  0  0  0  0  0  0  0  0  0
   39.3710   22.4760   40.7450 H   0  0  0  0  0  0  0  0  0  0  0  0
   37.4530   21.5430   39.5990 H   0  0  0  0  0  0  0  0  0  0  0  0
   35.3560   22.9050   39.3810 H   0  0  0  0  0  0  0  0  0  0  0  0
   37.6770   30.0150   40.6210 C   0  0  0  0  0  0  0  0  0  0  0  0
   36.5700   30.8370   40.4170 C   0  0  0  0  0  0  0  0  0  0  0  0
   37.2970   32.2570   39.4660 S   0  0  0  0  0  0  0  0  0  0  0  0
   39.0030   31.4400   39.5300 C   0  0  0  0  0  0  0  0  0  0  0  0
   38.7790   30.5060   40.0970 N   0  0  0  0  0  0  0  0  0  0  0  0
   35.5370   30.7140   40.7210 H   0  0  0  0  0  0  0  0  0  0  0  0
   40.8610   31.5860   37.8610 C   0  0  0  0  0  0  0  0  0  0  0  0
   40.1240   32.1760   38.8640 C   0  0  0  0  0  0  0  0  0  0  0  0
   40.4680   33.4650   39.2090 C   0  0  0  0  0  0  0  0  0  0  0  0
   39.9270   33.9800   39.9890 H   0  0  0  0  0  0  0  0  0  0  0  0
   41.4790   34.1580   38.6120 C   0  0  0  0  0  0  0  0  0  0  0  0
   41.7390   35.1710   38.8920 H   0  0  0  0  0  0  0  0  0  0  0  0
   42.1940   33.5500   37.6190 C   0  0  0  0  0  3  0  0  0  0  0  0
   41.8890   32.2600   37.2380 C   0  0  0  0  0  3  0  0  0  0  0  0
   40.2110   29.1460   37.2560 N   0  0  0  0  0  0  0  0  0  0  0  0
   40.4910   30.2420   37.5270 C   0  0  0  0  0  0  0  0  0  0  0  0
  1  2  1  0  0  0  0
  2  7  2  0  0  0  0
  2  3  1  0  0  0  0
  3  4  2  0  0  0  0
  4  5  1  0  0  0  0
  4  8  1  0  0  0  0
  5  9  1  0  0  0  0
  6 10  1  0  0  0  0
  6  5  2  0  0  0  0
  7  6  1  0  0  0  0
 11 17  1  0  0  0  0
 11 16  1  0  0  0  0
 12 11  2  0  0  0  0
 13 12  1  0  0  0  0
 13 14  2  0  0  0  0
 14 15  1  0  0  0  0
 15 16  2  0  0  0  0
 15  3  1  0  0  0  0
 18 12  1  0  0  0  0
 19 13  1  0  0  0  0
 20  7  1  0  0  0  0
 21 20  2  0  0  0  0
 21 25  1  0  0  0  0
 22 23  1  0  0  0  0
 22 21  1  0  0  0  0
 23 24  2  0  0  0  0
 24 20  1  0  0  0  0
 26 27  1  0  0  0  0
 27 28  2  0  0  0  0
 27 23  1  0  0  0  0
 28 29  1  0  0  0  0
 30 31  1  0  0  0  0
 30 28  1  0  0  0  0
 32 30  2  0  0  0  0
 33 32  1  0  0  0  0
 33 26  2  0  0  0  0
 34 35  3  0  0  0  0
 35 26  1  0  0  0  0
M  END
>  <minimizedAffinity>
-5.6097436

$$$$

 OpenBabel03242511303D

 35 38  0  0  0  0  0  0  0  0999 V2000
   40.4020   29.8740   39.1860 Cl  0  0  0  0  0  0  0  0  0  0  0  0
   39.8720   31.4290   39.7040 C   0  0  0  0  0  0  0  0  0  0  0  0
   40.7250   32.5110   39.6270 C   0  0  0  0  0  0  0  0  0  0  0  0
   40.3420   33.7820   40.0370 C   0  0  0  0  0  0  0  0  0  0  0  0
   39.0570   33.8990   40.5260 C   0  0  0  0  0  0  0  0  0  0  0  0
   38.2180   32.8420   40.6040 C   0  0  0  0  0  0  0  0  0  0  0  0
   38.5990   31.5840   40.1980 C   0  0  0  0  0  0  0  0  0  0  0  0
   41.0430   34.6030   39.9590 H   0  0  0  0  0  0  0  0  0  0  0  0
   38.7750   34.9000   40.8420 H   0  0  0  0  0  0  0  0  0  0  0  0
   37.2320   33.0470   41.0040 H   0  0  0  0  0  0  0  0  0  0  0  0
   43.5380   32.2660   37.2520 C   0  0  0  0  0  0  0  0  0  0  0  0
   44.6080   31.9740   38.0860 C   0  0  0  0  0  0  0  0  0  0  0  0
   44.3770   31.8610   39.4440 C   0  0  0  0  0  0  0  0  0  0  0  0
   43.1130   32.0400   39.9160 N   0  0  0  0  0  0  0  0  0  0  0  0
   42.0740   32.3240   39.0970 C   0  0  0  0  0  0  0  0  0  0  0  0
   42.3150   32.4310   37.7740 N   0  0  0  0  0  0  0  0  0  0  0  0
   43.6550   32.3670   36.1750 H   0  0  0  0  0  0  0  0  0  0  0  0
   45.5470   31.8570   37.5950 H   0  0  0  0  0  0  0  0  0  0  0  0
   45.2130   31.6360   40.0730 H   0  0  0  0  0  0  0  0  0  0  0  0
   37.5800   30.5420   40.3400 C   0  0  0  0  0  0  0  0  0  0  0  0
   36.2400   30.9210   40.3000 C   0  0  0  0  0  0  0  0  0  0  0  0
   35.3590   29.3010   40.5230 S   0  0  0  0  0  0  0  0  0  0  0  0
   37.0210   28.4020   40.6320 C   0  0  0  0  0  0  0  0  0  0  0  0
   37.7380   29.2480   40.5140 N   0  0  0  0  0  0  0  0  0  0  0  0
   35.7890   31.8990   40.1710 H   0  0  0  0  0  0  0  0  0  0  0  0
   36.8190   26.0640   39.7650 C   0  0  0  0  0  0  0  0  0  0  0  0
   36.9690   26.9190   40.8340 C   0  0  0  0  0  0  0  0  0  0  0  0
   37.0760   26.3400   42.0800 C   0  0  0  0  0  0  0  0  0  0  0  0
   37.1940   26.9590   42.9570 H   0  0  0  0  0  0  0  0  0  0  0  0
   37.0400   24.9930   42.2880 C   0  0  0  0  0  0  0  0  0  0  0  0
   37.1240   24.5500   43.2720 H   0  0  0  0  0  0  0  0  0  0  0  0
   36.8900   24.1660   41.2100 C   0  0  0  0  0  3  0  0  0  0  0  0
   36.7790   24.6970   39.9420 C   0  0  0  0  0  3  0  0  0  0  0  0
   36.6000   27.1800   37.4310 N   0  0  0  0  0  0  0  0  0  0  0  0
   36.7010   26.6900   38.4810 C   0  0  0  0  0  0  0  0  0  0  0  0
  1  2  1  0  0  0  0
  2  7  1  0  0  0  0
  3  2  2  0  0  0  0
  3  4  1  0  0  0  0
  4  5  2  0  0  0  0
  5  6  1  0  0  0  0
  5  9  1  0  0  0  0
  6 10  1  0  0  0  0
  7 20  1  0  0  0  0
  7  6  2  0  0  0  0
  8  4  1  0  0  0  0
 11 16  2  0  0  0  0
 11 12  1  0  0  0  0
 12 13  2  0  0  0  0
 13 14  1  0  0  0  0
 13 19  1  0  0  0  0
 15  3  1  0  0  0  0
 15 14  2  0  0  0  0
 16 15  1  0  0  0  0
 17 11  1  0  0  0  0
 18 12  1  0  0  0  0
 20 24  1  0  0  0  0
 21 20  2  0  0  0  0
 21 22  1  0  0  0  0
 22 23  1  0  0  0  0
 23 27  1  0  0  0  0
 24 23  2  0  0  0  0
 25 21  1  0  0  0  0
 26 33  2  0  0  0  0
 26 27  1  0  0  0  0
 27 28  2  0  0  0  0
 28 30  1  0  0  0  0
 28 29  1  0  0  0  0
 30 31  1  0  0  0  0
 32 30  2  0  0  0  0
 33 32  1  0  0  0  0
 34 35  3  0  0  0  0
 35 26  1  0  0  0  0
M  END
>  <minimizedAffinity>
-5.44581842

$$$$

 OpenBabel03242511303D

 35 38  0  0  0  0  0  0  0  0999 V2000
   39.2150   28.6530   39.8610 Cl  0  0  0  0  0  0  0  0  0  0  0  0
   38.2930   28.2600   41.2640 C   0  0  0  0  0  0  0  0  0  0  0  0
   38.7830   28.5600   42.5180 C   0  0  0  0  0  0  0  0  0  0  0  0
   38.0770   28.2580   43.6770 C   0  0  0  0  0  0  0  0  0  0  0  0
   36.8560   27.6400   43.4980 C   0  0  0  0  0  0  0  0  0  0  0  0
   36.3730   27.3440   42.2710 C   0  0  0  0  0  0  0  0  0  0  0  0
   37.0730   27.6440   41.1240 C   0  0  0  0  0  0  0  0  0  0  0  0
   38.4980   28.5110   44.6410 H   0  0  0  0  0  0  0  0  0  0  0  0
   36.3190   27.4120   44.4140 H   0  0  0  0  0  0  0  0  0  0  0  0
   35.4030   26.8590   42.2460 H   0  0  0  0  0  0  0  0  0  0  0  0
   42.4140   29.0590   42.9490 C   0  0  0  0  0  0  0  0  0  0  0  0
   42.5340   30.4390   42.8810 C   0  0  0  0  0  0  0  0  0  0  0  0
   41.3940   31.1960   42.6900 C   0  0  0  0  0  0  0  0  0  0  0  0
   40.1940   30.5640   42.5750 N   0  0  0  0  0  0  0  0  0  0  0  0
   40.0830   29.2170   42.6430 C   0  0  0  0  0  0  0  0  0  0  0  0
   41.2050   28.4920   42.8300 N   0  0  0  0  0  0  0  0  0  0  0  0
   43.2730   28.4090   43.0980 H   0  0  0  0  0  0  0  0  0  0  0  0
   43.5280   30.8140   42.9850 H   0  0  0  0  0  0  0  0  0  0  0  0
   41.5050   32.2590   42.6400 H   0  0  0  0  0  0  0  0  0  0  0  0
   36.4190   27.2650   39.8710 C   0  0  0  0  0  0  0  0  0  0  0  0
   36.5110   25.9380   39.4540 C   0  0  0  0  0  0  0  0  0  0  0  0
   35.5590   25.9520   37.8600 S   0  0  0  0  0  0  0  0  0  0  0  0
   35.2130   27.8020   38.0720 C   0  0  0  0  0  0  0  0  0  0  0  0
   35.7320   28.0140   39.0360 N   0  0  0  0  0  0  0  0  0  0  0  0
   37.0020   25.0890   39.9150 H   0  0  0  0  0  0  0  0  0  0  0  0
   34.9890   28.8370   35.8070 C   0  0  0  0  0  0  0  0  0  0  0  0
   34.4070   28.4610   36.9960 C   0  0  0  0  0  0  0  0  0  0  0  0
   33.0600   28.7140   37.1340 C   0  0  0  0  0  0  0  0  0  0  0  0
   32.5470   28.4430   38.0450 H   0  0  0  0  0  0  0  0  0  0  0  0
   32.3030   29.3060   36.1650 C   0  0  0  0  0  0  0  0  0  0  0  0
   31.2450   29.5000   36.2860 H   0  0  0  0  0  0  0  0  0  0  0  0
   32.9050   29.6690   34.9930 C   0  0  0  0  0  3  0  0  0  0  0  0
   34.2520   29.4370   34.8070 C   0  0  0  0  0  3  0  0  0  0  0  0
   37.5300   28.3540   35.5760 N   0  0  0  0  0  0  0  0  0  0  0  0
   36.3930   28.5720   35.6900 C   0  0  0  0  0  0  0  0  0  0  0  0
  1  2  1  0  0  0  0
  2  3  1  0  0  0  0
  3 15  1  0  0  0  0
  3  4  2  0  0  0  0
  4  8  1  0  0  0  0
  5  4  1  0  0  0  0
  5  9  1  0  0  0  0
  6  5  2  0  0  0  0
  7  2  2  0  0  0  0
  7  6  1  0  0  0  0
 10  6  1  0  0  0  0
 11 17  1  0  0  0  0
 12 11  1  0  0  0  0
 12 18  1  0  0  0  0
 13 12  2  0  0  0  0
 14 15  2  0  0  0  0
 14 13  1  0  0  0  0
 15 16  1  0  0  0  0
 16 11  2  0  0  0  0
 19 13  1  0  0  0  0
 20  7  1  0  0  0  0
 21 20  2  0  0  0  0
 21 25  1  0  0  0  0
 22 23  1  0  0  0  0
 22 21  1  0  0  0  0
 23 24  2  0  0  0  0
 24 20  1  0  0  0  0
 26 27  1  0  0  0  0
 27 28  2  0  0  0  0
 27 23  1  0  0  0  0
 28 29  1  0  0  0  0
 30 31  1  0  0  0  0
 30 28  1  0  0  0  0
 32 30  2  0  0  0  0
 33 32  1  0  0  0  0
 33 26  2  0  0  0  0
 34 35  3  0  0  0  0
 35 26  1  0  0  0  0
M  END
>  <minimizedAffinity>
-5.43189907

$$$$

 OpenBabel03242511303D

 35 38  0  0  0  0  0  0  0  0999 V2000
   40.6670   30.5700   38.7730 Cl  0  0  0  0  0  0  0  0  0  0  0  0
   39.5130   31.7480   39.2740 C   0  0  0  0  0  0  0  0  0  0  0  0
   39.8970   33.0620   39.4440 C   0  0  0  0  0  0  0  0  0  0  0  0
   39.0010   34.0440   39.8500 C   0  0  0  0  0  0  0  0  0  0  0  0
   37.7060   33.6270   40.0750 C   0  0  0  0  0  0  0  0  0  0  0  0
   37.3250   32.3400   39.9100 C   0  0  0  0  0  0  0  0  0  0  0  0
   38.2130   31.3690   39.5080 C   0  0  0  0  0  0  0  0  0  0  0  0
   39.3450   35.0630   39.9710 H   0  0  0  0  0  0  0  0  0  0  0  0
   37.0200   34.4080   40.3920 H   0  0  0  0  0  0  0  0  0  0  0  0
   36.2830   32.1230   40.1140 H   0  0  0  0  0  0  0  0  0  0  0  0
   42.9450   34.1600   37.6790 C   0  0  0  0  0  0  0  0  0  0  0  0
   43.8920   34.1610   38.6930 C   0  0  0  0  0  0  0  0  0  0  0  0
   43.5010   33.7920   39.9650 C   0  0  0  0  0  0  0  0  0  0  0  0
   42.2030   33.4420   40.1820 N   0  0  0  0  0  0  0  0  0  0  0  0
   41.2840   33.4430   39.1880 C   0  0  0  0  0  0  0  0  0  0  0  0
   41.6820   33.8050   37.9510 N   0  0  0  0  0  0  0  0  0  0  0  0
   43.1910   34.4400   36.6560 H   0  0  0  0  0  0  0  0  0  0  0  0
   44.8740   34.4550   38.3970 H   0  0  0  0  0  0  0  0  0  0  0  0
   44.2430   33.7980   40.7360 H   0  0  0  0  0  0  0  0  0  0  0  0
   37.6520   30.0230   39.3710 C   0  0  0  0  0  0  0  0  0  0  0  0
   36.6490   29.8200   38.4250 C   0  0  0  0  0  0  0  0  0  0  0  0
   36.2690   28.0130   38.6260 S   0  0  0  0  0  0  0  0  0  0  0  0
   37.5770   27.8810   39.9890 C   0  0  0  0  0  0  0  0  0  0  0  0
   37.9560   28.9280   40.0330 N   0  0  0  0  0  0  0  0  0  0  0  0
   36.1850   30.5130   37.7320 H   0  0  0  0  0  0  0  0  0  0  0  0
   38.7710   25.6930   40.2020 C   0  0  0  0  0  0  0  0  0  0  0  0
   37.7600   26.5320   40.6130 C   0  0  0  0  0  0  0  0  0  0  0  0
   36.9440   26.0700   41.6230 C   0  0  0  0  0  0  0  0  0  0  0  0
   36.1330   26.6830   41.9880 H   0  0  0  0  0  0  0  0  0  0  0  0
   37.0960   24.8500   42.2130 C   0  0  0  0  0  0  0  0  0  0  0  0
   36.4480   24.4990   43.0060 H   0  0  0  0  0  0  0  0  0  0  0  0
   38.1080   24.0370   41.7870 C   0  0  0  0  0  3  0  0  0  0  0  0
   38.9520   24.4540   40.7780 C   0  0  0  0  0  3  0  0  0  0  0  0
   40.2720   26.6150   38.2940 N   0  0  0  0  0  0  0  0  0  0  0  0
   39.6000   26.1920   39.1450 C   0  0  0  0  0  0  0  0  0  0  0  0
  1  2  1  0  0  0  0
  2  3  2  0  0  0  0
  2  7  1  0  0  0  0
  3  4  1  0  0  0  0
  4  8  1  0  0  0  0
  4  5  2  0  0  0  0
  5  9  1  0  0  0  0
  6  5  1  0  0  0  0
  6 10  1  0  0  0  0
  7  6  2  0  0  0  0
 11 16  2  0  0  0  0
 11 12  1  0  0  0  0
 12 13  2  0  0  0  0
 13 14  1  0  0  0  0
 13 19  1  0  0  0  0
 15  3  1  0  0  0  0
 15 14  2  0  0  0  0
 16 15  1  0  0  0  0
 17 11  1  0  0  0  0
 18 12  1  0  0  0  0
 20  7  1  0  0  0  0
 20 24  1  0  0  0  0
 21 22  1  0  0  0  0
 21 20  2  0  0  0  0
 22 23  1  0  0  0  0
 23 24  2  0  0  0  0
 23 27  1  0  0  0  0
 25 21  1  0  0  0  0
 26 27  2  0  0  0  0
 26 33  1  0  0  0  0
 27 28  1  0  0  0  0
 28 29  1  0  0  0  0
 28 30  2  0  0  0  0
 30 31  1  0  0  0  0
 32 30  1  0  0  0  0
 33 32  2  0  0  0  0
 34 35  3  0  0  0  0
 35 26  1  0  0  0  0
M  END
>  <minimizedAffinity>
-5.41623735

$$$$
