
 OpenBabel03252506063D

 44 48  0  0  0  0  0  0  0  0999 V2000
   44.8760   35.9790   43.2010 Cl  0  0  0  0  0  0  0  0  0  0  0  0
   45.6070   34.7390   44.1580 C   0  0  0  0  0  0  0  0  0  0  0  0
   46.7240   34.0670   43.6910 C   0  0  0  0  0  0  0  0  0  0  0  0
   47.2200   33.0980   44.5410 C   0  0  0  0  0  0  0  0  0  0  0  0
   46.6990   32.7710   45.7700 C   0  0  0  0  0  0  0  0  0  0  0  0
   45.5970   33.4580   46.1920 C   0  0  0  0  0  0  0  0  0  0  0  0
   44.9570   33.0140   47.7650 Cl  0  0  0  0  0  0  0  0  0  0  0  0
   45.0520   34.4330   45.3980 C   0  0  0  0  0  0  0  0  0  0  0  0
   48.1080   32.5700   44.1610 H   0  0  0  0  0  0  0  0  0  0  0  0
   44.1780   34.9590   45.7620 H   0  0  0  0  0  0  0  0  0  0  0  0
   47.3840   31.7050   46.5140 C   0  0  0  0  0  0  0  0  0  0  0  0
   47.5080   30.4160   46.0460 C   0  0  0  0  0  0  0  0  0  0  0  0
   48.1440   29.4060   46.7260 C   0  0  0  0  0  0  0  0  0  0  0  0
   48.7020   29.6880   47.9640 C   0  0  0  0  0  0  0  0  0  0  0  0
   49.3190   28.6800   48.6100 N   0  0  0  0  0  0  0  0  0  0  0  0
   49.8890   28.8530   49.8130 C   0  0  0  0  0  0  0  0  0  0  0  0
   49.8130   30.1260   50.3650 C   0  0  0  0  0  0  0  0  0  0  0  0
   49.1830   31.1530   49.7070 C   0  0  0  0  0  0  0  0  0  0  0  0
   48.6030   30.9540   48.4670 C   0  0  0  0  0  0  0  0  0  0  0  0
   47.9580   31.9500   47.7640 C   0  0  0  0  0  0  0  0  0  0  0  0
   47.0740   30.1900   45.0800 H   0  0  0  0  0  0  0  0  0  0  0  0
   48.1960   28.4260   46.2880 H   0  0  0  0  0  0  0  0  0  0  0  0
   50.3780   28.0330   50.3130 H   0  0  0  0  0  0  0  0  0  0  0  0
   50.2800   30.2490   51.3400 H   0  0  0  0  0  0  0  0  0  0  0  0
   49.1310   32.1400   50.1460 H   0  0  0  0  0  0  0  0  0  0  0  0
   47.8940   32.9440   48.1850 H   0  0  0  0  0  0  0  0  0  0  0  0
   48.7640   35.6430   41.1240 C   0  0  0  0  0  0  0  0  0  0  0  0
   48.4620   34.8970   39.9750 C   0  0  0  0  0  0  0  0  0  0  0  0
   47.5450   33.8370   40.0830 C   0  0  0  0  0  0  0  0  0  0  0  0
   47.0370   33.6440   41.3160 N   0  0  0  0  0  0  0  0  0  0  0  0
   47.3290   34.3590   42.4060 C   0  0  0  0  0  0  0  0  0  0  0  0
   48.1990   35.3690   42.3210 N   0  0  0  0  0  0  0  0  0  0  0  0
   49.4620   36.4320   40.9910 H   0  0  0  0  0  0  0  0  0  0  0  0
   48.9110   35.1210   39.0430 H   0  0  0  0  0  0  0  0  0  0  0  0
   48.0080   31.9720   38.6090 C   0  0  0  0  0  0  0  0  0  0  0  0
   47.1670   33.0070   38.9540 C   0  0  0  0  0  0  0  0  0  0  0  0
   46.0180   33.2120   38.2210 C   0  0  0  0  0  0  0  0  0  0  0  0
   45.3460   33.9980   38.4550 H   0  0  0  0  0  0  0  0  0  0  0  0
   45.6620   32.4100   37.1360 C   0  0  0  0  0  0  0  0  0  0  0  0
   44.7760   32.5590   36.5630 H   0  0  0  0  0  0  0  0  0  0  0  0
   46.4930   31.3620   36.7720 C   0  0  0  0  0  3  0  0  0  0  0  0
   47.6450   31.1700   37.5200 C   0  0  0  0  0  3  0  0  0  0  0  0
   50.2010   31.4590   39.8860 N   0  0  0  0  0  0  0  0  0  0  0  0
   49.2290   31.6820   39.3150 C   0  0  0  0  0  0  0  0  0  0  0  0
  1  2  1  0  0  0  0
  2  8  1  0  0  0  0
  3  2  2  0  0  0  0
  3  4  1  0  0  0  0
  4  5  2  0  0  0  0
  5  6  1  0  0  0  0
  5 11  1  0  0  0  0
  6  7  1  0  0  0  0
  8 10  1  0  0  0  0
  8  6  2  0  0  0  0
  9  4  1  0  0  0  0
 11 20  1  0  0  0  0
 12 11  2  0  0  0  0
 12 13  1  0  0  0  0
 13 14  2  0  0  0  0
 14 19  1  0  0  0  0
 14 15  1  0  0  0  0
 15 16  2  0  0  0  0
 16 23  1  0  0  0  0
 16 17  1  0  0  0  0
 17 24  1  0  0  0  0
 18 25  1  0  0  0  0
 18 17  2  0  0  0  0
 19 18  1  0  0  0  0
 20 26  1  0  0  0  0
 20 19  2  0  0  0  0
 21 12  1  0  0  0  0
 22 13  1  0  0  0  0
 27 32  1  0  0  0  0
 28 29  1  0  0  0  0
 28 27  2  0  0  0  0
 29 30  2  0  0  0  0
 30 31  1  0  0  0  0
 31  3  1  0  0  0  0
 32 31  2  0  0  0  0
 33 27  1  0  0  0  0
 34 28  1  0  0  0  0
 35 36  1  0  0  0  0
 35 44  1  0  0  0  0
 36 29  1  0  0  0  0
 37 38  1  0  0  0  0
 37 36  2  0  0  0  0
 39 37  1  0  0  0  0
 40 39  1  0  0  0  0
 41 39  2  0  0  0  0
 41 42  1  0  0  0  0
 42 35  2  0  0  0  0
 44 43  3  0  0  0  0
M  END
>  <minimizedAffinity>
-6.82834196

>  <minimizedRMSD>
0.832482457

$$$$
