
 OpenBabel03252507193D

 45 48  0  0  1  0  0  0  0  0999 V2000
   44.8600   32.9590   41.6210 C   0  0  0  0  0  0  0  0  0  0  0  0
   45.8380   33.0780   40.8380 O   0  0  0  0  0  0  0  0  0  0  0  0
   43.8110   32.0060   41.4440 N   0  0  0  0  0  0  0  0  0  0  0  0
   43.1620   31.1130   42.4000 C   0  0  0  0  0  0  0  0  0  0  0  0
   41.6320   31.3020   42.3070 C   0  0  0  0  0  0  0  0  0  0  0  0
   41.1670   30.8510   40.9410 C   0  0  0  0  0  0  0  0  0  0  0  0
   42.3460   30.7020   40.0230 C   0  0  0  0  0  0  0  0  0  0  0  0
   43.2770   31.8800   40.1150 C   0  0  2  0  0  0  0  0  0  0  0  0
   43.3910   31.4860   43.4390 H   0  0  0  0  0  0  0  0  0  0  0  0
   43.4020   30.0620   42.2580 H   0  0  0  0  0  0  0  0  0  0  0  0
   41.1460   30.8010   43.1400 H   0  0  0  0  0  0  0  0  0  0  0  0
   41.5130   32.4150   42.3130 H   0  0  0  0  0  0  0  0  0  0  0  0
   40.3770   31.4990   40.5120 H   0  0  0  0  0  0  0  0  0  0  0  0
   40.7170   29.8370   41.0570 H   0  0  0  0  0  0  0  0  0  0  0  0
   42.0090   30.5820   38.9770 H   0  0  0  0  0  0  0  0  0  0  0  0
   42.8910   29.7540   40.2640 H   0  0  0  0  0  0  0  0  0  0  0  0
   42.5990   32.7800   40.0070 H   0  0  0  0  0  0  0  0  0  0  0  0
   44.0090   35.0090   42.6470 C   0  0  0  0  0  0  0  0  0  0  0  0
   44.7980   33.8420   42.7620 C   0  0  0  0  0  0  0  0  0  0  0  0
   45.4720   33.5850   43.9360 C   0  0  0  0  0  0  0  0  0  0  0  0
   45.3510   34.4690   44.9510 N   0  0  0  0  0  0  0  0  0  0  0  0
   44.5970   35.5920   44.8560 C   0  0  0  0  0  0  0  0  0  0  0  0
   43.9410   35.8400   43.7060 N   0  0  0  0  0  0  0  0  0  0  0  0
   43.4760   35.2190   41.7290 H   0  0  0  0  0  0  0  0  0  0  0  0
   44.5760   36.2250   45.7300 H   0  0  0  0  0  0  0  0  0  0  0  0
   46.2810   32.3870   44.0270 C   0  0  0  0  0  0  0  0  0  0  0  0
   45.8010   31.2870   44.6730 C   0  0  0  0  0  0  0  0  0  0  0  0
   46.5800   30.1550   44.7530 C   0  0  0  0  0  0  0  0  0  0  0  0
   47.8540   30.0780   44.1970 C   0  0  0  0  0  0  0  0  0  0  0  0
   48.2840   31.2230   43.5570 C   0  0  0  0  0  0  0  0  0  0  0  0
   47.4960   32.3090   43.4980 N   0  0  0  0  0  0  0  0  0  0  0  0
   44.8430   31.1870   45.1560 H   0  0  0  0  0  0  0  0  0  0  0  0
   46.2480   29.2440   45.2580 H   0  0  0  0  0  0  0  0  0  0  0  0
   48.4910   29.2050   44.2430 H   0  0  0  0  0  0  0  0  0  0  0  0
   49.2520   31.3080   43.0800 H   0  0  0  0  0  0  0  0  0  0  0  0
   44.2470   33.0190   38.1140 C   0  0  0  0  0  0  0  0  0  0  0  0
   44.2280   31.9480   39.0160 C   0  0  0  0  0  0  0  0  0  0  0  0
   45.2000   30.9920   38.7020 C   0  0  0  0  0  0  0  0  0  0  0  0
   45.2520   30.1260   39.3510 H   0  0  0  0  0  0  0  0  0  0  0  0
   46.0760   31.0800   37.6400 C   0  0  0  0  0  0  0  0  0  0  0  0
   46.8010   30.2970   37.4630 H   0  0  0  0  0  0  0  0  0  0  0  0
   46.0060   32.1830   36.8150 C   0  0  0  0  0  3  0  0  0  0  0  0
   45.0850   33.1870   37.0310 C   0  0  0  0  0  3  0  0  0  0  0  0
   42.4870   34.8970   38.5860 N   0  0  0  0  0  0  0  0  0  0  0  0
   43.2630   34.0560   38.3760 C   0  0  0  0  0  0  0  0  0  0  0  0
  1 19  1  0  0  0  0
  2  1  2  0  0  0  0
  3  1  1  0  0  0  0
  3  4  1  0  0  0  0
  4  9  1  0  0  0  0
  5 12  1  0  0  0  0
  5  4  1  0  0  0  0
  5 11  1  0  0  0  0
  6 14  1  0  0  0  0
  6  5  1  0  0  0  0
  7  8  1  0  0  0  0
  7 16  1  0  0  0  0
  7  6  1  0  0  0  0
  8 17  1  6  0  0  0
  8  3  1  0  0  0  0
 10  4  1  0  0  0  0
 13  6  1  0  0  0  0
 15  7  1  0  0  0  0
 18 19  2  0  0  0  0
 18 23  1  0  0  0  0
 19 20  1  0  0  0  0
 20 26  1  0  0  0  0
 20 21  2  0  0  0  0
 22 21  1  0  0  0  0
 22 25  1  0  0  0  0
 23 22  2  0  0  0  0
 24 18  1  0  0  0  0
 26 27  1  0  0  0  0
 27 28  2  0  0  0  0
 27 32  1  0  0  0  0
 28 33  1  0  0  0  0
 29 34  1  0  0  0  0
 29 28  1  0  0  0  0
 30 29  2  0  0  0  0
 31 30  1  0  0  0  0
 31 26  2  0  0  0  0
 35 30  1  0  0  0  0
 36 45  1  0  0  0  0
 36 37  1  0  0  0  0
 37  8  1  0  0  0  0
 38 37  2  0  0  0  0
 38 39  1  0  0  0  0
 40 38  1  0  0  0  0
 41 40  1  0  0  0  0
 42 43  1  0  0  0  0
 42 40  2  0  0  0  0
 43 36  2  0  0  0  0
 45 44  3  0  0  0  0
M  END
>  <minimizedAffinity>
-4.25915813

>  <minimizedRMSD>
4.66088104

$$$$
