
 OpenBabel03252505043D

 35 37  0  0  1  0  0  0  0  0999 V2000
   45.1560   35.0120   44.2130 C   0  0  0  0  0  0  0  0  0  0  0  0
   45.8330   34.5410   43.0590 C   0  0  0  0  0  0  0  0  0  0  0  0
   46.7330   33.4570   43.2200 C   0  0  0  0  0  0  0  0  0  0  0  0
   46.9050   32.9270   44.4560 N   0  0  0  0  0  0  0  0  0  0  0  0
   46.2340   33.4120   45.5260 C   0  0  0  0  0  0  0  0  0  0  0  0
   45.3630   34.4480   45.4160 N   0  0  0  0  0  0  0  0  0  0  0  0
   44.4510   35.8310   44.1980 H   0  0  0  0  0  0  0  0  0  0  0  0
   45.5590   35.0930   42.2020 H   0  0  0  0  0  0  0  0  0  0  0  0
   46.4850   32.7710   46.8460 C   0  0  2  0  0  0  0  0  0  0  0  0
   47.1300   31.4530   46.5760 C   0  0  0  0  0  0  0  0  0  0  0  0
   46.2760   30.2600   46.7330 C   0  0  0  0  0  0  0  0  0  0  0  0
   45.7070   30.3330   48.1380 C   0  0  0  0  0  0  0  0  0  0  0  0
   44.8150   31.4850   48.3340 C   0  0  0  0  0  0  0  0  0  0  0  0
   45.2640   32.7390   47.6370 C   0  0  0  0  0  0  0  0  0  0  0  0
   47.2140   33.4400   47.3520 H   0  0  0  0  0  0  0  0  0  0  0  0
   48.0010   31.3440   47.2530 H   0  0  0  0  0  0  0  0  0  0  0  0
   47.5700   31.4500   45.5330 H   0  0  0  0  0  0  0  0  0  0  0  0
   46.9200   29.3590   46.7230 H   0  0  0  0  0  0  0  0  0  0  0  0
   45.4890   30.1150   45.9920 H   0  0  0  0  0  0  0  0  0  0  0  0
   46.4740   30.1850   48.8940 H   0  0  0  0  0  0  0  0  0  0  0  0
   45.0140   29.4470   48.1920 H   0  0  0  0  0  0  0  0  0  0  0  0
   43.9110   31.6170   48.8690 H   0  0  0  0  0  0  0  0  0  0  0  0
   44.4800   33.9230   47.7490 N   0  0  0  0  0  0  0  0  0  0  0  0
   43.5960   33.7650   47.2420 H   0  0  0  0  0  0  0  0  0  0  0  0
   44.7880   34.7930   48.2700 H   0  0  0  0  0  0  0  0  0  0  0  0
   46.8530   32.2410   41.0530 C   0  0  0  0  0  0  0  0  0  0  0  0
   47.4090   33.0450   42.0250 C   0  0  0  0  0  0  0  0  0  0  0  0
   48.7070   33.4000   41.7330 C   0  0  0  0  0  0  0  0  0  0  0  0
   49.2930   34.0210   42.3700 H   0  0  0  0  0  0  0  0  0  0  0  0
   49.3820   33.0030   40.6000 C   0  0  0  0  0  0  0  0  0  0  0  0
   50.4090   33.3010   40.3970 H   0  0  0  0  0  0  0  0  0  0  0  0
   48.7830   32.2050   39.6670 C   0  0  0  0  0  3  0  0  0  0  0  0
   47.5020   31.8200   39.8980 C   0  0  0  0  0  3  0  0  0  0  0  0
   44.4490   31.3470   41.3360 N   0  0  0  0  0  0  0  0  0  0  0  0
   45.5150   31.7550   41.2080 C   0  0  0  0  0  0  0  0  0  0  0  0
  1  6  1  0  0  0  0
  2  3  1  0  0  0  0
  2  1  2  0  0  0  0
  3  4  2  0  0  0  0
  4  5  1  0  0  0  0
  5  9  1  0  0  0  0
  6  5  2  0  0  0  0
  7  1  1  0  0  0  0
  8  2  1  0  0  0  0
  9 15  1  1  0  0  0
  9 14  1  0  0  0  0
 10 11  1  0  0  0  0
 10  9  1  0  0  0  0
 10 16  1  0  0  0  0
 11 12  1  0  0  0  0
 12 21  1  0  0  0  0
 12 13  1  0  0  0  0
 12 20  1  0  0  0  0
 13 22  1  0  0  0  0
 14 23  1  0  0  0  0
 14 13  2  0  0  0  0
 17 10  1  0  0  0  0
 18 11  1  0  0  0  0
 19 11  1  0  0  0  0
 23 25  1  0  0  0  0
 24 23  1  0  0  0  0
 26 35  1  0  0  0  0
 26 27  1  0  0  0  0
 27  3  1  0  0  0  0
 28 27  2  0  0  0  0
 28 29  1  0  0  0  0
 30 28  1  0  0  0  0
 31 30  1  0  0  0  0
 32 33  1  0  0  0  0
 32 30  2  0  0  0  0
 33 26  2  0  0  0  0
 35 34  3  0  0  0  0
M  END
>  <minimizedAffinity>
-5.3174715

>  <minimizedRMSD>
0.91725719

$$$$
