
 OpenBabel03252508383D

 42 45  0  0  0  0  0  0  0  0999 V2000
   45.1820   33.9770   40.6990 C   0  0  0  0  0  0  0  0  0  0  0  0
   44.1350   33.6480   39.8630 C   0  0  0  0  0  0  0  0  0  0  0  0
   44.4390   33.1670   38.6270 C   0  0  0  0  0  0  0  0  0  0  0  0
   45.7170   32.9900   38.1720 C   0  0  0  0  0  0  0  0  0  0  0  0
   46.7400   33.3210   39.0160 C   0  0  0  0  0  0  0  0  0  0  0  0
   46.4960   33.8180   40.2900 C   0  0  0  0  0  0  0  0  0  0  0  0
   43.6200   32.9090   37.9700 H   0  0  0  0  0  0  0  0  0  0  0  0
   45.8790   32.6030   37.1760 H   0  0  0  0  0  0  0  0  0  0  0  0
   47.7500   33.1770   38.6440 H   0  0  0  0  0  0  0  0  0  0  0  0
   40.8370   35.2330   40.7860 C   0  0  0  0  0  0  0  0  0  0  0  0
   42.1350   35.0790   40.2620 C   0  0  0  0  0  0  0  0  0  0  0  0
   42.7970   33.8520   40.3890 C   0  0  0  0  0  0  0  0  0  0  0  0
   42.0930   32.8900   41.0300 N   0  0  0  0  0  0  0  0  0  0  0  0
   40.8670   33.0480   41.5210 C   0  0  0  0  0  0  0  0  0  0  0  0
   40.2450   34.2270   41.3940 N   0  0  0  0  0  0  0  0  0  0  0  0
   40.2140   36.5000   40.6290 N   0  0  0  0  0  0  0  0  0  0  0  0
   42.6390   35.8930   39.7590 H   0  0  0  0  0  0  0  0  0  0  0  0
   40.4130   32.1950   42.0150 H   0  0  0  0  0  0  0  0  0  0  0  0
   40.7460   37.0960   41.3020 H   0  0  0  0  0  0  0  0  0  0  0  0
   39.4210   36.6280   39.9510 H   0  0  0  0  0  0  0  0  0  0  0  0
   47.6540   34.1410   41.1060 C   0  0  0  0  0  0  0  0  0  0  0  0
   48.1500   35.4130   40.9490 C   0  0  0  0  0  0  0  0  0  0  0  0
   49.2540   35.9040   41.6480 C   0  0  0  0  0  0  0  0  0  0  0  0
   49.8670   35.0560   42.5370 C   0  0  0  0  0  0  0  0  0  0  0  0
   49.3860   33.7770   42.7100 C   0  0  0  0  0  0  0  0  0  0  0  0
   48.2860   33.3180   41.9990 C   0  0  0  0  0  0  0  0  0  0  0  0
   47.7220   36.1570   40.2610 H   0  0  0  0  0  0  0  0  0  0  0  0
   49.6300   36.9060   41.5120 H   0  0  0  0  0  0  0  0  0  0  0  0
   50.7340   35.3470   43.1280 H   0  0  0  0  0  0  0  0  0  0  0  0
   49.8630   33.0940   43.4110 H   0  0  0  0  0  0  0  0  0  0  0  0
   48.3950   31.0080   41.3630 C   0  0  0  0  0  0  0  0  0  0  0  0
   47.7760   31.9630   42.1830 C   0  0  0  0  0  0  0  0  0  0  0  0
   46.8060   31.5010   43.0130 C   0  0  0  0  0  0  0  0  0  0  0  0
   46.3480   32.2610   43.6280 H   0  0  0  0  0  0  0  0  0  0  0  0
   46.4490   30.1700   43.0480 C   0  0  0  0  0  0  0  0  0  0  0  0
   45.6610   29.9100   43.7480 H   0  0  0  0  0  0  0  0  0  0  0  0
   47.0570   29.2270   42.2410 C   0  0  0  0  0  3  0  0  0  0  0  0
   48.0390   29.6950   41.4020 C   0  0  0  0  0  3  0  0  0  0  0  0
   50.2760   31.6650   39.6710 N   0  0  0  0  0  0  0  0  0  0  0  0
   49.4490   31.3670   40.4250 C   0  0  0  0  0  0  0  0  0  0  0  0
   44.7680   34.9040   43.0960 N   0  0  0  0  0  0  0  0  0  0  0  0
   44.9520   34.5000   42.0220 C   0  0  0  0  0  0  0  0  0  0  0  0
  1 42  1  0  0  0  0
  2 12  1  0  0  0  0
  2  1  2  0  0  0  0
  3  2  1  0  0  0  0
  4  3  2  0  0  0  0
  4  5  1  0  0  0  0
  5  6  2  0  0  0  0
  6  1  1  0  0  0  0
  6 21  1  0  0  0  0
  7  3  1  0  0  0  0
  8  4  1  0  0  0  0
  9  5  1  0  0  0  0
 10 15  1  0  0  0  0
 11 12  1  0  0  0  0
 11 10  2  0  0  0  0
 12 13  2  0  0  0  0
 13 14  1  0  0  0  0
 14 18  1  0  0  0  0
 15 14  2  0  0  0  0
 16 10  1  0  0  0  0
 16 19  1  0  0  0  0
 17 11  1  0  0  0  0
 20 16  1  0  0  0  0
 21 26  1  0  0  0  0
 22 21  2  0  0  0  0
 22 23  1  0  0  0  0
 23 24  2  0  0  0  0
 24 25  1  0  0  0  0
 24 29  1  0  0  0  0
 25 30  1  0  0  0  0
 26 32  1  0  0  0  0
 26 25  2  0  0  0  0
 27 22  1  0  0  0  0
 28 23  1  0  0  0  0
 31 38  2  0  0  0  0
 31 32  1  0  0  0  0
 32 33  2  0  0  0  0
 33 35  1  0  0  0  0
 33 34  1  0  0  0  0
 35 36  1  0  0  0  0
 37 35  2  0  0  0  0
 38 37  1  0  0  0  0
 39 40  3  0  0  0  0
 40 31  1  0  0  0  0
 42 41  3  0  0  0  0
M  END
>  <minimizedAffinity>
-5.99497271

>  <minimizedRMSD>
1.12777102

$$$$
