
 OpenBabel03242514103D

 47 50  0  0  1  0  0  0  0  0999 V2000
   47.7630   34.1020   41.5530 C   0  0  0  0  0  0  0  0  0  0  0  0
   48.4270   35.2010   42.0990 C   0  0  0  0  0  0  0  0  0  0  0  0
   49.7490   35.1700   42.5170 C   0  0  0  0  0  0  0  0  0  0  0  0
   50.3760   33.9270   42.3460 C   0  0  0  0  0  0  0  0  0  0  0  0
   49.6960   32.8240   41.7940 C   0  0  0  0  0  0  0  0  0  0  0  0
   48.4120   32.9310   41.4110 N   0  0  0  0  0  0  0  0  0  0  0  0
   47.8510   36.1170   42.1870 H   0  0  0  0  0  0  0  0  0  0  0  0
   50.2160   36.0290   42.9260 H   0  0  0  0  0  0  0  0  0  0  0  0
   51.3990   33.9580   42.6900 H   0  0  0  0  0  0  0  0  0  0  0  0
   50.4130   31.5660   41.6270 C   0  0  1  0  0  0  0  0  0  0  0  0
   51.6860   31.7760   40.7080 C   0  0  0  0  0  0  0  0  0  0  0  0
   52.0210   30.3150   40.2930 C   0  0  0  0  0  0  0  0  0  0  0  0
   52.6360   29.7150   41.5530 C   0  0  0  0  0  0  0  0  0  0  0  0
   51.6570   29.6750   42.6690 C   0  0  0  0  0  0  0  0  0  0  0  0
   50.7450   30.8340   42.8120 C   0  0  2  0  0  0  0  0  0  0  0  0
   49.7830   30.9490   40.9190 H   0  0  0  0  0  0  0  0  0  0  0  0
   52.5030   32.1670   41.3230 H   0  0  0  0  0  0  0  0  0  0  0  0
   51.4040   32.3760   39.8380 H   0  0  0  0  0  0  0  0  0  0  0  0
   52.8060   30.3140   39.5160 H   0  0  0  0  0  0  0  0  0  0  0  0
   51.1140   29.7670   40.0460 H   0  0  0  0  0  0  0  0  0  0  0  0
   52.9550   28.6840   41.2880 H   0  0  0  0  0  0  0  0  0  0  0  0
   53.5770   30.2510   41.8080 H   0  0  0  0  0  0  0  0  0  0  0  0
   52.2220   29.4970   43.6090 H   0  0  0  0  0  0  0  0  0  0  0  0
   51.0800   28.7100   42.5400 H   0  0  0  0  0  0  0  0  0  0  0  0
   51.2450   31.5220   43.5610 H   0  0  0  0  0  0  0  0  0  0  0  0
   49.1830   30.1780   43.4830 S   0  0  0  0  0  0  0  0  0  0  0  0
   48.6000   29.4200   42.4460 H   0  0  0  0  0  0  0  0  0  0  0  0
   44.2140   34.9260   41.4120 C   0  0  0  0  0  0  0  0  0  0  0  0
   43.7860   34.4140   40.1900 C   0  0  0  0  0  0  0  0  0  0  0  0
   44.7580   33.7820   39.4310 C   0  0  0  0  0  0  0  0  0  0  0  0
   46.0380   33.6990   39.9100 N   0  0  0  0  0  0  0  0  0  0  0  0
   46.3820   34.2340   41.1360 C   0  0  0  0  0  0  0  0  0  0  0  0
   45.4900   34.8230   41.8490 N   0  0  0  0  0  0  0  0  0  0  0  0
   44.5260   33.2130   38.1830 N   0  0  0  0  0  0  0  0  0  0  0  0
   43.4260   35.4150   41.9830 H   0  0  0  0  0  0  0  0  0  0  0  0
   43.8080   32.4760   38.3120 H   0  0  0  0  0  0  0  0  0  0  0  0
   44.9550   33.4300   37.2390 H   0  0  0  0  0  0  0  0  0  0  0  0
   41.5250   33.5630   40.1870 C   0  0  0  0  0  0  0  0  0  0  0  0
   42.4220   34.5030   39.6800 C   0  0  0  0  0  0  0  0  0  0  0  0
   41.9700   35.4350   38.7500 C   0  0  0  0  0  0  0  0  0  0  0  0
   42.7040   36.1340   38.3940 H   0  0  0  0  0  0  0  0  0  0  0  0
   40.6460   35.3940   38.3640 C   0  0  0  0  0  0  0  0  0  0  0  0
   40.3090   36.1230   37.6400 H   0  0  0  0  0  0  0  0  0  0  0  0
   39.7360   34.4770   38.8470 C   0  0  0  0  0  0  0  0  0  0  0  0
   40.2080   33.5490   39.7790 C   0  0  0  0  0  0  0  0  0  0  0  0
   42.2500   31.7700   41.9210 N   0  0  0  0  0  0  0  0  0  0  0  0
   41.9360   32.5740   41.1520 C   0  0  0  0  0  0  0  0  0  0  0  0
  1  2  1  0  0  0  0
  2  7  1  0  0  0  0
  2  3  2  0  0  0  0
  3  8  1  0  0  0  0
  4  3  1  0  0  0  0
  4  9  1  0  0  0  0
  5  4  2  0  0  0  0
  6  1  2  0  0  0  0
  6  5  1  0  0  0  0
 10 16  1  6  0  0  0
 10  5  1  0  0  0  0
 10 15  1  0  0  0  0
 11 17  1  0  0  0  0
 11 10  1  0  0  0  0
 12 11  1  0  0  0  0
 12 13  1  0  0  0  0
 13 22  1  0  0  0  0
 13 14  1  0  0  0  0
 14 15  1  0  0  0  0
 14 23  1  0  0  0  0
 15 26  1  0  0  0  0
 15 25  1  1  0  0  0
 18 11  1  0  0  0  0
 19 12  1  0  0  0  0
 20 12  1  0  0  0  0
 21 13  1  0  0  0  0
 24 14  1  0  0  0  0
 27 26  1  0  0  0  0
 28 33  1  0  0  0  0
 28 35  1  0  0  0  0
 29 28  2  0  0  0  0
 30 31  2  0  0  0  0
 30 29  1  0  0  0  0
 31 32  1  0  0  0  0
 32  1  1  0  0  0  0
 32 33  2  0  0  0  0
 34 36  1  0  0  0  0
 34 30  1  0  0  0  0
 37 34  1  0  0  0  0
 38 47  1  0  0  0  0
 39 38  2  0  0  0  0
 39 29  1  0  0  0  0
 40 39  1  0  0  0  0
 41 40  1  0  0  0  0
 42 40  2  0  0  0  0
 42 44  1  0  0  0  0
 43 42  1  0  0  0  0
 44 45  2  0  0  0  0
 45 38  1  0  0  0  0
 47 46  3  0  0  0  0
M  END
>  <minimizedAffinity>
-6.18566465

>  <minimizedRMSD>
6.81530523

$$$$
