
 OpenBabel03242521233D

 43 46  0  0  0  0  0  0  0  0999 V2000
   45.3550   33.6980   45.7390 C   0  0  0  0  0  0  0  0  0  0  0  0
   44.8420   34.9170   46.0440 C   0  0  0  0  0  0  0  0  0  0  0  0
   44.4390   35.8350   45.0970 C   0  0  0  0  0  0  0  0  0  0  0  0
   44.5770   35.4660   43.8070 N   0  0  0  0  0  0  0  0  0  0  0  0
   45.0890   34.2540   43.4960 C   0  0  0  0  0  0  0  0  0  0  0  0
   45.4750   33.3730   44.4270 N   0  0  0  0  0  0  0  0  0  0  0  0
   44.7460   35.1760   47.0910 H   0  0  0  0  0  0  0  0  0  0  0  0
   44.0320   36.8010   45.3550 H   0  0  0  0  0  0  0  0  0  0  0  0
   45.2340   33.8650   42.0760 C   0  0  0  0  0  0  0  0  0  0  0  0
   44.1890   33.2470   41.4360 C   0  0  0  0  0  0  0  0  0  0  0  0
   44.2100   32.8380   40.1070 C   0  0  0  0  0  0  0  0  0  0  0  0
   45.3850   33.0890   39.4150 C   0  0  0  0  0  0  0  0  0  0  0  0
   46.4270   33.7020   40.0480 C   0  0  0  0  0  0  0  0  0  0  0  0
   46.3850   34.1020   41.3680 C   0  0  0  0  0  0  0  0  0  0  0  0
   43.2740   33.0600   41.9960 H   0  0  0  0  0  0  0  0  0  0  0  0
   43.3770   32.3580   39.6340 H   0  0  0  0  0  0  0  0  0  0  0  0
   45.4230   32.7760   38.3720 H   0  0  0  0  0  0  0  0  0  0  0  0
   47.3600   33.9060   39.5150 H   0  0  0  0  0  0  0  0  0  0  0  0
   47.4090   34.7160   42.0290 O   0  0  0  0  0  0  0  0  0  0  0  0
   49.8500   35.3850   42.6710 O   0  0  0  0  0  0  0  0  0  0  0  0
   49.0200   34.7940   41.5280 P   0  0  0  0  0  0  0  0  0  0  0  0
   49.6580   33.3390   41.0160 O   0  0  0  0  0  0  0  0  0  0  0  0
   48.9210   32.7220   40.7430 H   0  0  0  0  0  0  0  0  0  0  0  0
   49.1290   35.9080   40.2490 O   0  0  0  0  0  0  0  0  0  0  0  0
   50.0010   36.3780   40.2810 H   0  0  0  0  0  0  0  0  0  0  0  0
   45.5150   31.8950   48.9140 C   0  0  0  0  0  0  0  0  0  0  0  0
   46.5370   30.9750   48.6700 C   0  0  0  0  0  0  0  0  0  0  0  0
   47.1610   30.9690   47.4470 C   0  0  0  0  0  0  0  0  0  0  0  0
   46.7530   31.8750   46.5020 N   0  0  0  0  0  0  0  0  0  0  0  0
   45.7690   32.7520   46.7540 C   0  0  0  0  0  0  0  0  0  0  0  0
   45.1590   32.7580   47.9500 N   0  0  0  0  0  0  0  0  0  0  0  0
   44.9840   31.9500   49.8570 H   0  0  0  0  0  0  0  0  0  0  0  0
   46.8240   30.2800   49.4450 H   0  0  0  0  0  0  0  0  0  0  0  0
   49.3990   30.0260   47.8460 C   0  0  0  0  0  0  0  0  0  0  0  0
   48.2340   30.0460   47.1090 C   0  0  0  0  0  0  0  0  0  0  0  0
   48.1910   29.1500   46.0740 C   0  0  0  0  0  0  0  0  0  0  0  0
   47.3110   29.1050   45.4510 H   0  0  0  0  0  0  0  0  0  0  0  0
   49.2190   28.2770   45.7640 C   0  0  0  0  0  0  0  0  0  0  0  0
   49.0990   27.5950   44.9210 H   0  0  0  0  0  0  0  0  0  0  0  0
   50.3620   28.3010   46.5350 C   0  0  0  0  0  0  0  0  0  0  0  0
   50.4670   29.1810   47.5930 C   0  0  0  0  0  0  0  0  0  0  0  0
   49.7530   31.6310   49.8870 N   0  0  0  0  0  0  0  0  0  0  0  0
   49.5850   30.9200   48.9720 C   0  0  0  0  0  0  0  0  0  0  0  0
  1  2  1  0  0  0  0
  1 30  1  0  0  0  0
  2  7  1  0  0  0  0
  3  8  1  0  0  0  0
  3  2  2  0  0  0  0
  4  3  1  0  0  0  0
  5  4  2  0  0  0  0
  5  6  1  0  0  0  0
  6  1  2  0  0  0  0
  9  5  1  0  0  0  0
 10 15  1  0  0  0  0
 10  9  1  0  0  0  0
 11 10  2  0  0  0  0
 12 13  2  0  0  0  0
 12 11  1  0  0  0  0
 13 14  1  0  0  0  0
 14 19  1  0  0  0  0
 14  9  2  0  0  0  0
 16 11  1  0  0  0  0
 17 12  1  0  0  0  0
 18 13  1  0  0  0  0
 21 19  1  0  0  0  0
 21 20  2  0  0  0  0
 22 21  1  0  0  0  0
 23 22  1  0  0  0  0
 24 25  1  0  0  0  0
 24 21  1  0  0  0  0
 26 32  1  0  0  0  0
 27 26  1  0  0  0  0
 27 33  1  0  0  0  0
 28 27  2  0  0  0  0
 29 30  2  0  0  0  0
 29 28  1  0  0  0  0
 30 31  1  0  0  0  0
 31 26  2  0  0  0  0
 34 43  1  0  0  0  0
 35 28  1  0  0  0  0
 35 34  2  0  0  0  0
 36 35  1  0  0  0  0
 37 36  1  0  0  0  0
 38 36  2  0  0  0  0
 38 40  1  0  0  0  0
 39 38  1  0  0  0  0
 40 41  2  0  0  0  0
 41 34  1  0  0  0  0
 43 42  3  0  0  0  0
M  END
>  <minimizedAffinity>
-6.490623

>  <minimizedRMSD>
0.74440217

$$$$
