
 OpenBabel03252502033D

 35 38  0  0  0  0  0  0  0  0999 V2000
   37.0870   32.2770   39.7950 C   0  0  0  0  0  0  0  0  0  0  0  0
   36.8650   31.1650   40.6270 C   0  0  0  0  0  0  0  0  0  0  0  0
   37.9070   30.2640   40.7640 C   0  0  0  0  0  0  0  0  0  0  0  0
   39.0540   30.4890   40.1120 N   0  0  0  0  0  0  0  0  0  0  0  0
   39.2660   31.5420   39.3240 C   0  0  0  0  0  0  0  0  0  0  0  0
   38.2500   32.4240   39.1870 N   0  0  0  0  0  0  0  0  0  0  0  0
   36.2620   32.9840   39.6880 H   0  0  0  0  0  0  0  0  0  0  0  0
   40.4280   31.9590   38.5430 C   0  0  0  0  0  0  0  0  0  0  0  0
   40.9220   33.2250   38.5300 N   0  0  0  0  0  0  0  0  0  0  0  0
   41.9850   33.6410   37.8350 C   0  0  0  0  0  0  0  0  0  0  0  0
   42.6710   32.7660   37.0560 N   0  0  0  0  0  0  0  0  0  0  0  0
   42.2800   31.4770   36.9850 C   0  0  0  0  0  0  0  0  0  0  0  0
   42.9670   30.5980   36.2000 C   0  0  0  0  0  0  0  0  0  0  0  0
   42.5860   29.2660   36.1000 C   0  0  0  0  0  0  0  0  0  0  0  0
   41.4920   28.8800   36.8250 C   0  0  0  0  0  0  0  0  0  0  0  0
   40.8260   29.7950   37.6070 C   0  0  0  0  0  0  0  0  0  0  0  0
   41.1710   31.1310   37.7350 C   0  0  0  0  0  0  0  0  0  0  0  0
   42.2890   34.6840   37.9040 H   0  0  0  0  0  0  0  0  0  0  0  0
   43.8310   30.9210   35.6330 H   0  0  0  0  0  0  0  0  0  0  0  0
   43.0960   28.5450   35.4950 H   0  0  0  0  0  0  0  0  0  0  0  0
   41.1060   27.8570   36.8230 H   0  0  0  0  0  0  0  0  0  0  0  0
   39.9600   29.4670   38.1730 H   0  0  0  0  0  0  0  0  0  0  0  0
   37.3570   27.9170   41.0170 C   0  0  0  0  0  0  0  0  0  0  0  0
   37.8380   29.0830   41.6190 C   0  0  0  0  0  0  0  0  0  0  0  0
   38.1350   28.9810   42.9690 C   0  0  0  0  0  0  0  0  0  0  0  0
   38.4970   29.9030   43.4090 H   0  0  0  0  0  0  0  0  0  0  0  0
   37.9480   27.7850   43.6250 C   0  0  0  0  0  0  0  0  0  0  0  0
   38.1950   27.7500   44.6830 H   0  0  0  0  0  0  0  0  0  0  0  0
   37.4720   26.6480   43.0040 C   0  0  0  0  0  3  0  0  0  0  0  0
   37.1630   26.7100   41.6530 C   0  0  0  0  0  3  0  0  0  0  0  0
   36.7830   27.8390   38.4410 N   0  0  0  0  0  0  0  0  0  0  0  0
   37.0410   27.8850   39.5870 C   0  0  0  0  0  0  0  0  0  0  0  0
   35.6350   31.0420   41.2850 N   0  0  0  0  0  0  0  0  0  0  0  0
   35.1740   30.1320   41.0820 H   0  0  0  0  0  0  0  0  0  0  0  0
   35.2450   31.7960   41.9070 H   0  0  0  0  0  0  0  0  0  0  0  0
  1  2  1  0  0  0  0
  2  3  2  0  0  0  0
  2 33  1  0  0  0  0
  3 24  1  0  0  0  0
  4  3  1  0  0  0  0
  5  4  2  0  0  0  0
  6  5  1  0  0  0  0
  6  1  2  0  0  0  0
  7  1  1  0  0  0  0
  8  5  1  0  0  0  0
  9  8  1  0  0  0  0
 10 18  1  0  0  0  0
 10  9  2  0  0  0  0
 11 10  1  0  0  0  0
 12 11  2  0  0  0  0
 12 17  1  0  0  0  0
 13 12  1  0  0  0  0
 14 13  2  0  0  0  0
 14 15  1  0  0  0  0
 15 16  2  0  0  0  0
 16 17  1  0  0  0  0
 16 22  1  0  0  0  0
 17  8  2  0  0  0  0
 19 13  1  0  0  0  0
 20 14  1  0  0  0  0
 21 15  1  0  0  0  0
 23 24  2  0  0  0  0
 23 30  1  0  0  0  0
 24 25  1  0  0  0  0
 25 26  1  0  0  0  0
 25 27  2  0  0  0  0
 27 28  1  0  0  0  0
 29 27  1  0  0  0  0
 30 29  2  0  0  0  0
 31 32  3  0  0  0  0
 32 23  1  0  0  0  0
 33 35  1  0  0  0  0
 34 33  1  0  0  0  0
M  END
>  <minimizedAffinity>
-6.690763

$$$$

 OpenBabel03252502033D

 35 38  0  0  0  0  0  0  0  0999 V2000
   37.0570   32.0900   39.6220 C   0  0  0  0  0  0  0  0  0  0  0  0
   36.8220   30.9570   40.4210 C   0  0  0  0  0  0  0  0  0  0  0  0
   37.8540   30.0410   40.5320 C   0  0  0  0  0  0  0  0  0  0  0  0
   39.0040   30.2710   39.8870 N   0  0  0  0  0  0  0  0  0  0  0  0
   39.2280   31.3450   39.1290 C   0  0  0  0  0  0  0  0  0  0  0  0
   38.2220   32.2410   39.0190 N   0  0  0  0  0  0  0  0  0  0  0  0
   36.2390   32.8080   39.5360 H   0  0  0  0  0  0  0  0  0  0  0  0
   40.3940   31.7720   38.3610 C   0  0  0  0  0  0  0  0  0  0  0  0
   40.8560   33.0500   38.3250 N   0  0  0  0  0  0  0  0  0  0  0  0
   41.9230   33.4760   37.6410 C   0  0  0  0  0  0  0  0  0  0  0  0
   42.6450   32.5990   36.8980 N   0  0  0  0  0  0  0  0  0  0  0  0
   42.2890   31.2990   36.8510 C   0  0  0  0  0  0  0  0  0  0  0  0
   43.0130   30.4190   36.1020 C   0  0  0  0  0  0  0  0  0  0  0  0
   42.6680   29.0760   36.0290 C   0  0  0  0  0  0  0  0  0  0  0  0
   41.5690   28.6800   36.7420 C   0  0  0  0  0  0  0  0  0  0  0  0
   40.8640   29.5970   37.4870 C   0  0  0  0  0  0  0  0  0  0  0  0
   41.1740   30.9440   37.5880 C   0  0  0  0  0  0  0  0  0  0  0  0
   42.1990   34.5270   37.6900 H   0  0  0  0  0  0  0  0  0  0  0  0
   43.8800   30.7500   35.5450 H   0  0  0  0  0  0  0  0  0  0  0  0
   43.2070   28.3530   35.4520 H   0  0  0  0  0  0  0  0  0  0  0  0
   41.2090   27.6480   36.7580 H   0  0  0  0  0  0  0  0  0  0  0  0
   39.9960   29.2610   38.0450 H   0  0  0  0  0  0  0  0  0  0  0  0
   38.5640   28.8230   42.5030 C   0  0  0  0  0  0  0  0  0  0  0  0
   37.7730   28.8350   41.3510 C   0  0  0  0  0  0  0  0  0  0  0  0
   37.0560   27.6750   41.1040 C   0  0  0  0  0  0  0  0  0  0  0  0
   36.4600   27.7120   40.1990 H   0  0  0  0  0  0  0  0  0  0  0  0
   37.1540   26.6100   41.9700 C   0  0  0  0  0  0  0  0  0  0  0  0
   36.5730   25.7210   41.7380 H   0  0  0  0  0  0  0  0  0  0  0  0
   37.9430   26.6250   43.1030 C   0  0  0  0  0  3  0  0  0  0  0  0
   38.6760   27.7680   43.3840 C   0  0  0  0  0  3  0  0  0  0  0  0
   39.9520   30.9570   43.2000 N   0  0  0  0  0  0  0  0  0  0  0  0
   39.3420   30.0000   42.8950 C   0  0  0  0  0  0  0  0  0  0  0  0
   35.5920   30.8270   41.0750 N   0  0  0  0  0  0  0  0  0  0  0  0
   35.1200   29.9280   40.8460 H   0  0  0  0  0  0  0  0  0  0  0  0
   35.2090   31.5670   41.7190 H   0  0  0  0  0  0  0  0  0  0  0  0
  1  2  1  0  0  0  0
  2  3  2  0  0  0  0
  2 33  1  0  0  0  0
  3 24  1  0  0  0  0
  4  3  1  0  0  0  0
  5  4  2  0  0  0  0
  6  5  1  0  0  0  0
  6  1  2  0  0  0  0
  7  1  1  0  0  0  0
  8  5  1  0  0  0  0
  9  8  1  0  0  0  0
 10 18  1  0  0  0  0
 10  9  2  0  0  0  0
 11 10  1  0  0  0  0
 12 11  2  0  0  0  0
 12 17  1  0  0  0  0
 13 12  1  0  0  0  0
 14 13  2  0  0  0  0
 14 15  1  0  0  0  0
 15 21  1  0  0  0  0
 15 16  2  0  0  0  0
 16 17  1  0  0  0  0
 16 22  1  0  0  0  0
 17  8  2  0  0  0  0
 19 13  1  0  0  0  0
 20 14  1  0  0  0  0
 23 32  1  0  0  0  0
 23 30  1  0  0  0  0
 24 23  2  0  0  0  0
 25 24  1  0  0  0  0
 25 27  2  0  0  0  0
 26 25  1  0  0  0  0
 27 29  1  0  0  0  0
 28 27  1  0  0  0  0
 29 30  2  0  0  0  0
 32 31  3  0  0  0  0
 33 35  1  0  0  0  0
 34 33  1  0  0  0  0
M  END
>  <minimizedAffinity>
-6.43258953

$$$$

 OpenBabel03252502033D

 35 38  0  0  0  0  0  0  0  0999 V2000
   37.2800   32.3740   39.9090 C   0  0  0  0  0  0  0  0  0  0  0  0
   36.9700   31.2490   40.6960 C   0  0  0  0  0  0  0  0  0  0  0  0
   37.9760   30.3170   40.8850 C   0  0  0  0  0  0  0  0  0  0  0  0
   39.1720   30.5250   40.3220 N   0  0  0  0  0  0  0  0  0  0  0  0
   39.4680   31.5900   39.5770 C   0  0  0  0  0  0  0  0  0  0  0  0
   38.4880   32.5020   39.3900 N   0  0  0  0  0  0  0  0  0  0  0  0
   36.4830   33.1040   39.7610 H   0  0  0  0  0  0  0  0  0  0  0  0
   40.6930   31.9930   38.8920 C   0  0  0  0  0  0  0  0  0  0  0  0
   40.9470   31.7500   37.5790 N   0  0  0  0  0  0  0  0  0  0  0  0
   42.0520   32.1110   36.9180 C   0  0  0  0  0  0  0  0  0  0  0  0
   43.0400   32.7810   37.5640 N   0  0  0  0  0  0  0  0  0  0  0  0
   42.9070   33.0840   38.8710 C   0  0  0  0  0  0  0  0  0  0  0  0
   43.9010   33.7540   39.5200 C   0  0  0  0  0  0  0  0  0  0  0  0
   43.7980   34.0760   40.8680 C   0  0  0  0  0  0  0  0  0  0  0  0
   42.6540   33.6880   41.5090 C   0  0  0  0  0  0  0  0  0  0  0  0
   41.6720   33.0140   40.8200 C   0  0  0  0  0  0  0  0  0  0  0  0
   41.7350   32.6750   39.4780 C   0  0  0  0  0  0  0  0  0  0  0  0
   42.1420   31.8600   35.8620 H   0  0  0  0  0  0  0  0  0  0  0  0
   44.8000   34.0540   38.9960 H   0  0  0  0  0  0  0  0  0  0  0  0
   44.5550   34.5990   41.4150 H   0  0  0  0  0  0  0  0  0  0  0  0
   42.4660   33.8900   42.5670 H   0  0  0  0  0  0  0  0  0  0  0  0
   40.7730   32.7160   41.3490 H   0  0  0  0  0  0  0  0  0  0  0  0
   37.3690   27.9760   41.0350 C   0  0  0  0  0  0  0  0  0  0  0  0
   37.8160   29.1190   41.7020 C   0  0  0  0  0  0  0  0  0  0  0  0
   37.9950   28.9810   43.0700 C   0  0  0  0  0  0  0  0  0  0  0  0
   38.3340   29.8870   43.5610 H   0  0  0  0  0  0  0  0  0  0  0  0
   37.7340   27.7750   43.6800 C   0  0  0  0  0  0  0  0  0  0  0  0
   37.8900   27.7130   44.7530 H   0  0  0  0  0  0  0  0  0  0  0  0
   37.2930   26.6610   42.9940 C   0  0  0  0  0  3  0  0  0  0  0  0
   37.1010   26.7590   41.6240 C   0  0  0  0  0  3  0  0  0  0  0  0
   37.0300   27.9670   38.4160 N   0  0  0  0  0  0  0  0  0  0  0  0
   37.1740   27.9800   39.5830 C   0  0  0  0  0  0  0  0  0  0  0  0
   35.6940   31.1440   41.2610 N   0  0  0  0  0  0  0  0  0  0  0  0
   35.2250   30.2520   41.0030 H   0  0  0  0  0  0  0  0  0  0  0  0
   35.2790   31.8940   41.8720 H   0  0  0  0  0  0  0  0  0  0  0  0
  1  2  1  0  0  0  0
  2  3  2  0  0  0  0
  2 33  1  0  0  0  0
  3 24  1  0  0  0  0
  4  3  1  0  0  0  0
  5  4  2  0  0  0  0
  6  5  1  0  0  0  0
  6  1  2  0  0  0  0
  7  1  1  0  0  0  0
  8 17  1  0  0  0  0
  8  5  1  0  0  0  0
  9  8  2  0  0  0  0
 10 11  2  0  0  0  0
 10  9  1  0  0  0  0
 11 12  1  0  0  0  0
 12 17  2  0  0  0  0
 12 13  1  0  0  0  0
 13 14  2  0  0  0  0
 14 20  1  0  0  0  0
 14 15  1  0  0  0  0
 15 21  1  0  0  0  0
 16 22  1  0  0  0  0
 16 15  2  0  0  0  0
 17 16  1  0  0  0  0
 18 10  1  0  0  0  0
 19 13  1  0  0  0  0
 23 30  2  0  0  0  0
 23 24  1  0  0  0  0
 24 25  2  0  0  0  0
 25 26  1  0  0  0  0
 25 27  1  0  0  0  0
 27 28  1  0  0  0  0
 29 27  2  0  0  0  0
 30 29  1  0  0  0  0
 31 32  3  0  0  0  0
 32 23  1  0  0  0  0
 33 35  1  0  0  0  0
 34 33  1  0  0  0  0
M  END
>  <minimizedAffinity>
-6.40520191

$$$$

 OpenBabel03252502033D

 35 38  0  0  0  0  0  0  0  0999 V2000
   37.4480   32.4080   40.4680 C   0  0  0  0  0  0  0  0  0  0  0  0
   37.0060   31.1720   40.9740 C   0  0  0  0  0  0  0  0  0  0  0  0
   37.9780   30.2890   41.4140 C   0  0  0  0  0  0  0  0  0  0  0  0
   39.2660   30.6460   41.3400 N   0  0  0  0  0  0  0  0  0  0  0  0
   39.6860   31.8170   40.8620 C   0  0  0  0  0  0  0  0  0  0  0  0
   38.7390   32.6810   40.4300 N   0  0  0  0  0  0  0  0  0  0  0  0
   36.6780   33.0990   40.1200 H   0  0  0  0  0  0  0  0  0  0  0  0
   41.0220   32.3860   40.7040 C   0  0  0  0  0  0  0  0  0  0  0  0
   41.3930   33.1810   39.6660 N   0  0  0  0  0  0  0  0  0  0  0  0
   42.6030   33.7250   39.4930 C   0  0  0  0  0  0  0  0  0  0  0  0
   43.5850   33.4960   40.4020 N   0  0  0  0  0  0  0  0  0  0  0  0
   43.3400   32.7230   41.4800 C   0  0  0  0  0  0  0  0  0  0  0  0
   44.3280   32.4910   42.3910 C   0  0  0  0  0  0  0  0  0  0  0  0
   44.1110   31.6940   43.5080 C   0  0  0  0  0  0  0  0  0  0  0  0
   42.8610   31.1550   43.6480 C   0  0  0  0  0  0  0  0  0  0  0  0
   41.8900   31.4120   42.7080 C   0  0  0  0  0  0  0  0  0  0  0  0
   42.0650   32.2000   41.5820 C   0  0  0  0  0  0  0  0  0  0  0  0
   42.7830   34.3480   38.6200 H   0  0  0  0  0  0  0  0  0  0  0  0
   45.3110   32.9260   42.2640 H   0  0  0  0  0  0  0  0  0  0  0  0
   44.8580   31.4850   44.2450 H   0  0  0  0  0  0  0  0  0  0  0  0
   42.5790   30.5150   44.4880 H   0  0  0  0  0  0  0  0  0  0  0  0
   40.9060   30.9740   42.8400 H   0  0  0  0  0  0  0  0  0  0  0  0
   37.5270   27.9300   41.0910 C   0  0  0  0  0  0  0  0  0  0  0  0
   37.6740   28.9850   41.9950 C   0  0  0  0  0  0  0  0  0  0  0  0
   37.4530   28.6680   43.3260 C   0  0  0  0  0  0  0  0  0  0  0  0
   37.5660   29.5090   44.0020 H   0  0  0  0  0  0  0  0  0  0  0  0
   37.1140   27.3820   43.6790 C   0  0  0  0  0  0  0  0  0  0  0  0
   36.9520   27.1780   44.7340 H   0  0  0  0  0  0  0  0  0  0  0  0
   36.9770   26.3570   42.7640 C   0  0  0  0  0  3  0  0  0  0  0  0
   37.1890   26.6350   41.4220 C   0  0  0  0  0  3  0  0  0  0  0  0
   37.9500   28.3030   38.5120 N   0  0  0  0  0  0  0  0  0  0  0  0
   37.7680   28.1270   39.6600 C   0  0  0  0  0  0  0  0  0  0  0  0
   35.6330   30.9110   41.0320 N   0  0  0  0  0  0  0  0  0  0  0  0
   35.3800   30.0320   40.5350 H   0  0  0  0  0  0  0  0  0  0  0  0
   34.9540   31.5450   41.5270 H   0  0  0  0  0  0  0  0  0  0  0  0
  1  2  1  0  0  0  0
  2 33  1  0  0  0  0
  2  3  2  0  0  0  0
  3 24  1  0  0  0  0
  4  3  1  0  0  0  0
  5  4  2  0  0  0  0
  6  1  2  0  0  0  0
  6  5  1  0  0  0  0
  7  1  1  0  0  0  0
  8  5  1  0  0  0  0
  8 17  1  0  0  0  0
  9  8  2  0  0  0  0
 10  9  1  0  0  0  0
 10 11  2  0  0  0  0
 11 12  1  0  0  0  0
 12 17  2  0  0  0  0
 12 13  1  0  0  0  0
 13 14  2  0  0  0  0
 14 15  1  0  0  0  0
 14 20  1  0  0  0  0
 15 21  1  0  0  0  0
 16 22  1  0  0  0  0
 16 15  2  0  0  0  0
 17 16  1  0  0  0  0
 18 10  1  0  0  0  0
 19 13  1  0  0  0  0
 23 30  2  0  0  0  0
 23 24  1  0  0  0  0
 24 25  2  0  0  0  0
 25 27  1  0  0  0  0
 25 26  1  0  0  0  0
 27 28  1  0  0  0  0
 29 27  2  0  0  0  0
 30 29  1  0  0  0  0
 31 32  3  0  0  0  0
 32 23  1  0  0  0  0
 33 35  1  0  0  0  0
 34 33  1  0  0  0  0
M  END
>  <minimizedAffinity>
-6.38145494

$$$$

 OpenBabel03252502033D

 35 38  0  0  0  0  0  0  0  0999 V2000
   36.8500   30.6680   38.2120 C   0  0  0  0  0  0  0  0  0  0  0  0
   38.0100   31.3200   37.7560 C   0  0  0  0  0  0  0  0  0  0  0  0
   39.1520   31.1830   38.5260 C   0  0  0  0  0  0  0  0  0  0  0  0
   39.1010   30.4510   39.6450 N   0  0  0  0  0  0  0  0  0  0  0  0
   38.0030   29.8330   40.0780 C   0  0  0  0  0  0  0  0  0  0  0  0
   36.8850   29.9650   39.3290 N   0  0  0  0  0  0  0  0  0  0  0  0
   35.9510   30.7810   37.6030 H   0  0  0  0  0  0  0  0  0  0  0  0
   37.7490   28.9990   41.2510 C   0  0  0  0  0  0  0  0  0  0  0  0
   37.7390   29.4640   42.5280 N   0  0  0  0  0  0  0  0  0  0  0  0
   37.5030   28.7340   43.6230 C   0  0  0  0  0  0  0  0  0  0  0  0
   37.2460   27.4060   43.5090 N   0  0  0  0  0  0  0  0  0  0  0  0
   37.2260   26.8240   42.2930 C   0  0  0  0  0  0  0  0  0  0  0  0
   36.9710   25.4900   42.1800 C   0  0  0  0  0  0  0  0  0  0  0  0
   36.9490   24.8590   40.9420 C   0  0  0  0  0  0  0  0  0  0  0  0
   37.1970   25.6400   39.8470 C   0  0  0  0  0  0  0  0  0  0  0  0
   37.4500   26.9830   40.0010 C   0  0  0  0  0  0  0  0  0  0  0  0
   37.4800   27.6510   41.2150 C   0  0  0  0  0  0  0  0  0  0  0  0
   37.5210   29.2200   44.5970 H   0  0  0  0  0  0  0  0  0  0  0  0
   36.7760   24.8870   43.0580 H   0  0  0  0  0  0  0  0  0  0  0  0
   36.7550   23.8150   40.8090 H   0  0  0  0  0  0  0  0  0  0  0  0
   37.2030   25.2500   38.8250 H   0  0  0  0  0  0  0  0  0  0  0  0
   37.6440   27.5830   39.1180 H   0  0  0  0  0  0  0  0  0  0  0  0
   40.7060   33.0350   38.6970 C   0  0  0  0  0  0  0  0  0  0  0  0
   40.4380   31.7710   38.1650 C   0  0  0  0  0  0  0  0  0  0  0  0
   41.4070   31.2630   37.3130 C   0  0  0  0  0  0  0  0  0  0  0  0
   41.1660   30.2860   36.9090 H   0  0  0  0  0  0  0  0  0  0  0  0
   42.5390   31.9970   37.0430 C   0  0  0  0  0  0  0  0  0  0  0  0
   43.2720   31.5590   36.3720 H   0  0  0  0  0  0  0  0  0  0  0  0
   42.7780   33.2450   37.5850 C   0  0  0  0  0  3  0  0  0  0  0  0
   41.8330   33.7870   38.4410 C   0  0  0  0  0  3  0  0  0  0  0  0
   39.0410   34.1610   40.4080 N   0  0  0  0  0  0  0  0  0  0  0  0
   39.7780   33.6660   39.6380 C   0  0  0  0  0  0  0  0  0  0  0  0
   37.9600   32.0370   36.5550 N   0  0  0  0  0  0  0  0  0  0  0  0
   38.2690   33.0230   36.6760 H   0  0  0  0  0  0  0  0  0  0  0  0
   37.6430   31.6070   35.6480 H   0  0  0  0  0  0  0  0  0  0  0  0
  1  6  1  0  0  0  0
  2  1  2  0  0  0  0
  2  3  1  0  0  0  0
  3  4  2  0  0  0  0
  4  5  1  0  0  0  0
  5  8  1  0  0  0  0
  6  5  2  0  0  0  0
  7  1  1  0  0  0  0
  8  9  1  0  0  0  0
  9 10  2  0  0  0  0
 10 18  1  0  0  0  0
 11 10  1  0  0  0  0
 12 11  2  0  0  0  0
 13 12  1  0  0  0  0
 13 19  1  0  0  0  0
 14 13  2  0  0  0  0
 15 16  2  0  0  0  0
 15 14  1  0  0  0  0
 16 17  1  0  0  0  0
 17  8  2  0  0  0  0
 17 12  1  0  0  0  0
 20 14  1  0  0  0  0
 21 15  1  0  0  0  0
 22 16  1  0  0  0  0
 23 32  1  0  0  0  0
 24  3  1  0  0  0  0
 24 23  2  0  0  0  0
 25 24  1  0  0  0  0
 26 25  1  0  0  0  0
 27 25  2  0  0  0  0
 27 29  1  0  0  0  0
 28 27  1  0  0  0  0
 29 30  2  0  0  0  0
 30 23  1  0  0  0  0
 32 31  3  0  0  0  0
 33 34  1  0  0  0  0
 33  2  1  0  0  0  0
 35 33  1  0  0  0  0
M  END
>  <minimizedAffinity>
-6.33534575

$$$$

 OpenBabel03252502033D

 35 38  0  0  0  0  0  0  0  0999 V2000
   36.1890   30.4890   41.0890 C   0  0  0  0  0  0  0  0  0  0  0  0
   37.1630   31.3580   40.5640 C   0  0  0  0  0  0  0  0  0  0  0  0
   38.3500   30.7870   40.1380 C   0  0  0  0  0  0  0  0  0  0  0  0
   38.5120   29.4630   40.2420 N   0  0  0  0  0  0  0  0  0  0  0  0
   37.5900   28.6390   40.7390 C   0  0  0  0  0  0  0  0  0  0  0  0
   36.4290   29.1930   41.1570 N   0  0  0  0  0  0  0  0  0  0  0  0
   35.2550   30.9450   41.4270 H   0  0  0  0  0  0  0  0  0  0  0  0
   37.5740   27.1910   40.9300 C   0  0  0  0  0  0  0  0  0  0  0  0
   36.7560   26.3420   40.2540 N   0  0  0  0  0  0  0  0  0  0  0  0
   36.7200   25.0130   40.3970 C   0  0  0  0  0  0  0  0  0  0  0  0
   37.5510   24.4040   41.2810 N   0  0  0  0  0  0  0  0  0  0  0  0
   38.4130   25.1380   42.0140 C   0  0  0  0  0  0  0  0  0  0  0  0
   39.2440   24.5260   42.9040 C   0  0  0  0  0  0  0  0  0  0  0  0
   40.1400   25.2540   43.6780 C   0  0  0  0  0  0  0  0  0  0  0  0
   40.1450   26.6110   43.5030 C   0  0  0  0  0  0  0  0  0  0  0  0
   39.2910   27.1920   42.5940 C   0  0  0  0  0  0  0  0  0  0  0  0
   38.3850   26.5040   41.8040 C   0  0  0  0  0  0  0  0  0  0  0  0
   36.0200   24.4340   39.7970 H   0  0  0  0  0  0  0  0  0  0  0  0
   39.2280   23.4500   43.0290 H   0  0  0  0  0  0  0  0  0  0  0  0
   40.8080   24.8140   44.3890 H   0  0  0  0  0  0  0  0  0  0  0  0
   40.8080   27.2810   44.0570 H   0  0  0  0  0  0  0  0  0  0  0  0
   39.3120   28.2700   42.4730 H   0  0  0  0  0  0  0  0  0  0  0  0
   39.4030   31.6870   38.1490 C   0  0  0  0  0  0  0  0  0  0  0  0
   39.4390   31.5530   39.5400 C   0  0  0  0  0  0  0  0  0  0  0  0
   40.5390   32.1160   40.1670 C   0  0  0  0  0  0  0  0  0  0  0  0
   40.5430   31.9880   41.2440 H   0  0  0  0  0  0  0  0  0  0  0  0
   41.5040   32.7550   39.4220 C   0  0  0  0  0  0  0  0  0  0  0  0
   42.3470   33.1830   39.9550 H   0  0  0  0  0  0  0  0  0  0  0  0
   41.4410   32.8740   38.0470 C   0  0  0  0  0  3  0  0  0  0  0  0
   40.3570   32.3220   37.3830 C   0  0  0  0  0  3  0  0  0  0  0  0
   37.3720   30.7310   36.7590 N   0  0  0  0  0  0  0  0  0  0  0  0
   38.2760   31.1670   37.3720 C   0  0  0  0  0  0  0  0  0  0  0  0
   36.8790   32.7260   40.4750 N   0  0  0  0  0  0  0  0  0  0  0  0
   37.5940   33.3060   40.9590 H   0  0  0  0  0  0  0  0  0  0  0  0
   36.0340   33.0990   39.9700 H   0  0  0  0  0  0  0  0  0  0  0  0
  1  6  1  0  0  0  0
  1  7  1  0  0  0  0
  2  1  2  0  0  0  0
  3  4  2  0  0  0  0
  3  2  1  0  0  0  0
  4  5  1  0  0  0  0
  5  8  1  0  0  0  0
  5  6  2  0  0  0  0
  8 17  1  0  0  0  0
  9 10  1  0  0  0  0
  9  8  2  0  0  0  0
 10 11  2  0  0  0  0
 11 12  1  0  0  0  0
 12 13  1  0  0  0  0
 13 19  1  0  0  0  0
 13 14  2  0  0  0  0
 14 20  1  0  0  0  0
 15 14  1  0  0  0  0
 15 21  1  0  0  0  0
 16 15  2  0  0  0  0
 17 12  2  0  0  0  0
 17 16  1  0  0  0  0
 18 10  1  0  0  0  0
 22 16  1  0  0  0  0
 23 24  1  0  0  0  0
 24  3  1  0  0  0  0
 24 25  2  0  0  0  0
 25 26  1  0  0  0  0
 27 28  1  0  0  0  0
 27 25  1  0  0  0  0
 29 27  2  0  0  0  0
 30 29  1  0  0  0  0
 30 23  2  0  0  0  0
 31 32  3  0  0  0  0
 32 23  1  0  0  0  0
 33  2  1  0  0  0  0
 33 34  1  0  0  0  0
 35 33  1  0  0  0  0
M  END
>  <minimizedAffinity>
-6.14185047

$$$$

 OpenBabel03252502033D

 35 38  0  0  0  0  0  0  0  0999 V2000
   37.1250   30.2140   37.0850 C   0  0  0  0  0  0  0  0  0  0  0  0
   38.0940   31.2320   37.0530 C   0  0  0  0  0  0  0  0  0  0  0  0
   39.1730   31.1010   37.9110 C   0  0  0  0  0  0  0  0  0  0  0  0
   39.2410   30.0330   38.7140 N   0  0  0  0  0  0  0  0  0  0  0  0
   38.3240   29.0670   38.7460 C   0  0  0  0  0  0  0  0  0  0  0  0
   37.2690   29.1920   37.9090 N   0  0  0  0  0  0  0  0  0  0  0  0
   36.2750   30.3230   36.4080 H   0  0  0  0  0  0  0  0  0  0  0  0
   38.2210   27.8410   39.5340 C   0  0  0  0  0  0  0  0  0  0  0  0
   38.3920   26.5920   39.0250 N   0  0  0  0  0  0  0  0  0  0  0  0
   38.3140   25.4500   39.7160 C   0  0  0  0  0  0  0  0  0  0  0  0
   38.0420   25.4800   41.0460 N   0  0  0  0  0  0  0  0  0  0  0  0
   37.8520   26.6610   41.6690 C   0  0  0  0  0  0  0  0  0  0  0  0
   37.5750   26.6910   43.0040 C   0  0  0  0  0  0  0  0  0  0  0  0
   37.3690   27.8900   43.6750 C   0  0  0  0  0  0  0  0  0  0  0  0
   37.4560   29.0350   42.9330 C   0  0  0  0  0  0  0  0  0  0  0  0
   37.7380   28.9650   41.5870 C   0  0  0  0  0  0  0  0  0  0  0  0
   37.9510   27.7920   40.8810 C   0  0  0  0  0  0  0  0  0  0  0  0
   38.4710   24.5060   39.1990 H   0  0  0  0  0  0  0  0  0  0  0  0
   37.5110   25.7740   43.5770 H   0  0  0  0  0  0  0  0  0  0  0  0
   37.1480   27.9570   44.7200 H   0  0  0  0  0  0  0  0  0  0  0  0
   37.3140   30.0330   43.3570 H   0  0  0  0  0  0  0  0  0  0  0  0
   37.8020   29.8870   41.0180 H   0  0  0  0  0  0  0  0  0  0  0  0
   40.1670   33.0590   38.9350 C   0  0  0  0  0  0  0  0  0  0  0  0
   40.2740   32.0570   37.9680 C   0  0  0  0  0  0  0  0  0  0  0  0
   41.3880   32.1350   37.1460 C   0  0  0  0  0  0  0  0  0  0  0  0
   41.4380   31.3490   36.4000 H   0  0  0  0  0  0  0  0  0  0  0  0
   42.2970   33.1540   37.3150 C   0  0  0  0  0  0  0  0  0  0  0  0
   43.1560   33.1750   36.6500 H   0  0  0  0  0  0  0  0  0  0  0  0
   42.1660   34.1310   38.2820 C   0  0  0  0  0  3  0  0  0  0  0  0
   41.0650   34.0880   39.1230 C   0  0  0  0  0  3  0  0  0  0  0  0
   38.1510   33.0680   40.6400 N   0  0  0  0  0  0  0  0  0  0  0  0
   39.0550   33.0680   39.8890 C   0  0  0  0  0  0  0  0  0  0  0  0
   37.9390   32.2930   36.1530 N   0  0  0  0  0  0  0  0  0  0  0  0
   37.9600   33.2170   36.6310 H   0  0  0  0  0  0  0  0  0  0  0  0
   37.8160   32.1470   35.1180 H   0  0  0  0  0  0  0  0  0  0  0  0
  1  6  1  0  0  0  0
  2  1  2  0  0  0  0
  2  3  1  0  0  0  0
  3 24  1  0  0  0  0
  3  4  2  0  0  0  0
  4  5  1  0  0  0  0
  5  8  1  0  0  0  0
  6  5  2  0  0  0  0
  7  1  1  0  0  0  0
  8 17  1  0  0  0  0
  9  8  2  0  0  0  0
  9 10  1  0  0  0  0
 10 11  2  0  0  0  0
 11 12  1  0  0  0  0
 12 13  1  0  0  0  0
 13 19  1  0  0  0  0
 13 14  2  0  0  0  0
 14 20  1  0  0  0  0
 15 21  1  0  0  0  0
 15 14  1  0  0  0  0
 16 15  2  0  0  0  0
 17 16  1  0  0  0  0
 17 12  2  0  0  0  0
 18 10  1  0  0  0  0
 22 16  1  0  0  0  0
 23 30  1  0  0  0  0
 23 32  1  0  0  0  0
 24 23  2  0  0  0  0
 25 27  2  0  0  0  0
 25 24  1  0  0  0  0
 26 25  1  0  0  0  0
 27 29  1  0  0  0  0
 28 27  1  0  0  0  0
 29 30  2  0  0  0  0
 32 31  3  0  0  0  0
 33 34  1  0  0  0  0
 33  2  1  0  0  0  0
 35 33  1  0  0  0  0
M  END
>  <minimizedAffinity>
-6.03611851

$$$$

 OpenBabel03252502033D

 35 38  0  0  0  0  0  0  0  0999 V2000
   36.2040   31.0850   40.1620 C   0  0  0  0  0  0  0  0  0  0  0  0
   35.9380   29.7130   40.3230 C   0  0  0  0  0  0  0  0  0  0  0  0
   37.0180   28.8490   40.2380 C   0  0  0  0  0  0  0  0  0  0  0  0
   38.2380   29.3500   40.0120 N   0  0  0  0  0  0  0  0  0  0  0  0
   38.4910   30.6500   39.8600 C   0  0  0  0  0  0  0  0  0  0  0  0
   37.4390   31.4960   39.9410 N   0  0  0  0  0  0  0  0  0  0  0  0
   35.3490   31.7610   40.2270 H   0  0  0  0  0  0  0  0  0  0  0  0
   39.7310   31.3820   39.6140 C   0  0  0  0  0  0  0  0  0  0  0  0
   40.0420   31.9780   38.4330 N   0  0  0  0  0  0  0  0  0  0  0  0
   41.1610   32.6620   38.1750 C   0  0  0  0  0  0  0  0  0  0  0  0
   42.1060   32.8050   39.1400 N   0  0  0  0  0  0  0  0  0  0  0  0
   41.9150   32.2590   40.3580 C   0  0  0  0  0  0  0  0  0  0  0  0
   42.8650   32.3990   41.3250 C   0  0  0  0  0  0  0  0  0  0  0  0
   42.7010   31.8440   42.5880 C   0  0  0  0  0  0  0  0  0  0  0  0
   41.5430   31.1510   42.8120 C   0  0  0  0  0  0  0  0  0  0  0  0
   40.6070   31.0310   41.8110 C   0  0  0  0  0  0  0  0  0  0  0  0
   40.7310   31.5690   40.5400 C   0  0  0  0  0  0  0  0  0  0  0  0
   41.3000   33.0980   37.1870 H   0  0  0  0  0  0  0  0  0  0  0  0
   43.7760   32.9520   41.1310 H   0  0  0  0  0  0  0  0  0  0  0  0
   43.4220   31.9290   43.3740 H   0  0  0  0  0  0  0  0  0  0  0  0
   41.3090   30.6750   43.7680 H   0  0  0  0  0  0  0  0  0  0  0  0
   39.6960   30.4770   42.0110 H   0  0  0  0  0  0  0  0  0  0  0  0
   37.1770   26.9240   41.7020 C   0  0  0  0  0  0  0  0  0  0  0  0
   36.9060   27.4050   40.4180 C   0  0  0  0  0  0  0  0  0  0  0  0
   36.6220   26.4400   39.4650 C   0  0  0  0  0  0  0  0  0  0  0  0
   36.4250   26.8430   38.4780 H   0  0  0  0  0  0  0  0  0  0  0  0
   36.6210   25.1090   39.8140 C   0  0  0  0  0  0  0  0  0  0  0  0
   36.3910   24.3870   39.0350 H   0  0  0  0  0  0  0  0  0  0  0  0
   36.8910   24.6610   41.0920 C   0  0  0  0  0  3  0  0  0  0  0  0
   37.1810   25.5970   42.0730 C   0  0  0  0  0  3  0  0  0  0  0  0
   37.6830   28.5980   43.6790 N   0  0  0  0  0  0  0  0  0  0  0  0
   37.4570   27.8450   42.8060 C   0  0  0  0  0  0  0  0  0  0  0  0
   34.6270   29.2980   40.5840 N   0  0  0  0  0  0  0  0  0  0  0  0
   34.2970   28.5920   39.8950 H   0  0  0  0  0  0  0  0  0  0  0  0
   34.0620   29.6730   41.3890 H   0  0  0  0  0  0  0  0  0  0  0  0
  1  7  1  0  0  0  0
  1  2  1  0  0  0  0
  2 33  1  0  0  0  0
  3  2  2  0  0  0  0
  3 24  1  0  0  0  0
  4  3  1  0  0  0  0
  5  6  1  0  0  0  0
  5  4  2  0  0  0  0
  6  1  2  0  0  0  0
  8  5  1  0  0  0  0
  8 17  1  0  0  0  0
  9  8  2  0  0  0  0
 10  9  1  0  0  0  0
 10 11  2  0  0  0  0
 11 12  1  0  0  0  0
 12 17  2  0  0  0  0
 12 13  1  0  0  0  0
 13 14  2  0  0  0  0
 14 15  1  0  0  0  0
 14 20  1  0  0  0  0
 15 21  1  0  0  0  0
 16 22  1  0  0  0  0
 16 15  2  0  0  0  0
 17 16  1  0  0  0  0
 18 10  1  0  0  0  0
 19 13  1  0  0  0  0
 23 30  1  0  0  0  0
 23 32  1  0  0  0  0
 24 23  2  0  0  0  0
 25 27  2  0  0  0  0
 25 24  1  0  0  0  0
 26 25  1  0  0  0  0
 27 29  1  0  0  0  0
 28 27  1  0  0  0  0
 29 30  2  0  0  0  0
 32 31  3  0  0  0  0
 33 35  1  0  0  0  0
 34 33  1  0  0  0  0
M  END
>  <minimizedAffinity>
-5.87475491

$$$$

 OpenBabel03252502033D

 35 38  0  0  0  0  0  0  0  0999 V2000
   36.1960   30.6670   41.0690 C   0  0  0  0  0  0  0  0  0  0  0  0
   37.2010   31.4080   40.4220 C   0  0  0  0  0  0  0  0  0  0  0  0
   38.2850   30.7010   39.9290 C   0  0  0  0  0  0  0  0  0  0  0  0
   38.3250   29.3730   40.0880 N   0  0  0  0  0  0  0  0  0  0  0  0
   37.3730   28.6700   40.7010 C   0  0  0  0  0  0  0  0  0  0  0  0
   36.3140   29.3570   41.1840 N   0  0  0  0  0  0  0  0  0  0  0  0
   35.3450   31.2290   41.4580 H   0  0  0  0  0  0  0  0  0  0  0  0
   37.2330   27.2400   40.9670 C   0  0  0  0  0  0  0  0  0  0  0  0
   37.5750   26.6470   42.1410 N   0  0  0  0  0  0  0  0  0  0  0  0
   37.4540   25.3460   42.4230 C   0  0  0  0  0  0  0  0  0  0  0  0
   36.9510   24.4950   41.4920 N   0  0  0  0  0  0  0  0  0  0  0  0
   36.5740   24.9620   40.2840 C   0  0  0  0  0  0  0  0  0  0  0  0
   36.0720   24.1060   39.3480 C   0  0  0  0  0  0  0  0  0  0  0  0
   35.6800   24.5550   38.0930 C   0  0  0  0  0  0  0  0  0  0  0  0
   35.8210   25.8920   37.8430 C   0  0  0  0  0  0  0  0  0  0  0  0
   36.3300   26.7250   38.8140 C   0  0  0  0  0  0  0  0  0  0  0  0
   36.7320   26.3190   40.0760 C   0  0  0  0  0  0  0  0  0  0  0  0
   37.7610   24.9850   43.4020 H   0  0  0  0  0  0  0  0  0  0  0  0
   35.9660   23.0510   39.5630 H   0  0  0  0  0  0  0  0  0  0  0  0
   35.2830   23.9180   37.3300 H   0  0  0  0  0  0  0  0  0  0  0  0
   35.5430   26.3540   36.8920 H   0  0  0  0  0  0  0  0  0  0  0  0
   36.4340   27.7820   38.5930 H   0  0  0  0  0  0  0  0  0  0  0  0
   40.4850   31.7160   39.9760 C   0  0  0  0  0  0  0  0  0  0  0  0
   39.3880   31.3260   39.2050 C   0  0  0  0  0  0  0  0  0  0  0  0
   39.4640   31.6360   37.8560 C   0  0  0  0  0  0  0  0  0  0  0  0
   38.5940   31.3290   37.2860 H   0  0  0  0  0  0  0  0  0  0  0  0
   40.5710   32.2870   37.3620 C   0  0  0  0  0  0  0  0  0  0  0  0
   40.5890   32.5080   36.2980 H   0  0  0  0  0  0  0  0  0  0  0  0
   41.6430   32.6600   38.1480 C   0  0  0  0  0  3  0  0  0  0  0  0
   41.6040   32.3680   39.5030 C   0  0  0  0  0  3  0  0  0  0  0  0
   40.6100   31.1700   42.5560 N   0  0  0  0  0  0  0  0  0  0  0  0
   40.5430   31.4150   41.4090 C   0  0  0  0  0  0  0  0  0  0  0  0
   37.0460   32.7920   40.2850 N   0  0  0  0  0  0  0  0  0  0  0  0
   37.8540   33.3170   40.6790 H   0  0  0  0  0  0  0  0  0  0  0  0
   36.2000   33.2280   39.8340 H   0  0  0  0  0  0  0  0  0  0  0  0
  1  6  1  0  0  0  0
  1  7  1  0  0  0  0
  2  1  2  0  0  0  0
  3  4  2  0  0  0  0
  3  2  1  0  0  0  0
  4  5  1  0  0  0  0
  5  8  1  0  0  0  0
  5  6  2  0  0  0  0
  8  9  1  0  0  0  0
  9 10  2  0  0  0  0
 10 18  1  0  0  0  0
 11 10  1  0  0  0  0
 12 11  2  0  0  0  0
 13 19  1  0  0  0  0
 13 12  1  0  0  0  0
 14 13  2  0  0  0  0
 15 14  1  0  0  0  0
 15 16  2  0  0  0  0
 16 17  1  0  0  0  0
 17 12  1  0  0  0  0
 17  8  2  0  0  0  0
 20 14  1  0  0  0  0
 21 15  1  0  0  0  0
 22 16  1  0  0  0  0
 23 32  1  0  0  0  0
 24  3  1  0  0  0  0
 24 23  2  0  0  0  0
 25 24  1  0  0  0  0
 26 25  1  0  0  0  0
 27 25  2  0  0  0  0
 27 29  1  0  0  0  0
 28 27  1  0  0  0  0
 29 30  2  0  0  0  0
 30 23  1  0  0  0  0
 32 31  3  0  0  0  0
 33  2  1  0  0  0  0
 33 34  1  0  0  0  0
 35 33  1  0  0  0  0
M  END
>  <minimizedAffinity>
-5.83619213

$$$$
