
 OpenBabel03242518203D

 31 33  0  0  0  0  0  0  0  0999 V2000
   38.3480   28.5280   42.5120 C   0  0  0  0  0  0  0  0  0  0  0  0
   37.3750   28.2220   43.4300 C   0  0  0  0  0  0  0  0  0  0  0  0
   36.8480   26.9810   43.0550 C   0  0  0  0  0  0  0  0  0  0  0  0
   37.5430   26.6050   41.9190 C   0  0  0  0  0  0  0  0  0  0  0  0
   38.3850   27.5430   41.6690 O   0  0  0  0  0  0  0  0  0  0  0  0
   37.0310   28.7910   44.3020 H   0  0  0  0  0  0  0  0  0  0  0  0
   36.0590   26.4000   43.5290 H   0  0  0  0  0  0  0  0  0  0  0  0
   38.1840   24.3120   41.4320 C   0  0  0  0  0  0  0  0  0  0  0  0
   37.3970   25.4010   41.1180 C   0  0  0  0  0  0  0  0  0  0  0  0
   36.4970   25.3350   40.0660 C   0  0  0  0  0  0  0  0  0  0  0  0
   35.8720   26.1770   39.8050 H   0  0  0  0  0  0  0  0  0  0  0  0
   36.4100   24.1530   39.3440 C   0  0  0  0  0  0  0  0  0  0  0  0
   35.7400   24.0170   38.5130 H   0  0  0  0  0  0  0  0  0  0  0  0
   37.2020   23.0570   39.6590 C   0  0  0  0  0  3  0  0  0  0  0  0
   38.0940   23.1290   40.7070 C   0  0  0  0  0  3  0  0  0  0  0  0
   39.8820   24.4140   43.4010 N   0  0  0  0  0  0  0  0  0  0  0  0
   39.1300   24.3580   42.5260 C   0  0  0  0  0  0  0  0  0  0  0  0
   39.1770   29.7740   42.5280 C   0  0  0  0  0  0  0  0  0  0  0  0
   39.4070   30.1280   43.5350 H   0  0  0  0  0  0  0  0  0  0  0  0
   40.1370   29.4930   42.0030 H   0  0  0  0  0  0  0  0  0  0  0  0
   38.7890   32.9160   40.7000 C   0  0  0  0  0  0  0  0  0  0  0  0
   37.5310   32.8080   40.0930 C   0  0  0  0  0  0  0  0  0  0  0  0
   36.8200   31.6490   40.3170 C   0  0  0  0  0  0  0  0  0  0  0  0
   37.3510   30.6780   41.0990 N   0  0  0  0  0  0  0  0  0  0  0  0
   38.5730   30.8270   41.6670 C   0  0  0  0  0  0  0  0  0  0  0  0
   39.2900   31.9570   41.4610 N   0  0  0  0  0  0  0  0  0  0  0  0
   39.3820   33.8120   40.5500 H   0  0  0  0  0  0  0  0  0  0  0  0
   35.8580   31.5670   39.8530 H   0  0  0  0  0  0  0  0  0  0  0  0
   37.1020   33.9040   39.3000 N   0  0  0  0  0  0  0  0  0  0  0  0
   36.7410   34.5570   40.0340 H   0  0  0  0  0  0  0  0  0  0  0  0
   37.1320   34.0330   38.2810 H   0  0  0  0  0  0  0  0  0  0  0  0
  1 18  1  0  0  0  0
  1  2  2  0  0  0  0
  2  6  1  0  0  0  0
  3  2  1  0  0  0  0
  3  7  1  0  0  0  0
  4  3  2  0  0  0  0
  5  4  1  0  0  0  0
  5  1  1  0  0  0  0
  8 17  1  0  0  0  0
  9  8  1  0  0  0  0
  9  4  1  0  0  0  0
 10  9  2  0  0  0  0
 11 10  1  0  0  0  0
 12 14  2  0  0  0  0
 12 10  1  0  0  0  0
 13 12  1  0  0  0  0
 14 15  1  0  0  0  0
 15  8  2  0  0  0  0
 17 16  3  0  0  0  0
 18 19  1  0  0  0  0
 20 18  1  0  0  0  0
 21 26  1  0  0  0  0
 22 23  1  0  0  0  0
 22 21  2  0  0  0  0
 23 24  2  0  0  0  0
 24 25  1  0  0  0  0
 25 18  1  0  0  0  0
 26 25  2  0  0  0  0
 27 21  1  0  0  0  0
 28 23  1  0  0  0  0
 29 30  1  0  0  0  0
 29 22  1  0  0  0  0
 31 29  1  0  0  0  0
M  END
>  <minimizedAffinity>
-5.903193

$$$$

 OpenBabel03242518203D

 31 33  0  0  0  0  0  0  0  0999 V2000
   38.5020   28.8180   42.5830 C   0  0  0  0  0  0  0  0  0  0  0  0
   37.6060   28.5470   43.5870 C   0  0  0  0  0  0  0  0  0  0  0  0
   37.0420   27.3020   43.2940 C   0  0  0  0  0  0  0  0  0  0  0  0
   37.6370   26.8870   42.1160 C   0  0  0  0  0  0  0  0  0  0  0  0
   38.4620   27.8090   41.7690 O   0  0  0  0  0  0  0  0  0  0  0  0
   37.3410   29.1450   44.4680 H   0  0  0  0  0  0  0  0  0  0  0  0
   36.2920   26.7410   43.8490 H   0  0  0  0  0  0  0  0  0  0  0  0
   36.7640   25.7520   40.1530 C   0  0  0  0  0  0  0  0  0  0  0  0
   37.4170   25.6620   41.3650 C   0  0  0  0  0  0  0  0  0  0  0  0
   37.8470   24.4340   41.8390 C   0  0  0  0  0  0  0  0  0  0  0  0
   38.3610   24.3430   42.7850 H   0  0  0  0  0  0  0  0  0  0  0  0
   37.6040   23.3050   41.0690 C   0  0  0  0  0  0  0  0  0  0  0  0
   37.9020   22.3140   41.3630 H   0  0  0  0  0  0  0  0  0  0  0  0
   36.9450   23.3940   39.8500 C   0  0  0  0  0  3  0  0  0  0  0  0
   36.5220   24.6190   39.3830 C   0  0  0  0  0  3  0  0  0  0  0  0
   35.9370   28.0300   39.2070 N   0  0  0  0  0  0  0  0  0  0  0  0
   36.3060   27.0240   39.6360 C   0  0  0  0  0  0  0  0  0  0  0  0
   39.3380   30.0580   42.4940 C   0  0  0  0  0  0  0  0  0  0  0  0
   39.6270   30.4550   43.4680 H   0  0  0  0  0  0  0  0  0  0  0  0
   40.2640   29.7440   41.9290 H   0  0  0  0  0  0  0  0  0  0  0  0
   38.8040   33.1740   40.6580 C   0  0  0  0  0  0  0  0  0  0  0  0
   37.5680   32.9920   40.0240 C   0  0  0  0  0  0  0  0  0  0  0  0
   36.9220   31.7940   40.2320 C   0  0  0  0  0  0  0  0  0  0  0  0
   37.4920   30.8540   41.0260 N   0  0  0  0  0  0  0  0  0  0  0  0
   38.6910   31.0740   41.6200 C   0  0  0  0  0  0  0  0  0  0  0  0
   39.3440   32.2440   41.4300 N   0  0  0  0  0  0  0  0  0  0  0  0
   39.3470   34.1030   40.5210 H   0  0  0  0  0  0  0  0  0  0  0  0
   35.9770   31.6560   39.7480 H   0  0  0  0  0  0  0  0  0  0  0  0
   37.0920   34.0630   39.2220 N   0  0  0  0  0  0  0  0  0  0  0  0
   36.6780   34.6920   39.9490 H   0  0  0  0  0  0  0  0  0  0  0  0
   37.1370   34.1950   38.2040 H   0  0  0  0  0  0  0  0  0  0  0  0
  1  2  2  0  0  0  0
  2  6  1  0  0  0  0
  3  2  1  0  0  0  0
  3  7  1  0  0  0  0
  4  3  2  0  0  0  0
  5  4  1  0  0  0  0
  5  1  1  0  0  0  0
  8  9  1  0  0  0  0
  9 10  2  0  0  0  0
  9  4  1  0  0  0  0
 10 11  1  0  0  0  0
 12 13  1  0  0  0  0
 12 10  1  0  0  0  0
 14 12  2  0  0  0  0
 15 14  1  0  0  0  0
 15  8  2  0  0  0  0
 16 17  3  0  0  0  0
 17  8  1  0  0  0  0
 18  1  1  0  0  0  0
 18 19  1  0  0  0  0
 20 18  1  0  0  0  0
 21 26  1  0  0  0  0
 22 23  1  0  0  0  0
 22 21  2  0  0  0  0
 23 24  2  0  0  0  0
 24 25  1  0  0  0  0
 25 18  1  0  0  0  0
 26 25  2  0  0  0  0
 27 21  1  0  0  0  0
 28 23  1  0  0  0  0
 29 30  1  0  0  0  0
 29 22  1  0  0  0  0
 31 29  1  0  0  0  0
M  END
>  <minimizedAffinity>
-5.8351388

$$$$

 OpenBabel03242518203D

 31 33  0  0  0  0  0  0  0  0999 V2000
   36.8110   29.3190   37.8610 C   0  0  0  0  0  0  0  0  0  0  0  0
   35.4990   29.0110   37.6020 C   0  0  0  0  0  0  0  0  0  0  0  0
   35.1960   27.8780   38.3640 C   0  0  0  0  0  0  0  0  0  0  0  0
   36.3570   27.5630   39.0480 C   0  0  0  0  0  0  0  0  0  0  0  0
   37.2390   28.4340   38.7080 O   0  0  0  0  0  0  0  0  0  0  0  0
   34.7800   29.5120   36.9420 H   0  0  0  0  0  0  0  0  0  0  0  0
   34.2580   27.3290   38.4330 H   0  0  0  0  0  0  0  0  0  0  0  0
   36.9000   26.7960   41.2880 C   0  0  0  0  0  0  0  0  0  0  0  0
   36.5990   26.4750   39.9810 C   0  0  0  0  0  0  0  0  0  0  0  0
   36.5320   25.1500   39.5820 C   0  0  0  0  0  0  0  0  0  0  0  0
   36.2970   24.8790   38.5630 H   0  0  0  0  0  0  0  0  0  0  0  0
   36.7740   24.1620   40.5260 C   0  0  0  0  0  0  0  0  0  0  0  0
   36.7430   23.1110   40.3020 H   0  0  0  0  0  0  0  0  0  0  0  0
   37.0780   24.4840   41.8430 C   0  0  0  0  0  3  0  0  0  0  0  0
   37.1420   25.8040   42.2330 C   0  0  0  0  0  3  0  0  0  0  0  0
   37.0500   29.2750   42.0640 N   0  0  0  0  0  0  0  0  0  0  0  0
   36.9760   28.1730   41.7280 C   0  0  0  0  0  0  0  0  0  0  0  0
   37.5560   30.4670   37.2540 C   0  0  0  0  0  0  0  0  0  0  0  0
   38.3790   30.1560   36.6100 H   0  0  0  0  0  0  0  0  0  0  0  0
   36.7870   31.0200   36.6380 H   0  0  0  0  0  0  0  0  0  0  0  0
   37.3580   32.7380   40.1140 C   0  0  0  0  0  0  0  0  0  0  0  0
   38.6610   33.2360   40.2480 C   0  0  0  0  0  0  0  0  0  0  0  0
   39.6040   32.7860   39.3510 C   0  0  0  0  0  0  0  0  0  0  0  0
   39.2460   31.8980   38.3910 N   0  0  0  0  0  0  0  0  0  0  0  0
   37.9720   31.4430   38.2980 C   0  0  0  0  0  0  0  0  0  0  0  0
   37.0290   31.8710   39.1690 N   0  0  0  0  0  0  0  0  0  0  0  0
   36.5840   33.0650   40.7990 H   0  0  0  0  0  0  0  0  0  0  0  0
   40.6000   33.1680   39.4530 H   0  0  0  0  0  0  0  0  0  0  0  0
   38.8910   34.1610   41.3000 N   0  0  0  0  0  0  0  0  0  0  0  0
   38.5470   35.0500   40.8670 H   0  0  0  0  0  0  0  0  0  0  0  0
   39.2860   34.0100   42.2360 H   0  0  0  0  0  0  0  0  0  0  0  0
  1  5  1  0  0  0  0
  2  1  2  0  0  0  0
  2  3  1  0  0  0  0
  3  7  1  0  0  0  0
  3  4  2  0  0  0  0
  4  9  1  0  0  0  0
  5  4  1  0  0  0  0
  6  2  1  0  0  0  0
  8 17  1  0  0  0  0
  8 15  1  0  0  0  0
  9  8  2  0  0  0  0
 10  9  1  0  0  0  0
 10 12  2  0  0  0  0
 11 10  1  0  0  0  0
 12 14  1  0  0  0  0
 13 12  1  0  0  0  0
 14 15  2  0  0  0  0
 17 16  3  0  0  0  0
 18  1  1  0  0  0  0
 18 25  1  0  0  0  0
 19 18  1  0  0  0  0
 20 18  1  0  0  0  0
 21 22  1  0  0  0  0
 21 27  1  0  0  0  0
 22 29  1  0  0  0  0
 23 28  1  0  0  0  0
 23 22  2  0  0  0  0
 24 23  1  0  0  0  0
 25 24  2  0  0  0  0
 25 26  1  0  0  0  0
 26 21  2  0  0  0  0
 29 31  1  0  0  0  0
 30 29  1  0  0  0  0
M  END
>  <minimizedAffinity>
-5.61209345

$$$$

 OpenBabel03242518203D

 31 33  0  0  0  0  0  0  0  0999 V2000
   37.1920   29.3680   41.7780 C   0  0  0  0  0  0  0  0  0  0  0  0
   37.6660   29.1970   43.0540 C   0  0  0  0  0  0  0  0  0  0  0  0
   38.0540   27.8570   43.1600 C   0  0  0  0  0  0  0  0  0  0  0  0
   37.7890   27.2900   41.9260 C   0  0  0  0  0  0  0  0  0  0  0  0
   37.2950   28.2180   41.1870 O   0  0  0  0  0  0  0  0  0  0  0  0
   37.7510   29.9220   43.8730 H   0  0  0  0  0  0  0  0  0  0  0  0
   38.4790   27.3310   44.0130 H   0  0  0  0  0  0  0  0  0  0  0  0
   39.1810   25.6220   40.8380 C   0  0  0  0  0  0  0  0  0  0  0  0
   38.0000   25.9210   41.4870 C   0  0  0  0  0  0  0  0  0  0  0  0
   37.0530   24.9340   41.7070 C   0  0  0  0  0  0  0  0  0  0  0  0
   36.1230   25.1490   42.2140 H   0  0  0  0  0  0  0  0  0  0  0  0
   37.3220   23.6480   41.2610 C   0  0  0  0  0  0  0  0  0  0  0  0
   36.6430   22.8230   41.3900 H   0  0  0  0  0  0  0  0  0  0  0  0
   38.5090   23.3460   40.6080 C   0  0  0  0  0  3  0  0  0  0  0  0
   39.4480   24.3320   40.3920 C   0  0  0  0  0  3  0  0  0  0  0  0
   40.9940   27.4330   40.3900 N   0  0  0  0  0  0  0  0  0  0  0  0
   40.1850   26.6360   40.5960 C   0  0  0  0  0  0  0  0  0  0  0  0
   36.6670   30.6580   41.2270 C   0  0  0  0  0  0  0  0  0  0  0  0
   35.5900   30.6480   41.0540 H   0  0  0  0  0  0  0  0  0  0  0  0
   36.9120   31.4320   42.0130 H   0  0  0  0  0  0  0  0  0  0  0  0
   39.4960   31.6820   39.1490 C   0  0  0  0  0  0  0  0  0  0  0  0
   38.9410   31.8590   37.8750 C   0  0  0  0  0  0  0  0  0  0  0  0
   37.5910   31.6240   37.7370 C   0  0  0  0  0  0  0  0  0  0  0  0
   36.8640   31.2390   38.8150 N   0  0  0  0  0  0  0  0  0  0  0  0
   37.4440   31.0810   40.0300 C   0  0  0  0  0  0  0  0  0  0  0  0
   38.7690   31.3060   40.1890 N   0  0  0  0  0  0  0  0  0  0  0  0
   40.5560   31.8570   39.3030 H   0  0  0  0  0  0  0  0  0  0  0  0
   37.1670   31.7600   36.7630 H   0  0  0  0  0  0  0  0  0  0  0  0
   39.8230   32.2660   36.8390 N   0  0  0  0  0  0  0  0  0  0  0  0
   39.8740   33.2970   37.0100 H   0  0  0  0  0  0  0  0  0  0  0  0
   40.2900   31.7070   36.1140 H   0  0  0  0  0  0  0  0  0  0  0  0
  1  2  2  0  0  0  0
  2  3  1  0  0  0  0
  2  6  1  0  0  0  0
  3  7  1  0  0  0  0
  4  3  2  0  0  0  0
  5  1  1  0  0  0  0
  5  4  1  0  0  0  0
  8  9  1  0  0  0  0
  9 10  2  0  0  0  0
  9  4  1  0  0  0  0
 10 11  1  0  0  0  0
 12 13  1  0  0  0  0
 12 10  1  0  0  0  0
 14 12  2  0  0  0  0
 15 14  1  0  0  0  0
 15  8  2  0  0  0  0
 16 17  3  0  0  0  0
 17  8  1  0  0  0  0
 18  1  1  0  0  0  0
 18 20  1  0  0  0  0
 19 18  1  0  0  0  0
 21 27  1  0  0  0  0
 21 26  1  0  0  0  0
 22 21  2  0  0  0  0
 23 22  1  0  0  0  0
 23 24  2  0  0  0  0
 24 25  1  0  0  0  0
 25 26  2  0  0  0  0
 25 18  1  0  0  0  0
 28 23  1  0  0  0  0
 29 30  1  0  0  0  0
 29 22  1  0  0  0  0
 31 29  1  0  0  0  0
M  END
>  <minimizedAffinity>
-5.44242859

$$$$

 OpenBabel03242518203D

 31 33  0  0  0  0  0  0  0  0999 V2000
   38.5360   32.2870   40.6720 C   0  0  0  0  0  0  0  0  0  0  0  0
   37.2340   32.4290   40.2630 C   0  0  0  0  0  0  0  0  0  0  0  0
   36.5770   31.2420   40.6010 C   0  0  0  0  0  0  0  0  0  0  0  0
   37.5320   30.4410   41.2020 C   0  0  0  0  0  0  0  0  0  0  0  0
   38.6310   31.1090   41.2060 O   0  0  0  0  0  0  0  0  0  0  0  0
   36.7450   33.2760   39.7660 H   0  0  0  0  0  0  0  0  0  0  0  0
   35.5360   30.9650   40.4430 H   0  0  0  0  0  0  0  0  0  0  0  0
   37.3700   28.0410   40.8580 C   0  0  0  0  0  0  0  0  0  0  0  0
   37.3890   29.1000   41.7430 C   0  0  0  0  0  0  0  0  0  0  0  0
   37.2750   28.8760   43.1050 C   0  0  0  0  0  0  0  0  0  0  0  0
   37.2890   29.6920   43.8140 H   0  0  0  0  0  0  0  0  0  0  0  0
   37.1420   27.5690   43.5520 C   0  0  0  0  0  0  0  0  0  0  0  0
   37.0470   27.3060   44.5910 H   0  0  0  0  0  0  0  0  0  0  0  0
   37.1220   26.5020   42.6630 C   0  0  0  0  0  3  0  0  0  0  0  0
   37.2370   26.7320   41.3080 C   0  0  0  0  0  3  0  0  0  0  0  0
   37.5650   28.4070   38.2900 N   0  0  0  0  0  0  0  0  0  0  0  0
   37.4880   28.2510   39.4310 C   0  0  0  0  0  0  0  0  0  0  0  0
   39.6020   33.3260   40.5070 C   0  0  0  0  0  0  0  0  0  0  0  0
   39.2080   34.3350   40.3840 H   0  0  0  0  0  0  0  0  0  0  0  0
   40.2080   33.2750   41.4590 H   0  0  0  0  0  0  0  0  0  0  0  0
   42.7580   32.8340   38.7270 C   0  0  0  0  0  0  0  0  0  0  0  0
   42.3790   32.2590   37.5070 C   0  0  0  0  0  0  0  0  0  0  0  0
   41.0340   32.0430   37.3030 C   0  0  0  0  0  0  0  0  0  0  0  0
   40.1460   32.3870   38.2670 N   0  0  0  0  0  0  0  0  0  0  0  0
   40.5590   32.9410   39.4330 C   0  0  0  0  0  0  0  0  0  0  0  0
   41.8750   33.1630   39.6560 N   0  0  0  0  0  0  0  0  0  0  0  0
   43.8070   33.0220   38.9300 H   0  0  0  0  0  0  0  0  0  0  0  0
   40.7450   31.6040   36.3690 H   0  0  0  0  0  0  0  0  0  0  0  0
   43.4180   31.9510   36.5900 N   0  0  0  0  0  0  0  0  0  0  0  0
   43.5840   32.8860   36.1500 H   0  0  0  0  0  0  0  0  0  0  0  0
   43.8880   31.0560   36.4020 H   0  0  0  0  0  0  0  0  0  0  0  0
  1  5  1  0  0  0  0
  2  3  1  0  0  0  0
  2  1  2  0  0  0  0
  3  4  2  0  0  0  0
  4  5  1  0  0  0  0
  4  9  1  0  0  0  0
  6  2  1  0  0  0  0
  7  3  1  0  0  0  0
  8 15  2  0  0  0  0
  8  9  1  0  0  0  0
  9 10  2  0  0  0  0
 10 12  1  0  0  0  0
 10 11  1  0  0  0  0
 12 13  1  0  0  0  0
 14 12  2  0  0  0  0
 15 14  1  0  0  0  0
 16 17  3  0  0  0  0
 17  8  1  0  0  0  0
 18  1  1  0  0  0  0
 18 20  1  0  0  0  0
 19 18  1  0  0  0  0
 21 27  1  0  0  0  0
 21 26  1  0  0  0  0
 22 21  2  0  0  0  0
 23 22  1  0  0  0  0
 23 24  2  0  0  0  0
 24 25  1  0  0  0  0
 25 26  2  0  0  0  0
 25 18  1  0  0  0  0
 28 23  1  0  0  0  0
 29 22  1  0  0  0  0
 30 29  1  0  0  0  0
 31 29  1  0  0  0  0
M  END
>  <minimizedAffinity>
-5.32418633

$$$$

 OpenBabel03242518203D

 31 33  0  0  0  0  0  0  0  0999 V2000
   38.1300   29.8800   41.6650 C   0  0  0  0  0  0  0  0  0  0  0  0
   36.8070   30.1990   41.4890 C   0  0  0  0  0  0  0  0  0  0  0  0
   36.1340   28.9970   41.2500 C   0  0  0  0  0  0  0  0  0  0  0  0
   37.1010   28.0080   41.2970 C   0  0  0  0  0  0  0  0  0  0  0  0
   38.2210   28.5920   41.5390 O   0  0  0  0  0  0  0  0  0  0  0  0
   36.3140   31.1790   41.5160 H   0  0  0  0  0  0  0  0  0  0  0  0
   35.0750   28.8290   41.0620 H   0  0  0  0  0  0  0  0  0  0  0  0
   36.7030   26.1030   39.8430 C   0  0  0  0  0  0  0  0  0  0  0  0
   36.9500   26.5740   41.1160 C   0  0  0  0  0  0  0  0  0  0  0  0
   37.0490   25.6940   42.1810 C   0  0  0  0  0  0  0  0  0  0  0  0
   37.2420   26.0440   43.1850 H   0  0  0  0  0  0  0  0  0  0  0  0
   36.8940   24.3370   41.9350 C   0  0  0  0  0  0  0  0  0  0  0  0
   36.9550   23.5870   42.7040 H   0  0  0  0  0  0  0  0  0  0  0  0
   36.6440   23.8620   40.6550 C   0  0  0  0  0  3  0  0  0  0  0  0
   36.5480   24.7420   39.5990 C   0  0  0  0  0  3  0  0  0  0  0  0
   36.4920   27.7270   37.8210 N   0  0  0  0  0  0  0  0  0  0  0  0
   36.5950   27.0020   38.7140 C   0  0  0  0  0  0  0  0  0  0  0  0
   39.2180   30.8690   41.9460 C   0  0  0  0  0  0  0  0  0  0  0  0
   38.9510   31.6010   42.7110 H   0  0  0  0  0  0  0  0  0  0  0  0
   40.0890   30.2490   42.3120 H   0  0  0  0  0  0  0  0  0  0  0  0
   40.2870   31.2150   38.4670 C   0  0  0  0  0  0  0  0  0  0  0  0
   40.5970   32.5750   38.3360 C   0  0  0  0  0  0  0  0  0  0  0  0
   40.4360   33.3690   39.4500 C   0  0  0  0  0  0  0  0  0  0  0  0
   39.9940   32.8190   40.6070 N   0  0  0  0  0  0  0  0  0  0  0  0
   39.7060   31.4960   40.6880 C   0  0  0  0  0  0  0  0  0  0  0  0
   39.8570   30.6960   39.6060 N   0  0  0  0  0  0  0  0  0  0  0  0
   40.4000   30.5530   37.6150 H   0  0  0  0  0  0  0  0  0  0  0  0
   40.6730   34.4090   39.3490 H   0  0  0  0  0  0  0  0  0  0  0  0
   41.0500   33.0120   37.0630 N   0  0  0  0  0  0  0  0  0  0  0  0
   42.0600   32.7390   37.1030 H   0  0  0  0  0  0  0  0  0  0  0  0
   40.5350   33.4720   36.3020 H   0  0  0  0  0  0  0  0  0  0  0  0
  1 18  1  0  0  0  0
  2  6  1  0  0  0  0
  2  1  2  0  0  0  0
  3  4  2  0  0  0  0
  3  2  1  0  0  0  0
  4  5  1  0  0  0  0
  5  1  1  0  0  0  0
  7  3  1  0  0  0  0
  8  9  1  0  0  0  0
  9  4  1  0  0  0  0
  9 10  2  0  0  0  0
 10 11  1  0  0  0  0
 12 10  1  0  0  0  0
 12 13  1  0  0  0  0
 14 12  2  0  0  0  0
 15  8  2  0  0  0  0
 15 14  1  0  0  0  0
 16 17  3  0  0  0  0
 17  8  1  0  0  0  0
 18 20  1  0  0  0  0
 18 19  1  0  0  0  0
 21 26  1  0  0  0  0
 22 21  2  0  0  0  0
 22 23  1  0  0  0  0
 23 24  2  0  0  0  0
 24 25  1  0  0  0  0
 25 18  1  0  0  0  0
 26 25  2  0  0  0  0
 27 21  1  0  0  0  0
 28 23  1  0  0  0  0
 29 30  1  0  0  0  0
 29 22  1  0  0  0  0
 31 29  1  0  0  0  0
M  END
>  <minimizedAffinity>
-5.23913956

$$$$

 OpenBabel03242518203D

 31 33  0  0  0  0  0  0  0  0999 V2000
   36.8070   29.9900   38.0910 C   0  0  0  0  0  0  0  0  0  0  0  0
   35.5380   29.5530   37.8050 C   0  0  0  0  0  0  0  0  0  0  0  0
   35.2620   28.5140   38.7000 C   0  0  0  0  0  0  0  0  0  0  0  0
   36.3940   28.3830   39.4850 C   0  0  0  0  0  0  0  0  0  0  0  0
   37.2360   29.2620   39.0760 O   0  0  0  0  0  0  0  0  0  0  0  0
   34.8330   29.9040   37.0420 H   0  0  0  0  0  0  0  0  0  0  0  0
   34.3600   27.9110   38.7940 H   0  0  0  0  0  0  0  0  0  0  0  0
   36.9760   26.1520   40.2530 C   0  0  0  0  0  0  0  0  0  0  0  0
   36.6460   27.4530   40.5730 C   0  0  0  0  0  0  0  0  0  0  0  0
   36.5610   27.8480   41.8980 C   0  0  0  0  0  0  0  0  0  0  0  0
   36.3050   28.8620   42.1690 H   0  0  0  0  0  0  0  0  0  0  0  0
   36.8160   26.9070   42.8860 C   0  0  0  0  0  0  0  0  0  0  0  0
   36.7720   27.1290   43.9380 H   0  0  0  0  0  0  0  0  0  0  0  0
   37.1480   25.5980   42.5660 C   0  0  0  0  0  3  0  0  0  0  0  0
   37.2310   25.2110   41.2450 C   0  0  0  0  0  3  0  0  0  0  0  0
   37.1400   25.3500   37.7830 N   0  0  0  0  0  0  0  0  0  0  0  0
   37.0710   25.7170   38.8760 C   0  0  0  0  0  0  0  0  0  0  0  0
   37.5130   31.0970   37.3710 C   0  0  0  0  0  0  0  0  0  0  0  0
   38.0540   30.7610   36.4850 H   0  0  0  0  0  0  0  0  0  0  0  0
   36.6940   31.8110   37.0600 H   0  0  0  0  0  0  0  0  0  0  0  0
   38.4530   33.3320   40.1090 C   0  0  0  0  0  0  0  0  0  0  0  0
   39.8530   33.3570   40.0660 C   0  0  0  0  0  0  0  0  0  0  0  0
   40.4690   32.6030   39.0920 C   0  0  0  0  0  0  0  0  0  0  0  0
   39.7150   31.8790   38.2290 N   0  0  0  0  0  0  0  0  0  0  0  0
   38.3610   31.8840   38.3070 C   0  0  0  0  0  0  0  0  0  0  0  0
   37.7340   32.6190   39.2560 N   0  0  0  0  0  0  0  0  0  0  0  0
   37.9270   33.9110   40.8600 H   0  0  0  0  0  0  0  0  0  0  0  0
   41.5390   32.6230   39.0600 H   0  0  0  0  0  0  0  0  0  0  0  0
   40.5110   34.1610   41.0340 N   0  0  0  0  0  0  0  0  0  0  0  0
   40.4350   35.1090   40.5960 H   0  0  0  0  0  0  0  0  0  0  0  0
   40.9470   33.8950   41.9260 H   0  0  0  0  0  0  0  0  0  0  0  0
  1  5  1  0  0  0  0
  2  1  2  0  0  0  0
  2  3  1  0  0  0  0
  3  7  1  0  0  0  0
  3  4  2  0  0  0  0
  4  9  1  0  0  0  0
  5  4  1  0  0  0  0
  6  2  1  0  0  0  0
  8  9  2  0  0  0  0
  8 15  1  0  0  0  0
  9 10  1  0  0  0  0
 10 11  1  0  0  0  0
 10 12  2  0  0  0  0
 12 13  1  0  0  0  0
 14 12  1  0  0  0  0
 15 14  2  0  0  0  0
 16 17  3  0  0  0  0
 17  8  1  0  0  0  0
 18  1  1  0  0  0  0
 18 25  1  0  0  0  0
 19 18  1  0  0  0  0
 20 18  1  0  0  0  0
 21 27  1  0  0  0  0
 22 21  1  0  0  0  0
 22 29  1  0  0  0  0
 23 22  2  0  0  0  0
 24 25  2  0  0  0  0
 24 23  1  0  0  0  0
 25 26  1  0  0  0  0
 26 21  2  0  0  0  0
 28 23  1  0  0  0  0
 29 31  1  0  0  0  0
 30 29  1  0  0  0  0
M  END
>  <minimizedAffinity>
-5.16928005

$$$$

 OpenBabel03242518203D

 31 33  0  0  0  0  0  0  0  0999 V2000
   39.5470   28.6860   38.0560 C   0  0  0  0  0  0  0  0  0  0  0  0
   38.2960   28.9290   37.5440 C   0  0  0  0  0  0  0  0  0  0  0  0
   37.3930   28.7570   38.5980 C   0  0  0  0  0  0  0  0  0  0  0  0
   38.1600   28.4160   39.6990 C   0  0  0  0  0  0  0  0  0  0  0  0
   39.3840   28.3940   39.3090 O   0  0  0  0  0  0  0  0  0  0  0  0
   37.9990   29.2060   36.5260 H   0  0  0  0  0  0  0  0  0  0  0  0
   36.3090   28.8600   38.5960 H   0  0  0  0  0  0  0  0  0  0  0  0
   37.9250   29.0900   42.0210 C   0  0  0  0  0  0  0  0  0  0  0  0
   37.7280   28.1240   41.0560 C   0  0  0  0  0  0  0  0  0  0  0  0
   37.1340   26.9160   41.3840 C   0  0  0  0  0  0  0  0  0  0  0  0
   36.9710   26.1490   40.6410 H   0  0  0  0  0  0  0  0  0  0  0  0
   36.7460   26.7060   42.7000 C   0  0  0  0  0  0  0  0  0  0  0  0
   36.2790   25.7980   43.0400 H   0  0  0  0  0  0  0  0  0  0  0  0
   36.9440   27.6770   43.6730 C   0  0  0  0  0  3  0  0  0  0  0  0
   37.5350   28.8760   43.3390 C   0  0  0  0  0  3  0  0  0  0  0  0
   39.0540   31.3610   41.4430 N   0  0  0  0  0  0  0  0  0  0  0  0
   38.5430   30.3580   41.7030 C   0  0  0  0  0  0  0  0  0  0  0  0
   40.8200   28.7570   37.2710 C   0  0  0  0  0  0  0  0  0  0  0  0
   41.5790   28.0520   37.6140 H   0  0  0  0  0  0  0  0  0  0  0  0
   40.5240   28.4990   36.2120 H   0  0  0  0  0  0  0  0  0  0  0  0
   40.8500   32.4100   37.4110 C   0  0  0  0  0  0  0  0  0  0  0  0
   42.1640   32.7560   37.0690 C   0  0  0  0  0  0  0  0  0  0  0  0
   43.0360   31.7270   36.7920 C   0  0  0  0  0  0  0  0  0  0  0  0
   42.6020   30.4450   36.8570 N   0  0  0  0  0  0  0  0  0  0  0  0
   41.3200   30.1560   37.1920 C   0  0  0  0  0  0  0  0  0  0  0  0
   40.4450   31.1520   37.4680 N   0  0  0  0  0  0  0  0  0  0  0  0
   40.1300   33.1890   37.6370 H   0  0  0  0  0  0  0  0  0  0  0  0
   44.0400   31.9930   36.5310 H   0  0  0  0  0  0  0  0  0  0  0  0
   42.4770   34.1410   37.0410 N   0  0  0  0  0  0  0  0  0  0  0  0
   42.1130   34.4120   36.0980 H   0  0  0  0  0  0  0  0  0  0  0  0
   42.9370   34.7280   37.7480 H   0  0  0  0  0  0  0  0  0  0  0  0
  1  5  1  0  0  0  0
  2  1  2  0  0  0  0
  2  3  1  0  0  0  0
  3  4  2  0  0  0  0
  4  9  1  0  0  0  0
  5  4  1  0  0  0  0
  6  2  1  0  0  0  0
  7  3  1  0  0  0  0
  8 15  1  0  0  0  0
  9 10  1  0  0  0  0
  9  8  2  0  0  0  0
 10 12  2  0  0  0  0
 11 10  1  0  0  0  0
 12 13  1  0  0  0  0
 12 14  1  0  0  0  0
 15 14  2  0  0  0  0
 16 17  3  0  0  0  0
 17  8  1  0  0  0  0
 18 19  1  0  0  0  0
 18  1  1  0  0  0  0
 20 18  1  0  0  0  0
 21 26  1  0  0  0  0
 21 27  1  0  0  0  0
 22 21  2  0  0  0  0
 23 24  2  0  0  0  0
 23 22  1  0  0  0  0
 24 25  1  0  0  0  0
 25 18  1  0  0  0  0
 25 26  2  0  0  0  0
 28 23  1  0  0  0  0
 29 22  1  0  0  0  0
 29 31  1  0  0  0  0
 30 29  1  0  0  0  0
M  END
>  <minimizedAffinity>
-5.12114429

$$$$

 OpenBabel03242518203D

 31 33  0  0  0  0  0  0  0  0999 V2000
   37.6550   29.8230   41.8890 C   0  0  0  0  0  0  0  0  0  0  0  0
   36.5890   30.3330   41.1910 C   0  0  0  0  0  0  0  0  0  0  0  0
   37.1140   30.9310   40.0410 C   0  0  0  0  0  0  0  0  0  0  0  0
   38.4830   30.7450   40.1110 C   0  0  0  0  0  0  0  0  0  0  0  0
   38.7170   30.1020   41.1990 O   0  0  0  0  0  0  0  0  0  0  0  0
   35.5190   30.3100   41.4320 H   0  0  0  0  0  0  0  0  0  0  0  0
   36.5910   31.4440   39.2350 H   0  0  0  0  0  0  0  0  0  0  0  0
   39.9240   32.4840   39.2150 C   0  0  0  0  0  0  0  0  0  0  0  0
   39.5100   31.1680   39.1740 C   0  0  0  0  0  0  0  0  0  0  0  0
   40.0670   30.2870   38.2620 C   0  0  0  0  0  0  0  0  0  0  0  0
   39.7570   29.2530   38.2160 H   0  0  0  0  0  0  0  0  0  0  0  0
   41.0440   30.7590   37.3970 C   0  0  0  0  0  0  0  0  0  0  0  0
   41.5280   30.1440   36.6590 H   0  0  0  0  0  0  0  0  0  0  0  0
   41.4610   32.0830   37.4360 C   0  0  0  0  0  3  0  0  0  0  0  0
   40.9030   32.9550   38.3470 C   0  0  0  0  0  3  0  0  0  0  0  0
   38.8890   34.1590   40.9150 N   0  0  0  0  0  0  0  0  0  0  0  0
   39.3560   33.4230   40.1580 C   0  0  0  0  0  0  0  0  0  0  0  0
   37.5530   29.0940   43.1930 C   0  0  0  0  0  0  0  0  0  0  0  0
   38.0050   29.6340   44.0270 H   0  0  0  0  0  0  0  0  0  0  0  0
   36.4440   28.9810   43.3780 H   0  0  0  0  0  0  0  0  0  0  0  0
   37.7280   25.5810   42.1960 C   0  0  0  0  0  0  0  0  0  0  0  0
   38.9150   25.1170   42.7790 C   0  0  0  0  0  0  0  0  0  0  0  0
   39.6520   26.0190   43.5130 C   0  0  0  0  0  0  0  0  0  0  0  0
   39.2120   27.2940   43.6450 N   0  0  0  0  0  0  0  0  0  0  0  0
   38.0560   27.6990   43.0640 C   0  0  0  0  0  0  0  0  0  0  0  0
   37.3150   26.8300   42.3370 N   0  0  0  0  0  0  0  0  0  0  0  0
   37.1170   24.9040   41.6090 H   0  0  0  0  0  0  0  0  0  0  0  0
   40.5600   25.6640   43.9590 H   0  0  0  0  0  0  0  0  0  0  0  0
   39.2520   23.7560   42.5570 N   0  0  0  0  0  0  0  0  0  0  0  0
   38.6590   23.2800   43.2770 H   0  0  0  0  0  0  0  0  0  0  0  0
   39.8990   23.3380   41.8760 H   0  0  0  0  0  0  0  0  0  0  0  0
  1 18  1  0  0  0  0
  2  6  1  0  0  0  0
  2  1  2  0  0  0  0
  3  4  2  0  0  0  0
  3  2  1  0  0  0  0
  4  5  1  0  0  0  0
  5  1  1  0  0  0  0
  7  3  1  0  0  0  0
  8 17  1  0  0  0  0
  9  8  1  0  0  0  0
  9  4  1  0  0  0  0
 10  9  2  0  0  0  0
 11 10  1  0  0  0  0
 12 14  2  0  0  0  0
 12 10  1  0  0  0  0
 13 12  1  0  0  0  0
 14 15  1  0  0  0  0
 15  8  2  0  0  0  0
 17 16  3  0  0  0  0
 18 20  1  0  0  0  0
 18 19  1  0  0  0  0
 21 26  2  0  0  0  0
 21 22  1  0  0  0  0
 22 23  2  0  0  0  0
 23 24  1  0  0  0  0
 23 28  1  0  0  0  0
 25 18  1  0  0  0  0
 25 24  2  0  0  0  0
 26 25  1  0  0  0  0
 27 21  1  0  0  0  0
 29 22  1  0  0  0  0
 29 30  1  0  0  0  0
 31 29  1  0  0  0  0
M  END
>  <minimizedAffinity>
-5.00583458

$$$$
