
 OpenBabel03252500363D

 47 50  0  0  1  0  0  0  0  0999 V2000
   45.6580   34.8180   44.0790 C   0  0  1  0  0  0  0  0  0  0  0  0
   44.8790   34.7320   45.2350 C   0  0  0  0  0  0  0  0  0  0  0  0
   46.1420   33.9790   45.2970 C   0  0  1  0  0  0  0  0  0  0  0  0
   46.2820   35.7330   43.8670 H   0  0  0  0  0  0  0  0  0  0  0  0
   44.7440   35.6330   45.8870 H   0  0  0  0  0  0  0  0  0  0  0  0
   43.9380   34.1120   45.2390 H   0  0  0  0  0  0  0  0  0  0  0  0
   47.0770   34.3940   45.7030 H   0  0  0  0  0  0  0  0  0  0  0  0
   44.1850   33.4240   42.6210 C   0  0  0  0  0  0  0  0  0  0  0  0
   45.4490   34.0720   42.8000 C   0  0  0  0  0  0  0  0  0  0  0  0
   46.3990   33.9890   41.8320 C   0  0  0  0  0  0  0  0  0  0  0  0
   46.0720   33.2650   40.7060 N   0  0  0  0  0  0  0  0  0  0  0  0
   44.8760   32.6590   40.5500 C   0  0  0  0  0  0  0  0  0  0  0  0
   43.8900   32.7200   41.5070 N   0  0  0  0  0  0  0  0  0  0  0  0
   43.4420   33.4880   43.3810 H   0  0  0  0  0  0  0  0  0  0  0  0
   47.3470   34.4670   41.9510 H   0  0  0  0  0  0  0  0  0  0  0  0
   43.7810   32.4250   38.3550 C   0  0  0  0  0  0  0  0  0  0  0  0
   44.6190   31.9140   39.3230 C   0  0  0  0  0  0  0  0  0  0  0  0
   45.2390   30.6910   39.1710 C   0  0  0  0  0  0  0  0  0  0  0  0
   45.8970   30.2360   39.8790 H   0  0  0  0  0  0  0  0  0  0  0  0
   45.0110   29.9600   38.0150 C   0  0  0  0  0  0  0  0  0  0  0  0
   45.4510   28.9820   37.7930 H   0  0  0  0  0  0  0  0  0  0  0  0
   44.1710   30.4320   37.0020 C   0  0  0  0  0  3  0  0  0  0  0  0
   43.5720   31.6650   37.2010 C   0  0  0  0  0  3  0  0  0  0  0  0
   42.6230   34.7170   38.6840 N   0  0  0  0  0  0  0  0  0  0  0  0
   43.1500   33.6960   38.5380 C   0  0  0  0  0  0  0  0  0  0  0  0
   46.1400   32.4990   45.2000 C   0  0  0  0  0  0  0  0  0  0  0  0
   47.1550   32.1640   44.9360 H   0  0  0  0  0  0  0  0  0  0  0  0
   45.4470   32.1490   44.4090 H   0  0  0  0  0  0  0  0  0  0  0  0
   45.8030   31.9910   46.4810 N   0  0  0  0  0  0  0  0  0  0  0  0
   46.2880   32.6570   47.6110 C   0  0  0  0  0  0  0  0  0  0  0  0
   47.6500   32.0940   48.0610 C   0  0  0  0  0  0  0  0  0  0  0  0
   47.3900   30.6940   48.5550 C   0  0  0  0  0  0  0  0  0  0  0  0
   46.8310   29.9260   47.3910 C   0  0  0  0  0  0  0  0  0  0  0  0
   45.7020   30.6050   46.6650 C   0  0  2  0  0  0  0  0  0  0  0  0
   45.6110   32.3370   48.4630 H   0  0  0  0  0  0  0  0  0  0  0  0
   46.2360   33.7430   47.6630 H   0  0  0  0  0  0  0  0  0  0  0  0
   48.3510   32.0640   47.2210 H   0  0  0  0  0  0  0  0  0  0  0  0
   47.9880   32.7390   48.8900 H   0  0  0  0  0  0  0  0  0  0  0  0
   48.3820   30.2430   48.7880 H   0  0  0  0  0  0  0  0  0  0  0  0
   46.7520   30.6760   49.4460 H   0  0  0  0  0  0  0  0  0  0  0  0
   47.6120   29.6630   46.6810 H   0  0  0  0  0  0  0  0  0  0  0  0
   46.4340   28.9550   47.7970 H   0  0  0  0  0  0  0  0  0  0  0  0
   44.7710   30.3890   47.2590 H   0  0  0  0  0  0  0  0  0  0  0  0
   45.5180   29.8690   45.3460 C   0  0  0  0  0  0  0  0  0  0  0  0
   46.4550   29.9080   44.7410 H   0  0  0  0  0  0  0  0  0  0  0  0
   45.2140   28.8210   45.5580 H   0  0  0  0  0  0  0  0  0  0  0  0
   44.6530   30.3150   44.8050 H   0  0  0  0  0  0  0  0  0  0  0  0
  1  4  1  6  0  0  0
  1  2  1  0  0  0  0
  1  3  1  0  0  0  0
  2  6  1  0  0  0  0
  2  3  1  0  0  0  0
  2  5  1  0  0  0  0
  3  7  1  1  0  0  0
  8  9  1  0  0  0  0
  8 14  1  0  0  0  0
  9  1  1  0  0  0  0
 10 15  1  0  0  0  0
 10  9  2  0  0  0  0
 11 10  1  0  0  0  0
 12 11  2  0  0  0  0
 12 13  1  0  0  0  0
 13  8  2  0  0  0  0
 16 25  1  0  0  0  0
 16 17  1  0  0  0  0
 17 12  1  0  0  0  0
 18 17  2  0  0  0  0
 18 19  1  0  0  0  0
 20 18  1  0  0  0  0
 21 20  1  0  0  0  0
 22 23  1  0  0  0  0
 22 20  2  0  0  0  0
 23 16  2  0  0  0  0
 25 24  3  0  0  0  0
 26  3  1  0  0  0  0
 26 29  1  0  0  0  0
 27 26  1  0  0  0  0
 28 26  1  0  0  0  0
 29 34  1  0  0  0  0
 29 30  1  0  0  0  0
 30 36  1  0  0  0  0
 30 31  1  0  0  0  0
 30 35  1  0  0  0  0
 31 32  1  0  0  0  0
 31 38  1  0  0  0  0
 32 39  1  0  0  0  0
 32 40  1  0  0  0  0
 33 42  1  0  0  0  0
 33 32  1  0  0  0  0
 34 43  1  1  0  0  0
 34 33  1  0  0  0  0
 37 31  1  0  0  0  0
 41 33  1  0  0  0  0
 44 46  1  0  0  0  0
 44 34  1  0  0  0  0
 45 44  1  0  0  0  0
 47 44  1  0  0  0  0
M  END
>  <minimizedAffinity>
-4.10082483

>  <minimizedRMSD>
0.869866908

$$$$
