
 OpenBabel03252500363D

 47 50  0  0  1  0  0  0  0  0999 V2000
   45.6580   34.8190   44.0800 C   0  0  1  0  0  0  0  0  0  0  0  0
   44.8780   34.7330   45.2370 C   0  0  0  0  0  0  0  0  0  0  0  0
   46.1410   33.9800   45.2980 C   0  0  1  0  0  0  0  0  0  0  0  0
   46.2810   35.7340   43.8690 H   0  0  0  0  0  0  0  0  0  0  0  0
   44.7420   35.6340   45.8880 H   0  0  0  0  0  0  0  0  0  0  0  0
   43.9370   34.1120   45.2400 H   0  0  0  0  0  0  0  0  0  0  0  0
   47.0760   34.3950   45.7050 H   0  0  0  0  0  0  0  0  0  0  0  0
   44.1860   33.4240   42.6220 C   0  0  0  0  0  0  0  0  0  0  0  0
   45.4490   34.0730   42.8010 C   0  0  0  0  0  0  0  0  0  0  0  0
   46.3990   33.9910   41.8330 C   0  0  0  0  0  0  0  0  0  0  0  0
   46.0730   33.2670   40.7070 N   0  0  0  0  0  0  0  0  0  0  0  0
   44.8770   32.6600   40.5510 C   0  0  0  0  0  0  0  0  0  0  0  0
   43.8910   32.7200   41.5070 N   0  0  0  0  0  0  0  0  0  0  0  0
   43.4420   33.4880   43.3810 H   0  0  0  0  0  0  0  0  0  0  0  0
   47.3470   34.4700   41.9520 H   0  0  0  0  0  0  0  0  0  0  0  0
   43.7830   32.4260   38.3550 C   0  0  0  0  0  0  0  0  0  0  0  0
   44.6210   31.9160   39.3240 C   0  0  0  0  0  0  0  0  0  0  0  0
   45.2420   30.6930   39.1710 C   0  0  0  0  0  0  0  0  0  0  0  0
   45.9000   30.2390   39.8800 H   0  0  0  0  0  0  0  0  0  0  0  0
   45.0150   29.9630   38.0150 C   0  0  0  0  0  0  0  0  0  0  0  0
   45.4560   28.9840   37.7930 H   0  0  0  0  0  0  0  0  0  0  0  0
   44.1750   30.4340   37.0020 C   0  0  0  0  0  3  0  0  0  0  0  0
   43.5740   31.6660   37.2010 C   0  0  0  0  0  3  0  0  0  0  0  0
   42.6230   34.7170   38.6840 N   0  0  0  0  0  0  0  0  0  0  0  0
   43.1510   33.6970   38.5380 C   0  0  0  0  0  0  0  0  0  0  0  0
   46.1410   32.5000   45.2010 C   0  0  0  0  0  0  0  0  0  0  0  0
   47.1560   32.1660   44.9370 H   0  0  0  0  0  0  0  0  0  0  0  0
   45.4480   32.1500   44.4100 H   0  0  0  0  0  0  0  0  0  0  0  0
   45.8030   31.9910   46.4810 N   0  0  0  0  0  0  0  0  0  0  0  0
   46.2880   32.6570   47.6120 C   0  0  0  0  0  0  0  0  0  0  0  0
   47.6500   32.0940   48.0620 C   0  0  0  0  0  0  0  0  0  0  0  0
   47.3900   30.6940   48.5550 C   0  0  0  0  0  0  0  0  0  0  0  0
   46.8310   29.9260   47.3910 C   0  0  0  0  0  0  0  0  0  0  0  0
   45.7020   30.6060   46.6650 C   0  0  2  0  0  0  0  0  0  0  0  0
   45.6110   32.3360   48.4630 H   0  0  0  0  0  0  0  0  0  0  0  0
   46.2360   33.7430   47.6640 H   0  0  0  0  0  0  0  0  0  0  0  0
   48.3510   32.0650   47.2220 H   0  0  0  0  0  0  0  0  0  0  0  0
   47.9880   32.7380   48.8910 H   0  0  0  0  0  0  0  0  0  0  0  0
   48.3820   30.2420   48.7880 H   0  0  0  0  0  0  0  0  0  0  0  0
   46.7520   30.6750   49.4460 H   0  0  0  0  0  0  0  0  0  0  0  0
   47.6130   29.6640   46.6810 H   0  0  0  0  0  0  0  0  0  0  0  0
   46.4340   28.9550   47.7960 H   0  0  0  0  0  0  0  0  0  0  0  0
   44.7710   30.3900   47.2580 H   0  0  0  0  0  0  0  0  0  0  0  0
   45.5180   29.8700   45.3460 C   0  0  0  0  0  0  0  0  0  0  0  0
   46.4550   29.9090   44.7410 H   0  0  0  0  0  0  0  0  0  0  0  0
   45.2140   28.8220   45.5570 H   0  0  0  0  0  0  0  0  0  0  0  0
   44.6540   30.3160   44.8050 H   0  0  0  0  0  0  0  0  0  0  0  0
  1  4  1  6  0  0  0
  1  2  1  0  0  0  0
  1  3  1  0  0  0  0
  2  6  1  0  0  0  0
  2  3  1  0  0  0  0
  2  5  1  0  0  0  0
  3  7  1  1  0  0  0
  8  9  1  0  0  0  0
  8 14  1  0  0  0  0
  9  1  1  0  0  0  0
 10 15  1  0  0  0  0
 10  9  2  0  0  0  0
 11 10  1  0  0  0  0
 12 11  2  0  0  0  0
 12 13  1  0  0  0  0
 13  8  2  0  0  0  0
 16 25  1  0  0  0  0
 16 17  1  0  0  0  0
 17 12  1  0  0  0  0
 18 17  2  0  0  0  0
 18 19  1  0  0  0  0
 20 18  1  0  0  0  0
 21 20  1  0  0  0  0
 22 23  1  0  0  0  0
 22 20  2  0  0  0  0
 23 16  2  0  0  0  0
 25 24  3  0  0  0  0
 26  3  1  0  0  0  0
 26 29  1  0  0  0  0
 27 26  1  0  0  0  0
 28 26  1  0  0  0  0
 29 34  1  0  0  0  0
 29 30  1  0  0  0  0
 30 36  1  0  0  0  0
 30 31  1  0  0  0  0
 30 35  1  0  0  0  0
 31 32  1  0  0  0  0
 31 38  1  0  0  0  0
 32 39  1  0  0  0  0
 32 40  1  0  0  0  0
 33 42  1  0  0  0  0
 33 32  1  0  0  0  0
 34 43  1  1  0  0  0
 34 33  1  0  0  0  0
 37 31  1  0  0  0  0
 41 33  1  0  0  0  0
 44 46  1  0  0  0  0
 44 34  1  0  0  0  0
 45 44  1  0  0  0  0
 47 44  1  0  0  0  0
M  END
>  <minimizedAffinity>
-4.09987974

>  <minimizedRMSD>
0.780385137

$$$$
