
 OpenBabel03252502013D

 35 38  0  0  0  0  0  0  0  0999 V2000
   47.6270   32.4640   48.3720 C   0  0  0  0  0  0  0  0  0  0  0  0
   47.3120   31.0970   48.4740 C   0  0  0  0  0  0  0  0  0  0  0  0
   46.4790   30.5700   47.5010 C   0  0  0  0  0  0  0  0  0  0  0  0
   46.0220   31.3680   46.5300 N   0  0  0  0  0  0  0  0  0  0  0  0
   46.3200   32.6640   46.4310 C   0  0  0  0  0  0  0  0  0  0  0  0
   47.1330   33.1820   47.3800 N   0  0  0  0  0  0  0  0  0  0  0  0
   48.2810   32.8760   49.1420 H   0  0  0  0  0  0  0  0  0  0  0  0
   45.9330   33.6850   45.4610 C   0  0  0  0  0  0  0  0  0  0  0  0
   44.9440   34.5950   45.6670 N   0  0  0  0  0  0  0  0  0  0  0  0
   44.5680   35.5470   44.8070 C   0  0  0  0  0  0  0  0  0  0  0  0
   45.1920   35.6610   43.6080 N   0  0  0  0  0  0  0  0  0  0  0  0
   46.1930   34.8170   43.2840 C   0  0  0  0  0  0  0  0  0  0  0  0
   46.8180   34.9300   42.0770 C   0  0  0  0  0  0  0  0  0  0  0  0
   47.8480   34.0730   41.7120 C   0  0  0  0  0  0  0  0  0  0  0  0
   48.2020   33.1110   42.6180 C   0  0  0  0  0  0  0  0  0  0  0  0
   47.5480   33.0280   43.8260 C   0  0  0  0  0  0  0  0  0  0  0  0
   46.5190   33.8630   44.2300 C   0  0  0  0  0  0  0  0  0  0  0  0
   43.7600   36.2220   45.0840 H   0  0  0  0  0  0  0  0  0  0  0  0
   46.5250   35.6980   41.3720 H   0  0  0  0  0  0  0  0  0  0  0  0
   48.3630   34.1260   40.7750 H   0  0  0  0  0  0  0  0  0  0  0  0
   48.9990   32.3850   42.4360 H   0  0  0  0  0  0  0  0  0  0  0  0
   47.8460   32.2580   44.5290 H   0  0  0  0  0  0  0  0  0  0  0  0
   46.9360   28.3190   46.7290 C   0  0  0  0  0  0  0  0  0  0  0  0
   46.0910   29.1630   47.4540 C   0  0  0  0  0  0  0  0  0  0  0  0
   44.9610   28.5650   47.9880 C   0  0  0  0  0  0  0  0  0  0  0  0
   44.3210   29.2480   48.5360 H   0  0  0  0  0  0  0  0  0  0  0  0
   44.7320   27.2230   47.7850 C   0  0  0  0  0  0  0  0  0  0  0  0
   43.8340   26.7960   48.2230 H   0  0  0  0  0  0  0  0  0  0  0  0
   45.5860   26.4110   47.0650 C   0  0  0  0  0  0  0  0  0  0  0  0
   46.7280   26.9730   46.5150 C   0  0  0  0  0  0  0  0  0  0  0  0
   49.1880   29.2280   45.6950 N   0  0  0  0  0  0  0  0  0  0  0  0
   48.1820   28.8210   46.1450 C   0  0  0  0  0  0  0  0  0  0  0  0
   47.8670   30.3460   49.5160 N   0  0  0  0  0  0  0  0  0  0  0  0
   47.1380   29.8640   50.0810 H   0  0  0  0  0  0  0  0  0  0  0  0
   48.9040   30.2910   49.6870 H   0  0  0  0  0  0  0  0  0  0  0  0
  1  2  1  0  0  0  0
  1  7  1  0  0  0  0
  2 33  1  0  0  0  0
  3  2  2  0  0  0  0
  4  3  1  0  0  0  0
  5  4  2  0  0  0  0
  5  6  1  0  0  0  0
  6  1  2  0  0  0  0
  8  9  1  0  0  0  0
  8  5  1  0  0  0  0
 10 18  1  0  0  0  0
 10  9  2  0  0  0  0
 11 10  1  0  0  0  0
 12 11  2  0  0  0  0
 12 17  1  0  0  0  0
 13 12  1  0  0  0  0
 14 13  2  0  0  0  0
 14 15  1  0  0  0  0
 15 16  2  0  0  0  0
 16 17  1  0  0  0  0
 16 22  1  0  0  0  0
 17  8  2  0  0  0  0
 19 13  1  0  0  0  0
 20 14  1  0  0  0  0
 21 15  1  0  0  0  0
 23 24  1  0  0  0  0
 24  3  1  0  0  0  0
 24 25  2  0  0  0  0
 25 26  1  0  0  0  0
 27 25  1  0  0  0  0
 27 28  1  0  0  0  0
 29 27  2  0  0  0  0
 30 23  2  0  0  0  0
 30 29  1  0  0  0  0
 31 32  3  0  0  0  0
 32 23  1  0  0  0  0
 33 35  1  0  0  0  0
 33 34  1  0  0  0  0
M  END
>  <minimizedAffinity>
-6.16104555

>  <minimizedRMSD>
1.24969792

$$$$
