
 OpenBabel03252507193D

 45 48  0  0  1  0  0  0  0  0999 V2000
   46.8620   32.7440   43.7400 C   0  0  0  0  0  0  0  0  0  0  0  0
   48.0730   32.7250   44.0840 O   0  0  0  0  0  0  0  0  0  0  0  0
   46.2790   31.8140   42.8260 N   0  0  0  0  0  0  0  0  0  0  0  0
   45.0210   31.0780   42.8860 C   0  0  0  0  0  0  0  0  0  0  0  0
   44.2390   31.3080   41.5740 C   0  0  0  0  0  0  0  0  0  0  0  0
   45.0160   30.7020   40.4290 C   0  0  0  0  0  0  0  0  0  0  0  0
   46.4190   30.3910   40.8710 C   0  0  0  0  0  0  0  0  0  0  0  0
   47.0290   31.5370   41.6310 C   0  0  2  0  0  0  0  0  0  0  0  0
   44.3600   31.5740   43.6530 H   0  0  0  0  0  0  0  0  0  0  0  0
   45.1400   30.0090   43.0480 H   0  0  0  0  0  0  0  0  0  0  0  0
   43.2220   30.9380   41.6790 H   0  0  0  0  0  0  0  0  0  0  0  0
   44.3070   32.4170   41.4290 H   0  0  0  0  0  0  0  0  0  0  0  0
   44.9910   31.3160   39.5080 H   0  0  0  0  0  0  0  0  0  0  0  0
   44.5350   29.7280   40.1740 H   0  0  0  0  0  0  0  0  0  0  0  0
   47.0540   30.1480   39.9990 H   0  0  0  0  0  0  0  0  0  0  0  0
   46.4170   29.4640   41.4970 H   0  0  0  0  0  0  0  0  0  0  0  0
   46.8400   32.4390   40.9740 H   0  0  0  0  0  0  0  0  0  0  0  0
   45.5890   34.8120   43.4530 C   0  0  0  0  0  0  0  0  0  0  0  0
   46.0180   33.7700   44.3060 C   0  0  0  0  0  0  0  0  0  0  0  0
   45.6230   33.7620   45.6260 C   0  0  0  0  0  0  0  0  0  0  0  0
   44.8300   34.7640   46.0650 N   0  0  0  0  0  0  0  0  0  0  0  0
   44.4100   35.7700   45.2580 C   0  0  0  0  0  0  0  0  0  0  0  0
   44.7980   35.7740   43.9680 N   0  0  0  0  0  0  0  0  0  0  0  0
   45.8930   34.8260   42.4140 H   0  0  0  0  0  0  0  0  0  0  0  0
   43.7790   36.5150   45.7170 H   0  0  0  0  0  0  0  0  0  0  0  0
   46.0820   32.6870   46.4830 C   0  0  0  0  0  0  0  0  0  0  0  0
   45.4320   31.4890   46.4830 C   0  0  0  0  0  0  0  0  0  0  0  0
   45.8770   30.4770   47.3020 C   0  0  0  0  0  0  0  0  0  0  0  0
   46.9760   30.6190   48.1450 C   0  0  0  0  0  0  0  0  0  0  0  0
   47.5910   31.8540   48.1010 C   0  0  0  0  0  0  0  0  0  0  0  0
   47.1290   32.8190   47.2890 N   0  0  0  0  0  0  0  0  0  0  0  0
   44.5690   31.2220   45.8960 H   0  0  0  0  0  0  0  0  0  0  0  0
   45.3960   29.4960   47.3440 H   0  0  0  0  0  0  0  0  0  0  0  0
   47.3510   29.8450   48.8000 H   0  0  0  0  0  0  0  0  0  0  0  0
   48.4550   32.1080   48.7010 H   0  0  0  0  0  0  0  0  0  0  0  0
   49.3450   32.4180   41.3020 C   0  0  0  0  0  0  0  0  0  0  0  0
   48.4730   31.4260   41.7720 C   0  0  0  0  0  0  0  0  0  0  0  0
   49.1710   30.3610   42.3510 C   0  0  0  0  0  0  0  0  0  0  0  0
   48.5690   29.5480   42.7410 H   0  0  0  0  0  0  0  0  0  0  0  0
   50.5430   30.2810   42.4530 C   0  0  0  0  0  0  0  0  0  0  0  0
   51.0080   29.4210   42.9160 H   0  0  0  0  0  0  0  0  0  0  0  0
   51.3040   31.3170   41.9540 C   0  0  0  0  0  3  0  0  0  0  0  0
   50.7220   32.4180   41.3630 C   0  0  0  0  0  3  0  0  0  0  0  0
   48.1780   34.4860   40.2040 N   0  0  0  0  0  0  0  0  0  0  0  0
   48.6930   33.5600   40.6860 C   0  0  0  0  0  0  0  0  0  0  0  0
  1  2  2  0  0  0  0
  1 19  1  0  0  0  0
  3  4  1  0  0  0  0
  3  1  1  0  0  0  0
  4 10  1  0  0  0  0
  4  9  1  0  0  0  0
  5 11  1  0  0  0  0
  5  4  1  0  0  0  0
  6  7  1  0  0  0  0
  6  5  1  0  0  0  0
  7 16  1  0  0  0  0
  7  8  1  0  0  0  0
  8 17  1  6  0  0  0
  8 37  1  0  0  0  0
  8  3  1  0  0  0  0
 12  5  1  0  0  0  0
 13  6  1  0  0  0  0
 14  6  1  0  0  0  0
 15  7  1  0  0  0  0
 18 23  2  0  0  0  0
 18 19  1  0  0  0  0
 19 20  2  0  0  0  0
 20 21  1  0  0  0  0
 20 26  1  0  0  0  0
 22 25  1  0  0  0  0
 22 21  2  0  0  0  0
 23 22  1  0  0  0  0
 24 18  1  0  0  0  0
 26 31  1  0  0  0  0
 27 26  2  0  0  0  0
 27 28  1  0  0  0  0
 28 33  1  0  0  0  0
 28 29  2  0  0  0  0
 29 34  1  0  0  0  0
 30 29  1  0  0  0  0
 30 35  1  0  0  0  0
 31 30  2  0  0  0  0
 32 27  1  0  0  0  0
 36 43  2  0  0  0  0
 36 37  1  0  0  0  0
 37 38  2  0  0  0  0
 38 40  1  0  0  0  0
 38 39  1  0  0  0  0
 40 41  1  0  0  0  0
 42 40  2  0  0  0  0
 43 42  1  0  0  0  0
 44 45  3  0  0  0  0
 45 36  1  0  0  0  0
M  END
>  <minimizedAffinity>
-5.10936928

>  <minimizedRMSD>
2.07687712

$$$$
