
 OpenBabel03252505043D

 35 37  0  0  1  0  0  0  0  0999 V2000
   45.1010   35.0640   44.2240 C   0  0  0  0  0  0  0  0  0  0  0  0
   45.7640   34.6120   43.0550 C   0  0  0  0  0  0  0  0  0  0  0  0
   46.6690   33.5280   43.1890 C   0  0  0  0  0  0  0  0  0  0  0  0
   46.8580   32.9800   44.4150 N   0  0  0  0  0  0  0  0  0  0  0  0
   46.1990   33.4490   45.5010 C   0  0  0  0  0  0  0  0  0  0  0  0
   45.3240   34.4840   45.4160 N   0  0  0  0  0  0  0  0  0  0  0  0
   44.3930   35.8810   44.2290 H   0  0  0  0  0  0  0  0  0  0  0  0
   45.4780   35.1740   42.2090 H   0  0  0  0  0  0  0  0  0  0  0  0
   46.4680   32.7890   46.8080 C   0  0  2  0  0  0  0  0  0  0  0  0
   47.1060   31.4750   46.5110 C   0  0  0  0  0  0  0  0  0  0  0  0
   46.2520   30.2810   46.6650 C   0  0  0  0  0  0  0  0  0  0  0  0
   45.7040   30.3360   48.0780 C   0  0  0  0  0  0  0  0  0  0  0  0
   44.8160   31.4860   48.3030 C   0  0  0  0  0  0  0  0  0  0  0  0
   45.2580   32.7490   47.6160 C   0  0  0  0  0  0  0  0  0  0  0  0
   47.2050   33.4510   47.3120 H   0  0  0  0  0  0  0  0  0  0  0  0
   47.9870   31.3540   47.1740 H   0  0  0  0  0  0  0  0  0  0  0  0
   47.5320   31.4850   45.4620 H   0  0  0  0  0  0  0  0  0  0  0  0
   46.8950   29.3780   46.6340 H   0  0  0  0  0  0  0  0  0  0  0  0
   45.4550   30.1470   45.9330 H   0  0  0  0  0  0  0  0  0  0  0  0
   46.4820   30.1760   48.8210 H   0  0  0  0  0  0  0  0  0  0  0  0
   45.0100   29.4500   48.1310 H   0  0  0  0  0  0  0  0  0  0  0  0
   43.9200   31.6120   48.8520 H   0  0  0  0  0  0  0  0  0  0  0  0
   44.4780   33.9320   47.7550 N   0  0  0  0  0  0  0  0  0  0  0  0
   43.5860   33.7820   47.2590 H   0  0  0  0  0  0  0  0  0  0  0  0
   44.7940   34.7940   48.2830 H   0  0  0  0  0  0  0  0  0  0  0  0
   46.7810   32.3110   41.0230 C   0  0  0  0  0  0  0  0  0  0  0  0
   47.3320   33.1350   41.9800 C   0  0  0  0  0  0  0  0  0  0  0  0
   48.6110   33.5310   41.6590 C   0  0  0  0  0  0  0  0  0  0  0  0
   49.1900   34.1720   42.2810 H   0  0  0  0  0  0  0  0  0  0  0  0
   49.2730   33.1530   40.5120 C   0  0  0  0  0  0  0  0  0  0  0  0
   50.2840   33.4840   40.2860 H   0  0  0  0  0  0  0  0  0  0  0  0
   48.6800   32.3340   39.5940 C   0  0  0  0  0  3  0  0  0  0  0  0
   47.4170   31.9080   39.8550 C   0  0  0  0  0  3  0  0  0  0  0  0
   44.4150   31.3400   41.3610 N   0  0  0  0  0  0  0  0  0  0  0  0
   45.4630   31.7820   41.2090 C   0  0  0  0  0  0  0  0  0  0  0  0
  1  7  1  0  0  0  0
  1  6  1  0  0  0  0
  2  3  1  0  0  0  0
  2  1  2  0  0  0  0
  3  4  2  0  0  0  0
  4  5  1  0  0  0  0
  5  9  1  0  0  0  0
  6  5  2  0  0  0  0
  8  2  1  0  0  0  0
  9 15  1  1  0  0  0
  9 14  1  0  0  0  0
 10 11  1  0  0  0  0
 10  9  1  0  0  0  0
 10 16  1  0  0  0  0
 11 12  1  0  0  0  0
 12 21  1  0  0  0  0
 12 13  1  0  0  0  0
 12 20  1  0  0  0  0
 13 22  1  0  0  0  0
 14 23  1  0  0  0  0
 14 13  2  0  0  0  0
 17 10  1  0  0  0  0
 18 11  1  0  0  0  0
 19 11  1  0  0  0  0
 23 25  1  0  0  0  0
 24 23  1  0  0  0  0
 26 35  1  0  0  0  0
 26 27  1  0  0  0  0
 27  3  1  0  0  0  0
 28 27  2  0  0  0  0
 28 29  1  0  0  0  0
 30 28  1  0  0  0  0
 31 30  1  0  0  0  0
 32 33  1  0  0  0  0
 32 30  2  0  0  0  0
 33 26  2  0  0  0  0
 35 34  3  0  0  0  0
M  END
>  <minimizedAffinity>
-5.29596758

>  <minimizedRMSD>
0.779551208

$$$$
