
 OpenBabel03252507393D

 39 43  0  0  0  0  0  0  0  0999 V2000
   36.9970   28.9360   42.0080 C   0  0  0  0  0  0  0  0  0  0  0  0
   36.7520   27.7700   41.2400 C   0  0  0  0  0  0  0  0  0  0  0  0
   37.4030   26.6170   41.6110 C   0  0  0  0  0  0  0  0  0  0  0  0
   38.2340   26.6500   42.6770 N   0  0  0  0  0  0  0  0  0  0  0  0
   38.4560   27.7730   43.4000 C   0  0  0  0  0  0  0  0  0  0  0  0
   37.8420   28.9000   43.0650 N   0  0  0  0  0  0  0  0  0  0  0  0
   36.0970   27.7410   40.3980 H   0  0  0  0  0  0  0  0  0  0  0  0
   39.1400   27.6860   44.2320 H   0  0  0  0  0  0  0  0  0  0  0  0
   36.4430   25.2780   39.8140 C   0  0  0  0  0  0  0  0  0  0  0  0
   37.2610   25.3340   40.9320 C   0  0  0  0  0  0  0  0  0  0  0  0
   37.8940   24.1860   41.3250 C   0  0  0  0  0  0  0  0  0  0  0  0
   37.7480   22.9890   40.6540 C   0  0  0  0  0  0  0  0  0  0  0  0
   38.2750   21.7530   40.8620 N   0  0  0  0  0  0  0  0  0  0  0  0
   37.7770   20.9420   39.8680 C   0  0  0  0  0  0  0  0  0  0  0  0
   36.9750   21.6730   39.0880 N   0  0  0  0  0  0  0  0  0  0  0  0
   36.9460   22.9270   39.5550 C   0  0  0  0  0  0  0  0  0  0  0  0
   36.2900   24.0720   39.1320 C   0  0  0  0  0  0  0  0  0  0  0  0
   35.9190   26.1500   39.4600 H   0  0  0  0  0  0  0  0  0  0  0  0
   38.5410   24.2310   42.2100 H   0  0  0  0  0  0  0  0  0  0  0  0
   38.9230   21.5220   41.6380 H   0  0  0  0  0  0  0  0  0  0  0  0
   38.0220   19.8810   39.7670 H   0  0  0  0  0  0  0  0  0  0  0  0
   35.6530   24.0100   38.2540 H   0  0  0  0  0  0  0  0  0  0  0  0
   36.3300   30.1050   41.6220 O   0  0  0  0  0  0  0  0  0  0  0  0
   36.9960   31.0410   40.8300 C   0  0  0  0  0  0  0  0  0  0  0  0
   36.4350   30.7640   39.6380 C   0  0  0  0  0  0  0  0  0  0  0  0
   37.3120   32.0320   38.5080 S   0  0  0  0  0  0  0  0  0  0  0  0
   38.2740   32.6590   39.9950 C   0  0  0  0  0  0  0  0  0  0  0  0
   37.8840   32.0150   40.7830 N   0  0  0  0  0  0  0  0  0  0  0  0
   35.7250   30.2400   38.7550 H   0  0  0  0  0  0  0  0  0  0  0  0
   40.5190   33.5870   39.4000 C   0  0  0  0  0  0  0  0  0  0  0  0
   39.2730   33.7740   39.8850 C   0  0  0  0  0  0  0  0  0  0  0  0
   38.7920   34.9830   40.3230 C   0  0  0  0  0  0  0  0  0  0  0  0
   37.7990   35.1060   40.7030 H   0  0  0  0  0  0  0  0  0  0  0  0
   39.6770   36.0360   40.2400 C   0  0  0  0  0  0  0  0  0  0  0  0
   39.3250   37.0080   40.5800 H   0  0  0  0  0  0  0  0  0  0  0  0
   40.9510   35.8730   39.7510 C   0  0  0  0  0  3  0  0  0  0  0  0
   41.4130   34.6480   39.3170 C   0  0  0  0  0  3  0  0  0  0  0  0
   41.3480   31.2910   38.5810 N   0  0  0  0  0  0  0  0  0  0  0  0
   40.9760   32.3170   38.9590 C   0  0  0  0  0  0  0  0  0  0  0  0
  1  6  1  0  0  0  0
  2  3  1  0  0  0  0
  2  1  2  0  0  0  0
  3  4  2  0  0  0  0
  4  5  1  0  0  0  0
  5  8  1  0  0  0  0
  6  5  2  0  0  0  0
  7  2  1  0  0  0  0
  9 10  1  0  0  0  0
 10 11  2  0  0  0  0
 10  3  1  0  0  0  0
 11 19  1  0  0  0  0
 12 13  1  0  0  0  0
 12 11  1  0  0  0  0
 13 20  1  0  0  0  0
 14 13  1  0  0  0  0
 15 16  1  0  0  0  0
 15 14  2  0  0  0  0
 16 12  2  0  0  0  0
 17 16  1  0  0  0  0
 17  9  2  0  0  0  0
 18  9  1  0  0  0  0
 21 14  1  0  0  0  0
 22 17  1  0  0  0  0
 23  1  1  0  0  0  0
 24 23  1  0  0  0  0
 25 24  2  0  0  0  0
 26 25  1  0  0  0  0
 26 27  1  0  0  0  0
 27 28  2  0  0  0  0
 28 24  1  0  0  0  0
 29 25  1  0  0  0  0
 30 31  1  0  0  0  0
 31 27  1  0  0  0  0
 31 32  2  0  0  0  0
 32 33  1  0  0  0  0
 34 32  1  0  0  0  0
 34 35  1  0  0  0  0
 36 34  2  0  0  0  0
 37 30  2  0  0  0  0
 37 36  1  0  0  0  0
 38 39  3  0  0  0  0
 39 30  1  0  0  0  0
M  END
>  <minimizedAffinity>
-7.05814075

$$$$

 OpenBabel03252507393D

 39 43  0  0  0  0  0  0  0  0999 V2000
   38.3980   33.2060   40.1860 C   0  0  0  0  0  0  0  0  0  0  0  0
   39.3750   32.5230   39.4180 C   0  0  0  0  0  0  0  0  0  0  0  0
   40.4970   33.2270   39.0480 C   0  0  0  0  0  0  0  0  0  0  0  0
   40.6140   34.5180   39.4300 N   0  0  0  0  0  0  0  0  0  0  0  0
   39.6710   35.1540   40.1650 C   0  0  0  0  0  0  0  0  0  0  0  0
   38.5790   34.5010   40.5360 N   0  0  0  0  0  0  0  0  0  0  0  0
   39.2840   31.5040   39.1140 H   0  0  0  0  0  0  0  0  0  0  0  0
   39.8670   36.1880   40.4150 H   0  0  0  0  0  0  0  0  0  0  0  0
   42.8460   33.2550   38.3990 C   0  0  0  0  0  0  0  0  0  0  0  0
   41.5950   32.6750   38.2620 C   0  0  0  0  0  0  0  0  0  0  0  0
   41.4660   31.6150   37.4070 C   0  0  0  0  0  0  0  0  0  0  0  0
   42.5280   31.1070   36.6850 C   0  0  0  0  0  0  0  0  0  0  0  0
   42.6260   30.0790   35.8010 N   0  0  0  0  0  0  0  0  0  0  0  0
   43.9400   30.0320   35.3980 C   0  0  0  0  0  0  0  0  0  0  0  0
   44.6090   31.0050   36.0240 N   0  0  0  0  0  0  0  0  0  0  0  0
   43.7600   31.6730   36.8150 C   0  0  0  0  0  0  0  0  0  0  0  0
   43.9230   32.7490   37.6720 C   0  0  0  0  0  0  0  0  0  0  0  0
   43.0070   34.0930   39.0560 H   0  0  0  0  0  0  0  0  0  0  0  0
   40.4750   31.1550   37.2990 H   0  0  0  0  0  0  0  0  0  0  0  0
   41.8290   29.4780   35.5200 H   0  0  0  0  0  0  0  0  0  0  0  0
   44.3330   29.3030   34.6830 H   0  0  0  0  0  0  0  0  0  0  0  0
   44.9120   33.1900   37.7670 H   0  0  0  0  0  0  0  0  0  0  0  0
   37.2590   32.4810   40.5580 O   0  0  0  0  0  0  0  0  0  0  0  0
   37.3950   31.1440   40.9370 C   0  0  0  0  0  0  0  0  0  0  0  0
   36.1780   30.6890   40.5850 C   0  0  0  0  0  0  0  0  0  0  0  0
   36.3110   28.8470   41.0790 S   0  0  0  0  0  0  0  0  0  0  0  0
   38.0670   29.1550   41.6720 C   0  0  0  0  0  0  0  0  0  0  0  0
   38.1750   30.2190   41.4580 N   0  0  0  0  0  0  0  0  0  0  0  0
   35.0070   30.6450   40.1530 H   0  0  0  0  0  0  0  0  0  0  0  0
   38.6410   27.4910   43.4480 C   0  0  0  0  0  0  0  0  0  0  0  0
   38.9140   28.0630   42.2560 C   0  0  0  0  0  0  0  0  0  0  0  0
   39.9780   27.7130   41.4630 C   0  0  0  0  0  0  0  0  0  0  0  0
   40.1740   28.1820   40.5200 H   0  0  0  0  0  0  0  0  0  0  0  0
   40.7830   26.7120   41.9610 C   0  0  0  0  0  0  0  0  0  0  0  0
   41.6360   26.4130   41.3530 H   0  0  0  0  0  0  0  0  0  0  0  0
   40.5280   26.1140   43.1710 C   0  0  0  0  0  3  0  0  0  0  0  0
   39.4520   26.4820   43.9530 C   0  0  0  0  0  3  0  0  0  0  0  0
   36.6140   28.1870   44.8770 N   0  0  0  0  0  0  0  0  0  0  0  0
   37.5280   27.8840   44.2380 C   0  0  0  0  0  0  0  0  0  0  0  0
  1  6  1  0  0  0  0
  1 23  1  0  0  0  0
  2  1  2  0  0  0  0
  3  2  1  0  0  0  0
  3  4  2  0  0  0  0
  4  5  1  0  0  0  0
  5  8  1  0  0  0  0
  5  6  2  0  0  0  0
  7  2  1  0  0  0  0
  9 18  1  0  0  0  0
 10  9  1  0  0  0  0
 10  3  1  0  0  0  0
 11 10  2  0  0  0  0
 12 16  2  0  0  0  0
 12 11  1  0  0  0  0
 13 12  1  0  0  0  0
 14 13  1  0  0  0  0
 14 15  2  0  0  0  0
 15 16  1  0  0  0  0
 16 17  1  0  0  0  0
 17 22  1  0  0  0  0
 17  9  2  0  0  0  0
 19 11  1  0  0  0  0
 20 13  1  0  0  0  0
 21 14  1  0  0  0  0
 23 24  1  0  0  0  0
 24 28  1  0  0  0  0
 25 24  2  0  0  0  0
 25 26  1  0  0  0  0
 26 27  1  0  0  0  0
 27 31  1  0  0  0  0
 28 27  2  0  0  0  0
 29 25  1  0  0  0  0
 30 37  1  0  0  0  0
 30 39  1  0  0  0  0
 31 30  2  0  0  0  0
 32 34  2  0  0  0  0
 32 31  1  0  0  0  0
 33 32  1  0  0  0  0
 34 36  1  0  0  0  0
 35 34  1  0  0  0  0
 36 37  2  0  0  0  0
 39 38  3  0  0  0  0
M  END
>  <minimizedAffinity>
-6.77509642

$$$$

 OpenBabel03252507393D

 39 43  0  0  0  0  0  0  0  0999 V2000
   37.4410   28.6700   42.1330 C   0  0  0  0  0  0  0  0  0  0  0  0
   38.8170   28.6610   42.4750 C   0  0  0  0  0  0  0  0  0  0  0  0
   39.4420   27.4390   42.5570 C   0  0  0  0  0  0  0  0  0  0  0  0
   38.7240   26.3200   42.3110 N   0  0  0  0  0  0  0  0  0  0  0  0
   37.4110   26.3480   41.9840 C   0  0  0  0  0  0  0  0  0  0  0  0
   36.7820   27.5120   41.8980 N   0  0  0  0  0  0  0  0  0  0  0  0
   39.3850   29.5420   42.6710 H   0  0  0  0  0  0  0  0  0  0  0  0
   36.9350   25.3930   41.8080 H   0  0  0  0  0  0  0  0  0  0  0  0
   41.6210   28.3850   43.1020 C   0  0  0  0  0  0  0  0  0  0  0  0
   40.8490   27.2530   42.8940 C   0  0  0  0  0  0  0  0  0  0  0  0
   41.4480   26.0300   43.0260 C   0  0  0  0  0  0  0  0  0  0  0  0
   42.7800   25.8860   43.3570 C   0  0  0  0  0  0  0  0  0  0  0  0
   43.5650   24.7910   43.5430 N   0  0  0  0  0  0  0  0  0  0  0  0
   44.8190   25.2560   43.8650 C   0  0  0  0  0  0  0  0  0  0  0  0
   44.7850   26.5930   43.8720 N   0  0  0  0  0  0  0  0  0  0  0  0
   43.5460   26.9940   43.5630 C   0  0  0  0  0  0  0  0  0  0  0  0
   42.9680   28.2470   43.4350 C   0  0  0  0  0  0  0  0  0  0  0  0
   41.2040   29.3730   43.0100 H   0  0  0  0  0  0  0  0  0  0  0  0
   40.8360   25.1340   42.8620 H   0  0  0  0  0  0  0  0  0  0  0  0
   43.2300   23.8150   43.4470 H   0  0  0  0  0  0  0  0  0  0  0  0
   45.6740   24.6080   44.0750 H   0  0  0  0  0  0  0  0  0  0  0  0
   43.5900   29.1230   43.6020 H   0  0  0  0  0  0  0  0  0  0  0  0
   36.8130   29.9200   42.0520 O   0  0  0  0  0  0  0  0  0  0  0  0
   37.3230   30.8840   41.1800 C   0  0  0  0  0  0  0  0  0  0  0  0
   36.6370   30.5610   40.0670 C   0  0  0  0  0  0  0  0  0  0  0  0
   37.2950   31.8630   38.8330 S   0  0  0  0  0  0  0  0  0  0  0  0
   38.3920   32.5630   40.1880 C   0  0  0  0  0  0  0  0  0  0  0  0
   38.1390   31.9060   41.0200 N   0  0  0  0  0  0  0  0  0  0  0  0
   35.8570   29.9860   39.2800 H   0  0  0  0  0  0  0  0  0  0  0  0
   40.5320   33.5960   39.4090 C   0  0  0  0  0  0  0  0  0  0  0  0
   39.3030   33.7320   39.9520 C   0  0  0  0  0  0  0  0  0  0  0  0
   38.7630   34.9320   40.3390 C   0  0  0  0  0  0  0  0  0  0  0  0
   37.7850   35.0140   40.7660 H   0  0  0  0  0  0  0  0  0  0  0  0
   39.5660   36.0340   40.1390 C   0  0  0  0  0  0  0  0  0  0  0  0
   39.1640   37.0010   40.4370 H   0  0  0  0  0  0  0  0  0  0  0  0
   40.8200   35.9240   39.5900 C   0  0  0  0  0  3  0  0  0  0  0  0
   41.3440   34.7060   39.2090 C   0  0  0  0  0  3  0  0  0  0  0  0
   41.4950   31.3130   38.7070 N   0  0  0  0  0  0  0  0  0  0  0  0
   41.0530   32.3330   39.0230 C   0  0  0  0  0  0  0  0  0  0  0  0
  1  2  1  0  0  0  0
  2  3  2  0  0  0  0
  2  7  1  0  0  0  0
  3 10  1  0  0  0  0
  4  3  1  0  0  0  0
  5  4  2  0  0  0  0
  6  5  1  0  0  0  0
  6  1  2  0  0  0  0
  8  5  1  0  0  0  0
  9 17  1  0  0  0  0
 10 11  1  0  0  0  0
 10  9  2  0  0  0  0
 11 12  2  0  0  0  0
 12 13  1  0  0  0  0
 12 16  1  0  0  0  0
 13 14  1  0  0  0  0
 14 15  2  0  0  0  0
 14 21  1  0  0  0  0
 16 15  1  0  0  0  0
 17 16  2  0  0  0  0
 17 22  1  0  0  0  0
 18  9  1  0  0  0  0
 19 11  1  0  0  0  0
 20 13  1  0  0  0  0
 23  1  1  0  0  0  0
 24 23  1  0  0  0  0
 25 24  2  0  0  0  0
 26 25  1  0  0  0  0
 26 27  1  0  0  0  0
 27 28  2  0  0  0  0
 28 24  1  0  0  0  0
 29 25  1  0  0  0  0
 30 31  1  0  0  0  0
 31 27  1  0  0  0  0
 31 32  2  0  0  0  0
 32 33  1  0  0  0  0
 34 32  1  0  0  0  0
 34 35  1  0  0  0  0
 36 34  2  0  0  0  0
 37 30  2  0  0  0  0
 37 36  1  0  0  0  0
 38 39  3  0  0  0  0
 39 30  1  0  0  0  0
M  END
>  <minimizedAffinity>
-6.73349476

$$$$

 OpenBabel03252507393D

 39 43  0  0  0  0  0  0  0  0999 V2000
   38.9580   34.2060   40.0440 C   0  0  0  0  0  0  0  0  0  0  0  0
   40.0060   33.5230   39.3760 C   0  0  0  0  0  0  0  0  0  0  0  0
   41.2180   34.1640   39.2760 C   0  0  0  0  0  0  0  0  0  0  0  0
   41.3500   35.3990   39.8120 N   0  0  0  0  0  0  0  0  0  0  0  0
   40.3380   36.0360   40.4460 C   0  0  0  0  0  0  0  0  0  0  0  0
   39.1580   35.4420   40.5580 N   0  0  0  0  0  0  0  0  0  0  0  0
   39.9040   32.5490   38.9530 H   0  0  0  0  0  0  0  0  0  0  0  0
   40.5540   37.0200   40.8360 H   0  0  0  0  0  0  0  0  0  0  0  0
   43.6390   34.0930   39.0010 C   0  0  0  0  0  0  0  0  0  0  0  0
   42.3970   33.6030   38.6260 C   0  0  0  0  0  0  0  0  0  0  0  0
   42.3520   32.6180   37.6780 C   0  0  0  0  0  0  0  0  0  0  0  0
   43.4870   32.0990   37.0900 C   0  0  0  0  0  0  0  0  0  0  0  0
   43.6720   31.1330   36.1510 N   0  0  0  0  0  0  0  0  0  0  0  0
   45.0290   31.0330   35.9520 C   0  0  0  0  0  0  0  0  0  0  0  0
   45.6390   31.9140   36.7500 N   0  0  0  0  0  0  0  0  0  0  0  0
   44.7100   32.5740   37.4530 C   0  0  0  0  0  0  0  0  0  0  0  0
   44.7900   33.5740   38.4100 C   0  0  0  0  0  0  0  0  0  0  0  0
   43.7360   34.8690   39.7410 H   0  0  0  0  0  0  0  0  0  0  0  0
   41.3680   32.2310   37.3820 H   0  0  0  0  0  0  0  0  0  0  0  0
   42.9000   30.6050   35.7020 H   0  0  0  0  0  0  0  0  0  0  0  0
   45.4930   30.3350   35.2490 H   0  0  0  0  0  0  0  0  0  0  0  0
   45.7720   33.9440   38.6910 H   0  0  0  0  0  0  0  0  0  0  0  0
   37.7270   33.5440   40.1410 O   0  0  0  0  0  0  0  0  0  0  0  0
   37.7070   32.1840   40.4560 C   0  0  0  0  0  0  0  0  0  0  0  0
   36.9050   31.7390   39.4710 C   0  0  0  0  0  0  0  0  0  0  0  0
   36.8470   29.8680   39.8520 S   0  0  0  0  0  0  0  0  0  0  0  0
   37.9770   30.1550   41.3260 C   0  0  0  0  0  0  0  0  0  0  0  0
   38.1260   31.2330   41.2670 N   0  0  0  0  0  0  0  0  0  0  0  0
   36.1640   31.7120   38.4660 H   0  0  0  0  0  0  0  0  0  0  0  0
   39.6830   28.5420   42.1850 C   0  0  0  0  0  0  0  0  0  0  0  0
   38.4260   29.0330   42.2160 C   0  0  0  0  0  0  0  0  0  0  0  0
   37.4400   28.5690   43.0510 C   0  0  0  0  0  0  0  0  0  0  0  0
   36.4500   28.9770   43.0570 H   0  0  0  0  0  0  0  0  0  0  0  0
   37.8100   27.5380   43.8870 C   0  0  0  0  0  0  0  0  0  0  0  0
   37.0480   27.1490   44.5600 H   0  0  0  0  0  0  0  0  0  0  0  0
   39.0820   27.0190   43.8750 C   0  0  0  0  0  3  0  0  0  0  0  0
   40.0570   27.5010   43.0270 C   0  0  0  0  0  3  0  0  0  0  0  0
   41.4720   29.4540   40.5730 N   0  0  0  0  0  0  0  0  0  0  0  0
   40.6730   29.0510   41.3040 C   0  0  0  0  0  0  0  0  0  0  0  0
  1 23  1  0  0  0  0
  1  6  1  0  0  0  0
  2  1  2  0  0  0  0
  3  2  1  0  0  0  0
  3  4  2  0  0  0  0
  4  5  1  0  0  0  0
  5  6  2  0  0  0  0
  5  8  1  0  0  0  0
  7  2  1  0  0  0  0
  9 18  1  0  0  0  0
 10  9  1  0  0  0  0
 10  3  1  0  0  0  0
 11 10  2  0  0  0  0
 12 16  2  0  0  0  0
 12 11  1  0  0  0  0
 13 12  1  0  0  0  0
 14 13  1  0  0  0  0
 14 15  2  0  0  0  0
 15 16  1  0  0  0  0
 16 17  1  0  0  0  0
 17 22  1  0  0  0  0
 17  9  2  0  0  0  0
 19 11  1  0  0  0  0
 20 13  1  0  0  0  0
 21 14  1  0  0  0  0
 23 24  1  0  0  0  0
 24 28  1  0  0  0  0
 25 26  1  0  0  0  0
 25 24  2  0  0  0  0
 26 27  1  0  0  0  0
 27 31  1  0  0  0  0
 28 27  2  0  0  0  0
 29 25  1  0  0  0  0
 30 31  2  0  0  0  0
 30 37  1  0  0  0  0
 31 32  1  0  0  0  0
 32 33  1  0  0  0  0
 32 34  2  0  0  0  0
 34 35  1  0  0  0  0
 36 34  1  0  0  0  0
 37 36  2  0  0  0  0
 38 39  3  0  0  0  0
 39 30  1  0  0  0  0
M  END
>  <minimizedAffinity>
-6.56211329

$$$$

 OpenBabel03252507393D

 39 43  0  0  0  0  0  0  0  0999 V2000
   35.1770   26.6420   37.6770 C   0  0  0  0  0  0  0  0  0  0  0  0
   36.1060   27.5960   38.1650 C   0  0  0  0  0  0  0  0  0  0  0  0
   35.9330   28.9050   37.7790 C   0  0  0  0  0  0  0  0  0  0  0  0
   34.9000   29.2150   36.9630 N   0  0  0  0  0  0  0  0  0  0  0  0
   34.0230   28.2900   36.5070 C   0  0  0  0  0  0  0  0  0  0  0  0
   34.1640   27.0210   36.8630 N   0  0  0  0  0  0  0  0  0  0  0  0
   36.9220   27.3540   38.8090 H   0  0  0  0  0  0  0  0  0  0  0  0
   33.2350   28.6490   35.8600 H   0  0  0  0  0  0  0  0  0  0  0  0
   38.0500   30.1020   37.6130 C   0  0  0  0  0  0  0  0  0  0  0  0
   36.7940   30.0070   38.1920 C   0  0  0  0  0  0  0  0  0  0  0  0
   36.4330   30.9580   39.1070 C   0  0  0  0  0  0  0  0  0  0  0  0
   37.2670   31.9970   39.4690 C   0  0  0  0  0  0  0  0  0  0  0  0
   37.1150   33.0340   40.3350 N   0  0  0  0  0  0  0  0  0  0  0  0
   38.2800   33.7630   40.2840 C   0  0  0  0  0  0  0  0  0  0  0  0
   39.1060   33.1770   39.4120 N   0  0  0  0  0  0  0  0  0  0  0  0
   38.5020   32.0960   38.9050 C   0  0  0  0  0  0  0  0  0  0  0  0
   38.8980   31.1480   37.9750 C   0  0  0  0  0  0  0  0  0  0  0  0
   38.3890   29.3810   36.8880 H   0  0  0  0  0  0  0  0  0  0  0  0
   35.4390   30.8830   39.5660 H   0  0  0  0  0  0  0  0  0  0  0  0
   36.2610   33.1960   40.9010 H   0  0  0  0  0  0  0  0  0  0  0  0
   38.4610   34.6660   40.8750 H   0  0  0  0  0  0  0  0  0  0  0  0
   39.8860   31.2390   37.5310 H   0  0  0  0  0  0  0  0  0  0  0  0
   35.3610   25.3130   38.0760 O   0  0  0  0  0  0  0  0  0  0  0  0
   36.2000   25.0340   39.1570 C   0  0  0  0  0  0  0  0  0  0  0  0
   36.1980   23.6890   39.0990 C   0  0  0  0  0  0  0  0  0  0  0  0
   37.3460   23.2510   40.5630 S   0  0  0  0  0  0  0  0  0  0  0  0
   37.5600   25.0840   40.9160 C   0  0  0  0  0  0  0  0  0  0  0  0
   36.9390   25.5200   40.1340 N   0  0  0  0  0  0  0  0  0  0  0  0
   35.9570   22.5180   38.7400 H   0  0  0  0  0  0  0  0  0  0  0  0
   38.2340   26.7940   42.6110 C   0  0  0  0  0  0  0  0  0  0  0  0
   38.4170   25.5840   42.0430 C   0  0  0  0  0  0  0  0  0  0  0  0
   39.3880   24.6930   42.4260 C   0  0  0  0  0  0  0  0  0  0  0  0
   39.5120   23.7380   41.9600 H   0  0  0  0  0  0  0  0  0  0  0  0
   40.1990   25.1120   43.4590 C   0  0  0  0  0  0  0  0  0  0  0  0
   40.9800   24.4270   43.7860 H   0  0  0  0  0  0  0  0  0  0  0  0
   40.0350   26.3390   44.0540 C   0  0  0  0  0  3  0  0  0  0  0  0
   39.0520   27.2190   43.6520 C   0  0  0  0  0  3  0  0  0  0  0  0
   36.3990   28.4270   41.8360 N   0  0  0  0  0  0  0  0  0  0  0  0
   37.2160   27.6860   42.1810 C   0  0  0  0  0  0  0  0  0  0  0  0
  1 23  1  0  0  0  0
  1  2  1  0  0  0  0
  2  7  1  0  0  0  0
  3  2  2  0  0  0  0
  3 10  1  0  0  0  0
  4  3  1  0  0  0  0
  5  6  1  0  0  0  0
  5  4  2  0  0  0  0
  6  1  2  0  0  0  0
  8  5  1  0  0  0  0
  9 17  2  0  0  0  0
  9 10  1  0  0  0  0
 10 11  2  0  0  0  0
 11 12  1  0  0  0  0
 11 19  1  0  0  0  0
 12 13  1  0  0  0  0
 13 20  1  0  0  0  0
 14 13  1  0  0  0  0
 14 21  1  0  0  0  0
 15 14  2  0  0  0  0
 16 15  1  0  0  0  0
 16 12  2  0  0  0  0
 17 16  1  0  0  0  0
 18  9  1  0  0  0  0
 22 17  1  0  0  0  0
 23 24  1  0  0  0  0
 24 28  1  0  0  0  0
 25 24  2  0  0  0  0
 25 26  1  0  0  0  0
 26 27  1  0  0  0  0
 27 31  1  0  0  0  0
 28 27  2  0  0  0  0
 29 25  1  0  0  0  0
 30 37  1  0  0  0  0
 31 32  1  0  0  0  0
 31 30  2  0  0  0  0
 32 34  2  0  0  0  0
 33 32  1  0  0  0  0
 34 35  1  0  0  0  0
 34 36  1  0  0  0  0
 37 36  2  0  0  0  0
 38 39  3  0  0  0  0
 39 30  1  0  0  0  0
M  END
>  <minimizedAffinity>
-6.48208904

$$$$

 OpenBabel03252507393D

 39 43  0  0  0  0  0  0  0  0999 V2000
   38.3220   31.8780   38.4960 C   0  0  0  0  0  0  0  0  0  0  0  0
   39.7220   32.0940   38.5630 C   0  0  0  0  0  0  0  0  0  0  0  0
   40.1710   33.0970   39.3900 C   0  0  0  0  0  0  0  0  0  0  0  0
   39.2680   33.8190   40.0900 N   0  0  0  0  0  0  0  0  0  0  0  0
   37.9350   33.5990   40.0150 C   0  0  0  0  0  0  0  0  0  0  0  0
   37.4730   32.6380   39.2260 N   0  0  0  0  0  0  0  0  0  0  0  0
   40.4360   31.5250   38.0100 H   0  0  0  0  0  0  0  0  0  0  0  0
   37.3030   34.2360   40.6180 H   0  0  0  0  0  0  0  0  0  0  0  0
   42.0470   33.5690   40.8730 C   0  0  0  0  0  0  0  0  0  0  0  0
   41.5750   33.4460   39.5760 C   0  0  0  0  0  0  0  0  0  0  0  0
   42.4550   33.6500   38.5480 C   0  0  0  0  0  0  0  0  0  0  0  0
   43.7820   33.9680   38.7570 C   0  0  0  0  0  0  0  0  0  0  0  0
   44.8120   34.2030   37.9020 N   0  0  0  0  0  0  0  0  0  0  0  0
   45.9150   34.4700   38.6790 C   0  0  0  0  0  0  0  0  0  0  0  0
   45.5530   34.3960   39.9640 N   0  0  0  0  0  0  0  0  0  0  0  0
   44.2520   34.0900   40.0290 C   0  0  0  0  0  0  0  0  0  0  0  0
   43.3850   33.8910   41.0920 C   0  0  0  0  0  0  0  0  0  0  0  0
   41.3990   33.4210   41.7210 H   0  0  0  0  0  0  0  0  0  0  0  0
   42.0810   33.5520   37.5210 H   0  0  0  0  0  0  0  0  0  0  0  0
   44.7260   34.1750   36.8690 H   0  0  0  0  0  0  0  0  0  0  0  0
   46.9050   34.6990   38.2750 H   0  0  0  0  0  0  0  0  0  0  0  0
   43.7730   33.9910   42.1020 H   0  0  0  0  0  0  0  0  0  0  0  0
   37.8750   30.8550   37.6520 O   0  0  0  0  0  0  0  0  0  0  0  0
   37.2820   29.7200   38.2090 C   0  0  0  0  0  0  0  0  0  0  0  0
   36.1350   29.7000   37.5040 C   0  0  0  0  0  0  0  0  0  0  0  0
   35.2810   28.1510   38.2270 S   0  0  0  0  0  0  0  0  0  0  0  0
   36.7540   27.8940   39.3640 C   0  0  0  0  0  0  0  0  0  0  0  0
   37.3860   28.7350   39.0780 N   0  0  0  0  0  0  0  0  0  0  0  0
   35.2370   30.0040   36.6920 H   0  0  0  0  0  0  0  0  0  0  0  0
   37.0330   26.9340   41.6560 C   0  0  0  0  0  0  0  0  0  0  0  0
   36.8220   26.7520   40.3350 C   0  0  0  0  0  0  0  0  0  0  0  0
   36.6490   25.5240   39.7470 C   0  0  0  0  0  0  0  0  0  0  0  0
   36.4820   25.4060   38.6960 H   0  0  0  0  0  0  0  0  0  0  0  0
   36.7030   24.4460   40.6030 C   0  0  0  0  0  0  0  0  0  0  0  0
   36.5700   23.4580   40.1650 H   0  0  0  0  0  0  0  0  0  0  0  0
   36.9170   24.6030   41.9510 C   0  0  0  0  0  3  0  0  0  0  0  0
   37.0890   25.8480   42.5210 C   0  0  0  0  0  3  0  0  0  0  0  0
   37.3680   29.2750   42.6760 N   0  0  0  0  0  0  0  0  0  0  0  0
   37.2080   28.2250   42.2230 C   0  0  0  0  0  0  0  0  0  0  0  0
  1  2  2  0  0  0  0
  1  6  1  0  0  0  0
  2  3  1  0  0  0  0
  3 10  1  0  0  0  0
  3  4  2  0  0  0  0
  5  4  1  0  0  0  0
  5  8  1  0  0  0  0
  6  5  2  0  0  0  0
  7  2  1  0  0  0  0
  9 17  1  0  0  0  0
  9 18  1  0  0  0  0
 10  9  2  0  0  0  0
 11 12  2  0  0  0  0
 11 10  1  0  0  0  0
 12 16  1  0  0  0  0
 13 14  1  0  0  0  0
 13 12  1  0  0  0  0
 14 15  2  0  0  0  0
 15 16  1  0  0  0  0
 16 17  2  0  0  0  0
 17 22  1  0  0  0  0
 19 11  1  0  0  0  0
 20 13  1  0  0  0  0
 21 14  1  0  0  0  0
 23 24  1  0  0  0  0
 23  1  1  0  0  0  0
 24 28  1  0  0  0  0
 25 24  2  0  0  0  0
 25 26  1  0  0  0  0
 26 27  1  0  0  0  0
 27 31  1  0  0  0  0
 28 27  2  0  0  0  0
 29 25  1  0  0  0  0
 30 39  1  0  0  0  0
 30 37  1  0  0  0  0
 31 30  2  0  0  0  0
 32 31  1  0  0  0  0
 32 34  2  0  0  0  0
 33 32  1  0  0  0  0
 34 36  1  0  0  0  0
 35 34  1  0  0  0  0
 36 37  2  0  0  0  0
 39 38  3  0  0  0  0
M  END
>  <minimizedAffinity>
-6.45670128

$$$$

 OpenBabel03252507393D

 39 43  0  0  0  0  0  0  0  0999 V2000
   37.5290   31.9750   39.8140 C   0  0  0  0  0  0  0  0  0  0  0  0
   37.4970   30.7980   40.6040 C   0  0  0  0  0  0  0  0  0  0  0  0
   37.3240   29.6000   39.9510 C   0  0  0  0  0  0  0  0  0  0  0  0
   37.1940   29.6020   38.6050 N   0  0  0  0  0  0  0  0  0  0  0  0
   37.2270   30.7370   37.8670 C   0  0  0  0  0  0  0  0  0  0  0  0
   37.3920   31.9060   38.4690 N   0  0  0  0  0  0  0  0  0  0  0  0
   37.6000   30.7940   41.6660 H   0  0  0  0  0  0  0  0  0  0  0  0
   37.1120   30.6220   36.7980 H   0  0  0  0  0  0  0  0  0  0  0  0
   37.0240   28.2750   41.9750 C   0  0  0  0  0  0  0  0  0  0  0  0
   37.2720   28.3010   40.6110 C   0  0  0  0  0  0  0  0  0  0  0  0
   37.4420   27.1070   39.9640 C   0  0  0  0  0  0  0  0  0  0  0  0
   37.3760   25.8920   40.6160 C   0  0  0  0  0  0  0  0  0  0  0  0
   37.5060   24.6110   40.1800 N   0  0  0  0  0  0  0  0  0  0  0  0
   37.3370   23.8020   41.2790 C   0  0  0  0  0  0  0  0  0  0  0  0
   37.1120   24.5790   42.3440 N   0  0  0  0  0  0  0  0  0  0  0  0
   37.1320   25.8590   41.9550 C   0  0  0  0  0  0  0  0  0  0  0  0
   36.9560   27.0520   42.6390 C   0  0  0  0  0  0  0  0  0  0  0  0
   36.8820   29.1840   42.5360 H   0  0  0  0  0  0  0  0  0  0  0  0
   37.6390   27.1280   38.8850 H   0  0  0  0  0  0  0  0  0  0  0  0
   37.6970   24.3510   39.1940 H   0  0  0  0  0  0  0  0  0  0  0  0
   37.3860   22.7100   41.2460 H   0  0  0  0  0  0  0  0  0  0  0  0
   36.7620   27.0120   43.7080 H   0  0  0  0  0  0  0  0  0  0  0  0
   37.7060   33.1900   40.4880 O   0  0  0  0  0  0  0  0  0  0  0  0
   38.9360   33.8450   40.4020 C   0  0  0  0  0  0  0  0  0  0  0  0
   38.5060   35.0880   40.1180 C   0  0  0  0  0  0  0  0  0  0  0  0
   40.1610   36.0360   39.9950 S   0  0  0  0  0  0  0  0  0  0  0  0
   41.0780   34.4410   40.3770 C   0  0  0  0  0  0  0  0  0  0  0  0
   40.2470   33.7440   40.4850 N   0  0  0  0  0  0  0  0  0  0  0  0
   37.7580   36.0580   39.8750 H   0  0  0  0  0  0  0  0  0  0  0  0
   43.3480   34.0350   39.4110 C   0  0  0  0  0  0  0  0  0  0  0  0
   42.5760   34.3840   40.4610 C   0  0  0  0  0  0  0  0  0  0  0  0
   43.0670   34.7190   41.6980 C   0  0  0  0  0  0  0  0  0  0  0  0
   42.4320   34.9930   42.5160 H   0  0  0  0  0  0  0  0  0  0  0  0
   44.4380   34.6800   41.8200 C   0  0  0  0  0  0  0  0  0  0  0  0
   44.8580   34.9400   42.7910 H   0  0  0  0  0  0  0  0  0  0  0  0
   45.2480   34.3270   40.7680 C   0  0  0  0  0  3  0  0  0  0  0  0
   44.7320   33.9940   39.5330 C   0  0  0  0  0  3  0  0  0  0  0  0
   42.3440   33.4000   37.1260 N   0  0  0  0  0  0  0  0  0  0  0  0
   42.7980   33.6940   38.1470 C   0  0  0  0  0  0  0  0  0  0  0  0
  1 23  1  0  0  0  0
  1  2  1  0  0  0  0
  2  7  1  0  0  0  0
  3  2  2  0  0  0  0
  3 10  1  0  0  0  0
  4  3  1  0  0  0  0
  5  6  1  0  0  0  0
  5  4  2  0  0  0  0
  6  1  2  0  0  0  0
  8  5  1  0  0  0  0
  9 18  1  0  0  0  0
  9 17  1  0  0  0  0
 10  9  2  0  0  0  0
 11 10  1  0  0  0  0
 11 12  2  0  0  0  0
 12 16  1  0  0  0  0
 13 12  1  0  0  0  0
 13 14  1  0  0  0  0
 14 15  2  0  0  0  0
 16 15  1  0  0  0  0
 16 17  2  0  0  0  0
 17 22  1  0  0  0  0
 19 11  1  0  0  0  0
 20 13  1  0  0  0  0
 21 14  1  0  0  0  0
 24 28  1  0  0  0  0
 24 23  1  0  0  0  0
 25 24  2  0  0  0  0
 26 25  1  0  0  0  0
 26 27  1  0  0  0  0
 27 31  1  0  0  0  0
 27 28  2  0  0  0  0
 29 25  1  0  0  0  0
 30 37  2  0  0  0  0
 30 31  1  0  0  0  0
 31 32  2  0  0  0  0
 32 34  1  0  0  0  0
 32 33  1  0  0  0  0
 34 35  1  0  0  0  0
 36 34  2  0  0  0  0
 37 36  1  0  0  0  0
 38 39  3  0  0  0  0
 39 30  1  0  0  0  0
M  END
>  <minimizedAffinity>
-6.44233179

$$$$

 OpenBabel03252507393D

 39 43  0  0  0  0  0  0  0  0999 V2000
   38.5090   32.9310   40.1270 C   0  0  0  0  0  0  0  0  0  0  0  0
   39.3900   32.1780   39.3100 C   0  0  0  0  0  0  0  0  0  0  0  0
   40.5620   32.7800   38.9170 C   0  0  0  0  0  0  0  0  0  0  0  0
   40.8150   34.0450   39.3230 N   0  0  0  0  0  0  0  0  0  0  0  0
   39.9630   34.7490   40.1040 C   0  0  0  0  0  0  0  0  0  0  0  0
   38.8250   34.1940   40.4980 N   0  0  0  0  0  0  0  0  0  0  0  0
   39.1920   31.1800   38.9870 H   0  0  0  0  0  0  0  0  0  0  0  0
   40.2650   35.7520   40.3690 H   0  0  0  0  0  0  0  0  0  0  0  0
   41.2590   30.9360   37.4830 C   0  0  0  0  0  0  0  0  0  0  0  0
   41.5760   32.1460   38.0810 C   0  0  0  0  0  0  0  0  0  0  0  0
   42.8130   32.6780   37.8440 C   0  0  0  0  0  0  0  0  0  0  0  0
   43.7470   32.0590   37.0380 C   0  0  0  0  0  0  0  0  0  0  0  0
   45.0090   32.4040   36.6670 N   0  0  0  0  0  0  0  0  0  0  0  0
   45.4640   31.4020   35.8420 C   0  0  0  0  0  0  0  0  0  0  0  0
   44.5000   30.4830   35.7220 N   0  0  0  0  0  0  0  0  0  0  0  0
   43.4430   30.8700   36.4470 C   0  0  0  0  0  0  0  0  0  0  0  0
   42.1980   30.3050   36.6690 C   0  0  0  0  0  0  0  0  0  0  0  0
   40.3010   30.4700   37.6350 H   0  0  0  0  0  0  0  0  0  0  0  0
   43.0630   33.6370   38.3170 H   0  0  0  0  0  0  0  0  0  0  0  0
   45.4890   33.2690   36.9790 H   0  0  0  0  0  0  0  0  0  0  0  0
   46.4550   31.3950   35.3800 H   0  0  0  0  0  0  0  0  0  0  0  0
   41.9680   29.3560   36.1910 H   0  0  0  0  0  0  0  0  0  0  0  0
   37.3180   32.3090   40.5210 O   0  0  0  0  0  0  0  0  0  0  0  0
   37.3390   30.9600   40.8800 C   0  0  0  0  0  0  0  0  0  0  0  0
   36.0690   30.6300   40.5790 C   0  0  0  0  0  0  0  0  0  0  0  0
   36.0440   28.7780   41.0470 S   0  0  0  0  0  0  0  0  0  0  0  0
   37.8460   28.9050   41.5630 C   0  0  0  0  0  0  0  0  0  0  0  0
   38.0480   29.9560   41.3550 N   0  0  0  0  0  0  0  0  0  0  0  0
   34.8820   30.7070   40.1990 H   0  0  0  0  0  0  0  0  0  0  0  0
   39.0850   26.7500   41.2970 C   0  0  0  0  0  0  0  0  0  0  0  0
   38.6070   27.7270   42.0960 C   0  0  0  0  0  0  0  0  0  0  0  0
   38.7620   27.7490   43.4600 C   0  0  0  0  0  0  0  0  0  0  0  0
   38.3730   28.5360   44.0720 H   0  0  0  0  0  0  0  0  0  0  0  0
   39.4560   26.6840   43.9930 C   0  0  0  0  0  0  0  0  0  0  0  0
   39.5950   26.6740   45.0730 H   0  0  0  0  0  0  0  0  0  0  0  0
   39.9530   25.6770   43.2030 C   0  0  0  0  0  3  0  0  0  0  0  0
   39.7850   25.6750   41.8330 C   0  0  0  0  0  3  0  0  0  0  0  0
   38.7710   26.7820   38.7410 N   0  0  0  0  0  0  0  0  0  0  0  0
   38.9010   26.7660   39.8890 C   0  0  0  0  0  0  0  0  0  0  0  0
  1  6  1  0  0  0  0
  1 23  1  0  0  0  0
  2  1  2  0  0  0  0
  3  2  1  0  0  0  0
  3  4  2  0  0  0  0
  4  5  1  0  0  0  0
  5  8  1  0  0  0  0
  5  6  2  0  0  0  0
  7  2  1  0  0  0  0
  9 18  1  0  0  0  0
  9 10  1  0  0  0  0
 10  3  1  0  0  0  0
 11 10  2  0  0  0  0
 11 19  1  0  0  0  0
 12 11  1  0  0  0  0
 13 20  1  0  0  0  0
 13 12  1  0  0  0  0
 14 13  1  0  0  0  0
 15 14  2  0  0  0  0
 15 16  1  0  0  0  0
 16 17  1  0  0  0  0
 16 12  2  0  0  0  0
 17  9  2  0  0  0  0
 21 14  1  0  0  0  0
 22 17  1  0  0  0  0
 23 24  1  0  0  0  0
 24 28  1  0  0  0  0
 25 24  2  0  0  0  0
 25 26  1  0  0  0  0
 26 27  1  0  0  0  0
 27 31  1  0  0  0  0
 28 27  2  0  0  0  0
 29 25  1  0  0  0  0
 30 37  2  0  0  0  0
 30 31  1  0  0  0  0
 31 32  2  0  0  0  0
 32 34  1  0  0  0  0
 32 33  1  0  0  0  0
 34 35  1  0  0  0  0
 36 34  2  0  0  0  0
 37 36  1  0  0  0  0
 38 39  3  0  0  0  0
 39 30  1  0  0  0  0
M  END
>  <minimizedAffinity>
-6.34180498

$$$$

 OpenBabel03252507393D

 39 43  0  0  0  0  0  0  0  0999 V2000
   38.2800   32.3400   39.2760 C   0  0  0  0  0  0  0  0  0  0  0  0
   39.6780   32.3220   39.0380 C   0  0  0  0  0  0  0  0  0  0  0  0
   40.3960   33.4410   39.3870 C   0  0  0  0  0  0  0  0  0  0  0  0
   39.7430   34.4920   39.9340 N   0  0  0  0  0  0  0  0  0  0  0  0
   38.4070   34.4910   40.1550 C   0  0  0  0  0  0  0  0  0  0  0  0
   37.6900   33.4250   39.8270 N   0  0  0  0  0  0  0  0  0  0  0  0
   40.1950   31.4940   38.6060 H   0  0  0  0  0  0  0  0  0  0  0  0
   37.9890   35.3840   40.5970 H   0  0  0  0  0  0  0  0  0  0  0  0
   42.6030   33.8450   40.3380 C   0  0  0  0  0  0  0  0  0  0  0  0
   41.8370   33.5860   39.2130 C   0  0  0  0  0  0  0  0  0  0  0  0
   42.4770   33.4700   38.0100 C   0  0  0  0  0  0  0  0  0  0  0  0
   43.8450   33.6000   37.8790 C   0  0  0  0  0  0  0  0  0  0  0  0
   44.6740   33.5190   36.8040 N   0  0  0  0  0  0  0  0  0  0  0  0
   45.9490   33.7300   37.2750 C   0  0  0  0  0  0  0  0  0  0  0  0
   45.8840   33.9310   38.5950 N   0  0  0  0  0  0  0  0  0  0  0  0
   44.6040   33.8550   38.9800 C   0  0  0  0  0  0  0  0  0  0  0  0
   43.9850   33.9790   40.2140 C   0  0  0  0  0  0  0  0  0  0  0  0
   42.1540   33.9470   41.3120 H   0  0  0  0  0  0  0  0  0  0  0  0
   41.8690   33.2640   37.1190 H   0  0  0  0  0  0  0  0  0  0  0  0
   44.3520   33.3330   35.8360 H   0  0  0  0  0  0  0  0  0  0  0  0
   46.8410   33.7250   36.6420 H   0  0  0  0  0  0  0  0  0  0  0  0
   44.6030   34.1820   41.0850 H   0  0  0  0  0  0  0  0  0  0  0  0
   37.5590   31.1940   38.9160 O   0  0  0  0  0  0  0  0  0  0  0  0
   37.4880   30.1240   39.8100 C   0  0  0  0  0  0  0  0  0  0  0  0
   36.1550   30.0750   39.9920 C   0  0  0  0  0  0  0  0  0  0  0  0
   35.9990   28.6110   41.2120 S   0  0  0  0  0  0  0  0  0  0  0  0
   37.8670   28.4120   41.1780 C   0  0  0  0  0  0  0  0  0  0  0  0
   38.1490   29.2110   40.4930 N   0  0  0  0  0  0  0  0  0  0  0  0
   34.9360   30.3340   39.9100 H   0  0  0  0  0  0  0  0  0  0  0  0
   38.6110   26.0600   41.5850 C   0  0  0  0  0  0  0  0  0  0  0  0
   38.5690   27.3520   41.9750 C   0  0  0  0  0  0  0  0  0  0  0  0
   39.1550   27.8280   43.1210 C   0  0  0  0  0  0  0  0  0  0  0  0
   39.1080   28.8580   43.4080 H   0  0  0  0  0  0  0  0  0  0  0  0
   39.8110   26.8870   43.8840 C   0  0  0  0  0  0  0  0  0  0  0  0
   40.2860   27.2350   44.8000 H   0  0  0  0  0  0  0  0  0  0  0  0
   39.8680   25.5660   43.5110 C   0  0  0  0  0  3  0  0  0  0  0  0
   39.2720   25.1090   42.3540 C   0  0  0  0  0  3  0  0  0  0  0  0
   37.4670   25.2510   39.4240 N   0  0  0  0  0  0  0  0  0  0  0  0
   37.9890   25.6100   40.3900 C   0  0  0  0  0  0  0  0  0  0  0  0
  1  6  1  0  0  0  0
  2  1  2  0  0  0  0
  2  3  1  0  0  0  0
  3  4  2  0  0  0  0
  4  5  1  0  0  0  0
  5  8  1  0  0  0  0
  6  5  2  0  0  0  0
  7  2  1  0  0  0  0
  9 18  1  0  0  0  0
 10  3  1  0  0  0  0
 10  9  2  0  0  0  0
 11 10  1  0  0  0  0
 12 11  2  0  0  0  0
 12 16  1  0  0  0  0
 13 14  1  0  0  0  0
 13 12  1  0  0  0  0
 14 15  2  0  0  0  0
 15 16  1  0  0  0  0
 16 17  2  0  0  0  0
 17  9  1  0  0  0  0
 17 22  1  0  0  0  0
 19 11  1  0  0  0  0
 20 13  1  0  0  0  0
 21 14  1  0  0  0  0
 23  1  1  0  0  0  0
 23 24  1  0  0  0  0
 24 25  2  0  0  0  0
 24 28  1  0  0  0  0
 25 26  1  0  0  0  0
 27 26  1  0  0  0  0
 27 31  1  0  0  0  0
 28 27  2  0  0  0  0
 29 25  1  0  0  0  0
 30 31  2  0  0  0  0
 30 37  1  0  0  0  0
 31 32  1  0  0  0  0
 32 33  1  0  0  0  0
 32 34  2  0  0  0  0
 34 35  1  0  0  0  0
 36 34  1  0  0  0  0
 37 36  2  0  0  0  0
 38 39  3  0  0  0  0
 39 30  1  0  0  0  0
M  END
>  <minimizedAffinity>
-6.33546877

$$$$
