
 OpenBabel03252500363D

 47 50  0  0  1  0  0  0  0  0999 V2000
   45.7540   34.9120   44.2810 C   0  0  1  0  0  0  0  0  0  0  0  0
   44.8020   34.7880   45.2960 C   0  0  0  0  0  0  0  0  0  0  0  0
   46.0240   33.9950   45.5100 C   0  0  1  0  0  0  0  0  0  0  0  0
   46.4220   35.8170   44.2210 H   0  0  0  0  0  0  0  0  0  0  0  0
   44.5860   35.6570   45.9690 H   0  0  0  0  0  0  0  0  0  0  0  0
   43.8590   34.1960   45.1190 H   0  0  0  0  0  0  0  0  0  0  0  0
   46.8930   34.3600   46.0790 H   0  0  0  0  0  0  0  0  0  0  0  0
   44.4550   33.8320   42.4400 C   0  0  0  0  0  0  0  0  0  0  0  0
   45.7310   34.2410   42.9450 C   0  0  0  0  0  0  0  0  0  0  0  0
   46.8560   34.0090   42.2180 C   0  0  0  0  0  0  0  0  0  0  0  0
   46.6880   33.3770   41.0050 N   0  0  0  0  0  0  0  0  0  0  0  0
   45.4790   32.9980   40.5410 C   0  0  0  0  0  0  0  0  0  0  0  0
   44.3190   33.2150   41.2470 N   0  0  0  0  0  0  0  0  0  0  0  0
   43.5750   34.0130   43.0110 H   0  0  0  0  0  0  0  0  0  0  0  0
   47.8150   34.3070   42.5810 H   0  0  0  0  0  0  0  0  0  0  0  0
   45.5070   30.9640   39.1490 C   0  0  0  0  0  0  0  0  0  0  0  0
   45.3980   32.3360   39.2440 C   0  0  0  0  0  0  0  0  0  0  0  0
   45.2110   33.1250   38.1290 C   0  0  0  0  0  0  0  0  0  0  0  0
   45.1180   34.1900   38.1300 H   0  0  0  0  0  0  0  0  0  0  0  0
   45.1310   32.5220   36.8830 C   0  0  0  0  0  0  0  0  0  0  0  0
   44.9830   33.0520   35.9360 H   0  0  0  0  0  0  0  0  0  0  0  0
   45.2340   31.1360   36.7310 C   0  0  0  0  0  3  0  0  0  0  0  0
   45.4230   30.3870   37.8800 C   0  0  0  0  0  3  0  0  0  0  0  0
   45.8750   29.5180   41.2640 N   0  0  0  0  0  0  0  0  0  0  0  0
   45.7010   30.1680   40.3220 C   0  0  0  0  0  0  0  0  0  0  0  0
   46.0070   32.5230   45.3300 C   0  0  0  0  0  0  0  0  0  0  0  0
   47.0020   32.2010   44.9900 H   0  0  0  0  0  0  0  0  0  0  0  0
   45.2670   32.2210   44.5610 H   0  0  0  0  0  0  0  0  0  0  0  0
   45.7390   31.9450   46.5970 N   0  0  0  0  0  0  0  0  0  0  0  0
   46.2210   32.5910   47.7400 C   0  0  0  0  0  0  0  0  0  0  0  0
   47.6260   32.0870   48.1260 C   0  0  0  0  0  0  0  0  0  0  0  0
   47.4590   30.6560   48.5660 C   0  0  0  0  0  0  0  0  0  0  0  0
   46.9070   29.9060   47.3870 C   0  0  0  0  0  0  0  0  0  0  0  0
   45.7200   30.5490   46.7250 C   0  0  2  0  0  0  0  0  0  0  0  0
   45.5910   32.1970   48.5960 H   0  0  0  0  0  0  0  0  0  0  0  0
   46.1110   33.6680   47.8400 H   0  0  0  0  0  0  0  0  0  0  0  0
   48.3010   32.1320   47.2650 H   0  0  0  0  0  0  0  0  0  0  0  0
   47.9530   32.7150   48.9710 H   0  0  0  0  0  0  0  0  0  0  0  0
   48.4820   30.2520   48.7510 H   0  0  0  0  0  0  0  0  0  0  0  0
   46.8520   30.5650   49.4740 H   0  0  0  0  0  0  0  0  0  0  0  0
   47.6790   29.7170   46.6450 H   0  0  0  0  0  0  0  0  0  0  0  0
   46.5770   28.8980   47.7630 H   0  0  0  0  0  0  0  0  0  0  0  0
   44.8210   30.2570   47.3350 H   0  0  0  0  0  0  0  0  0  0  0  0
   45.5350   29.8590   45.3810 C   0  0  0  0  0  0  0  0  0  0  0  0
   46.4490   29.9750   44.7510 H   0  0  0  0  0  0  0  0  0  0  0  0
   45.2960   28.7870   45.5570 H   0  0  0  0  0  0  0  0  0  0  0  0
   44.6310   30.2760   44.8850 H   0  0  0  0  0  0  0  0  0  0  0  0
  1  4  1  1  0  0  0
  1  2  1  0  0  0  0
  1  3  1  0  0  0  0
  2  3  1  0  0  0  0
  2  5  1  0  0  0  0
  3  7  1  1  0  0  0
  6  2  1  0  0  0  0
  8  9  1  0  0  0  0
  8 14  1  0  0  0  0
  9  1  1  0  0  0  0
 10 15  1  0  0  0  0
 10  9  2  0  0  0  0
 11 10  1  0  0  0  0
 12 11  2  0  0  0  0
 12 13  1  0  0  0  0
 13  8  2  0  0  0  0
 16 17  1  0  0  0  0
 16 25  1  0  0  0  0
 17 12  1  0  0  0  0
 18 19  1  0  0  0  0
 18 17  2  0  0  0  0
 20 18  1  0  0  0  0
 21 20  1  0  0  0  0
 22 20  2  0  0  0  0
 22 23  1  0  0  0  0
 23 16  2  0  0  0  0
 25 24  3  0  0  0  0
 26  3  1  0  0  0  0
 26 29  1  0  0  0  0
 27 26  1  0  0  0  0
 28 26  1  0  0  0  0
 29 34  1  0  0  0  0
 29 30  1  0  0  0  0
 30 36  1  0  0  0  0
 30 31  1  0  0  0  0
 30 35  1  0  0  0  0
 31 32  1  0  0  0  0
 31 38  1  0  0  0  0
 32 39  1  0  0  0  0
 32 40  1  0  0  0  0
 33 42  1  0  0  0  0
 33 32  1  0  0  0  0
 34 43  1  1  0  0  0
 34 33  1  0  0  0  0
 37 31  1  0  0  0  0
 41 33  1  0  0  0  0
 44 46  1  0  0  0  0
 44 34  1  0  0  0  0
 45 44  1  0  0  0  0
 47 44  1  0  0  0  0
M  END
>  <minimizedAffinity>
-3.92158961

>  <minimizedRMSD>
1.34116006

$$$$
