
 OpenBabel03252502083D

 49 53  0  0  0  0  0  0  0  0999 V2000
   45.6840   33.7500   45.2760 C   0  0  0  0  0  0  0  0  0  0  0  0
   44.9000   34.7590   45.6720 N   0  0  0  0  0  0  0  0  0  0  0  0
   44.5840   35.8210   44.9330 C   0  0  0  0  0  0  0  0  0  0  0  0
   45.0690   35.9370   43.6730 N   0  0  0  0  0  0  0  0  0  0  0  0
   45.8660   34.9930   43.1580 C   0  0  0  0  0  0  0  0  0  0  0  0
   46.3650   35.1020   41.8800 C   0  0  0  0  0  0  0  0  0  0  0  0
   47.1790   34.1500   41.3430 C   0  0  0  0  0  0  0  0  0  0  0  0
   47.4870   33.0620   42.1370 C   0  0  0  0  0  0  0  0  0  0  0  0
   46.9610   32.9940   43.4180 C   0  0  0  0  0  0  0  0  0  0  0  0
   46.1540   33.9170   43.9800 C   0  0  0  0  0  0  0  0  0  0  0  0
   43.9360   36.5750   45.3670 H   0  0  0  0  0  0  0  0  0  0  0  0
   46.1080   35.9660   41.2820 H   0  0  0  0  0  0  0  0  0  0  0  0
   47.5410   34.2880   40.3370 H   0  0  0  0  0  0  0  0  0  0  0  0
   47.5680   31.9660   47.7940 C   0  0  0  0  0  0  0  0  0  0  0  0
   47.0240   30.6800   47.8500 C   0  0  0  0  0  0  0  0  0  0  0  0
   45.9710   30.4170   47.0100 C   0  0  0  0  0  0  0  0  0  0  0  0
   45.5240   31.3670   46.1950 N   0  0  0  0  0  0  0  0  0  0  0  0
   46.0220   32.5830   46.1240 C   0  0  0  0  0  0  0  0  0  0  0  0
   47.0590   32.8670   46.9440 N   0  0  0  0  0  0  0  0  0  0  0  0
   45.3810   29.1740   47.0320 N   0  0  0  0  0  0  0  0  0  0  0  0
   44.1320   28.8390   46.2930 C   0  0  0  0  0  0  0  0  0  0  0  0
   44.0030   27.3420   46.3550 C   0  0  0  0  0  0  0  0  0  0  0  0
   44.7190   27.0020   47.6230 C   0  0  0  0  0  0  0  0  0  0  0  0
   45.8140   28.0060   47.7310 C   0  0  0  0  0  0  0  0  0  0  0  0
   48.4090   32.2210   48.4470 H   0  0  0  0  0  0  0  0  0  0  0  0
   43.2790   29.3910   46.6930 H   0  0  0  0  0  0  0  0  0  0  0  0
   44.3660   29.1050   45.2300 H   0  0  0  0  0  0  0  0  0  0  0  0
   42.9540   27.0070   46.3770 H   0  0  0  0  0  0  0  0  0  0  0  0
   44.4970   26.8330   45.5150 H   0  0  0  0  0  0  0  0  0  0  0  0
   45.0800   25.9500   47.6080 H   0  0  0  0  0  0  0  0  0  0  0  0
   43.9740   27.0660   48.4400 H   0  0  0  0  0  0  0  0  0  0  0  0
   46.7060   27.5800   47.2710 H   0  0  0  0  0  0  0  0  0  0  0  0
   45.8980   28.1470   48.8510 H   0  0  0  0  0  0  0  0  0  0  0  0
   47.5960   29.7790   48.7140 N   0  0  0  0  0  0  0  0  0  0  0  0
   48.2470   29.0000   48.4430 H   0  0  0  0  0  0  0  0  0  0  0  0
   47.5300   29.6590   49.7550 H   0  0  0  0  0  0  0  0  0  0  0  0
   49.7070   32.2900   41.5640 C   0  0  0  0  0  0  0  0  0  0  0  0
   48.3600   32.0630   41.5280 C   0  0  0  0  0  0  0  0  0  0  0  0
   47.8230   30.9330   40.9420 C   0  0  0  0  0  0  0  0  0  0  0  0
   46.7520   30.7950   40.9380 H   0  0  0  0  0  0  0  0  0  0  0  0
   48.6670   29.9960   40.3700 C   0  0  0  0  0  0  0  0  0  0  0  0
   48.2930   29.0950   39.8990 H   0  0  0  0  0  0  0  0  0  0  0  0
   50.0230   30.2550   40.4220 C   0  0  0  0  0  3  0  0  0  0  0  0
   50.5560   31.3700   41.0010 C   0  0  0  0  0  3  0  0  0  0  0  0
   50.7000   34.3810   42.6650 N   0  0  0  0  0  0  0  0  0  0  0  0
   50.2560   33.4560   42.1700 C   0  0  0  0  0  0  0  0  0  0  0  0
   47.3870   31.7930   44.0740 N   0  0  0  0  0  0  0  0  0  0  0  0
   46.6560   31.0920   43.7620 H   0  0  0  0  0  0  0  0  0  0  0  0
   48.1590   31.5270   44.6940 H   0  0  0  0  0  0  0  0  0  0  0  0
  1  2  1  0  0  0  0
  1 18  1  0  0  0  0
  3 11  1  0  0  0  0
  3  2  2  0  0  0  0
  4  3  1  0  0  0  0
  5  4  2  0  0  0  0
  5 10  1  0  0  0  0
  6  5  1  0  0  0  0
  7  6  2  0  0  0  0
  7  8  1  0  0  0  0
  8  9  2  0  0  0  0
  9 10  1  0  0  0  0
  9 47  1  0  0  0  0
 10  1  2  0  0  0  0
 12  6  1  0  0  0  0
 13  7  1  0  0  0  0
 14 15  1  0  0  0  0
 14 25  1  0  0  0  0
 15 34  1  0  0  0  0
 16 20  1  0  0  0  0
 16 15  2  0  0  0  0
 17 16  1  0  0  0  0
 18 17  2  0  0  0  0
 18 19  1  0  0  0  0
 19 14  2  0  0  0  0
 20 24  1  0  0  0  0
 21 22  1  0  0  0  0
 21 26  1  0  0  0  0
 21 20  1  0  0  0  0
 22 28  1  0  0  0  0
 22 23  1  0  0  0  0
 23 24  1  0  0  0  0
 23 31  1  0  0  0  0
 24 33  1  0  0  0  0
 27 21  1  0  0  0  0
 29 22  1  0  0  0  0
 30 23  1  0  0  0  0
 32 24  1  0  0  0  0
 34 36  1  0  0  0  0
 35 34  1  0  0  0  0
 37 46  1  0  0  0  0
 38 37  1  0  0  0  0
 38  8  1  0  0  0  0
 39 38  2  0  0  0  0
 40 39  1  0  0  0  0
 41 43  2  0  0  0  0
 41 39  1  0  0  0  0
 42 41  1  0  0  0  0
 43 44  1  0  0  0  0
 44 37  2  0  0  0  0
 46 45  3  0  0  0  0
 47 49  1  0  0  0  0
 48 47  1  0  0  0  0
M  END
>  <minimizedAffinity>
-6.91058922

>  <minimizedRMSD>
1.05406511

$$$$
