
 OpenBabel03252508393D

 42 45  0  0  0  0  0  0  0  0999 V2000
   45.1540   33.9370   40.7000 C   0  0  0  0  0  0  0  0  0  0  0  0
   44.1020   33.6210   39.8660 C   0  0  0  0  0  0  0  0  0  0  0  0
   44.3990   33.1260   38.6330 C   0  0  0  0  0  0  0  0  0  0  0  0
   45.6730   32.9230   38.1800 C   0  0  0  0  0  0  0  0  0  0  0  0
   46.7010   33.2430   39.0230 C   0  0  0  0  0  0  0  0  0  0  0  0
   46.4650   33.7520   40.2930 C   0  0  0  0  0  0  0  0  0  0  0  0
   43.5750   32.8770   37.9780 H   0  0  0  0  0  0  0  0  0  0  0  0
   45.8290   32.5260   37.1870 H   0  0  0  0  0  0  0  0  0  0  0  0
   47.7090   33.0780   38.6530 H   0  0  0  0  0  0  0  0  0  0  0  0
   40.8350   35.2720   40.7810 C   0  0  0  0  0  0  0  0  0  0  0  0
   42.1300   35.0910   40.2600 C   0  0  0  0  0  0  0  0  0  0  0  0
   42.7670   33.8520   40.3890 C   0  0  0  0  0  0  0  0  0  0  0  0
   42.0430   32.9040   41.0300 N   0  0  0  0  0  0  0  0  0  0  0  0
   40.8200   33.0880   41.5190 C   0  0  0  0  0  0  0  0  0  0  0  0
   40.2210   34.2790   41.3890 N   0  0  0  0  0  0  0  0  0  0  0  0
   40.2380   36.5520   40.6220 N   0  0  0  0  0  0  0  0  0  0  0  0
   42.6510   35.8950   39.7570 H   0  0  0  0  0  0  0  0  0  0  0  0
   40.3480   32.2440   42.0130 H   0  0  0  0  0  0  0  0  0  0  0  0
   40.7800   37.1370   41.2960 H   0  0  0  0  0  0  0  0  0  0  0  0
   39.4480   36.6940   39.9430 H   0  0  0  0  0  0  0  0  0  0  0  0
   47.6290   34.0610   41.1070 C   0  0  0  0  0  0  0  0  0  0  0  0
   48.0720   35.3590   41.0340 C   0  0  0  0  0  0  0  0  0  0  0  0
   49.1720   35.8420   41.7450 C   0  0  0  0  0  0  0  0  0  0  0  0
   49.8360   34.9570   42.5580 C   0  0  0  0  0  0  0  0  0  0  0  0
   49.4080   33.6500   42.6460 C   0  0  0  0  0  0  0  0  0  0  0  0
   48.3110   33.2010   41.9260 C   0  0  0  0  0  0  0  0  0  0  0  0
   47.6020   36.1340   40.4110 H   0  0  0  0  0  0  0  0  0  0  0  0
   49.5070   36.8650   41.6760 H   0  0  0  0  0  0  0  0  0  0  0  0
   50.7050   35.2380   43.1510 H   0  0  0  0  0  0  0  0  0  0  0  0
   49.9270   32.9380   43.2860 H   0  0  0  0  0  0  0  0  0  0  0  0
   47.2130   31.5120   43.2270 C   0  0  0  0  0  0  0  0  0  0  0  0
   47.8570   31.8170   42.0200 C   0  0  0  0  0  0  0  0  0  0  0  0
   47.9710   30.7990   41.1260 C   0  0  0  0  0  0  0  0  0  0  0  0
   48.4740   31.0670   40.2100 H   0  0  0  0  0  0  0  0  0  0  0  0
   47.4790   29.5390   41.3920 C   0  0  0  0  0  0  0  0  0  0  0  0
   47.6240   28.8010   40.6080 H   0  0  0  0  0  0  0  0  0  0  0  0
   46.8440   29.2360   42.5810 C   0  0  0  0  0  3  0  0  0  0  0  0
   46.7300   30.2650   43.4830 C   0  0  0  0  0  3  0  0  0  0  0  0
   46.8950   33.3040   45.1030 N   0  0  0  0  0  0  0  0  0  0  0  0
   47.0250   32.5070   44.2720 C   0  0  0  0  0  0  0  0  0  0  0  0
   44.7550   34.8880   43.0900 N   0  0  0  0  0  0  0  0  0  0  0  0
   44.9330   34.4740   42.0190 C   0  0  0  0  0  0  0  0  0  0  0  0
  1 42  1  0  0  0  0
  2 12  1  0  0  0  0
  2  1  2  0  0  0  0
  3  2  1  0  0  0  0
  4  3  2  0  0  0  0
  4  5  1  0  0  0  0
  5  6  2  0  0  0  0
  6  1  1  0  0  0  0
  6 21  1  0  0  0  0
  7  3  1  0  0  0  0
  8  4  1  0  0  0  0
  9  5  1  0  0  0  0
 10 15  1  0  0  0  0
 11 12  1  0  0  0  0
 11 10  2  0  0  0  0
 12 13  2  0  0  0  0
 13 14  1  0  0  0  0
 14 18  1  0  0  0  0
 15 14  2  0  0  0  0
 16 10  1  0  0  0  0
 16 19  1  0  0  0  0
 17 11  1  0  0  0  0
 20 16  1  0  0  0  0
 21 26  1  0  0  0  0
 22 21  2  0  0  0  0
 22 23  1  0  0  0  0
 23 24  2  0  0  0  0
 24 25  1  0  0  0  0
 24 29  1  0  0  0  0
 25 30  1  0  0  0  0
 26 32  1  0  0  0  0
 26 25  2  0  0  0  0
 27 22  1  0  0  0  0
 28 23  1  0  0  0  0
 31 38  1  0  0  0  0
 31 40  1  0  0  0  0
 32 31  2  0  0  0  0
 33 35  2  0  0  0  0
 33 32  1  0  0  0  0
 34 33  1  0  0  0  0
 35 37  1  0  0  0  0
 36 35  1  0  0  0  0
 37 38  2  0  0  0  0
 40 39  3  0  0  0  0
 42 41  3  0  0  0  0
M  END
>  <minimizedAffinity>
-6.0918684

>  <minimizedRMSD>
0.263408303

$$$$
