
 OpenBabel03252508393D

 42 45  0  0  0  0  0  0  0  0999 V2000
   45.1810   33.9760   40.6990 C   0  0  0  0  0  0  0  0  0  0  0  0
   44.1340   33.6480   39.8620 C   0  0  0  0  0  0  0  0  0  0  0  0
   44.4390   33.1660   38.6260 C   0  0  0  0  0  0  0  0  0  0  0  0
   45.7160   32.9900   38.1710 C   0  0  0  0  0  0  0  0  0  0  0  0
   46.7390   33.3210   39.0160 C   0  0  0  0  0  0  0  0  0  0  0  0
   46.4950   33.8170   40.2890 C   0  0  0  0  0  0  0  0  0  0  0  0
   43.6190   32.9080   37.9690 H   0  0  0  0  0  0  0  0  0  0  0  0
   45.8780   32.6030   37.1750 H   0  0  0  0  0  0  0  0  0  0  0  0
   47.7490   33.1770   38.6430 H   0  0  0  0  0  0  0  0  0  0  0  0
   40.8360   35.2320   40.7850 C   0  0  0  0  0  0  0  0  0  0  0  0
   42.1340   35.0780   40.2620 C   0  0  0  0  0  0  0  0  0  0  0  0
   42.7960   33.8510   40.3880 C   0  0  0  0  0  0  0  0  0  0  0  0
   42.0920   32.8890   41.0290 N   0  0  0  0  0  0  0  0  0  0  0  0
   40.8660   33.0470   41.5200 C   0  0  0  0  0  0  0  0  0  0  0  0
   40.2440   34.2260   41.3930 N   0  0  0  0  0  0  0  0  0  0  0  0
   40.2140   36.5000   40.6290 N   0  0  0  0  0  0  0  0  0  0  0  0
   42.6390   35.8920   39.7590 H   0  0  0  0  0  0  0  0  0  0  0  0
   40.4120   32.1940   42.0140 H   0  0  0  0  0  0  0  0  0  0  0  0
   40.7450   37.0950   41.3020 H   0  0  0  0  0  0  0  0  0  0  0  0
   39.4200   36.6280   39.9510 H   0  0  0  0  0  0  0  0  0  0  0  0
   47.6540   34.1410   41.1050 C   0  0  0  0  0  0  0  0  0  0  0  0
   48.1490   35.4120   40.9480 C   0  0  0  0  0  0  0  0  0  0  0  0
   49.2530   35.9030   41.6470 C   0  0  0  0  0  0  0  0  0  0  0  0
   49.8660   35.0550   42.5360 C   0  0  0  0  0  0  0  0  0  0  0  0
   49.3850   33.7760   42.7090 C   0  0  0  0  0  0  0  0  0  0  0  0
   48.2850   33.3170   41.9980 C   0  0  0  0  0  0  0  0  0  0  0  0
   47.7210   36.1560   40.2600 H   0  0  0  0  0  0  0  0  0  0  0  0
   49.6290   36.9050   41.5120 H   0  0  0  0  0  0  0  0  0  0  0  0
   50.7330   35.3460   43.1270 H   0  0  0  0  0  0  0  0  0  0  0  0
   49.8630   33.0930   43.4100 H   0  0  0  0  0  0  0  0  0  0  0  0
   48.3940   31.0070   41.3630 C   0  0  0  0  0  0  0  0  0  0  0  0
   47.7750   31.9620   42.1820 C   0  0  0  0  0  0  0  0  0  0  0  0
   46.8050   31.5000   43.0130 C   0  0  0  0  0  0  0  0  0  0  0  0
   46.3480   32.2600   43.6280 H   0  0  0  0  0  0  0  0  0  0  0  0
   46.4490   30.1690   43.0480 C   0  0  0  0  0  0  0  0  0  0  0  0
   45.6610   29.9080   43.7490 H   0  0  0  0  0  0  0  0  0  0  0  0
   47.0560   29.2260   42.2410 C   0  0  0  0  0  3  0  0  0  0  0  0
   48.0370   29.6950   41.4010 C   0  0  0  0  0  3  0  0  0  0  0  0
   50.2740   31.6650   39.6700 N   0  0  0  0  0  0  0  0  0  0  0  0
   49.4480   31.3660   40.4240 C   0  0  0  0  0  0  0  0  0  0  0  0
   44.7670   34.9030   43.0960 N   0  0  0  0  0  0  0  0  0  0  0  0
   44.9510   34.4990   42.0220 C   0  0  0  0  0  0  0  0  0  0  0  0
  1 42  1  0  0  0  0
  2 12  1  0  0  0  0
  2  1  2  0  0  0  0
  3  2  1  0  0  0  0
  4  3  2  0  0  0  0
  4  5  1  0  0  0  0
  5  6  2  0  0  0  0
  6  1  1  0  0  0  0
  6 21  1  0  0  0  0
  7  3  1  0  0  0  0
  8  4  1  0  0  0  0
  9  5  1  0  0  0  0
 10 15  1  0  0  0  0
 11 12  1  0  0  0  0
 11 10  2  0  0  0  0
 12 13  2  0  0  0  0
 13 14  1  0  0  0  0
 14 18  1  0  0  0  0
 15 14  2  0  0  0  0
 16 10  1  0  0  0  0
 16 19  1  0  0  0  0
 17 11  1  0  0  0  0
 20 16  1  0  0  0  0
 21 26  1  0  0  0  0
 22 21  2  0  0  0  0
 22 23  1  0  0  0  0
 23 24  2  0  0  0  0
 24 25  1  0  0  0  0
 24 29  1  0  0  0  0
 25 30  1  0  0  0  0
 26 32  1  0  0  0  0
 26 25  2  0  0  0  0
 27 22  1  0  0  0  0
 28 23  1  0  0  0  0
 31 38  2  0  0  0  0
 31 32  1  0  0  0  0
 32 33  2  0  0  0  0
 33 35  1  0  0  0  0
 33 34  1  0  0  0  0
 35 36  1  0  0  0  0
 37 35  2  0  0  0  0
 38 37  1  0  0  0  0
 39 40  3  0  0  0  0
 40 31  1  0  0  0  0
 42 41  3  0  0  0  0
M  END
>  <minimizedAffinity>
-5.99256611

>  <minimizedRMSD>
0.274665743

$$$$
