
 OpenBabel03242517213D

 34 36  0  0  1  0  0  0  0  0999 V2000
   44.5470   35.6360   44.8620 C   0  0  0  0  0  0  0  0  0  0  0  0
   44.5870   35.3390   43.4810 C   0  0  0  0  0  0  0  0  0  0  0  0
   45.0930   34.1030   43.0620 C   0  0  0  0  0  0  0  0  0  0  0  0
   45.5180   33.2550   44.0350 N   0  0  0  0  0  0  0  0  0  0  0  0
   45.4800   33.5370   45.3450 C   0  0  0  0  0  0  0  0  0  0  0  0
   44.9900   34.7370   45.7600 N   0  0  0  0  0  0  0  0  0  0  0  0
   45.9440   32.6000   46.3280 N   0  0  0  0  0  0  0  0  0  0  0  0
   45.4820   32.7660   47.6890 C   0  0  0  0  0  0  0  0  0  0  0  0
   46.3190   32.0270   48.6920 C   0  0  0  0  0  0  0  0  0  0  0  0
   46.6370   30.6850   48.1270 C   0  0  0  0  0  0  0  0  0  0  0  0
   47.5810   30.9050   46.9710 C   0  0  0  0  0  0  0  0  0  0  0  0
   46.8370   31.5720   45.8630 C   0  0  1  0  0  0  0  0  0  0  0  0
   44.1600   36.5850   45.1860 H   0  0  0  0  0  0  0  0  0  0  0  0
   44.2330   36.0570   42.7490 H   0  0  0  0  0  0  0  0  0  0  0  0
   45.1450   33.8310   42.0290 H   0  0  0  0  0  0  0  0  0  0  0  0
   44.4710   32.3020   47.7360 H   0  0  0  0  0  0  0  0  0  0  0  0
   45.3400   33.8380   47.9510 H   0  0  0  0  0  0  0  0  0  0  0  0
   47.2710   32.5640   48.9340 H   0  0  0  0  0  0  0  0  0  0  0  0
   45.7480   32.0160   49.6450 H   0  0  0  0  0  0  0  0  0  0  0  0
   47.1270   30.0080   48.8850 H   0  0  0  0  0  0  0  0  0  0  0  0
   45.6980   30.1810   47.8650 H   0  0  0  0  0  0  0  0  0  0  0  0
   48.4470   31.4600   47.3450 H   0  0  0  0  0  0  0  0  0  0  0  0
   47.9340   29.8950   46.6390 H   0  0  0  0  0  0  0  0  0  0  0  0
   47.6290   32.1430   45.2940 H   0  0  0  0  0  0  0  0  0  0  0  0
   46.8200   30.4370   43.6290 C   0  0  0  0  0  0  0  0  0  0  0  0
   46.2430   30.6570   44.8670 C   0  0  0  0  0  0  0  0  0  0  0  0
   45.0670   29.9620   45.1170 C   0  0  0  0  0  0  0  0  0  0  0  0
   44.5420   30.0770   46.0730 H   0  0  0  0  0  0  0  0  0  0  0  0
   44.5000   29.1050   44.1970 C   0  0  0  0  0  0  0  0  0  0  0  0
   43.5810   28.5740   44.4150 H   0  0  0  0  0  0  0  0  0  0  0  0
   45.1270   28.9280   42.9730 C   0  0  0  0  0  3  0  0  0  0  0  0
   46.3080   29.5950   42.6630 C   0  0  0  0  0  3  0  0  0  0  0  0
   49.0210   31.7360   43.1080 N   0  0  0  0  0  0  0  0  0  0  0  0
   48.0370   31.1440   43.3450 C   0  0  0  0  0  0  0  0  0  0  0  0
  1 13  1  0  0  0  0
  1  6  1  0  0  0  0
  2  1  2  0  0  0  0
  3  2  1  0  0  0  0
  3  4  2  0  0  0  0
  4  5  1  0  0  0  0
  5  6  2  0  0  0  0
  5  7  1  0  0  0  0
  7  8  1  0  0  0  0
  8 16  1  0  0  0  0
  8 17  1  0  0  0  0
  8  9  1  0  0  0  0
  9 18  1  0  0  0  0
  9 19  1  0  0  0  0
 10  9  1  0  0  0  0
 10 20  1  0  0  0  0
 11 22  1  0  0  0  0
 11 10  1  0  0  0  0
 12 24  1  6  0  0  0
 12  7  1  0  0  0  0
 12 11  1  0  0  0  0
 14  2  1  0  0  0  0
 15  3  1  0  0  0  0
 21 10  1  0  0  0  0
 23 11  1  0  0  0  0
 25 26  1  0  0  0  0
 26 27  2  0  0  0  0
 26 12  1  0  0  0  0
 27 28  1  0  0  0  0
 29 30  1  0  0  0  0
 29 27  1  0  0  0  0
 31 29  2  0  0  0  0
 32 31  1  0  0  0  0
 32 25  2  0  0  0  0
 33 34  3  0  0  0  0
 34 25  1  0  0  0  0
M  END
>  <minimizedAffinity>
-4.29647541

>  <minimizedRMSD>
2.10759401

$$$$
