
 OpenBabel03242518393D

 40 43  0  0  1  0  0  0  0  0999 V2000
   47.3070   33.3840   41.0900 O   0  0  0  0  0  0  0  0  0  0  0  0
   47.4120   33.5980   39.6930 C   0  0  0  0  0  0  0  0  0  0  0  0
   48.3080   34.3530   38.9260 C   0  0  0  0  0  0  0  0  0  0  0  0
   47.9720   34.2260   37.5910 C   0  0  0  0  0  0  0  0  0  0  0  0
   46.8920   33.4040   37.6050 C   0  0  0  0  0  0  0  0  0  0  0  0
   46.5710   33.0410   38.8380 O   0  0  0  0  0  0  0  0  0  0  0  0
   49.1010   34.9110   39.3980 H   0  0  0  0  0  0  0  0  0  0  0  0
   48.5080   34.7100   36.7860 H   0  0  0  0  0  0  0  0  0  0  0  0
   46.1670   32.9710   36.3930 C   0  0  2  0  0  0  0  0  0  0  0  0
   45.8880   31.5580   36.1450 C   0  0  0  0  0  0  0  0  0  0  0  0
   47.0420   32.1430   35.4120 C   0  0  1  0  0  0  0  0  0  0  0  0
   45.5130   33.7270   35.9300 H   0  0  0  0  0  0  0  0  0  0  0  0
   46.1660   30.8210   36.9490 H   0  0  0  0  0  0  0  0  0  0  0  0
   45.0100   31.2440   35.5570 H   0  0  0  0  0  0  0  0  0  0  0  0
   48.0850   31.9950   35.6920 H   0  0  0  0  0  0  0  0  0  0  0  0
   47.8760   32.6180   33.1180 C   0  0  0  0  0  0  0  0  0  0  0  0
   49.0860   32.5310   33.4770 O   0  0  0  0  0  0  0  0  0  0  0  0
   46.7880   32.4800   34.0150 N   0  0  0  0  0  0  0  0  0  0  0  0
   47.6100   32.8070   32.0670 H   0  0  0  0  0  0  0  0  0  0  0  0
   45.8100   32.6170   33.6850 H   0  0  0  0  0  0  0  0  0  0  0  0
   47.3430   34.5120   41.9460 C   0  0  0  0  0  0  0  0  0  0  0  0
   48.0000   35.5050   41.5340 O   0  0  0  0  0  0  0  0  0  0  0  0
   46.6310   34.3940   43.1740 C   0  0  0  0  0  0  0  0  0  0  0  0
   45.6040   35.2620   43.3630 C   0  0  0  0  0  0  0  0  0  0  0  0
   44.8710   35.1960   44.5440 C   0  0  0  0  0  0  0  0  0  0  0  0
   45.2070   34.2760   45.4530 N   0  0  0  0  0  0  0  0  0  0  0  0
   46.2260   33.4250   45.2520 C   0  0  0  0  0  0  0  0  0  0  0  0
   46.9090   33.5150   44.1080 N   0  0  0  0  0  0  0  0  0  0  0  0
   45.3100   36.0180   42.6420 H   0  0  0  0  0  0  0  0  0  0  0  0
   44.0410   35.8960   44.6980 H   0  0  0  0  0  0  0  0  0  0  0  0
   46.3180   31.0980   46.0210 C   0  0  0  0  0  0  0  0  0  0  0  0
   46.5710   32.4370   46.2530 C   0  0  0  0  0  0  0  0  0  0  0  0
   47.1580   32.7760   47.4600 C   0  0  0  0  0  0  0  0  0  0  0  0
   47.3580   33.8230   47.6460 H   0  0  0  0  0  0  0  0  0  0  0  0
   47.4920   31.8330   48.4240 C   0  0  0  0  0  0  0  0  0  0  0  0
   47.9430   32.1350   49.3450 H   0  0  0  0  0  0  0  0  0  0  0  0
   47.2180   30.5100   48.1450 C   0  0  0  0  0  0  0  0  0  0  0  0
   46.6380   30.1330   46.9600 C   0  0  0  0  0  0  0  0  0  0  0  0
   45.2090   30.3550   43.8070 N   0  0  0  0  0  0  0  0  0  0  0  0
   45.7100   30.6800   44.7850 C   0  0  0  0  0  0  0  0  0  0  0  0
  1 21  1  0  0  0  0
  2  1  1  0  0  0  0
  3  7  1  0  0  0  0
  3  2  2  0  0  0  0
  4  5  2  0  0  0  0
  4  3  1  0  0  0  0
  5  6  1  0  0  0  0
  6  2  1  0  0  0  0
  8  4  1  0  0  0  0
  9 12  1  6  0  0  0
  9  5  1  0  0  0  0
 10  9  1  0  0  0  0
 10 13  1  0  0  0  0
 11 15  1  1  0  0  0
 11 10  1  0  0  0  0
 11  9  1  0  0  0  0
 14 10  1  0  0  0  0
 16 17  2  0  0  0  0
 16 18  1  0  0  0  0
 18 11  1  0  0  0  0
 19 16  1  0  0  0  0
 20 18  1  0  0  0  0
 21 23  1  0  0  0  0
 22 21  2  0  0  0  0
 23 24  2  0  0  0  0
 23 28  1  0  0  0  0
 24 25  1  0  0  0  0
 25 30  1  0  0  0  0
 25 26  2  0  0  0  0
 27 26  1  0  0  0  0
 27 32  1  0  0  0  0
 28 27  2  0  0  0  0
 29 24  1  0  0  0  0
 31 32  2  0  0  0  0
 31 38  1  0  0  0  0
 32 33  1  0  0  0  0
 33 34  1  0  0  0  0
 33 35  2  0  0  0  0
 35 36  1  0  0  0  0
 37 35  1  0  0  0  0
 38 37  2  0  0  0  0
 39 40  3  0  0  0  0
 40 31  1  0  0  0  0
M  END
>  <minimizedAffinity>
-5.84742928

>  <minimizedRMSD>
0.80127424

$$$$
