
 OpenBabel03252502093D

 49 53  0  0  0  0  0  0  0  0999 V2000
   45.6820   33.8250   45.4330 C   0  0  0  0  0  0  0  0  0  0  0  0
   44.7680   34.7310   45.7970 N   0  0  0  0  0  0  0  0  0  0  0  0
   44.4250   35.8040   45.0870 C   0  0  0  0  0  0  0  0  0  0  0  0
   45.0190   36.0420   43.8920 N   0  0  0  0  0  0  0  0  0  0  0  0
   45.9510   35.2090   43.4150 C   0  0  0  0  0  0  0  0  0  0  0  0
   46.5610   35.4440   42.2030 C   0  0  0  0  0  0  0  0  0  0  0  0
   47.5130   34.6070   41.7040 C   0  0  0  0  0  0  0  0  0  0  0  0
   47.8450   33.5030   42.4670 C   0  0  0  0  0  0  0  0  0  0  0  0
   47.2040   33.3070   43.6810 C   0  0  0  0  0  0  0  0  0  0  0  0
   46.2590   34.1160   44.2040 C   0  0  0  0  0  0  0  0  0  0  0  0
   43.6670   36.4670   45.4900 H   0  0  0  0  0  0  0  0  0  0  0  0
   46.2810   36.3160   41.6280 H   0  0  0  0  0  0  0  0  0  0  0  0
   47.9580   34.8400   40.7500 H   0  0  0  0  0  0  0  0  0  0  0  0
   47.5790   32.0280   47.9310 C   0  0  0  0  0  0  0  0  0  0  0  0
   47.0840   30.7210   47.9310 C   0  0  0  0  0  0  0  0  0  0  0  0
   46.0600   30.4470   47.0590 C   0  0  0  0  0  0  0  0  0  0  0  0
   45.5950   31.4080   46.2670 N   0  0  0  0  0  0  0  0  0  0  0  0
   46.0470   32.6430   46.2480 C   0  0  0  0  0  0  0  0  0  0  0  0
   47.0540   32.9380   47.1010 N   0  0  0  0  0  0  0  0  0  0  0  0
   45.5190   29.1830   47.0260 N   0  0  0  0  0  0  0  0  0  0  0  0
   44.3000   28.8260   46.2480 C   0  0  0  0  0  0  0  0  0  0  0  0
   44.2280   27.3250   46.2570 C   0  0  0  0  0  0  0  0  0  0  0  0
   44.9290   26.9680   47.5280 C   0  0  0  0  0  0  0  0  0  0  0  0
   45.9810   28.0090   47.6940 C   0  0  0  0  0  0  0  0  0  0  0  0
   48.3950   32.2910   48.6110 H   0  0  0  0  0  0  0  0  0  0  0  0
   43.4170   29.3310   46.6460 H   0  0  0  0  0  0  0  0  0  0  0  0
   44.5460   29.1380   45.2000 H   0  0  0  0  0  0  0  0  0  0  0  0
   43.1920   26.9490   46.2430 H   0  0  0  0  0  0  0  0  0  0  0  0
   44.7580   26.8640   45.4110 H   0  0  0  0  0  0  0  0  0  0  0  0
   45.3310   25.9320   47.4850 H   0  0  0  0  0  0  0  0  0  0  0  0
   44.1640   26.9750   48.3300 H   0  0  0  0  0  0  0  0  0  0  0  0
   46.8990   27.6330   47.2410 H   0  0  0  0  0  0  0  0  0  0  0  0
   46.0360   28.1140   48.8210 H   0  0  0  0  0  0  0  0  0  0  0  0
   47.6720   29.8130   48.7770 N   0  0  0  0  0  0  0  0  0  0  0  0
   48.3590   29.0690   48.4950 H   0  0  0  0  0  0  0  0  0  0  0  0
   47.5880   29.6550   49.8120 H   0  0  0  0  0  0  0  0  0  0  0  0
   48.4530   31.5840   41.1250 C   0  0  0  0  0  0  0  0  0  0  0  0
   48.8680   32.6290   41.9010 C   0  0  0  0  0  0  0  0  0  0  0  0
   50.2070   32.8670   42.1550 C   0  0  0  0  0  0  0  0  0  0  0  0
   50.4870   33.7050   42.7750 H   0  0  0  0  0  0  0  0  0  0  0  0
   51.1620   32.0270   41.6100 C   0  0  0  0  0  0  0  0  0  0  0  0
   52.2210   32.1740   41.7810 H   0  0  0  0  0  0  0  0  0  0  0  0
   50.7100   30.9800   40.8300 C   0  0  0  0  0  3  0  0  0  0  0  0
   49.3900   30.7420   40.5780 C   0  0  0  0  0  3  0  0  0  0  0  0
   45.9730   31.1540   40.6460 N   0  0  0  0  0  0  0  0  0  0  0  0
   47.0740   31.3410   40.8660 C   0  0  0  0  0  0  0  0  0  0  0  0
   47.6780   32.1120   44.3140 N   0  0  0  0  0  0  0  0  0  0  0  0
   47.0540   31.3680   43.8900 H   0  0  0  0  0  0  0  0  0  0  0  0
   48.4070   31.8790   44.9960 H   0  0  0  0  0  0  0  0  0  0  0  0
  1  2  1  0  0  0  0
  1 18  1  0  0  0  0
  3 11  1  0  0  0  0
  3  2  2  0  0  0  0
  4  3  1  0  0  0  0
  5  4  2  0  0  0  0
  5 10  1  0  0  0  0
  6  5  1  0  0  0  0
  7  6  2  0  0  0  0
  7  8  1  0  0  0  0
  8  9  2  0  0  0  0
  9 10  1  0  0  0  0
  9 47  1  0  0  0  0
 10  1  2  0  0  0  0
 12  6  1  0  0  0  0
 13  7  1  0  0  0  0
 14 25  1  0  0  0  0
 15 14  1  0  0  0  0
 15 34  1  0  0  0  0
 16 15  2  0  0  0  0
 17 16  1  0  0  0  0
 18 17  2  0  0  0  0
 18 19  1  0  0  0  0
 19 14  2  0  0  0  0
 20 16  1  0  0  0  0
 20 24  1  0  0  0  0
 21 22  1  0  0  0  0
 21 26  1  0  0  0  0
 21 20  1  0  0  0  0
 22 23  1  0  0  0  0
 23 24  1  0  0  0  0
 23 31  1  0  0  0  0
 24 33  1  0  0  0  0
 27 21  1  0  0  0  0
 28 22  1  0  0  0  0
 29 22  1  0  0  0  0
 30 23  1  0  0  0  0
 32 24  1  0  0  0  0
 34 36  1  0  0  0  0
 35 34  1  0  0  0  0
 37 38  1  0  0  0  0
 38 39  2  0  0  0  0
 38  8  1  0  0  0  0
 39 40  1  0  0  0  0
 41 42  1  0  0  0  0
 41 39  1  0  0  0  0
 43 41  2  0  0  0  0
 44 43  1  0  0  0  0
 44 37  2  0  0  0  0
 45 46  3  0  0  0  0
 46 37  1  0  0  0  0
 47 49  1  0  0  0  0
 48 47  1  0  0  0  0
M  END
>  <minimizedAffinity>
-6.89399147

>  <minimizedRMSD>
1.08287203

$$$$
