
 OpenBabel03242514303D

 39 42  0  0  0  0  0  0  0  0999 V2000
   49.1420   33.5640   37.2580 Cl  0  0  0  0  0  0  0  0  0  0  0  0
   47.9830   32.2960   37.5840 C   0  0  0  0  0  0  0  0  0  0  0  0
   47.3950   32.2290   38.8010 C   0  0  0  0  0  0  0  0  0  0  0  0
   46.6190   31.1010   39.0010 C   0  0  0  0  0  0  0  0  0  0  0  0
   46.4240   30.0990   38.0720 C   0  0  0  0  0  0  0  0  0  0  0  0
   47.0490   30.2260   36.8410 C   0  0  0  0  0  0  0  0  0  0  0  0
   47.8260   31.3320   36.6080 C   0  0  0  0  0  0  0  0  0  0  0  0
   46.1520   31.0710   40.0020 H   0  0  0  0  0  0  0  0  0  0  0  0
   45.7840   29.3190   38.4460 H   0  0  0  0  0  0  0  0  0  0  0  0
   46.8510   29.4050   36.1630 H   0  0  0  0  0  0  0  0  0  0  0  0
   48.4940   35.3590   40.5160 C   0  0  0  0  0  0  0  0  0  0  0  0
   48.2850   34.4150   39.4960 C   0  0  0  0  0  0  0  0  0  0  0  0
   47.5950   33.2500   39.7900 C   0  0  0  0  0  0  0  0  0  0  0  0
   47.1520   33.0930   41.0610 N   0  0  0  0  0  0  0  0  0  0  0  0
   47.3490   34.0000   42.0320 C   0  0  0  0  0  0  0  0  0  0  0  0
   48.0230   35.1330   41.7650 N   0  0  0  0  0  0  0  0  0  0  0  0
   49.0150   36.3030   40.4370 H   0  0  0  0  0  0  0  0  0  0  0  0
   48.6900   34.8220   38.6260 H   0  0  0  0  0  0  0  0  0  0  0  0
   45.0240   35.8250   42.7980 Cl  0  0  0  0  0  0  0  0  0  0  0  0
   45.7380   34.5970   43.8150 C   0  0  0  0  0  0  0  0  0  0  0  0
   46.7970   33.8140   43.3600 C   0  0  0  0  0  0  0  0  0  0  0  0
   47.2640   32.8880   44.2310 C   0  0  0  0  0  0  0  0  0  0  0  0
   46.7590   32.6840   45.5060 C   0  0  0  0  0  0  0  0  0  0  0  0
   45.7190   33.4650   45.9330 C   0  0  0  0  0  0  0  0  0  0  0  0
   45.1600   33.1270   47.5580 Cl  0  0  0  0  0  0  0  0  0  0  0  0
   45.2080   34.4180   45.0910 C   0  0  0  0  0  0  0  0  0  0  0  0
   48.0900   32.2710   43.8890 H   0  0  0  0  0  0  0  0  0  0  0  0
   47.2260   31.9010   46.1140 H   0  0  0  0  0  0  0  0  0  0  0  0
   44.3900   35.0090   45.4710 H   0  0  0  0  0  0  0  0  0  0  0  0
   47.6640   31.8560   34.2530 C   0  0  0  0  0  0  0  0  0  0  0  0
   48.4620   31.4380   35.3120 C   0  0  0  0  0  0  0  0  0  0  0  0
   49.7930   31.1490   35.0770 C   0  0  0  0  0  0  0  0  0  0  0  0
   50.4110   30.8210   35.9170 H   0  0  0  0  0  0  0  0  0  0  0  0
   50.3710   31.2610   33.8250 C   0  0  0  0  0  0  0  0  0  0  0  0
   51.4080   31.0380   33.6280 H   0  0  0  0  0  0  0  0  0  0  0  0
   49.5400   31.6790   32.8040 C   0  0  0  0  0  3  0  0  0  0  0  0
   48.1850   31.9880   32.9700 C   0  0  0  0  0  3  0  0  0  0  0  0
   45.1370   32.4220   34.6510 N   0  0  0  0  0  0  0  0  0  0  0  0
   46.2660   32.1660   34.4630 C   0  0  0  0  0  0  0  0  0  0  0  0
  1  2  1  0  0  0  0
  2  3  1  0  0  0  0
  3  4  2  0  0  0  0
  3 13  1  0  0  0  0
  4  8  1  0  0  0  0
  5  9  1  0  0  0  0
  5  4  1  0  0  0  0
  6  5  2  0  0  0  0
  7  6  1  0  0  0  0
  7  2  2  0  0  0  0
 10  6  1  0  0  0  0
 11 16  1  0  0  0  0
 12 13  1  0  0  0  0
 12 11  2  0  0  0  0
 13 14  2  0  0  0  0
 14 15  1  0  0  0  0
 15 21  1  0  0  0  0
 16 15  2  0  0  0  0
 17 11  1  0  0  0  0
 18 12  1  0  0  0  0
 19 20  1  0  0  0  0
 20 26  1  0  0  0  0
 21 20  2  0  0  0  0
 21 22  1  0  0  0  0
 22 23  2  0  0  0  0
 23 24  1  0  0  0  0
 23 28  1  0  0  0  0
 24 25  1  0  0  0  0
 26 29  1  0  0  0  0
 26 24  2  0  0  0  0
 27 22  1  0  0  0  0
 30 39  1  0  0  0  0
 30 31  1  0  0  0  0
 31  7  1  0  0  0  0
 32 31  2  0  0  0  0
 32 33  1  0  0  0  0
 34 32  1  0  0  0  0
 35 34  1  0  0  0  0
 36 37  1  0  0  0  0
 36 34  2  0  0  0  0
 37 30  2  0  0  0  0
 39 38  3  0  0  0  0
M  END
>  <minimizedAffinity>
-5.99469471

>  <minimizedRMSD>
1.41094255

$$$$
