
 OpenBabel03242514313D

 39 42  0  0  0  0  0  0  0  0999 V2000
   39.4470   28.4100   39.6590 Cl  0  0  0  0  0  0  0  0  0  0  0  0
   37.9300   29.2390   39.9240 C   0  0  0  0  0  0  0  0  0  0  0  0
   37.8620   30.5770   39.7340 C   0  0  0  0  0  0  0  0  0  0  0  0
   36.6650   31.1510   40.1220 C   0  0  0  0  0  0  0  0  0  0  0  0
   35.5960   30.4640   40.6610 C   0  0  0  0  0  0  0  0  0  0  0  0
   35.7230   29.0930   40.8270 C   0  0  0  0  0  0  0  0  0  0  0  0
   36.8970   28.4910   40.4520 C   0  0  0  0  0  0  0  0  0  0  0  0
   36.6360   32.2430   39.9580 H   0  0  0  0  0  0  0  0  0  0  0  0
   34.7690   31.1150   40.8890 H   0  0  0  0  0  0  0  0  0  0  0  0
   34.8460   28.6210   41.2530 H   0  0  0  0  0  0  0  0  0  0  0  0
   40.3650   32.0110   37.3620 C   0  0  0  0  0  0  0  0  0  0  0  0
   39.2420   31.3090   37.8320 C   0  0  0  0  0  0  0  0  0  0  0  0
   38.9660   31.3180   39.1910 C   0  0  0  0  0  0  0  0  0  0  0  0
   39.8040   32.0190   39.9920 N   0  0  0  0  0  0  0  0  0  0  0  0
   40.8730   32.6930   39.5370 C   0  0  0  0  0  0  0  0  0  0  0  0
   41.1590   32.6890   38.2220 N   0  0  0  0  0  0  0  0  0  0  0  0
   40.7050   32.0890   36.3380 H   0  0  0  0  0  0  0  0  0  0  0  0
   38.7670   30.9110   36.9950 H   0  0  0  0  0  0  0  0  0  0  0  0
   40.0720   35.6190   39.8900 Cl  0  0  0  0  0  0  0  0  0  0  0  0
   41.4300   34.8300   40.6570 C   0  0  0  0  0  0  0  0  0  0  0  0
   41.7010   33.4820   40.4280 C   0  0  0  0  0  0  0  0  0  0  0  0
   42.7720   32.9760   41.0840 C   0  0  0  0  0  0  0  0  0  0  0  0
   43.5830   33.7020   41.9410 C   0  0  0  0  0  0  0  0  0  0  0  0
   43.2990   35.0250   42.1520 C   0  0  0  0  0  0  0  0  0  0  0  0
   44.3870   35.8490   43.2500 Cl  0  0  0  0  0  0  0  0  0  0  0  0
   42.2260   35.5880   41.5130 C   0  0  0  0  0  0  0  0  0  0  0  0
   42.9950   31.9260   40.9130 H   0  0  0  0  0  0  0  0  0  0  0  0
   44.4210   33.1740   42.4120 H   0  0  0  0  0  0  0  0  0  0  0  0
   42.0410   36.6320   41.7090 H   0  0  0  0  0  0  0  0  0  0  0  0
   37.3110   26.6100   41.9120 C   0  0  0  0  0  0  0  0  0  0  0  0
   36.9980   27.0600   40.6350 C   0  0  0  0  0  0  0  0  0  0  0  0
   36.8020   26.1340   39.6270 C   0  0  0  0  0  0  0  0  0  0  0  0
   36.5560   26.4990   38.6250 H   0  0  0  0  0  0  0  0  0  0  0  0
   36.9060   24.7710   39.8340 C   0  0  0  0  0  0  0  0  0  0  0  0
   36.7570   24.0390   39.0550 H   0  0  0  0  0  0  0  0  0  0  0  0
   37.2200   24.3710   41.1190 C   0  0  0  0  0  3  0  0  0  0  0  0
   37.4300   25.2510   42.1870 C   0  0  0  0  0  3  0  0  0  0  0  0
   37.6820   28.3230   43.8590 N   0  0  0  0  0  0  0  0  0  0  0  0
   37.5230   27.5490   42.9920 C   0  0  0  0  0  0  0  0  0  0  0  0
  1  2  1  0  0  0  0
  2  7  1  0  0  0  0
  3  2  2  0  0  0  0
  3  4  1  0  0  0  0
  4  5  2  0  0  0  0
  5  6  1  0  0  0  0
  5  9  1  0  0  0  0
  6 10  1  0  0  0  0
  7 31  1  0  0  0  0
  7  6  2  0  0  0  0
  8  4  1  0  0  0  0
 11 12  2  0  0  0  0
 11 16  1  0  0  0  0
 12 13  1  0  0  0  0
 13  3  1  0  0  0  0
 13 14  2  0  0  0  0
 15 14  1  0  0  0  0
 15 21  1  0  0  0  0
 16 15  2  0  0  0  0
 17 11  1  0  0  0  0
 18 12  1  0  0  0  0
 19 20  1  0  0  0  0
 20 26  1  0  0  0  0
 21 20  2  0  0  0  0
 21 22  1  0  0  0  0
 22 23  2  0  0  0  0
 23 24  1  0  0  0  0
 23 28  1  0  0  0  0
 24 25  1  0  0  0  0
 26 29  1  0  0  0  0
 26 24  2  0  0  0  0
 27 22  1  0  0  0  0
 30 37  1  0  0  0  0
 30 39  1  0  0  0  0
 31 30  2  0  0  0  0
 32 34  2  0  0  0  0
 32 31  1  0  0  0  0
 33 32  1  0  0  0  0
 34 36  1  0  0  0  0
 35 34  1  0  0  0  0
 36 37  2  0  0  0  0
 39 38  3  0  0  0  0
M  END
>  <minimizedAffinity>
-7.04584503

$$$$

 OpenBabel03242514313D

 39 42  0  0  0  0  0  0  0  0999 V2000
   39.3940   31.3910   41.7850 Cl  0  0  0  0  0  0  0  0  0  0  0  0
   38.2930   31.2880   40.4310 C   0  0  0  0  0  0  0  0  0  0  0  0
   37.5380   30.1760   40.2710 C   0  0  0  0  0  0  0  0  0  0  0  0
   36.8240   30.1340   39.0860 C   0  0  0  0  0  0  0  0  0  0  0  0
   36.8420   31.1170   38.1160 C   0  0  0  0  0  0  0  0  0  0  0  0
   37.6310   32.2340   38.3400 C   0  0  0  0  0  0  0  0  0  0  0  0
   38.3520   32.3090   39.5030 C   0  0  0  0  0  0  0  0  0  0  0  0
   36.2180   29.2170   38.9800 H   0  0  0  0  0  0  0  0  0  0  0  0
   36.2100   30.8700   37.2790 H   0  0  0  0  0  0  0  0  0  0  0  0
   37.5940   32.9620   37.5380 H   0  0  0  0  0  0  0  0  0  0  0  0
   37.4450   28.3630   43.5340 C   0  0  0  0  0  0  0  0  0  0  0  0
   37.4120   29.4210   42.6090 C   0  0  0  0  0  0  0  0  0  0  0  0
   37.5150   29.1330   41.2570 C   0  0  0  0  0  0  0  0  0  0  0  0
   37.6360   27.8310   40.9050 N   0  0  0  0  0  0  0  0  0  0  0  0
   37.6610   26.8230   41.7920 C   0  0  0  0  0  0  0  0  0  0  0  0
   37.5690   27.0850   43.1090 N   0  0  0  0  0  0  0  0  0  0  0  0
   37.3810   28.4350   44.6110 H   0  0  0  0  0  0  0  0  0  0  0  0
   37.2660   30.2930   43.1590 H   0  0  0  0  0  0  0  0  0  0  0  0
   40.3990   25.4810   41.9580 Cl  0  0  0  0  0  0  0  0  0  0  0  0
   38.9270   24.7330   41.3880 C   0  0  0  0  0  0  0  0  0  0  0  0
   37.7260   25.4400   41.3600 C   0  0  0  0  0  0  0  0  0  0  0  0
   36.6480   24.7560   40.9070 C   0  0  0  0  0  0  0  0  0  0  0  0
   36.6760   23.4350   40.4870 C   0  0  0  0  0  0  0  0  0  0  0  0
   37.8670   22.7590   40.5230 C   0  0  0  0  0  0  0  0  0  0  0  0
   37.7910   21.1000   39.9690 Cl  0  0  0  0  0  0  0  0  0  0  0  0
   38.9890   23.4050   40.9720 C   0  0  0  0  0  0  0  0  0  0  0  0
   35.7060   25.2960   40.8800 H   0  0  0  0  0  0  0  0  0  0  0  0
   35.7330   22.9950   40.1430 H   0  0  0  0  0  0  0  0  0  0  0  0
   39.9030   22.8320   40.9830 H   0  0  0  0  0  0  0  0  0  0  0  0
   40.4510   33.4660   39.1860 C   0  0  0  0  0  0  0  0  0  0  0  0
   39.1630   33.4890   39.7080 C   0  0  0  0  0  0  0  0  0  0  0  0
   38.7340   34.6180   40.3830 C   0  0  0  0  0  0  0  0  0  0  0  0
   37.7180   34.6260   40.7900 H   0  0  0  0  0  0  0  0  0  0  0  0
   39.5340   35.7300   40.5620 C   0  0  0  0  0  0  0  0  0  0  0  0
   39.2110   36.6170   41.0860 H   0  0  0  0  0  0  0  0  0  0  0  0
   40.8050   35.6610   40.0250 C   0  0  0  0  0  3  0  0  0  0  0  0
   41.3060   34.5530   39.3320 C   0  0  0  0  0  3  0  0  0  0  0  0
   41.3170   31.3650   37.8820 N   0  0  0  0  0  0  0  0  0  0  0  0
   40.9350   32.3020   38.4740 C   0  0  0  0  0  0  0  0  0  0  0  0
  2  1  1  0  0  0  0
  3  2  1  0  0  0  0
  3 13  1  0  0  0  0
  4  3  2  0  0  0  0
  5  6  2  0  0  0  0
  5  4  1  0  0  0  0
  6  7  1  0  0  0  0
  7 31  1  0  0  0  0
  7  2  2  0  0  0  0
  8  4  1  0  0  0  0
  9  5  1  0  0  0  0
 10  6  1  0  0  0  0
 11 17  1  0  0  0  0
 12 18  1  0  0  0  0
 12 11  2  0  0  0  0
 13 12  1  0  0  0  0
 14 13  2  0  0  0  0
 14 15  1  0  0  0  0
 15 16  2  0  0  0  0
 16 11  1  0  0  0  0
 20 19  1  0  0  0  0
 21 20  1  0  0  0  0
 21 15  1  0  0  0  0
 22 21  2  0  0  0  0
 23 24  2  0  0  0  0
 23 22  1  0  0  0  0
 24 26  1  0  0  0  0
 25 24  1  0  0  0  0
 26 29  1  0  0  0  0
 26 20  2  0  0  0  0
 27 22  1  0  0  0  0
 28 23  1  0  0  0  0
 30 37  2  0  0  0  0
 30 31  1  0  0  0  0
 31 32  2  0  0  0  0
 32 34  1  0  0  0  0
 32 33  1  0  0  0  0
 34 35  1  0  0  0  0
 36 34  2  0  0  0  0
 37 36  1  0  0  0  0
 38 39  3  0  0  0  0
 39 30  1  0  0  0  0
M  END
>  <minimizedAffinity>
-6.98062181

$$$$

 OpenBabel03242514313D

 39 42  0  0  0  0  0  0  0  0999 V2000
   39.8970   31.5810   41.9410 Cl  0  0  0  0  0  0  0  0  0  0  0  0
   38.6330   31.3170   40.7620 C   0  0  0  0  0  0  0  0  0  0  0  0
   37.9440   30.1520   40.7760 C   0  0  0  0  0  0  0  0  0  0  0  0
   37.0810   29.9840   39.7080 C   0  0  0  0  0  0  0  0  0  0  0  0
   36.8980   30.8950   38.6880 C   0  0  0  0  0  0  0  0  0  0  0  0
   37.6290   32.0730   38.7310 C   0  0  0  0  0  0  0  0  0  0  0  0
   38.4940   32.2730   39.7760 C   0  0  0  0  0  0  0  0  0  0  0  0
   36.5320   29.0260   39.7430 H   0  0  0  0  0  0  0  0  0  0  0  0
   36.1780   30.5530   37.9630 H   0  0  0  0  0  0  0  0  0  0  0  0
   37.4330   32.7390   37.9000 H   0  0  0  0  0  0  0  0  0  0  0  0
   37.3450   27.9150   43.7060 C   0  0  0  0  0  0  0  0  0  0  0  0
   37.0950   28.8350   42.6730 C   0  0  0  0  0  0  0  0  0  0  0  0
   38.1290   29.1810   41.8170 C   0  0  0  0  0  0  0  0  0  0  0  0
   39.3330   28.5970   42.0280 N   0  0  0  0  0  0  0  0  0  0  0  0
   39.5660   27.7140   43.0130 C   0  0  0  0  0  0  0  0  0  0  0  0
   38.5750   27.3720   43.8570 N   0  0  0  0  0  0  0  0  0  0  0  0
   36.6430   27.5570   44.4470 H   0  0  0  0  0  0  0  0  0  0  0  0
   36.0830   29.0760   42.7270 H   0  0  0  0  0  0  0  0  0  0  0  0
   39.9800   25.1520   41.4030 Cl  0  0  0  0  0  0  0  0  0  0  0  0
   41.1510   25.8900   42.4710 C   0  0  0  0  0  0  0  0  0  0  0  0
   40.8560   27.0680   43.1550 C   0  0  0  0  0  0  0  0  0  0  0  0
   41.8430   27.5530   43.9460 C   0  0  0  0  0  0  0  0  0  0  0  0
   43.0860   26.9600   44.1040 C   0  0  0  0  0  0  0  0  0  0  0  0
   43.3530   25.8030   43.4230 C   0  0  0  0  0  0  0  0  0  0  0  0
   44.9500   25.1370   43.6950 Cl  0  0  0  0  0  0  0  0  0  0  0  0
   42.3900   25.2690   42.6080 C   0  0  0  0  0  0  0  0  0  0  0  0
   41.6260   28.4700   44.4860 H   0  0  0  0  0  0  0  0  0  0  0  0
   43.7980   27.4530   44.7750 H   0  0  0  0  0  0  0  0  0  0  0  0
   42.6460   24.3570   42.0910 H   0  0  0  0  0  0  0  0  0  0  0  0
   40.4850   33.5060   39.1760 C   0  0  0  0  0  0  0  0  0  0  0  0
   39.2390   33.5120   39.7940 C   0  0  0  0  0  0  0  0  0  0  0  0
   38.7890   34.6800   40.3810 C   0  0  0  0  0  0  0  0  0  0  0  0
   37.8070   34.6740   40.8650 H   0  0  0  0  0  0  0  0  0  0  0  0
   39.5260   35.8490   40.3810 C   0  0  0  0  0  0  0  0  0  0  0  0
   39.1850   36.7660   40.8370 H   0  0  0  0  0  0  0  0  0  0  0  0
   40.7570   35.7940   39.7560 C   0  0  0  0  0  3  0  0  0  0  0  0
   41.2760   34.6490   39.1410 C   0  0  0  0  0  3  0  0  0  0  0  0
   41.3810   31.3240   38.0350 N   0  0  0  0  0  0  0  0  0  0  0  0
   40.9890   32.3020   38.5510 C   0  0  0  0  0  0  0  0  0  0  0  0
  2  3  1  0  0  0  0
  2  1  1  0  0  0  0
  3 13  1  0  0  0  0
  4  8  1  0  0  0  0
  4  3  2  0  0  0  0
  5  6  2  0  0  0  0
  5  4  1  0  0  0  0
  6  7  1  0  0  0  0
  7 31  1  0  0  0  0
  7  2  2  0  0  0  0
  9  5  1  0  0  0  0
 10  6  1  0  0  0  0
 11 16  1  0  0  0  0
 11 17  1  0  0  0  0
 12 18  1  0  0  0  0
 12 11  2  0  0  0  0
 13 14  2  0  0  0  0
 13 12  1  0  0  0  0
 14 15  1  0  0  0  0
 15 21  1  0  0  0  0
 15 16  2  0  0  0  0
 19 20  1  0  0  0  0
 20 26  2  0  0  0  0
 20 21  1  0  0  0  0
 21 22  2  0  0  0  0
 22 23  1  0  0  0  0
 22 27  1  0  0  0  0
 23 28  1  0  0  0  0
 24 25  1  0  0  0  0
 24 23  2  0  0  0  0
 26 24  1  0  0  0  0
 29 26  1  0  0  0  0
 30 31  1  0  0  0  0
 31 32  2  0  0  0  0
 32 33  1  0  0  0  0
 34 32  1  0  0  0  0
 34 35  1  0  0  0  0
 36 34  2  0  0  0  0
 37 30  2  0  0  0  0
 37 36  1  0  0  0  0
 38 39  3  0  0  0  0
 39 30  1  0  0  0  0
M  END
>  <minimizedAffinity>
-6.89340782

$$$$

 OpenBabel03242514313D

 39 42  0  0  0  0  0  0  0  0999 V2000
   39.6200   28.3510   39.9770 Cl  0  0  0  0  0  0  0  0  0  0  0  0
   38.1350   29.2610   40.1410 C   0  0  0  0  0  0  0  0  0  0  0  0
   38.1430   30.5940   39.9100 C   0  0  0  0  0  0  0  0  0  0  0  0
   36.9580   31.2370   40.2210 C   0  0  0  0  0  0  0  0  0  0  0  0
   35.8310   30.6180   40.7240 C   0  0  0  0  0  0  0  0  0  0  0  0
   35.8820   29.2490   40.9360 C   0  0  0  0  0  0  0  0  0  0  0  0
   37.0410   28.5800   40.6380 C   0  0  0  0  0  0  0  0  0  0  0  0
   36.9910   32.3230   40.0230 H   0  0  0  0  0  0  0  0  0  0  0  0
   35.0270   31.3160   40.8920 H   0  0  0  0  0  0  0  0  0  0  0  0
   34.9630   28.8340   41.3300 H   0  0  0  0  0  0  0  0  0  0  0  0
   40.8500   31.7970   37.6360 C   0  0  0  0  0  0  0  0  0  0  0  0
   39.6730   31.1620   38.0680 C   0  0  0  0  0  0  0  0  0  0  0  0
   39.3070   31.2630   39.4020 C   0  0  0  0  0  0  0  0  0  0  0  0
   40.1150   31.9830   40.2160 N   0  0  0  0  0  0  0  0  0  0  0  0
   41.2360   32.5930   39.7970 C   0  0  0  0  0  0  0  0  0  0  0  0
   41.6090   32.5000   38.5080 N   0  0  0  0  0  0  0  0  0  0  0  0
   41.2610   31.8010   36.6350 H   0  0  0  0  0  0  0  0  0  0  0  0
   39.2400   30.7300   37.2250 H   0  0  0  0  0  0  0  0  0  0  0  0
   40.6660   35.5930   39.7660 Cl  0  0  0  0  0  0  0  0  0  0  0  0
   41.8590   34.7890   40.7590 C   0  0  0  0  0  0  0  0  0  0  0  0
   42.0320   33.4070   40.6960 C   0  0  0  0  0  0  0  0  0  0  0  0
   42.9780   32.8930   41.5170 C   0  0  0  0  0  0  0  0  0  0  0  0
   43.7540   33.6420   42.3870 C   0  0  0  0  0  0  0  0  0  0  0  0
   43.5680   34.9980   42.4320 C   0  0  0  0  0  0  0  0  0  0  0  0
   44.6010   35.8490   43.5620 Cl  0  0  0  0  0  0  0  0  0  0  0  0
   42.6230   35.5710   41.6210 C   0  0  0  0  0  0  0  0  0  0  0  0
   43.1230   31.8170   41.4780 H   0  0  0  0  0  0  0  0  0  0  0  0
   44.4870   33.1050   43.0000 H   0  0  0  0  0  0  0  0  0  0  0  0
   42.5120   36.6410   41.6910 H   0  0  0  0  0  0  0  0  0  0  0  0
   36.7080   26.3390   39.7960 C   0  0  0  0  0  0  0  0  0  0  0  0
   37.0620   27.1520   40.8670 C   0  0  0  0  0  0  0  0  0  0  0  0
   37.4080   26.5630   42.0690 C   0  0  0  0  0  0  0  0  0  0  0  0
   37.6850   27.2130   42.9060 H   0  0  0  0  0  0  0  0  0  0  0  0
   37.4180   25.1940   42.2550 C   0  0  0  0  0  0  0  0  0  0  0  0
   37.6860   24.7230   43.1890 H   0  0  0  0  0  0  0  0  0  0  0  0
   37.0590   24.4270   41.1630 C   0  0  0  0  0  3  0  0  0  0  0  0
   36.6980   24.9530   39.9180 C   0  0  0  0  0  3  0  0  0  0  0  0
   36.0260   27.3780   37.4890 N   0  0  0  0  0  0  0  0  0  0  0  0
   36.3400   26.9190   38.5220 C   0  0  0  0  0  0  0  0  0  0  0  0
  1  2  1  0  0  0  0
  2  7  1  0  0  0  0
  3  2  2  0  0  0  0
  3  4  1  0  0  0  0
  4  5  2  0  0  0  0
  5  9  1  0  0  0  0
  5  6  1  0  0  0  0
  6 10  1  0  0  0  0
  7 31  1  0  0  0  0
  7  6  2  0  0  0  0
  8  4  1  0  0  0  0
 11 12  2  0  0  0  0
 11 16  1  0  0  0  0
 12 13  1  0  0  0  0
 13  3  1  0  0  0  0
 13 14  2  0  0  0  0
 15 14  1  0  0  0  0
 15 21  1  0  0  0  0
 16 15  2  0  0  0  0
 17 11  1  0  0  0  0
 18 12  1  0  0  0  0
 19 20  1  0  0  0  0
 20 26  1  0  0  0  0
 21 20  2  0  0  0  0
 21 22  1  0  0  0  0
 22 23  2  0  0  0  0
 23 24  1  0  0  0  0
 23 28  1  0  0  0  0
 24 25  1  0  0  0  0
 26 29  1  0  0  0  0
 26 24  2  0  0  0  0
 27 22  1  0  0  0  0
 30 37  2  0  0  0  0
 30 31  1  0  0  0  0
 31 32  2  0  0  0  0
 32 34  1  0  0  0  0
 32 33  1  0  0  0  0
 34 35  1  0  0  0  0
 36 34  2  0  0  0  0
 37 36  1  0  0  0  0
 38 39  3  0  0  0  0
 39 30  1  0  0  0  0
M  END
>  <minimizedAffinity>
-6.67001438

$$$$

 OpenBabel03242514313D

 39 42  0  0  0  0  0  0  0  0999 V2000
   39.8240   31.8100   41.8200 Cl  0  0  0  0  0  0  0  0  0  0  0  0
   39.8970   32.0080   40.0840 C   0  0  0  0  0  0  0  0  0  0  0  0
   39.0380   31.3170   39.2990 C   0  0  0  0  0  0  0  0  0  0  0  0
   39.2870   31.4270   37.9420 C   0  0  0  0  0  0  0  0  0  0  0  0
   40.3090   32.1680   37.3830 C   0  0  0  0  0  0  0  0  0  0  0  0
   41.1530   32.8580   38.2380 C   0  0  0  0  0  0  0  0  0  0  0  0
   40.9360   32.7720   39.5900 C   0  0  0  0  0  0  0  0  0  0  0  0
   38.5740   30.8530   37.3250 H   0  0  0  0  0  0  0  0  0  0  0  0
   40.3120   32.1060   36.3070 H   0  0  0  0  0  0  0  0  0  0  0  0
   41.9290   33.4170   37.7300 H   0  0  0  0  0  0  0  0  0  0  0  0
   35.8310   30.2950   40.9160 C   0  0  0  0  0  0  0  0  0  0  0  0
   36.8160   31.1120   40.3340 C   0  0  0  0  0  0  0  0  0  0  0  0
   37.9780   30.5260   39.8570 C   0  0  0  0  0  0  0  0  0  0  0  0
   38.0920   29.1820   39.9770 N   0  0  0  0  0  0  0  0  0  0  0  0
   37.1460   28.4040   40.5280 C   0  0  0  0  0  0  0  0  0  0  0  0
   36.0150   28.9570   41.0020 N   0  0  0  0  0  0  0  0  0  0  0  0
   34.8830   30.6080   41.3320 H   0  0  0  0  0  0  0  0  0  0  0  0
   36.4380   32.0820   40.3370 H   0  0  0  0  0  0  0  0  0  0  0  0
   38.3030   27.2380   43.1030 Cl  0  0  0  0  0  0  0  0  0  0  0  0
   37.8110   26.3240   41.6970 C   0  0  0  0  0  0  0  0  0  0  0  0
   37.2890   26.9620   40.5730 C   0  0  0  0  0  0  0  0  0  0  0  0
   36.9330   26.1520   39.5480 C   0  0  0  0  0  0  0  0  0  0  0  0
   37.0560   24.7710   39.5580 C   0  0  0  0  0  0  0  0  0  0  0  0
   37.5720   24.1660   40.6730 C   0  0  0  0  0  0  0  0  0  0  0  0
   37.6850   22.4210   40.5800 Cl  0  0  0  0  0  0  0  0  0  0  0  0
   37.9480   24.9390   41.7400 C   0  0  0  0  0  0  0  0  0  0  0  0
   36.5250   26.6360   38.6650 H   0  0  0  0  0  0  0  0  0  0  0  0
   36.7310   24.2290   38.6630 H   0  0  0  0  0  0  0  0  0  0  0  0
   38.3490   24.4180   42.5950 H   0  0  0  0  0  0  0  0  0  0  0  0
   41.4480   34.7960   40.8070 C   0  0  0  0  0  0  0  0  0  0  0  0
   41.8310   33.5070   40.4560 C   0  0  0  0  0  0  0  0  0  0  0  0
   43.0240   33.0050   40.9430 C   0  0  0  0  0  0  0  0  0  0  0  0
   43.3160   31.9890   40.6600 H   0  0  0  0  0  0  0  0  0  0  0  0
   43.8580   33.7340   41.7700 C   0  0  0  0  0  0  0  0  0  0  0  0
   44.7920   33.3540   42.1560 H   0  0  0  0  0  0  0  0  0  0  0  0
   43.4360   35.0100   42.0920 C   0  0  0  0  0  3  0  0  0  0  0  0
   42.2430   35.5810   41.6360 C   0  0  0  0  0  3  0  0  0  0  0  0
   39.2030   35.8220   39.9290 N   0  0  0  0  0  0  0  0  0  0  0  0
   40.2070   35.3540   40.3160 C   0  0  0  0  0  0  0  0  0  0  0  0
  2  1  1  0  0  0  0
  3 13  1  0  0  0  0
  3  2  2  0  0  0  0
  4  3  1  0  0  0  0
  5  4  2  0  0  0  0
  5  6  1  0  0  0  0
  6  7  2  0  0  0  0
  7  2  1  0  0  0  0
  7 31  1  0  0  0  0
  8  4  1  0  0  0  0
  9  5  1  0  0  0  0
 10  6  1  0  0  0  0
 11 16  1  0  0  0  0
 11 17  1  0  0  0  0
 12 18  1  0  0  0  0
 12 11  2  0  0  0  0
 13 14  2  0  0  0  0
 13 12  1  0  0  0  0
 14 15  1  0  0  0  0
 15 21  1  0  0  0  0
 15 16  2  0  0  0  0
 20 26  1  0  0  0  0
 20 19  1  0  0  0  0
 21 20  2  0  0  0  0
 22 23  2  0  0  0  0
 22 21  1  0  0  0  0
 23 24  1  0  0  0  0
 24 26  2  0  0  0  0
 25 24  1  0  0  0  0
 26 29  1  0  0  0  0
 27 22  1  0  0  0  0
 28 23  1  0  0  0  0
 30 37  1  0  0  0  0
 31 30  2  0  0  0  0
 31 32  1  0  0  0  0
 32 34  2  0  0  0  0
 33 32  1  0  0  0  0
 34 36  1  0  0  0  0
 34 35  1  0  0  0  0
 37 36  2  0  0  0  0
 38 39  3  0  0  0  0
 39 30  1  0  0  0  0
M  END
>  <minimizedAffinity>
-6.52332211

$$$$

 OpenBabel03242514313D

 39 42  0  0  0  0  0  0  0  0999 V2000
   41.0780   31.5480   39.2620 Cl  0  0  0  0  0  0  0  0  0  0  0  0
   40.5880   33.1320   39.8160 C   0  0  0  0  0  0  0  0  0  0  0  0
   39.3460   33.3030   40.3280 C   0  0  0  0  0  0  0  0  0  0  0  0
   39.0090   34.6200   40.5860 C   0  0  0  0  0  0  0  0  0  0  0  0
   39.8320   35.7060   40.3630 C   0  0  0  0  0  0  0  0  0  0  0  0
   41.0940   35.4670   39.8420 C   0  0  0  0  0  0  0  0  0  0  0  0
   41.4620   34.1730   39.5740 C   0  0  0  0  0  0  0  0  0  0  0  0
   37.9920   34.7310   41.0010 H   0  0  0  0  0  0  0  0  0  0  0  0
   39.3600   36.6340   40.6370 H   0  0  0  0  0  0  0  0  0  0  0  0
   41.6830   36.3640   39.6950 H   0  0  0  0  0  0  0  0  0  0  0  0
   36.2830   31.1840   40.5910 C   0  0  0  0  0  0  0  0  0  0  0  0
   37.1060   32.2870   40.3050 C   0  0  0  0  0  0  0  0  0  0  0  0
   38.4660   32.1920   40.5530 C   0  0  0  0  0  0  0  0  0  0  0  0
   38.9260   31.0210   41.0570 N   0  0  0  0  0  0  0  0  0  0  0  0
   38.1370   29.9680   41.3240 C   0  0  0  0  0  0  0  0  0  0  0  0
   36.8130   30.0460   41.0950 N   0  0  0  0  0  0  0  0  0  0  0  0
   35.2120   31.1150   40.4550 H   0  0  0  0  0  0  0  0  0  0  0  0
   36.4910   33.0180   39.8890 H   0  0  0  0  0  0  0  0  0  0  0  0
   39.1250   28.0240   39.1860 Cl  0  0  0  0  0  0  0  0  0  0  0  0
   39.1640   27.7520   40.9120 C   0  0  0  0  0  0  0  0  0  0  0  0
   38.6890   28.7150   41.8010 C   0  0  0  0  0  0  0  0  0  0  0  0
   38.7780   28.3990   43.1150 C   0  0  0  0  0  0  0  0  0  0  0  0
   39.3000   27.2120   43.6040 C   0  0  0  0  0  0  0  0  0  0  0  0
   39.7600   26.2800   42.7120 C   0  0  0  0  0  0  0  0  0  0  0  0
   40.3960   24.8170   43.4350 Cl  0  0  0  0  0  0  0  0  0  0  0  0
   39.6940   26.5490   41.3700 C   0  0  0  0  0  0  0  0  0  0  0  0
   38.4110   29.1410   43.8190 H   0  0  0  0  0  0  0  0  0  0  0  0
   39.3160   27.0780   44.6920 H   0  0  0  0  0  0  0  0  0  0  0  0
   40.0680   25.7860   40.7060 H   0  0  0  0  0  0  0  0  0  0  0  0
   43.8380   33.9270   39.9430 C   0  0  0  0  0  0  0  0  0  0  0  0
   42.7860   33.9560   39.0340 C   0  0  0  0  0  0  0  0  0  0  0  0
   43.0570   33.7790   37.6900 C   0  0  0  0  0  0  0  0  0  0  0  0
   42.2220   33.8040   36.9830 H   0  0  0  0  0  0  0  0  0  0  0  0
   44.3350   33.5740   37.2070 C   0  0  0  0  0  0  0  0  0  0  0  0
   44.5590   33.4350   36.1590 H   0  0  0  0  0  0  0  0  0  0  0  0
   45.3480   33.5540   38.1460 C   0  0  0  0  0  3  0  0  0  0  0  0
   45.1480   33.7250   39.5210 C   0  0  0  0  0  3  0  0  0  0  0  0
   43.4130   34.2520   42.5080 N   0  0  0  0  0  0  0  0  0  0  0  0
   43.5930   34.1090   41.3580 C   0  0  0  0  0  0  0  0  0  0  0  0
  1  2  1  0  0  0  0
  2  3  1  0  0  0  0
  3 13  1  0  0  0  0
  3  4  2  0  0  0  0
  4  8  1  0  0  0  0
  5  4  1  0  0  0  0
  5  9  1  0  0  0  0
  6  5  2  0  0  0  0
  7  2  2  0  0  0  0
  7  6  1  0  0  0  0
 10  6  1  0  0  0  0
 11 16  1  0  0  0  0
 12 13  1  0  0  0  0
 12 11  2  0  0  0  0
 13 14  2  0  0  0  0
 14 15  1  0  0  0  0
 15 21  1  0  0  0  0
 16 15  2  0  0  0  0
 17 11  1  0  0  0  0
 18 12  1  0  0  0  0
 19 20  1  0  0  0  0
 20 26  2  0  0  0  0
 20 21  1  0  0  0  0
 21 22  2  0  0  0  0
 22 23  1  0  0  0  0
 22 27  1  0  0  0  0
 23 28  1  0  0  0  0
 24 25  1  0  0  0  0
 24 23  2  0  0  0  0
 26 24  1  0  0  0  0
 29 26  1  0  0  0  0
 30 39  1  0  0  0  0
 31  7  1  0  0  0  0
 31 30  2  0  0  0  0
 32 31  1  0  0  0  0
 33 32  1  0  0  0  0
 34 32  2  0  0  0  0
 34 36  1  0  0  0  0
 35 34  1  0  0  0  0
 36 37  2  0  0  0  0
 37 30  1  0  0  0  0
 39 38  3  0  0  0  0
M  END
>  <minimizedAffinity>
-6.47332382

$$$$

 OpenBabel03242514313D

 39 42  0  0  0  0  0  0  0  0999 V2000
   41.0070   30.3930   40.1940 Cl  0  0  0  0  0  0  0  0  0  0  0  0
   39.3750   30.8600   39.7780 C   0  0  0  0  0  0  0  0  0  0  0  0
   38.3400   30.0820   40.1700 C   0  0  0  0  0  0  0  0  0  0  0  0
   37.1120   30.4570   39.6540 C   0  0  0  0  0  0  0  0  0  0  0  0
   36.9040   31.5280   38.8080 C   0  0  0  0  0  0  0  0  0  0  0  0
   38.0030   32.2910   38.4450 C   0  0  0  0  0  0  0  0  0  0  0  0
   39.2350   31.9470   38.9380 C   0  0  0  0  0  0  0  0  0  0  0  0
   36.2850   29.8050   39.9890 H   0  0  0  0  0  0  0  0  0  0  0  0
   35.8670   31.6300   38.5320 H   0  0  0  0  0  0  0  0  0  0  0  0
   37.7630   33.1140   37.7820 H   0  0  0  0  0  0  0  0  0  0  0  0
   38.9480   27.9760   43.1940 C   0  0  0  0  0  0  0  0  0  0  0  0
   38.7130   29.1130   42.4010 C   0  0  0  0  0  0  0  0  0  0  0  0
   38.5330   28.9530   41.0360 C   0  0  0  0  0  0  0  0  0  0  0  0
   38.5870   27.6910   40.5440 N   0  0  0  0  0  0  0  0  0  0  0  0
   38.8060   26.6080   41.3070 C   0  0  0  0  0  0  0  0  0  0  0  0
   38.9900   26.7460   42.6330 N   0  0  0  0  0  0  0  0  0  0  0  0
   39.1110   27.9480   44.2630 H   0  0  0  0  0  0  0  0  0  0  0  0
   38.6790   29.9270   43.0490 H   0  0  0  0  0  0  0  0  0  0  0  0
   36.6110   24.7390   42.3150 Cl  0  0  0  0  0  0  0  0  0  0  0  0
   37.8350   24.3360   41.1340 C   0  0  0  0  0  0  0  0  0  0  0  0
   38.7900   25.2730   40.7410 C   0  0  0  0  0  0  0  0  0  0  0  0
   39.6820   24.8520   39.8130 C   0  0  0  0  0  0  0  0  0  0  0  0
   39.6930   23.5840   39.2530 C   0  0  0  0  0  0  0  0  0  0  0  0
   38.7460   22.6800   39.6540 C   0  0  0  0  0  0  0  0  0  0  0  0
   38.8530   21.1090   38.8860 Cl  0  0  0  0  0  0  0  0  0  0  0  0
   37.8190   23.0540   40.5910 C   0  0  0  0  0  0  0  0  0  0  0  0
   40.4320   25.5720   39.4990 H   0  0  0  0  0  0  0  0  0  0  0  0
   40.4700   23.3680   38.5100 H   0  0  0  0  0  0  0  0  0  0  0  0
   37.0930   22.3090   40.8760 H   0  0  0  0  0  0  0  0  0  0  0  0
   40.5530   33.9500   39.2450 C   0  0  0  0  0  0  0  0  0  0  0  0
   40.3610   32.7650   38.5440 C   0  0  0  0  0  0  0  0  0  0  0  0
   41.2390   32.4380   37.5280 C   0  0  0  0  0  0  0  0  0  0  0  0
   41.0790   31.5030   36.9820 H   0  0  0  0  0  0  0  0  0  0  0  0
   42.3060   33.2420   37.1750 C   0  0  0  0  0  0  0  0  0  0  0  0
   42.9990   32.9980   36.3830 H   0  0  0  0  0  0  0  0  0  0  0  0
   42.4570   34.4090   37.8990 C   0  0  0  0  0  3  0  0  0  0  0  0
   41.6080   34.8040   38.9390 C   0  0  0  0  0  3  0  0  0  0  0  0
   38.9190   34.6450   41.1720 N   0  0  0  0  0  0  0  0  0  0  0  0
   39.6540   34.3260   40.3150 C   0  0  0  0  0  0  0  0  0  0  0  0
  2  3  1  0  0  0  0
  2  1  1  0  0  0  0
  3 13  1  0  0  0  0
  4  8  1  0  0  0  0
  4  3  2  0  0  0  0
  5  4  1  0  0  0  0
  6  5  2  0  0  0  0
  6  7  1  0  0  0  0
  7  2  2  0  0  0  0
  9  5  1  0  0  0  0
 10  6  1  0  0  0  0
 11 17  1  0  0  0  0
 12 18  1  0  0  0  0
 12 11  2  0  0  0  0
 13 12  1  0  0  0  0
 14 13  2  0  0  0  0
 14 15  1  0  0  0  0
 15 16  2  0  0  0  0
 16 11  1  0  0  0  0
 20 19  1  0  0  0  0
 21 20  1  0  0  0  0
 21 15  1  0  0  0  0
 22 21  2  0  0  0  0
 23 24  2  0  0  0  0
 23 22  1  0  0  0  0
 24 26  1  0  0  0  0
 25 24  1  0  0  0  0
 26 29  1  0  0  0  0
 26 20  2  0  0  0  0
 27 22  1  0  0  0  0
 28 23  1  0  0  0  0
 30 39  1  0  0  0  0
 31  7  1  0  0  0  0
 31 30  2  0  0  0  0
 32 31  1  0  0  0  0
 33 32  1  0  0  0  0
 34 32  2  0  0  0  0
 34 36  1  0  0  0  0
 35 34  1  0  0  0  0
 36 37  2  0  0  0  0
 37 30  1  0  0  0  0
 39 38  3  0  0  0  0
M  END
>  <minimizedAffinity>
-6.23928118

$$$$

 OpenBabel03242514313D

 39 42  0  0  0  0  0  0  0  0999 V2000
   40.3510   28.7890   41.0930 Cl  0  0  0  0  0  0  0  0  0  0  0  0
   39.0540   28.3300   42.1720 C   0  0  0  0  0  0  0  0  0  0  0  0
   37.8240   28.8670   42.0000 C   0  0  0  0  0  0  0  0  0  0  0  0
   36.9190   28.5600   43.0000 C   0  0  0  0  0  0  0  0  0  0  0  0
   37.1940   27.7740   44.1010 C   0  0  0  0  0  0  0  0  0  0  0  0
   38.4710   27.2480   44.2200 C   0  0  0  0  0  0  0  0  0  0  0  0
   39.3940   27.5330   43.2470 C   0  0  0  0  0  0  0  0  0  0  0  0
   35.9240   29.0110   42.8350 H   0  0  0  0  0  0  0  0  0  0  0  0
   36.3390   27.6710   44.7480 H   0  0  0  0  0  0  0  0  0  0  0  0
   38.6120   26.6420   45.1070 H   0  0  0  0  0  0  0  0  0  0  0  0
   37.2460   31.8520   39.8310 C   0  0  0  0  0  0  0  0  0  0  0  0
   37.6050   31.0820   40.9510 C   0  0  0  0  0  0  0  0  0  0  0  0
   37.5190   29.7010   40.8720 C   0  0  0  0  0  0  0  0  0  0  0  0
   37.0940   29.1700   39.7000 N   0  0  0  0  0  0  0  0  0  0  0  0
   36.7580   29.9090   38.6300 C   0  0  0  0  0  0  0  0  0  0  0  0
   36.8290   31.2510   38.6920 N   0  0  0  0  0  0  0  0  0  0  0  0
   37.2570   32.9300   39.7480 H   0  0  0  0  0  0  0  0  0  0  0  0
   37.9320   31.7510   41.6800 H   0  0  0  0  0  0  0  0  0  0  0  0
   33.8720   28.9270   38.4390 Cl  0  0  0  0  0  0  0  0  0  0  0  0
   35.0810   28.8000   37.1840 C   0  0  0  0  0  0  0  0  0  0  0  0
   36.3720   29.2890   37.3770 C   0  0  0  0  0  0  0  0  0  0  0  0
   37.2200   29.1450   36.3320 C   0  0  0  0  0  0  0  0  0  0  0  0
   36.8840   28.5580   35.1220 C   0  0  0  0  0  0  0  0  0  0  0  0
   35.6100   28.0840   34.9540 C   0  0  0  0  0  0  0  0  0  0  0  0
   35.2920   27.3600   33.3910 Cl  0  0  0  0  0  0  0  0  0  0  0  0
   34.7110   28.2050   35.9800 C   0  0  0  0  0  0  0  0  0  0  0  0
   38.2300   29.5210   36.4700 H   0  0  0  0  0  0  0  0  0  0  0  0
   37.6640   28.5010   34.3540 H   0  0  0  0  0  0  0  0  0  0  0  0
   33.7200   27.8170   35.8020 H   0  0  0  0  0  0  0  0  0  0  0  0
   40.9340   25.7190   42.8250 C   0  0  0  0  0  0  0  0  0  0  0  0
   40.7160   26.9660   43.3980 C   0  0  0  0  0  0  0  0  0  0  0  0
   41.7540   27.5870   44.0690 C   0  0  0  0  0  0  0  0  0  0  0  0
   41.5710   28.5690   44.5160 H   0  0  0  0  0  0  0  0  0  0  0  0
   43.0070   27.0180   44.1960 C   0  0  0  0  0  0  0  0  0  0  0  0
   43.8250   27.4930   44.7170 H   0  0  0  0  0  0  0  0  0  0  0  0
   43.1770   25.7780   43.6110 C   0  0  0  0  0  3  0  0  0  0  0  0
   42.1730   25.0920   42.9180 C   0  0  0  0  0  3  0  0  0  0  0  0
   39.0230   24.4830   41.5270 N   0  0  0  0  0  0  0  0  0  0  0  0
   39.8720   25.0390   42.1160 C   0  0  0  0  0  0  0  0  0  0  0  0
  1  2  1  0  0  0  0
  2  7  1  0  0  0  0
  3  2  2  0  0  0  0
  3  4  1  0  0  0  0
  4  5  2  0  0  0  0
  5  6  1  0  0  0  0
  5  9  1  0  0  0  0
  6 10  1  0  0  0  0
  7 31  1  0  0  0  0
  7  6  2  0  0  0  0
  8  4  1  0  0  0  0
 11 12  1  0  0  0  0
 12 18  1  0  0  0  0
 13 12  2  0  0  0  0
 13  3  1  0  0  0  0
 14 13  1  0  0  0  0
 15 16  1  0  0  0  0
 15 14  2  0  0  0  0
 16 11  2  0  0  0  0
 17 11  1  0  0  0  0
 20 21  1  0  0  0  0
 20 19  1  0  0  0  0
 21 15  1  0  0  0  0
 22 27  1  0  0  0  0
 22 21  2  0  0  0  0
 23 22  1  0  0  0  0
 24 23  2  0  0  0  0
 24 26  1  0  0  0  0
 25 24  1  0  0  0  0
 26 20  2  0  0  0  0
 28 23  1  0  0  0  0
 29 26  1  0  0  0  0
 30 37  2  0  0  0  0
 30 31  1  0  0  0  0
 31 32  2  0  0  0  0
 32 34  1  0  0  0  0
 32 33  1  0  0  0  0
 34 35  1  0  0  0  0
 36 34  2  0  0  0  0
 37 36  1  0  0  0  0
 38 39  3  0  0  0  0
 39 30  1  0  0  0  0
M  END
>  <minimizedAffinity>
-6.20434761

$$$$

 OpenBabel03242514313D

 39 42  0  0  0  0  0  0  0  0999 V2000
   39.5220   28.2470   40.7410 Cl  0  0  0  0  0  0  0  0  0  0  0  0
   37.9860   29.0340   40.4600 C   0  0  0  0  0  0  0  0  0  0  0  0
   37.9500   30.3740   40.2740 C   0  0  0  0  0  0  0  0  0  0  0  0
   36.6760   30.9110   40.2200 C   0  0  0  0  0  0  0  0  0  0  0  0
   35.5070   30.1870   40.3370 C   0  0  0  0  0  0  0  0  0  0  0  0
   35.6080   28.8170   40.5210 C   0  0  0  0  0  0  0  0  0  0  0  0
   36.8560   28.2510   40.5800 C   0  0  0  0  0  0  0  0  0  0  0  0
   36.6750   32.0060   40.0680 H   0  0  0  0  0  0  0  0  0  0  0  0
   34.6340   30.8140   40.2650 H   0  0  0  0  0  0  0  0  0  0  0  0
   34.6520   28.3150   40.6030 H   0  0  0  0  0  0  0  0  0  0  0  0
   40.4900   33.0800   40.6900 C   0  0  0  0  0  0  0  0  0  0  0  0
   39.3130   32.3330   40.8720 C   0  0  0  0  0  0  0  0  0  0  0  0
   39.1520   31.1520   40.1660 C   0  0  0  0  0  0  0  0  0  0  0  0
   40.1570   30.7810   39.3360 N   0  0  0  0  0  0  0  0  0  0  0  0
   41.2820   31.4940   39.1700 C   0  0  0  0  0  0  0  0  0  0  0  0
   41.4520   32.6470   39.8430 N   0  0  0  0  0  0  0  0  0  0  0  0
   40.7500   34.0160   41.1660 H   0  0  0  0  0  0  0  0  0  0  0  0
   38.7520   32.8320   41.5940 H   0  0  0  0  0  0  0  0  0  0  0  0
   43.5460   29.9900   40.5630 Cl  0  0  0  0  0  0  0  0  0  0  0  0
   43.4430   30.3260   38.8510 C   0  0  0  0  0  0  0  0  0  0  0  0
   42.3560   31.0200   38.3190 C   0  0  0  0  0  0  0  0  0  0  0  0
   42.3790   31.2130   36.9790 C   0  0  0  0  0  0  0  0  0  0  0  0
   43.3890   30.7730   36.1390 C   0  0  0  0  0  0  0  0  0  0  0  0
   44.4470   30.0950   36.6830 C   0  0  0  0  0  0  0  0  0  0  0  0
   45.6670   29.5860   35.5340 Cl  0  0  0  0  0  0  0  0  0  0  0  0
   44.4750   29.8710   38.0340 C   0  0  0  0  0  0  0  0  0  0  0  0
   41.5390   31.7530   36.5520 H   0  0  0  0  0  0  0  0  0  0  0  0
   43.2890   30.9940   35.0700 H   0  0  0  0  0  0  0  0  0  0  0  0
   45.3270   29.3320   38.4170 H   0  0  0  0  0  0  0  0  0  0  0  0
   37.0130   26.3620   42.0800 C   0  0  0  0  0  0  0  0  0  0  0  0
   36.9280   26.8190   40.7700 C   0  0  0  0  0  0  0  0  0  0  0  0
   36.9170   25.8980   39.7380 C   0  0  0  0  0  0  0  0  0  0  0  0
   36.8490   26.2690   38.7100 H   0  0  0  0  0  0  0  0  0  0  0  0
   36.9870   24.5350   39.9530 C   0  0  0  0  0  0  0  0  0  0  0  0
   36.9800   23.8060   39.1560 H   0  0  0  0  0  0  0  0  0  0  0  0
   37.0710   24.1280   41.2710 C   0  0  0  0  0  3  0  0  0  0  0  0
   37.0870   25.0020   42.3640 C   0  0  0  0  0  3  0  0  0  0  0  0
   37.0460   28.0390   44.0930 N   0  0  0  0  0  0  0  0  0  0  0  0
   37.0270   27.2960   43.1850 C   0  0  0  0  0  0  0  0  0  0  0  0
  2  7  1  0  0  0  0
  2  1  1  0  0  0  0
  3  2  2  0  0  0  0
  4  3  1  0  0  0  0
  4  5  2  0  0  0  0
  5  6  1  0  0  0  0
  6  7  2  0  0  0  0
  6 10  1  0  0  0  0
  7 31  1  0  0  0  0
  8  4  1  0  0  0  0
  9  5  1  0  0  0  0
 11 12  1  0  0  0  0
 11 17  1  0  0  0  0
 12 18  1  0  0  0  0
 13  3  1  0  0  0  0
 13 12  2  0  0  0  0
 14 13  1  0  0  0  0
 15 14  2  0  0  0  0
 15 16  1  0  0  0  0
 16 11  2  0  0  0  0
 20 19  1  0  0  0  0
 21 20  1  0  0  0  0
 21 15  1  0  0  0  0
 22 21  2  0  0  0  0
 23 24  2  0  0  0  0
 23 22  1  0  0  0  0
 24 26  1  0  0  0  0
 25 24  1  0  0  0  0
 26 29  1  0  0  0  0
 26 20  2  0  0  0  0
 27 22  1  0  0  0  0
 28 23  1  0  0  0  0
 30 37  1  0  0  0  0
 30 39  1  0  0  0  0
 31 30  2  0  0  0  0
 32 34  2  0  0  0  0
 32 31  1  0  0  0  0
 33 32  1  0  0  0  0
 34 36  1  0  0  0  0
 35 34  1  0  0  0  0
 36 37  2  0  0  0  0
 39 38  3  0  0  0  0
M  END
>  <minimizedAffinity>
-6.1956358

$$$$
