
 OpenBabel03252507013D

 38 40  0  0  0  0  0  0  0  0999 V2000
   47.0500   30.3560   40.1570 N   0  0  0  0  0  0  0  0  0  0  0  0
   46.7180   30.4760   41.5440 C   0  0  0  0  0  0  0  0  0  0  0  0
   46.4320   29.0220   41.9310 C   0  0  0  0  0  0  0  0  0  0  0  0
   47.5390   28.0900   41.6610 C   0  0  0  0  0  0  0  0  0  0  0  0
   48.6030   28.5580   40.7140 C   0  0  0  0  0  0  0  0  0  0  0  0
   48.3570   29.7670   39.9070 C   0  0  0  0  0  0  0  0  0  0  0  0
   47.5560   30.7890   42.1520 H   0  0  0  0  0  0  0  0  0  0  0  0
   45.8840   31.1090   41.8210 H   0  0  0  0  0  0  0  0  0  0  0  0
   46.1980   29.0390   43.0160 H   0  0  0  0  0  0  0  0  0  0  0  0
   45.4750   28.7820   41.4280 H   0  0  0  0  0  0  0  0  0  0  0  0
   48.0930   27.8410   42.6140 H   0  0  0  0  0  0  0  0  0  0  0  0
   47.1090   27.1060   41.3590 H   0  0  0  0  0  0  0  0  0  0  0  0
   49.4790   28.0060   40.6600 H   0  0  0  0  0  0  0  0  0  0  0  0
   50.2670   31.2300   39.3100 C   0  0  0  0  0  0  0  0  0  0  0  0
   49.3320   30.2860   39.0350 C   0  0  0  0  0  0  0  0  0  0  0  0
   49.5200   29.7830   37.7880 C   0  0  0  0  0  0  0  0  0  0  0  0
   48.9150   29.0510   37.3100 H   0  0  0  0  0  0  0  0  0  0  0  0
   50.4970   30.1240   36.8800 C   0  0  0  0  0  0  0  0  0  0  0  0
   50.6280   29.7070   35.8940 H   0  0  0  0  0  0  0  0  0  0  0  0
   51.4370   31.0970   37.2210 C   0  0  0  0  0  3  0  0  0  0  0  0
   51.2800   31.6360   38.4760 C   0  0  0  0  0  3  0  0  0  0  0  0
   50.1110   32.6680   41.4750 N   0  0  0  0  0  0  0  0  0  0  0  0
   50.1890   32.0160   40.5090 C   0  0  0  0  0  0  0  0  0  0  0  0
   46.1880   30.5030   39.1320 C   0  0  0  0  0  0  0  0  0  0  0  0
   46.1450   30.0160   38.1890 H   0  0  0  0  0  0  0  0  0  0  0  0
   45.1200   30.0970   39.5400 H   0  0  0  0  0  0  0  0  0  0  0  0
   45.7440   31.9480   38.9930 C   0  0  0  0  0  0  0  0  0  0  0  0
   45.2680   32.3990   39.8450 H   0  0  0  0  0  0  0  0  0  0  0  0
   44.8980   31.8980   38.2280 H   0  0  0  0  0  0  0  0  0  0  0  0
   46.7800   32.6950   38.2940 C   0  0  0  0  0  0  0  0  0  0  0  0
   47.1330   32.3930   37.0030 C   0  0  0  0  0  0  0  0  0  0  0  0
   48.1380   33.1390   36.3820 C   0  0  0  0  0  0  0  0  0  0  0  0
   48.7150   34.1350   37.1020 N   0  0  0  0  0  0  0  0  0  0  0  0
   48.3440   34.3990   38.3580 C   0  0  0  0  0  0  0  0  0  0  0  0
   47.3880   33.6760   38.9260 N   0  0  0  0  0  0  0  0  0  0  0  0
   46.6800   31.6130   36.4370 H   0  0  0  0  0  0  0  0  0  0  0  0
   48.4970   32.9850   35.3600 H   0  0  0  0  0  0  0  0  0  0  0  0
   48.8190   35.2100   38.9320 H   0  0  0  0  0  0  0  0  0  0  0  0
  1  2  1  0  0  0  0
  2  8  1  0  0  0  0
  2  3  1  0  0  0  0
  2  7  1  0  0  0  0
  3  9  1  0  0  0  0
  4  3  1  0  0  0  0
  4 11  1  0  0  0  0
  5  4  1  0  0  0  0
  6  1  1  0  0  0  0
  6  5  2  0  0  0  0
 10  3  1  0  0  0  0
 12  4  1  0  0  0  0
 13  5  1  0  0  0  0
 14 23  1  0  0  0  0
 15 14  1  0  0  0  0
 15  6  1  0  0  0  0
 16 15  2  0  0  0  0
 17 16  1  0  0  0  0
 18 20  2  0  0  0  0
 18 16  1  0  0  0  0
 19 18  1  0  0  0  0
 20 21  1  0  0  0  0
 21 14  2  0  0  0  0
 23 22  3  0  0  0  0
 24 26  1  0  0  0  0
 24  1  1  0  0  0  0
 25 24  1  0  0  0  0
 27 24  1  0  0  0  0
 27 28  1  0  0  0  0
 29 27  1  0  0  0  0
 30 35  1  0  0  0  0
 30 27  1  0  0  0  0
 31 30  2  0  0  0  0
 32 31  1  0  0  0  0
 32 33  2  0  0  0  0
 33 34  1  0  0  0  0
 34 35  2  0  0  0  0
 34 38  1  0  0  0  0
 36 31  1  0  0  0  0
 37 32  1  0  0  0  0
M  END
>  <minimizedAffinity>
-2.41476989

>  <minimizedRMSD>
6.9450841

$$$$
