
 OpenBabel03252500363D

 47 50  0  0  1  0  0  0  0  0999 V2000
   46.2080   34.6600   43.2980 C   0  0  1  0  0  0  0  0  0  0  0  0
   45.0200   34.1410   43.8190 C   0  0  0  0  0  0  0  0  0  0  0  0
   46.1750   34.0430   44.7270 C   0  0  1  0  0  0  0  0  0  0  0  0
   46.3940   35.7710   43.2760 H   0  0  0  0  0  0  0  0  0  0  0  0
   44.1750   34.8290   44.0770 H   0  0  0  0  0  0  0  0  0  0  0  0
   44.6140   33.1620   43.4360 H   0  0  0  0  0  0  0  0  0  0  0  0
   46.4200   34.8070   45.4810 H   0  0  0  0  0  0  0  0  0  0  0  0
   46.5490   32.9870   41.4750 C   0  0  0  0  0  0  0  0  0  0  0  0
   47.1170   33.9990   42.3120 C   0  0  0  0  0  0  0  0  0  0  0  0
   48.4330   34.3200   42.1930 C   0  0  0  0  0  0  0  0  0  0  0  0
   49.1540   33.6280   41.2460 N   0  0  0  0  0  0  0  0  0  0  0  0
   48.6050   32.6760   40.4620 C   0  0  0  0  0  0  0  0  0  0  0  0
   47.2790   32.3240   40.5520 N   0  0  0  0  0  0  0  0  0  0  0  0
   45.5180   32.7360   41.5690 H   0  0  0  0  0  0  0  0  0  0  0  0
   48.8720   35.0730   42.8120 H   0  0  0  0  0  0  0  0  0  0  0  0
   49.4660   32.4070   38.1680 C   0  0  0  0  0  0  0  0  0  0  0  0
   49.4470   31.9970   39.4840 C   0  0  0  0  0  0  0  0  0  0  0  0
   50.2160   30.9390   39.9230 C   0  0  0  0  0  0  0  0  0  0  0  0
   50.2500   30.5690   40.9250 H   0  0  0  0  0  0  0  0  0  0  0  0
   51.0260   30.2740   39.0170 C   0  0  0  0  0  0  0  0  0  0  0  0
   51.6750   29.4240   39.2570 H   0  0  0  0  0  0  0  0  0  0  0  0
   51.0830   30.6490   37.6700 C   0  0  0  0  0  3  0  0  0  0  0  0
   50.2930   31.7160   37.2780 C   0  0  0  0  0  3  0  0  0  0  0  0
   48.0000   34.3880   37.3770 N   0  0  0  0  0  0  0  0  0  0  0  0
   48.6590   33.5080   37.7390 C   0  0  0  0  0  0  0  0  0  0  0  0
   46.8360   32.7380   44.9650 C   0  0  0  0  0  0  0  0  0  0  0  0
   47.8620   32.9240   45.3190 H   0  0  0  0  0  0  0  0  0  0  0  0
   46.8980   32.1420   44.0320 H   0  0  0  0  0  0  0  0  0  0  0  0
   46.1070   32.0730   45.9850 N   0  0  0  0  0  0  0  0  0  0  0  0
   45.9770   32.7020   47.2270 C   0  0  0  0  0  0  0  0  0  0  0  0
   47.1190   32.3090   48.1850 C   0  0  0  0  0  0  0  0  0  0  0  0
   46.9290   30.8490   48.5000 C   0  0  0  0  0  0  0  0  0  0  0  0
   47.0230   30.1120   47.1940 C   0  0  0  0  0  0  0  0  0  0  0  0
   46.1810   30.6780   46.0840 C   0  0  2  0  0  0  0  0  0  0  0  0
   45.0820   32.2100   47.7210 H   0  0  0  0  0  0  0  0  0  0  0  0
   45.7220   33.7590   47.2760 H   0  0  0  0  0  0  0  0  0  0  0  0
   48.0920   32.4590   47.7050 H   0  0  0  0  0  0  0  0  0  0  0  0
   46.9810   32.9210   49.0920 H   0  0  0  0  0  0  0  0  0  0  0  0
   47.8060   30.5310   49.1100 H   0  0  0  0  0  0  0  0  0  0  0  0
   46.0020   30.6570   49.0510 H   0  0  0  0  0  0  0  0  0  0  0  0
   48.0560   30.0320   46.8620 H   0  0  0  0  0  0  0  0  0  0  0  0
   46.6700   29.0610   47.3820 H   0  0  0  0  0  0  0  0  0  0  0  0
   45.1420   30.2740   46.2390 H   0  0  0  0  0  0  0  0  0  0  0  0
   46.6700   30.0420   44.7900 C   0  0  0  0  0  0  0  0  0  0  0  0
   47.7480   30.2730   44.6230 H   0  0  0  0  0  0  0  0  0  0  0  0
   46.4910   28.9450   44.8380 H   0  0  0  0  0  0  0  0  0  0  0  0
   46.0310   30.4000   43.9520 H   0  0  0  0  0  0  0  0  0  0  0  0
  1  4  1  6  0  0  0
  1  2  1  0  0  0  0
  1  3  1  0  0  0  0
  2  5  1  0  0  0  0
  2  3  1  0  0  0  0
  3 26  1  0  0  0  0
  3  7  1  1  0  0  0
  6  2  1  0  0  0  0
  8 14  1  0  0  0  0
  8  9  1  0  0  0  0
  9  1  1  0  0  0  0
 10  9  2  0  0  0  0
 10 15  1  0  0  0  0
 11 10  1  0  0  0  0
 12 13  1  0  0  0  0
 12 11  2  0  0  0  0
 13  8  2  0  0  0  0
 16 17  1  0  0  0  0
 17 18  2  0  0  0  0
 17 12  1  0  0  0  0
 18 19  1  0  0  0  0
 20 21  1  0  0  0  0
 20 18  1  0  0  0  0
 22 20  2  0  0  0  0
 23 22  1  0  0  0  0
 23 16  2  0  0  0  0
 24 25  3  0  0  0  0
 25 16  1  0  0  0  0
 26 27  1  0  0  0  0
 26 29  1  0  0  0  0
 28 26  1  0  0  0  0
 29 34  1  0  0  0  0
 29 30  1  0  0  0  0
 30 36  1  0  0  0  0
 30 35  1  0  0  0  0
 30 31  1  0  0  0  0
 31 32  1  0  0  0  0
 31 38  1  0  0  0  0
 32 40  1  0  0  0  0
 32 39  1  0  0  0  0
 33 42  1  0  0  0  0
 33 32  1  0  0  0  0
 34 43  1  1  0  0  0
 34 33  1  0  0  0  0
 37 31  1  0  0  0  0
 41 33  1  0  0  0  0
 44 46  1  0  0  0  0
 44 34  1  0  0  0  0
 45 44  1  0  0  0  0
 47 44  1  0  0  0  0
M  END
>  <minimizedAffinity>
-4.60352039

>  <minimizedRMSD>
3.12620759

$$$$
