
 OpenBabel03242514303D

 39 42  0  0  0  0  0  0  0  0999 V2000
   49.3950   32.9690   38.0030 Cl  0  0  0  0  0  0  0  0  0  0  0  0
   47.6630   32.8960   37.7770 C   0  0  0  0  0  0  0  0  0  0  0  0
   46.8450   33.3460   38.7560 C   0  0  0  0  0  0  0  0  0  0  0  0
   45.5010   33.0960   38.5410 C   0  0  0  0  0  0  0  0  0  0  0  0
   44.9840   32.4490   37.4370 C   0  0  0  0  0  0  0  0  0  0  0  0
   45.8720   32.0150   36.4640 C   0  0  0  0  0  0  0  0  0  0  0  0
   47.2110   32.2450   36.6460 C   0  0  0  0  0  0  0  0  0  0  0  0
   44.8560   33.4730   39.3550 H   0  0  0  0  0  0  0  0  0  0  0  0
   43.9110   32.3650   37.4820 H   0  0  0  0  0  0  0  0  0  0  0  0
   45.3950   31.5170   35.6280 H   0  0  0  0  0  0  0  0  0  0  0  0
   48.8650   35.5370   41.0060 C   0  0  0  0  0  0  0  0  0  0  0  0
   48.3640   34.9570   39.8280 C   0  0  0  0  0  0  0  0  0  0  0  0
   47.3590   34.0080   39.9220 C   0  0  0  0  0  0  0  0  0  0  0  0
   46.9100   33.6980   41.1620 N   0  0  0  0  0  0  0  0  0  0  0  0
   47.3870   34.2590   42.2840 C   0  0  0  0  0  0  0  0  0  0  0  0
   48.3680   35.1770   42.2120 N   0  0  0  0  0  0  0  0  0  0  0  0
   49.6460   36.2810   41.0880 H   0  0  0  0  0  0  0  0  0  0  0  0
   48.8600   35.4170   39.0350 H   0  0  0  0  0  0  0  0  0  0  0  0
   45.0780   36.0200   43.2290 Cl  0  0  0  0  0  0  0  0  0  0  0  0
   45.7730   34.6830   44.1140 C   0  0  0  0  0  0  0  0  0  0  0  0
   46.8260   33.9400   43.5830 C   0  0  0  0  0  0  0  0  0  0  0  0
   47.2770   32.9220   44.3540 C   0  0  0  0  0  0  0  0  0  0  0  0
   46.7640   32.5910   45.5980 C   0  0  0  0  0  0  0  0  0  0  0  0
   45.7300   33.3350   46.1010 C   0  0  0  0  0  0  0  0  0  0  0  0
   45.1590   32.8340   47.6790 Cl  0  0  0  0  0  0  0  0  0  0  0  0
   45.2350   34.3770   45.3620 C   0  0  0  0  0  0  0  0  0  0  0  0
   48.0990   32.3350   43.9520 H   0  0  0  0  0  0  0  0  0  0  0  0
   47.2180   31.7420   46.1220 H   0  0  0  0  0  0  0  0  0  0  0  0
   44.4200   34.9340   45.7980 H   0  0  0  0  0  0  0  0  0  0  0  0
   48.5870   30.4820   35.7290 C   0  0  0  0  0  0  0  0  0  0  0  0
   48.1110   31.7830   35.6120 C   0  0  0  0  0  0  0  0  0  0  0  0
   48.5170   32.5520   34.5360 C   0  0  0  0  0  0  0  0  0  0  0  0
   48.1370   33.5740   34.4540 H   0  0  0  0  0  0  0  0  0  0  0  0
   49.3790   32.0800   33.5640 C   0  0  0  0  0  0  0  0  0  0  0  0
   49.7020   32.6690   32.7210 H   0  0  0  0  0  0  0  0  0  0  0  0
   49.8240   30.7820   33.7220 C   0  0  0  0  0  3  0  0  0  0  0  0
   49.4580   29.9480   34.7840 C   0  0  0  0  0  3  0  0  0  0  0  0
   47.8420   28.9830   37.7430 N   0  0  0  0  0  0  0  0  0  0  0  0
   48.1850   29.6480   36.8410 C   0  0  0  0  0  0  0  0  0  0  0  0
  2  1  1  0  0  0  0
  2  3  1  0  0  0  0
  3 13  1  0  0  0  0
  4  3  2  0  0  0  0
  4  8  1  0  0  0  0
  5  9  1  0  0  0  0
  5  4  1  0  0  0  0
  6  7  1  0  0  0  0
  6  5  2  0  0  0  0
  7  2  2  0  0  0  0
 10  6  1  0  0  0  0
 11 17  1  0  0  0  0
 11 16  1  0  0  0  0
 12 13  1  0  0  0  0
 12 11  2  0  0  0  0
 13 14  2  0  0  0  0
 14 15  1  0  0  0  0
 15 21  1  0  0  0  0
 16 15  2  0  0  0  0
 18 12  1  0  0  0  0
 19 20  1  0  0  0  0
 20 26  1  0  0  0  0
 21 20  2  0  0  0  0
 21 22  1  0  0  0  0
 22 23  2  0  0  0  0
 23 24  1  0  0  0  0
 23 28  1  0  0  0  0
 24 25  1  0  0  0  0
 26 29  1  0  0  0  0
 26 24  2  0  0  0  0
 27 22  1  0  0  0  0
 30 39  1  0  0  0  0
 31 30  1  0  0  0  0
 31  7  1  0  0  0  0
 32 31  2  0  0  0  0
 33 32  1  0  0  0  0
 34 36  2  0  0  0  0
 34 32  1  0  0  0  0
 35 34  1  0  0  0  0
 36 37  1  0  0  0  0
 37 30  2  0  0  0  0
 39 38  3  0  0  0  0
M  END
>  <minimizedAffinity>
-5.96540689

>  <minimizedRMSD>
1.5782336

$$$$
