
 OpenBabel03242523233D

 44 47  0  0  1  0  0  0  0  0999 V2000
   47.2270   32.9440   43.4400 C   0  0  0  0  0  0  0  0  0  0  0  0
   47.8140   33.2290   42.2830 C   0  0  0  0  0  0  0  0  0  0  0  0
   48.6800   32.2920   41.8340 C   0  0  0  0  0  0  0  0  0  0  0  0
   48.8830   31.1290   42.6030 N   0  0  0  0  0  0  0  0  0  0  0  0
   48.2660   30.9060   43.7500 C   0  0  0  0  0  0  0  0  0  0  0  0
   47.3870   31.8360   44.2280 N   0  0  0  0  0  0  0  0  0  0  0  0
   49.3420   32.1480   41.0150 H   0  0  0  0  0  0  0  0  0  0  0  0
   48.4620   29.9750   44.3160 H   0  0  0  0  0  0  0  0  0  0  0  0
   47.7060   34.4200   41.5300 C   0  0  1  0  0  0  0  0  0  0  0  0
   48.5420   34.9730   40.6230 C   0  0  0  0  0  0  0  0  0  0  0  0
   47.2750   34.3700   40.0440 C   0  0  1  0  0  0  0  0  0  0  0  0
   47.1940   35.2310   42.1230 H   0  0  0  0  0  0  0  0  0  0  0  0
   48.6160   36.0760   40.3280 H   0  0  0  0  0  0  0  0  0  0  0  0
   49.5460   34.5580   40.4870 H   0  0  0  0  0  0  0  0  0  0  0  0
   46.4460   35.1000   39.7960 H   0  0  0  0  0  0  0  0  0  0  0  0
   46.7110   32.6950   38.2820 C   0  0  0  0  0  0  0  0  0  0  0  0
   47.6320   33.3740   39.0580 C   0  0  0  0  0  0  0  0  0  0  0  0
   48.8880   32.9250   38.6900 C   0  0  0  0  0  0  0  0  0  0  0  0
   49.7730   33.3600   39.1820 H   0  0  0  0  0  0  0  0  0  0  0  0
   49.3080   32.0080   37.7750 C   0  0  0  0  0  0  0  0  0  0  0  0
   50.3040   31.7280   37.5610 H   0  0  0  0  0  0  0  0  0  0  0  0
   48.2980   31.3990   37.0670 C   0  0  0  0  0  0  0  0  0  0  0  0
   46.9860   31.7290   37.3050 C   0  0  0  0  0  0  0  0  0  0  0  0
   44.1840   33.2260   38.3950 N   0  0  0  0  0  0  0  0  0  0  0  0
   45.3090   32.9840   38.3550 C   0  0  0  0  0  0  0  0  0  0  0  0
   46.2040   33.7500   44.1380 C   0  0  0  0  0  0  0  0  0  0  0  0
   45.7510   34.3280   45.0950 O   0  0  0  0  0  0  0  0  0  0  0  0
   44.4000   31.4300   43.2050 Cl  0  0  0  0  0  0  0  0  0  0  0  0
   44.1920   33.0870   42.6450 C   0  0  0  0  0  0  0  0  0  0  0  0
   45.0980   34.0370   43.1800 C   0  0  0  0  0  0  0  0  0  0  0  0
   44.8300   35.2870   42.6770 C   0  0  0  0  0  0  0  0  0  0  0  0
   43.9130   35.7000   41.8240 C   0  0  0  0  0  0  0  0  0  0  0  0
   43.0640   34.7380   41.3400 C   0  0  0  0  0  0  0  0  0  0  0  0
   43.1940   33.4300   41.7430 C   0  0  0  0  0  0  0  0  0  0  0  0
   45.4480   36.1420   43.0450 H   0  0  0  0  0  0  0  0  0  0  0  0
   43.7680   36.7220   41.4700 H   0  0  0  0  0  0  0  0  0  0  0  0
   42.2740   35.0290   40.6220 H   0  0  0  0  0  0  0  0  0  0  0  0
   42.2930   32.5560   41.1950 O   0  0  0  0  0  0  0  0  0  0  0  0
   40.0540   31.3060   40.6550 O   0  0  0  0  0  0  0  0  0  0  0  0
   40.7940   32.0330   41.7540 P   0  0  0  0  0  0  0  0  0  0  0  0
   41.0190   31.0390   43.1060 O   0  0  0  0  0  0  0  0  0  0  0  0
   41.5570   30.2360   42.8370 H   0  0  0  0  0  0  0  0  0  0  0  0
   39.8650   33.3470   42.3090 O   0  0  0  0  0  0  0  0  0  0  0  0
   40.4510   34.1270   42.4690 H   0  0  0  0  0  0  0  0  0  0  0  0
  1 26  1  0  0  0  0
  1  6  1  0  0  0  0
  2  1  2  0  0  0  0
  3  2  1  0  0  0  0
  3  4  2  0  0  0  0
  4  5  1  0  0  0  0
  5  6  2  0  0  0  0
  5  8  1  0  0  0  0
  7  3  1  0  0  0  0
  9 12  1  1  0  0  0
  9  2  1  0  0  0  0
 10  9  1  0  0  0  0
 11 15  1  6  0  0  0
 11 10  1  0  0  0  0
 11  9  1  0  0  0  0
 13 10  1  0  0  0  0
 14 10  1  0  0  0  0
 16 25  1  0  0  0  0
 16 17  1  0  0  0  0
 17 11  1  0  0  0  0
 18 17  2  0  0  0  0
 18 19  1  0  0  0  0
 20 18  1  0  0  0  0
 21 20  1  0  0  0  0
 22 23  1  0  0  0  0
 22 20  2  0  0  0  0
 23 16  2  0  0  0  0
 25 24  3  0  0  0  0
 26 27  2  0  0  0  0
 29 30  1  0  0  0  0
 29 28  1  0  0  0  0
 30 26  1  0  0  0  0
 31 35  1  0  0  0  0
 31 30  2  0  0  0  0
 32 31  1  0  0  0  0
 33 34  1  0  0  0  0
 33 32  2  0  0  0  0
 34 29  2  0  0  0  0
 36 32  1  0  0  0  0
 37 33  1  0  0  0  0
 38 34  1  0  0  0  0
 38 40  1  0  0  0  0
 39 40  2  0  0  0  0
 40 43  1  0  0  0  0
 40 41  1  0  0  0  0
 42 41  1  0  0  0  0
 43 44  1  0  0  0  0
M  END
>  <minimizedAffinity>
-5.67479897

>  <minimizedRMSD>
1.37258673

$$$$
