
 OpenBabel03252502203D

 34 36  0  0  1  0  0  0  0  0999 V2000
   46.8100   34.6280   42.3050 N   0  0  0  0  0  0  0  0  0  0  0  0
   48.2720   34.6420   42.3470 C   0  0  0  0  0  0  0  0  0  0  0  0
   48.6840   35.4050   41.0700 C   0  0  0  0  0  0  0  0  0  0  0  0
   48.2560   34.6750   39.8330 C   0  0  0  0  0  0  0  0  0  0  0  0
   46.9990   33.9090   39.9740 C   0  0  0  0  0  0  0  0  0  0  0  0
   46.1180   34.3930   41.0760 C   0  0  1  0  0  0  0  0  0  0  0  0
   48.6930   33.6330   42.2040 H   0  0  0  0  0  0  0  0  0  0  0  0
   48.6560   35.1990   43.2010 H   0  0  0  0  0  0  0  0  0  0  0  0
   49.7740   35.5750   41.0490 H   0  0  0  0  0  0  0  0  0  0  0  0
   48.1580   36.3990   41.0950 H   0  0  0  0  0  0  0  0  0  0  0  0
   48.1600   35.4170   39.0140 H   0  0  0  0  0  0  0  0  0  0  0  0
   49.0920   34.0060   39.5210 H   0  0  0  0  0  0  0  0  0  0  0  0
   46.4000   33.8300   39.0480 H   0  0  0  0  0  0  0  0  0  0  0  0
   47.2850   32.8470   40.2330 H   0  0  0  0  0  0  0  0  0  0  0  0
   45.8100   35.4400   40.7410 H   0  0  0  0  0  0  0  0  0  0  0  0
   44.4700   36.0650   44.8220 C   0  0  0  0  0  0  0  0  0  0  0  0
   45.1830   35.9430   43.6300 C   0  0  0  0  0  0  0  0  0  0  0  0
   46.0420   34.8500   43.4690 C   0  0  0  0  0  0  0  0  0  0  0  0
   46.1070   33.9860   44.5090 N   0  0  0  0  0  0  0  0  0  0  0  0
   45.4150   34.1100   45.6570 C   0  0  0  0  0  0  0  0  0  0  0  0
   44.5920   35.1610   45.8070 N   0  0  0  0  0  0  0  0  0  0  0  0
   43.8160   36.9230   44.9120 H   0  0  0  0  0  0  0  0  0  0  0  0
   45.1080   36.6410   42.8360 H   0  0  0  0  0  0  0  0  0  0  0  0
   45.5930   33.3250   46.3760 H   0  0  0  0  0  0  0  0  0  0  0  0
   44.7360   32.3230   41.5610 C   0  0  0  0  0  0  0  0  0  0  0  0
   44.8590   33.6540   41.1680 C   0  0  0  0  0  0  0  0  0  0  0  0
   43.6030   34.2050   40.8820 C   0  0  0  0  0  0  0  0  0  0  0  0
   43.5980   35.2600   40.5610 H   0  0  0  0  0  0  0  0  0  0  0  0
   42.3950   33.5900   40.9560 C   0  0  0  0  0  0  0  0  0  0  0  0
   41.4890   34.1260   40.7080 H   0  0  0  0  0  0  0  0  0  0  0  0
   42.3920   32.2710   41.3560 C   0  0  0  0  0  3  0  0  0  0  0  0
   43.5520   31.6340   41.6600 C   0  0  0  0  0  3  0  0  0  0  0  0
   46.9020   31.0190   42.1290 N   0  0  0  0  0  0  0  0  0  0  0  0
   45.9290   31.5920   41.8770 C   0  0  0  0  0  0  0  0  0  0  0  0
  1  2  1  0  0  0  0
  1 18  1  0  0  0  0
  2  8  1  0  0  0  0
  3 10  1  0  0  0  0
  3  2  1  0  0  0  0
  4  5  1  0  0  0  0
  4  3  1  0  0  0  0
  5 14  1  0  0  0  0
  5  6  1  0  0  0  0
  6 15  1  6  0  0  0
  6 26  1  0  0  0  0
  6  1  1  0  0  0  0
  7  2  1  0  0  0  0
  9  3  1  0  0  0  0
 11  4  1  0  0  0  0
 12  4  1  0  0  0  0
 13  5  1  0  0  0  0
 16 22  1  0  0  0  0
 16 21  1  0  0  0  0
 17 16  2  0  0  0  0
 18 17  1  0  0  0  0
 18 19  2  0  0  0  0
 19 20  1  0  0  0  0
 20 21  2  0  0  0  0
 20 24  1  0  0  0  0
 23 17  1  0  0  0  0
 25 32  1  0  0  0  0
 25 34  1  0  0  0  0
 26 25  2  0  0  0  0
 27 29  2  0  0  0  0
 27 26  1  0  0  0  0
 28 27  1  0  0  0  0
 29 31  1  0  0  0  0
 30 29  1  0  0  0  0
 31 32  2  0  0  0  0
 34 33  3  0  0  0  0
M  END
>  <minimizedAffinity>
-5.33875084

>  <minimizedRMSD>
0.702417016

$$$$
