
 OpenBabel03252500363D

 47 50  0  0  1  0  0  0  0  0999 V2000
   45.6720   34.9160   44.1180 C   0  0  1  0  0  0  0  0  0  0  0  0
   44.8170   34.7610   45.2110 C   0  0  0  0  0  0  0  0  0  0  0  0
   46.1020   34.0560   45.3410 C   0  0  1  0  0  0  0  0  0  0  0  0
   46.2710   35.8610   43.9800 H   0  0  0  0  0  0  0  0  0  0  0  0
   44.5980   35.6340   45.8780 H   0  0  0  0  0  0  0  0  0  0  0  0
   43.9040   34.1040   45.1270 H   0  0  0  0  0  0  0  0  0  0  0  0
   46.9880   34.4930   45.8270 H   0  0  0  0  0  0  0  0  0  0  0  0
   44.4030   33.4400   42.5530 C   0  0  0  0  0  0  0  0  0  0  0  0
   45.5860   34.2060   42.8040 C   0  0  0  0  0  0  0  0  0  0  0  0
   46.5720   34.2610   41.8710 C   0  0  0  0  0  0  0  0  0  0  0  0
   46.3610   33.5540   40.7070 N   0  0  0  0  0  0  0  0  0  0  0  0
   45.2410   32.8360   40.4820 C   0  0  0  0  0  0  0  0  0  0  0  0
   44.2210   32.7560   41.4020 N   0  0  0  0  0  0  0  0  0  0  0  0
   43.6310   33.3970   43.2850 H   0  0  0  0  0  0  0  0  0  0  0  0
   47.4610   34.8280   42.0450 H   0  0  0  0  0  0  0  0  0  0  0  0
   44.1930   32.5360   38.2720 C   0  0  0  0  0  0  0  0  0  0  0  0
   45.1040   32.1200   39.2190 C   0  0  0  0  0  0  0  0  0  0  0  0
   45.9140   31.0230   39.0120 C   0  0  0  0  0  0  0  0  0  0  0  0
   46.6400   30.6480   39.7010 H   0  0  0  0  0  0  0  0  0  0  0  0
   45.8070   30.3230   37.8200 C   0  0  0  0  0  0  0  0  0  0  0  0
   46.3990   29.4400   37.5530 H   0  0  0  0  0  0  0  0  0  0  0  0
   44.8980   30.7000   36.8270 C   0  0  0  0  0  3  0  0  0  0  0  0
   44.1070   31.8080   37.0820 C   0  0  0  0  0  3  0  0  0  0  0  0
   42.6790   34.5890   38.7060 N   0  0  0  0  0  0  0  0  0  0  0  0
   43.3640   33.6760   38.5130 C   0  0  0  0  0  0  0  0  0  0  0  0
   46.1690   32.5810   45.1990 C   0  0  0  0  0  0  0  0  0  0  0  0
   47.2040   32.3000   44.9530 H   0  0  0  0  0  0  0  0  0  0  0  0
   45.5140   32.2270   44.3780 H   0  0  0  0  0  0  0  0  0  0  0  0
   45.8200   32.0180   46.4530 N   0  0  0  0  0  0  0  0  0  0  0  0
   46.2710   32.6500   47.6160 C   0  0  0  0  0  0  0  0  0  0  0  0
   47.6360   32.0970   48.0690 C   0  0  0  0  0  0  0  0  0  0  0  0
   47.3960   30.6750   48.5050 C   0  0  0  0  0  0  0  0  0  0  0  0
   46.8730   29.9410   47.3030 C   0  0  0  0  0  0  0  0  0  0  0  0
   45.7440   30.6250   46.5830 C   0  0  2  0  0  0  0  0  0  0  0  0
   45.5870   32.2840   48.4420 H   0  0  0  0  0  0  0  0  0  0  0  0
   46.1970   33.7320   47.7080 H   0  0  0  0  0  0  0  0  0  0  0  0
   48.3530   32.1130   47.2410 H   0  0  0  0  0  0  0  0  0  0  0  0
   47.9470   32.7160   48.9270 H   0  0  0  0  0  0  0  0  0  0  0  0
   48.3930   30.2340   48.7390 H   0  0  0  0  0  0  0  0  0  0  0  0
   46.7440   30.6100   49.3820 H   0  0  0  0  0  0  0  0  0  0  0  0
   47.6720   29.7200   46.5980 H   0  0  0  0  0  0  0  0  0  0  0  0
   46.4890   28.9480   47.6640 H   0  0  0  0  0  0  0  0  0  0  0  0
   44.8070   30.3680   47.1510 H   0  0  0  0  0  0  0  0  0  0  0  0
   45.5970   29.9360   45.2340 C   0  0  0  0  0  0  0  0  0  0  0  0
   46.5430   30.0160   44.6480 H   0  0  0  0  0  0  0  0  0  0  0  0
   45.3110   28.8740   45.4010 H   0  0  0  0  0  0  0  0  0  0  0  0
   44.7330   30.3850   44.6950 H   0  0  0  0  0  0  0  0  0  0  0  0
  1  4  1  6  0  0  0
  1  2  1  0  0  0  0
  1  3  1  0  0  0  0
  2  3  1  0  0  0  0
  2  5  1  0  0  0  0
  3  7  1  1  0  0  0
  6  2  1  0  0  0  0
  8  9  1  0  0  0  0
  8 14  1  0  0  0  0
  9  1  1  0  0  0  0
 10 15  1  0  0  0  0
 10  9  2  0  0  0  0
 11 10  1  0  0  0  0
 12 11  2  0  0  0  0
 12 13  1  0  0  0  0
 13  8  2  0  0  0  0
 16 25  1  0  0  0  0
 16 17  1  0  0  0  0
 17 12  1  0  0  0  0
 18 17  2  0  0  0  0
 18 19  1  0  0  0  0
 20 18  1  0  0  0  0
 21 20  1  0  0  0  0
 22 23  1  0  0  0  0
 22 20  2  0  0  0  0
 23 16  2  0  0  0  0
 25 24  3  0  0  0  0
 26  3  1  0  0  0  0
 26 29  1  0  0  0  0
 27 26  1  0  0  0  0
 28 26  1  0  0  0  0
 29 34  1  0  0  0  0
 29 30  1  0  0  0  0
 30 36  1  0  0  0  0
 30 31  1  0  0  0  0
 30 35  1  0  0  0  0
 31 32  1  0  0  0  0
 31 38  1  0  0  0  0
 32 39  1  0  0  0  0
 32 40  1  0  0  0  0
 33 42  1  0  0  0  0
 33 32  1  0  0  0  0
 34 43  1  1  0  0  0
 34 33  1  0  0  0  0
 37 31  1  0  0  0  0
 41 33  1  0  0  0  0
 44 46  1  0  0  0  0
 44 34  1  0  0  0  0
 45 44  1  0  0  0  0
 47 44  1  0  0  0  0
M  END
>  <minimizedAffinity>
-4.19171143

>  <minimizedRMSD>
0.924533546

$$$$
