
 OpenBabel03242511283D

 35 38  0  0  0  0  0  0  0  0999 V2000
   44.4700   33.4170   41.1650 Cl  0  0  0  0  0  0  0  0  0  0  0  0
   46.0710   34.0220   40.9660 C   0  0  0  0  0  0  0  0  0  0  0  0
   46.7010   34.6650   42.0120 C   0  0  0  0  0  0  0  0  0  0  0  0
   47.9900   35.1720   41.8950 C   0  0  0  0  0  0  0  0  0  0  0  0
   48.6020   34.9950   40.6710 C   0  0  0  0  0  0  0  0  0  0  0  0
   47.9880   34.3670   39.6440 C   0  0  0  0  0  0  0  0  0  0  0  0
   46.7120   33.8650   39.7610 C   0  0  0  0  0  0  0  0  0  0  0  0
   48.4470   35.6700   42.7410 H   0  0  0  0  0  0  0  0  0  0  0  0
   49.6080   35.3990   40.5990 H   0  0  0  0  0  0  0  0  0  0  0  0
   48.5610   34.2830   38.7280 H   0  0  0  0  0  0  0  0  0  0  0  0
   45.5150   34.0100   45.4440 C   0  0  0  0  0  0  0  0  0  0  0  0
   44.6900   35.0980   45.6860 C   0  0  0  0  0  0  0  0  0  0  0  0
   44.5360   36.0470   44.6940 C   0  0  0  0  0  0  0  0  0  0  0  0
   45.1980   35.8840   43.5160 N   0  0  0  0  0  0  0  0  0  0  0  0
   46.0010   34.8200   43.2850 C   0  0  0  0  0  0  0  0  0  0  0  0
   46.1410   33.9020   44.2630 N   0  0  0  0  0  0  0  0  0  0  0  0
   45.6760   33.2290   46.1840 H   0  0  0  0  0  0  0  0  0  0  0  0
   44.2280   35.1120   46.6470 H   0  0  0  0  0  0  0  0  0  0  0  0
   43.8960   36.8810   44.8970 H   0  0  0  0  0  0  0  0  0  0  0  0
   46.1830   33.2080   38.5650 C   0  0  0  0  0  0  0  0  0  0  0  0
   46.8530   33.3980   37.3580 C   0  0  0  0  0  0  0  0  0  0  0  0
   45.8300   32.4010   36.1700 S   0  0  0  0  0  0  0  0  0  0  0  0
   44.6620   31.9080   37.5770 C   0  0  0  0  0  0  0  0  0  0  0  0
   45.1250   32.4360   38.4430 N   0  0  0  0  0  0  0  0  0  0  0  0
   47.7450   33.9720   37.1310 H   0  0  0  0  0  0  0  0  0  0  0  0
   42.2160   31.3940   37.4810 C   0  0  0  0  0  0  0  0  0  0  0  0
   43.5130   31.0190   37.2130 C   0  0  0  0  0  0  0  0  0  0  0  0
   43.6910   29.8010   36.5940 C   0  0  0  0  0  0  0  0  0  0  0  0
   44.6850   29.4520   36.3580 H   0  0  0  0  0  0  0  0  0  0  0  0
   42.6610   28.9780   36.2460 C   0  0  0  0  0  0  0  0  0  0  0  0
   42.8130   28.0230   35.7590 H   0  0  0  0  0  0  0  0  0  0  0  0
   41.3820   29.3740   36.5220 C   0  0  0  0  0  0  0  0  0  0  0  0
   41.1530   30.5850   37.1420 C   0  0  0  0  0  0  0  0  0  0  0  0
   41.9110   33.6810   38.6720 N   0  0  0  0  0  0  0  0  0  0  0  0
   42.0580   32.6600   38.1340 C   0  0  0  0  0  0  0  0  0  0  0  0
  2  1  1  0  0  0  0
  2  3  1  0  0  0  0
  3 15  1  0  0  0  0
  4  3  2  0  0  0  0
  4  8  1  0  0  0  0
  5  4  1  0  0  0  0
  6  7  1  0  0  0  0
  6  5  2  0  0  0  0
  7  2  2  0  0  0  0
  9  5  1  0  0  0  0
 10  6  1  0  0  0  0
 11 12  1  0  0  0  0
 11 17  1  0  0  0  0
 12 18  1  0  0  0  0
 13 19  1  0  0  0  0
 13 12  2  0  0  0  0
 14 13  1  0  0  0  0
 15 14  2  0  0  0  0
 15 16  1  0  0  0  0
 16 11  2  0  0  0  0
 20  7  1  0  0  0  0
 21 20  2  0  0  0  0
 22 21  1  0  0  0  0
 22 23  1  0  0  0  0
 23 24  2  0  0  0  0
 24 20  1  0  0  0  0
 25 21  1  0  0  0  0
 26 35  1  0  0  0  0
 27 26  1  0  0  0  0
 27 23  1  0  0  0  0
 28 27  2  0  0  0  0
 29 28  1  0  0  0  0
 30 32  2  0  0  0  0
 30 28  1  0  0  0  0
 31 30  1  0  0  0  0
 32 33  1  0  0  0  0
 33 26  2  0  0  0  0
 35 34  3  0  0  0  0
M  END
>  <minimizedAffinity>
-5.95804882

>  <minimizedRMSD>
1.56535411

$$$$
