
 OpenBabel03252507383D

 39 43  0  0  0  0  0  0  0  0999 V2000
   45.7060   34.8060   43.5350 C   0  0  0  0  0  0  0  0  0  0  0  0
   46.4230   33.7400   44.1340 C   0  0  0  0  0  0  0  0  0  0  0  0
   46.1750   33.4750   45.4610 C   0  0  0  0  0  0  0  0  0  0  0  0
   45.2720   34.2350   46.1210 N   0  0  0  0  0  0  0  0  0  0  0  0
   44.5970   35.2500   45.5330 C   0  0  0  0  0  0  0  0  0  0  0  0
   44.8150   35.5280   44.2550 N   0  0  0  0  0  0  0  0  0  0  0  0
   47.1360   33.1390   43.6150 H   0  0  0  0  0  0  0  0  0  0  0  0
   43.8990   35.7930   46.1540 H   0  0  0  0  0  0  0  0  0  0  0  0
   47.0610   32.6400   47.5730 C   0  0  0  0  0  0  0  0  0  0  0  0
   46.8220   32.4150   46.2260 C   0  0  0  0  0  0  0  0  0  0  0  0
   47.1950   31.2100   45.6970 C   0  0  0  0  0  0  0  0  0  0  0  0
   47.7950   30.2210   46.4500 C   0  0  0  0  0  0  0  0  0  0  0  0
   48.2350   28.9720   46.1390 N   0  0  0  0  0  0  0  0  0  0  0  0
   48.7450   28.4350   47.2980 C   0  0  0  0  0  0  0  0  0  0  0  0
   48.6130   29.3370   48.2760 N   0  0  0  0  0  0  0  0  0  0  0  0
   48.0340   30.4350   47.7740 C   0  0  0  0  0  0  0  0  0  0  0  0
   47.6680   31.6460   48.3390 C   0  0  0  0  0  0  0  0  0  0  0  0
   46.7890   33.5700   48.0420 H   0  0  0  0  0  0  0  0  0  0  0  0
   47.0050   31.0320   44.6310 H   0  0  0  0  0  0  0  0  0  0  0  0
   48.1740   28.5560   45.1910 H   0  0  0  0  0  0  0  0  0  0  0  0
   49.1760   27.4320   47.3670 H   0  0  0  0  0  0  0  0  0  0  0  0
   47.8640   31.8040   49.3960 H   0  0  0  0  0  0  0  0  0  0  0  0
   45.9650   35.0670   42.1840 O   0  0  0  0  0  0  0  0  0  0  0  0
   45.0460   34.6500   41.2200 C   0  0  0  0  0  0  0  0  0  0  0  0
   45.8080   33.7620   40.5550 C   0  0  0  0  0  0  0  0  0  0  0  0
   44.5880   33.1490   39.2180 S   0  0  0  0  0  0  0  0  0  0  0  0
   43.2780   34.3010   39.9160 C   0  0  0  0  0  0  0  0  0  0  0  0
   43.8250   34.7640   40.7370 N   0  0  0  0  0  0  0  0  0  0  0  0
   46.7780   33.0560   40.2090 H   0  0  0  0  0  0  0  0  0  0  0  0
   40.8620   33.6700   39.8010 C   0  0  0  0  0  0  0  0  0  0  0  0
   41.9000   34.3900   39.3280 C   0  0  0  0  0  0  0  0  0  0  0  0
   41.8110   35.2660   38.2750 C   0  0  0  0  0  0  0  0  0  0  0  0
   42.6510   35.8280   37.9190 H   0  0  0  0  0  0  0  0  0  0  0  0
   40.5620   35.3800   37.7050 C   0  0  0  0  0  0  0  0  0  0  0  0
   40.4600   36.0690   36.8670 H   0  0  0  0  0  0  0  0  0  0  0  0
   39.4880   34.6590   38.1670 C   0  0  0  0  0  3  0  0  0  0  0  0
   39.6010   33.7830   39.2260 C   0  0  0  0  0  3  0  0  0  0  0  0
   41.0900   32.0390   41.7810 N   0  0  0  0  0  0  0  0  0  0  0  0
   40.9980   32.7730   40.8940 C   0  0  0  0  0  0  0  0  0  0  0  0
  1  2  2  0  0  0  0
  1  6  1  0  0  0  0
  2  3  1  0  0  0  0
  3  4  2  0  0  0  0
  3 10  1  0  0  0  0
  5  4  1  0  0  0  0
  5  8  1  0  0  0  0
  6  5  2  0  0  0  0
  7  2  1  0  0  0  0
  9 18  1  0  0  0  0
  9 17  1  0  0  0  0
 10  9  2  0  0  0  0
 11 10  1  0  0  0  0
 11 12  2  0  0  0  0
 12 16  1  0  0  0  0
 13 12  1  0  0  0  0
 13 14  1  0  0  0  0
 14 21  1  0  0  0  0
 14 15  2  0  0  0  0
 16 15  1  0  0  0  0
 16 17  2  0  0  0  0
 17 22  1  0  0  0  0
 19 11  1  0  0  0  0
 20 13  1  0  0  0  0
 23  1  1  0  0  0  0
 24 23  1  0  0  0  0
 25 24  2  0  0  0  0
 26 27  1  0  0  0  0
 26 25  1  0  0  0  0
 27 28  2  0  0  0  0
 28 24  1  0  0  0  0
 29 25  1  0  0  0  0
 30 39  1  0  0  0  0
 31 30  1  0  0  0  0
 31 27  1  0  0  0  0
 32 31  2  0  0  0  0
 33 32  1  0  0  0  0
 34 36  2  0  0  0  0
 34 32  1  0  0  0  0
 35 34  1  0  0  0  0
 36 37  1  0  0  0  0
 37 30  2  0  0  0  0
 39 38  3  0  0  0  0
M  END
>  <minimizedAffinity>
-6.92207289

>  <minimizedRMSD>
1.17231703

$$$$
