
 OpenBabel03252507383D

 39 43  0  0  0  0  0  0  0  0999 V2000
   46.5520   32.1150   45.8470 C   0  0  0  0  0  0  0  0  0  0  0  0
   46.1090   30.7680   45.8150 C   0  0  0  0  0  0  0  0  0  0  0  0
   45.3300   30.3310   46.8610 C   0  0  0  0  0  0  0  0  0  0  0  0
   45.0290   31.1960   47.8570 N   0  0  0  0  0  0  0  0  0  0  0  0
   45.4610   32.4780   47.8700 C   0  0  0  0  0  0  0  0  0  0  0  0
   46.2130   32.9270   46.8750 N   0  0  0  0  0  0  0  0  0  0  0  0
   46.3450   30.0850   45.0310 H   0  0  0  0  0  0  0  0  0  0  0  0
   45.1610   33.0820   48.7160 H   0  0  0  0  0  0  0  0  0  0  0  0
   45.1690   28.2270   48.0800 C   0  0  0  0  0  0  0  0  0  0  0  0
   44.7910   28.9820   46.9810 C   0  0  0  0  0  0  0  0  0  0  0  0
   43.9270   28.4210   46.0800 C   0  0  0  0  0  0  0  0  0  0  0  0
   43.4240   27.1440   46.2280 C   0  0  0  0  0  0  0  0  0  0  0  0
   42.5670   26.4050   45.4740 N   0  0  0  0  0  0  0  0  0  0  0  0
   42.4220   25.1960   46.1150 C   0  0  0  0  0  0  0  0  0  0  0  0
   43.1720   25.2130   47.2220 N   0  0  0  0  0  0  0  0  0  0  0  0
   43.7910   26.3970   47.3050 C   0  0  0  0  0  0  0  0  0  0  0  0
   44.6660   26.9360   48.2350 C   0  0  0  0  0  0  0  0  0  0  0  0
   45.8470   28.6160   48.8210 H   0  0  0  0  0  0  0  0  0  0  0  0
   43.6270   29.0190   45.2100 H   0  0  0  0  0  0  0  0  0  0  0  0
   42.1350   26.7380   44.5920 H   0  0  0  0  0  0  0  0  0  0  0  0
   41.7890   24.3830   45.7480 H   0  0  0  0  0  0  0  0  0  0  0  0
   44.9510   26.3290   49.0900 H   0  0  0  0  0  0  0  0  0  0  0  0
   47.3440   32.5500   44.7770 O   0  0  0  0  0  0  0  0  0  0  0  0
   46.7510   33.2690   43.7370 C   0  0  0  0  0  0  0  0  0  0  0  0
   47.8100   33.9990   43.3400 C   0  0  0  0  0  0  0  0  0  0  0  0
   47.0510   35.0050   41.9030 S   0  0  0  0  0  0  0  0  0  0  0  0
   45.4040   34.1520   42.2030 C   0  0  0  0  0  0  0  0  0  0  0  0
   45.6570   33.5010   43.0400 N   0  0  0  0  0  0  0  0  0  0  0  0
   48.9620   34.4750   43.2670 H   0  0  0  0  0  0  0  0  0  0  0  0
   44.0200   33.9630   40.1300 C   0  0  0  0  0  0  0  0  0  0  0  0
   44.1890   34.4530   41.3760 C   0  0  0  0  0  0  0  0  0  0  0  0
   43.2840   35.2660   42.0120 C   0  0  0  0  0  0  0  0  0  0  0  0
   43.4410   35.6420   43.0010 H   0  0  0  0  0  0  0  0  0  0  0  0
   42.1510   35.5680   41.2880 C   0  0  0  0  0  0  0  0  0  0  0  0
   41.4130   36.2130   41.7660 H   0  0  0  0  0  0  0  0  0  0  0  0
   41.9550   35.0830   40.0180 C   0  0  0  0  0  3  0  0  0  0  0  0
   42.8780   34.2670   39.3980 C   0  0  0  0  0  3  0  0  0  0  0  0
   45.7550   32.4400   38.9890 N   0  0  0  0  0  0  0  0  0  0  0  0
   44.9830   33.1240   39.5100 C   0  0  0  0  0  0  0  0  0  0  0  0
  1  6  1  0  0  0  0
  2  1  2  0  0  0  0
  2  3  1  0  0  0  0
  3 10  1  0  0  0  0
  3  4  2  0  0  0  0
  4  5  1  0  0  0  0
  5  8  1  0  0  0  0
  6  5  2  0  0  0  0
  7  2  1  0  0  0  0
  9 17  1  0  0  0  0
  9 18  1  0  0  0  0
 10  9  2  0  0  0  0
 11 12  2  0  0  0  0
 11 10  1  0  0  0  0
 12 16  1  0  0  0  0
 13 14  1  0  0  0  0
 13 12  1  0  0  0  0
 14 15  2  0  0  0  0
 15 16  1  0  0  0  0
 16 17  2  0  0  0  0
 17 22  1  0  0  0  0
 19 11  1  0  0  0  0
 20 13  1  0  0  0  0
 21 14  1  0  0  0  0
 23  1  1  0  0  0  0
 24 23  1  0  0  0  0
 25 24  2  0  0  0  0
 26 27  1  0  0  0  0
 26 25  1  0  0  0  0
 27 28  2  0  0  0  0
 28 24  1  0  0  0  0
 29 25  1  0  0  0  0
 30 31  1  0  0  0  0
 31 32  2  0  0  0  0
 31 27  1  0  0  0  0
 32 33  1  0  0  0  0
 34 35  1  0  0  0  0
 34 32  1  0  0  0  0
 36 34  2  0  0  0  0
 37 36  1  0  0  0  0
 37 30  2  0  0  0  0
 38 39  3  0  0  0  0
 39 30  1  0  0  0  0
M  END
>  <minimizedAffinity>
-5.85215235

>  <minimizedRMSD>
4.69184589

$$$$
