
 OpenBabel03242521173D

 39 41  0  0  0  0  0  0  0  0999 V2000
   46.3730   32.9610   46.4970 C   0  0  0  0  0  0  0  0  0  0  0  0
   46.7160   32.0810   45.8990 H   0  0  0  0  0  0  0  0  0  0  0  0
   47.2350   33.3740   47.0610 H   0  0  0  0  0  0  0  0  0  0  0  0
   44.4970   35.7140   44.7750 C   0  0  0  0  0  0  0  0  0  0  0  0
   45.1070   35.6710   43.5000 C   0  0  0  0  0  0  0  0  0  0  0  0
   46.1030   34.7180   43.3190 C   0  0  0  0  0  0  0  0  0  0  0  0
   46.4380   33.8870   44.3590 N   0  0  0  0  0  0  0  0  0  0  0  0
   45.8220   33.9780   45.5420 C   0  0  0  0  0  0  0  0  0  0  0  0
   44.8420   34.8880   45.7810 N   0  0  0  0  0  0  0  0  0  0  0  0
   43.7130   36.4360   44.9800 H   0  0  0  0  0  0  0  0  0  0  0  0
   44.8060   36.3470   42.7270 H   0  0  0  0  0  0  0  0  0  0  0  0
   46.7350   34.6550   42.0400 N   0  0  0  0  0  0  0  0  0  0  0  0
   47.9490   35.2350   41.8990 C   0  0  0  0  0  0  0  0  0  0  0  0
   48.5630   35.1770   40.6560 C   0  0  0  0  0  0  0  0  0  0  0  0
   47.9300   34.5450   39.6370 C   0  0  0  0  0  0  0  0  0  0  0  0
   48.5070   34.4990   38.5030 O   0  0  0  0  0  0  0  0  0  0  0  0
   46.7250   33.9620   39.7590 N   0  0  0  0  0  0  0  0  0  0  0  0
   46.1520   34.0390   40.9910 C   0  0  0  0  0  0  0  0  0  0  0  0
   45.0350   33.5360   41.2230 O   0  0  0  0  0  0  0  0  0  0  0  0
   48.4550   35.7400   42.7140 H   0  0  0  0  0  0  0  0  0  0  0  0
   49.5420   35.6470   40.5450 H   0  0  0  0  0  0  0  0  0  0  0  0
   46.2270   33.4700   38.9710 H   0  0  0  0  0  0  0  0  0  0  0  0
   45.3210   32.5610   47.5090 C   0  0  0  0  0  0  0  0  0  0  0  0
   45.6550   32.7820   48.5570 H   0  0  0  0  0  0  0  0  0  0  0  0
   44.3790   33.0980   47.2770 H   0  0  0  0  0  0  0  0  0  0  0  0
   45.8130   30.1940   48.0910 C   0  0  0  0  0  0  0  0  0  0  0  0
   46.5200   30.7080   48.9820 O   0  0  0  0  0  0  0  0  0  0  0  0
   45.0530   31.1400   47.3540 N   0  0  0  0  0  0  0  0  0  0  0  0
   44.2850   30.8630   46.6820 H   0  0  0  0  0  0  0  0  0  0  0  0
   46.4650   28.3540   46.6430 C   0  0  0  0  0  0  0  0  0  0  0  0
   45.6190   28.8080   47.6620 C   0  0  0  0  0  0  0  0  0  0  0  0
   44.6790   27.9460   48.1850 C   0  0  0  0  0  0  0  0  0  0  0  0
   44.0440   28.3210   48.9650 H   0  0  0  0  0  0  0  0  0  0  0  0
   44.6070   26.6580   47.6820 C   0  0  0  0  0  0  0  0  0  0  0  0
   43.8570   25.9650   48.0990 H   0  0  0  0  0  0  0  0  0  0  0  0
   45.4290   26.1790   46.6770 C   0  0  0  0  0  3  0  0  0  0  0  0
   46.3740   27.0550   46.1560 C   0  0  0  0  0  3  0  0  0  0  0  0
   48.2740   29.9250   45.6220 N   0  0  0  0  0  0  0  0  0  0  0  0
   47.4710   29.2300   46.0630 C   0  0  0  0  0  0  0  0  0  0  0  0
  1  3  1  0  0  0  0
  1 23  1  0  0  0  0
  2  1  1  0  0  0  0
  4 10  1  0  0  0  0
  4  9  1  0  0  0  0
  5  4  2  0  0  0  0
  6  5  1  0  0  0  0
  6  7  2  0  0  0  0
  7  8  1  0  0  0  0
  8  9  2  0  0  0  0
  8  1  1  0  0  0  0
 11  5  1  0  0  0  0
 12  6  1  0  0  0  0
 13 12  1  0  0  0  0
 13 20  1  0  0  0  0
 14 13  2  0  0  0  0
 15 17  1  0  0  0  0
 15 14  1  0  0  0  0
 16 15  2  0  0  0  0
 17 18  1  0  0  0  0
 18 19  2  0  0  0  0
 18 12  1  0  0  0  0
 21 14  1  0  0  0  0
 22 17  1  0  0  0  0
 23 24  1  0  0  0  0
 25 23  1  0  0  0  0
 26 27  2  0  0  0  0
 28 23  1  0  0  0  0
 28 26  1  0  0  0  0
 29 28  1  0  0  0  0
 30 31  1  0  0  0  0
 31 26  1  0  0  0  0
 31 32  2  0  0  0  0
 32 33  1  0  0  0  0
 34 35  1  0  0  0  0
 34 32  1  0  0  0  0
 36 34  2  0  0  0  0
 37 30  2  0  0  0  0
 37 36  1  0  0  0  0
 38 39  3  0  0  0  0
 39 30  1  0  0  0  0
M  END
>  <minimizedAffinity>
-6.18739462

>  <minimizedRMSD>
1.29226601

$$$$
