
 OpenBabel03242521163D

 39 41  0  0  0  0  0  0  0  0999 V2000
   46.2820   32.9910   46.5350 C   0  0  0  0  0  0  0  0  0  0  0  0
   46.6120   32.1020   45.9440 H   0  0  0  0  0  0  0  0  0  0  0  0
   47.1490   33.3920   47.1010 H   0  0  0  0  0  0  0  0  0  0  0  0
   44.4650   35.7680   44.7870 C   0  0  0  0  0  0  0  0  0  0  0  0
   45.0790   35.7060   43.5160 C   0  0  0  0  0  0  0  0  0  0  0  0
   46.0590   34.7340   43.3450 C   0  0  0  0  0  0  0  0  0  0  0  0
   46.3730   33.9020   44.3920 N   0  0  0  0  0  0  0  0  0  0  0  0
   45.7550   34.0120   45.5710 C   0  0  0  0  0  0  0  0  0  0  0  0
   44.7900   34.9410   45.8000 N   0  0  0  0  0  0  0  0  0  0  0  0
   43.6930   36.5050   44.9840 H   0  0  0  0  0  0  0  0  0  0  0  0
   44.7950   36.3820   42.7370 H   0  0  0  0  0  0  0  0  0  0  0  0
   46.6960   34.6510   42.0690 N   0  0  0  0  0  0  0  0  0  0  0  0
   47.9210   35.2060   41.9310 C   0  0  0  0  0  0  0  0  0  0  0  0
   48.5400   35.1290   40.6920 C   0  0  0  0  0  0  0  0  0  0  0  0
   47.8990   34.5040   39.6730 C   0  0  0  0  0  0  0  0  0  0  0  0
   48.4800   34.4410   38.5420 O   0  0  0  0  0  0  0  0  0  0  0  0
   46.6830   33.9460   39.7920 N   0  0  0  0  0  0  0  0  0  0  0  0
   46.1050   34.0410   41.0210 C   0  0  0  0  0  0  0  0  0  0  0  0
   44.9780   33.5600   41.2500 O   0  0  0  0  0  0  0  0  0  0  0  0
   48.4330   35.7050   42.7460 H   0  0  0  0  0  0  0  0  0  0  0  0
   49.5290   35.5800   40.5830 H   0  0  0  0  0  0  0  0  0  0  0  0
   46.1790   33.4590   39.0040 H   0  0  0  0  0  0  0  0  0  0  0  0
   45.2180   32.6150   47.5430 C   0  0  0  0  0  0  0  0  0  0  0  0
   45.5360   32.8720   48.5890 H   0  0  0  0  0  0  0  0  0  0  0  0
   44.2760   33.1390   47.2810 H   0  0  0  0  0  0  0  0  0  0  0  0
   45.6190   30.2810   48.3000 C   0  0  0  0  0  0  0  0  0  0  0  0
   46.2150   30.8400   49.2440 O   0  0  0  0  0  0  0  0  0  0  0  0
   44.9610   31.1890   47.4290 N   0  0  0  0  0  0  0  0  0  0  0  0
   44.2790   30.8780   46.6830 H   0  0  0  0  0  0  0  0  0  0  0  0
   46.3900   28.3870   46.9870 C   0  0  0  0  0  0  0  0  0  0  0  0
   45.4690   28.8750   47.9210 C   0  0  0  0  0  0  0  0  0  0  0  0
   44.5010   28.0240   48.4140 C   0  0  0  0  0  0  0  0  0  0  0  0
   43.8090   28.4270   49.1290 H   0  0  0  0  0  0  0  0  0  0  0  0
   44.4790   26.7160   47.9660 C   0  0  0  0  0  0  0  0  0  0  0  0
   43.7060   26.0330   48.3580 H   0  0  0  0  0  0  0  0  0  0  0  0
   45.3750   26.2030   47.0450 C   0  0  0  0  0  3  0  0  0  0  0  0
   46.3460   27.0670   46.5530 C   0  0  0  0  0  3  0  0  0  0  0  0
   48.2530   29.9340   46.0270 N   0  0  0  0  0  0  0  0  0  0  0  0
   47.4270   29.2500   46.4400 C   0  0  0  0  0  0  0  0  0  0  0  0
  1  3  1  0  0  0  0
  1 23  1  0  0  0  0
  2  1  1  0  0  0  0
  4 10  1  0  0  0  0
  4  9  1  0  0  0  0
  5  4  2  0  0  0  0
  6  5  1  0  0  0  0
  6  7  2  0  0  0  0
  7  8  1  0  0  0  0
  8  9  2  0  0  0  0
  8  1  1  0  0  0  0
 11  5  1  0  0  0  0
 12  6  1  0  0  0  0
 13 12  1  0  0  0  0
 13 20  1  0  0  0  0
 14 13  2  0  0  0  0
 15 17  1  0  0  0  0
 15 14  1  0  0  0  0
 16 15  2  0  0  0  0
 17 18  1  0  0  0  0
 18 19  2  0  0  0  0
 18 12  1  0  0  0  0
 21 14  1  0  0  0  0
 22 17  1  0  0  0  0
 23 24  1  0  0  0  0
 25 23  1  0  0  0  0
 26 27  2  0  0  0  0
 28 23  1  0  0  0  0
 28 26  1  0  0  0  0
 29 28  1  0  0  0  0
 30 31  1  0  0  0  0
 31 26  1  0  0  0  0
 31 32  2  0  0  0  0
 32 33  1  0  0  0  0
 34 35  1  0  0  0  0
 34 32  1  0  0  0  0
 36 34  2  0  0  0  0
 37 30  2  0  0  0  0
 37 36  1  0  0  0  0
 38 39  3  0  0  0  0
 39 30  1  0  0  0  0
M  END
>  <minimizedAffinity>
-6.20304728

>  <minimizedRMSD>
1.42991018

$$$$
