
 OpenBabel03242521433D

 39 41  0  0  1  0  0  0  0  0999 V2000
   45.4570   35.6820   43.8350 C   0  0  0  0  0  0  0  0  0  0  0  0
   46.4670   34.8710   43.2960 C   0  0  0  0  0  0  0  0  0  0  0  0
   46.8430   33.7040   43.9780 C   0  0  0  0  0  0  0  0  0  0  0  0
   46.2090   33.4240   45.1170 N   0  0  0  0  0  0  0  0  0  0  0  0
   45.2360   34.2170   45.6250 C   0  0  0  0  0  0  0  0  0  0  0  0
   44.8590   35.3450   44.9840 N   0  0  0  0  0  0  0  0  0  0  0  0
   46.8900   35.2200   42.3680 H   0  0  0  0  0  0  0  0  0  0  0  0
   44.8050   33.8760   46.5530 H   0  0  0  0  0  0  0  0  0  0  0  0
   48.9060   33.6850   42.5930 C   0  0  2  0  0  0  0  0  0  0  0  0
   47.8930   32.9150   43.3660 C   0  0  2  0  0  0  0  0  0  0  0  0
   47.4390   32.0010   42.3710 O   0  0  0  0  0  0  0  0  0  0  0  0
   48.6200   31.4720   41.8990 C   0  0  0  0  0  0  0  0  0  0  0  0
   49.7170   32.4930   42.0520 C   0  0  1  0  0  0  0  0  0  0  0  0
   48.4330   34.1660   41.6920 H   0  0  0  0  0  0  0  0  0  0  0  0
   48.4290   32.2480   44.0980 H   0  0  0  0  0  0  0  0  0  0  0  0
   48.8810   30.4860   42.3690 H   0  0  0  0  0  0  0  0  0  0  0  0
   48.5090   31.2610   40.8130 H   0  0  0  0  0  0  0  0  0  0  0  0
   50.4740   32.1920   42.7770 H   0  0  0  0  0  0  0  0  0  0  0  0
   49.6500   34.5560   43.3330 O   0  0  0  0  0  0  0  0  0  0  0  0
   49.0280   35.0250   43.9350 H   0  0  0  0  0  0  0  0  0  0  0  0
   50.3120   32.8630   40.8520 O   0  0  0  0  0  0  0  0  0  0  0  0
   49.6360   33.1180   40.1820 H   0  0  0  0  0  0  0  0  0  0  0  0
   45.0710   36.9330   43.0980 C   0  0  0  0  0  0  0  0  0  0  0  0
   45.9050   37.2560   42.4580 H   0  0  0  0  0  0  0  0  0  0  0  0
   44.1760   36.7170   42.4810 H   0  0  0  0  0  0  0  0  0  0  0  0
   45.5120   39.1590   44.2930 C   0  0  0  0  0  0  0  0  0  0  0  0
   46.5140   39.3670   43.5530 O   0  0  0  0  0  0  0  0  0  0  0  0
   44.8100   37.9430   44.1190 N   0  0  0  0  0  0  0  0  0  0  0  0
   44.0240   37.7680   44.8050 H   0  0  0  0  0  0  0  0  0  0  0  0
   44.8290   41.3970   44.7740 C   0  0  0  0  0  0  0  0  0  0  0  0
   45.0820   40.1340   45.2960 C   0  0  0  0  0  0  0  0  0  0  0  0
   44.9130   39.9360   46.6500 C   0  0  0  0  0  0  0  0  0  0  0  0
   45.1270   38.9370   46.9870 H   0  0  0  0  0  0  0  0  0  0  0  0
   44.5000   40.9740   47.4570 C   0  0  0  0  0  0  0  0  0  0  0  0
   44.3750   40.7970   48.5110 H   0  0  0  0  0  0  0  0  0  0  0  0
   44.2360   42.2460   46.9790 C   0  0  0  0  0  3  0  0  0  0  0  0
   44.4160   42.4210   45.6040 C   0  0  0  0  0  3  0  0  0  0  0  0
   45.1060   41.9510   42.2420 N   0  0  0  0  0  0  0  0  0  0  0  0
   44.9760   41.7140   43.3640 C   0  0  0  0  0  0  0  0  0  0  0  0
  1  6  1  0  0  0  0
  2  1  2  0  0  0  0
  2  3  1  0  0  0  0
  3  4  2  0  0  0  0
  4  5  1  0  0  0  0
  5  8  1  0  0  0  0
  6  5  2  0  0  0  0
  7  2  1  0  0  0  0
  9 14  1  6  0  0  0
  9 19  1  0  0  0  0
  9 10  1  0  0  0  0
 10  3  1  0  0  0  0
 10 15  1  1  0  0  0
 11 10  1  0  0  0  0
 12 13  1  0  0  0  0
 12 16  1  0  0  0  0
 12 11  1  0  0  0  0
 13  9  1  0  0  0  0
 13 18  1  1  0  0  0
 17 12  1  0  0  0  0
 19 20  1  0  0  0  0
 21 13  1  0  0  0  0
 22 21  1  0  0  0  0
 23  1  1  0  0  0  0
 23 28  1  0  0  0  0
 24 23  1  0  0  0  0
 25 23  1  0  0  0  0
 26 31  1  0  0  0  0
 27 26  2  0  0  0  0
 28 26  1  0  0  0  0
 28 29  1  0  0  0  0
 30 31  2  0  0  0  0
 30 37  1  0  0  0  0
 31 32  1  0  0  0  0
 32 33  1  0  0  0  0
 32 34  2  0  0  0  0
 34 35  1  0  0  0  0
 36 34  1  0  0  0  0
 37 36  2  0  0  0  0
 38 39  3  0  0  0  0
 39 30  1  0  0  0  0
M  END
>  <minimizedAffinity>
-0.61289072

>  <minimizedRMSD>
0.698809266

$$$$
