
 OpenBabel03242521433D

 39 41  0  0  1  0  0  0  0  0999 V2000
   45.4560   35.6840   43.8350 C   0  0  0  0  0  0  0  0  0  0  0  0
   46.4660   34.8720   43.2960 C   0  0  0  0  0  0  0  0  0  0  0  0
   46.8410   33.7050   43.9780 C   0  0  0  0  0  0  0  0  0  0  0  0
   46.2080   33.4260   45.1160 N   0  0  0  0  0  0  0  0  0  0  0  0
   45.2350   34.2180   45.6240 C   0  0  0  0  0  0  0  0  0  0  0  0
   44.8580   35.3470   44.9840 N   0  0  0  0  0  0  0  0  0  0  0  0
   46.8890   35.2220   42.3670 H   0  0  0  0  0  0  0  0  0  0  0  0
   44.8040   33.8780   46.5520 H   0  0  0  0  0  0  0  0  0  0  0  0
   48.9050   33.6860   42.5930 C   0  0  2  0  0  0  0  0  0  0  0  0
   47.8910   32.9160   43.3650 C   0  0  2  0  0  0  0  0  0  0  0  0
   47.4370   32.0030   42.3690 O   0  0  0  0  0  0  0  0  0  0  0  0
   48.6180   31.4730   41.8970 C   0  0  0  0  0  0  0  0  0  0  0  0
   49.7160   32.4940   42.0510 C   0  0  1  0  0  0  0  0  0  0  0  0
   48.4330   34.1680   41.6920 H   0  0  0  0  0  0  0  0  0  0  0  0
   48.4260   32.2480   44.0970 H   0  0  0  0  0  0  0  0  0  0  0  0
   48.8780   30.4870   42.3660 H   0  0  0  0  0  0  0  0  0  0  0  0
   48.5070   31.2630   40.8110 H   0  0  0  0  0  0  0  0  0  0  0  0
   50.4720   32.1920   42.7760 H   0  0  0  0  0  0  0  0  0  0  0  0
   49.6490   34.5560   43.3340 O   0  0  0  0  0  0  0  0  0  0  0  0
   49.0270   35.0250   43.9360 H   0  0  0  0  0  0  0  0  0  0  0  0
   50.3110   32.8640   40.8510 O   0  0  0  0  0  0  0  0  0  0  0  0
   49.6360   33.1200   40.1810 H   0  0  0  0  0  0  0  0  0  0  0  0
   45.0710   36.9350   43.0980 C   0  0  0  0  0  0  0  0  0  0  0  0
   45.9050   37.2580   42.4580 H   0  0  0  0  0  0  0  0  0  0  0  0
   44.1750   36.7190   42.4800 H   0  0  0  0  0  0  0  0  0  0  0  0
   45.5110   39.1600   44.2930 C   0  0  0  0  0  0  0  0  0  0  0  0
   46.5140   39.3680   43.5530 O   0  0  0  0  0  0  0  0  0  0  0  0
   44.8090   37.9440   44.1180 N   0  0  0  0  0  0  0  0  0  0  0  0
   44.0240   37.7700   44.8040 H   0  0  0  0  0  0  0  0  0  0  0  0
   44.8280   41.3980   44.7760 C   0  0  0  0  0  0  0  0  0  0  0  0
   45.0820   40.1350   45.2960 C   0  0  0  0  0  0  0  0  0  0  0  0
   44.9130   39.9360   46.6500 C   0  0  0  0  0  0  0  0  0  0  0  0
   45.1270   38.9370   46.9860 H   0  0  0  0  0  0  0  0  0  0  0  0
   44.5000   40.9730   47.4580 C   0  0  0  0  0  0  0  0  0  0  0  0
   44.3750   40.7950   48.5120 H   0  0  0  0  0  0  0  0  0  0  0  0
   44.2350   42.2460   46.9800 C   0  0  0  0  0  3  0  0  0  0  0  0
   44.4150   42.4220   45.6060 C   0  0  0  0  0  3  0  0  0  0  0  0
   45.1050   41.9540   42.2440 N   0  0  0  0  0  0  0  0  0  0  0  0
   44.9740   41.7160   43.3660 C   0  0  0  0  0  0  0  0  0  0  0  0
  1  6  1  0  0  0  0
  2  1  2  0  0  0  0
  2  3  1  0  0  0  0
  3  4  2  0  0  0  0
  4  5  1  0  0  0  0
  5  8  1  0  0  0  0
  6  5  2  0  0  0  0
  7  2  1  0  0  0  0
  9 14  1  6  0  0  0
  9 19  1  0  0  0  0
  9 10  1  0  0  0  0
 10  3  1  0  0  0  0
 10 15  1  1  0  0  0
 11 10  1  0  0  0  0
 12 13  1  0  0  0  0
 12 16  1  0  0  0  0
 12 11  1  0  0  0  0
 13  9  1  0  0  0  0
 13 18  1  1  0  0  0
 17 12  1  0  0  0  0
 19 20  1  0  0  0  0
 21 13  1  0  0  0  0
 22 21  1  0  0  0  0
 23  1  1  0  0  0  0
 23 28  1  0  0  0  0
 24 23  1  0  0  0  0
 25 23  1  0  0  0  0
 26 31  1  0  0  0  0
 27 26  2  0  0  0  0
 28 26  1  0  0  0  0
 28 29  1  0  0  0  0
 30 31  2  0  0  0  0
 30 37  1  0  0  0  0
 31 32  1  0  0  0  0
 32 33  1  0  0  0  0
 32 34  2  0  0  0  0
 34 35  1  0  0  0  0
 36 34  1  0  0  0  0
 37 36  2  0  0  0  0
 38 39  3  0  0  0  0
 39 30  1  0  0  0  0
M  END
>  <minimizedAffinity>
-0.612917304

>  <minimizedRMSD>
0.984858036

$$$$
