
 OpenBabel03242520193D

 36 38  0  0  0  0  0  0  0  0999 V2000
   40.8220   35.7890   39.4710 C   0  0  0  0  0  0  0  0  0  0  0  0
   40.5630   35.5120   38.4310 H   0  0  0  0  0  0  0  0  0  0  0  0
   41.0150   36.8940   39.5120 H   0  0  0  0  0  0  0  0  0  0  0  0
   43.8560   34.6290   41.3730 C   0  0  0  0  0  0  0  0  0  0  0  0
   42.6750   35.3060   41.0570 C   0  0  0  0  0  0  0  0  0  0  0  0
   42.0780   35.0870   39.8230 C   0  0  0  0  0  0  0  0  0  0  0  0
   42.6880   34.2040   38.9720 N   0  0  0  0  0  0  0  0  0  0  0  0
   43.8370   33.5640   39.3180 C   0  0  0  0  0  0  0  0  0  0  0  0
   44.4160   33.7700   40.5000 N   0  0  0  0  0  0  0  0  0  0  0  0
   42.2750   35.9850   41.7860 H   0  0  0  0  0  0  0  0  0  0  0  0
   44.2310   32.8780   38.5560 H   0  0  0  0  0  0  0  0  0  0  0  0
   44.5040   34.8800   42.6880 C   0  0  0  0  0  0  0  0  0  0  0  0
   46.0260   35.2510   42.5180 C   0  0  0  0  0  0  0  0  0  0  0  0
   45.0120   36.1410   43.0990 C   0  0  0  0  0  0  0  0  0  0  0  0
   44.3690   34.0420   43.4350 H   0  0  0  0  0  0  0  0  0  0  0  0
   46.3920   35.4290   41.5090 H   0  0  0  0  0  0  0  0  0  0  0  0
   46.7390   34.7030   43.1770 H   0  0  0  0  0  0  0  0  0  0  0  0
   44.6700   37.0390   42.5110 H   0  0  0  0  0  0  0  0  0  0  0  0
   45.1000   36.3650   44.1910 H   0  0  0  0  0  0  0  0  0  0  0  0
   39.7150   35.4600   40.4350 C   0  0  0  0  0  0  0  0  0  0  0  0
   38.9840   36.3210   40.4600 H   0  0  0  0  0  0  0  0  0  0  0  0
   40.1300   35.4230   41.4420 H   0  0  0  0  0  0  0  0  0  0  0  0
   39.2010   33.0740   40.8590 C   0  0  0  0  0  0  0  0  0  0  0  0
   39.9230   33.0790   41.9080 O   0  0  0  0  0  0  0  0  0  0  0  0
   39.0070   34.2370   40.0660 N   0  0  0  0  0  0  0  0  0  0  0  0
   38.3710   34.1660   39.2510 H   0  0  0  0  0  0  0  0  0  0  0  0
   38.2670   31.2190   39.3810 C   0  0  0  0  0  0  0  0  0  0  0  0
   38.6320   31.7540   40.6120 C   0  0  0  0  0  0  0  0  0  0  0  0
   38.4040   30.8630   41.6760 C   0  0  0  0  0  0  0  0  0  0  0  0
   38.6970   31.2700   42.6620 H   0  0  0  0  0  0  0  0  0  0  0  0
   37.8910   29.5990   41.6150 C   0  0  0  0  0  0  0  0  0  0  0  0
   37.7890   29.0480   42.5250 H   0  0  0  0  0  0  0  0  0  0  0  0
   37.5580   29.1550   40.3530 C   0  0  0  0  0  3  0  0  0  0  0  0
   37.7480   29.9600   39.2520 C   0  0  0  0  0  3  0  0  0  0  0  0
   38.6060   32.7240   37.2970 N   0  0  0  0  0  0  0  0  0  0  0  0
   38.4530   32.0580   38.2360 C   0  0  0  0  0  0  0  0  0  0  0  0
  1  3  1  0  0  0  0
  1  6  1  0  0  0  0
  1 20  1  0  0  0  0
  2  1  1  0  0  0  0
  4 12  1  0  0  0  0
  5  4  1  0  0  0  0
  5 10  1  0  0  0  0
  6  5  2  0  0  0  0
  7  8  2  0  0  0  0
  7  6  1  0  0  0  0
  8  9  1  0  0  0  0
  9  4  2  0  0  0  0
 11  8  1  0  0  0  0
 12 14  1  0  0  0  0
 12 15  1  0  0  0  0
 13 12  1  0  0  0  0
 13 14  1  0  0  0  0
 13 17  1  0  0  0  0
 14 19  1  0  0  0  0
 16 13  1  0  0  0  0
 18 14  1  0  0  0  0
 20 21  1  0  0  0  0
 20 22  1  0  0  0  0
 23 24  2  0  0  0  0
 25 20  1  0  0  0  0
 25 23  1  0  0  0  0
 26 25  1  0  0  0  0
 27 28  1  0  0  0  0
 28 23  1  0  0  0  0
 28 29  2  0  0  0  0
 29 30  1  0  0  0  0
 31 29  1  0  0  0  0
 31 32  1  0  0  0  0
 33 31  2  0  0  0  0
 34 27  2  0  0  0  0
 34 33  1  0  0  0  0
 35 36  3  0  0  0  0
 36 27  1  0  0  0  0
M  END
>  <minimizedAffinity>
-5.10094023

>  <minimizedRMSD>
1.01939392

$$$$
