
 OpenBabel03242520193D

 36 38  0  0  0  0  0  0  0  0999 V2000
   41.5280   35.4460   38.8010 C   0  0  0  0  0  0  0  0  0  0  0  0
   41.3840   35.0020   37.7980 H   0  0  0  0  0  0  0  0  0  0  0  0
   41.7630   36.5370   38.6820 H   0  0  0  0  0  0  0  0  0  0  0  0
   44.2020   34.4950   41.2730 C   0  0  0  0  0  0  0  0  0  0  0  0
   43.0980   35.1340   40.7040 C   0  0  0  0  0  0  0  0  0  0  0  0
   42.7000   34.7860   39.4200 C   0  0  0  0  0  0  0  0  0  0  0  0
   43.4240   33.8190   38.7740 N   0  0  0  0  0  0  0  0  0  0  0  0
   44.4930   33.2190   39.3640 C   0  0  0  0  0  0  0  0  0  0  0  0
   44.8790   33.5490   40.5960 N   0  0  0  0  0  0  0  0  0  0  0  0
   42.5970   35.8860   41.2860 H   0  0  0  0  0  0  0  0  0  0  0  0
   44.9910   32.4570   38.7500 H   0  0  0  0  0  0  0  0  0  0  0  0
   44.6370   34.8830   42.6410 C   0  0  0  0  0  0  0  0  0  0  0  0
   46.1490   35.3270   42.6600 C   0  0  0  0  0  0  0  0  0  0  0  0
   45.0210   36.1990   43.0130 C   0  0  0  0  0  0  0  0  0  0  0  0
   44.4310   34.0990   43.4300 H   0  0  0  0  0  0  0  0  0  0  0  0
   46.6510   35.4470   41.7030 H   0  0  0  0  0  0  0  0  0  0  0  0
   46.7810   34.8730   43.4590 H   0  0  0  0  0  0  0  0  0  0  0  0
   44.7290   37.0280   42.3080 H   0  0  0  0  0  0  0  0  0  0  0  0
   44.9370   36.5110   44.0840 H   0  0  0  0  0  0  0  0  0  0  0  0
   40.2990   35.3120   39.6590 C   0  0  0  0  0  0  0  0  0  0  0  0
   39.4820   35.9650   39.2320 H   0  0  0  0  0  0  0  0  0  0  0  0
   40.5110   35.7400   40.6380 H   0  0  0  0  0  0  0  0  0  0  0  0
   39.6510   33.3400   41.0110 C   0  0  0  0  0  0  0  0  0  0  0  0
   39.8370   33.9890   42.0920 O   0  0  0  0  0  0  0  0  0  0  0  0
   39.8260   33.9320   39.7320 N   0  0  0  0  0  0  0  0  0  0  0  0
   39.6130   33.3540   38.8980 H   0  0  0  0  0  0  0  0  0  0  0  0
   40.0540   30.9400   41.7660 C   0  0  0  0  0  0  0  0  0  0  0  0
   39.2480   31.9650   41.2810 C   0  0  0  0  0  0  0  0  0  0  0  0
   37.9240   31.5490   41.0600 C   0  0  0  0  0  0  0  0  0  0  0  0
   37.2670   32.3550   40.6800 H   0  0  0  0  0  0  0  0  0  0  0  0
   37.3870   30.3110   41.2660 C   0  0  0  0  0  0  0  0  0  0  0  0
   36.3510   30.1630   41.0540 H   0  0  0  0  0  0  0  0  0  0  0  0
   38.2620   29.3610   41.7490 C   0  0  0  0  0  3  0  0  0  0  0  0
   39.5800   29.6770   41.9970 C   0  0  0  0  0  3  0  0  0  0  0  0
   42.5390   31.5160   42.2280 N   0  0  0  0  0  0  0  0  0  0  0  0
   41.4260   31.2640   42.0150 C   0  0  0  0  0  0  0  0  0  0  0  0
  1  6  1  0  0  0  0
  1 20  1  0  0  0  0
  2  1  1  0  0  0  0
  3  1  1  0  0  0  0
  4 12  1  0  0  0  0
  5  4  1  0  0  0  0
  5 10  1  0  0  0  0
  6  5  2  0  0  0  0
  7  8  2  0  0  0  0
  7  6  1  0  0  0  0
  8  9  1  0  0  0  0
  9  4  2  0  0  0  0
 11  8  1  0  0  0  0
 12 13  1  0  0  0  0
 12 14  1  0  0  0  0
 12 15  1  0  0  0  0
 13 14  1  0  0  0  0
 13 17  1  0  0  0  0
 14 19  1  0  0  0  0
 16 13  1  0  0  0  0
 18 14  1  0  0  0  0
 20 25  1  0  0  0  0
 20 22  1  0  0  0  0
 21 20  1  0  0  0  0
 23 28  1  0  0  0  0
 23 24  2  0  0  0  0
 25 23  1  0  0  0  0
 26 25  1  0  0  0  0
 27 34  1  0  0  0  0
 27 36  1  0  0  0  0
 28 27  2  0  0  0  0
 29 31  2  0  0  0  0
 29 28  1  0  0  0  0
 30 29  1  0  0  0  0
 31 33  1  0  0  0  0
 32 31  1  0  0  0  0
 33 34  2  0  0  0  0
 36 35  3  0  0  0  0
M  END
>  <minimizedAffinity>
-5.1041851

>  <minimizedRMSD>
1.2896446

$$$$
