
 OpenBabel03242520193D

 36 38  0  0  0  0  0  0  0  0999 V2000
   40.8050   35.7960   39.6410 C   0  0  0  0  0  0  0  0  0  0  0  0
   40.5900   35.5410   38.5860 H   0  0  0  0  0  0  0  0  0  0  0  0
   40.9580   36.9050   39.7200 H   0  0  0  0  0  0  0  0  0  0  0  0
   43.8560   34.7490   41.5810 C   0  0  0  0  0  0  0  0  0  0  0  0
   42.6650   35.3950   41.2430 C   0  0  0  0  0  0  0  0  0  0  0  0
   42.0720   35.1270   40.0160 C   0  0  0  0  0  0  0  0  0  0  0  0
   42.6980   34.2280   39.1950 N   0  0  0  0  0  0  0  0  0  0  0  0
   43.8570   33.6180   39.5610 C   0  0  0  0  0  0  0  0  0  0  0  0
   44.4310   33.8720   40.7370 N   0  0  0  0  0  0  0  0  0  0  0  0
   42.2520   36.0910   41.9500 H   0  0  0  0  0  0  0  0  0  0  0  0
   44.2640   32.9150   38.8220 H   0  0  0  0  0  0  0  0  0  0  0  0
   44.4980   35.0530   42.8870 C   0  0  0  0  0  0  0  0  0  0  0  0
   46.0370   35.3520   42.7160 C   0  0  0  0  0  0  0  0  0  0  0  0
   45.0530   36.3150   43.2280 C   0  0  0  0  0  0  0  0  0  0  0  0
   44.3210   34.2680   43.6820 H   0  0  0  0  0  0  0  0  0  0  0  0
   46.4210   35.4520   41.7040 H   0  0  0  0  0  0  0  0  0  0  0  0
   46.7190   34.8160   43.4170 H   0  0  0  0  0  0  0  0  0  0  0  0
   44.7550   37.1880   42.5830 H   0  0  0  0  0  0  0  0  0  0  0  0
   45.1380   36.6010   44.3070 H   0  0  0  0  0  0  0  0  0  0  0  0
   39.6780   35.4020   40.5570 C   0  0  0  0  0  0  0  0  0  0  0  0
   38.9530   36.2640   40.6370 H   0  0  0  0  0  0  0  0  0  0  0  0
   40.0760   35.2840   41.5650 H   0  0  0  0  0  0  0  0  0  0  0  0
   39.1680   32.9860   40.7640 C   0  0  0  0  0  0  0  0  0  0  0  0
   39.8970   32.8970   41.8060 O   0  0  0  0  0  0  0  0  0  0  0  0
   38.9700   34.2170   40.0820 N   0  0  0  0  0  0  0  0  0  0  0  0
   38.3290   34.2200   39.2680 H   0  0  0  0  0  0  0  0  0  0  0  0
   38.9260   30.9210   39.2920 C   0  0  0  0  0  0  0  0  0  0  0  0
   38.6000   31.6940   40.4010 C   0  0  0  0  0  0  0  0  0  0  0  0
   37.6170   31.0920   41.2070 C   0  0  0  0  0  0  0  0  0  0  0  0
   37.3510   31.6920   42.0990 H   0  0  0  0  0  0  0  0  0  0  0  0
   36.9940   29.8920   41.0150 C   0  0  0  0  0  0  0  0  0  0  0  0
   36.2700   29.5750   41.7340 H   0  0  0  0  0  0  0  0  0  0  0  0
   37.3830   29.1980   39.8890 C   0  0  0  0  0  3  0  0  0  0  0  0
   38.3400   29.7100   39.0410 C   0  0  0  0  0  3  0  0  0  0  0  0
   40.7180   31.8740   37.6790 N   0  0  0  0  0  0  0  0  0  0  0  0
   39.9120   31.4550   38.4040 C   0  0  0  0  0  0  0  0  0  0  0  0
  1  3  1  0  0  0  0
  1  6  1  0  0  0  0
  1 20  1  0  0  0  0
  2  1  1  0  0  0  0
  4 12  1  0  0  0  0
  5  4  1  0  0  0  0
  5 10  1  0  0  0  0
  6  5  2  0  0  0  0
  7  8  2  0  0  0  0
  7  6  1  0  0  0  0
  8  9  1  0  0  0  0
  9  4  2  0  0  0  0
 11  8  1  0  0  0  0
 12 14  1  0  0  0  0
 12 15  1  0  0  0  0
 13 12  1  0  0  0  0
 13 14  1  0  0  0  0
 13 17  1  0  0  0  0
 14 19  1  0  0  0  0
 16 13  1  0  0  0  0
 18 14  1  0  0  0  0
 20 21  1  0  0  0  0
 20 22  1  0  0  0  0
 23 24  2  0  0  0  0
 25 20  1  0  0  0  0
 25 23  1  0  0  0  0
 26 25  1  0  0  0  0
 27 28  1  0  0  0  0
 28 23  1  0  0  0  0
 28 29  2  0  0  0  0
 29 30  1  0  0  0  0
 31 29  1  0  0  0  0
 31 32  1  0  0  0  0
 33 31  2  0  0  0  0
 34 27  2  0  0  0  0
 34 33  1  0  0  0  0
 35 36  3  0  0  0  0
 36 27  1  0  0  0  0
M  END
>  <minimizedAffinity>
-5.17054319

>  <minimizedRMSD>
0.669102013

$$$$
