
 OpenBabel03242520193D

 36 38  0  0  0  0  0  0  0  0999 V2000
   41.5740   35.6910   38.9230 C   0  0  0  0  0  0  0  0  0  0  0  0
   41.6420   35.5350   37.8290 H   0  0  0  0  0  0  0  0  0  0  0  0
   41.7280   36.7820   39.1410 H   0  0  0  0  0  0  0  0  0  0  0  0
   44.1700   34.5560   41.3990 C   0  0  0  0  0  0  0  0  0  0  0  0
   43.1330   35.2880   40.8170 C   0  0  0  0  0  0  0  0  0  0  0  0
   42.6780   34.9330   39.5550 C   0  0  0  0  0  0  0  0  0  0  0  0
   43.2810   33.8670   38.9420 N   0  0  0  0  0  0  0  0  0  0  0  0
   44.2880   33.1790   39.5430 C   0  0  0  0  0  0  0  0  0  0  0  0
   44.7290   33.5140   40.7540 N   0  0  0  0  0  0  0  0  0  0  0  0
   42.7270   36.1130   41.3720 H   0  0  0  0  0  0  0  0  0  0  0  0
   44.6900   32.3420   38.9560 H   0  0  0  0  0  0  0  0  0  0  0  0
   44.6680   34.9500   42.7440 C   0  0  0  0  0  0  0  0  0  0  0  0
   46.1900   35.3610   42.6970 C   0  0  0  0  0  0  0  0  0  0  0  0
   45.0950   36.2610   43.0830 C   0  0  0  0  0  0  0  0  0  0  0  0
   44.4780   34.1790   43.5500 H   0  0  0  0  0  0  0  0  0  0  0  0
   46.6550   35.4590   41.7190 H   0  0  0  0  0  0  0  0  0  0  0  0
   46.8430   34.9020   43.4750 H   0  0  0  0  0  0  0  0  0  0  0  0
   44.7930   37.0880   42.3810 H   0  0  0  0  0  0  0  0  0  0  0  0
   45.0610   36.5870   44.1530 H   0  0  0  0  0  0  0  0  0  0  0  0
   40.2340   35.2790   39.4690 C   0  0  0  0  0  0  0  0  0  0  0  0
   39.4260   35.6400   38.7670 H   0  0  0  0  0  0  0  0  0  0  0  0
   40.0550   35.8220   40.3970 H   0  0  0  0  0  0  0  0  0  0  0  0
   39.9570   33.3000   40.9340 C   0  0  0  0  0  0  0  0  0  0  0  0
   39.8420   34.0460   41.9610 O   0  0  0  0  0  0  0  0  0  0  0  0
   40.1250   33.8310   39.6270 N   0  0  0  0  0  0  0  0  0  0  0  0
   40.1670   33.1630   38.8360 H   0  0  0  0  0  0  0  0  0  0  0  0
   39.3370   30.8600   40.5400 C   0  0  0  0  0  0  0  0  0  0  0  0
   39.8920   31.8890   41.2930 C   0  0  0  0  0  0  0  0  0  0  0  0
   40.4300   31.4340   42.5110 C   0  0  0  0  0  0  0  0  0  0  0  0
   40.8820   32.2390   43.1190 H   0  0  0  0  0  0  0  0  0  0  0  0
   40.4580   30.1560   42.9900 C   0  0  0  0  0  0  0  0  0  0  0  0
   40.9170   29.9790   43.9380 H   0  0  0  0  0  0  0  0  0  0  0  0
   39.8840   29.2050   42.1720 C   0  0  0  0  0  3  0  0  0  0  0  0
   39.3320   29.5590   40.9610 C   0  0  0  0  0  3  0  0  0  0  0  0
   38.2850   31.5090   38.2600 N   0  0  0  0  0  0  0  0  0  0  0  0
   38.7530   31.2270   39.2850 C   0  0  0  0  0  0  0  0  0  0  0  0
  1  3  1  0  0  0  0
  1 20  1  0  0  0  0
  1  6  1  0  0  0  0
  2  1  1  0  0  0  0
  4 12  1  0  0  0  0
  5 10  1  0  0  0  0
  5  4  1  0  0  0  0
  6  5  2  0  0  0  0
  7  8  2  0  0  0  0
  7  6  1  0  0  0  0
  8  9  1  0  0  0  0
  9  4  2  0  0  0  0
 11  8  1  0  0  0  0
 12 14  1  0  0  0  0
 12 15  1  0  0  0  0
 13 12  1  0  0  0  0
 13 14  1  0  0  0  0
 13 17  1  0  0  0  0
 14 19  1  0  0  0  0
 16 13  1  0  0  0  0
 18 14  1  0  0  0  0
 20 25  1  0  0  0  0
 20 22  1  0  0  0  0
 21 20  1  0  0  0  0
 23 28  1  0  0  0  0
 23 24  2  0  0  0  0
 25 23  1  0  0  0  0
 26 25  1  0  0  0  0
 27 34  2  0  0  0  0
 27 28  1  0  0  0  0
 28 29  2  0  0  0  0
 29 31  1  0  0  0  0
 29 30  1  0  0  0  0
 31 32  1  0  0  0  0
 33 31  2  0  0  0  0
 34 33  1  0  0  0  0
 35 36  3  0  0  0  0
 36 27  1  0  0  0  0
M  END
>  <minimizedAffinity>
-4.64886808

>  <minimizedRMSD>
2.04488349

$$$$
