
 OpenBabel03242520193D

 36 38  0  0  0  0  0  0  0  0999 V2000
   40.8110   35.7980   39.4760 C   0  0  0  0  0  0  0  0  0  0  0  0
   40.5520   35.5310   38.4340 H   0  0  0  0  0  0  0  0  0  0  0  0
   41.0080   36.9020   39.5270 H   0  0  0  0  0  0  0  0  0  0  0  0
   43.8360   34.6110   41.3740 C   0  0  0  0  0  0  0  0  0  0  0  0
   42.6590   35.2950   41.0610 C   0  0  0  0  0  0  0  0  0  0  0  0
   42.0630   35.0880   39.8250 C   0  0  0  0  0  0  0  0  0  0  0  0
   42.6710   34.2100   38.9680 N   0  0  0  0  0  0  0  0  0  0  0  0
   43.8160   33.5620   39.3110 C   0  0  0  0  0  0  0  0  0  0  0  0
   44.3940   33.7560   40.4960 N   0  0  0  0  0  0  0  0  0  0  0  0
   42.2600   35.9710   41.7950 H   0  0  0  0  0  0  0  0  0  0  0  0
   44.2080   32.8800   38.5450 H   0  0  0  0  0  0  0  0  0  0  0  0
   44.4830   34.8490   42.6920 C   0  0  0  0  0  0  0  0  0  0  0  0
   45.9920   35.2720   42.5240 C   0  0  0  0  0  0  0  0  0  0  0  0
   44.9540   36.1140   43.1320 C   0  0  0  0  0  0  0  0  0  0  0  0
   44.3780   33.9890   43.4190 H   0  0  0  0  0  0  0  0  0  0  0  0
   46.3460   35.4860   41.5180 H   0  0  0  0  0  0  0  0  0  0  0  0
   46.7250   34.7300   43.1660 H   0  0  0  0  0  0  0  0  0  0  0  0
   44.5810   37.0160   42.5680 H   0  0  0  0  0  0  0  0  0  0  0  0
   45.0410   36.3130   44.2300 H   0  0  0  0  0  0  0  0  0  0  0  0
   39.7000   35.4670   40.4350 C   0  0  0  0  0  0  0  0  0  0  0  0
   38.9650   36.3250   40.4560 H   0  0  0  0  0  0  0  0  0  0  0  0
   40.1100   35.4320   41.4440 H   0  0  0  0  0  0  0  0  0  0  0  0
   39.1920   33.0790   40.8600 C   0  0  0  0  0  0  0  0  0  0  0  0
   39.9080   33.0890   41.9130 O   0  0  0  0  0  0  0  0  0  0  0  0
   38.9990   34.2400   40.0640 N   0  0  0  0  0  0  0  0  0  0  0  0
   38.3670   34.1660   39.2450 H   0  0  0  0  0  0  0  0  0  0  0  0
   38.2680   31.2210   39.3800 C   0  0  0  0  0  0  0  0  0  0  0  0
   38.6290   31.7570   40.6120 C   0  0  0  0  0  0  0  0  0  0  0  0
   38.4040   30.8640   41.6740 C   0  0  0  0  0  0  0  0  0  0  0  0
   38.6930   31.2720   42.6620 H   0  0  0  0  0  0  0  0  0  0  0  0
   37.8960   29.5980   41.6130 C   0  0  0  0  0  0  0  0  0  0  0  0
   37.7970   29.0450   42.5220 H   0  0  0  0  0  0  0  0  0  0  0  0
   37.5670   29.1530   40.3500 C   0  0  0  0  0  3  0  0  0  0  0  0
   37.7540   29.9600   39.2490 C   0  0  0  0  0  3  0  0  0  0  0  0
   38.6040   32.7280   37.2980 N   0  0  0  0  0  0  0  0  0  0  0  0
   38.4520   32.0600   38.2350 C   0  0  0  0  0  0  0  0  0  0  0  0
  1  3  1  0  0  0  0
  1  6  1  0  0  0  0
  1 20  1  0  0  0  0
  2  1  1  0  0  0  0
  4 12  1  0  0  0  0
  5  4  1  0  0  0  0
  5 10  1  0  0  0  0
  6  5  2  0  0  0  0
  7  8  2  0  0  0  0
  7  6  1  0  0  0  0
  8  9  1  0  0  0  0
  9  4  2  0  0  0  0
 11  8  1  0  0  0  0
 12 14  1  0  0  0  0
 12 15  1  0  0  0  0
 13 12  1  0  0  0  0
 13 14  1  0  0  0  0
 13 17  1  0  0  0  0
 14 19  1  0  0  0  0
 16 13  1  0  0  0  0
 18 14  1  0  0  0  0
 20 21  1  0  0  0  0
 20 22  1  0  0  0  0
 23 24  2  0  0  0  0
 25 20  1  0  0  0  0
 25 23  1  0  0  0  0
 26 25  1  0  0  0  0
 27 28  1  0  0  0  0
 28 23  1  0  0  0  0
 28 29  2  0  0  0  0
 29 30  1  0  0  0  0
 31 29  1  0  0  0  0
 31 32  1  0  0  0  0
 33 31  2  0  0  0  0
 34 27  2  0  0  0  0
 34 33  1  0  0  0  0
 35 36  3  0  0  0  0
 36 27  1  0  0  0  0
M  END
>  <minimizedAffinity>
-5.09030151

>  <minimizedRMSD>
0.643255949

$$$$
