
 OpenBabel03242520193D

 36 38  0  0  0  0  0  0  0  0999 V2000
   41.5300   35.4460   38.8010 C   0  0  0  0  0  0  0  0  0  0  0  0
   41.3860   35.0020   37.7970 H   0  0  0  0  0  0  0  0  0  0  0  0
   41.7650   36.5370   38.6820 H   0  0  0  0  0  0  0  0  0  0  0  0
   44.2030   34.4930   41.2730 C   0  0  0  0  0  0  0  0  0  0  0  0
   43.0990   35.1330   40.7040 C   0  0  0  0  0  0  0  0  0  0  0  0
   42.7020   34.7850   39.4200 C   0  0  0  0  0  0  0  0  0  0  0  0
   43.4250   33.8180   38.7740 N   0  0  0  0  0  0  0  0  0  0  0  0
   44.4940   33.2180   39.3640 C   0  0  0  0  0  0  0  0  0  0  0  0
   44.8800   33.5470   40.5960 N   0  0  0  0  0  0  0  0  0  0  0  0
   42.5990   35.8850   41.2860 H   0  0  0  0  0  0  0  0  0  0  0  0
   44.9920   32.4560   38.7500 H   0  0  0  0  0  0  0  0  0  0  0  0
   44.6380   34.8810   42.6420 C   0  0  0  0  0  0  0  0  0  0  0  0
   46.1500   35.3270   42.6600 C   0  0  0  0  0  0  0  0  0  0  0  0
   45.0210   36.1970   43.0130 C   0  0  0  0  0  0  0  0  0  0  0  0
   44.4340   34.0960   43.4300 H   0  0  0  0  0  0  0  0  0  0  0  0
   46.6510   35.4470   41.7030 H   0  0  0  0  0  0  0  0  0  0  0  0
   46.7830   34.8730   43.4590 H   0  0  0  0  0  0  0  0  0  0  0  0
   44.7280   37.0260   42.3090 H   0  0  0  0  0  0  0  0  0  0  0  0
   44.9370   36.5090   44.0850 H   0  0  0  0  0  0  0  0  0  0  0  0
   40.3010   35.3120   39.6580 C   0  0  0  0  0  0  0  0  0  0  0  0
   39.4840   35.9650   39.2320 H   0  0  0  0  0  0  0  0  0  0  0  0
   40.5120   35.7400   40.6380 H   0  0  0  0  0  0  0  0  0  0  0  0
   39.6510   33.3400   41.0110 C   0  0  0  0  0  0  0  0  0  0  0  0
   39.8380   33.9900   42.0920 O   0  0  0  0  0  0  0  0  0  0  0  0
   39.8270   33.9320   39.7320 N   0  0  0  0  0  0  0  0  0  0  0  0
   39.6150   33.3540   38.8980 H   0  0  0  0  0  0  0  0  0  0  0  0
   40.0550   30.9400   41.7660 C   0  0  0  0  0  0  0  0  0  0  0  0
   39.2490   31.9650   41.2810 C   0  0  0  0  0  0  0  0  0  0  0  0
   37.9240   31.5500   41.0600 C   0  0  0  0  0  0  0  0  0  0  0  0
   37.2680   32.3560   40.6790 H   0  0  0  0  0  0  0  0  0  0  0  0
   37.3880   30.3110   41.2660 C   0  0  0  0  0  0  0  0  0  0  0  0
   36.3510   30.1640   41.0520 H   0  0  0  0  0  0  0  0  0  0  0  0
   38.2630   29.3610   41.7480 C   0  0  0  0  0  3  0  0  0  0  0  0
   39.5800   29.6780   41.9970 C   0  0  0  0  0  3  0  0  0  0  0  0
   42.5400   31.5160   42.2290 N   0  0  0  0  0  0  0  0  0  0  0  0
   41.4270   31.2640   42.0150 C   0  0  0  0  0  0  0  0  0  0  0  0
  1  6  1  0  0  0  0
  1 20  1  0  0  0  0
  2  1  1  0  0  0  0
  3  1  1  0  0  0  0
  4 12  1  0  0  0  0
  5  4  1  0  0  0  0
  5 10  1  0  0  0  0
  6  5  2  0  0  0  0
  7  8  2  0  0  0  0
  7  6  1  0  0  0  0
  8  9  1  0  0  0  0
  9  4  2  0  0  0  0
 11  8  1  0  0  0  0
 12 13  1  0  0  0  0
 12 14  1  0  0  0  0
 12 15  1  0  0  0  0
 13 14  1  0  0  0  0
 13 17  1  0  0  0  0
 14 19  1  0  0  0  0
 16 13  1  0  0  0  0
 18 14  1  0  0  0  0
 20 25  1  0  0  0  0
 20 22  1  0  0  0  0
 21 20  1  0  0  0  0
 23 28  1  0  0  0  0
 23 24  2  0  0  0  0
 25 23  1  0  0  0  0
 26 25  1  0  0  0  0
 27 34  1  0  0  0  0
 27 36  1  0  0  0  0
 28 27  2  0  0  0  0
 29 31  2  0  0  0  0
 29 28  1  0  0  0  0
 30 29  1  0  0  0  0
 31 33  1  0  0  0  0
 32 31  1  0  0  0  0
 33 34  2  0  0  0  0
 36 35  3  0  0  0  0
M  END
>  <minimizedAffinity>
-5.1038537

>  <minimizedRMSD>
1.39204383

$$$$
