
 OpenBabel03242520193D

 36 38  0  0  0  0  0  0  0  0999 V2000
   40.8050   35.7950   39.6390 C   0  0  0  0  0  0  0  0  0  0  0  0
   40.5900   35.5380   38.5840 H   0  0  0  0  0  0  0  0  0  0  0  0
   40.9580   36.9040   39.7160 H   0  0  0  0  0  0  0  0  0  0  0  0
   43.8560   34.7510   41.5800 C   0  0  0  0  0  0  0  0  0  0  0  0
   42.6640   35.3960   41.2420 C   0  0  0  0  0  0  0  0  0  0  0  0
   42.0720   35.1270   40.0150 C   0  0  0  0  0  0  0  0  0  0  0  0
   42.6990   34.2270   39.1940 N   0  0  0  0  0  0  0  0  0  0  0  0
   43.8580   33.6190   39.5620 C   0  0  0  0  0  0  0  0  0  0  0  0
   44.4320   33.8730   40.7370 N   0  0  0  0  0  0  0  0  0  0  0  0
   42.2510   36.0920   41.9480 H   0  0  0  0  0  0  0  0  0  0  0  0
   44.2650   32.9150   38.8230 H   0  0  0  0  0  0  0  0  0  0  0  0
   44.4980   35.0560   42.8870 C   0  0  0  0  0  0  0  0  0  0  0  0
   46.0370   35.3510   42.7170 C   0  0  0  0  0  0  0  0  0  0  0  0
   45.0550   36.3170   43.2260 C   0  0  0  0  0  0  0  0  0  0  0  0
   44.3170   34.2730   43.6830 H   0  0  0  0  0  0  0  0  0  0  0  0
   46.4220   35.4480   41.7050 H   0  0  0  0  0  0  0  0  0  0  0  0
   46.7170   34.8150   43.4200 H   0  0  0  0  0  0  0  0  0  0  0  0
   44.7610   37.1900   42.5780 H   0  0  0  0  0  0  0  0  0  0  0  0
   45.1400   36.6060   44.3030 H   0  0  0  0  0  0  0  0  0  0  0  0
   39.6780   35.4020   40.5560 C   0  0  0  0  0  0  0  0  0  0  0  0
   38.9540   36.2650   40.6350 H   0  0  0  0  0  0  0  0  0  0  0  0
   40.0760   35.2840   41.5640 H   0  0  0  0  0  0  0  0  0  0  0  0
   39.1690   32.9860   40.7640 C   0  0  0  0  0  0  0  0  0  0  0  0
   39.9000   32.8970   41.8040 O   0  0  0  0  0  0  0  0  0  0  0  0
   38.9690   34.2170   40.0820 N   0  0  0  0  0  0  0  0  0  0  0  0
   38.3260   34.2210   39.2690 H   0  0  0  0  0  0  0  0  0  0  0  0
   38.9260   30.9200   39.2930 C   0  0  0  0  0  0  0  0  0  0  0  0
   38.6000   31.6940   40.4020 C   0  0  0  0  0  0  0  0  0  0  0  0
   37.6180   31.0920   41.2080 C   0  0  0  0  0  0  0  0  0  0  0  0
   37.3520   31.6920   42.0990 H   0  0  0  0  0  0  0  0  0  0  0  0
   36.9940   29.8930   41.0170 C   0  0  0  0  0  0  0  0  0  0  0  0
   36.2700   29.5760   41.7350 H   0  0  0  0  0  0  0  0  0  0  0  0
   37.3830   29.1980   39.8900 C   0  0  0  0  0  3  0  0  0  0  0  0
   38.3400   29.7100   39.0420 C   0  0  0  0  0  3  0  0  0  0  0  0
   40.7180   31.8720   37.6790 N   0  0  0  0  0  0  0  0  0  0  0  0
   39.9130   31.4540   38.4040 C   0  0  0  0  0  0  0  0  0  0  0  0
  1  3  1  0  0  0  0
  1  6  1  0  0  0  0
  1 20  1  0  0  0  0
  2  1  1  0  0  0  0
  4 12  1  0  0  0  0
  5  4  1  0  0  0  0
  5 10  1  0  0  0  0
  6  5  2  0  0  0  0
  7  8  2  0  0  0  0
  7  6  1  0  0  0  0
  8  9  1  0  0  0  0
  9  4  2  0  0  0  0
 11  8  1  0  0  0  0
 12 14  1  0  0  0  0
 12 15  1  0  0  0  0
 13 12  1  0  0  0  0
 13 14  1  0  0  0  0
 13 17  1  0  0  0  0
 14 19  1  0  0  0  0
 16 13  1  0  0  0  0
 18 14  1  0  0  0  0
 20 21  1  0  0  0  0
 20 22  1  0  0  0  0
 23 24  2  0  0  0  0
 25 20  1  0  0  0  0
 25 23  1  0  0  0  0
 26 25  1  0  0  0  0
 27 28  1  0  0  0  0
 28 23  1  0  0  0  0
 28 29  2  0  0  0  0
 29 30  1  0  0  0  0
 31 29  1  0  0  0  0
 31 32  1  0  0  0  0
 33 31  2  0  0  0  0
 34 27  2  0  0  0  0
 34 33  1  0  0  0  0
 35 36  3  0  0  0  0
 36 27  1  0  0  0  0
M  END
>  <minimizedAffinity>
-5.17112541

>  <minimizedRMSD>
0.843989432

$$$$
