
 OpenBabel03252508003D

 30 32  0  0  1  0  0  0  0  0999 V2000
   47.0330   33.3460   44.3680 C   0  0  0  0  0  0  0  0  0  0  0  0
   46.0360   34.3350   44.6120 C   0  0  0  0  0  0  0  0  0  0  0  0
   45.2490   34.1390   45.7410 C   0  0  0  0  0  0  0  0  0  0  0  0
   45.4690   33.0520   46.5200 N   0  0  0  0  0  0  0  0  0  0  0  0
   46.4500   32.1360   46.2240 C   0  0  0  0  0  0  0  0  0  0  0  0
   47.2290   32.2660   45.1670 N   0  0  0  0  0  0  0  0  0  0  0  0
   45.9370   35.1680   43.9300 H   0  0  0  0  0  0  0  0  0  0  0  0
   44.4840   34.8600   45.9640 H   0  0  0  0  0  0  0  0  0  0  0  0
   46.6420   30.9720   47.1380 C   0  0  1  0  0  0  0  0  0  0  0  0
   47.8380   30.9660   48.0640 C   0  0  0  0  0  0  0  0  0  0  0  0
   46.4570   31.2810   48.5710 C   0  0  1  0  0  0  0  0  0  0  0  0
   46.3530   29.9840   46.7540 H   0  0  0  0  0  0  0  0  0  0  0  0
   48.2610   29.9960   48.3640 H   0  0  0  0  0  0  0  0  0  0  0  0
   48.5480   31.7900   47.8440 H   0  0  0  0  0  0  0  0  0  0  0  0
   45.9520   30.5590   49.2250 H   0  0  0  0  0  0  0  0  0  0  0  0
   46.3320   32.6790   48.9970 N   0  0  0  0  0  0  0  0  0  0  0  0
   46.2110   32.6810   50.0350 H   0  0  0  0  0  0  0  0  0  0  0  0
   47.1960   33.2350   48.8240 H   0  0  0  0  0  0  0  0  0  0  0  0
   47.8550   33.5680   43.1950 C   0  0  0  0  0  0  0  0  0  0  0  0
   48.6140   34.5890   43.0540 O   0  0  0  0  0  0  0  0  0  0  0  0
   47.1590   32.8220   40.9080 C   0  0  0  0  0  0  0  0  0  0  0  0
   48.0070   32.7520   41.9930 C   0  0  0  0  0  0  0  0  0  0  0  0
   49.0650   31.8520   41.9390 C   0  0  0  0  0  0  0  0  0  0  0  0
   49.7870   31.7330   42.7620 H   0  0  0  0  0  0  0  0  0  0  0  0
   49.2900   31.0370   40.8440 C   0  0  0  0  0  0  0  0  0  0  0  0
   50.1090   30.3510   40.8220 H   0  0  0  0  0  0  0  0  0  0  0  0
   48.4320   31.1190   39.7640 C   0  0  0  0  0  3  0  0  0  0  0  0
   47.3690   32.0160   39.8070 C   0  0  0  0  0  3  0  0  0  0  0  0
   45.1870   34.4820   40.9730 N   0  0  0  0  0  0  0  0  0  0  0  0
   46.0620   33.7440   40.9430 C   0  0  0  0  0  0  0  0  0  0  0  0
  1  2  2  0  0  0  0
  1  6  1  0  0  0  0
  2  3  1  0  0  0  0
  3  8  1  0  0  0  0
  3  4  2  0  0  0  0
  5  4  1  0  0  0  0
  5  9  1  0  0  0  0
  6  5  2  0  0  0  0
  7  2  1  0  0  0  0
  9 12  1  6  0  0  0
  9 10  1  0  0  0  0
  9 11  1  0  0  0  0
 10 13  1  0  0  0  0
 10 11  1  0  0  0  0
 11 16  1  0  0  0  0
 11 15  1  1  0  0  0
 14 10  1  0  0  0  0
 16 17  1  0  0  0  0
 18 16  1  0  0  0  0
 19  1  1  0  0  0  0
 20 19  2  0  0  0  0
 21 30  1  0  0  0  0
 21 22  1  0  0  0  0
 22 19  1  0  0  0  0
 23 22  2  0  0  0  0
 23 24  1  0  0  0  0
 25 23  1  0  0  0  0
 26 25  1  0  0  0  0
 27 28  1  0  0  0  0
 27 25  2  0  0  0  0
 28 21  2  0  0  0  0
 30 29  3  0  0  0  0
M  END
>  <minimizedAffinity>
-4.0695262

>  <minimizedRMSD>
2.88193893

$$$$
