
 OpenBabel03252508003D

 30 32  0  0  1  0  0  0  0  0999 V2000
   46.6970   34.5430   43.2230 C   0  0  0  0  0  0  0  0  0  0  0  0
   45.6340   35.4790   43.3850 C   0  0  0  0  0  0  0  0  0  0  0  0
   44.8310   35.2970   44.5050 C   0  0  0  0  0  0  0  0  0  0  0  0
   45.0970   34.2730   45.3510 N   0  0  0  0  0  0  0  0  0  0  0  0
   46.1420   33.4060   45.1320 C   0  0  0  0  0  0  0  0  0  0  0  0
   46.9390   33.5250   44.0880 N   0  0  0  0  0  0  0  0  0  0  0  0
   45.5030   36.2640   42.6530 H   0  0  0  0  0  0  0  0  0  0  0  0
   44.0170   35.9800   44.6670 H   0  0  0  0  0  0  0  0  0  0  0  0
   46.3810   32.3110   46.1180 C   0  0  1  0  0  0  0  0  0  0  0  0
   47.0670   32.6470   47.4230 C   0  0  0  0  0  0  0  0  0  0  0  0
   45.5820   32.4150   47.3560 C   0  0  1  0  0  0  0  0  0  0  0  0
   46.6250   31.3200   45.7100 H   0  0  0  0  0  0  0  0  0  0  0  0
   47.6630   31.8640   47.9140 H   0  0  0  0  0  0  0  0  0  0  0  0
   47.4660   33.6820   47.4370 H   0  0  0  0  0  0  0  0  0  0  0  0
   45.1630   31.5100   47.8140 H   0  0  0  0  0  0  0  0  0  0  0  0
   44.8220   33.6400   47.6230 N   0  0  0  0  0  0  0  0  0  0  0  0
   44.3330   33.5140   48.5370 H   0  0  0  0  0  0  0  0  0  0  0  0
   45.4300   34.4760   47.7540 H   0  0  0  0  0  0  0  0  0  0  0  0
   47.5360   34.7490   42.0580 C   0  0  0  0  0  0  0  0  0  0  0  0
   48.2600   35.7920   41.8910 O   0  0  0  0  0  0  0  0  0  0  0  0
   48.8670   33.1180   40.7010 C   0  0  0  0  0  0  0  0  0  0  0  0
   47.7430   33.8930   40.8930 C   0  0  0  0  0  0  0  0  0  0  0  0
   46.7490   33.8570   39.9210 C   0  0  0  0  0  0  0  0  0  0  0  0
   45.8220   34.4440   39.9970 H   0  0  0  0  0  0  0  0  0  0  0  0
   46.8550   33.0770   38.7830 C   0  0  0  0  0  0  0  0  0  0  0  0
   46.0800   33.0630   38.0470 H   0  0  0  0  0  0  0  0  0  0  0  0
   47.9880   32.3050   38.6050 C   0  0  0  0  0  3  0  0  0  0  0  0
   48.9870   32.3340   39.5710 C   0  0  0  0  0  3  0  0  0  0  0  0
   50.7270   33.1600   42.4850 N   0  0  0  0  0  0  0  0  0  0  0  0
   49.9030   33.1410   41.6930 C   0  0  0  0  0  0  0  0  0  0  0  0
  1  2  2  0  0  0  0
  1  6  1  0  0  0  0
  2  3  1  0  0  0  0
  3  8  1  0  0  0  0
  3  4  2  0  0  0  0
  5  4  1  0  0  0  0
  5  9  1  0  0  0  0
  6  5  2  0  0  0  0
  7  2  1  0  0  0  0
  9 12  1  6  0  0  0
  9 11  1  0  0  0  0
  9 10  1  0  0  0  0
 10 14  1  0  0  0  0
 10 13  1  0  0  0  0
 11 10  1  0  0  0  0
 11 16  1  0  0  0  0
 11 15  1  1  0  0  0
 16 18  1  0  0  0  0
 16 17  1  0  0  0  0
 19  1  1  0  0  0  0
 20 19  2  0  0  0  0
 21 22  1  0  0  0  0
 21 30  1  0  0  0  0
 22 19  1  0  0  0  0
 23 24  1  0  0  0  0
 23 22  2  0  0  0  0
 25 23  1  0  0  0  0
 26 25  1  0  0  0  0
 27 25  2  0  0  0  0
 27 28  1  0  0  0  0
 28 21  2  0  0  0  0
 30 29  3  0  0  0  0
M  END
>  <minimizedAffinity>
-5.59544039

>  <minimizedRMSD>
1.56288421

$$$$
