
 OpenBabel03252507593D

 30 32  0  0  1  0  0  0  0  0999 V2000
   47.2410   34.1230   43.4350 C   0  0  0  0  0  0  0  0  0  0  0  0
   46.1370   35.0060   43.2470 C   0  0  0  0  0  0  0  0  0  0  0  0
   45.0850   34.8630   44.1450 C   0  0  0  0  0  0  0  0  0  0  0  0
   45.1680   33.9220   45.1160 N   0  0  0  0  0  0  0  0  0  0  0  0
   46.2650   33.1030   45.2390 C   0  0  0  0  0  0  0  0  0  0  0  0
   47.2940   33.1890   44.4180 N   0  0  0  0  0  0  0  0  0  0  0  0
   46.1640   35.7240   42.4390 H   0  0  0  0  0  0  0  0  0  0  0  0
   44.2320   35.5080   44.0400 H   0  0  0  0  0  0  0  0  0  0  0  0
   46.2890   32.1010   46.3450 C   0  0  1  0  0  0  0  0  0  0  0  0
   46.9360   32.4840   47.6570 C   0  0  0  0  0  0  0  0  0  0  0  0
   45.4400   32.4460   47.5040 C   0  0  1  0  0  0  0  0  0  0  0  0
   46.4170   31.0480   46.0590 H   0  0  0  0  0  0  0  0  0  0  0  0
   47.3870   31.6880   48.2680 H   0  0  0  0  0  0  0  0  0  0  0  0
   47.4750   33.4530   47.5970 H   0  0  0  0  0  0  0  0  0  0  0  0
   44.8720   31.6600   48.0190 H   0  0  0  0  0  0  0  0  0  0  0  0
   44.8440   33.7830   47.5880 N   0  0  0  0  0  0  0  0  0  0  0  0
   44.2880   33.8240   48.4720 H   0  0  0  0  0  0  0  0  0  0  0  0
   45.5540   34.5400   47.6800 H   0  0  0  0  0  0  0  0  0  0  0  0
   48.3370   34.2900   42.5010 C   0  0  0  0  0  0  0  0  0  0  0  0
   49.3990   34.9480   42.7770 O   0  0  0  0  0  0  0  0  0  0  0  0
   49.0160   32.5540   40.8260 C   0  0  0  0  0  0  0  0  0  0  0  0
   48.4850   33.7900   41.1370 C   0  0  0  0  0  0  0  0  0  0  0  0
   48.0660   34.6040   40.0900 C   0  0  0  0  0  0  0  0  0  0  0  0
   47.6330   35.6010   40.2520 H   0  0  0  0  0  0  0  0  0  0  0  0
   48.1660   34.2160   38.7650 C   0  0  0  0  0  0  0  0  0  0  0  0
   47.8390   34.8570   37.9760 H   0  0  0  0  0  0  0  0  0  0  0  0
   48.7000   32.9760   38.4710 C   0  0  0  0  0  3  0  0  0  0  0  0
   49.1220   32.1540   39.5100 C   0  0  0  0  0  3  0  0  0  0  0  0
   49.8000   31.0190   42.7440 N   0  0  0  0  0  0  0  0  0  0  0  0
   49.4530   31.7000   41.8920 C   0  0  0  0  0  0  0  0  0  0  0  0
  1  6  1  0  0  0  0
  2  1  2  0  0  0  0
  2  3  1  0  0  0  0
  3  4  2  0  0  0  0
  4  5  1  0  0  0  0
  5  9  1  0  0  0  0
  6  5  2  0  0  0  0
  7  2  1  0  0  0  0
  8  3  1  0  0  0  0
  9 12  1  6  0  0  0
  9 11  1  0  0  0  0
  9 10  1  0  0  0  0
 10 13  1  0  0  0  0
 11 16  1  0  0  0  0
 11 10  1  0  0  0  0
 11 15  1  1  0  0  0
 14 10  1  0  0  0  0
 16 18  1  0  0  0  0
 16 17  1  0  0  0  0
 19 20  2  0  0  0  0
 19  1  1  0  0  0  0
 21 22  1  0  0  0  0
 21 30  1  0  0  0  0
 22 19  1  0  0  0  0
 23 24  1  0  0  0  0
 23 22  2  0  0  0  0
 25 23  1  0  0  0  0
 26 25  1  0  0  0  0
 27 25  2  0  0  0  0
 27 28  1  0  0  0  0
 28 21  2  0  0  0  0
 30 29  3  0  0  0  0
M  END
>  <minimizedAffinity>
-5.48372602

>  <minimizedRMSD>
2.30339456

$$$$
