
 OpenBabel03252507593D

 30 32  0  0  1  0  0  0  0  0999 V2000
   45.9410   31.0420   44.3980 C   0  0  0  0  0  0  0  0  0  0  0  0
   46.4170   30.2140   43.3400 C   0  0  0  0  0  0  0  0  0  0  0  0
   46.4050   30.7820   42.0710 C   0  0  0  0  0  0  0  0  0  0  0  0
   45.9550   32.0510   41.9190 N   0  0  0  0  0  0  0  0  0  0  0  0
   45.5090   32.7940   42.9860 C   0  0  0  0  0  0  0  0  0  0  0  0
   45.4950   32.3110   44.2140 N   0  0  0  0  0  0  0  0  0  0  0  0
   46.7550   29.2110   43.5630 H   0  0  0  0  0  0  0  0  0  0  0  0
   46.7560   30.1930   41.2430 H   0  0  0  0  0  0  0  0  0  0  0  0
   45.0430   34.1900   42.7400 C   0  0  1  0  0  0  0  0  0  0  0  0
   45.3130   35.2410   43.7940 C   0  0  0  0  0  0  0  0  0  0  0  0
   46.1280   35.1710   42.5310 C   0  0  1  0  0  0  0  0  0  0  0  0
   44.0920   34.3100   42.2030 H   0  0  0  0  0  0  0  0  0  0  0  0
   44.6130   36.0860   43.8790 H   0  0  0  0  0  0  0  0  0  0  0  0
   45.7100   34.8060   44.7340 H   0  0  0  0  0  0  0  0  0  0  0  0
   46.0130   35.9620   41.7790 H   0  0  0  0  0  0  0  0  0  0  0  0
   47.5160   34.7780   42.7940 N   0  0  0  0  0  0  0  0  0  0  0  0
   48.1210   35.6040   42.5880 H   0  0  0  0  0  0  0  0  0  0  0  0
   47.6930   34.5550   43.7960 H   0  0  0  0  0  0  0  0  0  0  0  0
   45.9690   30.4440   45.7180 C   0  0  0  0  0  0  0  0  0  0  0  0
   45.0690   29.6400   46.1430 O   0  0  0  0  0  0  0  0  0  0  0  0
   46.8730   31.5790   47.7600 C   0  0  0  0  0  0  0  0  0  0  0  0
   46.9470   30.5990   46.7920 C   0  0  0  0  0  0  0  0  0  0  0  0
   48.0130   29.7080   46.8420 C   0  0  0  0  0  0  0  0  0  0  0  0
   48.1460   28.8990   46.1090 H   0  0  0  0  0  0  0  0  0  0  0  0
   48.9890   29.7750   47.8220 C   0  0  0  0  0  0  0  0  0  0  0  0
   49.8010   29.0820   47.8430 H   0  0  0  0  0  0  0  0  0  0  0  0
   48.9010   30.7630   48.7850 C   0  0  0  0  0  3  0  0  0  0  0  0
   47.8380   31.6590   48.7440 C   0  0  0  0  0  3  0  0  0  0  0  0
   44.9070   33.2450   47.6960 N   0  0  0  0  0  0  0  0  0  0  0  0
   45.7800   32.5070   47.7250 C   0  0  0  0  0  0  0  0  0  0  0  0
  1 19  1  0  0  0  0
  2  7  1  0  0  0  0
  2  1  2  0  0  0  0
  3  2  1  0  0  0  0
  4  3  2  0  0  0  0
  4  5  1  0  0  0  0
  5  6  2  0  0  0  0
  6  1  1  0  0  0  0
  8  3  1  0  0  0  0
  9 12  1  6  0  0  0
  9  5  1  0  0  0  0
  9 10  1  0  0  0  0
 10 13  1  0  0  0  0
 10 14  1  0  0  0  0
 11 15  1  6  0  0  0
 11  9  1  0  0  0  0
 11 16  1  0  0  0  0
 11 10  1  0  0  0  0
 16 18  1  0  0  0  0
 17 16  1  0  0  0  0
 19 20  2  0  0  0  0
 19 22  1  0  0  0  0
 21 28  1  0  0  0  0
 22 23  1  0  0  0  0
 22 21  2  0  0  0  0
 23 25  2  0  0  0  0
 24 23  1  0  0  0  0
 25 26  1  0  0  0  0
 25 27  1  0  0  0  0
 28 27  2  0  0  0  0
 29 30  3  0  0  0  0
 30 21  1  0  0  0  0
M  END
>  <minimizedAffinity>
-3.94459152

>  <minimizedRMSD>
7.20850706

$$$$
