
 OpenBabel03252508383D

 41 44  0  0  1  0  0  0  0  0999 V2000
   45.1480   33.9630   40.7080 C   0  0  0  0  0  0  0  0  0  0  0  0
   44.0940   33.6420   39.9010 C   0  0  0  0  0  0  0  0  0  0  0  0
   44.3910   33.1210   38.6740 C   0  0  0  0  0  0  0  0  0  0  0  0
   45.6710   32.9070   38.2160 C   0  0  0  0  0  0  0  0  0  0  0  0
   46.7030   33.2440   39.0580 C   0  0  0  0  0  0  0  0  0  0  0  0
   46.4700   33.7720   40.3050 C   0  0  0  0  0  0  0  0  0  0  0  0
   43.5710   32.8590   38.0170 H   0  0  0  0  0  0  0  0  0  0  0  0
   45.8330   32.4900   37.2290 H   0  0  0  0  0  0  0  0  0  0  0  0
   47.7080   33.0740   38.6960 H   0  0  0  0  0  0  0  0  0  0  0  0
   40.8240   35.2820   40.8070 C   0  0  0  0  0  0  0  0  0  0  0  0
   42.1250   35.1160   40.2790 C   0  0  0  0  0  0  0  0  0  0  0  0
   42.7660   33.8810   40.4170 C   0  0  0  0  0  0  0  0  0  0  0  0
   42.0520   32.9210   41.0680 N   0  0  0  0  0  0  0  0  0  0  0  0
   40.8270   33.1010   41.5570 C   0  0  0  0  0  0  0  0  0  0  0  0
   40.2170   34.2830   41.4240 N   0  0  0  0  0  0  0  0  0  0  0  0
   40.2300   36.5640   40.6320 N   0  0  0  0  0  0  0  0  0  0  0  0
   42.6860   35.8760   39.7640 H   0  0  0  0  0  0  0  0  0  0  0  0
   40.2780   32.3250   42.0710 H   0  0  0  0  0  0  0  0  0  0  0  0
   40.0280   36.8320   39.6430 H   0  0  0  0  0  0  0  0  0  0  0  0
   39.9950   37.2290   41.4220 H   0  0  0  0  0  0  0  0  0  0  0  0
   47.6260   34.0950   41.1190 C   0  0  0  0  0  0  0  0  0  0  0  0
   48.1170   35.3820   40.9660 C   0  0  0  0  0  0  0  0  0  0  0  0
   49.2190   35.8760   41.6620 C   0  0  0  0  0  0  0  0  0  0  0  0
   49.8420   35.0160   42.5490 C   0  0  0  0  0  0  0  0  0  0  0  0
   49.3650   33.7310   42.7120 C   0  0  0  0  0  0  0  0  0  0  0  0
   48.2620   33.2660   42.0040 C   0  0  0  0  0  0  0  0  0  0  0  0
   47.6680   36.0960   40.2860 H   0  0  0  0  0  0  0  0  0  0  0  0
   49.5750   36.8860   41.5170 H   0  0  0  0  0  0  0  0  0  0  0  0
   50.7020   35.3350   43.1210 H   0  0  0  0  0  0  0  0  0  0  0  0
   49.8790   33.0980   43.4110 H   0  0  0  0  0  0  0  0  0  0  0  0
   46.6940   32.5420   44.2970 O   0  0  0  0  0  0  0  0  0  0  0  0
   46.7290   31.8010   43.2570 C   0  0  0  0  0  0  0  0  0  0  0  0
   47.7440   31.9090   42.1600 C   0  0  1  0  0  3  0  0  0  0  0  0
   46.9780   31.4010   40.9730 C   0  0  0  0  0  3  0  0  0  0  0  0
   46.7640   32.2620   40.3100 H   0  0  0  0  0  0  0  0  0  0  0  0
   45.7410   30.7220   41.4870 C   0  0  0  0  0  3  0  0  0  0  0  0
   44.8740   31.3430   41.1500 H   0  0  0  0  0  0  0  0  0  0  0  0
   45.8310   30.7450   42.9340 N   0  0  0  0  0  0  0  0  0  0  0  0
   45.3520   30.1320   43.6190 H   0  0  0  0  0  0  0  0  0  0  0  0
   44.7570   34.9580   43.1070 N   0  0  0  0  0  0  0  0  0  0  0  0
   44.9280   34.5200   42.0260 C   0  0  0  0  0  0  0  0  0  0  0  0
  1 41  1  0  0  0  0
  2 12  1  0  0  0  0
  2  1  2  0  0  0  0
  3  2  1  0  0  0  0
  4  3  2  0  0  0  0
  4  5  1  0  0  0  0
  5  6  2  0  0  0  0
  6  1  1  0  0  0  0
  6 21  1  0  0  0  0
  7  3  1  0  0  0  0
  8  4  1  0  0  0  0
  9  5  1  0  0  0  0
 10 15  1  0  0  0  0
 11 12  1  0  0  0  0
 11 10  2  0  0  0  0
 12 13  2  0  0  0  0
 13 14  1  0  0  0  0
 14 18  1  0  0  0  0
 15 14  2  0  0  0  0
 16 10  1  0  0  0  0
 16 20  1  0  0  0  0
 17 11  1  0  0  0  0
 19 16  1  0  0  0  0
 21 26  1  0  0  0  0
 22 21  2  0  0  0  0
 22 23  1  0  0  0  0
 23 24  2  0  0  0  0
 24 25  1  0  0  0  0
 24 29  1  0  0  0  0
 25 30  1  0  0  0  0
 26 25  2  0  0  0  0
 27 22  1  0  0  0  0
 28 23  1  0  0  0  0
 32 31  2  0  0  0  0
 33 26  1  6  0  0  0
 33 32  1  0  0  0  0
 34 36  1  0  0  0  0
 34 33  1  0  0  0  0
 35 34  1  0  0  0  0
 36 38  1  0  0  0  0
 37 36  1  0  0  0  0
 38 32  1  0  0  0  0
 38 39  1  0  0  0  0
 41 40  3  0  0  0  0
M  END
>  <minimizedAffinity>
-6.10648775

>  <minimizedRMSD>
0.144318625

$$$$
