
 OpenBabel03252500173D

 20 21  0  0  1  0  0  0  0  0999 V2000
   44.6570   36.0290   44.1900 C   0  0  0  0  0  0  0  0  0  0  0  0
   45.5630   35.6430   43.2030 C   0  0  0  0  0  0  0  0  0  0  0  0
   46.3600   34.5270   43.4830 C   0  0  0  0  0  0  0  0  0  0  0  0
   46.2180   33.8800   44.6810 N   0  0  0  0  0  0  0  0  0  0  0  0
   45.3230   34.3040   45.5960 C   0  0  0  0  0  0  0  0  0  0  0  0
   44.5320   35.3910   45.3470 N   0  0  0  0  0  0  0  0  0  0  0  0
   45.1580   33.6440   46.8520 N   0  0  0  0  0  0  0  0  0  0  0  0
   44.0300   36.8910   43.9950 H   0  0  0  0  0  0  0  0  0  0  0  0
   45.6880   36.1420   42.2510 H   0  0  0  0  0  0  0  0  0  0  0  0
   44.8850   32.6470   46.6780 H   0  0  0  0  0  0  0  0  0  0  0  0
   45.2830   34.0620   47.8060 H   0  0  0  0  0  0  0  0  0  0  0  0
   47.8190   31.8440   43.9160 O   0  0  0  0  0  0  0  0  0  0  0  0
   48.0440   32.8090   43.1190 C   0  0  0  0  0  0  0  0  0  0  0  0
   47.3670   33.9960   42.5360 C   0  0  2  0  0  3  0  0  0  0  0  0
   48.4940   34.9640   42.2910 C   0  0  0  0  0  3  0  0  0  0  0  0
   48.5750   35.7120   43.1220 H   0  0  0  0  0  0  0  0  0  0  0  0
   49.7460   34.1530   42.1580 C   0  0  0  0  0  3  0  0  0  0  0  0
   50.5530   34.4830   42.8550 H   0  0  0  0  0  0  0  0  0  0  0  0
   49.3760   32.8050   42.5660 N   0  0  0  0  0  0  0  0  0  0  0  0
   50.1120   32.0640   42.3990 H   0  0  0  0  0  0  0  0  0  0  0  0
  1  6  1  0  0  0  0
  2  3  1  0  0  0  0
  2  1  2  0  0  0  0
  3  4  2  0  0  0  0
  4  5  1  0  0  0  0
  5  7  1  0  0  0  0
  6  5  2  0  0  0  0
  7 11  1  0  0  0  0
  8  1  1  0  0  0  0
  9  2  1  0  0  0  0
 10  7  1  0  0  0  0
 13 12  2  0  0  0  0
 14 13  1  0  0  0  0
 14  3  1  1  0  0  0
 15 14  1  0  0  0  0
 15 16  1  0  0  0  0
 17 15  1  0  0  0  0
 17 19  1  0  0  0  0
 17 18  1  0  0  0  0
 19 13  1  0  0  0  0
 20 19  1  0  0  0  0
M  END
>  <minimizedAffinity>
-4.69899511

>  <minimizedRMSD>
0.347288579

$$$$
