
 OpenBabel03242522543D

 40 42  0  0  1  0  0  0  0  0999 V2000
   48.4760   31.2860   48.8380 C   0  0  0  0  0  0  0  0  0  0  0  0
   49.5900   31.8760   49.1000 O   0  0  0  0  0  0  0  0  0  0  0  0
   49.1820   30.0630   48.7640 N   0  0  0  0  0  0  0  0  0  0  0  0
   48.5100   29.2460   47.7420 C   0  0  0  0  0  0  0  0  0  0  0  0
   49.2100   27.9050   47.7430 C   0  0  0  0  0  0  0  0  0  0  0  0
   49.4700   27.4790   49.1170 N   0  0  0  0  0  0  0  0  0  0  0  0
   50.6440   28.2180   49.5060 C   0  0  0  0  0  0  0  0  0  0  0  0
   50.3380   29.6760   49.5310 C   0  0  2  0  0  0  0  0  0  0  0  0
   47.4360   29.1760   47.8820 H   0  0  0  0  0  0  0  0  0  0  0  0
   48.7800   29.7130   46.7650 H   0  0  0  0  0  0  0  0  0  0  0  0
   48.4890   27.1880   47.3000 H   0  0  0  0  0  0  0  0  0  0  0  0
   50.1520   27.9190   47.1740 H   0  0  0  0  0  0  0  0  0  0  0  0
   49.5870   26.4470   49.1810 H   0  0  0  0  0  0  0  0  0  0  0  0
   51.0130   27.7860   50.4500 H   0  0  0  0  0  0  0  0  0  0  0  0
   51.4440   27.9960   48.7450 H   0  0  0  0  0  0  0  0  0  0  0  0
   51.2140   30.2160   49.1120 H   0  0  0  0  0  0  0  0  0  0  0  0
   52.1300   31.9090   50.7660 O   0  0  0  0  0  0  0  0  0  0  0  0
   51.3700   31.0520   51.3190 C   0  0  0  0  0  0  0  0  0  0  0  0
   50.2640   30.0800   50.9920 C   0  0  2  0  0  0  0  0  0  0  0  0
   50.6170   28.9020   51.8370 C   0  0  0  0  0  0  0  0  0  0  0  0
   49.7730   28.2140   52.0450 H   0  0  0  0  0  0  0  0  0  0  0  0
   50.9590   29.5610   53.1650 C   0  0  0  0  0  0  0  0  0  0  0  0
   50.0360   29.7050   53.7580 H   0  0  0  0  0  0  0  0  0  0  0  0
   51.5090   30.8410   52.7390 N   0  0  0  0  0  0  0  0  0  0  0  0
   51.9080   31.3760   53.5470 H   0  0  0  0  0  0  0  0  0  0  0  0
   47.4200   32.1480   48.8030 O   0  0  0  0  0  0  0  0  0  0  0  0
   45.5500   30.4750   47.9960 O   0  0  0  0  0  0  0  0  0  0  0  0
   45.8090   31.8520   48.6610 P   0  0  1  0  0  0  0  0  0  0  0  0
   45.0580   31.7670   50.1600 O   0  0  0  0  0  0  0  0  0  0  0  0
   45.0070   30.8200   50.5070 H   0  0  0  0  0  0  0  0  0  0  0  0
   45.0640   33.0220   47.6980 O   0  0  0  0  0  0  0  0  0  0  0  0
   47.0580   32.7940   44.6780 C   0  0  0  0  0  0  0  0  0  0  0  0
   46.5290   32.5240   45.9610 C   0  0  0  0  0  0  0  0  0  0  0  0
   45.5350   33.3350   46.4510 C   0  0  0  0  0  0  0  0  0  0  0  0
   45.0960   34.3680   45.6870 N   0  0  0  0  0  0  0  0  0  0  0  0
   45.6110   34.6150   44.4640 C   0  0  0  0  0  0  0  0  0  0  0  0
   46.5830   33.8380   43.9600 N   0  0  0  0  0  0  0  0  0  0  0  0
   47.8390   32.2010   44.2270 H   0  0  0  0  0  0  0  0  0  0  0  0
   47.0020   31.6640   46.4110 H   0  0  0  0  0  0  0  0  0  0  0  0
   45.2450   35.4440   43.8740 H   0  0  0  0  0  0  0  0  0  0  0  0
  1  2  2  0  0  0  0
  3  1  1  0  0  0  0
  3  8  1  0  0  0  0
  4  5  1  0  0  0  0
  4  9  1  0  0  0  0
  4  3  1  0  0  0  0
  5  6  1  0  0  0  0
  6 13  1  0  0  0  0
  6  7  1  0  0  0  0
  7  8  1  0  0  0  0
  7 14  1  0  0  0  0
  8 16  1  6  0  0  0
  8 19  1  0  0  0  0
 10  4  1  0  0  0  0
 11  5  1  0  0  0  0
 12  5  1  0  0  0  0
 15  7  1  0  0  0  0
 17 18  2  0  0  0  0
 18 24  1  0  0  0  0
 19 18  1  6  0  0  0
 19 20  1  0  0  0  0
 20 21  1  0  0  0  0
 20 22  1  0  0  0  0
 22 23  1  0  0  0  0
 24 22  1  0  0  0  0
 24 25  1  0  0  0  0
 26  1  1  0  0  0  0
 28 27  2  6  0  0  0
 28 26  1  0  0  0  0
 28 29  1  0  0  0  0
 29 30  1  0  0  0  0
 31 28  1  0  0  0  0
 32 33  1  0  0  0  0
 33 39  1  0  0  0  0
 33 34  2  0  0  0  0
 34 31  1  0  0  0  0
 35 34  1  0  0  0  0
 36 35  2  0  0  0  0
 37 36  1  0  0  0  0
 37 32  2  0  0  0  0
 38 32  1  0  0  0  0
 40 36  1  0  0  0  0
M  END
>  <minimizedAffinity>
-5.79782724

>  <minimizedRMSD>
1.21661568

$$$$
