
 OpenBabel03242515193D

 37 39  0  0  1  0  0  0  0  0999 V2000
   36.8170   29.1790   41.3860 C   0  0  0  0  0  0  0  0  0  0  0  0
   36.6010   28.8690   40.0760 C   0  0  0  0  0  0  0  0  0  0  0  0
   36.9860   29.9630   39.3390 C   0  0  0  0  0  0  0  0  0  0  0  0
   37.4210   30.8990   40.1830 N   0  0  0  0  0  0  0  0  0  0  0  0
   37.3120   30.4100   41.4110 N   0  0  0  0  0  0  0  0  0  0  0  0
   36.1980   27.9280   39.7260 H   0  0  0  0  0  0  0  0  0  0  0  0
   39.1540   29.2300   37.7970 O   0  0  0  0  0  0  0  0  0  0  0  0
   38.0690   29.4420   37.1910 C   0  0  0  0  0  0  0  0  0  0  0  0
   36.9270   30.0730   37.8810 C   0  0  1  0  0  3  0  0  0  0  0  0
   35.7800   29.2710   37.2570 C   0  0  0  0  0  3  0  0  0  0  0  0
   34.8510   29.8270   37.4940 H   0  0  0  0  0  0  0  0  0  0  0  0
   36.1720   29.4230   35.7900 C   0  0  0  0  0  3  0  0  0  0  0  0
   35.9500   30.4680   35.4890 H   0  0  0  0  0  0  0  0  0  0  0  0
   37.6040   29.1980   35.8480 N   0  0  0  0  0  0  0  0  0  0  0  0
   38.3040   28.9040   35.1090 H   0  0  0  0  0  0  0  0  0  0  0  0
   37.9350   32.2390   39.8570 C   0  0  0  0  0  0  0  0  0  0  0  0
   36.9250   33.0010   39.2610 F   0  0  0  0  0  0  0  0  0  0  0  0
   39.0470   32.1420   39.0790 F   0  0  0  0  0  0  0  0  0  0  0  0
   38.2640   32.8730   41.0430 F   0  0  0  0  0  0  0  0  0  0  0  0
   36.5810   28.3780   42.5940 C   0  0  0  0  0  0  0  0  0  0  0  0
   35.7720   28.8190   43.2170 H   0  0  0  0  0  0  0  0  0  0  0  0
   36.2450   27.3440   42.3080 H   0  0  0  0  0  0  0  0  0  0  0  0
   37.8400   28.2060   43.4110 C   0  0  0  0  0  0  0  0  0  0  0  0
   37.5640   28.3890   44.4390 H   0  0  0  0  0  0  0  0  0  0  0  0
   38.6240   28.9700   43.1400 H   0  0  0  0  0  0  0  0  0  0  0  0
   40.1260   25.2630   43.3860 C   0  0  0  0  0  0  0  0  0  0  0  0
   39.4120   24.3890   42.5290 C   0  0  0  0  0  0  0  0  0  0  0  0
   38.2130   24.8450   42.0170 C   0  0  0  0  0  0  0  0  0  0  0  0
   37.8310   26.0770   42.3780 N   0  0  0  0  0  0  0  0  0  0  0  0
   38.4980   26.9000   43.1820 C   0  0  0  0  0  0  0  0  0  0  0  0
   39.6460   26.4800   43.6800 N   0  0  0  0  0  0  0  0  0  0  0  0
   41.0840   24.9200   43.8030 H   0  0  0  0  0  0  0  0  0  0  0  0
   39.7800   23.4030   42.2780 H   0  0  0  0  0  0  0  0  0  0  0  0
   37.4780   23.9400   41.1350 C   0  0  0  0  0  0  0  0  0  0  0  0
   37.4740   24.4510   39.8360 F   0  0  0  0  0  0  0  0  0  0  0  0
   36.1400   24.0180   41.5330 F   0  0  0  0  0  0  0  0  0  0  0  0
   37.9680   22.6710   41.1430 F   0  0  0  0  0  0  0  0  0  0  0  0
  1  5  2  0  0  0  0
  1 20  1  0  0  0  0
  2  1  1  0  0  0  0
  3  2  2  0  0  0  0
  3  4  1  0  0  0  0
  4  5  1  0  0  0  0
  6  2  1  0  0  0  0
  8  7  2  0  0  0  0
  8  9  1  0  0  0  0
  9  3  1  1  0  0  0
 10 11  1  0  0  0  0
 10  9  1  0  0  0  0
 12 14  1  0  0  0  0
 12 10  1  0  0  0  0
 13 12  1  0  0  0  0
 14  8  1  0  0  0  0
 15 14  1  0  0  0  0
 16  4  1  0  0  0  0
 16 19  1  0  0  0  0
 17 16  1  0  0  0  0
 18 16  1  0  0  0  0
 20 21  1  0  0  0  0
 20 23  1  0  0  0  0
 22 20  1  0  0  0  0
 23 24  1  0  0  0  0
 25 23  1  0  0  0  0
 26 31  1  0  0  0  0
 26 32  1  0  0  0  0
 27 26  2  0  0  0  0
 28 29  2  0  0  0  0
 28 27  1  0  0  0  0
 29 30  1  0  0  0  0
 30 23  1  0  0  0  0
 30 31  2  0  0  0  0
 33 27  1  0  0  0  0
 34 37  1  0  0  0  0
 34 36  1  0  0  0  0
 34 28  1  0  0  0  0
 35 34  1  0  0  0  0
M  END
>  <minimizedAffinity>
-5.99765158

$$$$

 OpenBabel03242515193D

 37 39  0  0  1  0  0  0  0  0999 V2000
   37.9790   29.6650   42.3910 C   0  0  0  0  0  0  0  0  0  0  0  0
   39.1080   30.3560   42.0600 C   0  0  0  0  0  0  0  0  0  0  0  0
   38.8700   30.9450   40.8410 C   0  0  0  0  0  0  0  0  0  0  0  0
   37.6370   30.6180   40.4550 N   0  0  0  0  0  0  0  0  0  0  0  0
   37.1140   29.8470   41.4010 N   0  0  0  0  0  0  0  0  0  0  0  0
   40.0000   30.4030   42.6690 H   0  0  0  0  0  0  0  0  0  0  0  0
   38.7900   33.6910   41.1020 O   0  0  0  0  0  0  0  0  0  0  0  0
   39.7920   33.2030   40.5110 C   0  0  0  0  0  0  0  0  0  0  0  0
   39.8140   31.7850   40.1020 C   0  0  1  0  0  3  0  0  0  0  0  0
   41.2800   31.4580   40.4000 C   0  0  0  0  0  3  0  0  0  0  0  0
   41.4920   30.4980   39.8890 H   0  0  0  0  0  0  0  0  0  0  0  0
   41.9250   32.6380   39.6780 C   0  0  0  0  0  3  0  0  0  0  0  0
   41.8350   32.4540   38.5870 H   0  0  0  0  0  0  0  0  0  0  0  0
   41.0640   33.7330   40.0860 N   0  0  0  0  0  0  0  0  0  0  0  0
   41.2180   34.7800   40.1160 H   0  0  0  0  0  0  0  0  0  0  0  0
   36.9430   31.0150   39.2200 C   0  0  0  0  0  0  0  0  0  0  0  0
   37.6920   30.6180   38.1080 F   0  0  0  0  0  0  0  0  0  0  0  0
   36.6870   32.3510   39.2310 F   0  0  0  0  0  0  0  0  0  0  0  0
   35.7440   30.3230   39.1590 F   0  0  0  0  0  0  0  0  0  0  0  0
   37.6860   28.8560   43.5810 C   0  0  0  0  0  0  0  0  0  0  0  0
   38.6190   28.5770   44.1170 H   0  0  0  0  0  0  0  0  0  0  0  0
   37.0610   29.4500   44.3030 H   0  0  0  0  0  0  0  0  0  0  0  0
   36.8850   27.6210   43.2390 C   0  0  0  0  0  0  0  0  0  0  0  0
   36.1550   27.9250   42.5050 H   0  0  0  0  0  0  0  0  0  0  0  0
   36.3130   27.2330   44.1300 H   0  0  0  0  0  0  0  0  0  0  0  0
   39.6350   25.1630   42.7130 C   0  0  0  0  0  0  0  0  0  0  0  0
   39.0030   24.2540   41.8290 C   0  0  0  0  0  0  0  0  0  0  0  0
   37.6980   24.5260   41.4680 C   0  0  0  0  0  0  0  0  0  0  0  0
   37.1450   25.6290   41.9880 N   0  0  0  0  0  0  0  0  0  0  0  0
   37.7340   26.4840   42.8190 C   0  0  0  0  0  0  0  0  0  0  0  0
   38.9820   26.2390   43.1740 N   0  0  0  0  0  0  0  0  0  0  0  0
   40.6750   24.9640   43.0130 H   0  0  0  0  0  0  0  0  0  0  0  0
   39.5110   23.3790   41.4450 H   0  0  0  0  0  0  0  0  0  0  0  0
   37.0480   23.5860   40.5560 C   0  0  0  0  0  0  0  0  0  0  0  0
   37.1610   24.0490   39.2450 F   0  0  0  0  0  0  0  0  0  0  0  0
   35.6790   23.6700   40.8280 F   0  0  0  0  0  0  0  0  0  0  0  0
   37.5390   22.3200   40.6550 F   0  0  0  0  0  0  0  0  0  0  0  0
  1 20  1  0  0  0  0
  2  1  1  0  0  0  0
  2  6  1  0  0  0  0
  3  2  2  0  0  0  0
  4  3  1  0  0  0  0
  4  5  1  0  0  0  0
  5  1  2  0  0  0  0
  8  7  2  0  0  0  0
  9 10  1  0  0  0  0
  9  8  1  0  0  0  0
  9  3  1  1  0  0  0
 11 10  1  0  0  0  0
 12 14  1  0  0  0  0
 12 10  1  0  0  0  0
 13 12  1  0  0  0  0
 14 15  1  0  0  0  0
 14  8  1  0  0  0  0
 16 18  1  0  0  0  0
 16  4  1  0  0  0  0
 17 16  1  0  0  0  0
 19 16  1  0  0  0  0
 20 21  1  0  0  0  0
 20 22  1  0  0  0  0
 23 20  1  0  0  0  0
 23 25  1  0  0  0  0
 24 23  1  0  0  0  0
 26 32  1  0  0  0  0
 26 31  1  0  0  0  0
 27 26  2  0  0  0  0
 28 27  1  0  0  0  0
 28 29  2  0  0  0  0
 29 30  1  0  0  0  0
 30 31  2  0  0  0  0
 30 23  1  0  0  0  0
 33 27  1  0  0  0  0
 34 37  1  0  0  0  0
 34 36  1  0  0  0  0
 34 28  1  0  0  0  0
 35 34  1  0  0  0  0
M  END
>  <minimizedAffinity>
-5.84265757

$$$$

 OpenBabel03242515193D

 37 39  0  0  1  0  0  0  0  0999 V2000
   36.1930   28.2770   40.1540 C   0  0  0  0  0  0  0  0  0  0  0  0
   36.5460   26.9880   39.8860 C   0  0  0  0  0  0  0  0  0  0  0  0
   37.5080   26.6390   40.8040 C   0  0  0  0  0  0  0  0  0  0  0  0
   37.7240   27.6890   41.5980 N   0  0  0  0  0  0  0  0  0  0  0  0
   36.9240   28.6660   41.1920 N   0  0  0  0  0  0  0  0  0  0  0  0
   36.1250   26.3880   39.0910 H   0  0  0  0  0  0  0  0  0  0  0  0
   36.4790   24.6480   42.4150 O   0  0  0  0  0  0  0  0  0  0  0  0
   37.3910   24.3170   41.6100 C   0  0  0  0  0  0  0  0  0  0  0  0
   38.1750   25.3390   40.8890 C   0  0  1  0  0  3  0  0  0  0  0  0
   38.3170   24.6400   39.5340 C   0  0  0  0  0  3  0  0  0  0  0  0
   39.1110   25.1880   38.9870 H   0  0  0  0  0  0  0  0  0  0  0  0
   38.8070   23.2830   40.0310 C   0  0  0  0  0  3  0  0  0  0  0  0
   39.8560   23.4080   40.3700 H   0  0  0  0  0  0  0  0  0  0  0  0
   37.9260   23.0540   41.1620 N   0  0  0  0  0  0  0  0  0  0  0  0
   37.6400   22.1680   41.6670 H   0  0  0  0  0  0  0  0  0  0  0  0
   38.6630   27.7890   42.7250 C   0  0  0  0  0  0  0  0  0  0  0  0
   38.3670   26.8080   43.6780 F   0  0  0  0  0  0  0  0  0  0  0  0
   38.6470   29.0460   43.2440 F   0  0  0  0  0  0  0  0  0  0  0  0
   39.9350   27.5090   42.2510 F   0  0  0  0  0  0  0  0  0  0  0  0
   35.2150   29.1440   39.4850 C   0  0  0  0  0  0  0  0  0  0  0  0
   34.2350   28.6310   39.3710 H   0  0  0  0  0  0  0  0  0  0  0  0
   35.0300   30.0630   40.1070 H   0  0  0  0  0  0  0  0  0  0  0  0
   35.7140   29.6300   38.1450 C   0  0  0  0  0  0  0  0  0  0  0  0
   34.9570   30.2970   37.7610 H   0  0  0  0  0  0  0  0  0  0  0  0
   35.8160   28.7860   37.4050 H   0  0  0  0  0  0  0  0  0  0  0  0
   39.3520   30.3880   37.8630 C   0  0  0  0  0  0  0  0  0  0  0  0
   39.4130   31.6220   38.5570 C   0  0  0  0  0  0  0  0  0  0  0  0
   38.2320   32.1170   39.0730 C   0  0  0  0  0  0  0  0  0  0  0  0
   37.1300   31.3830   38.8700 N   0  0  0  0  0  0  0  0  0  0  0  0
   37.0680   30.2250   38.2200 C   0  0  0  0  0  0  0  0  0  0  0  0
   38.1890   29.7380   37.7200 N   0  0  0  0  0  0  0  0  0  0  0  0
   40.2820   29.9760   37.4440 H   0  0  0  0  0  0  0  0  0  0  0  0
   40.3410   32.1640   38.6840 H   0  0  0  0  0  0  0  0  0  0  0  0
   38.2980   33.3910   39.7870 C   0  0  0  0  0  0  0  0  0  0  0  0
   38.3360   33.1560   41.1620 F   0  0  0  0  0  0  0  0  0  0  0  0
   37.0620   34.0110   39.5830 F   0  0  0  0  0  0  0  0  0  0  0  0
   39.3540   34.1610   39.4090 F   0  0  0  0  0  0  0  0  0  0  0  0
  1  5  2  0  0  0  0
  2  1  1  0  0  0  0
  2  3  2  0  0  0  0
  3  4  1  0  0  0  0
  4 16  1  0  0  0  0
  5  4  1  0  0  0  0
  6  2  1  0  0  0  0
  8  7  2  0  0  0  0
  9  3  1  6  0  0  0
  9  8  1  0  0  0  0
 10 12  1  0  0  0  0
 10  9  1  0  0  0  0
 11 10  1  0  0  0  0
 12 13  1  0  0  0  0
 12 14  1  0  0  0  0
 14  8  1  0  0  0  0
 14 15  1  0  0  0  0
 16 18  1  0  0  0  0
 16 17  1  0  0  0  0
 19 16  1  0  0  0  0
 20 22  1  0  0  0  0
 20  1  1  0  0  0  0
 21 20  1  0  0  0  0
 23 30  1  0  0  0  0
 23 20  1  0  0  0  0
 24 23  1  0  0  0  0
 25 23  1  0  0  0  0
 26 27  1  0  0  0  0
 27 33  1  0  0  0  0
 27 28  2  0  0  0  0
 28 34  1  0  0  0  0
 29 28  1  0  0  0  0
 30 29  2  0  0  0  0
 31 26  2  0  0  0  0
 31 30  1  0  0  0  0
 32 26  1  0  0  0  0
 34 35  1  0  0  0  0
 36 34  1  0  0  0  0
 37 34  1  0  0  0  0
M  END
>  <minimizedAffinity>
-5.79635572

$$$$

 OpenBabel03242515193D

 37 39  0  0  1  0  0  0  0  0999 V2000
   35.4530   29.4110   40.2630 C   0  0  0  0  0  0  0  0  0  0  0  0
   36.3030   30.4500   40.0250 C   0  0  0  0  0  0  0  0  0  0  0  0
   37.3430   30.3250   40.9140 C   0  0  0  0  0  0  0  0  0  0  0  0
   37.1230   29.2430   41.6610 N   0  0  0  0  0  0  0  0  0  0  0  0
   35.9800   28.7040   41.2560 N   0  0  0  0  0  0  0  0  0  0  0  0
   36.1490   31.2090   39.2700 H   0  0  0  0  0  0  0  0  0  0  0  0
   39.6770   29.7720   39.5490 O   0  0  0  0  0  0  0  0  0  0  0  0
   39.5760   30.9180   40.0650 C   0  0  0  0  0  0  0  0  0  0  0  0
   38.4900   31.2280   41.0160 C   0  0  1  0  0  3  0  0  0  0  0  0
   38.1750   32.6620   40.5820 C   0  0  0  0  0  3  0  0  0  0  0  0
   37.5590   33.1010   41.3920 H   0  0  0  0  0  0  0  0  0  0  0  0
   39.5970   33.2180   40.5900 C   0  0  0  0  0  3  0  0  0  0  0  0
   39.9080   33.3300   41.6500 H   0  0  0  0  0  0  0  0  0  0  0  0
   40.3310   32.1410   39.9510 N   0  0  0  0  0  0  0  0  0  0  0  0
   41.2660   32.1220   39.4520 H   0  0  0  0  0  0  0  0  0  0  0  0
   37.9630   28.7090   42.7440 C   0  0  0  0  0  0  0  0  0  0  0  0
   37.3180   27.6290   43.3560 F   0  0  0  0  0  0  0  0  0  0  0  0
   38.2840   29.6950   43.6240 F   0  0  0  0  0  0  0  0  0  0  0  0
   39.1250   28.2080   42.1790 F   0  0  0  0  0  0  0  0  0  0  0  0
   34.1870   29.0600   39.6070 C   0  0  0  0  0  0  0  0  0  0  0  0
   33.6440   28.2740   40.1740 H   0  0  0  0  0  0  0  0  0  0  0  0
   33.5120   29.9600   39.5720 H   0  0  0  0  0  0  0  0  0  0  0  0
   34.3940   28.6290   38.1740 C   0  0  0  0  0  0  0  0  0  0  0  0
   34.5700   27.5640   38.1980 H   0  0  0  0  0  0  0  0  0  0  0  0
   35.3120   29.1030   37.7220 H   0  0  0  0  0  0  0  0  0  0  0  0
   32.1500   29.3490   35.2870 C   0  0  0  0  0  0  0  0  0  0  0  0
   31.0440   29.9260   35.9580 C   0  0  0  0  0  0  0  0  0  0  0  0
   31.1240   30.0350   37.3320 C   0  0  0  0  0  0  0  0  0  0  0  0
   32.2450   29.5840   37.9100 N   0  0  0  0  0  0  0  0  0  0  0  0
   33.2860   29.0420   37.2840 C   0  0  0  0  0  0  0  0  0  0  0  0
   33.2250   28.9300   35.9700 N   0  0  0  0  0  0  0  0  0  0  0  0
   32.1070   29.2530   34.1920 H   0  0  0  0  0  0  0  0  0  0  0  0
   30.1660   30.2700   35.4270 H   0  0  0  0  0  0  0  0  0  0  0  0
   29.9800   30.6290   38.0220 C   0  0  0  0  0  0  0  0  0  0  0  0
   29.7990   30.0020   39.2560 F   0  0  0  0  0  0  0  0  0  0  0  0
   28.8520   30.2600   37.2850 F   0  0  0  0  0  0  0  0  0  0  0  0
   30.0970   31.9750   38.1880 F   0  0  0  0  0  0  0  0  0  0  0  0
  1  5  2  0  0  0  0
  2  1  1  0  0  0  0
  2  3  2  0  0  0  0
  3  4  1  0  0  0  0
  4 16  1  0  0  0  0
  5  4  1  0  0  0  0
  6  2  1  0  0  0  0
  7  8  2  0  0  0  0
  8  9  1  0  0  0  0
  9  3  1  6  0  0  0
 10 12  1  0  0  0  0
 10  9  1  0  0  0  0
 10 11  1  0  0  0  0
 12 13  1  0  0  0  0
 14  8  1  0  0  0  0
 14 12  1  0  0  0  0
 15 14  1  0  0  0  0
 16 17  1  0  0  0  0
 16 18  1  0  0  0  0
 19 16  1  0  0  0  0
 20 21  1  0  0  0  0
 20  1  1  0  0  0  0
 22 20  1  0  0  0  0
 23 24  1  0  0  0  0
 23 20  1  0  0  0  0
 25 23  1  0  0  0  0
 26 27  2  0  0  0  0
 26 31  1  0  0  0  0
 27 28  1  0  0  0  0
 28 29  2  0  0  0  0
 28 34  1  0  0  0  0
 30 29  1  0  0  0  0
 30 23  1  0  0  0  0
 31 30  2  0  0  0  0
 32 26  1  0  0  0  0
 33 27  1  0  0  0  0
 34 37  1  0  0  0  0
 34 35  1  0  0  0  0
 36 34  1  0  0  0  0
M  END
>  <minimizedAffinity>
-5.70803261

$$$$

 OpenBabel03242515193D

 37 39  0  0  1  0  0  0  0  0999 V2000
   39.7200   28.8230   38.7550 C   0  0  0  0  0  0  0  0  0  0  0  0
   40.4100   29.9490   39.0960 C   0  0  0  0  0  0  0  0  0  0  0  0
   39.5230   30.9960   39.0260 C   0  0  0  0  0  0  0  0  0  0  0  0
   38.3370   30.5120   38.6540 N   0  0  0  0  0  0  0  0  0  0  0  0
   38.4740   29.2020   38.4950 N   0  0  0  0  0  0  0  0  0  0  0  0
   41.4570   29.9690   39.3640 H   0  0  0  0  0  0  0  0  0  0  0  0
   39.1140   32.0270   41.5530 O   0  0  0  0  0  0  0  0  0  0  0  0
   39.7720   32.7380   40.7460 C   0  0  0  0  0  0  0  0  0  0  0  0
   39.8340   32.3970   39.3110 C   0  0  1  0  0  3  0  0  0  0  0  0
   41.2930   32.7660   39.0260 C   0  0  0  0  0  3  0  0  0  0  0  0
   41.3900   32.8060   37.9230 H   0  0  0  0  0  0  0  0  0  0  0  0
   41.2980   34.1610   39.6450 C   0  0  0  0  0  3  0  0  0  0  0  0
   40.7240   34.8300   38.9690 H   0  0  0  0  0  0  0  0  0  0  0  0
   40.5700   33.9320   40.8800 N   0  0  0  0  0  0  0  0  0  0  0  0
   40.5400   34.4690   41.7920 H   0  0  0  0  0  0  0  0  0  0  0  0
   37.0850   31.2550   38.4470 C   0  0  0  0  0  0  0  0  0  0  0  0
   37.2790   32.2530   37.4860 F   0  0  0  0  0  0  0  0  0  0  0  0
   36.6260   31.7470   39.6290 F   0  0  0  0  0  0  0  0  0  0  0  0
   36.1470   30.3790   37.9250 F   0  0  0  0  0  0  0  0  0  0  0  0
   40.1750   27.4300   38.6640 C   0  0  0  0  0  0  0  0  0  0  0  0
   39.4060   26.7860   38.1870 H   0  0  0  0  0  0  0  0  0  0  0  0
   41.0950   27.3700   38.0180 H   0  0  0  0  0  0  0  0  0  0  0  0
   40.5660   26.8750   40.0140 C   0  0  0  0  0  0  0  0  0  0  0  0
   41.0460   27.6810   40.5470 H   0  0  0  0  0  0  0  0  0  0  0  0
   41.3230   26.0440   39.9220 H   0  0  0  0  0  0  0  0  0  0  0  0
   38.0640   24.5630   41.5230 C   0  0  0  0  0  0  0  0  0  0  0  0
   37.2090   25.4920   42.1660 C   0  0  0  0  0  0  0  0  0  0  0  0
   37.5280   26.8310   42.0510 C   0  0  0  0  0  0  0  0  0  0  0  0
   38.6210   27.1320   41.3380 N   0  0  0  0  0  0  0  0  0  0  0  0
   39.4260   26.2630   40.7330 C   0  0  0  0  0  0  0  0  0  0  0  0
   39.1350   24.9790   40.8340 N   0  0  0  0  0  0  0  0  0  0  0  0
   37.8270   23.4920   41.6030 H   0  0  0  0  0  0  0  0  0  0  0  0
   36.3390   25.1790   42.7280 H   0  0  0  0  0  0  0  0  0  0  0  0
   36.6450   27.7870   42.7170 C   0  0  0  0  0  0  0  0  0  0  0  0
   35.8470   28.4280   41.7680 F   0  0  0  0  0  0  0  0  0  0  0  0
   37.4740   28.8010   43.2040 F   0  0  0  0  0  0  0  0  0  0  0  0
   35.8700   27.2170   43.6790 F   0  0  0  0  0  0  0  0  0  0  0  0
  1  2  1  0  0  0  0
  2  6  1  0  0  0  0
  3  2  2  0  0  0  0
  4  3  1  0  0  0  0
  5  4  1  0  0  0  0
  5  1  2  0  0  0  0
  8 14  1  0  0  0  0
  8  7  2  0  0  0  0
  9  3  1  1  0  0  0
  9  8  1  0  0  0  0
 10  9  1  0  0  0  0
 10 12  1  0  0  0  0
 11 10  1  0  0  0  0
 12 14  1  0  0  0  0
 13 12  1  0  0  0  0
 14 15  1  0  0  0  0
 16  4  1  0  0  0  0
 16 18  1  0  0  0  0
 17 16  1  0  0  0  0
 19 16  1  0  0  0  0
 20  1  1  0  0  0  0
 20 23  1  0  0  0  0
 21 20  1  0  0  0  0
 22 20  1  0  0  0  0
 23 24  1  0  0  0  0
 23 30  1  0  0  0  0
 25 23  1  0  0  0  0
 26 32  1  0  0  0  0
 26 27  1  0  0  0  0
 27 33  1  0  0  0  0
 28 27  2  0  0  0  0
 28 34  1  0  0  0  0
 29 28  1  0  0  0  0
 30 31  1  0  0  0  0
 30 29  2  0  0  0  0
 31 26  2  0  0  0  0
 34 36  1  0  0  0  0
 34 37  1  0  0  0  0
 35 34  1  0  0  0  0
M  END
>  <minimizedAffinity>
-5.66951752

$$$$

 OpenBabel03242515193D

 37 39  0  0  1  0  0  0  0  0999 V2000
   38.1350   29.4630   42.6480 C   0  0  0  0  0  0  0  0  0  0  0  0
   37.7430   29.7790   41.3810 C   0  0  0  0  0  0  0  0  0  0  0  0
   38.7280   30.5740   40.8450 C   0  0  0  0  0  0  0  0  0  0  0  0
   39.6820   30.7280   41.7640 N   0  0  0  0  0  0  0  0  0  0  0  0
   39.3090   30.0530   42.8430 N   0  0  0  0  0  0  0  0  0  0  0  0
   36.8210   29.4470   40.9230 H   0  0  0  0  0  0  0  0  0  0  0  0
   39.9640   29.2500   38.7630 O   0  0  0  0  0  0  0  0  0  0  0  0
   39.2260   30.2270   38.4600 C   0  0  0  0  0  0  0  0  0  0  0  0
   38.7230   31.1470   39.4990 C   0  0  1  0  0  3  0  0  0  0  0  0
   37.3150   31.4010   38.9520 C   0  0  0  0  0  3  0  0  0  0  0  0
   36.9260   32.2830   39.4990 H   0  0  0  0  0  0  0  0  0  0  0  0
   37.6910   31.7480   37.5140 C   0  0  0  0  0  3  0  0  0  0  0  0
   38.1520   32.7580   37.5210 H   0  0  0  0  0  0  0  0  0  0  0  0
   38.6860   30.7320   37.2220 N   0  0  0  0  0  0  0  0  0  0  0  0
   39.0450   30.3370   36.3070 H   0  0  0  0  0  0  0  0  0  0  0  0
   40.9310   31.4950   41.6460 C   0  0  0  0  0  0  0  0  0  0  0  0
   41.7610   30.9050   40.6870 F   0  0  0  0  0  0  0  0  0  0  0  0
   41.5320   31.6100   42.8610 F   0  0  0  0  0  0  0  0  0  0  0  0
   40.6160   32.7590   41.1740 F   0  0  0  0  0  0  0  0  0  0  0  0
   37.4640   28.6440   43.6650 C   0  0  0  0  0  0  0  0  0  0  0  0
   38.1820   28.2970   44.4390 H   0  0  0  0  0  0  0  0  0  0  0  0
   36.6840   29.2560   44.1960 H   0  0  0  0  0  0  0  0  0  0  0  0
   36.7390   27.4680   43.0530 C   0  0  0  0  0  0  0  0  0  0  0  0
   36.1820   27.8560   42.2140 H   0  0  0  0  0  0  0  0  0  0  0  0
   35.9890   27.0210   43.7670 H   0  0  0  0  0  0  0  0  0  0  0  0
   39.5810   25.0740   42.7750 C   0  0  0  0  0  0  0  0  0  0  0  0
   39.0390   24.1350   41.8620 C   0  0  0  0  0  0  0  0  0  0  0  0
   37.7590   24.3680   41.4010 C   0  0  0  0  0  0  0  0  0  0  0  0
   37.1410   25.4640   41.8600 N   0  0  0  0  0  0  0  0  0  0  0  0
   37.6450   26.3470   42.7160 C   0  0  0  0  0  0  0  0  0  0  0  0
   38.8690   26.1400   43.1670 N   0  0  0  0  0  0  0  0  0  0  0  0
   40.6010   24.9080   43.1540 H   0  0  0  0  0  0  0  0  0  0  0  0
   39.5960   23.2690   41.5320 H   0  0  0  0  0  0  0  0  0  0  0  0
   37.2020   23.3970   40.4600 C   0  0  0  0  0  0  0  0  0  0  0  0
   37.5060   23.7810   39.1540 F   0  0  0  0  0  0  0  0  0  0  0  0
   35.8130   23.5360   40.5400 F   0  0  0  0  0  0  0  0  0  0  0  0
   37.6280   22.1250   40.6900 F   0  0  0  0  0  0  0  0  0  0  0  0
  1  5  2  0  0  0  0
  1 20  1  0  0  0  0
  2  1  1  0  0  0  0
  3  2  2  0  0  0  0
  3  4  1  0  0  0  0
  4  5  1  0  0  0  0
  6  2  1  0  0  0  0
  8  7  2  0  0  0  0
  8  9  1  0  0  0  0
  9  3  1  1  0  0  0
 10  9  1  0  0  0  0
 10 11  1  0  0  0  0
 12 13  1  0  0  0  0
 12 10  1  0  0  0  0
 14 12  1  0  0  0  0
 14  8  1  0  0  0  0
 15 14  1  0  0  0  0
 16  4  1  0  0  0  0
 16 18  1  0  0  0  0
 17 16  1  0  0  0  0
 19 16  1  0  0  0  0
 20 22  1  0  0  0  0
 20 21  1  0  0  0  0
 23 20  1  0  0  0  0
 23 25  1  0  0  0  0
 24 23  1  0  0  0  0
 26 32  1  0  0  0  0
 26 31  1  0  0  0  0
 27 26  2  0  0  0  0
 28 29  2  0  0  0  0
 28 27  1  0  0  0  0
 29 30  1  0  0  0  0
 30 23  1  0  0  0  0
 30 31  2  0  0  0  0
 33 27  1  0  0  0  0
 34 36  1  0  0  0  0
 34 37  1  0  0  0  0
 34 28  1  0  0  0  0
 35 34  1  0  0  0  0
M  END
>  <minimizedAffinity>
-5.64657497

$$$$

 OpenBabel03242515193D

 37 39  0  0  1  0  0  0  0  0999 V2000
   36.3440   28.3330   40.2810 C   0  0  0  0  0  0  0  0  0  0  0  0
   36.7090   27.0590   39.9600 C   0  0  0  0  0  0  0  0  0  0  0  0
   37.6420   26.6660   40.8890 C   0  0  0  0  0  0  0  0  0  0  0  0
   37.8280   27.6740   41.7420 N   0  0  0  0  0  0  0  0  0  0  0  0
   37.0390   28.6700   41.3610 N   0  0  0  0  0  0  0  0  0  0  0  0
   36.3150   26.5010   39.1210 H   0  0  0  0  0  0  0  0  0  0  0  0
   36.5700   24.5960   42.3670 O   0  0  0  0  0  0  0  0  0  0  0  0
   37.5060   24.3060   41.5750 C   0  0  0  0  0  0  0  0  0  0  0  0
   38.3080   25.3640   40.9290 C   0  0  1  0  0  3  0  0  0  0  0  0
   38.4930   24.7330   39.5460 C   0  0  0  0  0  3  0  0  0  0  0  0
   39.3010   25.3080   39.0510 H   0  0  0  0  0  0  0  0  0  0  0  0
   38.9710   23.3530   39.9900 C   0  0  0  0  0  3  0  0  0  0  0  0
   40.0100   23.4620   40.3660 H   0  0  0  0  0  0  0  0  0  0  0  0
   38.0570   23.0680   41.0810 N   0  0  0  0  0  0  0  0  0  0  0  0
   37.7580   22.1580   41.5330 H   0  0  0  0  0  0  0  0  0  0  0  0
   38.7310   27.7170   42.9030 C   0  0  0  0  0  0  0  0  0  0  0  0
   38.5590   26.5660   43.6800 F   0  0  0  0  0  0  0  0  0  0  0  0
   38.5360   28.8620   43.6110 F   0  0  0  0  0  0  0  0  0  0  0  0
   40.0340   27.6890   42.4350 F   0  0  0  0  0  0  0  0  0  0  0  0
   35.3850   29.2320   39.6260 C   0  0  0  0  0  0  0  0  0  0  0  0
   34.4740   28.6820   39.3030 H   0  0  0  0  0  0  0  0  0  0  0  0
   35.0470   30.0240   40.3490 H   0  0  0  0  0  0  0  0  0  0  0  0
   36.0040   29.9600   38.4550 C   0  0  0  0  0  0  0  0  0  0  0  0
   35.1840   30.3510   37.8720 H   0  0  0  0  0  0  0  0  0  0  0  0
   36.5810   29.2610   37.7840 H   0  0  0  0  0  0  0  0  0  0  0  0
   37.8190   32.8040   40.0370 C   0  0  0  0  0  0  0  0  0  0  0  0
   39.0780   32.6960   39.3950 C   0  0  0  0  0  0  0  0  0  0  0  0
   39.2330   31.6780   38.4750 C   0  0  0  0  0  0  0  0  0  0  0  0
   38.1760   30.8810   38.2710 N   0  0  0  0  0  0  0  0  0  0  0  0
   36.9940   30.9780   38.8720 C   0  0  0  0  0  0  0  0  0  0  0  0
   36.8290   31.9460   39.7540 N   0  0  0  0  0  0  0  0  0  0  0  0
   37.6750   33.6080   40.7730 H   0  0  0  0  0  0  0  0  0  0  0  0
   39.8910   33.3760   39.6080 H   0  0  0  0  0  0  0  0  0  0  0  0
   40.5330   31.5680   37.8140 C   0  0  0  0  0  0  0  0  0  0  0  0
   40.6810   30.2870   37.2810 F   0  0  0  0  0  0  0  0  0  0  0  0
   41.4880   31.6230   38.8330 F   0  0  0  0  0  0  0  0  0  0  0  0
   40.7230   32.5070   36.8490 F   0  0  0  0  0  0  0  0  0  0  0  0
  1  5  2  0  0  0  0
  2  1  1  0  0  0  0
  2  3  2  0  0  0  0
  3  4  1  0  0  0  0
  4 16  1  0  0  0  0
  5  4  1  0  0  0  0
  6  2  1  0  0  0  0
  8  7  2  0  0  0  0
  9  3  1  6  0  0  0
  9  8  1  0  0  0  0
 10 12  1  0  0  0  0
 10  9  1  0  0  0  0
 11 10  1  0  0  0  0
 12 13  1  0  0  0  0
 12 14  1  0  0  0  0
 14 15  1  0  0  0  0
 14  8  1  0  0  0  0
 16 18  1  0  0  0  0
 16 17  1  0  0  0  0
 19 16  1  0  0  0  0
 20  1  1  0  0  0  0
 20 22  1  0  0  0  0
 21 20  1  0  0  0  0
 23 30  1  0  0  0  0
 23 20  1  0  0  0  0
 24 23  1  0  0  0  0
 25 23  1  0  0  0  0
 26 32  1  0  0  0  0
 27 33  1  0  0  0  0
 27 26  2  0  0  0  0
 28 27  1  0  0  0  0
 29 28  2  0  0  0  0
 29 30  1  0  0  0  0
 30 31  2  0  0  0  0
 31 26  1  0  0  0  0
 34 28  1  0  0  0  0
 34 36  1  0  0  0  0
 35 34  1  0  0  0  0
 37 34  1  0  0  0  0
M  END
>  <minimizedAffinity>
-5.51720619

$$$$

 OpenBabel03242515193D

 37 39  0  0  1  0  0  0  0  0999 V2000
   38.6430   28.9380   38.1130 C   0  0  0  0  0  0  0  0  0  0  0  0
   38.4020   28.2900   39.2890 C   0  0  0  0  0  0  0  0  0  0  0  0
   38.0190   29.2460   40.1990 C   0  0  0  0  0  0  0  0  0  0  0  0
   38.0300   30.4300   39.5870 N   0  0  0  0  0  0  0  0  0  0  0  0
   38.4080   30.2270   38.3310 N   0  0  0  0  0  0  0  0  0  0  0  0
   38.5070   27.2240   39.4340 H   0  0  0  0  0  0  0  0  0  0  0  0
   35.4040   28.7080   40.8960 O   0  0  0  0  0  0  0  0  0  0  0  0
   36.2810   28.5110   41.7800 C   0  0  0  0  0  0  0  0  0  0  0  0
   37.6630   28.9980   41.5970 C   0  0  1  0  0  3  0  0  0  0  0  0
   38.4290   27.8270   42.2200 C   0  0  0  0  0  3  0  0  0  0  0  0
   39.4640   28.1880   42.3840 H   0  0  0  0  0  0  0  0  0  0  0  0
   37.6520   27.7220   43.5300 C   0  0  0  0  0  3  0  0  0  0  0  0
   37.9420   28.5870   44.1620 H   0  0  0  0  0  0  0  0  0  0  0  0
   36.2840   27.8610   43.0670 N   0  0  0  0  0  0  0  0  0  0  0  0
   35.3590   27.5770   43.4990 H   0  0  0  0  0  0  0  0  0  0  0  0
   37.6920   31.7430   40.1570 C   0  0  0  0  0  0  0  0  0  0  0  0
   36.4020   31.7080   40.6970 F   0  0  0  0  0  0  0  0  0  0  0  0
   37.8430   32.7190   39.2210 F   0  0  0  0  0  0  0  0  0  0  0  0
   38.5570   31.9880   41.2120 F   0  0  0  0  0  0  0  0  0  0  0  0
   39.0780   28.4050   36.8160 C   0  0  0  0  0  0  0  0  0  0  0  0
   39.2460   29.2220   36.0820 H   0  0  0  0  0  0  0  0  0  0  0  0
   40.0580   27.8660   36.9330 H   0  0  0  0  0  0  0  0  0  0  0  0
   38.0990   27.3950   36.2640 C   0  0  0  0  0  0  0  0  0  0  0  0
   37.9640   26.6500   37.0340 H   0  0  0  0  0  0  0  0  0  0  0  0
   38.5110   26.8620   35.3600 H   0  0  0  0  0  0  0  0  0  0  0  0
   34.5540   28.2580   35.5100 C   0  0  0  0  0  0  0  0  0  0  0  0
   34.7320   29.4380   34.7460 C   0  0  0  0  0  0  0  0  0  0  0  0
   36.0280   29.8650   34.5360 C   0  0  0  0  0  0  0  0  0  0  0  0
   37.0040   29.1220   35.0740 N   0  0  0  0  0  0  0  0  0  0  0  0
   36.8410   28.0140   35.7910 C   0  0  0  0  0  0  0  0  0  0  0  0
   35.6080   27.5920   36.0020 N   0  0  0  0  0  0  0  0  0  0  0  0
   33.5290   27.9000   35.6890 H   0  0  0  0  0  0  0  0  0  0  0  0
   33.8960   29.9910   34.3400 H   0  0  0  0  0  0  0  0  0  0  0  0
   36.2090   31.0840   33.7490 C   0  0  0  0  0  0  0  0  0  0  0  0
   37.0000   30.8090   32.6320 F   0  0  0  0  0  0  0  0  0  0  0  0
   37.0050   31.9300   34.5280 F   0  0  0  0  0  0  0  0  0  0  0  0
   35.0340   31.6530   33.3680 F   0  0  0  0  0  0  0  0  0  0  0  0
  1  5  2  0  0  0  0
  1  2  1  0  0  0  0
  2  6  1  0  0  0  0
  2  3  2  0  0  0  0
  4 16  1  0  0  0  0
  4  3  1  0  0  0  0
  5  4  1  0  0  0  0
  7  8  2  0  0  0  0
  8 14  1  0  0  0  0
  9  3  1  6  0  0  0
  9  8  1  0  0  0  0
  9 10  1  0  0  0  0
 10 11  1  0  0  0  0
 10 12  1  0  0  0  0
 12 13  1  0  0  0  0
 14 15  1  0  0  0  0
 14 12  1  0  0  0  0
 16 17  1  0  0  0  0
 16 19  1  0  0  0  0
 18 16  1  0  0  0  0
 20 22  1  0  0  0  0
 20  1  1  0  0  0  0
 21 20  1  0  0  0  0
 23 20  1  0  0  0  0
 23 24  1  0  0  0  0
 25 23  1  0  0  0  0
 26 32  1  0  0  0  0
 26 31  1  0  0  0  0
 27 26  2  0  0  0  0
 28 27  1  0  0  0  0
 28 29  2  0  0  0  0
 29 30  1  0  0  0  0
 30 31  2  0  0  0  0
 30 23  1  0  0  0  0
 33 27  1  0  0  0  0
 34 36  1  0  0  0  0
 34 28  1  0  0  0  0
 35 34  1  0  0  0  0
 37 34  1  0  0  0  0
M  END
>  <minimizedAffinity>
-5.51287127

$$$$

 OpenBabel03242515193D

 37 39  0  0  1  0  0  0  0  0999 V2000
   38.0230   28.1130   42.5760 C   0  0  0  0  0  0  0  0  0  0  0  0
   39.3240   27.7670   42.7930 C   0  0  0  0  0  0  0  0  0  0  0  0
   39.4110   26.4080   42.6080 C   0  0  0  0  0  0  0  0  0  0  0  0
   38.1990   25.9540   42.2890 N   0  0  0  0  0  0  0  0  0  0  0  0
   37.3750   26.9940   42.2740 N   0  0  0  0  0  0  0  0  0  0  0  0
   40.1080   28.4630   43.0600 H   0  0  0  0  0  0  0  0  0  0  0  0
   40.9090   25.7750   40.3780 O   0  0  0  0  0  0  0  0  0  0  0  0
   41.4310   25.5390   41.5010 C   0  0  0  0  0  0  0  0  0  0  0  0
   40.6280   25.6060   42.7380 C   0  0  1  0  0  3  0  0  0  0  0  0
   41.6660   26.2260   43.6800 C   0  0  0  0  0  3  0  0  0  0  0  0
   41.2730   26.0840   44.7060 H   0  0  0  0  0  0  0  0  0  0  0  0
   42.8290   25.2840   43.3840 C   0  0  0  0  0  3  0  0  0  0  0  0
   42.6000   24.3070   43.8580 H   0  0  0  0  0  0  0  0  0  0  0  0
   42.7580   25.1810   41.9380 N   0  0  0  0  0  0  0  0  0  0  0  0
   43.4790   24.9050   41.2120 H   0  0  0  0  0  0  0  0  0  0  0  0
   37.8030   24.5670   41.9980 C   0  0  0  0  0  0  0  0  0  0  0  0
   38.2560   23.7220   43.0170 F   0  0  0  0  0  0  0  0  0  0  0  0
   38.2520   24.1950   40.7690 F   0  0  0  0  0  0  0  0  0  0  0  0
   36.4190   24.5030   42.0150 F   0  0  0  0  0  0  0  0  0  0  0  0
   37.3750   29.4290   42.6410 C   0  0  0  0  0  0  0  0  0  0  0  0
   36.5750   29.4460   43.4130 H   0  0  0  0  0  0  0  0  0  0  0  0
   38.1270   30.2110   42.9350 H   0  0  0  0  0  0  0  0  0  0  0  0
   36.8220   29.8520   41.3000 C   0  0  0  0  0  0  0  0  0  0  0  0
   35.7510   29.9090   41.4160 H   0  0  0  0  0  0  0  0  0  0  0  0
   37.0260   29.0830   40.5010 H   0  0  0  0  0  0  0  0  0  0  0  0
   37.5460   33.1600   39.7440 C   0  0  0  0  0  0  0  0  0  0  0  0
   38.9390   33.2590   39.9850 C   0  0  0  0  0  0  0  0  0  0  0  0
   39.5420   32.2100   40.6520 C   0  0  0  0  0  0  0  0  0  0  0  0
   38.7530   31.1900   41.0130 N   0  0  0  0  0  0  0  0  0  0  0  0
   37.4460   31.0930   40.7890 C   0  0  0  0  0  0  0  0  0  0  0  0
   36.8540   32.0870   40.1530 N   0  0  0  0  0  0  0  0  0  0  0  0
   37.0470   33.9840   39.2140 H   0  0  0  0  0  0  0  0  0  0  0  0
   39.5180   34.1150   39.6650 H   0  0  0  0  0  0  0  0  0  0  0  0
   40.9790   32.3160   40.9000 C   0  0  0  0  0  0  0  0  0  0  0  0
   41.2760   31.7990   42.1620 F   0  0  0  0  0  0  0  0  0  0  0  0
   41.2490   33.6820   41.0220 F   0  0  0  0  0  0  0  0  0  0  0  0
   41.7320   31.7020   39.9480 F   0  0  0  0  0  0  0  0  0  0  0  0
  1 20  1  0  0  0  0
  1  2  1  0  0  0  0
  2  6  1  0  0  0  0
  3  2  2  0  0  0  0
  4  3  1  0  0  0  0
  5  4  1  0  0  0  0
  5  1  2  0  0  0  0
  7  8  2  0  0  0  0
  8 14  1  0  0  0  0
  8  9  1  0  0  0  0
  9  3  1  6  0  0  0
  9 10  1  0  0  0  0
 10 11  1  0  0  0  0
 12 10  1  0  0  0  0
 12 13  1  0  0  0  0
 14 12  1  0  0  0  0
 15 14  1  0  0  0  0
 16 19  1  0  0  0  0
 16  4  1  0  0  0  0
 16 17  1  0  0  0  0
 18 16  1  0  0  0  0
 20 22  1  0  0  0  0
 20 21  1  0  0  0  0
 23 24  1  0  0  0  0
 23 20  1  0  0  0  0
 25 23  1  0  0  0  0
 26 27  2  0  0  0  0
 26 31  1  0  0  0  0
 27 28  1  0  0  0  0
 28 34  1  0  0  0  0
 28 29  2  0  0  0  0
 30 29  1  0  0  0  0
 30 23  1  0  0  0  0
 31 30  2  0  0  0  0
 32 26  1  0  0  0  0
 33 27  1  0  0  0  0
 34 36  1  0  0  0  0
 34 35  1  0  0  0  0
 37 34  1  0  0  0  0
M  END
>  <minimizedAffinity>
-5.49592257

$$$$
