
 OpenBabel03252505533D

 33 35  0  0  1  0  0  0  0  0999 V2000
   47.2420   30.5250   47.5800 C   0  0  0  0  0  0  0  0  0  0  0  0
   47.9690   29.8000   46.6540 C   0  0  0  0  0  0  0  0  0  0  0  0
   49.1920   29.3120   46.9940 C   0  0  0  0  0  0  0  0  0  0  0  0
   49.7120   29.5090   48.1960 N   0  0  0  0  0  0  0  0  0  0  0  0
   49.0100   30.2140   49.1060 C   0  0  0  0  0  0  0  0  0  0  0  0
   47.7870   30.7240   48.8180 N   0  0  0  0  0  0  0  0  0  0  0  0
   47.4610   29.7000   45.7210 H   0  0  0  0  0  0  0  0  0  0  0  0
   49.6880   28.7580   46.2090 H   0  0  0  0  0  0  0  0  0  0  0  0
   50.7420   32.6630   49.9190 O   0  0  0  0  0  0  0  0  0  0  0  0
   50.6030   31.5390   50.4650 C   0  0  0  0  0  0  0  0  0  0  0  0
   49.6020   30.4400   50.4750 C   0  0  2  0  0  3  0  0  0  0  0  0
   50.4840   29.2570   50.8660 C   0  0  0  0  0  3  0  0  0  0  0  0
   49.8920   28.3860   51.2060 H   0  0  0  0  0  0  0  0  0  0  0  0
   51.2480   29.9210   52.0090 C   0  0  0  0  0  3  0  0  0  0  0  0
   50.5190   30.2670   52.7870 H   0  0  0  0  0  0  0  0  0  0  0  0
   51.6790   31.1390   51.3380 N   0  0  0  0  0  0  0  0  0  0  0  0
   52.6300   31.5460   51.5480 H   0  0  0  0  0  0  0  0  0  0  0  0
   45.9310   31.1520   47.4790 C   0  0  0  0  0  0  0  0  0  0  0  0
   45.3240   30.7360   46.6620 H   0  0  0  0  0  0  0  0  0  0  0  0
   45.3690   30.9360   48.4250 H   0  0  0  0  0  0  0  0  0  0  0  0
   46.1080   32.5450   47.4410 O   0  0  0  0  0  0  0  0  0  0  0  0
   44.9630   34.9150   45.0480 C   0  0  0  0  0  0  0  0  0  0  0  0
   45.7710   34.6940   43.9360 C   0  0  0  0  0  0  0  0  0  0  0  0
   46.7390   33.6830   44.0410 C   0  0  0  0  0  0  0  0  0  0  0  0
   46.8390   32.9890   45.1910 N   0  0  0  0  0  0  0  0  0  0  0  0
   46.0310   33.2450   46.2370 C   0  0  0  0  0  0  0  0  0  0  0  0
   45.0980   34.1990   46.1720 N   0  0  0  0  0  0  0  0  0  0  0  0
   44.1880   35.6830   45.0420 H   0  0  0  0  0  0  0  0  0  0  0  0
   47.3680   33.5100   43.1790 H   0  0  0  0  0  0  0  0  0  0  0  0
   45.5700   35.5270   42.7100 C   0  0  0  0  0  0  0  0  0  0  0  0
   45.3040   36.8000   43.1940 F   0  0  0  0  0  0  0  0  0  0  0  0
   44.4190   35.0250   42.0880 F   0  0  0  0  0  0  0  0  0  0  0  0
   46.6730   35.4540   41.9250 F   0  0  0  0  0  0  0  0  0  0  0  0
  1  6  1  0  0  0  0
  2  3  1  0  0  0  0
  2  1  2  0  0  0  0
  3  4  2  0  0  0  0
  4  5  1  0  0  0  0
  6  5  2  0  0  0  0
  7  2  1  0  0  0  0
  8  3  1  0  0  0  0
  9 10  2  0  0  0  0
 10 11  1  0  0  0  0
 10 16  1  0  0  0  0
 11  5  1  6  0  0  0
 11 12  1  0  0  0  0
 12 13  1  0  0  0  0
 12 14  1  0  0  0  0
 14 15  1  0  0  0  0
 16 17  1  0  0  0  0
 16 14  1  0  0  0  0
 18  1  1  0  0  0  0
 18 20  1  0  0  0  0
 19 18  1  0  0  0  0
 21 18  1  0  0  0  0
 22 27  1  0  0  0  0
 23 24  1  0  0  0  0
 23 22  2  0  0  0  0
 24 25  2  0  0  0  0
 25 26  1  0  0  0  0
 26 21  1  0  0  0  0
 27 26  2  0  0  0  0
 28 22  1  0  0  0  0
 29 24  1  0  0  0  0
 30 31  1  0  0  0  0
 30 23  1  0  0  0  0
 32 30  1  0  0  0  0
 33 30  1  0  0  0  0
M  END
>  <minimizedAffinity>
-5.70111465

>  <minimizedRMSD>
1.04681373

$$$$
