
 OpenBabel03252508323D

 32 34  0  0  1  0  0  0  0  0999 V2000
   45.0050   34.1250   41.5180 N   0  0  0  0  0  0  0  0  0  0  0  0
   46.0040   33.4640   40.7570 C   0  0  1  0  0  0  0  0  0  0  0  0
   45.6920   33.3400   39.2970 C   0  0  0  0  0  0  0  0  0  0  0  0
   44.3550   33.1110   38.9540 N   0  0  0  0  0  0  0  0  0  0  0  0
   43.3900   33.8060   39.6990 C   0  0  0  0  0  0  0  0  0  0  0  0
   43.9820   34.7350   40.7140 C   0  0  0  0  0  0  0  0  0  0  0  0
   46.1290   32.4390   41.1650 H   0  0  0  0  0  0  0  0  0  0  0  0
   45.9540   34.3490   38.8600 H   0  0  0  0  0  0  0  0  0  0  0  0
   46.3510   32.5710   38.8450 H   0  0  0  0  0  0  0  0  0  0  0  0
   44.2240   32.9750   37.9530 H   0  0  0  0  0  0  0  0  0  0  0  0
   42.7040   33.0940   40.1900 H   0  0  0  0  0  0  0  0  0  0  0  0
   42.8210   34.4710   38.9850 H   0  0  0  0  0  0  0  0  0  0  0  0
   43.1790   35.2540   41.2580 H   0  0  0  0  0  0  0  0  0  0  0  0
   44.4740   35.5440   40.1110 H   0  0  0  0  0  0  0  0  0  0  0  0
   44.6770   35.3080   43.5530 C   0  0  0  0  0  0  0  0  0  0  0  0
   45.1030   34.1280   42.9180 C   0  0  0  0  0  0  0  0  0  0  0  0
   45.5930   33.1010   43.7030 C   0  0  0  0  0  0  0  0  0  0  0  0
   45.6640   33.2270   45.0590 N   0  0  0  0  0  0  0  0  0  0  0  0
   45.2440   34.3860   45.6550 C   0  0  0  0  0  0  0  0  0  0  0  0
   44.7620   35.3990   44.9130 N   0  0  0  0  0  0  0  0  0  0  0  0
   44.2700   36.2120   43.1300 H   0  0  0  0  0  0  0  0  0  0  0  0
   45.9090   32.1850   43.2270 H   0  0  0  0  0  0  0  0  0  0  0  0
   45.3000   34.4860   46.7300 H   0  0  0  0  0  0  0  0  0  0  0  0
   48.9370   32.1840   41.8790 O   0  0  0  0  0  0  0  0  0  0  0  0
   48.4200   33.2580   41.4320 C   0  0  0  0  0  0  0  0  0  0  0  0
   47.3620   34.1030   40.8350 C   0  0  2  0  0  3  0  0  0  0  0  0
   47.4010   35.2870   41.7730 C   0  0  0  0  0  3  0  0  0  0  0  0
   47.2530   35.0160   42.8220 H   0  0  0  0  0  0  0  0  0  0  0  0
   48.8950   35.6320   41.6440 C   0  0  0  0  0  3  0  0  0  0  0  0
   49.0970   36.2080   40.7340 H   0  0  0  0  0  0  0  0  0  0  0  0
   49.4500   34.2690   41.5820 N   0  0  0  0  0  0  0  0  0  0  0  0
   50.5120   34.3630   41.6640 H   0  0  0  0  0  0  0  0  0  0  0  0
  1 16  1  0  0  0  0
  2 26  1  0  0  0  0
  2  7  1  1  0  0  0
  2  1  1  0  0  0  0
  3  2  1  0  0  0  0
  4  3  1  0  0  0  0
  4  5  1  0  0  0  0
  5 11  1  0  0  0  0
  5  6  1  0  0  0  0
  6 13  1  0  0  0  0
  6  1  1  0  0  0  0
  8  3  1  0  0  0  0
  9  3  1  0  0  0  0
 10  4  1  0  0  0  0
 12  5  1  0  0  0  0
 14  6  1  0  0  0  0
 15 20  1  0  0  0  0
 16 15  2  0  0  0  0
 16 17  1  0  0  0  0
 17 18  2  0  0  0  0
 18 19  1  0  0  0  0
 19 23  1  0  0  0  0
 20 19  2  0  0  0  0
 21 15  1  0  0  0  0
 22 17  1  0  0  0  0
 25 31  1  0  0  0  0
 25 24  2  0  0  0  0
 26 25  1  1  0  0  0
 26 27  1  0  0  0  0
 27 28  1  0  0  0  0
 29 27  1  0  0  0  0
 30 29  1  0  0  0  0
 31 29  1  0  0  0  0
 31 32  1  0  0  0  0
M  END
>  <minimizedAffinity>
-4.71312571

>  <minimizedRMSD>
1.54080391

$$$$
