
 OpenBabel03252502463D

 45 48  0  0  1  0  0  0  0  0999 V2000
   47.2430   35.1380   42.1870 C   0  0  0  0  0  0  0  0  0  0  0  0
   47.4080   35.7600   43.1010 H   0  0  0  0  0  0  0  0  0  0  0  0
   46.6710   35.7830   41.4710 H   0  0  0  0  0  0  0  0  0  0  0  0
   48.5760   34.7130   41.6540 C   0  0  1  0  0  0  0  0  0  0  0  0
   49.7900   35.1240   42.4220 C   0  0  0  0  0  0  0  0  0  0  0  0
   49.3110   33.7140   42.4170 C   0  0  2  0  0  0  0  0  0  0  0  0
   48.6410   34.7730   40.5730 H   0  0  0  0  0  0  0  0  0  0  0  0
   49.6140   35.7600   43.3230 H   0  0  0  0  0  0  0  0  0  0  0  0
   50.7180   35.4290   41.8760 H   0  0  0  0  0  0  0  0  0  0  0  0
   49.0490   33.3330   43.3980 H   0  0  0  0  0  0  0  0  0  0  0  0
   50.1460   32.8520   41.5990 N   0  0  0  0  0  0  0  0  0  0  0  0
   49.4940   32.3210   40.4570 C   0  0  0  0  0  0  0  0  0  0  0  0
   50.5230   31.4570   39.7540 C   0  0  0  0  0  0  0  0  0  0  0  0
   50.9440   30.3560   40.5640 N   0  0  0  0  0  0  0  0  0  0  0  0
   50.8470   30.6080   41.9860 C   0  0  0  0  0  0  0  0  0  0  0  0
   51.1030   32.0850   42.2730 C   0  0  0  0  0  0  0  0  0  0  0  0
   48.6060   31.7370   40.7580 H   0  0  0  0  0  0  0  0  0  0  0  0
   49.1730   33.0970   39.7490 H   0  0  0  0  0  0  0  0  0  0  0  0
   50.0400   31.0630   38.8270 H   0  0  0  0  0  0  0  0  0  0  0  0
   51.3550   32.1000   39.4300 H   0  0  0  0  0  0  0  0  0  0  0  0
   51.8510   29.9850   40.2620 H   0  0  0  0  0  0  0  0  0  0  0  0
   51.5420   29.9620   42.5450 H   0  0  0  0  0  0  0  0  0  0  0  0
   49.8010   30.3830   42.3090 H   0  0  0  0  0  0  0  0  0  0  0  0
   52.1400   32.3520   41.9980 H   0  0  0  0  0  0  0  0  0  0  0  0
   50.9790   32.1960   43.3710 H   0  0  0  0  0  0  0  0  0  0  0  0
   46.5030   33.8850   42.5430 C   0  0  0  0  0  0  0  0  0  0  0  0
   47.0140   32.9460   42.3800 H   0  0  0  0  0  0  0  0  0  0  0  0
   45.5980   33.8410   41.8670 H   0  0  0  0  0  0  0  0  0  0  0  0
   44.6240   35.3080   45.4530 C   0  0  0  0  0  0  0  0  0  0  0  0
   45.1530   35.1680   44.1510 C   0  0  0  0  0  0  0  0  0  0  0  0
   45.9300   34.0530   43.9190 C   0  0  0  0  0  0  0  0  0  0  0  0
   46.1520   33.1610   44.9140 N   0  0  0  0  0  0  0  0  0  0  0  0
   45.6450   33.3140   46.1280 C   0  0  0  0  0  0  0  0  0  0  0  0
   44.8900   34.3730   46.3990 N   0  0  0  0  0  0  0  0  0  0  0  0
   44.0050   36.1730   45.6790 H   0  0  0  0  0  0  0  0  0  0  0  0
   44.9620   35.8920   43.3760 H   0  0  0  0  0  0  0  0  0  0  0  0
   45.2810   30.4160   45.7470 O   0  0  0  0  0  0  0  0  0  0  0  0
   45.9870   30.9270   46.6710 C   0  0  0  0  0  0  0  0  0  0  0  0
   45.9100   32.3140   47.1970 C   0  0  1  0  0  3  0  0  0  0  0  0
   47.2340   32.5890   47.8360 C   0  0  0  0  0  3  0  0  0  0  0  0
   47.8130   33.3940   47.3340 H   0  0  0  0  0  0  0  0  0  0  0  0
   47.9710   31.2760   47.7960 C   0  0  0  0  0  3  0  0  0  0  0  0
   48.3770   31.0090   48.7870 H   0  0  0  0  0  0  0  0  0  0  0  0
   47.0070   30.2630   47.3960 N   0  0  0  0  0  0  0  0  0  0  0  0
   47.0720   29.2450   47.6130 H   0  0  0  0  0  0  0  0  0  0  0  0
  1 26  1  0  0  0  0
  1  2  1  0  0  0  0
  3  1  1  0  0  0  0
  4  7  1  6  0  0  0
  4  1  1  0  0  0  0
  4  6  1  0  0  0  0
  4  5  1  0  0  0  0
  5  8  1  0  0  0  0
  6  5  1  0  0  0  0
  6 10  1  1  0  0  0
  9  5  1  0  0  0  0
 11 16  1  0  0  0  0
 11  6  1  0  0  0  0
 12 17  1  0  0  0  0
 12 11  1  0  0  0  0
 13 12  1  0  0  0  0
 13 14  1  0  0  0  0
 14 15  1  0  0  0  0
 15 16  1  0  0  0  0
 15 23  1  0  0  0  0
 15 22  1  0  0  0  0
 16 25  1  0  0  0  0
 18 12  1  0  0  0  0
 19 13  1  0  0  0  0
 20 13  1  0  0  0  0
 21 14  1  0  0  0  0
 24 16  1  0  0  0  0
 26 31  1  0  0  0  0
 27 26  1  0  0  0  0
 28 26  1  0  0  0  0
 29 35  1  0  0  0  0
 29 34  1  0  0  0  0
 30 29  2  0  0  0  0
 31 30  1  0  0  0  0
 31 32  2  0  0  0  0
 32 33  1  0  0  0  0
 33 34  2  0  0  0  0
 36 30  1  0  0  0  0
 37 38  2  0  0  0  0
 38 39  1  0  0  0  0
 38 44  1  0  0  0  0
 39 33  1  6  0  0  0
 39 40  1  0  0  0  0
 41 40  1  0  0  0  0
 42 40  1  0  0  0  0
 42 43  1  0  0  0  0
 44 45  1  0  0  0  0
 44 42  1  0  0  0  0
M  END
>  <minimizedAffinity>
-5.24702883

>  <minimizedRMSD>
0.697013497

$$$$
