
 OpenBabel03252508383D

 41 44  0  0  1  0  0  0  0  0999 V2000
   45.0990   33.9870   40.7330 C   0  0  0  0  0  0  0  0  0  0  0  0
   44.0560   33.6420   39.9220 C   0  0  0  0  0  0  0  0  0  0  0  0
   44.3690   33.1070   38.7060 C   0  0  0  0  0  0  0  0  0  0  0  0
   45.6540   32.9010   38.2610 C   0  0  0  0  0  0  0  0  0  0  0  0
   46.6760   33.2610   39.1070 C   0  0  0  0  0  0  0  0  0  0  0  0
   46.4270   33.8050   40.3440 C   0  0  0  0  0  0  0  0  0  0  0  0
   43.5570   32.8260   38.0460 H   0  0  0  0  0  0  0  0  0  0  0  0
   45.8290   32.4710   37.2820 H   0  0  0  0  0  0  0  0  0  0  0  0
   47.6860   33.0980   38.7540 H   0  0  0  0  0  0  0  0  0  0  0  0
   40.7720   35.2680   40.8040 C   0  0  0  0  0  0  0  0  0  0  0  0
   42.0790   35.1090   40.2920 C   0  0  0  0  0  0  0  0  0  0  0  0
   42.7210   33.8740   40.4240 C   0  0  0  0  0  0  0  0  0  0  0  0
   42.0010   32.9050   41.0560 N   0  0  0  0  0  0  0  0  0  0  0  0
   40.7680   33.0790   41.5320 C   0  0  0  0  0  0  0  0  0  0  0  0
   40.1590   34.2610   41.4040 N   0  0  0  0  0  0  0  0  0  0  0  0
   40.1780   36.5500   40.6360 N   0  0  0  0  0  0  0  0  0  0  0  0
   42.6460   35.8750   39.7920 H   0  0  0  0  0  0  0  0  0  0  0  0
   40.2150   32.2960   42.0300 H   0  0  0  0  0  0  0  0  0  0  0  0
   39.9880   36.8290   39.6480 H   0  0  0  0  0  0  0  0  0  0  0  0
   39.9320   37.2060   41.4300 H   0  0  0  0  0  0  0  0  0  0  0  0
   47.5720   34.1520   41.1620 C   0  0  0  0  0  0  0  0  0  0  0  0
   48.1590   35.3730   40.8710 C   0  0  0  0  0  0  0  0  0  0  0  0
   49.2680   35.8780   41.5480 C   0  0  0  0  0  0  0  0  0  0  0  0
   49.7950   35.1000   42.5640 C   0  0  0  0  0  0  0  0  0  0  0  0
   49.2210   33.8810   42.8650 C   0  0  0  0  0  0  0  0  0  0  0  0
   48.1150   33.4030   42.1720 C   0  0  0  0  0  0  0  0  0  0  0  0
   47.7880   36.0220   40.0860 H   0  0  0  0  0  0  0  0  0  0  0  0
   49.7000   36.8350   41.2940 H   0  0  0  0  0  0  0  0  0  0  0  0
   50.6540   35.4320   43.1300 H   0  0  0  0  0  0  0  0  0  0  0  0
   49.6630   33.3110   43.6610 H   0  0  0  0  0  0  0  0  0  0  0  0
   49.1340   30.9700   41.0360 O   0  0  0  0  0  0  0  0  0  0  0  0
   48.3250   30.9520   42.0250 C   0  0  0  0  0  0  0  0  0  0  0  0
   47.4950   32.1160   42.4740 C   0  0  1  0  0  3  0  0  0  0  0  0
   47.3320   31.8390   43.9410 C   0  0  0  0  0  3  0  0  0  0  0  0
   47.9420   32.5770   44.4960 H   0  0  0  0  0  0  0  0  0  0  0  0
   47.7520   30.4170   44.1830 C   0  0  0  0  0  3  0  0  0  0  0  0
   48.6810   30.4600   44.8040 H   0  0  0  0  0  0  0  0  0  0  0  0
   48.0530   29.8490   42.8820 N   0  0  0  0  0  0  0  0  0  0  0  0
   48.0750   28.8520   42.6050 H   0  0  0  0  0  0  0  0  0  0  0  0
   44.6780   35.0110   43.1140 N   0  0  0  0  0  0  0  0  0  0  0  0
   44.8620   34.5600   42.0410 C   0  0  0  0  0  0  0  0  0  0  0  0
  1 41  1  0  0  0  0
  2 12  1  0  0  0  0
  2  1  2  0  0  0  0
  3  2  1  0  0  0  0
  4  3  2  0  0  0  0
  4  5  1  0  0  0  0
  5  6  2  0  0  0  0
  6  1  1  0  0  0  0
  6 21  1  0  0  0  0
  7  3  1  0  0  0  0
  8  4  1  0  0  0  0
  9  5  1  0  0  0  0
 10 15  1  0  0  0  0
 11 12  1  0  0  0  0
 11 10  2  0  0  0  0
 12 13  2  0  0  0  0
 13 14  1  0  0  0  0
 14 18  1  0  0  0  0
 15 14  2  0  0  0  0
 16 10  1  0  0  0  0
 16 20  1  0  0  0  0
 17 11  1  0  0  0  0
 19 16  1  0  0  0  0
 21 26  1  0  0  0  0
 22 21  2  0  0  0  0
 22 23  1  0  0  0  0
 23 24  2  0  0  0  0
 24 25  1  0  0  0  0
 24 29  1  0  0  0  0
 25 30  1  0  0  0  0
 26 25  2  0  0  0  0
 27 22  1  0  0  0  0
 28 23  1  0  0  0  0
 31 32  2  0  0  0  0
 32 33  1  0  0  0  0
 32 38  1  0  0  0  0
 33 26  1  1  0  0  0
 33 34  1  0  0  0  0
 34 36  1  0  0  0  0
 34 35  1  0  0  0  0
 36 37  1  0  0  0  0
 38 36  1  0  0  0  0
 39 38  1  0  0  0  0
 41 40  3  0  0  0  0
M  END
>  <minimizedAffinity>
-6.1758256

>  <minimizedRMSD>
0.303337038

$$$$
