
 OpenBabel03252508383D

 41 44  0  0  1  0  0  0  0  0999 V2000
   45.2070   33.9590   40.6830 C   0  0  0  0  0  0  0  0  0  0  0  0
   44.1560   33.6400   39.8720 C   0  0  0  0  0  0  0  0  0  0  0  0
   44.4570   33.1370   38.6390 C   0  0  0  0  0  0  0  0  0  0  0  0
   45.7380   32.9380   38.1780 C   0  0  0  0  0  0  0  0  0  0  0  0
   46.7680   33.2720   39.0250 C   0  0  0  0  0  0  0  0  0  0  0  0
   46.5310   33.7820   40.2790 C   0  0  0  0  0  0  0  0  0  0  0  0
   43.6380   32.8780   37.9780 H   0  0  0  0  0  0  0  0  0  0  0  0
   45.9030   32.5350   37.1860 H   0  0  0  0  0  0  0  0  0  0  0  0
   47.7740   33.1140   38.6600 H   0  0  0  0  0  0  0  0  0  0  0  0
   40.8690   35.2420   40.7850 C   0  0  0  0  0  0  0  0  0  0  0  0
   42.1700   35.0910   40.2550 C   0  0  0  0  0  0  0  0  0  0  0  0
   42.8260   33.8640   40.3910 C   0  0  0  0  0  0  0  0  0  0  0  0
   42.1250   32.8950   41.0430 N   0  0  0  0  0  0  0  0  0  0  0  0
   40.8980   33.0610   41.5340 C   0  0  0  0  0  0  0  0  0  0  0  0
   40.2750   34.2350   41.4030 N   0  0  0  0  0  0  0  0  0  0  0  0
   40.2600   36.5170   40.6120 N   0  0  0  0  0  0  0  0  0  0  0  0
   42.7220   35.8580   39.7400 H   0  0  0  0  0  0  0  0  0  0  0  0
   40.3600   32.2770   42.0490 H   0  0  0  0  0  0  0  0  0  0  0  0
   40.0520   36.7830   39.6240 H   0  0  0  0  0  0  0  0  0  0  0  0
   40.0180   37.1780   41.4030 H   0  0  0  0  0  0  0  0  0  0  0  0
   47.6840   34.1030   41.0960 C   0  0  0  0  0  0  0  0  0  0  0  0
   48.1560   35.3990   40.9720 C   0  0  0  0  0  0  0  0  0  0  0  0
   49.2530   35.8930   41.6770 C   0  0  0  0  0  0  0  0  0  0  0  0
   49.8910   35.0220   42.5420 C   0  0  0  0  0  0  0  0  0  0  0  0
   49.4330   33.7260   42.6760 C   0  0  0  0  0  0  0  0  0  0  0  0
   48.3350   33.2620   41.9600 C   0  0  0  0  0  0  0  0  0  0  0  0
   47.6950   36.1230   40.3100 H   0  0  0  0  0  0  0  0  0  0  0  0
   49.5930   36.9120   41.5550 H   0  0  0  0  0  0  0  0  0  0  0  0
   50.7480   35.3400   43.1190 H   0  0  0  0  0  0  0  0  0  0  0  0
   49.9590   33.0850   43.3590 H   0  0  0  0  0  0  0  0  0  0  0  0
   46.7600   32.4680   44.2270 O   0  0  0  0  0  0  0  0  0  0  0  0
   46.8160   31.7490   43.1720 C   0  0  0  0  0  0  0  0  0  0  0  0
   47.8370   31.8950   42.0850 C   0  0  1  0  0  3  0  0  0  0  0  0
   47.0890   31.3980   40.8820 C   0  0  0  0  0  3  0  0  0  0  0  0
   46.8670   32.2690   40.2350 H   0  0  0  0  0  0  0  0  0  0  0  0
   45.8580   30.6900   41.3720 C   0  0  0  0  0  3  0  0  0  0  0  0
   44.9840   31.3040   41.0410 H   0  0  0  0  0  0  0  0  0  0  0  0
   45.9360   30.6860   42.8210 N   0  0  0  0  0  0  0  0  0  0  0  0
   45.4610   30.0520   43.4900 H   0  0  0  0  0  0  0  0  0  0  0  0
   44.8090   34.9200   43.0950 N   0  0  0  0  0  0  0  0  0  0  0  0
   44.9830   34.4980   42.0080 C   0  0  0  0  0  0  0  0  0  0  0  0
  1 41  1  0  0  0  0
  2 12  1  0  0  0  0
  2  1  2  0  0  0  0
  3  2  1  0  0  0  0
  4  3  2  0  0  0  0
  4  5  1  0  0  0  0
  5  6  2  0  0  0  0
  6  1  1  0  0  0  0
  6 21  1  0  0  0  0
  7  3  1  0  0  0  0
  8  4  1  0  0  0  0
  9  5  1  0  0  0  0
 10 15  1  0  0  0  0
 11 12  1  0  0  0  0
 11 10  2  0  0  0  0
 12 13  2  0  0  0  0
 13 14  1  0  0  0  0
 14 18  1  0  0  0  0
 15 14  2  0  0  0  0
 16 10  1  0  0  0  0
 16 20  1  0  0  0  0
 17 11  1  0  0  0  0
 19 16  1  0  0  0  0
 21 26  1  0  0  0  0
 22 21  2  0  0  0  0
 22 23  1  0  0  0  0
 23 24  2  0  0  0  0
 24 25  1  0  0  0  0
 24 29  1  0  0  0  0
 25 30  1  0  0  0  0
 26 25  2  0  0  0  0
 27 22  1  0  0  0  0
 28 23  1  0  0  0  0
 32 31  2  0  0  0  0
 33 26  1  6  0  0  0
 33 32  1  0  0  0  0
 34 36  1  0  0  0  0
 34 33  1  0  0  0  0
 35 34  1  0  0  0  0
 36 38  1  0  0  0  0
 37 36  1  0  0  0  0
 38 32  1  0  0  0  0
 38 39  1  0  0  0  0
 41 40  3  0  0  0  0
M  END
>  <minimizedAffinity>
-6.09688997

>  <minimizedRMSD>
0.520352185

$$$$
