
 OpenBabel03242513073D

 41 45  0  0  1  0  0  0  0  0999 V2000
   45.9190   32.9300   41.6160 C   0  0  0  0  0  0  0  0  0  0  0  0
   47.0220   33.7100   41.2520 C   0  0  0  0  0  0  0  0  0  0  0  0
   47.9980   33.9100   42.2130 C   0  0  0  0  0  0  0  0  0  0  0  0
   47.8200   33.3410   43.4360 N   0  0  0  0  0  0  0  0  0  0  0  0
   46.7600   32.5980   43.7710 C   0  0  0  0  0  0  0  0  0  0  0  0
   45.7940   32.3870   42.8560 N   0  0  0  0  0  0  0  0  0  0  0  0
   45.1150   32.7280   40.9220 H   0  0  0  0  0  0  0  0  0  0  0  0
   47.1330   30.7900   45.3830 C   0  0  0  0  0  0  0  0  0  0  0  0
   46.6610   32.0340   45.1020 C   0  0  0  0  0  0  0  0  0  0  0  0
   46.0520   32.8430   46.0820 C   0  0  0  0  0  0  0  0  0  0  0  0
   45.9150   32.3830   47.3830 C   0  0  0  0  0  0  0  0  0  0  0  0
   45.3940   32.8830   48.5410 N   0  0  0  0  0  0  0  0  0  0  0  0
   45.5720   31.9090   49.5000 C   0  0  0  0  0  0  0  0  0  0  0  0
   46.1890   30.8500   48.9140 N   0  0  0  0  0  0  0  0  0  0  0  0
   46.4080   31.1210   47.6180 C   0  0  0  0  0  0  0  0  0  0  0  0
   47.0080   30.3040   46.6830 C   0  0  0  0  0  0  0  0  0  0  0  0
   47.5970   30.1870   44.6190 H   0  0  0  0  0  0  0  0  0  0  0  0
   45.6760   33.8430   45.8440 H   0  0  0  0  0  0  0  0  0  0  0  0
   44.9700   33.8360   48.5660 H   0  0  0  0  0  0  0  0  0  0  0  0
   45.2120   32.1530   50.4760 H   0  0  0  0  0  0  0  0  0  0  0  0
   47.3790   29.3160   46.9230 H   0  0  0  0  0  0  0  0  0  0  0  0
   49.1890   34.7270   41.8820 C   0  0  0  0  0  0  0  0  0  0  0  0
   48.8230   35.8030   41.0600 F   0  0  0  0  0  0  0  0  0  0  0  0
   49.7260   35.2750   43.0240 F   0  0  0  0  0  0  0  0  0  0  0  0
   50.0960   33.9300   41.2370 F   0  0  0  0  0  0  0  0  0  0  0  0
   47.0810   34.2210   40.0020 O   0  0  0  0  0  0  0  0  0  0  0  0
   47.1220   33.4200   38.8760 C   0  0  0  0  0  0  0  0  0  0  0  0
   48.4340   33.5570   38.4370 C   0  0  0  0  0  0  0  0  0  0  0  0
   48.4980   32.4920   36.9370 S   0  0  0  0  0  0  0  0  0  0  0  0
   46.6900   32.0330   37.1690 C   0  0  0  0  0  0  0  0  0  0  0  0
   46.4800   32.6210   38.0810 N   0  0  0  0  0  0  0  0  0  0  0  0
   49.4830   34.0480   38.6110 H   0  0  0  0  0  0  0  0  0  0  0  0
   46.6450   32.3800   34.4370 O   0  0  0  0  0  0  0  0  0  0  0  0
   45.6580   31.8560   35.0530 C   0  0  0  0  0  0  0  0  0  0  0  0
   45.8870   31.1150   36.2880 C   0  0  2  0  0  0  0  0  0  0  0  0
   44.5250   30.8180   36.8490 C   0  0  0  0  0  0  0  0  0  0  0  0
   44.4760   29.7950   37.3150 H   0  0  0  0  0  0  0  0  0  0  0  0
   43.5980   30.9130   35.6530 C   0  0  0  0  0  0  0  0  0  0  0  0
   43.4150   29.9350   35.1620 H   0  0  0  0  0  0  0  0  0  0  0  0
   44.2520   31.8450   34.7600 N   0  0  0  0  0  0  0  0  0  0  0  0
   43.8470   32.4370   34.0120 H   0  0  0  0  0  0  0  0  0  0  0  0
  1  6  1  0  0  0  0
  2  1  2  0  0  0  0
  2  3  1  0  0  0  0
  3  4  2  0  0  0  0
  4  5  1  0  0  0  0
  5  9  1  0  0  0  0
  6  5  2  0  0  0  0
  7  1  1  0  0  0  0
  8 16  1  0  0  0  0
  9  8  2  0  0  0  0
  9 10  1  0  0  0  0
 10 11  2  0  0  0  0
 11 15  1  0  0  0  0
 11 12  1  0  0  0  0
 12 19  1  0  0  0  0
 12 13  1  0  0  0  0
 13 20  1  0  0  0  0
 14 13  2  0  0  0  0
 15 14  1  0  0  0  0
 16 21  1  0  0  0  0
 16 15  2  0  0  0  0
 17  8  1  0  0  0  0
 18 10  1  0  0  0  0
 22  3  1  0  0  0  0
 22 24  1  0  0  0  0
 23 22  1  0  0  0  0
 25 22  1  0  0  0  0
 26  2  1  0  0  0  0
 27 26  1  0  0  0  0
 28 32  1  0  0  0  0
 28 27  2  0  0  0  0
 29 30  1  0  0  0  0
 29 28  1  0  0  0  0
 30 31  2  0  0  0  0
 31 27  1  0  0  0  0
 33 34  2  0  0  0  0
 34 35  1  0  0  0  0
 35 36  1  0  0  0  0
 35 30  1  1  0  0  0
 36 37  1  0  0  0  0
 38 36  1  0  0  0  0
 39 38  1  0  0  0  0
 40 34  1  0  0  0  0
 40 38  1  0  0  0  0
 41 40  1  0  0  0  0
M  END
>  <minimizedAffinity>
-6.48150301

>  <minimizedRMSD>
0.649222434

$$$$
