
 OpenBabel03252508383D

 41 44  0  0  1  0  0  0  0  0999 V2000
   45.2060   33.9600   40.6840 C   0  0  0  0  0  0  0  0  0  0  0  0
   44.1540   33.6410   39.8730 C   0  0  0  0  0  0  0  0  0  0  0  0
   44.4550   33.1390   38.6400 C   0  0  0  0  0  0  0  0  0  0  0  0
   45.7360   32.9400   38.1780 C   0  0  0  0  0  0  0  0  0  0  0  0
   46.7660   33.2720   39.0250 C   0  0  0  0  0  0  0  0  0  0  0  0
   46.5290   33.7830   40.2790 C   0  0  0  0  0  0  0  0  0  0  0  0
   43.6360   32.8800   37.9790 H   0  0  0  0  0  0  0  0  0  0  0  0
   45.9010   32.5360   37.1860 H   0  0  0  0  0  0  0  0  0  0  0  0
   47.7720   33.1140   38.6610 H   0  0  0  0  0  0  0  0  0  0  0  0
   40.8670   35.2430   40.7860 C   0  0  0  0  0  0  0  0  0  0  0  0
   42.1690   35.0920   40.2560 C   0  0  0  0  0  0  0  0  0  0  0  0
   42.8240   33.8650   40.3920 C   0  0  0  0  0  0  0  0  0  0  0  0
   42.1240   32.8960   41.0450 N   0  0  0  0  0  0  0  0  0  0  0  0
   40.8970   33.0620   41.5360 C   0  0  0  0  0  0  0  0  0  0  0  0
   40.2740   34.2360   41.4050 N   0  0  0  0  0  0  0  0  0  0  0  0
   40.2580   36.5180   40.6130 N   0  0  0  0  0  0  0  0  0  0  0  0
   42.7200   35.8590   39.7400 H   0  0  0  0  0  0  0  0  0  0  0  0
   40.3590   32.2790   42.0510 H   0  0  0  0  0  0  0  0  0  0  0  0
   40.0500   36.7840   39.6250 H   0  0  0  0  0  0  0  0  0  0  0  0
   40.0170   37.1790   41.4040 H   0  0  0  0  0  0  0  0  0  0  0  0
   47.6830   34.1030   41.0970 C   0  0  0  0  0  0  0  0  0  0  0  0
   48.1550   35.3990   40.9730 C   0  0  0  0  0  0  0  0  0  0  0  0
   49.2520   35.8930   41.6770 C   0  0  0  0  0  0  0  0  0  0  0  0
   49.8900   35.0210   42.5420 C   0  0  0  0  0  0  0  0  0  0  0  0
   49.4320   33.7260   42.6760 C   0  0  0  0  0  0  0  0  0  0  0  0
   48.3340   33.2620   41.9600 C   0  0  0  0  0  0  0  0  0  0  0  0
   47.6940   36.1230   40.3110 H   0  0  0  0  0  0  0  0  0  0  0  0
   49.5930   36.9110   41.5550 H   0  0  0  0  0  0  0  0  0  0  0  0
   50.7480   35.3390   43.1190 H   0  0  0  0  0  0  0  0  0  0  0  0
   49.9570   33.0840   43.3590 H   0  0  0  0  0  0  0  0  0  0  0  0
   46.7600   32.4690   44.2270 O   0  0  0  0  0  0  0  0  0  0  0  0
   46.8140   31.7490   43.1730 C   0  0  0  0  0  0  0  0  0  0  0  0
   47.8350   31.8950   42.0860 C   0  0  1  0  0  3  0  0  0  0  0  0
   47.0870   31.3970   40.8830 C   0  0  0  0  0  3  0  0  0  0  0  0
   46.8640   32.2680   40.2360 H   0  0  0  0  0  0  0  0  0  0  0  0
   45.8570   30.6890   41.3740 C   0  0  0  0  0  3  0  0  0  0  0  0
   44.9830   31.3020   41.0440 H   0  0  0  0  0  0  0  0  0  0  0  0
   45.9350   30.6850   42.8230 N   0  0  0  0  0  0  0  0  0  0  0  0
   45.4600   30.0520   43.4920 H   0  0  0  0  0  0  0  0  0  0  0  0
   44.8080   34.9200   43.0960 N   0  0  0  0  0  0  0  0  0  0  0  0
   44.9820   34.4980   42.0090 C   0  0  0  0  0  0  0  0  0  0  0  0
  1 41  1  0  0  0  0
  2 12  1  0  0  0  0
  2  1  2  0  0  0  0
  3  2  1  0  0  0  0
  4  3  2  0  0  0  0
  4  5  1  0  0  0  0
  5  6  2  0  0  0  0
  6  1  1  0  0  0  0
  6 21  1  0  0  0  0
  7  3  1  0  0  0  0
  8  4  1  0  0  0  0
  9  5  1  0  0  0  0
 10 15  1  0  0  0  0
 11 12  1  0  0  0  0
 11 10  2  0  0  0  0
 12 13  2  0  0  0  0
 13 14  1  0  0  0  0
 14 18  1  0  0  0  0
 15 14  2  0  0  0  0
 16 10  1  0  0  0  0
 16 20  1  0  0  0  0
 17 11  1  0  0  0  0
 19 16  1  0  0  0  0
 21 26  1  0  0  0  0
 22 21  2  0  0  0  0
 22 23  1  0  0  0  0
 23 24  2  0  0  0  0
 24 25  1  0  0  0  0
 24 29  1  0  0  0  0
 25 30  1  0  0  0  0
 26 25  2  0  0  0  0
 27 22  1  0  0  0  0
 28 23  1  0  0  0  0
 32 31  2  0  0  0  0
 33 26  1  6  0  0  0
 33 32  1  0  0  0  0
 34 36  1  0  0  0  0
 34 33  1  0  0  0  0
 35 34  1  0  0  0  0
 36 38  1  0  0  0  0
 37 36  1  0  0  0  0
 38 32  1  0  0  0  0
 38 39  1  0  0  0  0
 41 40  3  0  0  0  0
M  END
>  <minimizedAffinity>
-6.09670973

>  <minimizedRMSD>
0.908200979

$$$$
