
 OpenBabel03252502463D

 45 48  0  0  1  0  0  0  0  0999 V2000
   46.6040   35.2970   42.2200 C   0  0  0  0  0  0  0  0  0  0  0  0
   46.9010   35.8160   43.1640 H   0  0  0  0  0  0  0  0  0  0  0  0
   45.9610   36.0210   41.6560 H   0  0  0  0  0  0  0  0  0  0  0  0
   47.8460   34.9150   41.4750 C   0  0  1  0  0  0  0  0  0  0  0  0
   49.0230   35.8300   41.5810 C   0  0  0  0  0  0  0  0  0  0  0  0
   48.9980   34.5080   42.2660 C   0  0  2  0  0  0  0  0  0  0  0  0
   47.6420   34.4950   40.4960 H   0  0  0  0  0  0  0  0  0  0  0  0
   48.8740   36.7610   42.1800 H   0  0  0  0  0  0  0  0  0  0  0  0
   49.6680   36.0130   40.6850 H   0  0  0  0  0  0  0  0  0  0  0  0
   49.0920   34.5680   43.3450 H   0  0  0  0  0  0  0  0  0  0  0  0
   49.8440   33.5290   41.6060 N   0  0  0  0  0  0  0  0  0  0  0  0
   49.1460   32.6320   40.7590 C   0  0  0  0  0  0  0  0  0  0  0  0
   50.1950   31.7030   40.1800 C   0  0  0  0  0  0  0  0  0  0  0  0
   50.8450   30.9280   41.1930 N   0  0  0  0  0  0  0  0  0  0  0  0
   50.8730   31.5700   42.4890 C   0  0  0  0  0  0  0  0  0  0  0  0
   50.9630   33.0850   42.3200 C   0  0  0  0  0  0  0  0  0  0  0  0
   48.3820   32.0780   41.3330 H   0  0  0  0  0  0  0  0  0  0  0  0
   48.6490   33.1350   39.9180 H   0  0  0  0  0  0  0  0  0  0  0  0
   49.6690   31.0140   39.4760 H   0  0  0  0  0  0  0  0  0  0  0  0
   50.8940   32.3010   39.5760 H   0  0  0  0  0  0  0  0  0  0  0  0
   51.7540   30.5740   40.8770 H   0  0  0  0  0  0  0  0  0  0  0  0
   51.7050   31.1830   43.0980 H   0  0  0  0  0  0  0  0  0  0  0  0
   49.9080   31.3510   43.0080 H   0  0  0  0  0  0  0  0  0  0  0  0
   51.9180   33.3580   41.8360 H   0  0  0  0  0  0  0  0  0  0  0  0
   50.9460   33.4970   43.3510 H   0  0  0  0  0  0  0  0  0  0  0  0
   45.8840   34.0220   42.5370 C   0  0  0  0  0  0  0  0  0  0  0  0
   46.3150   33.1040   42.1620 H   0  0  0  0  0  0  0  0  0  0  0  0
   44.8720   34.0900   42.0390 H   0  0  0  0  0  0  0  0  0  0  0  0
   44.6480   35.0800   45.9090 C   0  0  0  0  0  0  0  0  0  0  0  0
   44.9280   35.1110   44.5260 C   0  0  0  0  0  0  0  0  0  0  0  0
   45.5750   34.0100   44.0060 C   0  0  0  0  0  0  0  0  0  0  0  0
   45.9090   32.9730   44.8110 N   0  0  0  0  0  0  0  0  0  0  0  0
   45.6340   32.9680   46.1070 C   0  0  0  0  0  0  0  0  0  0  0  0
   45.0120   34.0060   46.6540 N   0  0  0  0  0  0  0  0  0  0  0  0
   44.1380   35.9280   46.3620 H   0  0  0  0  0  0  0  0  0  0  0  0
   44.6530   35.9480   43.9060 H   0  0  0  0  0  0  0  0  0  0  0  0
   47.6050   30.9380   45.2860 O   0  0  0  0  0  0  0  0  0  0  0  0
   47.2520   31.1370   46.4910 C   0  0  0  0  0  0  0  0  0  0  0  0
   46.0150   31.8120   46.9620 C   0  0  1  0  0  3  0  0  0  0  0  0
   46.3040   32.2780   48.3540 C   0  0  0  0  0  3  0  0  0  0  0  0
   46.2940   33.3840   48.4650 H   0  0  0  0  0  0  0  0  0  0  0  0
   47.6540   31.7030   48.6900 C   0  0  0  0  0  3  0  0  0  0  0  0
   47.6390   31.1760   49.6580 H   0  0  0  0  0  0  0  0  0  0  0  0
   47.9790   30.7510   47.6410 N   0  0  0  0  0  0  0  0  0  0  0  0
   48.6290   29.9400   47.7400 H   0  0  0  0  0  0  0  0  0  0  0  0
  1 26  1  0  0  0  0
  1  2  1  0  0  0  0
  3  1  1  0  0  0  0
  4  7  1  6  0  0  0
  4  5  1  0  0  0  0
  4  1  1  0  0  0  0
  4  6  1  0  0  0  0
  5  8  1  0  0  0  0
  5  6  1  0  0  0  0
  6 10  1  1  0  0  0
  9  5  1  0  0  0  0
 11  6  1  0  0  0  0
 11 16  1  0  0  0  0
 12 17  1  0  0  0  0
 12 11  1  0  0  0  0
 13 12  1  0  0  0  0
 13 14  1  0  0  0  0
 14 15  1  0  0  0  0
 15 23  1  0  0  0  0
 15 22  1  0  0  0  0
 16 15  1  0  0  0  0
 16 25  1  0  0  0  0
 18 12  1  0  0  0  0
 19 13  1  0  0  0  0
 20 13  1  0  0  0  0
 21 14  1  0  0  0  0
 24 16  1  0  0  0  0
 26 31  1  0  0  0  0
 27 26  1  0  0  0  0
 28 26  1  0  0  0  0
 29 35  1  0  0  0  0
 29 34  1  0  0  0  0
 30 29  2  0  0  0  0
 31 30  1  0  0  0  0
 31 32  2  0  0  0  0
 32 33  1  0  0  0  0
 33 34  2  0  0  0  0
 36 30  1  0  0  0  0
 37 38  2  0  0  0  0
 38 39  1  0  0  0  0
 38 44  1  0  0  0  0
 39 33  1  6  0  0  0
 39 40  1  0  0  0  0
 40 41  1  0  0  0  0
 40 42  1  0  0  0  0
 42 43  1  0  0  0  0
 44 45  1  0  0  0  0
 44 42  1  0  0  0  0
M  END
>  <minimizedAffinity>
-5.45330667

>  <minimizedRMSD>
1.53945959

$$$$
