
 OpenBabel03242523193D

 37 40  0  0  1  0  0  0  0  0999 V2000
   44.8290   31.4740   42.9160 Cl  0  0  0  0  0  0  0  0  0  0  0  0
   44.7780   33.2330   42.9020 C   0  0  0  0  0  0  0  0  0  0  0  0
   45.7360   33.8720   43.7170 C   0  0  0  0  0  0  0  0  0  0  0  0
   45.6170   35.2500   43.6170 C   0  0  0  0  0  0  0  0  0  0  0  0
   44.7670   35.9890   42.8920 C   0  0  0  0  0  0  0  0  0  0  0  0
   43.8760   35.2920   42.1340 C   0  0  0  0  0  0  0  0  0  0  0  0
   43.8590   33.9330   42.1220 C   0  0  0  0  0  0  0  0  0  0  0  0
   46.2760   35.9060   44.2250 H   0  0  0  0  0  0  0  0  0  0  0  0
   44.7210   37.0660   42.8500 H   0  0  0  0  0  0  0  0  0  0  0  0
   43.1110   35.7130   41.4820 H   0  0  0  0  0  0  0  0  0  0  0  0
   41.7160   34.8960   40.1680 O   0  0  0  0  0  0  0  0  0  0  0  0
   41.7030   33.8770   40.9400 C   0  0  0  0  0  0  0  0  0  0  0  0
   42.9240   33.0840   41.3290 C   0  0  2  0  0  3  0  0  0  0  0  0
   42.3300   31.9460   42.0560 C   0  0  0  0  0  3  0  0  0  0  0  0
   42.2970   32.0440   43.1590 H   0  0  0  0  0  0  0  0  0  0  0  0
   40.8650   31.8610   41.6550 C   0  0  0  0  0  3  0  0  0  0  0  0
   40.8010   31.4280   40.6190 H   0  0  0  0  0  0  0  0  0  0  0  0
   40.5490   33.2940   41.5830 N   0  0  0  0  0  0  0  0  0  0  0  0
   39.7190   33.8480   41.8930 H   0  0  0  0  0  0  0  0  0  0  0  0
   46.7550   33.2100   44.5700 C   0  0  0  0  0  0  0  0  0  0  0  0
   46.2570   33.4520   45.6420 O   0  0  0  0  0  0  0  0  0  0  0  0
   47.7940   32.6320   43.7060 C   0  0  0  0  0  0  0  0  0  0  0  0
   48.5670   33.2980   42.8370 C   0  0  0  0  0  0  0  0  0  0  0  0
   49.3900   32.4920   42.0750 C   0  0  0  0  0  0  0  0  0  0  0  0
   49.3500   31.1040   42.2760 N   0  0  0  0  0  0  0  0  0  0  0  0
   48.5670   30.5240   43.1510 C   0  0  0  0  0  0  0  0  0  0  0  0
   47.7270   31.2930   43.9310 N   0  0  0  0  0  0  0  0  0  0  0  0
   50.0780   32.8660   41.3210 H   0  0  0  0  0  0  0  0  0  0  0  0
   48.6510   29.4430   43.1920 H   0  0  0  0  0  0  0  0  0  0  0  0
   48.6920   34.7050   42.7180 C   0  0  0  0  0  0  0  0  0  0  0  0
   49.6840   35.4220   42.1230 C   0  0  0  0  0  0  0  0  0  0  0  0
   48.4470   35.3220   41.2720 C   0  0  0  0  0  0  0  0  0  0  0  0
   48.2150   35.2730   43.5400 H   0  0  0  0  0  0  0  0  0  0  0  0
   50.5680   34.8890   41.6620 H   0  0  0  0  0  0  0  0  0  0  0  0
   49.9820   36.4840   42.2730 H   0  0  0  0  0  0  0  0  0  0  0  0
   47.7050   36.1300   41.2720 H   0  0  0  0  0  0  0  0  0  0  0  0
   48.4090   34.5420   40.4790 H   0  0  0  0  0  0  0  0  0  0  0  0
  2  1  1  0  0  0  0
  2  3  1  0  0  0  0
  3 20  1  0  0  0  0
  4  3  2  0  0  0  0
  4  8  1  0  0  0  0
  5  4  1  0  0  0  0
  6  5  2  0  0  0  0
  7  6  1  0  0  0  0
  7  2  2  0  0  0  0
  9  5  1  0  0  0  0
 10  6  1  0  0  0  0
 11 12  2  0  0  0  0
 12 13  1  0  0  0  0
 12 18  1  0  0  0  0
 13 14  1  0  0  0  0
 13  7  1  1  0  0  0
 14 15  1  0  0  0  0
 16 14  1  0  0  0  0
 17 16  1  0  0  0  0
 18 16  1  0  0  0  0
 18 19  1  0  0  0  0
 20 21  2  0  0  0  0
 22 27  1  0  0  0  0
 22 20  1  0  0  0  0
 23 22  2  0  0  0  0
 24 25  2  0  0  0  0
 24 23  1  0  0  0  0
 25 26  1  0  0  0  0
 26 29  1  0  0  0  0
 26 27  2  0  0  0  0
 28 24  1  0  0  0  0
 30 23  1  0  0  0  0
 30 33  1  0  0  0  0
 31 35  1  0  0  0  0
 31 30  1  0  0  0  0
 32 31  1  0  0  0  0
 32 30  1  0  0  0  0
 34 31  1  0  0  0  0
 36 32  1  0  0  0  0
 37 32  1  0  0  0  0
M  END
>  <minimizedAffinity>
-5.6895237

>  <minimizedRMSD>
1.70717561

$$$$
