
 OpenBabel03252508373D

 41 44  0  0  1  0  0  0  0  0999 V2000
   45.2510   33.9570   40.6670 C   0  0  0  0  0  0  0  0  0  0  0  0
   44.2000   33.6390   39.8540 C   0  0  0  0  0  0  0  0  0  0  0  0
   44.5030   33.1460   38.6180 C   0  0  0  0  0  0  0  0  0  0  0  0
   45.7850   32.9570   38.1550 C   0  0  0  0  0  0  0  0  0  0  0  0
   46.8130   33.2890   39.0040 C   0  0  0  0  0  0  0  0  0  0  0  0
   46.5750   33.7890   40.2610 C   0  0  0  0  0  0  0  0  0  0  0  0
   43.6850   32.8880   37.9550 H   0  0  0  0  0  0  0  0  0  0  0  0
   45.9510   32.5610   37.1600 H   0  0  0  0  0  0  0  0  0  0  0  0
   47.8200   33.1380   38.6370 H   0  0  0  0  0  0  0  0  0  0  0  0
   40.9030   35.2160   40.7730 C   0  0  0  0  0  0  0  0  0  0  0  0
   42.2050   35.0750   40.2410 C   0  0  0  0  0  0  0  0  0  0  0  0
   42.8690   33.8530   40.3750 C   0  0  0  0  0  0  0  0  0  0  0  0
   42.1770   32.8790   41.0290 N   0  0  0  0  0  0  0  0  0  0  0  0
   40.9490   33.0350   41.5220 C   0  0  0  0  0  0  0  0  0  0  0  0
   40.3170   34.2050   41.3920 N   0  0  0  0  0  0  0  0  0  0  0  0
   40.2840   36.4870   40.6020 N   0  0  0  0  0  0  0  0  0  0  0  0
   42.7500   35.8470   39.7250 H   0  0  0  0  0  0  0  0  0  0  0  0
   40.4180   32.2480   42.0370 H   0  0  0  0  0  0  0  0  0  0  0  0
   40.0730   36.7520   39.6140 H   0  0  0  0  0  0  0  0  0  0  0  0
   40.0390   37.1460   41.3930 H   0  0  0  0  0  0  0  0  0  0  0  0
   47.7270   34.1100   41.0800 C   0  0  0  0  0  0  0  0  0  0  0  0
   48.1810   35.4150   40.9800 C   0  0  0  0  0  0  0  0  0  0  0  0
   49.2740   35.9090   41.6890 C   0  0  0  0  0  0  0  0  0  0  0  0
   49.9270   35.0300   42.5350 C   0  0  0  0  0  0  0  0  0  0  0  0
   49.4870   33.7260   42.6450 C   0  0  0  0  0  0  0  0  0  0  0  0
   48.3930   33.2610   41.9250 C   0  0  0  0  0  0  0  0  0  0  0  0
   47.7070   36.1450   40.3340 H   0  0  0  0  0  0  0  0  0  0  0  0
   49.6000   36.9350   41.5860 H   0  0  0  0  0  0  0  0  0  0  0  0
   50.7820   35.3490   43.1150 H   0  0  0  0  0  0  0  0  0  0  0  0
   50.0240   33.0790   43.3140 H   0  0  0  0  0  0  0  0  0  0  0  0
   46.8010   32.4150   44.1600 O   0  0  0  0  0  0  0  0  0  0  0  0
   46.8800   31.7100   43.0970 C   0  0  0  0  0  0  0  0  0  0  0  0
   47.9130   31.8860   42.0260 C   0  0  1  0  0  3  0  0  0  0  0  0
   47.1900   31.3930   40.8070 C   0  0  0  0  0  3  0  0  0  0  0  0
   46.9620   32.2680   40.1690 H   0  0  0  0  0  0  0  0  0  0  0  0
   45.9630   30.6600   41.2720 C   0  0  0  0  0  3  0  0  0  0  0  0
   45.0840   31.2640   40.9370 H   0  0  0  0  0  0  0  0  0  0  0  0
   46.0220   30.6380   42.7210 N   0  0  0  0  0  0  0  0  0  0  0  0
   45.5480   29.9890   43.3760 H   0  0  0  0  0  0  0  0  0  0  0  0
   44.8490   34.8990   43.0860 N   0  0  0  0  0  0  0  0  0  0  0  0
   45.0240   34.4850   41.9960 C   0  0  0  0  0  0  0  0  0  0  0  0
  1 41  1  0  0  0  0
  2 12  1  0  0  0  0
  2  1  2  0  0  0  0
  3  2  1  0  0  0  0
  4  3  2  0  0  0  0
  4  5  1  0  0  0  0
  5  6  2  0  0  0  0
  6  1  1  0  0  0  0
  6 21  1  0  0  0  0
  7  3  1  0  0  0  0
  8  4  1  0  0  0  0
  9  5  1  0  0  0  0
 10 15  1  0  0  0  0
 11 12  1  0  0  0  0
 11 10  2  0  0  0  0
 12 13  2  0  0  0  0
 13 14  1  0  0  0  0
 14 18  1  0  0  0  0
 15 14  2  0  0  0  0
 16 10  1  0  0  0  0
 16 20  1  0  0  0  0
 17 11  1  0  0  0  0
 19 16  1  0  0  0  0
 21 26  1  0  0  0  0
 22 21  2  0  0  0  0
 22 23  1  0  0  0  0
 23 24  2  0  0  0  0
 24 25  1  0  0  0  0
 24 29  1  0  0  0  0
 25 30  1  0  0  0  0
 26 25  2  0  0  0  0
 27 22  1  0  0  0  0
 28 23  1  0  0  0  0
 32 31  2  0  0  0  0
 33 26  1  6  0  0  0
 33 32  1  0  0  0  0
 34 36  1  0  0  0  0
 34 33  1  0  0  0  0
 35 34  1  0  0  0  0
 36 38  1  0  0  0  0
 37 36  1  0  0  0  0
 38 32  1  0  0  0  0
 38 39  1  0  0  0  0
 41 40  3  0  0  0  0
M  END
>  <minimizedAffinity>
-6.07638788

>  <minimizedRMSD>
0.739622593

$$$$
