
 OpenBabel03252506313D

 32 34  0  0  1  0  0  0  0  0999 V2000
   44.4900   35.6960   45.0390 C   0  0  0  0  0  0  0  0  0  0  0  0
   45.1450   35.6190   43.7980 C   0  0  0  0  0  0  0  0  0  0  0  0
   46.0550   34.5870   43.5820 C   0  0  0  0  0  0  0  0  0  0  0  0
   46.2440   33.7180   44.6010 N   0  0  0  0  0  0  0  0  0  0  0  0
   45.6140   33.8050   45.7700 C   0  0  0  0  0  0  0  0  0  0  0  0
   44.7400   34.7830   46.0020 N   0  0  0  0  0  0  0  0  0  0  0  0
   45.8750   32.8360   46.7680 N   0  0  0  0  0  0  0  0  0  0  0  0
   45.0320   32.5670   47.9250 C   0  0  0  0  0  0  0  0  0  0  0  0
   46.0760   32.2360   48.9720 C   0  0  0  0  0  0  0  0  0  0  0  0
   47.3860   32.0390   48.2680 C   0  0  0  0  0  0  0  0  0  0  0  0
   47.0150   31.9270   46.8400 C   0  0  1  0  0  0  0  0  0  0  0  0
   43.7780   36.4660   45.2640 H   0  0  0  0  0  0  0  0  0  0  0  0
   46.5200   34.5770   42.6340 H   0  0  0  0  0  0  0  0  0  0  0  0
   44.4250   33.4600   48.1870 H   0  0  0  0  0  0  0  0  0  0  0  0
   44.3190   31.7380   47.7530 H   0  0  0  0  0  0  0  0  0  0  0  0
   45.7800   31.3380   49.5760 H   0  0  0  0  0  0  0  0  0  0  0  0
   46.1180   33.0840   49.6970 H   0  0  0  0  0  0  0  0  0  0  0  0
   47.8530   31.0720   48.6160 H   0  0  0  0  0  0  0  0  0  0  0  0
   48.1130   32.8710   48.4620 H   0  0  0  0  0  0  0  0  0  0  0  0
   47.8110   32.3250   46.1800 H   0  0  0  0  0  0  0  0  0  0  0  0
   46.3620   30.6560   44.0840 O   0  0  0  0  0  0  0  0  0  0  0  0
   47.1280   30.2850   45.0190 C   0  0  0  0  0  0  0  0  0  0  0  0
   46.6590   30.5390   46.3940 C   0  0  1  0  0  3  0  0  0  0  0  0
   47.5450   29.5880   47.2040 C   0  0  0  0  0  3  0  0  0  0  0  0
   47.7860   30.0250   48.1890 H   0  0  0  0  0  0  0  0  0  0  0  0
   48.8460   29.5090   46.4210 C   0  0  0  0  0  3  0  0  0  0  0  0
   49.3720   28.5590   46.5530 H   0  0  0  0  0  0  0  0  0  0  0  0
   48.4160   29.6370   45.0380 N   0  0  0  0  0  0  0  0  0  0  0  0
   48.7880   29.3910   44.0950 H   0  0  0  0  0  0  0  0  0  0  0  0
   44.7790   36.6440   42.8670 N   0  0  0  0  0  0  0  0  0  0  0  0
   43.9820   36.2020   42.3480 H   0  0  0  0  0  0  0  0  0  0  0  0
   45.3000   37.5610   42.8530 H   0  0  0  0  0  0  0  0  0  0  0  0
  1 12  1  0  0  0  0
  1  6  1  0  0  0  0
  2  1  2  0  0  0  0
  3  2  1  0  0  0  0
  3  4  2  0  0  0  0
  4  5  1  0  0  0  0
  5  6  2  0  0  0  0
  5  7  1  0  0  0  0
  7 11  1  0  0  0  0
  7  8  1  0  0  0  0
  8 14  1  0  0  0  0
  8  9  1  0  0  0  0
  9 16  1  0  0  0  0
  9 17  1  0  0  0  0
 10 19  1  0  0  0  0
 10 18  1  0  0  0  0
 10  9  1  0  0  0  0
 11 20  1  6  0  0  0
 11 10  1  0  0  0  0
 13  3  1  0  0  0  0
 15  8  1  0  0  0  0
 21 22  2  0  0  0  0
 22 28  1  0  0  0  0
 23 22  1  6  0  0  0
 23 11  1  0  0  0  0
 23 24  1  0  0  0  0
 24 25  1  0  0  0  0
 26 27  1  0  0  0  0
 26 24  1  0  0  0  0
 28 26  1  0  0  0  0
 29 28  1  0  0  0  0
 30  2  1  0  0  0  0
 31 30  1  0  0  0  0
 32 30  1  0  0  0  0
M  END
>  <minimizedAffinity>
-5.38403463

>  <minimizedRMSD>
2.04030013

$$$$
