
 OpenBabel03242523193D

 37 40  0  0  1  0  0  0  0  0999 V2000
   44.4610   31.8380   42.8110 Cl  0  0  0  0  0  0  0  0  0  0  0  0
   44.5950   33.5920   42.7690 C   0  0  0  0  0  0  0  0  0  0  0  0
   45.5610   34.1450   43.6360 C   0  0  0  0  0  0  0  0  0  0  0  0
   45.5950   35.5250   43.5090 C   0  0  0  0  0  0  0  0  0  0  0  0
   44.8750   36.3340   42.7190 C   0  0  0  0  0  0  0  0  0  0  0  0
   43.9660   35.7170   41.9140 C   0  0  0  0  0  0  0  0  0  0  0  0
   43.8060   34.3670   41.9200 C   0  0  0  0  0  0  0  0  0  0  0  0
   46.2790   36.1220   44.1490 H   0  0  0  0  0  0  0  0  0  0  0  0
   44.9450   37.4090   42.6590 H   0  0  0  0  0  0  0  0  0  0  0  0
   43.2930   36.2020   41.2080 H   0  0  0  0  0  0  0  0  0  0  0  0
   44.1970   33.4850   39.0210 O   0  0  0  0  0  0  0  0  0  0  0  0
   43.1240   33.8390   39.6190 C   0  0  0  0  0  0  0  0  0  0  0  0
   42.8400   33.6030   41.0800 C   0  0  2  0  0  3  0  0  0  0  0  0
   41.4320   34.0260   41.1910 C   0  0  0  0  0  3  0  0  0  0  0  0
   41.2670   35.0650   41.5380 H   0  0  0  0  0  0  0  0  0  0  0  0
   40.8400   34.0120   39.7900 C   0  0  0  0  0  3  0  0  0  0  0  0
   40.6520   32.9460   39.4870 H   0  0  0  0  0  0  0  0  0  0  0  0
   41.9920   34.5190   39.0330 N   0  0  0  0  0  0  0  0  0  0  0  0
   42.0740   35.2040   38.2470 H   0  0  0  0  0  0  0  0  0  0  0  0
   46.4490   33.3990   44.5630 C   0  0  0  0  0  0  0  0  0  0  0  0
   45.9060   33.7050   45.5970 O   0  0  0  0  0  0  0  0  0  0  0  0
   47.4810   32.7060   43.7780 C   0  0  0  0  0  0  0  0  0  0  0  0
   48.3640   33.2760   42.9470 C   0  0  0  0  0  0  0  0  0  0  0  0
   49.1540   32.3800   42.2550 C   0  0  0  0  0  0  0  0  0  0  0  0
   48.9740   31.0060   42.4800 N   0  0  0  0  0  0  0  0  0  0  0  0
   48.0880   30.5230   43.3160 C   0  0  0  0  0  0  0  0  0  0  0  0
   47.2760   31.3850   44.0250 N   0  0  0  0  0  0  0  0  0  0  0  0
   49.9190   32.6700   41.5390 H   0  0  0  0  0  0  0  0  0  0  0  0
   48.0690   29.4400   43.3820 H   0  0  0  0  0  0  0  0  0  0  0  0
   48.6260   34.6630   42.8090 C   0  0  0  0  0  0  0  0  0  0  0  0
   49.7010   35.2710   42.2380 C   0  0  0  0  0  0  0  0  0  0  0  0
   48.4900   35.2710   41.3450 C   0  0  0  0  0  0  0  0  0  0  0  0
   48.1780   35.2900   43.6040 H   0  0  0  0  0  0  0  0  0  0  0  0
   50.5460   34.6480   41.8180 H   0  0  0  0  0  0  0  0  0  0  0  0
   50.0930   36.3040   42.3800 H   0  0  0  0  0  0  0  0  0  0  0  0
   47.8280   36.1450   41.3050 H   0  0  0  0  0  0  0  0  0  0  0  0
   48.4040   34.4820   40.5650 H   0  0  0  0  0  0  0  0  0  0  0  0
  2  1  1  0  0  0  0
  2  3  1  0  0  0  0
  3 20  1  0  0  0  0
  4  3  2  0  0  0  0
  4  8  1  0  0  0  0
  5  4  1  0  0  0  0
  6  7  1  0  0  0  0
  6  5  2  0  0  0  0
  7  2  2  0  0  0  0
  9  5  1  0  0  0  0
 10  6  1  0  0  0  0
 11 12  2  0  0  0  0
 12 13  1  0  0  0  0
 13 14  1  0  0  0  0
 13  7  1  1  0  0  0
 14 15  1  0  0  0  0
 16 14  1  0  0  0  0
 17 16  1  0  0  0  0
 18 12  1  0  0  0  0
 18 16  1  0  0  0  0
 19 18  1  0  0  0  0
 20 21  2  0  0  0  0
 22 27  1  0  0  0  0
 22 20  1  0  0  0  0
 23 22  2  0  0  0  0
 24 25  2  0  0  0  0
 24 23  1  0  0  0  0
 25 26  1  0  0  0  0
 26 29  1  0  0  0  0
 26 27  2  0  0  0  0
 28 24  1  0  0  0  0
 30 23  1  0  0  0  0
 30 33  1  0  0  0  0
 31 35  1  0  0  0  0
 31 30  1  0  0  0  0
 32 31  1  0  0  0  0
 32 30  1  0  0  0  0
 34 31  1  0  0  0  0
 36 32  1  0  0  0  0
 37 32  1  0  0  0  0
M  END
>  <minimizedAffinity>
-5.66804028

>  <minimizedRMSD>
1.78696537

$$$$
