
 OpenBabel03252500173D

 20 21  0  0  1  0  0  0  0  0999 V2000
   44.6140   35.9750   44.5340 C   0  0  0  0  0  0  0  0  0  0  0  0
   45.5130   35.4780   43.5900 C   0  0  0  0  0  0  0  0  0  0  0  0
   46.2190   34.3220   43.9430 C   0  0  0  0  0  0  0  0  0  0  0  0
   46.0020   33.7450   45.1650 N   0  0  0  0  0  0  0  0  0  0  0  0
   45.1190   34.2760   46.0350 C   0  0  0  0  0  0  0  0  0  0  0  0
   44.4150   35.4030   45.7150 N   0  0  0  0  0  0  0  0  0  0  0  0
   44.8760   33.6900   47.3150 N   0  0  0  0  0  0  0  0  0  0  0  0
   44.0560   36.8700   44.2820 H   0  0  0  0  0  0  0  0  0  0  0  0
   45.6970   35.9200   42.6200 H   0  0  0  0  0  0  0  0  0  0  0  0
   44.5350   32.7090   47.1800 H   0  0  0  0  0  0  0  0  0  0  0  0
   45.0090   34.1440   48.2520 H   0  0  0  0  0  0  0  0  0  0  0  0
   45.9290   34.2850   40.8740 O   0  0  0  0  0  0  0  0  0  0  0  0
   46.6880   33.6330   41.6570 C   0  0  0  0  0  0  0  0  0  0  0  0
   47.2070   33.6750   43.0490 C   0  0  2  0  0  3  0  0  0  0  0  0
   47.4310   32.2250   43.3900 C   0  0  0  0  0  3  0  0  0  0  0  0
   46.5700   31.8080   43.9740 H   0  0  0  0  0  0  0  0  0  0  0  0
   47.6210   31.4950   42.0970 C   0  0  0  0  0  3  0  0  0  0  0  0
   46.9250   30.6300   41.9790 H   0  0  0  0  0  0  0  0  0  0  0  0
   47.2650   32.4550   41.0600 N   0  0  0  0  0  0  0  0  0  0  0  0
   47.4770   32.1490   40.0690 H   0  0  0  0  0  0  0  0  0  0  0  0
  1  6  1  0  0  0  0
  2  3  1  0  0  0  0
  2  1  2  0  0  0  0
  3  4  2  0  0  0  0
  4  5  1  0  0  0  0
  5  7  1  0  0  0  0
  6  5  2  0  0  0  0
  7 11  1  0  0  0  0
  8  1  1  0  0  0  0
  9  2  1  0  0  0  0
 10  7  1  0  0  0  0
 12 13  2  0  0  0  0
 13 14  1  0  0  0  0
 14 15  1  0  0  0  0
 14  3  1  1  0  0  0
 15 16  1  0  0  0  0
 17 15  1  0  0  0  0
 18 17  1  0  0  0  0
 19 13  1  0  0  0  0
 19 17  1  0  0  0  0
 20 19  1  0  0  0  0
M  END
>  <minimizedAffinity>
-4.24889994

>  <minimizedRMSD>
0.60194695

$$$$
