
 OpenBabel03252503553D

 20 21  0  0  1  0  0  0  0  0999 V2000
   46.4030   34.6940   43.2270 C   0  0  0  0  0  0  0  0  0  0  0  0
   45.3170   35.5320   43.5320 C   0  0  0  0  0  0  0  0  0  0  0  0
   44.7110   35.3550   44.7770 C   0  0  0  0  0  0  0  0  0  0  0  0
   45.2000   34.3890   45.6140 N   0  0  0  0  0  0  0  0  0  0  0  0
   46.2460   33.6140   45.2660 C   0  0  0  0  0  0  0  0  0  0  0  0
   46.8420   33.7660   44.0800 N   0  0  0  0  0  0  0  0  0  0  0  0
   44.9130   36.2940   42.9000 H   0  0  0  0  0  0  0  0  0  0  0  0
   43.8750   35.9530   45.0920 H   0  0  0  0  0  0  0  0  0  0  0  0
   44.7280   33.2360   47.8660 O   0  0  0  0  0  0  0  0  0  0  0  0
   45.6760   32.5250   47.4000 C   0  0  0  0  0  0  0  0  0  0  0  0
   46.6540   32.6130   46.2900 C   0  0  1  0  0  0  0  0  0  0  0  0
   46.7040   31.2110   45.7870 C   0  0  0  0  0  0  0  0  0  0  0  0
   47.6910   31.0640   45.2830 H   0  0  0  0  0  0  0  0  0  0  0  0
   46.6010   30.3920   47.0540 C   0  0  0  0  0  0  0  0  0  0  0  0
   45.9980   29.4760   46.8870 H   0  0  0  0  0  0  0  0  0  0  0  0
   45.9900   31.2820   48.0200 N   0  0  0  0  0  0  0  0  0  0  0  0
   45.8680   30.9010   49.0050 H   0  0  0  0  0  0  0  0  0  0  0  0
   46.9750   34.9290   41.9410 C   0  0  0  0  0  0  0  0  0  0  0  0
   48.1210   35.4210   41.6960 O   0  0  0  0  0  0  0  0  0  0  0  0
   46.6100   34.7610   40.9340 H   0  0  0  0  0  0  0  0  0  0  0  0
  1  2  2  0  0  0  0
  1  6  1  0  0  0  0
  2  3  1  0  0  0  0
  3  8  1  0  0  0  0
  3  4  2  0  0  0  0
  5  4  1  0  0  0  0
  6  5  2  0  0  0  0
  7  2  1  0  0  0  0
 10  9  2  0  0  0  0
 10 16  1  0  0  0  0
 11  5  1  6  0  0  0
 11 10  1  0  0  0  0
 12 11  1  0  0  0  0
 12 14  1  0  0  0  0
 13 12  1  0  0  0  0
 14 16  1  0  0  0  0
 15 14  1  0  0  0  0
 16 17  1  0  0  0  0
 18  1  1  0  0  0  0
 19 18  2  0  0  0  0
 20 18  1  0  0  0  0
M  END
>  <minimizedAffinity>
-4.31421185

>  <minimizedRMSD>
1.0172298

$$$$
