
 OpenBabel03242523193D

 37 40  0  0  1  0  0  0  0  0999 V2000
   44.8200   31.5310   42.9590 Cl  0  0  0  0  0  0  0  0  0  0  0  0
   44.7690   33.2890   42.9010 C   0  0  0  0  0  0  0  0  0  0  0  0
   45.7170   33.9490   43.7110 C   0  0  0  0  0  0  0  0  0  0  0  0
   45.6000   35.3230   43.5760 C   0  0  0  0  0  0  0  0  0  0  0  0
   44.7580   36.0440   42.8220 C   0  0  0  0  0  0  0  0  0  0  0  0
   43.8770   35.3290   42.0710 C   0  0  0  0  0  0  0  0  0  0  0  0
   43.8590   33.9690   42.0930 C   0  0  0  0  0  0  0  0  0  0  0  0
   46.2520   35.9950   44.1740 H   0  0  0  0  0  0  0  0  0  0  0  0
   44.7130   37.1200   42.7520 H   0  0  0  0  0  0  0  0  0  0  0  0
   43.1200   35.7330   41.4000 H   0  0  0  0  0  0  0  0  0  0  0  0
   41.6850   34.8880   40.1530 O   0  0  0  0  0  0  0  0  0  0  0  0
   41.6960   33.8710   40.9290 C   0  0  0  0  0  0  0  0  0  0  0  0
   42.9340   33.1010   41.3110 C   0  0  2  0  0  3  0  0  0  0  0  0
   42.3670   31.9550   42.0460 C   0  0  0  0  0  3  0  0  0  0  0  0
   42.3400   32.0560   43.1480 H   0  0  0  0  0  0  0  0  0  0  0  0
   40.9010   31.8420   41.6560 C   0  0  0  0  0  3  0  0  0  0  0  0
   40.8340   31.4040   40.6220 H   0  0  0  0  0  0  0  0  0  0  0  0
   40.5580   33.2690   41.5820 N   0  0  0  0  0  0  0  0  0  0  0  0
   39.7200   33.8100   41.8980 H   0  0  0  0  0  0  0  0  0  0  0  0
   46.7270   33.3090   44.5920 C   0  0  0  0  0  0  0  0  0  0  0  0
   46.2180   33.5790   45.6520 O   0  0  0  0  0  0  0  0  0  0  0  0
   47.7740   32.7070   43.7550 C   0  0  0  0  0  0  0  0  0  0  0  0
   48.5500   33.3460   42.8700 C   0  0  0  0  0  0  0  0  0  0  0  0
   49.3820   32.5200   42.1410 C   0  0  0  0  0  0  0  0  0  0  0  0
   49.3470   31.1380   42.3880 N   0  0  0  0  0  0  0  0  0  0  0  0
   48.5600   30.5850   43.2760 C   0  0  0  0  0  0  0  0  0  0  0  0
   47.7110   31.3750   44.0240 N   0  0  0  0  0  0  0  0  0  0  0  0
   50.0740   32.8710   41.3790 H   0  0  0  0  0  0  0  0  0  0  0  0
   48.6480   29.5060   43.3530 H   0  0  0  0  0  0  0  0  0  0  0  0
   48.6710   34.7500   42.7050 C   0  0  0  0  0  0  0  0  0  0  0  0
   49.6690   35.4520   42.1030 C   0  0  0  0  0  0  0  0  0  0  0  0
   48.4480   35.3160   41.2350 C   0  0  0  0  0  0  0  0  0  0  0  0
   48.1770   35.3420   43.4990 H   0  0  0  0  0  0  0  0  0  0  0  0
   50.5640   34.9080   41.6750 H   0  0  0  0  0  0  0  0  0  0  0  0
   49.9590   36.5200   42.2210 H   0  0  0  0  0  0  0  0  0  0  0  0
   47.7010   36.1190   41.1950 H   0  0  0  0  0  0  0  0  0  0  0  0
   48.4270   34.5090   40.4690 H   0  0  0  0  0  0  0  0  0  0  0  0
  2  1  1  0  0  0  0
  2  3  1  0  0  0  0
  3 20  1  0  0  0  0
  4  3  2  0  0  0  0
  4  8  1  0  0  0  0
  5  4  1  0  0  0  0
  6  7  1  0  0  0  0
  6  5  2  0  0  0  0
  7  2  2  0  0  0  0
  9  5  1  0  0  0  0
 10  6  1  0  0  0  0
 11 12  2  0  0  0  0
 12 13  1  0  0  0  0
 12 18  1  0  0  0  0
 13 14  1  0  0  0  0
 13  7  1  1  0  0  0
 14 15  1  0  0  0  0
 16 14  1  0  0  0  0
 17 16  1  0  0  0  0
 18 16  1  0  0  0  0
 18 19  1  0  0  0  0
 20 21  2  0  0  0  0
 22 27  1  0  0  0  0
 22 20  1  0  0  0  0
 23 22  2  0  0  0  0
 24 25  2  0  0  0  0
 24 23  1  0  0  0  0
 25 26  1  0  0  0  0
 26 29  1  0  0  0  0
 26 27  2  0  0  0  0
 28 24  1  0  0  0  0
 30 23  1  0  0  0  0
 30 33  1  0  0  0  0
 31 35  1  0  0  0  0
 31 30  1  0  0  0  0
 32 31  1  0  0  0  0
 32 30  1  0  0  0  0
 34 31  1  0  0  0  0
 36 32  1  0  0  0  0
 37 32  1  0  0  0  0
M  END
>  <minimizedAffinity>
-5.74398279

>  <minimizedRMSD>
1.28210795

$$$$
