
 OpenBabel03252500183D

 20 21  0  0  1  0  0  0  0  0999 V2000
   44.7930   35.9970   44.0640 C   0  0  0  0  0  0  0  0  0  0  0  0
   45.6370   35.2070   43.2830 C   0  0  0  0  0  0  0  0  0  0  0  0
   46.1350   34.0420   43.8780 C   0  0  0  0  0  0  0  0  0  0  0  0
   45.7810   33.7370   45.1640 N   0  0  0  0  0  0  0  0  0  0  0  0
   44.9610   34.5430   45.8680 C   0  0  0  0  0  0  0  0  0  0  0  0
   44.4600   35.6860   45.3110 N   0  0  0  0  0  0  0  0  0  0  0  0
   44.5790   34.2440   47.2110 N   0  0  0  0  0  0  0  0  0  0  0  0
   44.3950   36.9040   43.6240 H   0  0  0  0  0  0  0  0  0  0  0  0
   45.9260   35.4330   42.2650 H   0  0  0  0  0  0  0  0  0  0  0  0
   44.0920   33.3170   47.2270 H   0  0  0  0  0  0  0  0  0  0  0  0
   44.7470   34.8360   48.0620 H   0  0  0  0  0  0  0  0  0  0  0  0
   48.9950   34.8020   43.0130 O   0  0  0  0  0  0  0  0  0  0  0  0
   48.2540   33.8170   42.7030 C   0  0  0  0  0  0  0  0  0  0  0  0
   47.0400   33.1020   43.1770 C   0  0  2  0  0  3  0  0  0  0  0  0
   46.4330   32.5530   41.9130 C   0  0  0  0  0  3  0  0  0  0  0  0
   45.6100   33.2130   41.5360 H   0  0  0  0  0  0  0  0  0  0  0  0
   47.5420   32.4340   40.9130 C   0  0  0  0  0  3  0  0  0  0  0  0
   47.3210   32.9590   39.9530 H   0  0  0  0  0  0  0  0  0  0  0  0
   48.6750   33.1260   41.5100 N   0  0  0  0  0  0  0  0  0  0  0  0
   49.5930   33.0190   40.9950 H   0  0  0  0  0  0  0  0  0  0  0  0
  1  6  1  0  0  0  0
  2  3  1  0  0  0  0
  2  1  2  0  0  0  0
  3  4  2  0  0  0  0
  4  5  1  0  0  0  0
  5  7  1  0  0  0  0
  6  5  2  0  0  0  0
  7 10  1  0  0  0  0
  7 11  1  0  0  0  0
  8  1  1  0  0  0  0
  9  2  1  0  0  0  0
 13 12  2  0  0  0  0
 13 14  1  0  0  0  0
 14  3  1  6  0  0  0
 15 14  1  0  0  0  0
 16 15  1  0  0  0  0
 17 19  1  0  0  0  0
 17 15  1  0  0  0  0
 18 17  1  0  0  0  0
 19 13  1  0  0  0  0
 20 19  1  0  0  0  0
M  END
>  <minimizedAffinity>
-4.42585754

>  <minimizedRMSD>
1.15350437

$$$$
