
 OpenBabel03252509333D

 40 42  0  0  1  0  0  0  0  0999 V2000
   45.0650   32.8170   41.7470 C   0  0  1  0  0  0  0  0  0  0  0  0
   46.3680   32.0280   41.7220 C   0  0  0  0  0  0  0  0  0  0  0  0
   46.1620   31.0370   42.8260 C   0  0  0  0  0  0  0  0  0  0  0  0
   45.1800   31.6570   43.7790 C   0  0  0  0  0  0  0  0  0  0  0  0
   44.9210   33.0660   43.2240 C   0  0  1  0  0  0  0  0  0  0  0  0
   44.2420   32.1250   41.4590 H   0  0  0  0  0  0  0  0  0  0  0  0
   47.2460   32.6680   41.8320 H   0  0  0  0  0  0  0  0  0  0  0  0
   46.3630   31.4680   40.7490 H   0  0  0  0  0  0  0  0  0  0  0  0
   45.8180   30.0400   42.4800 H   0  0  0  0  0  0  0  0  0  0  0  0
   47.1540   30.9000   43.3310 H   0  0  0  0  0  0  0  0  0  0  0  0
   45.6040   31.7040   44.7940 H   0  0  0  0  0  0  0  0  0  0  0  0
   44.2430   31.0630   43.8180 H   0  0  0  0  0  0  0  0  0  0  0  0
   43.8360   33.2480   43.4200 H   0  0  0  0  0  0  0  0  0  0  0  0
   46.0810   33.4280   46.2970 O   0  0  0  0  0  0  0  0  0  0  0  0
   45.6510   34.1480   45.3300 C   0  0  0  0  0  0  0  0  0  0  0  0
   45.8090   34.0820   43.8250 C   0  0  2  0  0  3  0  0  0  0  0  0
   45.3380   35.4690   43.4500 C   0  0  0  0  0  3  0  0  0  0  0  0
   44.8600   35.5360   42.4620 H   0  0  0  0  0  0  0  0  0  0  0  0
   44.2300   35.7100   44.4820 C   0  0  0  0  0  3  0  0  0  0  0  0
   43.3930   35.0590   44.2330 H   0  0  0  0  0  0  0  0  0  0  0  0
   44.8470   35.2610   45.6970 N   0  0  0  0  0  0  0  0  0  0  0  0
   44.6720   35.7320   46.6100 H   0  0  0  0  0  0  0  0  0  0  0  0
   45.1140   33.9440   40.9710 O   0  0  0  0  0  0  0  0  0  0  0  0
   42.9290   35.0790   40.1720 O   0  0  0  0  0  0  0  0  0  0  0  0
   43.8600   33.9420   39.8650 P   0  0  1  0  0  0  0  0  0  0  0  0
   44.4470   33.9820   38.2940 O   0  0  0  0  0  0  0  0  0  0  0  0
   44.4850   34.9530   38.0320 H   0  0  0  0  0  0  0  0  0  0  0  0
   43.0150   32.4780   40.0130 O   0  0  0  0  0  0  0  0  0  0  0  0
   43.2080   31.7640   38.8650 C   0  0  0  0  0  0  0  0  0  0  0  0
   43.8550   32.1600   38.1010 H   0  0  0  0  0  0  0  0  0  0  0  0
   43.6790   30.7840   39.1770 H   0  0  0  0  0  0  0  0  0  0  0  0
   39.6020   31.7130   37.9490 C   0  0  0  0  0  0  0  0  0  0  0  0
   40.7930   32.0940   38.5740 C   0  0  0  0  0  0  0  0  0  0  0  0
   41.9410   31.3850   38.2250 C   0  0  0  0  0  0  0  0  0  0  0  0
   41.8460   30.3710   37.3070 N   0  0  0  0  0  0  0  0  0  0  0  0
   40.6700   30.0360   36.7270 C   0  0  0  0  0  0  0  0  0  0  0  0
   39.5720   30.7030   37.0520 N   0  0  0  0  0  0  0  0  0  0  0  0
   38.7140   32.2700   38.2280 H   0  0  0  0  0  0  0  0  0  0  0  0
   40.8390   32.8950   39.2920 H   0  0  0  0  0  0  0  0  0  0  0  0
   40.6390   29.2310   36.0090 H   0  0  0  0  0  0  0  0  0  0  0  0
  1  6  1  6  0  0  0
  1  5  1  0  0  0  0
  2  1  1  0  0  0  0
  2  7  1  0  0  0  0
  2  3  1  0  0  0  0
  3 10  1  0  0  0  0
  3  4  1  0  0  0  0
  4 12  1  0  0  0  0
  4 11  1  0  0  0  0
  5 13  1  1  0  0  0
  5  4  1  0  0  0  0
  5 16  1  0  0  0  0
  8  2  1  0  0  0  0
  9  3  1  0  0  0  0
 15 21  1  0  0  0  0
 15 14  2  0  0  0  0
 16 17  1  6  0  0  0
 16 15  1  0  0  0  0
 17 19  1  0  0  0  0
 18 17  1  0  0  0  0
 19 21  1  0  0  0  0
 20 19  1  0  0  0  0
 21 22  1  0  0  0  0
 23  1  1  0  0  0  0
 25 28  1  0  0  0  0
 25 24  2  1  0  0  0
 25 23  1  0  0  0  0
 26 25  1  0  0  0  0
 27 26  1  0  0  0  0
 29 31  1  0  0  0  0
 29 28  1  0  0  0  0
 30 29  1  0  0  0  0
 32 38  1  0  0  0  0
 32 33  1  0  0  0  0
 33 39  1  0  0  0  0
 34 33  2  0  0  0  0
 34 29  1  0  0  0  0
 35 34  1  0  0  0  0
 36 37  1  0  0  0  0
 36 35  2  0  0  0  0
 37 32  2  0  0  0  0
 40 36  1  0  0  0  0
M  END
>  <minimizedAffinity>
-4.03769398

>  <minimizedRMSD>
7.5374012

$$$$
