
 OpenBabel03252500173D

 20 21  0  0  1  0  0  0  0  0999 V2000
   44.8200   36.1210   43.7360 C   0  0  0  0  0  0  0  0  0  0  0  0
   45.6900   35.7740   42.7020 C   0  0  0  0  0  0  0  0  0  0  0  0
   46.4990   34.6520   42.9130 C   0  0  0  0  0  0  0  0  0  0  0  0
   46.4040   33.9620   44.0910 N   0  0  0  0  0  0  0  0  0  0  0  0
   45.5430   34.3500   45.0530 C   0  0  0  0  0  0  0  0  0  0  0  0
   44.7400   35.4410   44.8730 N   0  0  0  0  0  0  0  0  0  0  0  0
   45.4270   33.6450   46.2900 N   0  0  0  0  0  0  0  0  0  0  0  0
   44.1830   36.9870   43.5960 H   0  0  0  0  0  0  0  0  0  0  0  0
   45.7770   36.3070   41.7650 H   0  0  0  0  0  0  0  0  0  0  0  0
   45.1500   32.6540   46.0910 H   0  0  0  0  0  0  0  0  0  0  0  0
   45.5870   34.0290   47.2530 H   0  0  0  0  0  0  0  0  0  0  0  0
   49.0040   36.2460   42.0830 O   0  0  0  0  0  0  0  0  0  0  0  0
   48.4410   35.2320   41.5660 C   0  0  0  0  0  0  0  0  0  0  0  0
   47.4710   34.1590   41.9090 C   0  0  2  0  0  3  0  0  0  0  0  0
   46.8210   33.8300   40.5910 C   0  0  0  0  0  3  0  0  0  0  0  0
   45.8400   34.3560   40.4790 H   0  0  0  0  0  0  0  0  0  0  0  0
   47.7850   34.2300   39.5180 C   0  0  0  0  0  3  0  0  0  0  0  0
   47.3340   34.9200   38.7640 H   0  0  0  0  0  0  0  0  0  0  0  0
   48.8260   34.9870   40.1980 N   0  0  0  0  0  0  0  0  0  0  0  0
   49.6680   35.2310   39.6060 H   0  0  0  0  0  0  0  0  0  0  0  0
  1  6  1  0  0  0  0
  2  3  1  0  0  0  0
  2  1  2  0  0  0  0
  3  4  2  0  0  0  0
  4  5  1  0  0  0  0
  5  7  1  0  0  0  0
  6  5  2  0  0  0  0
  7 11  1  0  0  0  0
  8  1  1  0  0  0  0
  9  2  1  0  0  0  0
 10  7  1  0  0  0  0
 13 14  1  0  0  0  0
 13 12  2  0  0  0  0
 14  3  1  1  0  0  0
 15 14  1  0  0  0  0
 16 15  1  0  0  0  0
 17 19  1  0  0  0  0
 17 15  1  0  0  0  0
 18 17  1  0  0  0  0
 19 13  1  0  0  0  0
 20 19  1  0  0  0  0
M  END
>  <minimizedAffinity>
-4.84898472

>  <minimizedRMSD>
0.777882695

$$$$
