
 OpenBabel03242523093D

 45 49  0  0  1  0  0  0  0  0999 V2000
   41.7220   34.0030   40.2000 C   0  0  0  0  0  0  0  0  0  0  0  0
   40.8780   32.9440   40.4910 C   0  0  0  0  0  0  0  0  0  0  0  0
   41.2430   32.0900   41.5000 C   0  0  0  0  0  0  0  0  0  0  0  0
   42.4170   32.3180   42.1680 N   0  0  0  0  0  0  0  0  0  0  0  0
   43.2150   33.3570   41.8590 C   0  0  0  0  0  0  0  0  0  0  0  0
   42.8680   34.1830   40.8910 N   0  0  0  0  0  0  0  0  0  0  0  0
   41.4520   34.6920   39.4060 H   0  0  0  0  0  0  0  0  0  0  0  0
   44.1520   33.6050   42.3350 H   0  0  0  0  0  0  0  0  0  0  0  0
   39.7180   32.7920   39.7280 N   0  0  0  0  0  0  0  0  0  0  0  0
   39.6440   31.9340   38.6070 C   0  0  0  0  0  0  0  0  0  0  0  0
   38.2710   31.7840   38.0080 C   0  0  0  0  0  0  0  0  0  0  0  0
   37.2060   31.7200   38.9290 N   0  0  0  0  0  0  0  0  0  0  0  0
   37.2850   32.5680   40.0390 C   0  0  0  0  0  0  0  0  0  0  0  0
   38.4970   33.4760   39.9800 C   0  0  0  0  0  0  0  0  0  0  0  0
   40.2780   32.3900   37.7940 H   0  0  0  0  0  0  0  0  0  0  0  0
   40.0820   30.9220   38.7710 H   0  0  0  0  0  0  0  0  0  0  0  0
   38.0820   32.6200   37.2930 H   0  0  0  0  0  0  0  0  0  0  0  0
   38.2860   30.8480   37.3910 H   0  0  0  0  0  0  0  0  0  0  0  0
   36.3190   31.6770   38.4260 H   0  0  0  0  0  0  0  0  0  0  0  0
   37.2210   32.1230   41.0410 H   0  0  0  0  0  0  0  0  0  0  0  0
   36.4010   33.2740   39.9920 H   0  0  0  0  0  0  0  0  0  0  0  0
   38.3630   34.2590   39.1880 H   0  0  0  0  0  0  0  0  0  0  0  0
   38.5210   34.0230   40.9490 H   0  0  0  0  0  0  0  0  0  0  0  0
   41.5240   29.8700   42.2310 C   0  0  0  0  0  0  0  0  0  0  0  0
   40.6300   30.9470   42.0440 C   0  0  0  0  0  0  0  0  0  0  0  0
   39.3430   30.5720   42.3890 C   0  0  0  0  0  0  0  0  0  0  0  0
   38.9490   29.3530   42.8420 C   0  0  0  0  0  0  0  0  0  0  0  0
   39.8840   28.3540   42.9880 C   0  0  0  0  0  0  0  0  0  0  0  0
   41.1950   28.6080   42.6840 C   0  0  0  0  0  0  0  0  0  0  0  0
   39.1860   27.2620   43.4390 O   0  0  0  0  0  0  0  0  0  0  0  0
   37.7940   27.5570   43.4830 C   0  0  1  0  0  0  0  0  0  0  0  0
   37.6750   28.9480   43.2040 O   0  0  0  0  0  0  0  0  0  0  0  0
   42.6210   29.8230   42.0680 H   0  0  0  0  0  0  0  0  0  0  0  0
   38.6790   31.3610   42.2480 H   0  0  0  0  0  0  0  0  0  0  0  0
   41.8320   27.7810   42.8340 H   0  0  0  0  0  0  0  0  0  0  0  0
   37.4400   27.3540   44.5000 H   0  0  0  0  0  0  0  0  0  0  0  0
   38.1940   24.6000   42.5250 O   0  0  0  0  0  0  0  0  0  0  0  0
   37.5890   25.5750   41.9620 C   0  0  0  0  0  0  0  0  0  0  0  0
   37.0240   26.8530   42.4100 C   0  0  2  0  0  3  0  0  0  0  0  0
   37.1180   27.7160   41.1460 C   0  0  0  0  0  3  0  0  0  0  0  0
   36.4500   28.5900   41.2080 H   0  0  0  0  0  0  0  0  0  0  0  0
   36.6320   26.7050   40.1130 C   0  0  0  0  0  3  0  0  0  0  0  0
   36.8680   27.0380   39.1010 H   0  0  0  0  0  0  0  0  0  0  0  0
   37.3470   25.5180   40.5410 N   0  0  0  0  0  0  0  0  0  0  0  0
   37.6150   24.7710   39.8600 H   0  0  0  0  0  0  0  0  0  0  0  0
  1  2  2  0  0  0  0
  1  6  1  0  0  0  0
  2  3  1  0  0  0  0
  3 25  1  0  0  0  0
  3  4  2  0  0  0  0
  5  4  1  0  0  0  0
  5  8  1  0  0  0  0
  6  5  2  0  0  0  0
  7  1  1  0  0  0  0
  9 14  1  0  0  0  0
  9  2  1  0  0  0  0
 10 16  1  0  0  0  0
 10  9  1  0  0  0  0
 11 10  1  0  0  0  0
 11 12  1  0  0  0  0
 12 13  1  0  0  0  0
 13 20  1  0  0  0  0
 14 13  1  0  0  0  0
 14 23  1  0  0  0  0
 15 10  1  0  0  0  0
 17 11  1  0  0  0  0
 18 11  1  0  0  0  0
 19 12  1  0  0  0  0
 21 13  1  0  0  0  0
 22 14  1  0  0  0  0
 24 29  1  0  0  0  0
 25 24  2  0  0  0  0
 25 26  1  0  0  0  0
 26 27  2  0  0  0  0
 27 28  1  0  0  0  0
 27 32  1  0  0  0  0
 28 30  1  0  0  0  0
 29 35  1  0  0  0  0
 29 28  2  0  0  0  0
 30 31  1  0  0  0  0
 31 36  1  1  0  0  0
 32 31  1  0  0  0  0
 33 24  1  0  0  0  0
 34 26  1  0  0  0  0
 38 39  1  0  0  0  0
 38 37  2  0  0  0  0
 39 40  1  6  0  0  0
 39 31  1  0  0  0  0
 40 41  1  0  0  0  0
 42 44  1  0  0  0  0
 42 40  1  0  0  0  0
 43 42  1  0  0  0  0
 44 38  1  0  0  0  0
 45 44  1  0  0  0  0
M  END
>  <minimizedAffinity>
-6.48134661

$$$$

 OpenBabel03242523093D

 45 49  0  0  1  0  0  0  0  0999 V2000
   41.4860   31.4180   37.6910 C   0  0  0  0  0  0  0  0  0  0  0  0
   40.5490   31.0110   38.6270 C   0  0  0  0  0  0  0  0  0  0  0  0
   40.6900   29.7620   39.1760 C   0  0  0  0  0  0  0  0  0  0  0  0
   41.7390   28.9780   38.7760 N   0  0  0  0  0  0  0  0  0  0  0  0
   42.6320   29.4040   37.8620 C   0  0  0  0  0  0  0  0  0  0  0  0
   42.5030   30.6040   37.3330 N   0  0  0  0  0  0  0  0  0  0  0  0
   41.3940   32.4030   37.2440 H   0  0  0  0  0  0  0  0  0  0  0  0
   43.4830   28.8490   37.4950 H   0  0  0  0  0  0  0  0  0  0  0  0
   39.5050   31.8840   38.9410 N   0  0  0  0  0  0  0  0  0  0  0  0
   38.1970   31.7300   38.4270 C   0  0  0  0  0  0  0  0  0  0  0  0
   37.1720   32.6720   39.0000 C   0  0  0  0  0  0  0  0  0  0  0  0
   37.2870   32.9340   40.3800 N   0  0  0  0  0  0  0  0  0  0  0  0
   38.5830   33.0820   40.8860 C   0  0  0  0  0  0  0  0  0  0  0  0
   39.6330   33.0140   39.7940 C   0  0  0  0  0  0  0  0  0  0  0  0
   38.2400   31.9670   37.3250 H   0  0  0  0  0  0  0  0  0  0  0  0
   37.8010   30.6890   38.4750 H   0  0  0  0  0  0  0  0  0  0  0  0
   37.2020   33.6400   38.4440 H   0  0  0  0  0  0  0  0  0  0  0  0
   36.1660   32.2270   38.7870 H   0  0  0  0  0  0  0  0  0  0  0  0
   36.5870   33.6240   40.6580 H   0  0  0  0  0  0  0  0  0  0  0  0
   38.8930   32.4390   41.7200 H   0  0  0  0  0  0  0  0  0  0  0  0
   38.6710   34.1330   41.2970 H   0  0  0  0  0  0  0  0  0  0  0  0
   39.6000   33.9380   39.1600 H   0  0  0  0  0  0  0  0  0  0  0  0
   40.6180   33.0320   40.3120 H   0  0  0  0  0  0  0  0  0  0  0  0
   40.5940   28.9390   41.3780 C   0  0  0  0  0  0  0  0  0  0  0  0
   39.9400   29.0570   40.1330 C   0  0  0  0  0  0  0  0  0  0  0  0
   38.7330   28.3790   40.1560 C   0  0  0  0  0  0  0  0  0  0  0  0
   38.2150   27.6830   41.2020 C   0  0  0  0  0  0  0  0  0  0  0  0
   38.9230   27.6110   42.3790 C   0  0  0  0  0  0  0  0  0  0  0  0
   40.1310   28.2480   42.4800 C   0  0  0  0  0  0  0  0  0  0  0  0
   38.1590   26.8400   43.2190 O   0  0  0  0  0  0  0  0  0  0  0  0
   37.0140   26.3520   42.5280 C   0  0  1  0  0  0  0  0  0  0  0  0
   37.0100   27.0020   41.2620 O   0  0  0  0  0  0  0  0  0  0  0  0
   41.5640   29.3640   41.7120 H   0  0  0  0  0  0  0  0  0  0  0  0
   38.2480   28.4590   39.2380 H   0  0  0  0  0  0  0  0  0  0  0  0
   40.5910   28.1370   43.4230 H   0  0  0  0  0  0  0  0  0  0  0  0
   36.1270   26.6500   43.0970 H   0  0  0  0  0  0  0  0  0  0  0  0
   39.4190   24.4520   43.1820 O   0  0  0  0  0  0  0  0  0  0  0  0
   38.4310   24.2900   42.3870 C   0  0  0  0  0  0  0  0  0  0  0  0
   37.0990   24.8870   42.2400 C   0  0  2  0  0  3  0  0  0  0  0  0
   36.8180   24.7030   40.7430 C   0  0  0  0  0  3  0  0  0  0  0  0
   35.7440   24.7980   40.5230 H   0  0  0  0  0  0  0  0  0  0  0  0
   37.3070   23.2690   40.5680 C   0  0  0  0  0  3  0  0  0  0  0  0
   37.4360   23.0270   39.5120 H   0  0  0  0  0  0  0  0  0  0  0  0
   38.5380   23.3080   41.3350 N   0  0  0  0  0  0  0  0  0  0  0  0
   39.3440   22.6840   41.0990 H   0  0  0  0  0  0  0  0  0  0  0  0
  1  2  1  0  0  0  0
  2  9  1  0  0  0  0
  2  3  2  0  0  0  0
  3 25  1  0  0  0  0
  4  3  1  0  0  0  0
  5  4  2  0  0  0  0
  6  1  2  0  0  0  0
  6  5  1  0  0  0  0
  7  1  1  0  0  0  0
  8  5  1  0  0  0  0
  9 14  1  0  0  0  0
 10 16  1  0  0  0  0
 10  9  1  0  0  0  0
 10 11  1  0  0  0  0
 11 12  1  0  0  0  0
 12 19  1  0  0  0  0
 12 13  1  0  0  0  0
 13 21  1  0  0  0  0
 13 20  1  0  0  0  0
 14 23  1  0  0  0  0
 14 13  1  0  0  0  0
 15 10  1  0  0  0  0
 17 11  1  0  0  0  0
 18 11  1  0  0  0  0
 22 14  1  0  0  0  0
 24 33  1  0  0  0  0
 24 29  1  0  0  0  0
 25 26  1  0  0  0  0
 25 24  2  0  0  0  0
 26 27  2  0  0  0  0
 27 32  1  0  0  0  0
 27 28  1  0  0  0  0
 28 29  2  0  0  0  0
 28 30  1  0  0  0  0
 29 35  1  0  0  0  0
 31 36  1  1  0  0  0
 31 30  1  0  0  0  0
 32 31  1  0  0  0  0
 34 26  1  0  0  0  0
 38 37  2  0  0  0  0
 39 40  1  6  0  0  0
 39 38  1  0  0  0  0
 39 31  1  0  0  0  0
 41 40  1  0  0  0  0
 42 40  1  0  0  0  0
 42 44  1  0  0  0  0
 43 42  1  0  0  0  0
 44 38  1  0  0  0  0
 45 44  1  0  0  0  0
M  END
>  <minimizedAffinity>
-6.33160686

$$$$

 OpenBabel03242523093D

 45 49  0  0  1  0  0  0  0  0999 V2000
   40.3600   33.2180   38.9360 C   0  0  0  0  0  0  0  0  0  0  0  0
   40.1310   31.9310   39.3940 C   0  0  0  0  0  0  0  0  0  0  0  0
   39.4050   31.7800   40.5490 C   0  0  0  0  0  0  0  0  0  0  0  0
   38.9450   32.8970   41.1930 N   0  0  0  0  0  0  0  0  0  0  0  0
   39.1870   34.1350   40.7210 C   0  0  0  0  0  0  0  0  0  0  0  0
   39.8820   34.2860   39.6100 N   0  0  0  0  0  0  0  0  0  0  0  0
   40.9310   33.3620   38.0240 H   0  0  0  0  0  0  0  0  0  0  0  0
   38.8610   35.0620   41.1670 H   0  0  0  0  0  0  0  0  0  0  0  0
   40.6700   30.8650   38.6710 N   0  0  0  0  0  0  0  0  0  0  0  0
   39.8710   29.9280   37.9760 C   0  0  0  0  0  0  0  0  0  0  0  0
   40.6330   28.9450   37.1280 C   0  0  0  0  0  0  0  0  0  0  0  0
   41.7450   29.4670   36.4380 N   0  0  0  0  0  0  0  0  0  0  0  0
   42.5310   30.3980   37.1260 C   0  0  0  0  0  0  0  0  0  0  0  0
   42.0610   30.5970   38.5540 C   0  0  0  0  0  0  0  0  0  0  0  0
   39.3370   29.3050   38.7500 H   0  0  0  0  0  0  0  0  0  0  0  0
   39.0550   30.3790   37.3660 H   0  0  0  0  0  0  0  0  0  0  0  0
   40.9680   28.0870   37.7590 H   0  0  0  0  0  0  0  0  0  0  0  0
   39.9040   28.5180   36.3910 H   0  0  0  0  0  0  0  0  0  0  0  0
   42.2240   28.7150   35.9410 H   0  0  0  0  0  0  0  0  0  0  0  0
   42.7000   31.3800   36.6660 H   0  0  0  0  0  0  0  0  0  0  0  0
   43.5690   29.9570   37.2300 H   0  0  0  0  0  0  0  0  0  0  0  0
   42.2980   29.6940   39.1750 H   0  0  0  0  0  0  0  0  0  0  0  0
   42.6780   31.4250   38.9690 H   0  0  0  0  0  0  0  0  0  0  0  0
   39.9910   30.1450   42.1370 C   0  0  0  0  0  0  0  0  0  0  0  0
   38.9960   30.6430   41.2690 C   0  0  0  0  0  0  0  0  0  0  0  0
   37.8750   29.8310   41.3020 C   0  0  0  0  0  0  0  0  0  0  0  0
   37.7130   28.7040   42.0440 C   0  0  0  0  0  0  0  0  0  0  0  0
   38.7380   28.2820   42.8590 C   0  0  0  0  0  0  0  0  0  0  0  0
   39.8970   29.0090   42.9150 C   0  0  0  0  0  0  0  0  0  0  0  0
   38.2830   27.1310   43.4520 O   0  0  0  0  0  0  0  0  0  0  0  0
   37.0050   26.7850   42.9300 C   0  0  1  0  0  0  0  0  0  0  0  0
   36.6050   27.8760   42.1070 O   0  0  0  0  0  0  0  0  0  0  0  0
   41.0000   30.5490   42.3650 H   0  0  0  0  0  0  0  0  0  0  0  0
   37.1390   30.1920   40.6590 H   0  0  0  0  0  0  0  0  0  0  0  0
   40.6180   28.6060   43.5720 H   0  0  0  0  0  0  0  0  0  0  0  0
   36.3130   26.6880   43.7740 H   0  0  0  0  0  0  0  0  0  0  0  0
   39.1770   24.5260   42.9450 O   0  0  0  0  0  0  0  0  0  0  0  0
   38.3160   24.8380   42.0520 C   0  0  0  0  0  0  0  0  0  0  0  0
   37.0560   25.5880   42.0330 C   0  0  2  0  0  3  0  0  0  0  0  0
   37.0000   26.1030   40.5890 C   0  0  0  0  0  3  0  0  0  0  0  0
   35.9780   26.4060   40.3120 H   0  0  0  0  0  0  0  0  0  0  0  0
   37.4330   24.8390   39.8540 C   0  0  0  0  0  3  0  0  0  0  0  0
   37.7110   25.0640   38.8230 H   0  0  0  0  0  0  0  0  0  0  0  0
   38.5320   24.4010   40.6940 N   0  0  0  0  0  0  0  0  0  0  0  0
   39.3310   23.8520   40.3000 H   0  0  0  0  0  0  0  0  0  0  0  0
  1  2  2  0  0  0  0
  1  6  1  0  0  0  0
  2  3  1  0  0  0  0
  3  4  2  0  0  0  0
  3 25  1  0  0  0  0
  5  8  1  0  0  0  0
  5  4  1  0  0  0  0
  6  5  2  0  0  0  0
  7  1  1  0  0  0  0
  9  2  1  0  0  0  0
 10  9  1  0  0  0  0
 10 15  1  0  0  0  0
 11 17  1  0  0  0  0
 11 10  1  0  0  0  0
 12 13  1  0  0  0  0
 12 11  1  0  0  0  0
 13 21  1  0  0  0  0
 13 14  1  0  0  0  0
 14  9  1  0  0  0  0
 14 23  1  0  0  0  0
 14 22  1  0  0  0  0
 16 10  1  0  0  0  0
 18 11  1  0  0  0  0
 19 12  1  0  0  0  0
 20 13  1  0  0  0  0
 24 33  1  0  0  0  0
 24 29  1  0  0  0  0
 25 26  1  0  0  0  0
 25 24  2  0  0  0  0
 26 27  2  0  0  0  0
 27 32  1  0  0  0  0
 27 28  1  0  0  0  0
 28 29  2  0  0  0  0
 28 30  1  0  0  0  0
 29 35  1  0  0  0  0
 31 30  1  0  0  0  0
 31 36  1  1  0  0  0
 32 31  1  0  0  0  0
 34 26  1  0  0  0  0
 38 37  2  0  0  0  0
 39 40  1  6  0  0  0
 39 38  1  0  0  0  0
 39 31  1  0  0  0  0
 41 40  1  0  0  0  0
 42 40  1  0  0  0  0
 42 44  1  0  0  0  0
 43 42  1  0  0  0  0
 44 38  1  0  0  0  0
 45 44  1  0  0  0  0
M  END
>  <minimizedAffinity>
-6.03042698

$$$$

 OpenBabel03242523093D

 45 49  0  0  1  0  0  0  0  0999 V2000
   38.2390   22.7830   40.6100 C   0  0  0  0  0  0  0  0  0  0  0  0
   38.2790   24.1520   40.8220 C   0  0  0  0  0  0  0  0  0  0  0  0
   37.2630   24.9130   40.3040 C   0  0  0  0  0  0  0  0  0  0  0  0
   36.2630   24.2930   39.6030 N   0  0  0  0  0  0  0  0  0  0  0  0
   36.2550   22.9600   39.4130 C   0  0  0  0  0  0  0  0  0  0  0  0
   37.2280   22.2230   39.9120 N   0  0  0  0  0  0  0  0  0  0  0  0
   39.0320   22.1610   41.0120 H   0  0  0  0  0  0  0  0  0  0  0  0
   35.5070   22.3970   38.8750 H   0  0  0  0  0  0  0  0  0  0  0  0
   39.3610   24.6800   41.5300 N   0  0  0  0  0  0  0  0  0  0  0  0
   40.4500   25.3240   40.8990 C   0  0  0  0  0  0  0  0  0  0  0  0
   41.4410   25.9650   41.8340 C   0  0  0  0  0  0  0  0  0  0  0  0
   40.8900   26.6050   42.9620 N   0  0  0  0  0  0  0  0  0  0  0  0
   39.8100   25.9680   43.5820 C   0  0  0  0  0  0  0  0  0  0  0  0
   39.4960   24.6290   42.9450 C   0  0  0  0  0  0  0  0  0  0  0  0
   41.0300   24.5320   40.3440 H   0  0  0  0  0  0  0  0  0  0  0  0
   40.1590   26.0610   40.1160 H   0  0  0  0  0  0  0  0  0  0  0  0
   42.1800   25.2010   42.1760 H   0  0  0  0  0  0  0  0  0  0  0  0
   42.0230   26.7080   41.2300 H   0  0  0  0  0  0  0  0  0  0  0  0
   41.6410   26.9560   43.5580 H   0  0  0  0  0  0  0  0  0  0  0  0
   38.8760   26.5300   43.7090 H   0  0  0  0  0  0  0  0  0  0  0  0
   40.1270   25.7110   44.6380 H   0  0  0  0  0  0  0  0  0  0  0  0
   40.2910   23.8790   43.1950 H   0  0  0  0  0  0  0  0  0  0  0  0
   38.5660   24.2640   43.4360 H   0  0  0  0  0  0  0  0  0  0  0  0
   36.1770   26.7320   39.2780 C   0  0  0  0  0  0  0  0  0  0  0  0
   37.0000   26.2940   40.3390 C   0  0  0  0  0  0  0  0  0  0  0  0
   37.3960   27.3670   41.1170 C   0  0  0  0  0  0  0  0  0  0  0  0
   37.0700   28.6730   40.9240 C   0  0  0  0  0  0  0  0  0  0  0  0
   36.2690   29.0150   39.8590 C   0  0  0  0  0  0  0  0  0  0  0  0
   35.8080   28.0370   39.0190 C   0  0  0  0  0  0  0  0  0  0  0  0
   36.1370   30.3800   39.9250 O   0  0  0  0  0  0  0  0  0  0  0  0
   36.9380   30.8970   40.9820 C   0  0  1  0  0  0  0  0  0  0  0  0
   37.4410   29.7670   41.6860 O   0  0  0  0  0  0  0  0  0  0  0  0
   35.6770   26.1440   38.4790 H   0  0  0  0  0  0  0  0  0  0  0  0
   38.0070   27.0500   41.8990 H   0  0  0  0  0  0  0  0  0  0  0  0
   35.1990   28.4010   38.2390 H   0  0  0  0  0  0  0  0  0  0  0  0
   36.2870   31.4820   41.6410 H   0  0  0  0  0  0  0  0  0  0  0  0
   39.6580   31.2920   42.4880 O   0  0  0  0  0  0  0  0  0  0  0  0
   39.1710   31.9180   41.4840 C   0  0  0  0  0  0  0  0  0  0  0  0
   38.1360   31.6400   40.4820 C   0  0  2  0  0  3  0  0  0  0  0  0
   37.6660   33.0480   40.0950 C   0  0  0  0  0  3  0  0  0  0  0  0
   37.1310   33.0410   39.1330 H   0  0  0  0  0  0  0  0  0  0  0  0
   39.0180   33.7450   39.9840 C   0  0  0  0  0  3  0  0  0  0  0  0
   38.8980   34.8290   39.9690 H   0  0  0  0  0  0  0  0  0  0  0  0
   39.6860   33.2260   41.1630 N   0  0  0  0  0  0  0  0  0  0  0  0
   40.4250   33.7800   41.6550 H   0  0  0  0  0  0  0  0  0  0  0  0
  1  2  1  0  0  0  0
  1  7  1  0  0  0  0
  2  9  1  0  0  0  0
  3 25  1  0  0  0  0
  3  2  2  0  0  0  0
  4  3  1  0  0  0  0
  5  4  2  0  0  0  0
  5  6  1  0  0  0  0
  6  1  2  0  0  0  0
  8  5  1  0  0  0  0
  9 14  1  0  0  0  0
 10  9  1  0  0  0  0
 10 11  1  0  0  0  0
 11 17  1  0  0  0  0
 11 12  1  0  0  0  0
 12 19  1  0  0  0  0
 12 13  1  0  0  0  0
 13 20  1  0  0  0  0
 13 21  1  0  0  0  0
 14 22  1  0  0  0  0
 14 23  1  0  0  0  0
 14 13  1  0  0  0  0
 15 10  1  0  0  0  0
 16 10  1  0  0  0  0
 18 11  1  0  0  0  0
 24 25  1  0  0  0  0
 25 26  2  0  0  0  0
 26 34  1  0  0  0  0
 27 26  1  0  0  0  0
 27 32  1  0  0  0  0
 28 30  1  0  0  0  0
 28 27  2  0  0  0  0
 29 24  2  0  0  0  0
 29 28  1  0  0  0  0
 30 31  1  0  0  0  0
 31 36  1  1  0  0  0
 31 32  1  0  0  0  0
 33 24  1  0  0  0  0
 35 29  1  0  0  0  0
 38 37  2  0  0  0  0
 39 40  1  1  0  0  0
 39 31  1  0  0  0  0
 39 38  1  0  0  0  0
 41 40  1  0  0  0  0
 42 40  1  0  0  0  0
 42 44  1  0  0  0  0
 43 42  1  0  0  0  0
 44 38  1  0  0  0  0
 44 45  1  0  0  0  0
M  END
>  <minimizedAffinity>
-6.02302217

$$$$

 OpenBabel03242523093D

 45 49  0  0  1  0  0  0  0  0999 V2000
   35.2960   24.4210   38.1860 C   0  0  0  0  0  0  0  0  0  0  0  0
   36.0730   25.3320   38.8830 C   0  0  0  0  0  0  0  0  0  0  0  0
   35.8810   26.6670   38.6310 C   0  0  0  0  0  0  0  0  0  0  0  0
   34.9410   27.0360   37.7070 N   0  0  0  0  0  0  0  0  0  0  0  0
   34.2030   26.1250   37.0450 C   0  0  0  0  0  0  0  0  0  0  0  0
   34.3810   24.8410   37.2860 N   0  0  0  0  0  0  0  0  0  0  0  0
   35.4310   23.3600   38.3710 H   0  0  0  0  0  0  0  0  0  0  0  0
   33.4450   26.3330   36.3050 H   0  0  0  0  0  0  0  0  0  0  0  0
   37.0210   24.8410   39.7840 N   0  0  0  0  0  0  0  0  0  0  0  0
   36.8210   24.8410   41.1840 C   0  0  0  0  0  0  0  0  0  0  0  0
   37.8830   24.1310   41.9800 C   0  0  0  0  0  0  0  0  0  0  0  0
   38.3830   22.9430   41.4090 N   0  0  0  0  0  0  0  0  0  0  0  0
   38.5760   22.9450   40.0230 C   0  0  0  0  0  0  0  0  0  0  0  0
   38.2800   24.2980   39.4070 C   0  0  0  0  0  0  0  0  0  0  0  0
   36.8570   25.9150   41.5270 H   0  0  0  0  0  0  0  0  0  0  0  0
   35.8190   24.4760   41.5070 H   0  0  0  0  0  0  0  0  0  0  0  0
   38.7350   24.8270   42.1720 H   0  0  0  0  0  0  0  0  0  0  0  0
   37.4400   23.9050   42.9840 H   0  0  0  0  0  0  0  0  0  0  0  0
   39.1330   22.5710   41.9930 H   0  0  0  0  0  0  0  0  0  0  0  0
   38.0820   22.1670   39.4270 H   0  0  0  0  0  0  0  0  0  0  0  0
   39.6800   22.7830   39.8330 H   0  0  0  0  0  0  0  0  0  0  0  0
   39.0770   25.0380   39.6830 H   0  0  0  0  0  0  0  0  0  0  0  0
   38.3580   24.1600   38.3060 H   0  0  0  0  0  0  0  0  0  0  0  0
   35.5480   28.7500   39.6730 C   0  0  0  0  0  0  0  0  0  0  0  0
   36.4810   27.8260   39.1530 C   0  0  0  0  0  0  0  0  0  0  0  0
   37.7640   28.3380   39.2340 C   0  0  0  0  0  0  0  0  0  0  0  0
   38.1220   29.5520   39.7300 C   0  0  0  0  0  0  0  0  0  0  0  0
   37.1480   30.3970   40.2100 C   0  0  0  0  0  0  0  0  0  0  0  0
   35.8390   29.9980   40.1880 C   0  0  0  0  0  0  0  0  0  0  0  0
   37.8120   31.5270   40.6170 O   0  0  0  0  0  0  0  0  0  0  0  0
   39.1960   31.4200   40.3010 C   0  0  1  0  0  0  0  0  0  0  0  0
   39.3940   30.0900   39.8340 O   0  0  0  0  0  0  0  0  0  0  0  0
   34.4460   28.6630   39.7750 H   0  0  0  0  0  0  0  0  0  0  0  0
   38.4560   27.6620   38.8480 H   0  0  0  0  0  0  0  0  0  0  0  0
   35.1710   30.7130   40.5820 H   0  0  0  0  0  0  0  0  0  0  0  0
   39.7640   31.5740   41.2250 H   0  0  0  0  0  0  0  0  0  0  0  0
   37.8260   31.6250   37.4900 O   0  0  0  0  0  0  0  0  0  0  0  0
   38.9770   32.0240   37.8780 C   0  0  0  0  0  0  0  0  0  0  0  0
   39.5980   32.3190   39.1740 C   0  0  2  0  0  3  0  0  0  0  0  0
   41.0830   32.0570   38.8950 C   0  0  0  0  0  3  0  0  0  0  0  0
   41.7230   32.5360   39.6530 H   0  0  0  0  0  0  0  0  0  0  0  0
   41.2100   32.7390   37.5370 C   0  0  0  0  0  3  0  0  0  0  0  0
   42.1340   32.4430   37.0370 H   0  0  0  0  0  0  0  0  0  0  0  0
   39.9970   32.2760   36.8900 N   0  0  0  0  0  0  0  0  0  0  0  0
   39.9450   32.1650   35.8500 H   0  0  0  0  0  0  0  0  0  0  0  0
  1  7  1  0  0  0  0
  1  2  1  0  0  0  0
  2  9  1  0  0  0  0
  3  2  2  0  0  0  0
  3 25  1  0  0  0  0
  4  3  1  0  0  0  0
  5  6  1  0  0  0  0
  5  4  2  0  0  0  0
  6  1  2  0  0  0  0
  8  5  1  0  0  0  0
  9 10  1  0  0  0  0
 10 16  1  0  0  0  0
 10 15  1  0  0  0  0
 10 11  1  0  0  0  0
 11 17  1  0  0  0  0
 11 18  1  0  0  0  0
 12 11  1  0  0  0  0
 12 19  1  0  0  0  0
 13 12  1  0  0  0  0
 14 22  1  0  0  0  0
 14  9  1  0  0  0  0
 14 13  1  0  0  0  0
 20 13  1  0  0  0  0
 21 13  1  0  0  0  0
 23 14  1  0  0  0  0
 24 33  1  0  0  0  0
 24 29  1  0  0  0  0
 25 26  1  0  0  0  0
 25 24  2  0  0  0  0
 26 27  2  0  0  0  0
 27 32  1  0  0  0  0
 27 28  1  0  0  0  0
 28 30  1  0  0  0  0
 29 28  2  0  0  0  0
 29 35  1  0  0  0  0
 31 30  1  0  0  0  0
 31 36  1  1  0  0  0
 32 31  1  0  0  0  0
 34 26  1  0  0  0  0
 37 38  2  0  0  0  0
 39 38  1  6  0  0  0
 39 31  1  0  0  0  0
 40 39  1  0  0  0  0
 40 41  1  0  0  0  0
 42 40  1  0  0  0  0
 43 42  1  0  0  0  0
 44 42  1  0  0  0  0
 44 38  1  0  0  0  0
 45 44  1  0  0  0  0
M  END
>  <minimizedAffinity>
-5.9266181

$$$$

 OpenBabel03242523093D

 45 49  0  0  1  0  0  0  0  0999 V2000
   38.2250   29.8360   42.5960 C   0  0  0  0  0  0  0  0  0  0  0  0
   37.6340   29.7200   41.3490 C   0  0  0  0  0  0  0  0  0  0  0  0
   36.8930   28.5940   41.0920 C   0  0  0  0  0  0  0  0  0  0  0  0
   36.7740   27.6420   42.0690 N   0  0  0  0  0  0  0  0  0  0  0  0
   37.3640   27.7860   43.2710 C   0  0  0  0  0  0  0  0  0  0  0  0
   38.0750   28.8670   43.5250 N   0  0  0  0  0  0  0  0  0  0  0  0
   38.8150   30.7180   42.8220 H   0  0  0  0  0  0  0  0  0  0  0  0
   37.3190   27.0850   44.0910 H   0  0  0  0  0  0  0  0  0  0  0  0
   37.8430   30.7400   40.4190 N   0  0  0  0  0  0  0  0  0  0  0  0
   36.9630   31.8380   40.2740 C   0  0  0  0  0  0  0  0  0  0  0  0
   37.4350   32.9130   39.3320 C   0  0  0  0  0  0  0  0  0  0  0  0
   38.8130   33.2040   39.3790 N   0  0  0  0  0  0  0  0  0  0  0  0
   39.6810   32.1170   39.5270 C   0  0  0  0  0  0  0  0  0  0  0  0
   38.9430   30.7930   39.5200 C   0  0  0  0  0  0  0  0  0  0  0  0
   36.0070   31.4430   39.8230 H   0  0  0  0  0  0  0  0  0  0  0  0
   36.6480   32.3070   41.2340 H   0  0  0  0  0  0  0  0  0  0  0  0
   37.1580   32.6410   38.2850 H   0  0  0  0  0  0  0  0  0  0  0  0
   36.8500   33.8370   39.5750 H   0  0  0  0  0  0  0  0  0  0  0  0
   39.0410   33.9010   38.6680 H   0  0  0  0  0  0  0  0  0  0  0  0
   40.3890   32.1250   40.3660 H   0  0  0  0  0  0  0  0  0  0  0  0
   40.3390   32.0780   38.6070 H   0  0  0  0  0  0  0  0  0  0  0  0
   38.5650   30.5590   38.4900 H   0  0  0  0  0  0  0  0  0  0  0  0
   39.7030   30.0140   39.7500 H   0  0  0  0  0  0  0  0  0  0  0  0
   36.4750   26.8510   39.5660 C   0  0  0  0  0  0  0  0  0  0  0  0
   36.1710   28.1720   39.9610 C   0  0  0  0  0  0  0  0  0  0  0  0
   35.2730   28.7450   39.0780 C   0  0  0  0  0  0  0  0  0  0  0  0
   34.7370   28.1600   37.9730 C   0  0  0  0  0  0  0  0  0  0  0  0
   35.0940   26.8700   37.6550 C   0  0  0  0  0  0  0  0  0  0  0  0
   35.9740   26.1960   38.4590 C   0  0  0  0  0  0  0  0  0  0  0  0
   34.4120   26.5760   36.5010 O   0  0  0  0  0  0  0  0  0  0  0  0
   33.7000   27.7230   36.0490 C   0  0  1  0  0  0  0  0  0  0  0  0
   33.8320   28.7000   37.0760 O   0  0  0  0  0  0  0  0  0  0  0  0
   37.1410   26.1040   40.0460 H   0  0  0  0  0  0  0  0  0  0  0  0
   35.0480   29.7210   39.3620 H   0  0  0  0  0  0  0  0  0  0  0  0
   36.1780   25.2140   38.1330 H   0  0  0  0  0  0  0  0  0  0  0  0
   32.6470   27.4430   35.9400 H   0  0  0  0  0  0  0  0  0  0  0  0
   34.9600   26.1820   33.6280 O   0  0  0  0  0  0  0  0  0  0  0  0
   35.0740   27.4070   33.9770 C   0  0  0  0  0  0  0  0  0  0  0  0
   34.3070   28.3280   34.8230 C   0  0  2  0  0  3  0  0  0  0  0  0
   35.3810   29.3180   35.2910 C   0  0  0  0  0  3  0  0  0  0  0  0
   34.9310   30.2510   35.6640 H   0  0  0  0  0  0  0  0  0  0  0  0
   36.1180   29.5340   33.9740 C   0  0  0  0  0  3  0  0  0  0  0  0
   37.0850   30.0100   34.1410 H   0  0  0  0  0  0  0  0  0  0  0  0
   36.1910   28.1720   33.4800 N   0  0  0  0  0  0  0  0  0  0  0  0
   36.9730   27.8620   32.8570 H   0  0  0  0  0  0  0  0  0  0  0  0
  1  7  1  0  0  0  0
  1  6  1  0  0  0  0
  2  1  2  0  0  0  0
  3  2  1  0  0  0  0
  3  4  2  0  0  0  0
  4  5  1  0  0  0  0
  5  6  2  0  0  0  0
  5  8  1  0  0  0  0
  9  2  1  0  0  0  0
 10  9  1  0  0  0  0
 10 16  1  0  0  0  0
 11 12  1  0  0  0  0
 11 18  1  0  0  0  0
 11 10  1  0  0  0  0
 12 13  1  0  0  0  0
 13 20  1  0  0  0  0
 14 13  1  0  0  0  0
 14 23  1  0  0  0  0
 14  9  1  0  0  0  0
 15 10  1  0  0  0  0
 17 11  1  0  0  0  0
 19 12  1  0  0  0  0
 21 13  1  0  0  0  0
 22 14  1  0  0  0  0
 24 25  1  0  0  0  0
 24 33  1  0  0  0  0
 25  3  1  0  0  0  0
 26 34  1  0  0  0  0
 26 25  2  0  0  0  0
 27 26  1  0  0  0  0
 28 27  2  0  0  0  0
 28 29  1  0  0  0  0
 29 24  2  0  0  0  0
 30 28  1  0  0  0  0
 31 36  1  6  0  0  0
 31 30  1  0  0  0  0
 31 32  1  0  0  0  0
 32 27  1  0  0  0  0
 35 29  1  0  0  0  0
 37 38  2  0  0  0  0
 39 38  1  6  0  0  0
 39 40  1  0  0  0  0
 39 31  1  0  0  0  0
 40 41  1  0  0  0  0
 42 43  1  0  0  0  0
 42 40  1  0  0  0  0
 44 42  1  0  0  0  0
 44 38  1  0  0  0  0
 45 44  1  0  0  0  0
M  END
>  <minimizedAffinity>
-5.90724897

$$$$

 OpenBabel03242523093D

 45 49  0  0  1  0  0  0  0  0999 V2000
   43.1320   32.3740   37.7760 C   0  0  0  0  0  0  0  0  0  0  0  0
   41.9850   31.8580   38.3560 C   0  0  0  0  0  0  0  0  0  0  0  0
   41.4920   30.6760   37.8640 C   0  0  0  0  0  0  0  0  0  0  0  0
   42.1470   30.0650   36.8290 N   0  0  0  0  0  0  0  0  0  0  0  0
   43.2600   30.5950   36.2860 C   0  0  0  0  0  0  0  0  0  0  0  0
   43.7400   31.7290   36.7560 N   0  0  0  0  0  0  0  0  0  0  0  0
   43.5400   33.3080   38.1490 H   0  0  0  0  0  0  0  0  0  0  0  0
   43.8330   30.1780   35.4720 H   0  0  0  0  0  0  0  0  0  0  0  0
   41.3840   32.5790   39.3900 N   0  0  0  0  0  0  0  0  0  0  0  0
   40.7030   33.8000   39.1790 C   0  0  0  0  0  0  0  0  0  0  0  0
   39.9880   34.3490   40.3850 C   0  0  0  0  0  0  0  0  0  0  0  0
   39.3460   33.3950   41.2010 N   0  0  0  0  0  0  0  0  0  0  0  0
   40.0210   32.1860   41.4040 C   0  0  0  0  0  0  0  0  0  0  0  0
   41.3910   32.1810   40.7550 C   0  0  0  0  0  0  0  0  0  0  0  0
   41.4790   34.5740   38.9120 H   0  0  0  0  0  0  0  0  0  0  0  0
   40.0030   33.7940   38.3130 H   0  0  0  0  0  0  0  0  0  0  0  0
   40.7040   34.9360   41.0090 H   0  0  0  0  0  0  0  0  0  0  0  0
   39.2330   35.0860   40.0080 H   0  0  0  0  0  0  0  0  0  0  0  0
   38.9430   33.8580   42.0170 H   0  0  0  0  0  0  0  0  0  0  0  0
   39.5030   31.2520   41.1520 H   0  0  0  0  0  0  0  0  0  0  0  0
   40.2330   32.0970   42.5130 H   0  0  0  0  0  0  0  0  0  0  0  0
   42.0930   32.8540   41.3140 H   0  0  0  0  0  0  0  0  0  0  0  0
   41.7880   31.1490   40.8830 H   0  0  0  0  0  0  0  0  0  0  0  0
   39.1700   30.3520   37.6530 C   0  0  0  0  0  0  0  0  0  0  0  0
   40.3790   29.8920   38.2190 C   0  0  0  0  0  0  0  0  0  0  0  0
   40.1430   28.8070   39.0450 C   0  0  0  0  0  0  0  0  0  0  0  0
   38.9380   28.2350   39.3070 C   0  0  0  0  0  0  0  0  0  0  0  0
   37.8070   28.7510   38.7190 C   0  0  0  0  0  0  0  0  0  0  0  0
   37.9140   29.8240   37.8750 C   0  0  0  0  0  0  0  0  0  0  0  0
   36.7700   27.9820   39.1850 O   0  0  0  0  0  0  0  0  0  0  0  0
   37.2490   27.0430   40.1420 C   0  0  1  0  0  0  0  0  0  0  0  0
   38.6690   27.1470   40.1190 O   0  0  0  0  0  0  0  0  0  0  0  0
   38.9930   31.1860   36.9410 H   0  0  0  0  0  0  0  0  0  0  0  0
   41.0310   28.4660   39.4690 H   0  0  0  0  0  0  0  0  0  0  0  0
   36.9920   30.1400   37.4730 H   0  0  0  0  0  0  0  0  0  0  0  0
   36.9480   26.0440   39.8100 H   0  0  0  0  0  0  0  0  0  0  0  0
   35.8590   29.6870   41.0910 O   0  0  0  0  0  0  0  0  0  0  0  0
   36.4630   28.7830   41.7650 C   0  0  0  0  0  0  0  0  0  0  0  0
   36.8320   27.3820   41.5380 C   0  0  2  0  0  3  0  0  0  0  0  0
   38.0680   27.2170   42.4310 C   0  0  0  0  0  3  0  0  0  0  0  0
   38.2780   26.1550   42.6320 H   0  0  0  0  0  0  0  0  0  0  0  0
   37.5750   27.9420   43.6800 C   0  0  0  0  0  3  0  0  0  0  0  0
   38.4050   28.1660   44.3530 H   0  0  0  0  0  0  0  0  0  0  0  0
   36.9470   29.1060   43.0850 N   0  0  0  0  0  0  0  0  0  0  0  0
   36.8910   30.0150   43.6010 H   0  0  0  0  0  0  0  0  0  0  0  0
  1  7  1  0  0  0  0
  1  2  1  0  0  0  0
  2  9  1  0  0  0  0
  3 25  1  0  0  0  0
  3  2  2  0  0  0  0
  4  3  1  0  0  0  0
  5  6  1  0  0  0  0
  5  4  2  0  0  0  0
  6  1  2  0  0  0  0
  8  5  1  0  0  0  0
  9 14  1  0  0  0  0
 10  9  1  0  0  0  0
 10 11  1  0  0  0  0
 11 17  1  0  0  0  0
 11 12  1  0  0  0  0
 12 13  1  0  0  0  0
 12 19  1  0  0  0  0
 13 21  1  0  0  0  0
 14 23  1  0  0  0  0
 14 22  1  0  0  0  0
 14 13  1  0  0  0  0
 15 10  1  0  0  0  0
 16 10  1  0  0  0  0
 18 11  1  0  0  0  0
 20 13  1  0  0  0  0
 24 29  2  0  0  0  0
 24 25  1  0  0  0  0
 25 26  2  0  0  0  0
 26 27  1  0  0  0  0
 26 34  1  0  0  0  0
 27 32  1  0  0  0  0
 28 30  1  0  0  0  0
 28 27  2  0  0  0  0
 29 28  1  0  0  0  0
 30 31  1  0  0  0  0
 31 36  1  6  0  0  0
 31 39  1  0  0  0  0
 32 31  1  0  0  0  0
 33 24  1  0  0  0  0
 35 29  1  0  0  0  0
 37 38  2  0  0  0  0
 38 44  1  0  0  0  0
 39 38  1  6  0  0  0
 39 40  1  0  0  0  0
 40 41  1  0  0  0  0
 40 42  1  0  0  0  0
 42 43  1  0  0  0  0
 44 45  1  0  0  0  0
 44 42  1  0  0  0  0
M  END
>  <minimizedAffinity>
-5.87479973

$$$$

 OpenBabel03242523093D

 45 49  0  0  1  0  0  0  0  0999 V2000
   38.4650   28.8790   40.9080 C   0  0  0  0  0  0  0  0  0  0  0  0
   37.5220   29.2980   39.9830 C   0  0  0  0  0  0  0  0  0  0  0  0
   36.5570   28.4010   39.5970 C   0  0  0  0  0  0  0  0  0  0  0  0
   36.5710   27.1420   40.1350 N   0  0  0  0  0  0  0  0  0  0  0  0
   37.5030   26.7670   41.0310 C   0  0  0  0  0  0  0  0  0  0  0  0
   38.4310   27.6250   41.4080 N   0  0  0  0  0  0  0  0  0  0  0  0
   39.2360   29.5720   41.2280 H   0  0  0  0  0  0  0  0  0  0  0  0
   37.5830   25.7970   41.5000 H   0  0  0  0  0  0  0  0  0  0  0  0
   37.6190   30.5970   39.4810 N   0  0  0  0  0  0  0  0  0  0  0  0
   36.9770   31.7030   40.0840 C   0  0  0  0  0  0  0  0  0  0  0  0
   37.3240   33.0430   39.4930 C   0  0  0  0  0  0  0  0  0  0  0  0
   38.6720   33.2160   39.1210 N   0  0  0  0  0  0  0  0  0  0  0  0
   39.3060   32.1180   38.5280 C   0  0  0  0  0  0  0  0  0  0  0  0
   38.3570   30.9550   38.3190 C   0  0  0  0  0  0  0  0  0  0  0  0
   35.8680   31.5790   39.9160 H   0  0  0  0  0  0  0  0  0  0  0  0
   37.0880   31.7540   41.1920 H   0  0  0  0  0  0  0  0  0  0  0  0
   36.6760   33.2390   38.6050 H   0  0  0  0  0  0  0  0  0  0  0  0
   37.0450   33.8160   40.2540 H   0  0  0  0  0  0  0  0  0  0  0  0
   38.7930   34.1290   38.6820 H   0  0  0  0  0  0  0  0  0  0  0  0
   40.2340   31.7440   38.9810 H   0  0  0  0  0  0  0  0  0  0  0  0
   39.6110   32.4250   37.4820 H   0  0  0  0  0  0  0  0  0  0  0  0
   37.6290   31.1850   37.4980 H   0  0  0  0  0  0  0  0  0  0  0  0
   38.9800   30.1110   37.9490 H   0  0  0  0  0  0  0  0  0  0  0  0
   35.7950   28.0930   37.3930 C   0  0  0  0  0  0  0  0  0  0  0  0
   35.4740   28.4990   38.7060 C   0  0  0  0  0  0  0  0  0  0  0  0
   34.1700   28.9590   38.7640 C   0  0  0  0  0  0  0  0  0  0  0  0
   33.2900   29.0330   37.7310 C   0  0  0  0  0  0  0  0  0  0  0  0
   33.6870   28.6230   36.4790 C   0  0  0  0  0  0  0  0  0  0  0  0
   34.9560   28.1410   36.2980 C   0  0  0  0  0  0  0  0  0  0  0  0
   32.6010   28.8320   35.6650 O   0  0  0  0  0  0  0  0  0  0  0  0
   31.5570   29.4640   36.3970 C   0  0  1  0  0  0  0  0  0  0  0  0
   31.9800   29.4790   37.7560 O   0  0  0  0  0  0  0  0  0  0  0  0
   36.7380   27.6640   36.9930 H   0  0  0  0  0  0  0  0  0  0  0  0
   33.9300   29.2650   39.7300 H   0  0  0  0  0  0  0  0  0  0  0  0
   35.1590   27.8490   35.3050 H   0  0  0  0  0  0  0  0  0  0  0  0
   30.6570   28.8460   36.2990 H   0  0  0  0  0  0  0  0  0  0  0  0
   29.2150   31.3500   37.2800 O   0  0  0  0  0  0  0  0  0  0  0  0
   30.0530   31.4670   36.3220 C   0  0  0  0  0  0  0  0  0  0  0  0
   31.3670   30.8960   36.0070 C   0  0  2  0  0  3  0  0  0  0  0  0
   31.3940   30.9540   34.4750 C   0  0  0  0  0  3  0  0  0  0  0  0
   32.4210   30.8690   34.0890 H   0  0  0  0  0  0  0  0  0  0  0  0
   30.8260   32.3530   34.2650 C   0  0  0  0  0  3  0  0  0  0  0  0
   30.5170   32.4980   33.2280 H   0  0  0  0  0  0  0  0  0  0  0  0
   29.7380   32.3490   35.2250 N   0  0  0  0  0  0  0  0  0  0  0  0
   28.8790   32.9280   35.0740 H   0  0  0  0  0  0  0  0  0  0  0  0
  1  7  1  0  0  0  0
  1  6  1  0  0  0  0
  2  1  2  0  0  0  0
  3  2  1  0  0  0  0
  3  4  2  0  0  0  0
  4  5  1  0  0  0  0
  5  6  2  0  0  0  0
  5  8  1  0  0  0  0
  9  2  1  0  0  0  0
  9 10  1  0  0  0  0
 10 16  1  0  0  0  0
 11 10  1  0  0  0  0
 11 18  1  0  0  0  0
 12 11  1  0  0  0  0
 13 20  1  0  0  0  0
 13 12  1  0  0  0  0
 14 13  1  0  0  0  0
 14  9  1  0  0  0  0
 15 10  1  0  0  0  0
 17 11  1  0  0  0  0
 19 12  1  0  0  0  0
 21 13  1  0  0  0  0
 22 14  1  0  0  0  0
 23 14  1  0  0  0  0
 24 25  1  0  0  0  0
 25 26  2  0  0  0  0
 25  3  1  0  0  0  0
 26 34  1  0  0  0  0
 27 32  1  0  0  0  0
 27 26  1  0  0  0  0
 28 27  2  0  0  0  0
 29 28  1  0  0  0  0
 29 24  2  0  0  0  0
 30 31  1  0  0  0  0
 30 28  1  0  0  0  0
 31 36  1  6  0  0  0
 31 32  1  0  0  0  0
 33 24  1  0  0  0  0
 35 29  1  0  0  0  0
 38 37  2  0  0  0  0
 39 40  1  6  0  0  0
 39 38  1  0  0  0  0
 39 31  1  0  0  0  0
 41 40  1  0  0  0  0
 42 40  1  0  0  0  0
 42 44  1  0  0  0  0
 43 42  1  0  0  0  0
 44 38  1  0  0  0  0
 45 44  1  0  0  0  0
M  END
>  <minimizedAffinity>
-5.78830481

$$$$

 OpenBabel03242523093D

 45 49  0  0  1  0  0  0  0  0999 V2000
   39.6810   28.5170   38.6430 C   0  0  0  0  0  0  0  0  0  0  0  0
   38.3400   28.8200   38.4740 C   0  0  0  0  0  0  0  0  0  0  0  0
   37.7560   28.5000   37.2750 C   0  0  0  0  0  0  0  0  0  0  0  0
   38.5170   27.9030   36.3060 N   0  0  0  0  0  0  0  0  0  0  0  0
   39.8190   27.6240   36.5030 C   0  0  0  0  0  0  0  0  0  0  0  0
   40.3860   27.9270   37.6540 N   0  0  0  0  0  0  0  0  0  0  0  0
   40.1640   28.7610   39.5840 H   0  0  0  0  0  0  0  0  0  0  0  0
   40.4860   27.1560   35.7930 H   0  0  0  0  0  0  0  0  0  0  0  0
   37.6670   29.4530   39.5210 N   0  0  0  0  0  0  0  0  0  0  0  0
   37.5050   30.8560   39.5920 C   0  0  0  0  0  0  0  0  0  0  0  0
   36.6190   31.3400   40.7080 C   0  0  0  0  0  0  0  0  0  0  0  0
   35.4780   30.5540   40.9680 N   0  0  0  0  0  0  0  0  0  0  0  0
   35.6410   29.1660   40.8930 C   0  0  0  0  0  0  0  0  0  0  0  0
   37.0810   28.7740   40.6240 C   0  0  0  0  0  0  0  0  0  0  0  0
   38.5200   31.3000   39.8000 H   0  0  0  0  0  0  0  0  0  0  0  0
   37.1800   31.3320   38.6380 H   0  0  0  0  0  0  0  0  0  0  0  0
   37.2170   31.4320   41.6470 H   0  0  0  0  0  0  0  0  0  0  0  0
   36.3010   32.3820   40.4430 H   0  0  0  0  0  0  0  0  0  0  0  0
   34.9780   30.9310   41.7740 H   0  0  0  0  0  0  0  0  0  0  0  0
   34.9860   28.6000   40.2190 H   0  0  0  0  0  0  0  0  0  0  0  0
   35.4200   28.7410   41.9190 H   0  0  0  0  0  0  0  0  0  0  0  0
   37.7150   28.9630   41.5300 H   0  0  0  0  0  0  0  0  0  0  0  0
   37.0780   27.6710   40.4770 H   0  0  0  0  0  0  0  0  0  0  0  0
   36.4020   29.0640   35.4340 C   0  0  0  0  0  0  0  0  0  0  0  0
   36.4470   28.6590   36.7860 C   0  0  0  0  0  0  0  0  0  0  0  0
   35.1680   28.5860   37.3100 C   0  0  0  0  0  0  0  0  0  0  0  0
   34.0070   28.8590   36.6580 C   0  0  0  0  0  0  0  0  0  0  0  0
   34.0530   29.2550   35.3410 C   0  0  0  0  0  0  0  0  0  0  0  0
   35.2640   29.3590   34.7100 C   0  0  0  0  0  0  0  0  0  0  0  0
   32.7470   29.4670   34.9780 O   0  0  0  0  0  0  0  0  0  0  0  0
   31.8930   29.2920   36.1020 C   0  0  1  0  0  0  0  0  0  0  0  0
   32.7150   28.7870   37.1490 O   0  0  0  0  0  0  0  0  0  0  0  0
   37.2310   29.2110   34.7100 H   0  0  0  0  0  0  0  0  0  0  0  0
   35.1960   28.2920   38.3100 H   0  0  0  0  0  0  0  0  0  0  0  0
   35.1910   29.6650   33.7030 H   0  0  0  0  0  0  0  0  0  0  0  0
   31.1360   28.5450   35.8360 H   0  0  0  0  0  0  0  0  0  0  0  0
   29.6150   29.6470   38.2250 O   0  0  0  0  0  0  0  0  0  0  0  0
   30.0910   30.4780   37.3780 C   0  0  0  0  0  0  0  0  0  0  0  0
   31.3320   30.5850   36.6040 C   0  0  2  0  0  3  0  0  0  0  0  0
   30.8880   31.3910   35.3780 C   0  0  0  0  0  3  0  0  0  0  0  0
   31.7510   31.8380   34.8580 H   0  0  0  0  0  0  0  0  0  0  0  0
   30.0340   32.4500   36.0670 C   0  0  0  0  0  3  0  0  0  0  0  0
   29.4080   32.9770   35.3450 H   0  0  0  0  0  0  0  0  0  0  0  0
   29.3040   31.6310   37.0160 N   0  0  0  0  0  0  0  0  0  0  0  0
   28.3480   31.9020   37.3430 H   0  0  0  0  0  0  0  0  0  0  0  0
  1  7  1  0  0  0  0
  2  1  1  0  0  0  0
  2  9  1  0  0  0  0
  3  2  2  0  0  0  0
  4  5  2  0  0  0  0
  4  3  1  0  0  0  0
  5  6  1  0  0  0  0
  6  1  2  0  0  0  0
  8  5  1  0  0  0  0
  9 10  1  0  0  0  0
  9 14  1  0  0  0  0
 10 15  1  0  0  0  0
 10 11  1  0  0  0  0
 11 12  1  0  0  0  0
 11 17  1  0  0  0  0
 12 19  1  0  0  0  0
 13 12  1  0  0  0  0
 13 21  1  0  0  0  0
 14 13  1  0  0  0  0
 14 22  1  0  0  0  0
 16 10  1  0  0  0  0
 18 11  1  0  0  0  0
 20 13  1  0  0  0  0
 23 14  1  0  0  0  0
 24 25  1  0  0  0  0
 25  3  1  0  0  0  0
 25 26  2  0  0  0  0
 26 34  1  0  0  0  0
 27 32  1  0  0  0  0
 27 26  1  0  0  0  0
 28 27  2  0  0  0  0
 29 28  1  0  0  0  0
 29 24  2  0  0  0  0
 30 28  1  0  0  0  0
 30 31  1  0  0  0  0
 31 36  1  6  0  0  0
 31 39  1  0  0  0  0
 31 32  1  0  0  0  0
 33 24  1  0  0  0  0
 35 29  1  0  0  0  0
 38 37  2  0  0  0  0
 39 40  1  6  0  0  0
 39 38  1  0  0  0  0
 40 42  1  0  0  0  0
 41 40  1  0  0  0  0
 42 44  1  0  0  0  0
 43 42  1  0  0  0  0
 44 45  1  0  0  0  0
 44 38  1  0  0  0  0
M  END
>  <minimizedAffinity>
-5.75745964

$$$$
