
 OpenBabel03252509333D

 40 42  0  0  1  0  0  0  0  0999 V2000
   46.1970   33.4480   41.8060 C   0  0  1  0  0  0  0  0  0  0  0  0
   45.6390   33.9610   40.4850 C   0  0  0  0  0  0  0  0  0  0  0  0
   45.6920   32.7400   39.6200 C   0  0  0  0  0  0  0  0  0  0  0  0
   46.7820   31.8680   40.1780 C   0  0  0  0  0  0  0  0  0  0  0  0
   47.4020   32.6870   41.3210 C   0  0  1  0  0  0  0  0  0  0  0  0
   45.4850   32.6930   42.2080 H   0  0  0  0  0  0  0  0  0  0  0  0
   46.1920   34.8230   40.1060 H   0  0  0  0  0  0  0  0  0  0  0  0
   44.5590   34.1960   40.6860 H   0  0  0  0  0  0  0  0  0  0  0  0
   44.7300   32.1920   39.5510 H   0  0  0  0  0  0  0  0  0  0  0  0
   45.9650   33.0830   38.5880 H   0  0  0  0  0  0  0  0  0  0  0  0
   47.5310   31.6420   39.4020 H   0  0  0  0  0  0  0  0  0  0  0  0
   46.3650   30.9100   40.5520 H   0  0  0  0  0  0  0  0  0  0  0  0
   47.6480   31.9310   42.1050 H   0  0  0  0  0  0  0  0  0  0  0  0
   49.2920   32.5000   38.6160 O   0  0  0  0  0  0  0  0  0  0  0  0
   49.4100   32.7320   39.8710 C   0  0  0  0  0  0  0  0  0  0  0  0
   48.5670   33.4820   40.8790 C   0  0  2  0  0  3  0  0  0  0  0  0
   49.5630   33.6140   42.0090 C   0  0  0  0  0  3  0  0  0  0  0  0
   49.1130   33.6320   43.0130 H   0  0  0  0  0  0  0  0  0  0  0  0
   50.3260   32.2870   41.9050 C   0  0  0  0  0  3  0  0  0  0  0  0
   49.6560   31.4900   42.2220 H   0  0  0  0  0  0  0  0  0  0  0  0
   50.5650   32.1880   40.4930 N   0  0  0  0  0  0  0  0  0  0  0  0
   51.4470   31.7810   40.1120 H   0  0  0  0  0  0  0  0  0  0  0  0
   46.4670   34.4550   42.6940 O   0  0  0  0  0  0  0  0  0  0  0  0
   44.7300   35.6870   44.1650 O   0  0  0  0  0  0  0  0  0  0  0  0
   45.4280   34.3690   44.0020 P   0  0  1  0  0  0  0  0  0  0  0  0
   44.3650   33.0810   43.8380 O   0  0  0  0  0  0  0  0  0  0  0  0
   43.5420   33.4500   43.3920 H   0  0  0  0  0  0  0  0  0  0  0  0
   46.3420   34.0490   45.3950 O   0  0  0  0  0  0  0  0  0  0  0  0
   46.6580   32.7200   45.3950 C   0  0  0  0  0  0  0  0  0  0  0  0
   46.1350   32.0550   44.7280 H   0  0  0  0  0  0  0  0  0  0  0  0
   47.7450   32.6530   45.0910 H   0  0  0  0  0  0  0  0  0  0  0  0
   45.5690   31.9860   48.8760 C   0  0  0  0  0  0  0  0  0  0  0  0
   45.5950   32.5600   47.6010 C   0  0  0  0  0  0  0  0  0  0  0  0
   46.6050   32.1350   46.7410 C   0  0  0  0  0  0  0  0  0  0  0  0
   47.5040   31.1970   47.1790 N   0  0  0  0  0  0  0  0  0  0  0  0
   47.4410   30.6680   48.4230 C   0  0  0  0  0  0  0  0  0  0  0  0
   46.4850   31.0640   49.2500 N   0  0  0  0  0  0  0  0  0  0  0  0
   44.7790   32.3230   49.5390 H   0  0  0  0  0  0  0  0  0  0  0  0
   44.8760   33.2950   47.2840 H   0  0  0  0  0  0  0  0  0  0  0  0
   48.1690   29.9310   48.7280 H   0  0  0  0  0  0  0  0  0  0  0  0
  1  6  1  1  0  0  0
  1 23  1  0  0  0  0
  2  8  1  0  0  0  0
  2  1  1  0  0  0  0
  3  4  1  0  0  0  0
  3  2  1  0  0  0  0
  4 12  1  0  0  0  0
  4  5  1  0  0  0  0
  5  1  1  0  0  0  0
  5 13  1  1  0  0  0
  7  2  1  0  0  0  0
  9  3  1  0  0  0  0
 10  3  1  0  0  0  0
 11  4  1  0  0  0  0
 14 15  2  0  0  0  0
 15 21  1  0  0  0  0
 16 15  1  6  0  0  0
 16  5  1  0  0  0  0
 16 17  1  0  0  0  0
 17 18  1  0  0  0  0
 19 17  1  0  0  0  0
 19 20  1  0  0  0  0
 21 19  1  0  0  0  0
 22 21  1  0  0  0  0
 23 25  1  0  0  0  0
 25 24  2  1  0  0  0
 25 28  1  0  0  0  0
 26 25  1  0  0  0  0
 27 26  1  0  0  0  0
 28 29  1  0  0  0  0
 29 34  1  0  0  0  0
 30 29  1  0  0  0  0
 31 29  1  0  0  0  0
 32 37  1  0  0  0  0
 32 38  1  0  0  0  0
 33 32  2  0  0  0  0
 34 35  2  0  0  0  0
 34 33  1  0  0  0  0
 35 36  1  0  0  0  0
 36 40  1  0  0  0  0
 36 37  2  0  0  0  0
 39 33  1  0  0  0  0
M  END
>  <minimizedAffinity>
-4.7616744

>  <minimizedRMSD>
2.70681071

$$$$
