
 OpenBabel03252500183D

 20 21  0  0  1  0  0  0  0  0999 V2000
   44.4860   36.1890   44.3850 C   0  0  0  0  0  0  0  0  0  0  0  0
   45.2590   36.0920   43.2280 C   0  0  0  0  0  0  0  0  0  0  0  0
   46.1590   35.0210   43.1620 C   0  0  0  0  0  0  0  0  0  0  0  0
   46.2380   34.1410   44.2070 N   0  0  0  0  0  0  0  0  0  0  0  0
   45.4630   34.2910   45.3000 C   0  0  0  0  0  0  0  0  0  0  0  0
   44.5750   35.3270   45.3900 N   0  0  0  0  0  0  0  0  0  0  0  0
   45.5290   33.3850   46.4020 N   0  0  0  0  0  0  0  0  0  0  0  0
   43.7820   37.0110   44.4570 H   0  0  0  0  0  0  0  0  0  0  0  0
   45.2090   36.7770   42.3920 H   0  0  0  0  0  0  0  0  0  0  0  0
   45.2980   32.4210   46.0620 H   0  0  0  0  0  0  0  0  0  0  0  0
   45.7670   33.6170   47.3970 H   0  0  0  0  0  0  0  0  0  0  0  0
   45.6720   32.7690   41.1130 O   0  0  0  0  0  0  0  0  0  0  0  0
   46.6820   33.5090   41.3290 C   0  0  0  0  0  0  0  0  0  0  0  0
   47.0470   34.7840   42.0010 C   0  0  2  0  0  3  0  0  0  0  0  0
   48.4820   34.5740   42.4060 C   0  0  0  0  0  3  0  0  0  0  0  0
   48.5600   34.2590   43.4800 H   0  0  0  0  0  0  0  0  0  0  0  0
   49.0490   33.5350   41.4880 C   0  0  0  0  0  3  0  0  0  0  0  0
   49.5070   32.6770   42.0330 H   0  0  0  0  0  0  0  0  0  0  0  0
   47.9060   33.0010   40.7610 N   0  0  0  0  0  0  0  0  0  0  0  0
   48.1430   32.3490   39.9630 H   0  0  0  0  0  0  0  0  0  0  0  0
  1  8  1  0  0  0  0
  1  6  1  0  0  0  0
  2  1  2  0  0  0  0
  3  2  1  0  0  0  0
  3  4  2  0  0  0  0
  4  5  1  0  0  0  0
  5  6  2  0  0  0  0
  5  7  1  0  0  0  0
  7 11  1  0  0  0  0
  9  2  1  0  0  0  0
 10  7  1  0  0  0  0
 12 13  2  0  0  0  0
 13 14  1  0  0  0  0
 14 15  1  0  0  0  0
 14  3  1  1  0  0  0
 15 16  1  0  0  0  0
 17 18  1  0  0  0  0
 17 15  1  0  0  0  0
 19 13  1  0  0  0  0
 19 17  1  0  0  0  0
 20 19  1  0  0  0  0
M  END
>  <minimizedAffinity>
-4.43754196

>  <minimizedRMSD>
1.06074822

$$$$
