
 OpenBabel03252503563D

 20 21  0  0  1  0  0  0  0  0999 V2000
   46.8420   34.7590   42.8620 C   0  0  0  0  0  0  0  0  0  0  0  0
   45.6850   35.5560   42.9080 C   0  0  0  0  0  0  0  0  0  0  0  0
   44.8360   35.3760   44.0010 C   0  0  0  0  0  0  0  0  0  0  0  0
   45.1710   34.4470   44.9490 N   0  0  0  0  0  0  0  0  0  0  0  0
   46.2950   33.7110   44.8510 C   0  0  0  0  0  0  0  0  0  0  0  0
   47.1250   33.8660   43.8140 N   0  0  0  0  0  0  0  0  0  0  0  0
   45.3970   36.2880   42.1840 H   0  0  0  0  0  0  0  0  0  0  0  0
   43.9300   35.9440   44.1160 H   0  0  0  0  0  0  0  0  0  0  0  0
   44.7150   33.8310   47.4380 O   0  0  0  0  0  0  0  0  0  0  0  0
   45.5280   32.9280   47.0560 C   0  0  0  0  0  0  0  0  0  0  0  0
   46.5140   32.7470   45.9650 C   0  0  1  0  0  3  0  0  0  0  0  0
   46.3200   31.3200   45.5830 C   0  0  0  0  0  3  0  0  0  0  0  0
   47.2700   30.9600   45.1160 H   0  0  0  0  0  0  0  0  0  0  0  0
   46.0670   30.6460   46.9110 C   0  0  0  0  0  3  0  0  0  0  0  0
   45.3130   29.8370   46.8090 H   0  0  0  0  0  0  0  0  0  0  0  0
   45.6140   31.7090   47.7850 N   0  0  0  0  0  0  0  0  0  0  0  0
   45.4200   31.4410   48.7960 H   0  0  0  0  0  0  0  0  0  0  0  0
   47.6660   34.9940   41.7210 C   0  0  0  0  0  0  0  0  0  0  0  0
   48.6480   35.7970   41.6430 O   0  0  0  0  0  0  0  0  0  0  0  0
   47.6630   34.5830   40.7180 H   0  0  0  0  0  0  0  0  0  0  0  0
  1  2  2  0  0  0  0
  1  6  1  0  0  0  0
  2  3  1  0  0  0  0
  3  8  1  0  0  0  0
  3  4  2  0  0  0  0
  5  4  1  0  0  0  0
  6  5  2  0  0  0  0
  7  2  1  0  0  0  0
 10  9  2  0  0  0  0
 10 16  1  0  0  0  0
 11  5  1  6  0  0  0
 11 10  1  0  0  0  0
 12 11  1  0  0  0  0
 12 14  1  0  0  0  0
 13 12  1  0  0  0  0
 14 16  1  0  0  0  0
 15 14  1  0  0  0  0
 16 17  1  0  0  0  0
 18  1  1  0  0  0  0
 19 18  2  0  0  0  0
 20 18  1  0  0  0  0
M  END
>  <minimizedAffinity>
-4.28243446

>  <minimizedRMSD>
0.911441445

$$$$
