
 OpenBabel03242514413D

 32 34  0  0  1  0  0  0  0  0999 V2000
   39.3390   31.5410   40.4000 N   0  0  0  0  0  0  0  0  0  0  0  0
   39.2120   32.7880   39.6320 C   0  0  0  0  0  0  0  0  0  0  0  0
   38.0570   33.6220   40.0650 C   0  0  0  0  0  0  0  0  0  0  0  0
   36.8390   32.9050   40.1050 N   0  0  0  0  0  0  0  0  0  0  0  0
   36.9000   31.6180   40.6720 C   0  0  0  0  0  0  0  0  0  0  0  0
   38.2040   31.0290   41.0460 C   0  0  1  0  0  0  0  0  0  0  0  0
   40.1420   33.3820   39.7480 H   0  0  0  0  0  0  0  0  0  0  0  0
   39.1200   32.4950   38.5590 H   0  0  0  0  0  0  0  0  0  0  0  0
   37.9860   34.4740   39.3710 H   0  0  0  0  0  0  0  0  0  0  0  0
   38.2660   33.9630   41.1200 H   0  0  0  0  0  0  0  0  0  0  0  0
   36.4080   32.9510   39.1500 H   0  0  0  0  0  0  0  0  0  0  0  0
   36.3630   30.9330   39.9480 H   0  0  0  0  0  0  0  0  0  0  0  0
   36.2340   31.6150   41.5610 H   0  0  0  0  0  0  0  0  0  0  0  0
   38.3570   31.1920   42.1580 H   0  0  0  0  0  0  0  0  0  0  0  0
   42.6830   30.3090   41.5350 C   0  0  0  0  0  0  0  0  0  0  0  0
   41.4430   31.0000   41.6060 C   0  0  0  0  0  0  0  0  0  0  0  0
   40.6030   30.8920   40.4670 C   0  0  0  0  0  0  0  0  0  0  0  0
   41.0120   30.1480   39.3760 N   0  0  0  0  0  0  0  0  0  0  0  0
   42.2270   29.5190   39.4060 C   0  0  0  0  0  0  0  0  0  0  0  0
   43.0450   29.6030   40.4740 N   0  0  0  0  0  0  0  0  0  0  0  0
   43.2080   30.4810   42.4650 H   0  0  0  0  0  0  0  0  0  0  0  0
   41.0770   31.5820   42.4110 H   0  0  0  0  0  0  0  0  0  0  0  0
   42.5840   28.9280   38.5730 H   0  0  0  0  0  0  0  0  0  0  0  0
   35.5650   28.7630   40.9740 O   0  0  0  0  0  0  0  0  0  0  0  0
   36.6630   29.1560   41.4400 C   0  0  0  0  0  0  0  0  0  0  0  0
   38.0590   29.5290   40.9120 C   0  0  2  0  0  3  0  0  0  0  0  0
   38.8460   28.7260   41.9070 C   0  0  0  0  0  3  0  0  0  0  0  0
   38.5220   27.6520   41.7160 H   0  0  0  0  0  0  0  0  0  0  0  0
   38.2200   29.0700   43.2590 C   0  0  0  0  0  3  0  0  0  0  0  0
   38.2150   28.1890   43.9320 H   0  0  0  0  0  0  0  0  0  0  0  0
   36.8330   29.3700   42.8600 N   0  0  0  0  0  0  0  0  0  0  0  0
   36.1400   29.6910   43.5970 H   0  0  0  0  0  0  0  0  0  0  0  0
  1 17  1  0  0  0  0
  1  6  1  0  0  0  0
  2  7  1  0  0  0  0
  2  3  1  0  0  0  0
  2  1  1  0  0  0  0
  3  4  1  0  0  0  0
  3 10  1  0  0  0  0
  4  5  1  0  0  0  0
  5  6  1  0  0  0  0
  5 13  1  0  0  0  0
  6 14  1  1  0  0  0
  8  2  1  0  0  0  0
  9  3  1  0  0  0  0
 11  4  1  0  0  0  0
 12  5  1  0  0  0  0
 15 16  1  0  0  0  0
 15 21  1  0  0  0  0
 16 22  1  0  0  0  0
 17 16  2  0  0  0  0
 18 19  2  0  0  0  0
 18 17  1  0  0  0  0
 19 20  1  0  0  0  0
 20 15  2  0  0  0  0
 23 19  1  0  0  0  0
 24 25  2  0  0  0  0
 25 31  1  0  0  0  0
 26  6  1  0  0  0  0
 26 25  1  1  0  0  0
 26 27  1  0  0  0  0
 27 29  1  0  0  0  0
 28 27  1  0  0  0  0
 29 30  1  0  0  0  0
 31 29  1  0  0  0  0
 31 32  1  0  0  0  0
M  END
>  <minimizedAffinity>
-4.71231604

$$$$

 OpenBabel03242514413D

 32 34  0  0  1  0  0  0  0  0999 V2000
   39.6400   29.6820   42.0610 N   0  0  0  0  0  0  0  0  0  0  0  0
   41.0040   29.7750   42.5990 C   0  0  0  0  0  0  0  0  0  0  0  0
   41.4150   31.1730   42.9040 C   0  0  0  0  0  0  0  0  0  0  0  0
   41.2190   32.0580   41.8190 N   0  0  0  0  0  0  0  0  0  0  0  0
   40.0000   31.9240   41.1270 C   0  0  0  0  0  0  0  0  0  0  0  0
   39.0790   30.8120   41.4470 C   0  0  1  0  0  0  0  0  0  0  0  0
   41.0680   29.1750   43.5310 H   0  0  0  0  0  0  0  0  0  0  0  0
   41.6790   29.3110   41.8420 H   0  0  0  0  0  0  0  0  0  0  0  0
   42.4750   31.1500   43.2020 H   0  0  0  0  0  0  0  0  0  0  0  0
   40.7570   31.5410   43.7430 H   0  0  0  0  0  0  0  0  0  0  0  0
   42.0780   32.0240   41.2180 H   0  0  0  0  0  0  0  0  0  0  0  0
   40.2670   31.8960   40.0280 H   0  0  0  0  0  0  0  0  0  0  0  0
   39.4540   32.8860   41.2270 H   0  0  0  0  0  0  0  0  0  0  0  0
   38.2830   31.2070   42.1520 H   0  0  0  0  0  0  0  0  0  0  0  0
   37.2720   26.9960   43.1420 C   0  0  0  0  0  0  0  0  0  0  0  0
   37.8910   28.2760   43.1270 C   0  0  0  0  0  0  0  0  0  0  0  0
   38.9290   28.4550   42.1760 C   0  0  0  0  0  0  0  0  0  0  0  0
   39.2820   27.4160   41.3360 N   0  0  0  0  0  0  0  0  0  0  0  0
   38.6240   26.2200   41.4280 C   0  0  0  0  0  0  0  0  0  0  0  0
   37.6340   26.0210   42.3210 N   0  0  0  0  0  0  0  0  0  0  0  0
   36.5090   27.0090   43.9080 H   0  0  0  0  0  0  0  0  0  0  0  0
   37.6640   29.1070   43.7440 H   0  0  0  0  0  0  0  0  0  0  0  0
   38.8700   25.3830   40.7900 H   0  0  0  0  0  0  0  0  0  0  0  0
   38.0740   32.5760   38.6220 O   0  0  0  0  0  0  0  0  0  0  0  0
   37.8190   31.8310   39.5990 C   0  0  0  0  0  0  0  0  0  0  0  0
   38.3210   30.4950   40.1770 C   0  0  2  0  0  3  0  0  0  0  0  0
   36.9690   29.8740   40.3860 C   0  0  0  0  0  3  0  0  0  0  0  0
   36.5250   29.8170   39.3400 H   0  0  0  0  0  0  0  0  0  0  0  0
   36.1500   30.9610   41.0810 C   0  0  0  0  0  3  0  0  0  0  0  0
   35.0930   30.9380   40.7490 H   0  0  0  0  0  0  0  0  0  0  0  0
   36.7880   32.1800   40.5510 N   0  0  0  0  0  0  0  0  0  0  0  0
   36.4550   33.1290   40.8900 H   0  0  0  0  0  0  0  0  0  0  0  0
  1 17  1  0  0  0  0
  1  2  1  0  0  0  0
  2  3  1  0  0  0  0
  2  7  1  0  0  0  0
  3  9  1  0  0  0  0
  3 10  1  0  0  0  0
  4  3  1  0  0  0  0
  5 13  1  0  0  0  0
  5  6  1  0  0  0  0
  5  4  1  0  0  0  0
  6  1  1  0  0  0  0
  6 14  1  1  0  0  0
  8  2  1  0  0  0  0
 11  4  1  0  0  0  0
 12  5  1  0  0  0  0
 15 21  1  0  0  0  0
 16 15  1  0  0  0  0
 16 22  1  0  0  0  0
 17 16  2  0  0  0  0
 18 19  2  0  0  0  0
 18 17  1  0  0  0  0
 19 20  1  0  0  0  0
 20 15  2  0  0  0  0
 23 19  1  0  0  0  0
 24 25  2  0  0  0  0
 25 31  1  0  0  0  0
 26 25  1  1  0  0  0
 26 27  1  0  0  0  0
 26  6  1  0  0  0  0
 27 29  1  0  0  0  0
 28 27  1  0  0  0  0
 30 29  1  0  0  0  0
 31 32  1  0  0  0  0
 31 29  1  0  0  0  0
M  END
>  <minimizedAffinity>
-4.64413452

$$$$

 OpenBabel03242514413D

 32 34  0  0  1  0  0  0  0  0999 V2000
   38.2700   29.5040   41.2820 N   0  0  0  0  0  0  0  0  0  0  0  0
   37.0240   28.9510   41.8290 C   0  0  0  0  0  0  0  0  0  0  0  0
   35.8080   29.4560   41.1340 C   0  0  0  0  0  0  0  0  0  0  0  0
   35.7620   30.8670   41.0530 N   0  0  0  0  0  0  0  0  0  0  0  0
   36.9670   31.5030   40.6990 C   0  0  0  0  0  0  0  0  0  0  0  0
   38.2180   30.7220   40.5850 C   0  0  1  0  0  0  0  0  0  0  0  0
   37.0490   27.8450   41.7410 H   0  0  0  0  0  0  0  0  0  0  0  0
   37.0070   29.2110   42.9140 H   0  0  0  0  0  0  0  0  0  0  0  0
   34.9310   29.0680   41.6760 H   0  0  0  0  0  0  0  0  0  0  0  0
   35.8430   29.0720   40.0740 H   0  0  0  0  0  0  0  0  0  0  0  0
   35.3100   31.2250   41.9280 H   0  0  0  0  0  0  0  0  0  0  0  0
   37.1070   32.3420   41.4460 H   0  0  0  0  0  0  0  0  0  0  0  0
   36.7910   32.0440   39.7450 H   0  0  0  0  0  0  0  0  0  0  0  0
   38.3810   30.4790   39.4890 H   0  0  0  0  0  0  0  0  0  0  0  0
   41.3540   28.0100   42.7790 C   0  0  0  0  0  0  0  0  0  0  0  0
   40.1390   28.7450   42.7330 C   0  0  0  0  0  0  0  0  0  0  0  0
   39.4880   28.7950   41.4720 C   0  0  0  0  0  0  0  0  0  0  0  0
   40.0440   28.1520   40.3820 N   0  0  0  0  0  0  0  0  0  0  0  0
   41.2210   27.4690   40.5300 C   0  0  0  0  0  0  0  0  0  0  0  0
   41.8610   27.4040   41.7150 N   0  0  0  0  0  0  0  0  0  0  0  0
   41.7300   28.0600   43.7920 H   0  0  0  0  0  0  0  0  0  0  0  0
   39.6660   29.2560   43.5310 H   0  0  0  0  0  0  0  0  0  0  0  0
   41.6890   26.9530   39.7030 H   0  0  0  0  0  0  0  0  0  0  0  0
   38.6020   34.1600   40.9390 O   0  0  0  0  0  0  0  0  0  0  0  0
   38.9480   33.0630   40.4370 C   0  0  0  0  0  0  0  0  0  0  0  0
   39.3520   31.6610   40.9260 C   0  0  2  0  0  3  0  0  0  0  0  0
   40.5740   31.5180   40.0640 C   0  0  0  0  0  3  0  0  0  0  0  0
   41.2520   32.3680   40.4000 H   0  0  0  0  0  0  0  0  0  0  0  0
   40.1100   31.9390   38.6690 C   0  0  0  0  0  3  0  0  0  0  0  0
   40.9140   32.4750   38.1270 H   0  0  0  0  0  0  0  0  0  0  0  0
   39.0420   32.8990   39.0030 N   0  0  0  0  0  0  0  0  0  0  0  0
   38.4850   33.3470   38.2190 H   0  0  0  0  0  0  0  0  0  0  0  0
  1 17  1  0  0  0  0
  1  2  1  0  0  0  0
  2  8  1  0  0  0  0
  3  9  1  0  0  0  0
  3  2  1  0  0  0  0
  4  3  1  0  0  0  0
  4 11  1  0  0  0  0
  5  4  1  0  0  0  0
  5 12  1  0  0  0  0
  6 14  1  6  0  0  0
  6  5  1  0  0  0  0
  6 26  1  0  0  0  0
  6  1  1  0  0  0  0
  7  2  1  0  0  0  0
 10  3  1  0  0  0  0
 13  5  1  0  0  0  0
 15 21  1  0  0  0  0
 16 15  1  0  0  0  0
 16 22  1  0  0  0  0
 17 16  2  0  0  0  0
 18 19  2  0  0  0  0
 18 17  1  0  0  0  0
 19 20  1  0  0  0  0
 20 15  2  0  0  0  0
 23 19  1  0  0  0  0
 25 26  1  0  0  0  0
 25 24  2  0  0  0  0
 26 27  1  6  0  0  0
 27 28  1  0  0  0  0
 29 31  1  0  0  0  0
 29 27  1  0  0  0  0
 30 29  1  0  0  0  0
 31 25  1  0  0  0  0
 32 31  1  0  0  0  0
M  END
>  <minimizedAffinity>
-4.59192181

$$$$

 OpenBabel03242514413D

 32 34  0  0  1  0  0  0  0  0999 V2000
   37.7440   29.5640   39.2840 N   0  0  0  0  0  0  0  0  0  0  0  0
   37.1870   28.8060   38.1540 C   0  0  0  0  0  0  0  0  0  0  0  0
   37.6250   29.3290   36.8310 C   0  0  0  0  0  0  0  0  0  0  0  0
   37.4100   30.7190   36.6850 N   0  0  0  0  0  0  0  0  0  0  0  0
   37.7560   31.5160   37.7930 C   0  0  0  0  0  0  0  0  0  0  0  0
   38.1660   30.8850   39.0660 C   0  0  1  0  0  0  0  0  0  0  0  0
   37.5030   27.7460   38.2390 H   0  0  0  0  0  0  0  0  0  0  0  0
   36.0770   28.8470   38.2580 H   0  0  0  0  0  0  0  0  0  0  0  0
   37.0810   28.7670   36.0560 H   0  0  0  0  0  0  0  0  0  0  0  0
   38.7390   29.1650   36.7560 H   0  0  0  0  0  0  0  0  0  0  0  0
   36.4350   30.8570   36.3250 H   0  0  0  0  0  0  0  0  0  0  0  0
   36.8730   32.2010   37.9720 H   0  0  0  0  0  0  0  0  0  0  0  0
   38.5540   32.2160   37.4640 H   0  0  0  0  0  0  0  0  0  0  0  0
   39.3000   30.8770   39.1060 H   0  0  0  0  0  0  0  0  0  0  0  0
   36.9320   28.0590   42.6100 C   0  0  0  0  0  0  0  0  0  0  0  0
   36.6920   28.6750   41.3520 C   0  0  0  0  0  0  0  0  0  0  0  0
   37.8390   28.9410   40.5590 C   0  0  0  0  0  0  0  0  0  0  0  0
   39.0950   28.6020   41.0260 N   0  0  0  0  0  0  0  0  0  0  0  0
   39.2210   28.0110   42.2540 C   0  0  0  0  0  0  0  0  0  0  0  0
   38.1500   27.7460   43.0280 N   0  0  0  0  0  0  0  0  0  0  0  0
   35.9760   27.9190   43.0950 H   0  0  0  0  0  0  0  0  0  0  0  0
   35.7570   28.9560   40.9420 H   0  0  0  0  0  0  0  0  0  0  0  0
   40.1850   27.7310   42.6560 H   0  0  0  0  0  0  0  0  0  0  0  0
   36.9370   34.1330   39.2560 O   0  0  0  0  0  0  0  0  0  0  0  0
   37.7740   33.2560   39.5800 C   0  0  0  0  0  0  0  0  0  0  0  0
   37.7670   31.8350   40.1730 C   0  0  2  0  0  3  0  0  0  0  0  0
   38.8220   32.0730   41.2150 C   0  0  0  0  0  3  0  0  0  0  0  0
   38.3790   32.8830   41.8800 H   0  0  0  0  0  0  0  0  0  0  0  0
   39.9500   32.7820   40.4640 C   0  0  0  0  0  3  0  0  0  0  0  0
   40.4450   33.5360   41.1080 H   0  0  0  0  0  0  0  0  0  0  0  0
   39.1920   33.4830   39.4110 N   0  0  0  0  0  0  0  0  0  0  0  0
   39.7180   34.0480   38.6830 H   0  0  0  0  0  0  0  0  0  0  0  0
  1 17  1  0  0  0  0
  2  7  1  0  0  0  0
  2  8  1  0  0  0  0
  2  1  1  0  0  0  0
  3  2  1  0  0  0  0
  4  3  1  0  0  0  0
  4  5  1  0  0  0  0
  5 12  1  0  0  0  0
  5  6  1  0  0  0  0
  6 14  1  6  0  0  0
  6  1  1  0  0  0  0
  6 26  1  0  0  0  0
  9  3  1  0  0  0  0
 10  3  1  0  0  0  0
 11  4  1  0  0  0  0
 13  5  1  0  0  0  0
 15 20  1  0  0  0  0
 15 21  1  0  0  0  0
 16 15  2  0  0  0  0
 17 18  2  0  0  0  0
 17 16  1  0  0  0  0
 18 19  1  0  0  0  0
 19 23  1  0  0  0  0
 19 20  2  0  0  0  0
 22 16  1  0  0  0  0
 24 25  2  0  0  0  0
 26 25  1  6  0  0  0
 26 27  1  0  0  0  0
 27 28  1  0  0  0  0
 29 30  1  0  0  0  0
 29 27  1  0  0  0  0
 31 25  1  0  0  0  0
 31 29  1  0  0  0  0
 32 31  1  0  0  0  0
M  END
>  <minimizedAffinity>
-4.53664923

$$$$

 OpenBabel03242514413D

 32 34  0  0  1  0  0  0  0  0999 V2000
   38.0950   30.9480   40.6420 N   0  0  0  0  0  0  0  0  0  0  0  0
   38.7200   32.2660   40.8270 C   0  0  0  0  0  0  0  0  0  0  0  0
   37.9720   33.3640   40.1560 C   0  0  0  0  0  0  0  0  0  0  0  0
   37.7030   33.0990   38.7930 N   0  0  0  0  0  0  0  0  0  0  0  0
   37.2600   31.7970   38.4940 C   0  0  0  0  0  0  0  0  0  0  0  0
   37.2430   30.7550   39.5440 C   0  0  1  0  0  0  0  0  0  0  0  0
   38.7790   32.4890   41.9130 H   0  0  0  0  0  0  0  0  0  0  0  0
   39.7600   32.1850   40.4330 H   0  0  0  0  0  0  0  0  0  0  0  0
   38.5660   34.2840   40.2650 H   0  0  0  0  0  0  0  0  0  0  0  0
   36.9710   33.4530   40.6710 H   0  0  0  0  0  0  0  0  0  0  0  0
   38.5260   33.4300   38.2340 H   0  0  0  0  0  0  0  0  0  0  0  0
   37.8880   31.4480   37.6190 H   0  0  0  0  0  0  0  0  0  0  0  0
   36.2440   31.8830   38.0540 H   0  0  0  0  0  0  0  0  0  0  0  0
   36.1880   30.6890   39.9550 H   0  0  0  0  0  0  0  0  0  0  0  0
   39.7570   28.2170   42.5820 C   0  0  0  0  0  0  0  0  0  0  0  0
   39.6210   29.2400   41.6050 C   0  0  0  0  0  0  0  0  0  0  0  0
   38.3710   29.9110   41.5760 C   0  0  0  0  0  0  0  0  0  0  0  0
   37.3750   29.5540   42.4650 N   0  0  0  0  0  0  0  0  0  0  0  0
   37.6050   28.5530   43.3700 C   0  0  0  0  0  0  0  0  0  0  0  0
   38.7820   27.8990   43.4210 N   0  0  0  0  0  0  0  0  0  0  0  0
   40.7510   27.8010   42.4860 H   0  0  0  0  0  0  0  0  0  0  0  0
   40.3460   29.5570   40.9010 H   0  0  0  0  0  0  0  0  0  0  0  0
   36.8520   28.2430   44.0810 H   0  0  0  0  0  0  0  0  0  0  0  0
   37.0420   29.5870   36.2740 O   0  0  0  0  0  0  0  0  0  0  0  0
   36.7310   29.5110   37.4870 C   0  0  0  0  0  0  0  0  0  0  0  0
   37.4490   29.4290   38.8460 C   0  0  2  0  0  3  0  0  0  0  0  0
   36.6440   28.2890   39.4030 C   0  0  0  0  0  3  0  0  0  0  0  0
   36.8510   27.4280   38.6890 H   0  0  0  0  0  0  0  0  0  0  0  0
   35.1910   28.6710   39.1190 C   0  0  0  0  0  3  0  0  0  0  0  0
   34.5840   27.7760   38.8770 H   0  0  0  0  0  0  0  0  0  0  0  0
   35.3450   29.4840   37.8990 N   0  0  0  0  0  0  0  0  0  0  0  0
   34.4880   29.9390   37.4690 H   0  0  0  0  0  0  0  0  0  0  0  0
  1  2  1  0  0  0  0
  1 17  1  0  0  0  0
  2  7  1  0  0  0  0
  3  9  1  0  0  0  0
  3 10  1  0  0  0  0
  3  2  1  0  0  0  0
  4  3  1  0  0  0  0
  5  4  1  0  0  0  0
  5  6  1  0  0  0  0
  6 14  1  1  0  0  0
  6  1  1  0  0  0  0
  8  2  1  0  0  0  0
 11  4  1  0  0  0  0
 12  5  1  0  0  0  0
 13  5  1  0  0  0  0
 15 20  1  0  0  0  0
 16 15  2  0  0  0  0
 17 16  1  0  0  0  0
 17 18  2  0  0  0  0
 18 19  1  0  0  0  0
 19 20  2  0  0  0  0
 19 23  1  0  0  0  0
 21 15  1  0  0  0  0
 22 16  1  0  0  0  0
 24 25  2  0  0  0  0
 25 31  1  0  0  0  0
 26 25  1  6  0  0  0
 26 27  1  0  0  0  0
 26  6  1  0  0  0  0
 28 27  1  0  0  0  0
 29 27  1  0  0  0  0
 30 29  1  0  0  0  0
 31 29  1  0  0  0  0
 32 31  1  0  0  0  0
M  END
>  <minimizedAffinity>
-4.52514553

$$$$

 OpenBabel03242514413D

 32 34  0  0  1  0  0  0  0  0999 V2000
   36.7250   28.7580   41.0510 N   0  0  0  0  0  0  0  0  0  0  0  0
   36.7920   27.7040   42.0730 C   0  0  0  0  0  0  0  0  0  0  0  0
   37.1710   28.2200   43.4170 C   0  0  0  0  0  0  0  0  0  0  0  0
   38.3470   29.0060   43.3980 N   0  0  0  0  0  0  0  0  0  0  0  0
   38.4500   29.9330   42.3440 C   0  0  0  0  0  0  0  0  0  0  0  0
   37.4470   29.9430   41.2580 C   0  0  1  0  0  0  0  0  0  0  0  0
   35.8010   27.2100   42.1490 H   0  0  0  0  0  0  0  0  0  0  0  0
   37.5280   26.9500   41.7070 H   0  0  0  0  0  0  0  0  0  0  0  0
   37.2930   27.3510   44.0830 H   0  0  0  0  0  0  0  0  0  0  0  0
   36.3370   28.8950   43.7660 H   0  0  0  0  0  0  0  0  0  0  0  0
   39.1660   28.3600   43.5060 H   0  0  0  0  0  0  0  0  0  0  0  0
   39.4860   29.7940   41.9080 H   0  0  0  0  0  0  0  0  0  0  0  0
   38.5030   30.9460   42.7970 H   0  0  0  0  0  0  0  0  0  0  0  0
   36.6880   30.7540   41.4880 H   0  0  0  0  0  0  0  0  0  0  0  0
   33.9780   28.8600   38.5160 C   0  0  0  0  0  0  0  0  0  0  0  0
   34.6650   29.1640   39.7220 C   0  0  0  0  0  0  0  0  0  0  0  0
   35.9340   28.5490   39.8880 C   0  0  0  0  0  0  0  0  0  0  0  0
   36.4290   27.7120   38.9050 N   0  0  0  0  0  0  0  0  0  0  0  0
   35.6880   27.4830   37.7780 C   0  0  0  0  0  0  0  0  0  0  0  0
   34.4810   28.0520   37.5930 N   0  0  0  0  0  0  0  0  0  0  0  0
   33.0370   29.3940   38.5300 H   0  0  0  0  0  0  0  0  0  0  0  0
   34.3390   29.7950   40.5070 H   0  0  0  0  0  0  0  0  0  0  0  0
   36.0390   26.8350   36.9870 H   0  0  0  0  0  0  0  0  0  0  0  0
   40.3380   31.7550   40.5790 O   0  0  0  0  0  0  0  0  0  0  0  0
   39.1020   31.5730   40.4550 C   0  0  0  0  0  0  0  0  0  0  0  0
   38.1530   30.4440   40.0170 C   0  0  2  0  0  3  0  0  0  0  0  0
   37.3040   31.2730   39.0970 C   0  0  0  0  0  3  0  0  0  0  0  0
   38.0300   31.6370   38.3000 H   0  0  0  0  0  0  0  0  0  0  0  0
   36.9750   32.5280   39.9050 C   0  0  0  0  0  3  0  0  0  0  0  0
   36.9390   33.4240   39.2530 H   0  0  0  0  0  0  0  0  0  0  0  0
   38.1610   32.6240   40.7760 N   0  0  0  0  0  0  0  0  0  0  0  0
   38.2100   33.3960   41.5020 H   0  0  0  0  0  0  0  0  0  0  0  0
  1  6  1  0  0  0  0
  1  2  1  0  0  0  0
  2  7  1  0  0  0  0
  2  3  1  0  0  0  0
  3 10  1  0  0  0  0
  3  9  1  0  0  0  0
  4  3  1  0  0  0  0
  4 11  1  0  0  0  0
  5 13  1  0  0  0  0
  5  4  1  0  0  0  0
  6 14  1  1  0  0  0
  6  5  1  0  0  0  0
  8  2  1  0  0  0  0
 12  5  1  0  0  0  0
 15 21  1  0  0  0  0
 15 16  1  0  0  0  0
 16 17  2  0  0  0  0
 16 22  1  0  0  0  0
 17  1  1  0  0  0  0
 18 17  1  0  0  0  0
 19 18  2  0  0  0  0
 20 19  1  0  0  0  0
 20 15  2  0  0  0  0
 23 19  1  0  0  0  0
 25 24  2  0  0  0  0
 25 31  1  0  0  0  0
 26 27  1  6  0  0  0
 26 25  1  0  0  0  0
 26  6  1  0  0  0  0
 27 29  1  0  0  0  0
 28 27  1  0  0  0  0
 29 31  1  0  0  0  0
 30 29  1  0  0  0  0
 31 32  1  0  0  0  0
M  END
>  <minimizedAffinity>
-4.4814992

$$$$

 OpenBabel03242514413D

 32 34  0  0  1  0  0  0  0  0999 V2000
   38.1330   29.9630   41.4220 N   0  0  0  0  0  0  0  0  0  0  0  0
   38.3910   29.6520   42.8350 C   0  0  0  0  0  0  0  0  0  0  0  0
   37.9480   28.2840   43.2200 C   0  0  0  0  0  0  0  0  0  0  0  0
   36.6070   28.0150   42.8610 N   0  0  0  0  0  0  0  0  0  0  0  0
   36.2160   28.4360   41.5760 C   0  0  0  0  0  0  0  0  0  0  0  0
   37.1330   29.2470   40.7460 C   0  0  1  0  0  0  0  0  0  0  0  0
   39.4800   29.7410   43.0330 H   0  0  0  0  0  0  0  0  0  0  0  0
   37.8650   30.4320   43.4350 H   0  0  0  0  0  0  0  0  0  0  0  0
   38.0880   28.1840   44.3070 H   0  0  0  0  0  0  0  0  0  0  0  0
   38.5880   27.5510   42.6500 H   0  0  0  0  0  0  0  0  0  0  0  0
   35.9920   28.3450   43.6440 H   0  0  0  0  0  0  0  0  0  0  0  0
   35.2370   28.9860   41.7130 H   0  0  0  0  0  0  0  0  0  0  0  0
   35.9170   27.5310   41.0050 H   0  0  0  0  0  0  0  0  0  0  0  0
   37.6610   28.5510   40.0220 H   0  0  0  0  0  0  0  0  0  0  0  0
   40.6760   31.7730   39.3610 C   0  0  0  0  0  0  0  0  0  0  0  0
   39.9900   30.6640   39.9260 C   0  0  0  0  0  0  0  0  0  0  0  0
   38.9010   30.9760   40.7820 C   0  0  0  0  0  0  0  0  0  0  0  0
   38.5650   32.2950   41.0200 N   0  0  0  0  0  0  0  0  0  0  0  0
   39.2900   33.2930   40.4260 C   0  0  0  0  0  0  0  0  0  0  0  0
   40.3290   33.0280   39.6100 N   0  0  0  0  0  0  0  0  0  0  0  0
   41.4710   31.3850   38.7400 H   0  0  0  0  0  0  0  0  0  0  0  0
   40.1990   29.6360   39.7810 H   0  0  0  0  0  0  0  0  0  0  0  0
   39.0610   34.3370   40.5870 H   0  0  0  0  0  0  0  0  0  0  0  0
   33.8440   29.1780   39.6180 O   0  0  0  0  0  0  0  0  0  0  0  0
   35.0770   29.2510   39.4000 C   0  0  0  0  0  0  0  0  0  0  0  0
   36.2680   30.1130   39.8570 C   0  0  2  0  0  3  0  0  0  0  0  0
   36.8310   30.3780   38.4900 C   0  0  0  0  0  3  0  0  0  0  0  0
   36.0000   30.9380   37.9510 H   0  0  0  0  0  0  0  0  0  0  0  0
   36.8560   29.0070   37.8130 C   0  0  0  0  0  3  0  0  0  0  0  0
   36.6290   29.0920   36.7320 H   0  0  0  0  0  0  0  0  0  0  0  0
   35.7250   28.3390   38.4840 N   0  0  0  0  0  0  0  0  0  0  0  0
   35.5090   27.3270   38.2490 H   0  0  0  0  0  0  0  0  0  0  0  0
  1  2  1  0  0  0  0
  2  7  1  0  0  0  0
  2  3  1  0  0  0  0
  2  8  1  0  0  0  0
  3  9  1  0  0  0  0
  4  3  1  0  0  0  0
  4 11  1  0  0  0  0
  5 12  1  0  0  0  0
  5  4  1  0  0  0  0
  6 14  1  6  0  0  0
  6  1  1  0  0  0  0
  6  5  1  0  0  0  0
 10  3  1  0  0  0  0
 13  5  1  0  0  0  0
 15 20  2  0  0  0  0
 15 16  1  0  0  0  0
 16 17  2  0  0  0  0
 17 18  1  0  0  0  0
 17  1  1  0  0  0  0
 19 23  1  0  0  0  0
 19 18  2  0  0  0  0
 20 19  1  0  0  0  0
 21 15  1  0  0  0  0
 22 16  1  0  0  0  0
 25 24  2  0  0  0  0
 25 26  1  0  0  0  0
 26 27  1  6  0  0  0
 26  6  1  0  0  0  0
 28 27  1  0  0  0  0
 29 31  1  0  0  0  0
 29 27  1  0  0  0  0
 30 29  1  0  0  0  0
 31 25  1  0  0  0  0
 32 31  1  0  0  0  0
M  END
>  <minimizedAffinity>
-4.48023891

$$$$

 OpenBabel03242514413D

 32 34  0  0  1  0  0  0  0  0999 V2000
   37.0330   28.9520   39.5470 N   0  0  0  0  0  0  0  0  0  0  0  0
   36.7380   27.7760   40.3770 C   0  0  0  0  0  0  0  0  0  0  0  0
   36.1240   28.1280   41.6860 C   0  0  0  0  0  0  0  0  0  0  0  0
   36.8600   29.1010   42.4010 N   0  0  0  0  0  0  0  0  0  0  0  0
   37.3360   30.1900   41.6460 C   0  0  0  0  0  0  0  0  0  0  0  0
   37.1910   30.1980   40.1740 C   0  0  1  0  0  0  0  0  0  0  0  0
   36.0430   27.1090   39.8260 H   0  0  0  0  0  0  0  0  0  0  0  0
   37.7030   27.2330   40.5150 H   0  0  0  0  0  0  0  0  0  0  0  0
   36.0360   27.1990   42.2710 H   0  0  0  0  0  0  0  0  0  0  0  0
   35.1130   28.5800   41.4730 H   0  0  0  0  0  0  0  0  0  0  0  0
   37.5860   28.6010   42.9690 H   0  0  0  0  0  0  0  0  0  0  0  0
   38.4270   30.3080   41.9230 H   0  0  0  0  0  0  0  0  0  0  0  0
   36.8720   31.1100   42.0600 H   0  0  0  0  0  0  0  0  0  0  0  0
   36.2740   30.8140   39.9150 H   0  0  0  0  0  0  0  0  0  0  0  0
   38.2650   28.0880   36.1230 C   0  0  0  0  0  0  0  0  0  0  0  0
   38.2720   28.1660   37.5420 C   0  0  0  0  0  0  0  0  0  0  0  0
   37.1490   28.7970   38.1370 C   0  0  0  0  0  0  0  0  0  0  0  0
   36.1330   29.2920   37.3410 N   0  0  0  0  0  0  0  0  0  0  0  0
   36.2200   29.1670   35.9810 C   0  0  0  0  0  0  0  0  0  0  0  0
   37.2740   28.5720   35.3880 N   0  0  0  0  0  0  0  0  0  0  0  0
   39.1730   27.5870   35.8170 H   0  0  0  0  0  0  0  0  0  0  0  0
   39.0190   27.8060   38.2020 H   0  0  0  0  0  0  0  0  0  0  0  0
   35.4470   29.5410   35.3240 H   0  0  0  0  0  0  0  0  0  0  0  0
   39.5130   32.4420   41.4660 O   0  0  0  0  0  0  0  0  0  0  0  0
   38.6270   32.1390   40.6310 C   0  0  0  0  0  0  0  0  0  0  0  0
   38.3440   31.0080   39.6260 C   0  0  2  0  0  3  0  0  0  0  0  0
   38.0010   31.8890   38.4590 C   0  0  0  0  0  3  0  0  0  0  0  0
   38.9520   32.4840   38.2700 H   0  0  0  0  0  0  0  0  0  0  0  0
   37.0240   32.9170   39.0290 C   0  0  0  0  0  3  0  0  0  0  0  0
   37.1710   33.9100   38.5590 H   0  0  0  0  0  0  0  0  0  0  0  0
   37.4720   32.9870   40.4320 N   0  0  0  0  0  0  0  0  0  0  0  0
   36.9460   33.6060   41.1140 H   0  0  0  0  0  0  0  0  0  0  0  0
  1  6  1  0  0  0  0
  1  2  1  0  0  0  0
  2  8  1  0  0  0  0
  2  3  1  0  0  0  0
  3  9  1  0  0  0  0
  3  4  1  0  0  0  0
  4 11  1  0  0  0  0
  5 12  1  0  0  0  0
  5 13  1  0  0  0  0
  5  4  1  0  0  0  0
  6 14  1  6  0  0  0
  6  5  1  0  0  0  0
  7  2  1  0  0  0  0
 10  3  1  0  0  0  0
 15 16  1  0  0  0  0
 16 17  2  0  0  0  0
 16 22  1  0  0  0  0
 17  1  1  0  0  0  0
 18 17  1  0  0  0  0
 19 18  2  0  0  0  0
 20 19  1  0  0  0  0
 20 15  2  0  0  0  0
 21 15  1  0  0  0  0
 23 19  1  0  0  0  0
 25 24  2  0  0  0  0
 26 27  1  6  0  0  0
 26  6  1  0  0  0  0
 26 25  1  0  0  0  0
 27 29  1  0  0  0  0
 28 27  1  0  0  0  0
 29 31  1  0  0  0  0
 30 29  1  0  0  0  0
 31 25  1  0  0  0  0
 31 32  1  0  0  0  0
M  END
>  <minimizedAffinity>
-4.44734478

$$$$

 OpenBabel03242514413D

 32 34  0  0  1  0  0  0  0  0999 V2000
   38.0880   30.9210   40.6100 N   0  0  0  0  0  0  0  0  0  0  0  0
   38.6940   32.2450   40.8030 C   0  0  0  0  0  0  0  0  0  0  0  0
   37.9150   33.3410   40.1640 C   0  0  0  0  0  0  0  0  0  0  0  0
   37.6230   33.0920   38.8020 N   0  0  0  0  0  0  0  0  0  0  0  0
   37.1960   31.7880   38.4920 C   0  0  0  0  0  0  0  0  0  0  0  0
   37.2170   30.7300   39.5260 C   0  0  1  0  0  0  0  0  0  0  0  0
   38.7720   32.4530   41.8910 H   0  0  0  0  0  0  0  0  0  0  0  0
   39.7280   32.1870   40.3870 H   0  0  0  0  0  0  0  0  0  0  0  0
   38.4960   34.2690   40.2750 H   0  0  0  0  0  0  0  0  0  0  0  0
   36.9240   33.4050   40.6990 H   0  0  0  0  0  0  0  0  0  0  0  0
   38.4300   33.4450   38.2320 H   0  0  0  0  0  0  0  0  0  0  0  0
   37.8120   31.4630   37.6000 H   0  0  0  0  0  0  0  0  0  0  0  0
   36.1700   31.8640   38.0740 H   0  0  0  0  0  0  0  0  0  0  0  0
   36.1710   30.6400   39.9570 H   0  0  0  0  0  0  0  0  0  0  0  0
   37.9340   28.4180   43.3850 C   0  0  0  0  0  0  0  0  0  0  0  0
   37.4920   29.4690   42.5370 C   0  0  0  0  0  0  0  0  0  0  0  0
   38.3980   29.8740   41.5220 C   0  0  0  0  0  0  0  0  0  0  0  0
   39.6270   29.2520   41.4050 N   0  0  0  0  0  0  0  0  0  0  0  0
   39.9600   28.2470   42.2730 C   0  0  0  0  0  0  0  0  0  0  0  0
   39.1200   27.8420   43.2460 N   0  0  0  0  0  0  0  0  0  0  0  0
   37.1480   28.2210   44.1010 H   0  0  0  0  0  0  0  0  0  0  0  0
   36.5660   29.9820   42.5770 H   0  0  0  0  0  0  0  0  0  0  0  0
   40.9100   27.7360   42.2160 H   0  0  0  0  0  0  0  0  0  0  0  0
   36.9740   29.6100   36.2420 O   0  0  0  0  0  0  0  0  0  0  0  0
   36.6860   29.5100   37.4600 C   0  0  0  0  0  0  0  0  0  0  0  0
   37.4300   29.4190   38.8040 C   0  0  2  0  0  3  0  0  0  0  0  0
   36.6540   28.2580   39.3570 C   0  0  0  0  0  3  0  0  0  0  0  0
   36.8600   27.4110   38.6260 H   0  0  0  0  0  0  0  0  0  0  0  0
   35.1900   28.6210   39.1050 C   0  0  0  0  0  3  0  0  0  0  0  0
   34.5920   27.7200   38.8600 H   0  0  0  0  0  0  0  0  0  0  0  0
   35.3080   29.4550   37.8960 N   0  0  0  0  0  0  0  0  0  0  0  0
   34.4370   29.9030   37.4880 H   0  0  0  0  0  0  0  0  0  0  0  0
  1  2  1  0  0  0  0
  1 17  1  0  0  0  0
  2  7  1  0  0  0  0
  3  9  1  0  0  0  0
  3 10  1  0  0  0  0
  3  2  1  0  0  0  0
  4  3  1  0  0  0  0
  5  4  1  0  0  0  0
  5  6  1  0  0  0  0
  6 14  1  1  0  0  0
  6  1  1  0  0  0  0
  8  2  1  0  0  0  0
 11  4  1  0  0  0  0
 12  5  1  0  0  0  0
 13  5  1  0  0  0  0
 15 21  1  0  0  0  0
 16 22  1  0  0  0  0
 16 15  2  0  0  0  0
 17 16  1  0  0  0  0
 18 17  2  0  0  0  0
 18 19  1  0  0  0  0
 19 20  2  0  0  0  0
 20 15  1  0  0  0  0
 23 19  1  0  0  0  0
 24 25  2  0  0  0  0
 25 31  1  0  0  0  0
 26 25  1  6  0  0  0
 26 27  1  0  0  0  0
 26  6  1  0  0  0  0
 28 27  1  0  0  0  0
 29 27  1  0  0  0  0
 30 29  1  0  0  0  0
 31 29  1  0  0  0  0
 32 31  1  0  0  0  0
M  END
>  <minimizedAffinity>
-4.42919874

$$$$
