
 OpenBabel03252508323D

 32 34  0  0  1  0  0  0  0  0999 V2000
   45.8260   33.2920   42.3610 N   0  0  0  0  0  0  0  0  0  0  0  0
   44.6210   32.9750   41.6800 C   0  0  1  0  0  0  0  0  0  0  0  0
   43.7230   32.0290   42.4150 C   0  0  0  0  0  0  0  0  0  0  0  0
   44.3420   31.0110   43.1490 N   0  0  0  0  0  0  0  0  0  0  0  0
   45.5110   31.3620   43.8420 C   0  0  0  0  0  0  0  0  0  0  0  0
   45.8620   32.8120   43.7150 C   0  0  0  0  0  0  0  0  0  0  0  0
   44.8850   32.5070   40.7090 H   0  0  0  0  0  0  0  0  0  0  0  0
   43.1850   32.6720   43.1740 H   0  0  0  0  0  0  0  0  0  0  0  0
   42.9780   31.6080   41.7090 H   0  0  0  0  0  0  0  0  0  0  0  0
   43.6740   30.3680   43.5710 H   0  0  0  0  0  0  0  0  0  0  0  0
   46.3550   30.7350   43.5040 H   0  0  0  0  0  0  0  0  0  0  0  0
   45.3180   31.1990   44.9420 H   0  0  0  0  0  0  0  0  0  0  0  0
   46.7790   33.0250   44.2840 H   0  0  0  0  0  0  0  0  0  0  0  0
   45.0550   33.3530   44.2790 H   0  0  0  0  0  0  0  0  0  0  0  0
   47.0300   33.6530   40.3440 C   0  0  0  0  0  0  0  0  0  0  0  0
   46.8230   34.0130   41.6870 C   0  0  0  0  0  0  0  0  0  0  0  0
   47.6140   35.0110   42.2280 C   0  0  0  0  0  0  0  0  0  0  0  0
   48.5730   35.6280   41.4800 N   0  0  0  0  0  0  0  0  0  0  0  0
   48.7570   35.2590   40.1740 C   0  0  0  0  0  0  0  0  0  0  0  0
   47.9990   34.2930   39.6250 N   0  0  0  0  0  0  0  0  0  0  0  0
   46.5300   32.9120   39.7420 H   0  0  0  0  0  0  0  0  0  0  0  0
   47.4540   35.3060   43.2540 H   0  0  0  0  0  0  0  0  0  0  0  0
   49.5160   35.7480   39.5820 H   0  0  0  0  0  0  0  0  0  0  0  0
   43.9550   35.7510   43.5120 O   0  0  0  0  0  0  0  0  0  0  0  0
   43.6640   35.1870   42.4080 C   0  0  0  0  0  0  0  0  0  0  0  0
   43.7740   34.1690   41.3410 C   0  0  2  0  0  3  0  0  0  0  0  0
   42.3160   33.8190   41.1520 C   0  0  0  0  0  3  0  0  0  0  0  0
   41.8250   33.4870   42.0690 H   0  0  0  0  0  0  0  0  0  0  0  0
   41.7740   35.2330   40.8820 C   0  0  0  0  0  3  0  0  0  0  0  0
   41.9490   35.5400   39.8440 H   0  0  0  0  0  0  0  0  0  0  0  0
   42.6000   35.9910   41.8370 N   0  0  0  0  0  0  0  0  0  0  0  0
   42.2000   36.9820   41.8750 H   0  0  0  0  0  0  0  0  0  0  0  0
  1  6  1  0  0  0  0
  2  7  1  6  0  0  0
  2  1  1  0  0  0  0
  2  3  1  0  0  0  0
  3  4  1  0  0  0  0
  3  8  1  0  0  0  0
  4 10  1  0  0  0  0
  4  5  1  0  0  0  0
  5 12  1  0  0  0  0
  6  5  1  0  0  0  0
  6 14  1  0  0  0  0
  6 13  1  0  0  0  0
  9  3  1  0  0  0  0
 11  5  1  0  0  0  0
 15 16  1  0  0  0  0
 16 17  2  0  0  0  0
 16  1  1  0  0  0  0
 17 22  1  0  0  0  0
 18 17  1  0  0  0  0
 19 18  2  0  0  0  0
 20 19  1  0  0  0  0
 20 15  2  0  0  0  0
 21 15  1  0  0  0  0
 23 19  1  0  0  0  0
 25 24  2  0  0  0  0
 26 27  1  1  0  0  0
 26  2  1  0  0  0  0
 26 25  1  0  0  0  0
 27 28  1  0  0  0  0
 29 27  1  0  0  0  0
 29 31  1  0  0  0  0
 30 29  1  0  0  0  0
 31 32  1  0  0  0  0
 31 25  1  0  0  0  0
M  END
>  <minimizedAffinity>
-4.29193163

>  <minimizedRMSD>
4.7013216

$$$$
