
 OpenBabel03242523043D

 32 34  0  0  1  0  0  0  0  0999 V2000
   39.8750   29.4160   38.4800 C   0  0  0  0  0  0  0  0  0  0  0  0
   38.9220   29.6560   39.5060 C   0  0  0  0  0  0  0  0  0  0  0  0
   38.4610   28.6220   40.3070 C   0  0  0  0  0  0  0  0  0  0  0  0
   38.9530   27.3820   40.0660 N   0  0  0  0  0  0  0  0  0  0  0  0
   39.8740   27.1460   39.0750 C   0  0  0  0  0  0  0  0  0  0  0  0
   40.3310   28.1510   38.2900 N   0  0  0  0  0  0  0  0  0  0  0  0
   40.2580   30.1920   37.8370 H   0  0  0  0  0  0  0  0  0  0  0  0
   40.2410   26.1350   38.9180 H   0  0  0  0  0  0  0  0  0  0  0  0
   38.4640   30.9840   39.5920 N   0  0  0  0  0  0  0  0  0  0  0  0
   37.1880   31.3530   39.1030 C   0  0  0  0  0  0  0  0  0  0  0  0
   37.0700   32.8480   38.9690 C   0  0  0  0  0  0  0  0  0  0  0  0
   37.4040   33.5220   40.1580 N   0  0  0  0  0  0  0  0  0  0  0  0
   38.5640   33.0860   40.8230 C   0  0  0  0  0  0  0  0  0  0  0  0
   39.2880   32.0410   40.1240 C   0  0  0  0  0  0  0  0  0  0  0  0
   36.3760   31.1680   39.8150 H   0  0  0  0  0  0  0  0  0  0  0  0
   37.0090   30.9880   38.0550 H   0  0  0  0  0  0  0  0  0  0  0  0
   36.0420   33.1200   38.6660 H   0  0  0  0  0  0  0  0  0  0  0  0
   37.7450   33.1760   38.1390 H   0  0  0  0  0  0  0  0  0  0  0  0
   37.1170   34.4970   40.2400 H   0  0  0  0  0  0  0  0  0  0  0  0
   39.2320   33.9910   40.9410 H   0  0  0  0  0  0  0  0  0  0  0  0
   38.3950   32.7640   41.8850 H   0  0  0  0  0  0  0  0  0  0  0  0
   39.8720   32.4970   39.2710 H   0  0  0  0  0  0  0  0  0  0  0  0
   40.0300   31.5910   40.8620 H   0  0  0  0  0  0  0  0  0  0  0  0
   39.2320   29.9120   42.9220 O   0  0  0  0  0  0  0  0  0  0  0  0
   38.1630   29.2940   42.6570 C   0  0  0  0  0  0  0  0  0  0  0  0
   37.5350   28.7500   41.4170 C   0  0  2  0  0  3  0  0  0  0  0  0
   37.2850   27.3210   42.0050 C   0  0  0  0  0  3  0  0  0  0  0  0
   36.6710   26.7220   41.3200 H   0  0  0  0  0  0  0  0  0  0  0  0
   36.5380   27.7340   43.2690 C   0  0  0  0  0  3  0  0  0  0  0  0
   35.5030   28.0290   43.0270 H   0  0  0  0  0  0  0  0  0  0  0  0
   37.2310   28.9650   43.6800 N   0  0  0  0  0  0  0  0  0  0  0  0
   36.9890   29.4310   44.5990 H   0  0  0  0  0  0  0  0  0  0  0  0
  1  2  1  0  0  0  0
  2  9  1  0  0  0  0
  2  3  2  0  0  0  0
  4  3  1  0  0  0  0
  5  4  2  0  0  0  0
  6  1  2  0  0  0  0
  6  5  1  0  0  0  0
  7  1  1  0  0  0  0
  8  5  1  0  0  0  0
  9 14  1  0  0  0  0
 10  9  1  0  0  0  0
 10 15  1  0  0  0  0
 11 10  1  0  0  0  0
 11 12  1  0  0  0  0
 12 19  1  0  0  0  0
 12 13  1  0  0  0  0
 13 20  1  0  0  0  0
 13 21  1  0  0  0  0
 14 13  1  0  0  0  0
 14 23  1  0  0  0  0
 16 10  1  0  0  0  0
 17 11  1  0  0  0  0
 18 11  1  0  0  0  0
 22 14  1  0  0  0  0
 25 24  2  0  0  0  0
 25 31  1  0  0  0  0
 26  3  1  6  0  0  0
 26 27  1  0  0  0  0
 26 25  1  0  0  0  0
 27 29  1  0  0  0  0
 28 27  1  0  0  0  0
 29 31  1  0  0  0  0
 30 29  1  0  0  0  0
 31 32  1  0  0  0  0
M  END
>  <minimizedAffinity>
-4.83624554

$$$$

 OpenBabel03242523043D

 32 34  0  0  1  0  0  0  0  0999 V2000
   36.8620   26.8020   39.2500 C   0  0  0  0  0  0  0  0  0  0  0  0
   37.2990   28.0260   39.8240 C   0  0  0  0  0  0  0  0  0  0  0  0
   37.2640   29.2070   39.0990 C   0  0  0  0  0  0  0  0  0  0  0  0
   36.8010   29.1410   37.8260 N   0  0  0  0  0  0  0  0  0  0  0  0
   36.3790   27.9610   37.2670 C   0  0  0  0  0  0  0  0  0  0  0  0
   36.4080   26.8030   37.9700 N   0  0  0  0  0  0  0  0  0  0  0  0
   36.8740   25.8640   39.7810 H   0  0  0  0  0  0  0  0  0  0  0  0
   36.0160   27.9560   36.2420 H   0  0  0  0  0  0  0  0  0  0  0  0
   37.8060   27.9190   41.1330 N   0  0  0  0  0  0  0  0  0  0  0  0
   36.9410   27.8450   42.2500 C   0  0  0  0  0  0  0  0  0  0  0  0
   37.6870   28.1030   43.5320 C   0  0  0  0  0  0  0  0  0  0  0  0
   38.8170   27.2760   43.6720 N   0  0  0  0  0  0  0  0  0  0  0  0
   39.6370   27.1340   42.5390 C   0  0  0  0  0  0  0  0  0  0  0  0
   39.2220   27.9390   41.4060 C   0  0  0  0  0  0  0  0  0  0  0  0
   36.5730   26.8320   42.4530 H   0  0  0  0  0  0  0  0  0  0  0  0
   36.1600   28.6530   42.2420 H   0  0  0  0  0  0  0  0  0  0  0  0
   37.0140   27.9590   44.3970 H   0  0  0  0  0  0  0  0  0  0  0  0
   37.9960   29.1790   43.5430 H   0  0  0  0  0  0  0  0  0  0  0  0
   39.2300   27.2020   44.6020 H   0  0  0  0  0  0  0  0  0  0  0  0
   40.6810   27.4360   42.8520 H   0  0  0  0  0  0  0  0  0  0  0  0
   39.7780   26.0730   42.2000 H   0  0  0  0  0  0  0  0  0  0  0  0
   39.5340   29.0120   41.5750 H   0  0  0  0  0  0  0  0  0  0  0  0
   39.7770   27.5480   40.4910 H   0  0  0  0  0  0  0  0  0  0  0  0
   35.5550   30.7380   41.0570 O   0  0  0  0  0  0  0  0  0  0  0  0
   36.5770   31.1530   40.4420 C   0  0  0  0  0  0  0  0  0  0  0  0
   37.6290   30.5230   39.5910 C   0  0  2  0  0  3  0  0  0  0  0  0
   37.4780   31.5390   38.4100 C   0  0  0  0  0  3  0  0  0  0  0  0
   38.2740   31.3920   37.6680 H   0  0  0  0  0  0  0  0  0  0  0  0
   37.6410   32.8270   39.2110 C   0  0  0  0  0  3  0  0  0  0  0  0
   38.7010   32.9880   39.4730 H   0  0  0  0  0  0  0  0  0  0  0  0
   36.9470   32.5260   40.4730 N   0  0  0  0  0  0  0  0  0  0  0  0
   36.8080   33.2850   41.1990 H   0  0  0  0  0  0  0  0  0  0  0  0
  1  7  1  0  0  0  0
  1  2  1  0  0  0  0
  2  9  1  0  0  0  0
  3  2  2  0  0  0  0
  4  3  1  0  0  0  0
  5  4  2  0  0  0  0
  5  6  1  0  0  0  0
  6  1  2  0  0  0  0
  8  5  1  0  0  0  0
  9 14  1  0  0  0  0
  9 10  1  0  0  0  0
 10 15  1  0  0  0  0
 10 11  1  0  0  0  0
 11 18  1  0  0  0  0
 11 12  1  0  0  0  0
 11 17  1  0  0  0  0
 12 19  1  0  0  0  0
 13 20  1  0  0  0  0
 13 12  1  0  0  0  0
 14 22  1  0  0  0  0
 14 13  1  0  0  0  0
 16 10  1  0  0  0  0
 21 13  1  0  0  0  0
 23 14  1  0  0  0  0
 25 31  1  0  0  0  0
 25 24  2  0  0  0  0
 26  3  1  6  0  0  0
 26 25  1  0  0  0  0
 27 29  1  0  0  0  0
 27 26  1  0  0  0  0
 28 27  1  0  0  0  0
 29 30  1  0  0  0  0
 29 31  1  0  0  0  0
 31 32  1  0  0  0  0
M  END
>  <minimizedAffinity>
-4.57396603

$$$$

 OpenBabel03242523043D

 32 34  0  0  1  0  0  0  0  0999 V2000
   38.0590   29.5200   42.7390 C   0  0  0  0  0  0  0  0  0  0  0  0
   37.6930   29.4550   41.3680 C   0  0  0  0  0  0  0  0  0  0  0  0
   37.1230   28.3100   40.8350 C   0  0  0  0  0  0  0  0  0  0  0  0
   36.9360   27.2600   41.6730 N   0  0  0  0  0  0  0  0  0  0  0  0
   37.2890   27.3180   42.9980 C   0  0  0  0  0  0  0  0  0  0  0  0
   37.8440   28.4350   43.5280 N   0  0  0  0  0  0  0  0  0  0  0  0
   38.5030   30.3920   43.1910 H   0  0  0  0  0  0  0  0  0  0  0  0
   37.1200   26.4520   43.6340 H   0  0  0  0  0  0  0  0  0  0  0  0
   38.0050   30.6040   40.6160 N   0  0  0  0  0  0  0  0  0  0  0  0
   39.2740   30.7610   40.0100 C   0  0  0  0  0  0  0  0  0  0  0  0
   39.4990   32.1870   39.5840 C   0  0  0  0  0  0  0  0  0  0  0  0
   38.4560   32.6790   38.7790 N   0  0  0  0  0  0  0  0  0  0  0  0
   37.1460   32.3980   39.2070 C   0  0  0  0  0  0  0  0  0  0  0  0
   37.0770   31.6980   40.4760 C   0  0  0  0  0  0  0  0  0  0  0  0
   39.3590   30.2630   39.0360 H   0  0  0  0  0  0  0  0  0  0  0  0
   40.1180   30.5720   40.7270 H   0  0  0  0  0  0  0  0  0  0  0  0
   40.4580   32.2720   39.0400 H   0  0  0  0  0  0  0  0  0  0  0  0
   39.6000   32.8130   40.5070 H   0  0  0  0  0  0  0  0  0  0  0  0
   38.6370   33.5300   38.2470 H   0  0  0  0  0  0  0  0  0  0  0  0
   36.6130   33.3920   39.2970 H   0  0  0  0  0  0  0  0  0  0  0  0
   36.5210   31.8490   38.4530 H   0  0  0  0  0  0  0  0  0  0  0  0
   37.2630   32.4290   41.3170 H   0  0  0  0  0  0  0  0  0  0  0  0
   36.0170   31.2960   40.5830 H   0  0  0  0  0  0  0  0  0  0  0  0
   34.4120   29.2600   39.9160 O   0  0  0  0  0  0  0  0  0  0  0  0
   35.2400   28.5600   39.2680 C   0  0  0  0  0  0  0  0  0  0  0  0
   36.6590   28.1420   39.4700 C   0  0  2  0  0  3  0  0  0  0  0  0
   36.3880   26.6180   39.2350 C   0  0  0  0  0  3  0  0  0  0  0  0
   37.3320   26.0610   39.1790 H   0  0  0  0  0  0  0  0  0  0  0  0
   35.6800   26.7300   37.8890 C   0  0  0  0  0  3  0  0  0  0  0  0
   36.4080   26.9250   37.0830 H   0  0  0  0  0  0  0  0  0  0  0  0
   34.8840   27.9590   38.0290 N   0  0  0  0  0  0  0  0  0  0  0  0
   34.1990   28.2400   37.2720 H   0  0  0  0  0  0  0  0  0  0  0  0
  1  7  1  0  0  0  0
  1  6  1  0  0  0  0
  2  1  2  0  0  0  0
  3  2  1  0  0  0  0
  3  4  2  0  0  0  0
  4  5  1  0  0  0  0
  5  6  2  0  0  0  0
  5  8  1  0  0  0  0
  9  2  1  0  0  0  0
 10  9  1  0  0  0  0
 10 16  1  0  0  0  0
 11 10  1  0  0  0  0
 11 18  1  0  0  0  0
 12 13  1  0  0  0  0
 12 11  1  0  0  0  0
 13 20  1  0  0  0  0
 13 14  1  0  0  0  0
 14 23  1  0  0  0  0
 14  9  1  0  0  0  0
 14 22  1  0  0  0  0
 15 10  1  0  0  0  0
 17 11  1  0  0  0  0
 19 12  1  0  0  0  0
 21 13  1  0  0  0  0
 25 26  1  0  0  0  0
 25 24  2  0  0  0  0
 26  3  1  1  0  0  0
 27 26  1  0  0  0  0
 28 27  1  0  0  0  0
 29 31  1  0  0  0  0
 29 27  1  0  0  0  0
 30 29  1  0  0  0  0
 31 25  1  0  0  0  0
 32 31  1  0  0  0  0
M  END
>  <minimizedAffinity>
-4.56161976

$$$$

 OpenBabel03242523043D

 32 34  0  0  1  0  0  0  0  0999 V2000
   40.5370   28.6150   39.9540 C   0  0  0  0  0  0  0  0  0  0  0  0
   39.5910   29.5510   40.4510 C   0  0  0  0  0  0  0  0  0  0  0  0
   39.6610   30.8910   40.1010 C   0  0  0  0  0  0  0  0  0  0  0  0
   40.6670   31.2650   39.2710 N   0  0  0  0  0  0  0  0  0  0  0  0
   41.5820   30.3630   38.7890 C   0  0  0  0  0  0  0  0  0  0  0  0
   41.5200   29.0520   39.1240 N   0  0  0  0  0  0  0  0  0  0  0  0
   40.5150   27.5660   40.2030 H   0  0  0  0  0  0  0  0  0  0  0  0
   42.3730   30.7080   38.1260 H   0  0  0  0  0  0  0  0  0  0  0  0
   38.6450   29.0190   41.3480 N   0  0  0  0  0  0  0  0  0  0  0  0
   38.8650   29.0420   42.7450 C   0  0  0  0  0  0  0  0  0  0  0  0
   37.9190   28.1140   43.4580 C   0  0  0  0  0  0  0  0  0  0  0  0
   36.5740   28.3540   43.1240 N   0  0  0  0  0  0  0  0  0  0  0  0
   36.2900   28.5410   41.7590 C   0  0  0  0  0  0  0  0  0  0  0  0
   37.4390   28.3750   40.8890 C   0  0  0  0  0  0  0  0  0  0  0  0
   38.5820   29.9900   43.2180 H   0  0  0  0  0  0  0  0  0  0  0  0
   39.8770   28.6420   43.0270 H   0  0  0  0  0  0  0  0  0  0  0  0
   38.0510   28.2070   44.5520 H   0  0  0  0  0  0  0  0  0  0  0  0
   38.1990   27.0620   43.1920 H   0  0  0  0  0  0  0  0  0  0  0  0
   35.8610   27.9540   43.7330 H   0  0  0  0  0  0  0  0  0  0  0  0
   35.4990   27.7810   41.4840 H   0  0  0  0  0  0  0  0  0  0  0  0
   35.7890   29.5160   41.5200 H   0  0  0  0  0  0  0  0  0  0  0  0
   37.6540   27.2740   40.7590 H   0  0  0  0  0  0  0  0  0  0  0  0
   37.1580   28.8050   39.8720 H   0  0  0  0  0  0  0  0  0  0  0  0
   36.9610   31.2250   38.7990 O   0  0  0  0  0  0  0  0  0  0  0  0
   37.5120   31.9970   39.6330 C   0  0  0  0  0  0  0  0  0  0  0  0
   38.7270   31.9280   40.4980 C   0  0  2  0  0  3  0  0  0  0  0  0
   39.3060   33.3050   40.0310 C   0  0  0  0  0  3  0  0  0  0  0  0
   40.1710   33.5900   40.6460 H   0  0  0  0  0  0  0  0  0  0  0  0
   38.0740   34.1610   40.3020 C   0  0  0  0  0  3  0  0  0  0  0  0
   37.9650   34.3520   41.3840 H   0  0  0  0  0  0  0  0  0  0  0  0
   36.9610   33.2760   39.9270 N   0  0  0  0  0  0  0  0  0  0  0  0
   35.9680   33.6420   39.9160 H   0  0  0  0  0  0  0  0  0  0  0  0
  1  7  1  0  0  0  0
  1  2  1  0  0  0  0
  2  9  1  0  0  0  0
  3  2  2  0  0  0  0
  4  3  1  0  0  0  0
  5  6  1  0  0  0  0
  5  4  2  0  0  0  0
  6  1  2  0  0  0  0
  8  5  1  0  0  0  0
  9 10  1  0  0  0  0
 10 16  1  0  0  0  0
 10 15  1  0  0  0  0
 10 11  1  0  0  0  0
 11 17  1  0  0  0  0
 12 11  1  0  0  0  0
 12 19  1  0  0  0  0
 13 12  1  0  0  0  0
 14  9  1  0  0  0  0
 14 13  1  0  0  0  0
 18 11  1  0  0  0  0
 20 13  1  0  0  0  0
 21 13  1  0  0  0  0
 22 14  1  0  0  0  0
 23 14  1  0  0  0  0
 24 25  2  0  0  0  0
 25 31  1  0  0  0  0
 25 26  1  0  0  0  0
 26  3  1  6  0  0  0
 27 29  1  0  0  0  0
 27 26  1  0  0  0  0
 27 28  1  0  0  0  0
 29 30  1  0  0  0  0
 31 29  1  0  0  0  0
 32 31  1  0  0  0  0
M  END
>  <minimizedAffinity>
-4.54938412

$$$$

 OpenBabel03242523043D

 32 34  0  0  1  0  0  0  0  0999 V2000
   36.3130   27.0230   39.0910 C   0  0  0  0  0  0  0  0  0  0  0  0
   36.9860   28.1640   39.6030 C   0  0  0  0  0  0  0  0  0  0  0  0
   36.8800   29.3960   38.9770 C   0  0  0  0  0  0  0  0  0  0  0  0
   36.1140   29.4620   37.8590 N   0  0  0  0  0  0  0  0  0  0  0  0
   35.4640   28.3610   37.3600 C   0  0  0  0  0  0  0  0  0  0  0  0
   35.5600   27.1540   37.9680 N   0  0  0  0  0  0  0  0  0  0  0  0
   36.3700   26.0490   39.5500 H   0  0  0  0  0  0  0  0  0  0  0  0
   34.8610   28.4600   36.4610 H   0  0  0  0  0  0  0  0  0  0  0  0
   37.7880   27.9220   40.7350 N   0  0  0  0  0  0  0  0  0  0  0  0
   39.1780   27.6910   40.6130 C   0  0  0  0  0  0  0  0  0  0  0  0
   39.7440   27.1060   41.8780 C   0  0  0  0  0  0  0  0  0  0  0  0
   39.4260   27.8720   43.0140 N   0  0  0  0  0  0  0  0  0  0  0  0
   38.0960   28.3150   43.1220 C   0  0  0  0  0  0  0  0  0  0  0  0
   37.2280   27.8380   42.0610 C   0  0  0  0  0  0  0  0  0  0  0  0
   39.7720   28.6120   40.5550 H   0  0  0  0  0  0  0  0  0  0  0  0
   39.4170   26.9100   39.8410 H   0  0  0  0  0  0  0  0  0  0  0  0
   40.8430   27.0110   41.7920 H   0  0  0  0  0  0  0  0  0  0  0  0
   39.3420   26.0680   41.9910 H   0  0  0  0  0  0  0  0  0  0  0  0
   39.9650   27.6980   43.8630 H   0  0  0  0  0  0  0  0  0  0  0  0
   37.7090   27.9460   44.1180 H   0  0  0  0  0  0  0  0  0  0  0  0
   37.9850   29.4290   43.2100 H   0  0  0  0  0  0  0  0  0  0  0  0
   36.9520   26.7600   42.2600 H   0  0  0  0  0  0  0  0  0  0  0  0
   36.2750   28.4610   42.0970 H   0  0  0  0  0  0  0  0  0  0  0  0
   35.8160   30.9240   41.3500 O   0  0  0  0  0  0  0  0  0  0  0  0
   36.7060   31.2960   40.5340 C   0  0  0  0  0  0  0  0  0  0  0  0
   37.4720   30.6410   39.4320 C   0  0  2  0  0  3  0  0  0  0  0  0
   37.1540   31.7450   38.3690 C   0  0  0  0  0  3  0  0  0  0  0  0
   37.7420   31.5840   37.4560 H   0  0  0  0  0  0  0  0  0  0  0  0
   37.6170   32.9570   39.1710 C   0  0  0  0  0  3  0  0  0  0  0  0
   38.7200   33.0120   39.1870 H   0  0  0  0  0  0  0  0  0  0  0  0
   37.2030   32.6280   40.5440 N   0  0  0  0  0  0  0  0  0  0  0  0
   37.3060   33.3440   41.3180 H   0  0  0  0  0  0  0  0  0  0  0  0
  1  7  1  0  0  0  0
  1  2  1  0  0  0  0
  2  9  1  0  0  0  0
  3  2  2  0  0  0  0
  4  3  1  0  0  0  0
  5  4  2  0  0  0  0
  5  6  1  0  0  0  0
  6  1  2  0  0  0  0
  8  5  1  0  0  0  0
  9 14  1  0  0  0  0
 10  9  1  0  0  0  0
 10 11  1  0  0  0  0
 11 18  1  0  0  0  0
 11 12  1  0  0  0  0
 12 13  1  0  0  0  0
 12 19  1  0  0  0  0
 13 21  1  0  0  0  0
 13 20  1  0  0  0  0
 14 23  1  0  0  0  0
 14 22  1  0  0  0  0
 14 13  1  0  0  0  0
 15 10  1  0  0  0  0
 16 10  1  0  0  0  0
 17 11  1  0  0  0  0
 25 31  1  0  0  0  0
 25 24  2  0  0  0  0
 26  3  1  6  0  0  0
 26 25  1  0  0  0  0
 27 29  1  0  0  0  0
 27 26  1  0  0  0  0
 28 27  1  0  0  0  0
 29 30  1  0  0  0  0
 29 31  1  0  0  0  0
 31 32  1  0  0  0  0
M  END
>  <minimizedAffinity>
-4.5265708

$$$$

 OpenBabel03242523043D

 32 34  0  0  1  0  0  0  0  0999 V2000
   38.1510   24.2820   39.9710 C   0  0  0  0  0  0  0  0  0  0  0  0
   38.4360   25.4630   40.7060 C   0  0  0  0  0  0  0  0  0  0  0  0
   37.6230   26.5810   40.6030 C   0  0  0  0  0  0  0  0  0  0  0  0
   36.5540   26.4990   39.7730 N   0  0  0  0  0  0  0  0  0  0  0  0
   36.2750   25.3590   39.0600 C   0  0  0  0  0  0  0  0  0  0  0  0
   37.0630   24.2610   39.1570 N   0  0  0  0  0  0  0  0  0  0  0  0
   38.7580   23.3920   40.0250 H   0  0  0  0  0  0  0  0  0  0  0  0
   35.4070   25.3380   38.4060 H   0  0  0  0  0  0  0  0  0  0  0  0
   39.6130   25.4120   41.4770 N   0  0  0  0  0  0  0  0  0  0  0  0
   39.6000   24.9100   42.8000 C   0  0  0  0  0  0  0  0  0  0  0  0
   40.8590   25.2860   43.5340 C   0  0  0  0  0  0  0  0  0  0  0  0
   42.0220   24.9200   42.8330 N   0  0  0  0  0  0  0  0  0  0  0  0
   42.0420   25.2070   41.4560 C   0  0  0  0  0  0  0  0  0  0  0  0
   40.8690   25.9200   40.9850 C   0  0  0  0  0  0  0  0  0  0  0  0
   39.6760   23.8170   42.8550 H   0  0  0  0  0  0  0  0  0  0  0  0
   38.7900   25.3720   43.4270 H   0  0  0  0  0  0  0  0  0  0  0  0
   40.8670   24.8160   44.5350 H   0  0  0  0  0  0  0  0  0  0  0  0
   40.8450   26.3930   43.7020 H   0  0  0  0  0  0  0  0  0  0  0  0
   42.8980   24.9050   43.3540 H   0  0  0  0  0  0  0  0  0  0  0  0
   42.9630   25.8360   41.2680 H   0  0  0  0  0  0  0  0  0  0  0  0
   42.2140   24.3140   40.7990 H   0  0  0  0  0  0  0  0  0  0  0  0
   40.9500   27.0080   41.2790 H   0  0  0  0  0  0  0  0  0  0  0  0
   40.8700   25.8580   39.8480 H   0  0  0  0  0  0  0  0  0  0  0  0
   36.3990   27.0130   43.3250 O   0  0  0  0  0  0  0  0  0  0  0  0
   36.9790   27.8690   42.6010 C   0  0  0  0  0  0  0  0  0  0  0  0
   37.7780   27.8220   41.3410 C   0  0  2  0  0  3  0  0  0  0  0  0
   36.9460   28.9270   40.6090 C   0  0  0  0  0  3  0  0  0  0  0  0
   37.4280   29.2120   39.6640 H   0  0  0  0  0  0  0  0  0  0  0  0
   37.0400   30.0110   41.6770 C   0  0  0  0  0  3  0  0  0  0  0  0
   38.0390   30.4800   41.6670 H   0  0  0  0  0  0  0  0  0  0  0  0
   36.9560   29.2520   42.9340 N   0  0  0  0  0  0  0  0  0  0  0  0
   36.8930   29.7590   43.8610 H   0  0  0  0  0  0  0  0  0  0  0  0
  1  7  1  0  0  0  0
  1  2  1  0  0  0  0
  2  9  1  0  0  0  0
  3  2  2  0  0  0  0
  4  3  1  0  0  0  0
  5  6  1  0  0  0  0
  5  4  2  0  0  0  0
  6  1  2  0  0  0  0
  8  5  1  0  0  0  0
  9 10  1  0  0  0  0
 10 15  1  0  0  0  0
 10 16  1  0  0  0  0
 10 11  1  0  0  0  0
 11 18  1  0  0  0  0
 11 17  1  0  0  0  0
 12 19  1  0  0  0  0
 12 11  1  0  0  0  0
 13 12  1  0  0  0  0
 14 22  1  0  0  0  0
 14 13  1  0  0  0  0
 14  9  1  0  0  0  0
 20 13  1  0  0  0  0
 21 13  1  0  0  0  0
 23 14  1  0  0  0  0
 25 31  1  0  0  0  0
 25 24  2  0  0  0  0
 26  3  1  6  0  0  0
 26 25  1  0  0  0  0
 27 26  1  0  0  0  0
 27 29  1  0  0  0  0
 28 27  1  0  0  0  0
 29 31  1  0  0  0  0
 30 29  1  0  0  0  0
 31 32  1  0  0  0  0
M  END
>  <minimizedAffinity>
-4.52039146

$$$$

 OpenBabel03242523043D

 32 34  0  0  1  0  0  0  0  0999 V2000
   36.8990   30.2780   38.1520 C   0  0  0  0  0  0  0  0  0  0  0  0
   37.3410   30.2650   39.5020 C   0  0  0  0  0  0  0  0  0  0  0  0
   36.9880   29.2350   40.3590 C   0  0  0  0  0  0  0  0  0  0  0  0
   36.2030   28.2500   39.8570 N   0  0  0  0  0  0  0  0  0  0  0  0
   35.7730   28.2590   38.5540 C   0  0  0  0  0  0  0  0  0  0  0  0
   36.1160   29.2600   37.7080 N   0  0  0  0  0  0  0  0  0  0  0  0
   37.1530   31.0600   37.4550 H   0  0  0  0  0  0  0  0  0  0  0  0
   35.1440   27.4470   38.1940 H   0  0  0  0  0  0  0  0  0  0  0  0
   38.0990   31.3880   39.8870 N   0  0  0  0  0  0  0  0  0  0  0  0
   37.4740   32.5890   40.2960 C   0  0  0  0  0  0  0  0  0  0  0  0
   38.4510   33.7330   40.3050 C   0  0  0  0  0  0  0  0  0  0  0  0
   39.6060   33.4480   41.0550 N   0  0  0  0  0  0  0  0  0  0  0  0
   40.1900   32.1850   40.8550 C   0  0  0  0  0  0  0  0  0  0  0  0
   39.5400   31.3900   39.8290 C   0  0  0  0  0  0  0  0  0  0  0  0
   37.1780   32.5920   41.3520 H   0  0  0  0  0  0  0  0  0  0  0  0
   36.6860   32.9310   39.5710 H   0  0  0  0  0  0  0  0  0  0  0  0
   37.9650   34.6430   40.7060 H   0  0  0  0  0  0  0  0  0  0  0  0
   38.7290   33.9610   39.2450 H   0  0  0  0  0  0  0  0  0  0  0  0
   40.1970   34.2350   41.3230 H   0  0  0  0  0  0  0  0  0  0  0  0
   41.2670   32.3660   40.5620 H   0  0  0  0  0  0  0  0  0  0  0  0
   40.2880   31.5670   41.7870 H   0  0  0  0  0  0  0  0  0  0  0  0
   39.8520   31.7670   38.8110 H   0  0  0  0  0  0  0  0  0  0  0  0
   39.9140   30.3210   39.9430 H   0  0  0  0  0  0  0  0  0  0  0  0
   39.6790   28.0910   41.0960 O   0  0  0  0  0  0  0  0  0  0  0  0
   38.7260   28.3720   41.8750 C   0  0  0  0  0  0  0  0  0  0  0  0
   37.4200   29.0830   41.7360 C   0  0  2  0  0  3  0  0  0  0  0  0
   36.5710   27.9400   42.3870 C   0  0  0  0  0  3  0  0  0  0  0  0
   35.5380   28.2720   42.5530 H   0  0  0  0  0  0  0  0  0  0  0  0
   37.3650   27.7900   43.6800 C   0  0  0  0  0  3  0  0  0  0  0  0
   37.1380   28.6200   44.3720 H   0  0  0  0  0  0  0  0  0  0  0  0
   38.7560   27.9880   43.2440 N   0  0  0  0  0  0  0  0  0  0  0  0
   39.5540   27.8390   43.9240 H   0  0  0  0  0  0  0  0  0  0  0  0
  1  2  1  0  0  0  0
  2  9  1  0  0  0  0
  2  3  2  0  0  0  0
  4  3  1  0  0  0  0
  5  4  2  0  0  0  0
  6  1  2  0  0  0  0
  6  5  1  0  0  0  0
  7  1  1  0  0  0  0
  8  5  1  0  0  0  0
  9 10  1  0  0  0  0
 10 11  1  0  0  0  0
 10 15  1  0  0  0  0
 11 17  1  0  0  0  0
 11 12  1  0  0  0  0
 12 19  1  0  0  0  0
 13 12  1  0  0  0  0
 13 21  1  0  0  0  0
 14  9  1  0  0  0  0
 14 23  1  0  0  0  0
 14 13  1  0  0  0  0
 16 10  1  0  0  0  0
 18 11  1  0  0  0  0
 20 13  1  0  0  0  0
 22 14  1  0  0  0  0
 24 25  2  0  0  0  0
 25 31  1  0  0  0  0
 26  3  1  6  0  0  0
 26 25  1  0  0  0  0
 26 27  1  0  0  0  0
 27 28  1  0  0  0  0
 27 29  1  0  0  0  0
 29 30  1  0  0  0  0
 31 29  1  0  0  0  0
 31 32  1  0  0  0  0
M  END
>  <minimizedAffinity>
-4.51750898

$$$$

 OpenBabel03242523043D

 32 34  0  0  1  0  0  0  0  0999 V2000
   39.6590   32.0260   38.1930 C   0  0  0  0  0  0  0  0  0  0  0  0
   39.0020   30.9850   38.9020 C   0  0  0  0  0  0  0  0  0  0  0  0
   39.1190   30.8750   40.2790 C   0  0  0  0  0  0  0  0  0  0  0  0
   39.8860   31.7960   40.9140 N   0  0  0  0  0  0  0  0  0  0  0  0
   40.5240   32.8030   40.2320 C   0  0  0  0  0  0  0  0  0  0  0  0
   40.4130   32.9190   38.8870 N   0  0  0  0  0  0  0  0  0  0  0  0
   39.5920   32.1460   37.1240 H   0  0  0  0  0  0  0  0  0  0  0  0
   41.1290   33.5190   40.7830 H   0  0  0  0  0  0  0  0  0  0  0  0
   38.2920   30.0750   38.0960 N   0  0  0  0  0  0  0  0  0  0  0  0
   38.9260   28.9410   37.5370 C   0  0  0  0  0  0  0  0  0  0  0  0
   38.0890   28.3340   36.4440 C   0  0  0  0  0  0  0  0  0  0  0  0
   36.7740   28.0610   36.8620 N   0  0  0  0  0  0  0  0  0  0  0  0
   36.1270   29.0680   37.6010 C   0  0  0  0  0  0  0  0  0  0  0  0
   36.9070   30.2830   37.7510 C   0  0  0  0  0  0  0  0  0  0  0  0
   38.9790   28.0860   38.2230 H   0  0  0  0  0  0  0  0  0  0  0  0
   39.8840   29.2010   37.0110 H   0  0  0  0  0  0  0  0  0  0  0  0
   38.5610   27.4040   36.0780 H   0  0  0  0  0  0  0  0  0  0  0  0
   38.0760   29.0470   35.5810 H   0  0  0  0  0  0  0  0  0  0  0  0
   36.2190   27.4320   36.2820 H   0  0  0  0  0  0  0  0  0  0  0  0
   35.1650   29.3050   37.0560 H   0  0  0  0  0  0  0  0  0  0  0  0
   35.7650   28.7400   38.6120 H   0  0  0  0  0  0  0  0  0  0  0  0
   36.8670   30.8740   36.7900 H   0  0  0  0  0  0  0  0  0  0  0  0
   36.4140   30.9020   38.5700 H   0  0  0  0  0  0  0  0  0  0  0  0
   36.2360   31.1490   41.1230 O   0  0  0  0  0  0  0  0  0  0  0  0
   37.0750   30.2950   41.5240 C   0  0  0  0  0  0  0  0  0  0  0  0
   38.4540   29.8940   41.1180 C   0  0  2  0  0  3  0  0  0  0  0  0
   39.0590   30.0000   42.5580 C   0  0  0  0  0  3  0  0  0  0  0  0
   40.0810   29.6000   42.5790 H   0  0  0  0  0  0  0  0  0  0  0  0
   38.0540   29.1090   43.2800 C   0  0  0  0  0  3  0  0  0  0  0  0
   38.2530   28.0450   43.0620 H   0  0  0  0  0  0  0  0  0  0  0  0
   36.7820   29.4320   42.6160 N   0  0  0  0  0  0  0  0  0  0  0  0
   35.8730   29.0310   42.9820 H   0  0  0  0  0  0  0  0  0  0  0  0
  1  6  2  0  0  0  0
  1  2  1  0  0  0  0
  2  3  2  0  0  0  0
  3  4  1  0  0  0  0
  5  8  1  0  0  0  0
  5  4  2  0  0  0  0
  6  5  1  0  0  0  0
  7  1  1  0  0  0  0
  9  2  1  0  0  0  0
 10  9  1  0  0  0  0
 10 15  1  0  0  0  0
 11 12  1  0  0  0  0
 11 10  1  0  0  0  0
 12 13  1  0  0  0  0
 13 14  1  0  0  0  0
 13 21  1  0  0  0  0
 14  9  1  0  0  0  0
 14 23  1  0  0  0  0
 16 10  1  0  0  0  0
 17 11  1  0  0  0  0
 18 11  1  0  0  0  0
 19 12  1  0  0  0  0
 20 13  1  0  0  0  0
 22 14  1  0  0  0  0
 24 25  2  0  0  0  0
 25 31  1  0  0  0  0
 26  3  1  6  0  0  0
 26 25  1  0  0  0  0
 26 27  1  0  0  0  0
 27 28  1  0  0  0  0
 27 29  1  0  0  0  0
 30 29  1  0  0  0  0
 31 32  1  0  0  0  0
 31 29  1  0  0  0  0
M  END
>  <minimizedAffinity>
-4.51485968

$$$$

 OpenBabel03242523043D

 32 34  0  0  1  0  0  0  0  0999 V2000
   41.1410   28.1320   40.9700 C   0  0  0  0  0  0  0  0  0  0  0  0
   40.0190   27.2740   41.1150 C   0  0  0  0  0  0  0  0  0  0  0  0
   40.0080   26.0100   40.5450 C   0  0  0  0  0  0  0  0  0  0  0  0
   41.1080   25.6340   39.8460 N   0  0  0  0  0  0  0  0  0  0  0  0
   42.1940   26.4610   39.7020 C   0  0  0  0  0  0  0  0  0  0  0  0
   42.2130   27.6960   40.2580 N   0  0  0  0  0  0  0  0  0  0  0  0
   41.1880   29.1210   41.3970 H   0  0  0  0  0  0  0  0  0  0  0  0
   43.0540   26.1180   39.1320 H   0  0  0  0  0  0  0  0  0  0  0  0
   38.9340   27.8300   41.8190 N   0  0  0  0  0  0  0  0  0  0  0  0
   38.8030   27.6610   43.2170 C   0  0  0  0  0  0  0  0  0  0  0  0
   37.4160   28.0170   43.6790 C   0  0  0  0  0  0  0  0  0  0  0  0
   37.0180   29.2970   43.2550 N   0  0  0  0  0  0  0  0  0  0  0  0
   37.2890   29.6280   41.9150 C   0  0  0  0  0  0  0  0  0  0  0  0
   37.8760   28.5450   41.1470 C   0  0  0  0  0  0  0  0  0  0  0  0
   39.3820   28.3860   43.8020 H   0  0  0  0  0  0  0  0  0  0  0  0
   38.9110   26.5880   43.5310 H   0  0  0  0  0  0  0  0  0  0  0  0
   37.3580   27.9580   44.7820 H   0  0  0  0  0  0  0  0  0  0  0  0
   36.7090   27.2440   43.2810 H   0  0  0  0  0  0  0  0  0  0  0  0
   36.2140   29.7170   43.7210 H   0  0  0  0  0  0  0  0  0  0  0  0
   36.3030   29.9270   41.4480 H   0  0  0  0  0  0  0  0  0  0  0  0
   37.9150   30.5500   41.7830 H   0  0  0  0  0  0  0  0  0  0  0  0
   37.0700   27.8040   40.8690 H   0  0  0  0  0  0  0  0  0  0  0  0
   38.2910   28.9970   40.1880 H   0  0  0  0  0  0  0  0  0  0  0  0
   39.7340   24.2170   42.9550 O   0  0  0  0  0  0  0  0  0  0  0  0
   39.0820   24.1560   41.8760 C   0  0  0  0  0  0  0  0  0  0  0  0
   38.9490   25.0250   40.6690 C   0  0  2  0  0  3  0  0  0  0  0  0
   39.2320   23.8790   39.6420 C   0  0  0  0  0  3  0  0  0  0  0  0
   39.0460   24.2230   38.6160 H   0  0  0  0  0  0  0  0  0  0  0  0
   38.1880   22.8830   40.1360 C   0  0  0  0  0  3  0  0  0  0  0  0
   37.1780   23.1900   39.8130 H   0  0  0  0  0  0  0  0  0  0  0  0
   38.2230   23.0580   41.5960 N   0  0  0  0  0  0  0  0  0  0  0  0
   37.6630   22.4140   42.2230 H   0  0  0  0  0  0  0  0  0  0  0  0
  1  2  1  0  0  0  0
  1  7  1  0  0  0  0
  2  9  1  0  0  0  0
  3  2  2  0  0  0  0
  4  3  1  0  0  0  0
  5  4  2  0  0  0  0
  5  6  1  0  0  0  0
  6  1  2  0  0  0  0
  8  5  1  0  0  0  0
  9 10  1  0  0  0  0
 10 16  1  0  0  0  0
 10 11  1  0  0  0  0
 10 15  1  0  0  0  0
 11 17  1  0  0  0  0
 12 11  1  0  0  0  0
 12 19  1  0  0  0  0
 13 12  1  0  0  0  0
 14  9  1  0  0  0  0
 14 13  1  0  0  0  0
 18 11  1  0  0  0  0
 20 13  1  0  0  0  0
 21 13  1  0  0  0  0
 22 14  1  0  0  0  0
 23 14  1  0  0  0  0
 25 24  2  0  0  0  0
 26  3  1  1  0  0  0
 26 25  1  0  0  0  0
 27 29  1  0  0  0  0
 27 26  1  0  0  0  0
 28 27  1  0  0  0  0
 29 31  1  0  0  0  0
 30 29  1  0  0  0  0
 31 25  1  0  0  0  0
 31 32  1  0  0  0  0
M  END
>  <minimizedAffinity>
-4.3823185

$$$$
