
 OpenBabel03242514413D

 32 34  0  0  1  0  0  0  0  0999 V2000
   47.1360   34.3540   42.5330 N   0  0  0  0  0  0  0  0  0  0  0  0
   48.5590   34.1050   42.8000 C   0  0  0  0  0  0  0  0  0  0  0  0
   49.4270   34.3730   41.6200 C   0  0  0  0  0  0  0  0  0  0  0  0
   48.9900   33.7120   40.4490 N   0  0  0  0  0  0  0  0  0  0  0  0
   47.6060   33.7510   40.2000 C   0  0  0  0  0  0  0  0  0  0  0  0
   46.6820   34.3190   41.2060 C   0  0  1  0  0  0  0  0  0  0  0  0
   48.8900   34.7530   43.6380 H   0  0  0  0  0  0  0  0  0  0  0  0
   48.6410   33.0430   43.1300 H   0  0  0  0  0  0  0  0  0  0  0  0
   50.4500   34.0630   41.8850 H   0  0  0  0  0  0  0  0  0  0  0  0
   49.3720   35.4790   41.4060 H   0  0  0  0  0  0  0  0  0  0  0  0
   49.4180   32.7540   40.4420 H   0  0  0  0  0  0  0  0  0  0  0  0
   47.3020   32.6870   39.9600 H   0  0  0  0  0  0  0  0  0  0  0  0
   47.4560   34.2770   39.2330 H   0  0  0  0  0  0  0  0  0  0  0  0
   46.4550   35.3900   40.9080 H   0  0  0  0  0  0  0  0  0  0  0  0
   45.2700   34.1570   45.7690 C   0  0  0  0  0  0  0  0  0  0  0  0
   46.1950   33.7760   44.7590 C   0  0  0  0  0  0  0  0  0  0  0  0
   46.2610   34.6230   43.6230 C   0  0  0  0  0  0  0  0  0  0  0  0
   45.4540   35.7430   43.5480 N   0  0  0  0  0  0  0  0  0  0  0  0
   44.5940   36.0240   44.5760 C   0  0  0  0  0  0  0  0  0  0  0  0
   44.5100   35.2370   45.6670 N   0  0  0  0  0  0  0  0  0  0  0  0
   45.3310   33.4250   46.5630 H   0  0  0  0  0  0  0  0  0  0  0  0
   46.8370   32.9330   44.7600 H   0  0  0  0  0  0  0  0  0  0  0  0
   43.9460   36.8890   44.5560 H   0  0  0  0  0  0  0  0  0  0  0  0
   45.2890   31.3370   42.3290 O   0  0  0  0  0  0  0  0  0  0  0  0
   45.5920   32.1250   41.4010 C   0  0  0  0  0  0  0  0  0  0  0  0
   45.3610   33.6030   41.0380 C   0  0  2  0  0  0  0  0  0  0  0  0
   44.9410   33.3730   39.6140 C   0  0  0  0  0  0  0  0  0  0  0  0
   44.0010   32.7380   39.7010 H   0  0  0  0  0  0  0  0  0  0  0  0
   45.9910   32.4120   39.0560 C   0  0  0  0  0  0  0  0  0  0  0  0
   45.5370   31.6970   38.3410 H   0  0  0  0  0  0  0  0  0  0  0  0
   46.3820   31.6790   40.2750 N   0  0  0  0  0  0  0  0  0  0  0  0
   47.1480   30.9480   40.2160 H   0  0  0  0  0  0  0  0  0  0  0  0
  1  2  1  0  0  0  0
  1 17  1  0  0  0  0
  2  8  1  0  0  0  0
  2  7  1  0  0  0  0
  3  9  1  0  0  0  0
  3  2  1  0  0  0  0
  4  3  1  0  0  0  0
  5  4  1  0  0  0  0
  5  6  1  0  0  0  0
  6 14  1  6  0  0  0
  6  1  1  0  0  0  0
 10  3  1  0  0  0  0
 11  4  1  0  0  0  0
 12  5  1  0  0  0  0
 13  5  1  0  0  0  0
 15 21  1  0  0  0  0
 16 22  1  0  0  0  0
 16 15  2  0  0  0  0
 17 16  1  0  0  0  0
 18 17  2  0  0  0  0
 18 19  1  0  0  0  0
 19 20  2  0  0  0  0
 20 15  1  0  0  0  0
 23 19  1  0  0  0  0
 25 24  2  0  0  0  0
 26 27  1  6  0  0  0
 26  6  1  0  0  0  0
 26 25  1  0  0  0  0
 27 28  1  0  0  0  0
 29 27  1  0  0  0  0
 29 31  1  0  0  0  0
 30 29  1  0  0  0  0
 31 25  1  0  0  0  0
 32 31  1  0  0  0  0
M  END
>  <minimizedAffinity>
-4.49094105

>  <minimizedRMSD>
4.0627799

$$$$
