
 OpenBabel03242523203D

 37 40  0  0  1  0  0  0  0  0999 V2000
   44.5430   31.7970   42.8930 Cl  0  0  0  0  0  0  0  0  0  0  0  0
   44.5780   33.5540   42.7990 C   0  0  0  0  0  0  0  0  0  0  0  0
   45.4530   34.1910   43.7030 C   0  0  0  0  0  0  0  0  0  0  0  0
   45.4140   35.5660   43.5310 C   0  0  0  0  0  0  0  0  0  0  0  0
   44.7000   36.3050   42.6710 C   0  0  0  0  0  0  0  0  0  0  0  0
   43.8810   35.6100   41.8330 C   0  0  0  0  0  0  0  0  0  0  0  0
   43.8010   34.2530   41.8760 C   0  0  0  0  0  0  0  0  0  0  0  0
   46.0210   36.2220   44.1910 H   0  0  0  0  0  0  0  0  0  0  0  0
   44.7110   37.3800   42.5780 H   0  0  0  0  0  0  0  0  0  0  0  0
   43.2270   36.0310   41.0710 H   0  0  0  0  0  0  0  0  0  0  0  0
   44.3880   33.3720   39.0090 O   0  0  0  0  0  0  0  0  0  0  0  0
   43.2650   33.6490   39.5540 C   0  0  0  0  0  0  0  0  0  0  0  0
   42.9360   33.4080   41.0060 C   0  0  2  0  0  3  0  0  0  0  0  0
   41.4950   33.7220   41.0470 C   0  0  0  0  0  3  0  0  0  0  0  0
   41.2350   34.7480   41.3720 H   0  0  0  0  0  0  0  0  0  0  0  0
   40.9700   33.6470   39.6230 C   0  0  0  0  0  3  0  0  0  0  0  0
   40.8780   32.5650   39.3270 H   0  0  0  0  0  0  0  0  0  0  0  0
   42.1130   34.2330   38.9100 N   0  0  0  0  0  0  0  0  0  0  0  0
   42.1760   34.9140   38.1180 H   0  0  0  0  0  0  0  0  0  0  0  0
   46.3220   33.5280   44.7080 C   0  0  0  0  0  0  0  0  0  0  0  0
   45.7420   33.8990   45.7000 O   0  0  0  0  0  0  0  0  0  0  0  0
   47.3890   32.8000   44.0070 C   0  0  0  0  0  0  0  0  0  0  0  0
   48.2440   33.3100   43.1110 C   0  0  0  0  0  0  0  0  0  0  0  0
   49.0790   32.3780   42.5270 C   0  0  0  0  0  0  0  0  0  0  0  0
   48.9670   31.0340   42.9150 N   0  0  0  0  0  0  0  0  0  0  0  0
   48.1050   30.6100   43.8050 C   0  0  0  0  0  0  0  0  0  0  0  0
   47.2500   31.5090   44.4100 N   0  0  0  0  0  0  0  0  0  0  0  0
   49.8300   32.6180   41.7780 H   0  0  0  0  0  0  0  0  0  0  0  0
   48.1400   29.5430   44.0000 H   0  0  0  0  0  0  0  0  0  0  0  0
   48.4370   34.6820   42.8070 C   0  0  0  0  0  0  0  0  0  0  0  0
   49.4700   35.2680   42.1430 C   0  0  0  0  0  0  0  0  0  0  0  0
   48.2420   35.1090   41.2870 C   0  0  0  0  0  0  0  0  0  0  0  0
   47.9760   35.3760   43.5360 H   0  0  0  0  0  0  0  0  0  0  0  0
   50.3340   34.6380   41.7750 H   0  0  0  0  0  0  0  0  0  0  0  0
   49.8140   36.3260   42.1540 H   0  0  0  0  0  0  0  0  0  0  0  0
   47.5380   35.9420   41.1640 H   0  0  0  0  0  0  0  0  0  0  0  0
   48.1780   34.2320   40.6050 H   0  0  0  0  0  0  0  0  0  0  0  0
  2  1  1  0  0  0  0
  2  3  1  0  0  0  0
  3 20  1  0  0  0  0
  4  3  2  0  0  0  0
  4  8  1  0  0  0  0
  5  4  1  0  0  0  0
  6  7  1  0  0  0  0
  6  5  2  0  0  0  0
  7  2  2  0  0  0  0
  9  5  1  0  0  0  0
 10  6  1  0  0  0  0
 11 12  2  0  0  0  0
 12 13  1  0  0  0  0
 13 14  1  0  0  0  0
 13  7  1  1  0  0  0
 14 15  1  0  0  0  0
 16 14  1  0  0  0  0
 17 16  1  0  0  0  0
 18 12  1  0  0  0  0
 18 16  1  0  0  0  0
 19 18  1  0  0  0  0
 20 21  2  0  0  0  0
 22 27  1  0  0  0  0
 22 20  1  0  0  0  0
 23 22  2  0  0  0  0
 24 25  2  0  0  0  0
 24 23  1  0  0  0  0
 25 26  1  0  0  0  0
 26 29  1  0  0  0  0
 26 27  2  0  0  0  0
 28 24  1  0  0  0  0
 30 23  1  0  0  0  0
 30 33  1  0  0  0  0
 31 35  1  0  0  0  0
 31 30  1  0  0  0  0
 32 31  1  0  0  0  0
 32 30  1  0  0  0  0
 34 31  1  0  0  0  0
 36 32  1  0  0  0  0
 37 32  1  0  0  0  0
M  END
>  <minimizedAffinity>
-5.70249796

>  <minimizedRMSD>
0.665023565

$$$$
