
 OpenBabel03252509333D

 40 42  0  0  1  0  0  0  0  0999 V2000
   46.4730   33.1230   41.8960 C   0  0  1  0  0  0  0  0  0  0  0  0
   45.8810   33.5830   40.5700 C   0  0  0  0  0  0  0  0  0  0  0  0
   45.9920   32.3510   39.7260 C   0  0  0  0  0  0  0  0  0  0  0  0
   47.1290   31.5460   40.2920 C   0  0  0  0  0  0  0  0  0  0  0  0
   47.7130   32.4170   41.4160 C   0  0  1  0  0  0  0  0  0  0  0  0
   45.8040   32.3390   42.3160 H   0  0  0  0  0  0  0  0  0  0  0  0
   46.3870   34.4650   40.1720 H   0  0  0  0  0  0  0  0  0  0  0  0
   44.7920   33.7660   40.7740 H   0  0  0  0  0  0  0  0  0  0  0  0
   45.0590   31.7520   39.6740 H   0  0  0  0  0  0  0  0  0  0  0  0
   46.2400   32.6890   38.6860 H   0  0  0  0  0  0  0  0  0  0  0  0
   47.8830   31.3460   39.5150 H   0  0  0  0  0  0  0  0  0  0  0  0
   46.7640   30.5750   40.6850 H   0  0  0  0  0  0  0  0  0  0  0  0
   48.0030   31.6880   42.2110 H   0  0  0  0  0  0  0  0  0  0  0  0
   49.6970   32.1860   38.7820 O   0  0  0  0  0  0  0  0  0  0  0  0
   49.7580   32.5100   40.0210 C   0  0  0  0  0  0  0  0  0  0  0  0
   48.8320   33.2620   40.9520 C   0  0  2  0  0  3  0  0  0  0  0  0
   49.7800   33.5420   42.0960 C   0  0  0  0  0  3  0  0  0  0  0  0
   49.2980   33.5950   43.0830 H   0  0  0  0  0  0  0  0  0  0  0  0
   50.6380   32.2710   42.1050 C   0  0  0  0  0  3  0  0  0  0  0  0
   50.0160   31.4490   42.4580 H   0  0  0  0  0  0  0  0  0  0  0  0
   50.9280   32.0940   40.7100 N   0  0  0  0  0  0  0  0  0  0  0  0
   51.8470   31.7280   40.3820 H   0  0  0  0  0  0  0  0  0  0  0  0
   46.6960   34.1580   42.7640 O   0  0  0  0  0  0  0  0  0  0  0  0
   45.0700   35.4310   44.3250 O   0  0  0  0  0  0  0  0  0  0  0  0
   45.6390   34.0690   44.0570 P   0  0  1  0  0  0  0  0  0  0  0  0
   44.4590   32.9070   43.7860 O   0  0  0  0  0  0  0  0  0  0  0  0
   43.6810   33.3890   43.3680 H   0  0  0  0  0  0  0  0  0  0  0  0
   46.5020   33.5510   45.4230 O   0  0  0  0  0  0  0  0  0  0  0  0
   46.4630   32.1860   45.4530 C   0  0  0  0  0  0  0  0  0  0  0  0
   45.9100   31.6590   44.6930 H   0  0  0  0  0  0  0  0  0  0  0  0
   47.5320   31.8350   45.3410 H   0  0  0  0  0  0  0  0  0  0  0  0
   45.7450   31.9850   49.0980 C   0  0  0  0  0  0  0  0  0  0  0  0
   46.1640   32.5020   47.8680 C   0  0  0  0  0  0  0  0  0  0  0  0
   46.0310   31.6700   46.7580 C   0  0  0  0  0  0  0  0  0  0  0  0
   45.5070   30.4140   46.9250 N   0  0  0  0  0  0  0  0  0  0  0  0
   45.1140   29.9550   48.1360 C   0  0  0  0  0  0  0  0  0  0  0  0
   45.2370   30.7360   49.1980 N   0  0  0  0  0  0  0  0  0  0  0  0
   45.8530   32.6400   49.9560 H   0  0  0  0  0  0  0  0  0  0  0  0
   46.5720   33.4930   47.7670 H   0  0  0  0  0  0  0  0  0  0  0  0
   44.7070   28.9580   48.2230 H   0  0  0  0  0  0  0  0  0  0  0  0
  1  6  1  1  0  0  0
  1 23  1  0  0  0  0
  2  8  1  0  0  0  0
  2  1  1  0  0  0  0
  3  4  1  0  0  0  0
  3  2  1  0  0  0  0
  4 12  1  0  0  0  0
  4  5  1  0  0  0  0
  5  1  1  0  0  0  0
  5 13  1  1  0  0  0
  7  2  1  0  0  0  0
  9  3  1  0  0  0  0
 10  3  1  0  0  0  0
 11  4  1  0  0  0  0
 14 15  2  0  0  0  0
 15 21  1  0  0  0  0
 16 15  1  6  0  0  0
 16  5  1  0  0  0  0
 16 17  1  0  0  0  0
 17 19  1  0  0  0  0
 17 18  1  0  0  0  0
 19 20  1  0  0  0  0
 21 19  1  0  0  0  0
 22 21  1  0  0  0  0
 23 25  1  0  0  0  0
 25 24  2  1  0  0  0
 25 28  1  0  0  0  0
 26 25  1  0  0  0  0
 27 26  1  0  0  0  0
 28 29  1  0  0  0  0
 29 34  1  0  0  0  0
 30 29  1  0  0  0  0
 31 29  1  0  0  0  0
 32 37  1  0  0  0  0
 32 38  1  0  0  0  0
 33 32  2  0  0  0  0
 34 35  2  0  0  0  0
 34 33  1  0  0  0  0
 35 36  1  0  0  0  0
 36 40  1  0  0  0  0
 36 37  2  0  0  0  0
 39 33  1  0  0  0  0
M  END
>  <minimizedAffinity>
-4.81720543

>  <minimizedRMSD>
2.7964623

$$$$
