
 OpenBabel03252508323D

 32 34  0  0  1  0  0  0  0  0999 V2000
   44.6850   34.3280   41.6320 N   0  0  0  0  0  0  0  0  0  0  0  0
   45.5470   33.4090   40.9780 C   0  0  1  0  0  0  0  0  0  0  0  0
   45.2380   33.1900   39.5290 C   0  0  0  0  0  0  0  0  0  0  0  0
   43.8870   33.1880   39.1650 N   0  0  0  0  0  0  0  0  0  0  0  0
   43.0660   34.1330   39.8000 C   0  0  0  0  0  0  0  0  0  0  0  0
   43.8130   35.0340   40.7340 C   0  0  0  0  0  0  0  0  0  0  0  0
   45.4630   32.4290   41.4940 H   0  0  0  0  0  0  0  0  0  0  0  0
   45.6990   34.0770   39.0000 H   0  0  0  0  0  0  0  0  0  0  0  0
   45.7400   32.2650   39.1820 H   0  0  0  0  0  0  0  0  0  0  0  0
   43.7460   32.9730   38.1790 H   0  0  0  0  0  0  0  0  0  0  0  0
   42.2470   33.6240   40.3360 H   0  0  0  0  0  0  0  0  0  0  0  0
   42.6490   34.8140   39.0020 H   0  0  0  0  0  0  0  0  0  0  0  0
   43.1190   35.7530   41.1930 H   0  0  0  0  0  0  0  0  0  0  0  0
   44.4630   35.6630   40.0680 H   0  0  0  0  0  0  0  0  0  0  0  0
   44.3840   35.7180   43.5360 C   0  0  0  0  0  0  0  0  0  0  0  0
   44.7610   34.4630   43.0270 C   0  0  0  0  0  0  0  0  0  0  0  0
   45.1870   33.4940   43.9180 C   0  0  0  0  0  0  0  0  0  0  0  0
   45.2440   33.7490   45.2560 N   0  0  0  0  0  0  0  0  0  0  0  0
   44.8730   34.9790   45.7290 C   0  0  0  0  0  0  0  0  0  0  0  0
   44.4530   35.9370   44.8820 N   0  0  0  0  0  0  0  0  0  0  0  0
   44.0300   36.5950   43.0200 H   0  0  0  0  0  0  0  0  0  0  0  0
   45.4650   32.5220   43.5390 H   0  0  0  0  0  0  0  0  0  0  0  0
   44.9170   35.1810   46.7890 H   0  0  0  0  0  0  0  0  0  0  0  0
   47.6970   34.1550   38.4650 O   0  0  0  0  0  0  0  0  0  0  0  0
   47.6510   33.9940   39.7270 C   0  0  0  0  0  0  0  0  0  0  0  0
   47.0020   33.7780   41.0390 C   0  0  2  0  0  3  0  0  0  0  0  0
   47.8680   32.6670   41.5870 C   0  0  0  0  0  3  0  0  0  0  0  0
   47.9170   31.7910   40.9360 H   0  0  0  0  0  0  0  0  0  0  0  0
   49.2360   33.3560   41.4550 C   0  0  0  0  0  3  0  0  0  0  0  0
   49.4180   34.0550   42.2810 H   0  0  0  0  0  0  0  0  0  0  0  0
   49.0310   34.0490   40.1710 N   0  0  0  0  0  0  0  0  0  0  0  0
   49.9820   34.4350   39.8720 H   0  0  0  0  0  0  0  0  0  0  0  0
  1 16  1  0  0  0  0
  2 26  1  0  0  0  0
  2  7  1  1  0  0  0
  2  1  1  0  0  0  0
  3  2  1  0  0  0  0
  4  3  1  0  0  0  0
  4  5  1  0  0  0  0
  5 11  1  0  0  0  0
  5  6  1  0  0  0  0
  6 13  1  0  0  0  0
  6  1  1  0  0  0  0
  8  3  1  0  0  0  0
  9  3  1  0  0  0  0
 10  4  1  0  0  0  0
 12  5  1  0  0  0  0
 14  6  1  0  0  0  0
 15 20  1  0  0  0  0
 16 15  2  0  0  0  0
 16 17  1  0  0  0  0
 17 18  2  0  0  0  0
 18 19  1  0  0  0  0
 19 23  1  0  0  0  0
 20 19  2  0  0  0  0
 21 15  1  0  0  0  0
 22 17  1  0  0  0  0
 24 25  2  0  0  0  0
 25 31  1  0  0  0  0
 26 25  1  6  0  0  0
 26 27  1  0  0  0  0
 28 27  1  0  0  0  0
 29 27  1  0  0  0  0
 29 30  1  0  0  0  0
 31 29  1  0  0  0  0
 32 31  1  0  0  0  0
M  END
>  <minimizedAffinity>
-4.48623419

>  <minimizedRMSD>
1.41237009

$$$$
