
 OpenBabel03252508403D

 41 44  0  0  1  0  0  0  0  0999 V2000
   38.1640   28.3520   41.1850 C   0  0  0  0  0  0  0  0  0  0  0  0
   37.9410   29.4500   41.9670 C   0  0  0  0  0  0  0  0  0  0  0  0
   37.3850   29.2310   43.1950 C   0  0  0  0  0  0  0  0  0  0  0  0
   37.0450   27.9880   43.6780 C   0  0  0  0  0  0  0  0  0  0  0  0
   37.2860   26.9110   42.8600 C   0  0  0  0  0  0  0  0  0  0  0  0
   37.8430   27.0640   41.6130 C   0  0  0  0  0  0  0  0  0  0  0  0
   37.1980   30.0870   43.8320 H   0  0  0  0  0  0  0  0  0  0  0  0
   36.6070   27.8890   44.6640 H   0  0  0  0  0  0  0  0  0  0  0  0
   37.0180   25.9340   43.2430 H   0  0  0  0  0  0  0  0  0  0  0  0
   37.8140   32.8210   40.2850 C   0  0  0  0  0  0  0  0  0  0  0  0
   37.3850   31.5730   40.7920 C   0  0  0  0  0  0  0  0  0  0  0  0
   38.3110   30.7370   41.4250 C   0  0  0  0  0  0  0  0  0  0  0  0
   39.5820   31.2210   41.4970 N   0  0  0  0  0  0  0  0  0  0  0  0
   39.9630   32.4010   41.0120 C   0  0  0  0  0  0  0  0  0  0  0  0
   39.0760   33.1970   40.4070 N   0  0  0  0  0  0  0  0  0  0  0  0
   36.8210   33.6210   39.6530 N   0  0  0  0  0  0  0  0  0  0  0  0
   36.3800   31.1930   40.7340 H   0  0  0  0  0  0  0  0  0  0  0  0
   40.9780   32.7660   41.0800 H   0  0  0  0  0  0  0  0  0  0  0  0
   36.0590   33.9650   40.2780 H   0  0  0  0  0  0  0  0  0  0  0  0
   36.8190   33.8710   38.6240 H   0  0  0  0  0  0  0  0  0  0  0  0
   38.0570   25.8650   40.8270 C   0  0  0  0  0  0  0  0  0  0  0  0
   36.9470   25.4010   40.1410 C   0  0  0  0  0  0  0  0  0  0  0  0
   36.9570   24.2640   39.3330 C   0  0  0  0  0  0  0  0  0  0  0  0
   38.1540   23.5780   39.2260 C   0  0  0  0  0  0  0  0  0  0  0  0
   39.2690   24.0290   39.9040 C   0  0  0  0  0  0  0  0  0  0  0  0
   39.2280   25.1660   40.7020 C   0  0  0  0  0  0  0  0  0  0  0  0
   35.9860   25.8990   40.1890 H   0  0  0  0  0  0  0  0  0  0  0  0
   36.0710   23.9310   38.8120 H   0  0  0  0  0  0  0  0  0  0  0  0
   38.2320   22.6890   38.6160 H   0  0  0  0  0  0  0  0  0  0  0  0
   40.1770   23.4650   39.7920 H   0  0  0  0  0  0  0  0  0  0  0  0
   39.9230   24.0950   43.2750 O   0  0  0  0  0  0  0  0  0  0  0  0
   40.7540   24.7950   42.6020 C   0  0  0  0  0  0  0  0  0  0  0  0
   40.3960   25.6570   41.4300 C   0  0  1  0  0  3  0  0  0  0  0  0
   41.6680   25.6470   40.6320 C   0  0  0  0  0  3  0  0  0  0  0  0
   41.4950   25.0390   39.7230 H   0  0  0  0  0  0  0  0  0  0  0  0
   42.7530   25.1030   41.5160 C   0  0  0  0  0  3  0  0  0  0  0  0
   43.0590   24.1210   41.0780 H   0  0  0  0  0  0  0  0  0  0  0  0
   42.1560   24.8970   42.8210 N   0  0  0  0  0  0  0  0  0  0  0  0
   42.6270   24.8320   43.7430 H   0  0  0  0  0  0  0  0  0  0  0  0
   39.2400   28.5870   38.8010 N   0  0  0  0  0  0  0  0  0  0  0  0
   38.7500   28.4890   39.8680 C   0  0  0  0  0  0  0  0  0  0  0  0
  1  6  2  0  0  0  0
  1  2  1  0  0  0  0
  2  3  2  0  0  0  0
  3  4  1  0  0  0  0
  3  7  1  0  0  0  0
  4  8  1  0  0  0  0
  5  9  1  0  0  0  0
  5  4  2  0  0  0  0
  6  5  1  0  0  0  0
 10 15  2  0  0  0  0
 10 11  1  0  0  0  0
 11 12  2  0  0  0  0
 12 13  1  0  0  0  0
 12  2  1  0  0  0  0
 14 18  1  0  0  0  0
 14 13  2  0  0  0  0
 15 14  1  0  0  0  0
 16 19  1  0  0  0  0
 16 10  1  0  0  0  0
 17 11  1  0  0  0  0
 20 16  1  0  0  0  0
 21  6  1  0  0  0  0
 22 27  1  0  0  0  0
 22 21  2  0  0  0  0
 23 22  1  0  0  0  0
 24 23  2  0  0  0  0
 24 25  1  0  0  0  0
 25 26  2  0  0  0  0
 26 21  1  0  0  0  0
 28 23  1  0  0  0  0
 29 24  1  0  0  0  0
 30 25  1  0  0  0  0
 32 38  1  0  0  0  0
 32 31  2  0  0  0  0
 33 26  1  6  0  0  0
 33 32  1  0  0  0  0
 34 33  1  0  0  0  0
 34 36  1  0  0  0  0
 35 34  1  0  0  0  0
 36 38  1  0  0  0  0
 37 36  1  0  0  0  0
 38 39  1  0  0  0  0
 40 41  3  0  0  0  0
 41  1  1  0  0  0  0
M  END
>  <minimizedAffinity>
-6.39025402

$$$$

 OpenBabel03252508403D

 41 44  0  0  1  0  0  0  0  0999 V2000
   38.8680   27.9220   41.4160 C   0  0  0  0  0  0  0  0  0  0  0  0
   39.2740   27.7280   42.7050 C   0  0  0  0  0  0  0  0  0  0  0  0
   38.3080   27.7540   43.6690 C   0  0  0  0  0  0  0  0  0  0  0  0
   36.9710   27.9620   43.4160 C   0  0  0  0  0  0  0  0  0  0  0  0
   36.6030   28.1530   42.1060 C   0  0  0  0  0  0  0  0  0  0  0  0
   37.5280   28.1380   41.0900 C   0  0  0  0  0  0  0  0  0  0  0  0
   38.6070   27.6030   44.6990 H   0  0  0  0  0  0  0  0  0  0  0  0
   36.2580   27.9710   44.2320 H   0  0  0  0  0  0  0  0  0  0  0  0
   35.5520   28.3160   41.9100 H   0  0  0  0  0  0  0  0  0  0  0  0
   42.6160   26.0960   43.3200 C   0  0  0  0  0  0  0  0  0  0  0  0
   41.2260   26.2350   43.1040 C   0  0  0  0  0  0  0  0  0  0  0  0
   40.6850   27.5130   42.9310 C   0  0  0  0  0  0  0  0  0  0  0  0
   41.5790   28.5390   42.9870 N   0  0  0  0  0  0  0  0  0  0  0  0
   42.8860   28.3830   43.1920 C   0  0  0  0  0  0  0  0  0  0  0  0
   43.3990   27.1600   43.3580 N   0  0  0  0  0  0  0  0  0  0  0  0
   43.0990   24.7670   43.4890 N   0  0  0  0  0  0  0  0  0  0  0  0
   40.5210   25.4230   43.0590 H   0  0  0  0  0  0  0  0  0  0  0  0
   43.5790   29.2120   43.2330 H   0  0  0  0  0  0  0  0  0  0  0  0
   43.0140   24.1500   42.6500 H   0  0  0  0  0  0  0  0  0  0  0  0
   43.5220   24.3930   44.3840 H   0  0  0  0  0  0  0  0  0  0  0  0
   37.0400   28.3490   39.7410 C   0  0  0  0  0  0  0  0  0  0  0  0
   36.4700   27.2400   39.1370 C   0  0  0  0  0  0  0  0  0  0  0  0
   35.9450   27.2480   37.8460 C   0  0  0  0  0  0  0  0  0  0  0  0
   36.0080   28.4410   37.1470 C   0  0  0  0  0  0  0  0  0  0  0  0
   36.5740   29.5540   37.7350 C   0  0  0  0  0  0  0  0  0  0  0  0
   37.0900   29.5160   39.0260 C   0  0  0  0  0  0  0  0  0  0  0  0
   36.3940   26.2820   39.6380 H   0  0  0  0  0  0  0  0  0  0  0  0
   35.5070   26.3630   37.4060 H   0  0  0  0  0  0  0  0  0  0  0  0
   35.6190   28.5170   36.1410 H   0  0  0  0  0  0  0  0  0  0  0  0
   36.6020   30.4590   37.1550 H   0  0  0  0  0  0  0  0  0  0  0  0
   39.4690   30.7180   37.9560 O   0  0  0  0  0  0  0  0  0  0  0  0
   38.7460   31.3280   38.8160 C   0  0  0  0  0  0  0  0  0  0  0  0
   37.6940   30.6820   39.6650 C   0  0  1  0  0  3  0  0  0  0  0  0
   36.7410   31.8170   39.9030 C   0  0  0  0  0  3  0  0  0  0  0  0
   35.8210   31.6180   39.3210 H   0  0  0  0  0  0  0  0  0  0  0  0
   37.4370   33.0860   39.5000 C   0  0  0  0  0  3  0  0  0  0  0  0
   36.8940   33.4770   38.6050 H   0  0  0  0  0  0  0  0  0  0  0  0
   38.7910   32.7150   39.1340 N   0  0  0  0  0  0  0  0  0  0  0  0
   39.6370   33.3130   39.1020 H   0  0  0  0  0  0  0  0  0  0  0  0
   40.6070   27.8800   39.4490 N   0  0  0  0  0  0  0  0  0  0  0  0
   39.8240   27.9090   40.3290 C   0  0  0  0  0  0  0  0  0  0  0  0
  1  2  1  0  0  0  0
  2 12  1  0  0  0  0
  2  3  2  0  0  0  0
  3  7  1  0  0  0  0
  4  3  1  0  0  0  0
  4  8  1  0  0  0  0
  5  4  2  0  0  0  0
  6  1  2  0  0  0  0
  6  5  1  0  0  0  0
  9  5  1  0  0  0  0
 10 15  1  0  0  0  0
 10 16  1  0  0  0  0
 11 10  2  0  0  0  0
 12 13  2  0  0  0  0
 12 11  1  0  0  0  0
 13 14  1  0  0  0  0
 14 18  1  0  0  0  0
 14 15  2  0  0  0  0
 16 20  1  0  0  0  0
 17 11  1  0  0  0  0
 19 16  1  0  0  0  0
 21  6  1  0  0  0  0
 22 27  1  0  0  0  0
 22 21  1  0  0  0  0
 23 22  2  0  0  0  0
 24 25  2  0  0  0  0
 24 23  1  0  0  0  0
 25 26  1  0  0  0  0
 26 21  2  0  0  0  0
 28 23  1  0  0  0  0
 29 24  1  0  0  0  0
 30 25  1  0  0  0  0
 31 32  2  0  0  0  0
 32 38  1  0  0  0  0
 32 33  1  0  0  0  0
 33 26  1  6  0  0  0
 33 34  1  0  0  0  0
 35 34  1  0  0  0  0
 36 34  1  0  0  0  0
 37 36  1  0  0  0  0
 38 36  1  0  0  0  0
 39 38  1  0  0  0  0
 40 41  3  0  0  0  0
 41  1  1  0  0  0  0
M  END
>  <minimizedAffinity>
-6.28038216

$$$$

 OpenBabel03252508403D

 41 44  0  0  1  0  0  0  0  0999 V2000
   39.8770   32.0390   38.9610 C   0  0  0  0  0  0  0  0  0  0  0  0
   40.5310   33.1500   39.4130 C   0  0  0  0  0  0  0  0  0  0  0  0
   39.7600   34.1610   39.9100 C   0  0  0  0  0  0  0  0  0  0  0  0
   38.3860   34.1220   39.9790 C   0  0  0  0  0  0  0  0  0  0  0  0
   37.7670   32.9870   39.5140 C   0  0  0  0  0  0  0  0  0  0  0  0
   38.4860   31.9340   39.0020 C   0  0  0  0  0  0  0  0  0  0  0  0
   40.2570   35.0520   40.2740 H   0  0  0  0  0  0  0  0  0  0  0  0
   37.8380   34.9630   40.3870 H   0  0  0  0  0  0  0  0  0  0  0  0
   36.6870   32.9580   39.5700 H   0  0  0  0  0  0  0  0  0  0  0  0
   44.0590   33.5370   38.1470 C   0  0  0  0  0  0  0  0  0  0  0  0
   42.6460   33.5560   38.1670 C   0  0  0  0  0  0  0  0  0  0  0  0
   41.9730   33.1530   39.3240 C   0  0  0  0  0  0  0  0  0  0  0  0
   42.7690   32.7670   40.3590 N   0  0  0  0  0  0  0  0  0  0  0  0
   44.1000   32.7570   40.3170 C   0  0  0  0  0  0  0  0  0  0  0  0
   44.7400   33.1420   39.2100 N   0  0  0  0  0  0  0  0  0  0  0  0
   44.6810   33.9590   36.9380 N   0  0  0  0  0  0  0  0  0  0  0  0
   42.0200   33.8630   37.3470 H   0  0  0  0  0  0  0  0  0  0  0  0
   44.7130   32.4460   41.1520 H   0  0  0  0  0  0  0  0  0  0  0  0
   44.5400   34.9640   36.6900 H   0  0  0  0  0  0  0  0  0  0  0  0
   45.2530   33.3310   36.3060 H   0  0  0  0  0  0  0  0  0  0  0  0
   37.7410   30.7810   38.5370 C   0  0  0  0  0  0  0  0  0  0  0  0
   37.3140   30.8440   37.2200 C   0  0  0  0  0  0  0  0  0  0  0  0
   36.5850   29.8330   36.5950 C   0  0  0  0  0  0  0  0  0  0  0  0
   36.2820   28.7140   37.3510 C   0  0  0  0  0  0  0  0  0  0  0  0
   36.7000   28.6370   38.6640 C   0  0  0  0  0  0  0  0  0  0  0  0
   37.4270   29.6620   39.2610 C   0  0  0  0  0  0  0  0  0  0  0  0
   37.5230   31.6950   36.5830 H   0  0  0  0  0  0  0  0  0  0  0  0
   36.2690   29.9160   35.5650 H   0  0  0  0  0  0  0  0  0  0  0  0
   35.7200   27.8930   36.9280 H   0  0  0  0  0  0  0  0  0  0  0  0
   36.4430   27.7500   39.2130 H   0  0  0  0  0  0  0  0  0  0  0  0
   35.8800   30.8550   41.3660 O   0  0  0  0  0  0  0  0  0  0  0  0
   36.8150   30.0210   41.6210 C   0  0  0  0  0  0  0  0  0  0  0  0
   37.8760   29.6010   40.6490 C   0  0  1  0  0  3  0  0  0  0  0  0
   38.2100   28.2180   41.1280 C   0  0  0  0  0  3  0  0  0  0  0  0
   37.8140   27.4960   40.3890 H   0  0  0  0  0  0  0  0  0  0  0  0
   37.6130   28.0550   42.4980 C   0  0  0  0  0  3  0  0  0  0  0  0
   36.8060   27.2870   42.4050 H   0  0  0  0  0  0  0  0  0  0  0  0
   37.0360   29.3380   42.8490 N   0  0  0  0  0  0  0  0  0  0  0  0
   36.8170   29.7100   43.7920 H   0  0  0  0  0  0  0  0  0  0  0  0
   41.1960   29.9930   37.9750 N   0  0  0  0  0  0  0  0  0  0  0  0
   40.6130   30.9170   38.4170 C   0  0  0  0  0  0  0  0  0  0  0  0
  1  6  2  0  0  0  0
  1  2  1  0  0  0  0
  2  3  2  0  0  0  0
  3  4  1  0  0  0  0
  3  7  1  0  0  0  0
  4  8  1  0  0  0  0
  5  9  1  0  0  0  0
  5  4  2  0  0  0  0
  6  5  1  0  0  0  0
 10 11  2  0  0  0  0
 10 15  1  0  0  0  0
 11 12  1  0  0  0  0
 12  2  1  0  0  0  0
 12 13  2  0  0  0  0
 14 13  1  0  0  0  0
 14 18  1  0  0  0  0
 15 14  2  0  0  0  0
 16 10  1  0  0  0  0
 17 11  1  0  0  0  0
 19 16  1  0  0  0  0
 20 16  1  0  0  0  0
 21  6  1  0  0  0  0
 21 26  1  0  0  0  0
 22 21  2  0  0  0  0
 23 22  1  0  0  0  0
 23 24  2  0  0  0  0
 24 25  1  0  0  0  0
 25 30  1  0  0  0  0
 25 26  2  0  0  0  0
 27 22  1  0  0  0  0
 28 23  1  0  0  0  0
 29 24  1  0  0  0  0
 31 32  2  0  0  0  0
 32 38  1  0  0  0  0
 33 26  1  6  0  0  0
 33 34  1  0  0  0  0
 33 32  1  0  0  0  0
 34 36  1  0  0  0  0
 35 34  1  0  0  0  0
 36 38  1  0  0  0  0
 37 36  1  0  0  0  0
 38 39  1  0  0  0  0
 40 41  3  0  0  0  0
 41  1  1  0  0  0  0
M  END
>  <minimizedAffinity>
-6.24525833

$$$$

 OpenBabel03252508403D

 41 44  0  0  1  0  0  0  0  0999 V2000
   38.9740   30.9490   39.3160 C   0  0  0  0  0  0  0  0  0  0  0  0
   39.2790   32.2740   39.4360 C   0  0  0  0  0  0  0  0  0  0  0  0
   38.2500   33.1220   39.7280 C   0  0  0  0  0  0  0  0  0  0  0  0
   36.9460   32.7200   39.9040 C   0  0  0  0  0  0  0  0  0  0  0  0
   36.6800   31.3780   39.7760 C   0  0  0  0  0  0  0  0  0  0  0  0
   37.6730   30.4740   39.4830 C   0  0  0  0  0  0  0  0  0  0  0  0
   38.4690   34.1780   39.8270 H   0  0  0  0  0  0  0  0  0  0  0  0
   36.1780   33.4490   40.1350 H   0  0  0  0  0  0  0  0  0  0  0  0
   35.6540   31.0650   39.9150 H   0  0  0  0  0  0  0  0  0  0  0  0
   42.4770   33.5830   37.9300 C   0  0  0  0  0  0  0  0  0  0  0  0
   41.1140   33.2300   38.0520 C   0  0  0  0  0  0  0  0  0  0  0  0
   40.6600   32.6570   39.2440 C   0  0  0  0  0  0  0  0  0  0  0  0
   41.6050   32.4870   40.2090 N   0  0  0  0  0  0  0  0  0  0  0  0
   42.8860   32.8270   40.0710 C   0  0  0  0  0  0  0  0  0  0  0  0
   43.3160   33.3740   38.9300 N   0  0  0  0  0  0  0  0  0  0  0  0
   42.8720   34.1610   36.6910 N   0  0  0  0  0  0  0  0  0  0  0  0
   40.3680   33.3660   37.2880 H   0  0  0  0  0  0  0  0  0  0  0  0
   43.6200   32.6830   40.8510 H   0  0  0  0  0  0  0  0  0  0  0  0
   42.4550   35.0950   36.4800 H   0  0  0  0  0  0  0  0  0  0  0  0
   43.5390   33.7090   36.0040 H   0  0  0  0  0  0  0  0  0  0  0  0
   37.2910   29.0800   39.3680 C   0  0  0  0  0  0  0  0  0  0  0  0
   37.2810   28.3680   40.5560 C   0  0  0  0  0  0  0  0  0  0  0  0
   36.9420   27.0200   40.6470 C   0  0  0  0  0  0  0  0  0  0  0  0
   36.5980   26.3750   39.4710 C   0  0  0  0  0  0  0  0  0  0  0  0
   36.6030   27.0710   38.2790 C   0  0  0  0  0  0  0  0  0  0  0  0
   36.9470   28.4170   38.2200 C   0  0  0  0  0  0  0  0  0  0  0  0
   37.5410   28.8220   41.5060 H   0  0  0  0  0  0  0  0  0  0  0  0
   36.9450   26.4960   41.5920 H   0  0  0  0  0  0  0  0  0  0  0  0
   36.3240   25.3300   39.4700 H   0  0  0  0  0  0  0  0  0  0  0  0
   36.3300   26.5310   37.3910 H   0  0  0  0  0  0  0  0  0  0  0  0
   38.9200   27.8880   36.2010 O   0  0  0  0  0  0  0  0  0  0  0  0
   37.8690   28.5690   35.9400 C   0  0  0  0  0  0  0  0  0  0  0  0
   36.9610   29.1700   36.9680 C   0  0  1  0  0  3  0  0  0  0  0  0
   35.6430   29.1930   36.2490 C   0  0  0  0  0  3  0  0  0  0  0  0
   34.9910   28.4250   36.7070 H   0  0  0  0  0  0  0  0  0  0  0  0
   35.9180   28.9490   34.7920 C   0  0  0  0  0  3  0  0  0  0  0  0
   35.4680   27.9560   34.5450 H   0  0  0  0  0  0  0  0  0  0  0  0
   37.3600   28.8870   34.6500 N   0  0  0  0  0  0  0  0  0  0  0  0
   37.9300   29.0380   33.7980 H   0  0  0  0  0  0  0  0  0  0  0  0
   40.8400   29.1930   38.7400 N   0  0  0  0  0  0  0  0  0  0  0  0
   40.0020   29.9770   39.0090 C   0  0  0  0  0  0  0  0  0  0  0  0
  1  2  2  0  0  0  0
  1  6  1  0  0  0  0
  2  3  1  0  0  0  0
  3  7  1  0  0  0  0
  3  4  2  0  0  0  0
  4  8  1  0  0  0  0
  5  4  1  0  0  0  0
  5  9  1  0  0  0  0
  6  5  2  0  0  0  0
 10 11  2  0  0  0  0
 10 15  1  0  0  0  0
 11 12  1  0  0  0  0
 12  2  1  0  0  0  0
 12 13  2  0  0  0  0
 14 13  1  0  0  0  0
 14 18  1  0  0  0  0
 15 14  2  0  0  0  0
 16 10  1  0  0  0  0
 17 11  1  0  0  0  0
 19 16  1  0  0  0  0
 20 16  1  0  0  0  0
 21  6  1  0  0  0  0
 21 22  1  0  0  0  0
 22 23  2  0  0  0  0
 22 27  1  0  0  0  0
 23 28  1  0  0  0  0
 24 23  1  0  0  0  0
 25 24  2  0  0  0  0
 26 25  1  0  0  0  0
 26 21  2  0  0  0  0
 29 24  1  0  0  0  0
 30 25  1  0  0  0  0
 32 31  2  0  0  0  0
 32 33  1  0  0  0  0
 33 26  1  1  0  0  0
 34 35  1  0  0  0  0
 34 33  1  0  0  0  0
 36 34  1  0  0  0  0
 37 36  1  0  0  0  0
 38 36  1  0  0  0  0
 38 32  1  0  0  0  0
 39 38  1  0  0  0  0
 40 41  3  0  0  0  0
 41  1  1  0  0  0  0
M  END
>  <minimizedAffinity>
-6.16487217

$$$$

 OpenBabel03252508403D

 41 44  0  0  1  0  0  0  0  0999 V2000
   38.4730   28.9970   40.9220 C   0  0  0  0  0  0  0  0  0  0  0  0
   37.8370   30.1360   40.5190 C   0  0  0  0  0  0  0  0  0  0  0  0
   36.4770   30.1570   40.6300 C   0  0  0  0  0  0  0  0  0  0  0  0
   35.7260   29.1110   41.1170 C   0  0  0  0  0  0  0  0  0  0  0  0
   36.4040   27.9830   41.5120 C   0  0  0  0  0  0  0  0  0  0  0  0
   37.7730   27.9000   41.4250 C   0  0  0  0  0  0  0  0  0  0  0  0
   35.9510   31.0500   40.3150 H   0  0  0  0  0  0  0  0  0  0  0  0
   34.6470   29.1970   41.1770 H   0  0  0  0  0  0  0  0  0  0  0  0
   35.8120   27.1630   41.8950 H   0  0  0  0  0  0  0  0  0  0  0  0
   39.8410   32.3720   38.2400 C   0  0  0  0  0  0  0  0  0  0  0  0
   39.0360   31.2920   38.6690 C   0  0  0  0  0  0  0  0  0  0  0  0
   38.6590   31.2120   40.0130 C   0  0  0  0  0  0  0  0  0  0  0  0
   39.1180   32.2160   40.8110 N   0  0  0  0  0  0  0  0  0  0  0  0
   39.8760   33.2250   40.3830 C   0  0  0  0  0  0  0  0  0  0  0  0
   40.2350   33.2980   39.0980 N   0  0  0  0  0  0  0  0  0  0  0  0
   40.1890   32.3920   36.8600 N   0  0  0  0  0  0  0  0  0  0  0  0
   38.6750   30.4990   38.0370 H   0  0  0  0  0  0  0  0  0  0  0  0
   40.2290   34.0120   41.0340 H   0  0  0  0  0  0  0  0  0  0  0  0
   39.3900   32.5270   36.2000 H   0  0  0  0  0  0  0  0  0  0  0  0
   41.1740   32.2820   36.4880 H   0  0  0  0  0  0  0  0  0  0  0  0
   38.3950   26.6670   41.8670 C   0  0  0  0  0  0  0  0  0  0  0  0
   39.0420   26.7360   43.0900 C   0  0  0  0  0  0  0  0  0  0  0  0
   39.6970   25.6560   43.6800 C   0  0  0  0  0  0  0  0  0  0  0  0
   39.6870   24.4580   42.9870 C   0  0  0  0  0  0  0  0  0  0  0  0
   39.0460   24.3740   41.7670 C   0  0  0  0  0  0  0  0  0  0  0  0
   38.4010   25.4690   41.2040 C   0  0  0  0  0  0  0  0  0  0  0  0
   39.0810   27.6480   43.6750 H   0  0  0  0  0  0  0  0  0  0  0  0
   40.1920   25.7460   44.6360 H   0  0  0  0  0  0  0  0  0  0  0  0
   40.1750   23.5800   43.3870 H   0  0  0  0  0  0  0  0  0  0  0  0
   39.0640   23.4240   41.2650 H   0  0  0  0  0  0  0  0  0  0  0  0
   39.8250   25.9470   38.7560 O   0  0  0  0  0  0  0  0  0  0  0  0
   38.6700   25.3980   38.7560 C   0  0  0  0  0  0  0  0  0  0  0  0
   37.7200   25.4010   39.9140 C   0  0  1  0  0  3  0  0  0  0  0  0
   36.9490   24.1330   39.6910 C   0  0  0  0  0  3  0  0  0  0  0  0
   37.2570   23.4060   40.4650 H   0  0  0  0  0  0  0  0  0  0  0  0
   37.2340   23.6690   38.2900 C   0  0  0  0  0  3  0  0  0  0  0  0
   37.8080   22.7140   38.3820 H   0  0  0  0  0  0  0  0  0  0  0  0
   38.0660   24.6880   37.6810 N   0  0  0  0  0  0  0  0  0  0  0  0
   38.2100   24.8840   36.6730 H   0  0  0  0  0  0  0  0  0  0  0  0
   41.0860   28.7820   40.7600 N   0  0  0  0  0  0  0  0  0  0  0  0
   39.9140   28.8860   40.8410 C   0  0  0  0  0  0  0  0  0  0  0  0
  1  6  1  0  0  0  0
  2  3  1  0  0  0  0
  2  1  2  0  0  0  0
  3  4  2  0  0  0  0
  4  8  1  0  0  0  0
  4  5  1  0  0  0  0
  5  9  1  0  0  0  0
  6  5  2  0  0  0  0
  6 21  1  0  0  0  0
  7  3  1  0  0  0  0
 10 11  2  0  0  0  0
 10 15  1  0  0  0  0
 11 12  1  0  0  0  0
 12  2  1  0  0  0  0
 12 13  2  0  0  0  0
 14 13  1  0  0  0  0
 14 18  1  0  0  0  0
 15 14  2  0  0  0  0
 16 10  1  0  0  0  0
 17 11  1  0  0  0  0
 19 16  1  0  0  0  0
 20 16  1  0  0  0  0
 21 22  1  0  0  0  0
 22 27  1  0  0  0  0
 22 23  2  0  0  0  0
 23 28  1  0  0  0  0
 24 29  1  0  0  0  0
 24 23  1  0  0  0  0
 25 24  2  0  0  0  0
 26 25  1  0  0  0  0
 26 21  2  0  0  0  0
 30 25  1  0  0  0  0
 32 31  2  0  0  0  0
 32 33  1  0  0  0  0
 33 26  1  1  0  0  0
 34 33  1  0  0  0  0
 34 35  1  0  0  0  0
 36 37  1  0  0  0  0
 36 34  1  0  0  0  0
 38 36  1  0  0  0  0
 38 32  1  0  0  0  0
 39 38  1  0  0  0  0
 40 41  3  0  0  0  0
 41  1  1  0  0  0  0
M  END
>  <minimizedAffinity>
-6.0162673

$$$$

 OpenBabel03252508403D

 41 44  0  0  1  0  0  0  0  0999 V2000
   38.8960   26.4750   41.6810 C   0  0  0  0  0  0  0  0  0  0  0  0
   39.5210   27.0610   42.7450 C   0  0  0  0  0  0  0  0  0  0  0  0
   38.7240   27.6590   43.6780 C   0  0  0  0  0  0  0  0  0  0  0  0
   37.3510   27.7030   43.6060 C   0  0  0  0  0  0  0  0  0  0  0  0
   36.7610   27.1020   42.5200 C   0  0  0  0  0  0  0  0  0  0  0  0
   37.5070   26.4840   41.5460 C   0  0  0  0  0  0  0  0  0  0  0  0
   39.1980   28.1300   44.5300 H   0  0  0  0  0  0  0  0  0  0  0  0
   36.7800   28.1960   44.3840 H   0  0  0  0  0  0  0  0  0  0  0  0
   35.6800   27.1380   42.4650 H   0  0  0  0  0  0  0  0  0  0  0  0
   43.0580   25.8520   43.2280 C   0  0  0  0  0  0  0  0  0  0  0  0
   41.6450   25.8510   43.2150 C   0  0  0  0  0  0  0  0  0  0  0  0
   40.9640   26.9940   42.7860 C   0  0  0  0  0  0  0  0  0  0  0  0
   41.7540   28.0380   42.4080 N   0  0  0  0  0  0  0  0  0  0  0  0
   43.0850   28.0160   42.4300 C   0  0  0  0  0  0  0  0  0  0  0  0
   43.7320   26.9220   42.8410 N   0  0  0  0  0  0  0  0  0  0  0  0
   43.6870   24.6560   43.6760 N   0  0  0  0  0  0  0  0  0  0  0  0
   41.0230   25.0240   43.5130 H   0  0  0  0  0  0  0  0  0  0  0  0
   43.6930   28.8560   42.1260 H   0  0  0  0  0  0  0  0  0  0  0  0
   43.5430   23.8200   43.0670 H   0  0  0  0  0  0  0  0  0  0  0  0
   44.2680   24.5780   44.5580 H   0  0  0  0  0  0  0  0  0  0  0  0
   36.7910   25.8790   40.4400 C   0  0  0  0  0  0  0  0  0  0  0  0
   36.4850   24.5370   40.5960 C   0  0  0  0  0  0  0  0  0  0  0  0
   35.8020   23.7840   39.6420 C   0  0  0  0  0  0  0  0  0  0  0  0
   35.4160   24.4350   38.4830 C   0  0  0  0  0  0  0  0  0  0  0  0
   35.7130   25.7730   38.3140 C   0  0  0  0  0  0  0  0  0  0  0  0
   36.3970   26.4970   39.2840 C   0  0  0  0  0  0  0  0  0  0  0  0
   36.7630   23.9780   41.4820 H   0  0  0  0  0  0  0  0  0  0  0  0
   35.5800   22.7380   39.7980 H   0  0  0  0  0  0  0  0  0  0  0  0
   34.8820   23.9110   37.7030 H   0  0  0  0  0  0  0  0  0  0  0  0
   35.3950   26.2370   37.3990 H   0  0  0  0  0  0  0  0  0  0  0  0
   38.6150   27.3240   37.6570 O   0  0  0  0  0  0  0  0  0  0  0  0
   37.7190   28.1560   38.0290 C   0  0  0  0  0  0  0  0  0  0  0  0
   36.7240   27.9120   39.1220 C   0  0  1  0  0  3  0  0  0  0  0  0
   35.5670   28.7650   38.6900 C   0  0  0  0  0  3  0  0  0  0  0  0
   34.7550   28.0940   38.3520 H   0  0  0  0  0  0  0  0  0  0  0  0
   36.0620   29.6900   37.6150 C   0  0  0  0  0  3  0  0  0  0  0  0
   35.5440   29.3880   36.6710 H   0  0  0  0  0  0  0  0  0  0  0  0
   37.4880   29.4540   37.4940 N   0  0  0  0  0  0  0  0  0  0  0  0
   38.2140   30.0820   37.1020 H   0  0  0  0  0  0  0  0  0  0  0  0
   40.2900   25.2670   39.8130 N   0  0  0  0  0  0  0  0  0  0  0  0
   39.6620   25.8170   40.6440 C   0  0  0  0  0  0  0  0  0  0  0  0
  1  2  1  0  0  0  0
  2 12  1  0  0  0  0
  2  3  2  0  0  0  0
  3  7  1  0  0  0  0
  4  3  1  0  0  0  0
  4  8  1  0  0  0  0
  5  4  2  0  0  0  0
  6  1  2  0  0  0  0
  6  5  1  0  0  0  0
  9  5  1  0  0  0  0
 10 16  1  0  0  0  0
 11 10  1  0  0  0  0
 11 17  1  0  0  0  0
 12 11  2  0  0  0  0
 13 14  2  0  0  0  0
 13 12  1  0  0  0  0
 14 15  1  0  0  0  0
 15 10  2  0  0  0  0
 16 20  1  0  0  0  0
 18 14  1  0  0  0  0
 19 16  1  0  0  0  0
 21 22  1  0  0  0  0
 21  6  1  0  0  0  0
 22 27  1  0  0  0  0
 23 28  1  0  0  0  0
 23 22  2  0  0  0  0
 24 23  1  0  0  0  0
 25 24  2  0  0  0  0
 25 26  1  0  0  0  0
 26 21  2  0  0  0  0
 29 24  1  0  0  0  0
 30 25  1  0  0  0  0
 31 32  2  0  0  0  0
 32 33  1  0  0  0  0
 33 26  1  6  0  0  0
 34 33  1  0  0  0  0
 35 34  1  0  0  0  0
 36 34  1  0  0  0  0
 37 36  1  0  0  0  0
 38 36  1  0  0  0  0
 38 32  1  0  0  0  0
 39 38  1  0  0  0  0
 40 41  3  0  0  0  0
 41  1  1  0  0  0  0
M  END
>  <minimizedAffinity>
-5.99138403

$$$$

 OpenBabel03252508403D

 41 44  0  0  1  0  0  0  0  0999 V2000
   38.4810   27.5520   41.4310 C   0  0  0  0  0  0  0  0  0  0  0  0
   37.4860   26.6980   41.8130 C   0  0  0  0  0  0  0  0  0  0  0  0
   36.7770   27.0350   42.9300 C   0  0  0  0  0  0  0  0  0  0  0  0
   37.0060   28.1670   43.6780 C   0  0  0  0  0  0  0  0  0  0  0  0
   38.0160   29.0000   43.2600 C   0  0  0  0  0  0  0  0  0  0  0  0
   38.7660   28.7170   42.1440 C   0  0  0  0  0  0  0  0  0  0  0  0
   35.9830   26.3710   43.2520 H   0  0  0  0  0  0  0  0  0  0  0  0
   36.4030   28.3710   44.5540 H   0  0  0  0  0  0  0  0  0  0  0  0
   38.1940   29.8890   43.8490 H   0  0  0  0  0  0  0  0  0  0  0  0
   37.5870   23.1680   40.4960 C   0  0  0  0  0  0  0  0  0  0  0  0
   37.8340   24.2810   41.3310 C   0  0  0  0  0  0  0  0  0  0  0  0
   37.2750   25.5200   41.0030 C   0  0  0  0  0  0  0  0  0  0  0  0
   36.5200   25.5390   39.8700 N   0  0  0  0  0  0  0  0  0  0  0  0
   36.3010   24.4760   39.0970 C   0  0  0  0  0  0  0  0  0  0  0  0
   36.8360   23.2940   39.4140 N   0  0  0  0  0  0  0  0  0  0  0  0
   38.1850   21.9370   40.8880 N   0  0  0  0  0  0  0  0  0  0  0  0
   38.4310   24.2630   42.2260 H   0  0  0  0  0  0  0  0  0  0  0  0
   35.6970   24.5140   38.2020 H   0  0  0  0  0  0  0  0  0  0  0  0
   37.8330   21.5340   41.7850 H   0  0  0  0  0  0  0  0  0  0  0  0
   38.9380   21.4350   40.3390 H   0  0  0  0  0  0  0  0  0  0  0  0
   39.8090   29.6580   41.7860 C   0  0  0  0  0  0  0  0  0  0  0  0
   41.0250   29.4650   42.4210 C   0  0  0  0  0  0  0  0  0  0  0  0
   42.1450   30.2670   42.2060 C   0  0  0  0  0  0  0  0  0  0  0  0
   42.0120   31.3080   41.3040 C   0  0  0  0  0  0  0  0  0  0  0  0
   40.8060   31.5130   40.6630 C   0  0  0  0  0  0  0  0  0  0  0  0
   39.7060   30.6960   40.8980 C   0  0  0  0  0  0  0  0  0  0  0  0
   41.1850   28.6660   43.1360 H   0  0  0  0  0  0  0  0  0  0  0  0
   43.0790   30.0860   42.7200 H   0  0  0  0  0  0  0  0  0  0  0  0
   42.8410   31.9680   41.0900 H   0  0  0  0  0  0  0  0  0  0  0  0
   40.7480   32.3330   39.9720 H   0  0  0  0  0  0  0  0  0  0  0  0
   38.3690   33.2360   41.0100 O   0  0  0  0  0  0  0  0  0  0  0  0
   38.0250   32.3420   40.1630 C   0  0  0  0  0  0  0  0  0  0  0  0
   38.4220   30.8980   40.2330 C   0  0  1  0  0  3  0  0  0  0  0  0
   38.4080   30.4990   38.7850 C   0  0  0  0  0  3  0  0  0  0  0  0
   39.4560   30.3540   38.4620 H   0  0  0  0  0  0  0  0  0  0  0  0
   37.6930   31.5790   38.0240 C   0  0  0  0  0  3  0  0  0  0  0  0
   38.4560   32.0630   37.3660 H   0  0  0  0  0  0  0  0  0  0  0  0
   37.2150   32.5300   39.0090 N   0  0  0  0  0  0  0  0  0  0  0  0
   36.4450   33.2180   38.9200 H   0  0  0  0  0  0  0  0  0  0  0  0
   39.9210   27.0460   39.2940 N   0  0  0  0  0  0  0  0  0  0  0  0
   39.2840   27.2750   40.2590 C   0  0  0  0  0  0  0  0  0  0  0  0
  1  2  2  0  0  0  0
  1  6  1  0  0  0  0
  2  3  1  0  0  0  0
  3  7  1  0  0  0  0
  3  4  2  0  0  0  0
  4  8  1  0  0  0  0
  5  4  1  0  0  0  0
  5  9  1  0  0  0  0
  6  5  2  0  0  0  0
 10 16  1  0  0  0  0
 10 11  1  0  0  0  0
 11 17  1  0  0  0  0
 12 11  2  0  0  0  0
 12  2  1  0  0  0  0
 13 12  1  0  0  0  0
 14 15  1  0  0  0  0
 14 13  2  0  0  0  0
 15 10  2  0  0  0  0
 16 19  1  0  0  0  0
 18 14  1  0  0  0  0
 20 16  1  0  0  0  0
 21  6  1  0  0  0  0
 21 22  1  0  0  0  0
 22 27  1  0  0  0  0
 23 22  2  0  0  0  0
 23 28  1  0  0  0  0
 24 23  1  0  0  0  0
 25 26  1  0  0  0  0
 25 24  2  0  0  0  0
 26 21  2  0  0  0  0
 29 24  1  0  0  0  0
 30 25  1  0  0  0  0
 32 33  1  0  0  0  0
 32 31  2  0  0  0  0
 33 26  1  6  0  0  0
 34 33  1  0  0  0  0
 35 34  1  0  0  0  0
 36 34  1  0  0  0  0
 36 38  1  0  0  0  0
 37 36  1  0  0  0  0
 38 32  1  0  0  0  0
 39 38  1  0  0  0  0
 40 41  3  0  0  0  0
 41  1  1  0  0  0  0
M  END
>  <minimizedAffinity>
-5.93262434

$$$$

 OpenBabel03252508403D

 41 44  0  0  1  0  0  0  0  0999 V2000
   39.1150   30.3960   38.2740 C   0  0  0  0  0  0  0  0  0  0  0  0
   40.4710   30.4460   38.1170 C   0  0  0  0  0  0  0  0  0  0  0  0
   41.0940   29.2880   37.7520 C   0  0  0  0  0  0  0  0  0  0  0  0
   40.4430   28.0950   37.5380 C   0  0  0  0  0  0  0  0  0  0  0  0
   39.0790   28.0870   37.7050 C   0  0  0  0  0  0  0  0  0  0  0  0
   38.3930   29.2190   38.0720 C   0  0  0  0  0  0  0  0  0  0  0  0
   42.1700   29.3030   37.6220 H   0  0  0  0  0  0  0  0  0  0  0  0
   41.0020   27.2130   37.2490 H   0  0  0  0  0  0  0  0  0  0  0  0
   38.5690   27.1480   37.5360 H   0  0  0  0  0  0  0  0  0  0  0  0
   42.1580   33.3750   39.7850 C   0  0  0  0  0  0  0  0  0  0  0  0
   41.5270   32.1200   39.6260 C   0  0  0  0  0  0  0  0  0  0  0  0
   41.1200   31.7160   38.3510 C   0  0  0  0  0  0  0  0  0  0  0  0
   41.3770   32.5990   37.3470 N   0  0  0  0  0  0  0  0  0  0  0  0
   41.9730   33.7780   37.5220 C   0  0  0  0  0  0  0  0  0  0  0  0
   42.3610   34.1610   38.7420 N   0  0  0  0  0  0  0  0  0  0  0  0
   42.5460   33.7230   41.1100 N   0  0  0  0  0  0  0  0  0  0  0  0
   41.3250   31.4230   40.4210 H   0  0  0  0  0  0  0  0  0  0  0  0
   42.1680   34.4640   36.7100 H   0  0  0  0  0  0  0  0  0  0  0  0
   43.2930   33.1250   41.5290 H   0  0  0  0  0  0  0  0  0  0  0  0
   42.1330   34.5250   41.6640 H   0  0  0  0  0  0  0  0  0  0  0  0
   36.9550   29.1080   38.2240 C   0  0  0  0  0  0  0  0  0  0  0  0
   36.2250   29.2400   37.0540 C   0  0  0  0  0  0  0  0  0  0  0  0
   34.8340   29.1620   36.9990 C   0  0  0  0  0  0  0  0  0  0  0  0
   34.1670   28.9400   38.1910 C   0  0  0  0  0  0  0  0  0  0  0  0
   34.8810   28.8070   39.3650 C   0  0  0  0  0  0  0  0  0  0  0  0
   36.2690   28.8890   39.3880 C   0  0  0  0  0  0  0  0  0  0  0  0
   36.6950   29.4140   36.0930 H   0  0  0  0  0  0  0  0  0  0  0  0
   34.2960   29.2690   36.0670 H   0  0  0  0  0  0  0  0  0  0  0  0
   33.0880   28.8690   38.2190 H   0  0  0  0  0  0  0  0  0  0  0  0
   34.3220   28.6360   40.2660 H   0  0  0  0  0  0  0  0  0  0  0  0
   36.2210   30.9440   41.3950 O   0  0  0  0  0  0  0  0  0  0  0  0
   36.6740   29.7760   41.6520 C   0  0  0  0  0  0  0  0  0  0  0  0
   37.0420   28.7540   40.6200 C   0  0  1  0  0  3  0  0  0  0  0  0
   36.8090   27.4660   41.3550 C   0  0  0  0  0  3  0  0  0  0  0  0
   35.9100   26.9860   40.9250 H   0  0  0  0  0  0  0  0  0  0  0  0
   36.6690   27.7960   42.8140 C   0  0  0  0  0  3  0  0  0  0  0  0
   35.6110   27.5660   43.0930 H   0  0  0  0  0  0  0  0  0  0  0  0
   36.9140   29.2200   42.9400 N   0  0  0  0  0  0  0  0  0  0  0  0
   37.2050   29.7520   43.7800 H   0  0  0  0  0  0  0  0  0  0  0  0
   37.7510   32.5330   38.9580 N   0  0  0  0  0  0  0  0  0  0  0  0
   38.3710   31.5760   38.6590 C   0  0  0  0  0  0  0  0  0  0  0  0
  1 41  1  0  0  0  0
  2  1  1  0  0  0  0
  2 12  1  0  0  0  0
  3  2  2  0  0  0  0
  4  5  2  0  0  0  0
  4  3  1  0  0  0  0
  5  6  1  0  0  0  0
  6 21  1  0  0  0  0
  6  1  2  0  0  0  0
  7  3  1  0  0  0  0
  8  4  1  0  0  0  0
  9  5  1  0  0  0  0
 10 16  1  0  0  0  0
 11 10  1  0  0  0  0
 11 17  1  0  0  0  0
 12 11  2  0  0  0  0
 13 14  2  0  0  0  0
 13 12  1  0  0  0  0
 14 15  1  0  0  0  0
 15 10  2  0  0  0  0
 16 19  1  0  0  0  0
 16 20  1  0  0  0  0
 18 14  1  0  0  0  0
 21 26  1  0  0  0  0
 22 21  2  0  0  0  0
 23 22  1  0  0  0  0
 23 24  2  0  0  0  0
 24 29  1  0  0  0  0
 24 25  1  0  0  0  0
 25 26  2  0  0  0  0
 25 30  1  0  0  0  0
 27 22  1  0  0  0  0
 28 23  1  0  0  0  0
 31 32  2  0  0  0  0
 32 38  1  0  0  0  0
 33 26  1  6  0  0  0
 33 34  1  0  0  0  0
 33 32  1  0  0  0  0
 34 36  1  0  0  0  0
 35 34  1  0  0  0  0
 36 38  1  0  0  0  0
 36 37  1  0  0  0  0
 38 39  1  0  0  0  0
 41 40  3  0  0  0  0
M  END
>  <minimizedAffinity>
-5.89304399

$$$$

 OpenBabel03252508403D

 41 44  0  0  1  0  0  0  0  0999 V2000
   37.8470   28.9440   40.1670 C   0  0  0  0  0  0  0  0  0  0  0  0
   37.7270   30.3010   40.0690 C   0  0  0  0  0  0  0  0  0  0  0  0
   36.4870   30.8290   40.2870 C   0  0  0  0  0  0  0  0  0  0  0  0
   35.3730   30.0820   40.5940 C   0  0  0  0  0  0  0  0  0  0  0  0
   35.5360   28.7200   40.6830 C   0  0  0  0  0  0  0  0  0  0  0  0
   36.7580   28.1270   40.4740 C   0  0  0  0  0  0  0  0  0  0  0  0
   36.3680   31.9030   40.2140 H   0  0  0  0  0  0  0  0  0  0  0  0
   34.4190   30.5690   40.7550 H   0  0  0  0  0  0  0  0  0  0  0  0
   34.6590   28.1350   40.9250 H   0  0  0  0  0  0  0  0  0  0  0  0
   40.3930   32.1920   38.1920 C   0  0  0  0  0  0  0  0  0  0  0  0
   39.2100   31.4590   38.4400 C   0  0  0  0  0  0  0  0  0  0  0  0
   38.9190   31.0510   39.7450 C   0  0  0  0  0  0  0  0  0  0  0  0
   39.8340   31.4090   40.6880 N   0  0  0  0  0  0  0  0  0  0  0  0
   40.9430   32.1010   40.4300 C   0  0  0  0  0  0  0  0  0  0  0  0
   41.2180   32.4890   39.1820 N   0  0  0  0  0  0  0  0  0  0  0  0
   40.6280   32.5750   36.8420 N   0  0  0  0  0  0  0  0  0  0  0  0
   38.4880   31.1770   37.6930 H   0  0  0  0  0  0  0  0  0  0  0  0
   41.6570   32.3750   41.1940 H   0  0  0  0  0  0  0  0  0  0  0  0
   39.9420   33.2570   36.4450 H   0  0  0  0  0  0  0  0  0  0  0  0
   41.4280   32.2190   36.2470 H   0  0  0  0  0  0  0  0  0  0  0  0
   36.8270   26.6840   40.5910 C   0  0  0  0  0  0  0  0  0  0  0  0
   37.1080   26.2050   41.8600 C   0  0  0  0  0  0  0  0  0  0  0  0
   37.2130   24.8500   42.1690 C   0  0  0  0  0  0  0  0  0  0  0  0
   37.0240   23.9510   41.1340 C   0  0  0  0  0  0  0  0  0  0  0  0
   36.7440   24.4130   39.8630 C   0  0  0  0  0  0  0  0  0  0  0  0
   36.6450   25.7720   39.5860 C   0  0  0  0  0  0  0  0  0  0  0  0
   37.2650   26.8640   42.7060 H   0  0  0  0  0  0  0  0  0  0  0  0
   37.4340   24.5120   43.1710 H   0  0  0  0  0  0  0  0  0  0  0  0
   37.0920   22.8850   41.3040 H   0  0  0  0  0  0  0  0  0  0  0  0
   36.6050   23.6790   39.0910 H   0  0  0  0  0  0  0  0  0  0  0  0
   38.6510   25.7620   37.5310 O   0  0  0  0  0  0  0  0  0  0  0  0
   37.4160   25.9360   37.2510 C   0  0  0  0  0  0  0  0  0  0  0  0
   36.3520   26.2810   38.2480 C   0  0  1  0  0  3  0  0  0  0  0  0
   35.1260   25.6860   37.6180 C   0  0  0  0  0  3  0  0  0  0  0  0
   34.8310   24.8010   38.2130 H   0  0  0  0  0  0  0  0  0  0  0  0
   35.4630   25.3590   36.1910 C   0  0  0  0  0  3  0  0  0  0  0  0
   35.4370   24.2450   36.1050 H   0  0  0  0  0  0  0  0  0  0  0  0
   36.8120   25.8410   35.9660 N   0  0  0  0  0  0  0  0  0  0  0  0
   37.2710   26.0760   35.0670 H   0  0  0  0  0  0  0  0  0  0  0  0
   40.1700   27.7760   39.7960 N   0  0  0  0  0  0  0  0  0  0  0  0
   39.1240   28.2970   39.9520 C   0  0  0  0  0  0  0  0  0  0  0  0
  1  6  1  0  0  0  0
  2  1  2  0  0  0  0
  2  3  1  0  0  0  0
  3  4  2  0  0  0  0
  4  5  1  0  0  0  0
  4  8  1  0  0  0  0
  5  9  1  0  0  0  0
  6 21  1  0  0  0  0
  6  5  2  0  0  0  0
  7  3  1  0  0  0  0
 10 11  2  0  0  0  0
 10 15  1  0  0  0  0
 11 12  1  0  0  0  0
 12  2  1  0  0  0  0
 12 13  2  0  0  0  0
 14 13  1  0  0  0  0
 14 18  1  0  0  0  0
 15 14  2  0  0  0  0
 16 10  1  0  0  0  0
 17 11  1  0  0  0  0
 19 16  1  0  0  0  0
 20 16  1  0  0  0  0
 21 22  1  0  0  0  0
 22 23  2  0  0  0  0
 22 27  1  0  0  0  0
 23 28  1  0  0  0  0
 24 29  1  0  0  0  0
 24 23  1  0  0  0  0
 25 24  2  0  0  0  0
 26 25  1  0  0  0  0
 26 21  2  0  0  0  0
 30 25  1  0  0  0  0
 32 31  2  0  0  0  0
 32 33  1  0  0  0  0
 33 26  1  1  0  0  0
 34 35  1  0  0  0  0
 34 33  1  0  0  0  0
 36 34  1  0  0  0  0
 37 36  1  0  0  0  0
 38 36  1  0  0  0  0
 38 32  1  0  0  0  0
 39 38  1  0  0  0  0
 40 41  3  0  0  0  0
 41  1  1  0  0  0  0
M  END
>  <minimizedAffinity>
-5.82279825

$$$$
