
 OpenBabel03252503563D

 20 21  0  0  1  0  0  0  0  0999 V2000
   45.2670   34.5680   42.8450 C   0  0  0  0  0  0  0  0  0  0  0  0
   44.7830   35.7640   43.4030 C   0  0  0  0  0  0  0  0  0  0  0  0
   44.6550   35.8080   44.7920 C   0  0  0  0  0  0  0  0  0  0  0  0
   45.0000   34.7010   45.5200 N   0  0  0  0  0  0  0  0  0  0  0  0
   45.4580   33.5800   44.9290 C   0  0  0  0  0  0  0  0  0  0  0  0
   45.5900   33.5150   43.6000 N   0  0  0  0  0  0  0  0  0  0  0  0
   44.5060   36.6430   42.8620 H   0  0  0  0  0  0  0  0  0  0  0  0
   44.2940   36.6840   45.3020 H   0  0  0  0  0  0  0  0  0  0  0  0
   47.7710   31.6790   44.4360 O   0  0  0  0  0  0  0  0  0  0  0  0
   47.0400   31.7730   45.4740 C   0  0  0  0  0  0  0  0  0  0  0  0
   45.7890   32.4680   45.8620 C   0  0  1  0  0  3  0  0  0  0  0  0
   46.0780   32.9070   47.2560 C   0  0  0  0  0  3  0  0  0  0  0  0
   45.1010   33.0290   47.7850 H   0  0  0  0  0  0  0  0  0  0  0  0
   46.8710   31.7500   47.8190 C   0  0  0  0  0  3  0  0  0  0  0  0
   47.6700   32.1090   48.5000 H   0  0  0  0  0  0  0  0  0  0  0  0
   47.4060   31.0700   46.6560 N   0  0  0  0  0  0  0  0  0  0  0  0
   47.9700   30.1870   46.8410 H   0  0  0  0  0  0  0  0  0  0  0  0
   45.3730   34.5910   41.4230 C   0  0  0  0  0  0  0  0  0  0  0  0
   46.4260   34.4060   40.7350 O   0  0  0  0  0  0  0  0  0  0  0  0
   44.6470   34.7570   40.6360 H   0  0  0  0  0  0  0  0  0  0  0  0
  1  2  2  0  0  0  0
  1  6  1  0  0  0  0
  2  3  1  0  0  0  0
  3  8  1  0  0  0  0
  3  4  2  0  0  0  0
  5  4  1  0  0  0  0
  6  5  2  0  0  0  0
  7  2  1  0  0  0  0
  9 10  2  0  0  0  0
 10 11  1  0  0  0  0
 10 16  1  0  0  0  0
 11  5  1  6  0  0  0
 11 12  1  0  0  0  0
 12 13  1  0  0  0  0
 12 14  1  0  0  0  0
 14 15  1  0  0  0  0
 16 17  1  0  0  0  0
 16 14  1  0  0  0  0
 18  1  1  0  0  0  0
 19 18  2  0  0  0  0
 20 18  1  0  0  0  0
M  END
>  <minimizedAffinity>
-3.7496469

>  <minimizedRMSD>
1.88548028

$$$$
