
 OpenBabel03242518233D

 32 34  0  0  1  0  0  0  0  0999 V2000
   42.3670   35.1540   41.4880 C   0  0  0  0  0  0  0  0  0  0  0  0
   42.1080   33.8010   41.3030 C   0  0  0  0  0  0  0  0  0  0  0  0
   43.1000   32.8930   41.6390 C   0  0  0  0  0  0  0  0  0  0  0  0
   44.2800   33.3520   42.1340 N   0  0  0  0  0  0  0  0  0  0  0  0
   44.5070   34.6680   42.3030 C   0  0  0  0  0  0  0  0  0  0  0  0
   43.5530   35.5620   41.9820 N   0  0  0  0  0  0  0  0  0  0  0  0
   41.7230   35.9950   41.2860 H   0  0  0  0  0  0  0  0  0  0  0  0
   42.8680   31.8680   41.4840 H   0  0  0  0  0  0  0  0  0  0  0  0
   40.8260   33.4750   40.7750 N   0  0  0  0  0  0  0  0  0  0  0  0
   39.9930   32.6110   41.5670 C   0  0  0  0  0  0  0  0  0  0  0  0
   38.6670   32.3170   40.9480 C   0  0  0  0  0  0  0  0  0  0  0  0
   38.0260   33.4380   40.3750 N   0  0  0  0  0  0  0  0  0  0  0  0
   38.8310   34.4000   39.7310 C   0  0  0  0  0  0  0  0  0  0  0  0
   40.2530   33.9030   39.5360 C   0  0  0  0  0  0  0  0  0  0  0  0
   40.5390   31.6470   41.6690 H   0  0  0  0  0  0  0  0  0  0  0  0
   39.9020   33.0210   42.6010 H   0  0  0  0  0  0  0  0  0  0  0  0
   38.0090   31.9140   41.7630 H   0  0  0  0  0  0  0  0  0  0  0  0
   38.7500   31.5280   40.1700 H   0  0  0  0  0  0  0  0  0  0  0  0
   37.3630   33.9300   41.0390 H   0  0  0  0  0  0  0  0  0  0  0  0
   38.8280   35.4080   40.1950 H   0  0  0  0  0  0  0  0  0  0  0  0
   38.4120   34.5480   38.6930 H   0  0  0  0  0  0  0  0  0  0  0  0
   40.7760   34.6740   38.9830 H   0  0  0  0  0  0  0  0  0  0  0  0
   40.1760   33.0120   38.8650 H   0  0  0  0  0  0  0  0  0  0  0  0
   45.5070   34.2510   45.1730 O   0  0  0  0  0  0  0  0  0  0  0  0
   46.1780   34.3460   44.0990 C   0  0  0  0  0  0  0  0  0  0  0  0
   45.8230   35.0570   42.8470 C   0  0  1  0  0  0  0  0  0  0  0  0
   46.9610   34.6970   41.9230 C   0  0  0  0  0  0  0  0  0  0  0  0
   47.2430   35.5360   41.2340 H   0  0  0  0  0  0  0  0  0  0  0  0
   48.1270   34.4300   42.8840 C   0  0  0  0  0  0  0  0  0  0  0  0
   48.9120   33.8140   42.4420 H   0  0  0  0  0  0  0  0  0  0  0  0
   47.4570   33.7230   43.9670 N   0  0  0  0  0  0  0  0  0  0  0  0
   47.9140   32.9210   44.4880 H   0  0  0  0  0  0  0  0  0  0  0  0
  1  6  1  0  0  0  0
  2  1  2  0  0  0  0
  2  3  1  0  0  0  0
  3  4  2  0  0  0  0
  4  5  1  0  0  0  0
  6  5  2  0  0  0  0
  7  1  1  0  0  0  0
  8  3  1  0  0  0  0
  9  2  1  0  0  0  0
  9 10  1  0  0  0  0
 10 15  1  0  0  0  0
 10 16  1  0  0  0  0
 11 10  1  0  0  0  0
 11 17  1  0  0  0  0
 12 11  1  0  0  0  0
 12 19  1  0  0  0  0
 13 20  1  0  0  0  0
 13 12  1  0  0  0  0
 14 13  1  0  0  0  0
 14  9  1  0  0  0  0
 18 11  1  0  0  0  0
 21 13  1  0  0  0  0
 22 14  1  0  0  0  0
 23 14  1  0  0  0  0
 25 24  2  0  0  0  0
 26  5  1  6  0  0  0
 26 25  1  0  0  0  0
 27 26  1  0  0  0  0
 27 29  1  0  0  0  0
 28 27  1  0  0  0  0
 29 31  1  0  0  0  0
 30 29  1  0  0  0  0
 31 25  1  0  0  0  0
 31 32  1  0  0  0  0
M  END
>  <minimizedAffinity>
-5.62355661

>  <minimizedRMSD>
4.49795246

$$$$
