
 OpenBabel03252508323D

 32 34  0  0  1  0  0  0  0  0999 V2000
   45.3720   34.0370   41.7220 N   0  0  0  0  0  0  0  0  0  0  0  0
   46.3740   33.4850   40.8820 C   0  0  1  0  0  0  0  0  0  0  0  0
   46.0630   33.5500   39.4190 C   0  0  0  0  0  0  0  0  0  0  0  0
   44.7270   33.3630   39.0480 N   0  0  0  0  0  0  0  0  0  0  0  0
   43.7590   33.9520   39.8770 C   0  0  0  0  0  0  0  0  0  0  0  0
   44.3480   34.7420   41.0040 C   0  0  0  0  0  0  0  0  0  0  0  0
   46.5030   32.4160   41.1530 H   0  0  0  0  0  0  0  0  0  0  0  0
   46.3210   34.6090   39.1170 H   0  0  0  0  0  0  0  0  0  0  0  0
   46.7250   32.8500   38.8710 H   0  0  0  0  0  0  0  0  0  0  0  0
   44.5960   33.3580   38.0380 H   0  0  0  0  0  0  0  0  0  0  0  0
   43.0760   33.1790   40.2700 H   0  0  0  0  0  0  0  0  0  0  0  0
   43.1880   34.7020   39.2550 H   0  0  0  0  0  0  0  0  0  0  0  0
   43.5420   35.1830   41.6110 H   0  0  0  0  0  0  0  0  0  0  0  0
   44.8360   35.6250   40.5120 H   0  0  0  0  0  0  0  0  0  0  0  0
   45.0190   34.9350   43.8950 C   0  0  0  0  0  0  0  0  0  0  0  0
   45.4700   33.8580   43.1110 C   0  0  0  0  0  0  0  0  0  0  0  0
   45.9820   32.7460   43.7560 C   0  0  0  0  0  0  0  0  0  0  0  0
   46.0500   32.6950   45.1170 N   0  0  0  0  0  0  0  0  0  0  0  0
   45.6060   33.7560   45.8590 C   0  0  0  0  0  0  0  0  0  0  0  0
   45.1020   34.8480   45.2550 N   0  0  0  0  0  0  0  0  0  0  0  0
   44.5940   35.8780   43.5940 H   0  0  0  0  0  0  0  0  0  0  0  0
   46.3170   31.9080   43.1640 H   0  0  0  0  0  0  0  0  0  0  0  0
   45.6590   33.7150   46.9370 H   0  0  0  0  0  0  0  0  0  0  0  0
   49.1680   32.2540   42.3600 O   0  0  0  0  0  0  0  0  0  0  0  0
   48.7140   33.3000   41.7940 C   0  0  0  0  0  0  0  0  0  0  0  0
   47.7300   34.1130   41.0440 C   0  0  2  0  0  3  0  0  0  0  0  0
   47.7020   35.3580   41.9000 C   0  0  0  0  0  3  0  0  0  0  0  0
   47.4520   35.1620   42.9460 H   0  0  0  0  0  0  0  0  0  0  0  0
   49.2070   35.6780   41.8890 C   0  0  0  0  0  3  0  0  0  0  0  0
   49.5030   36.1870   40.9630 H   0  0  0  0  0  0  0  0  0  0  0  0
   49.7420   34.3080   41.9700 N   0  0  0  0  0  0  0  0  0  0  0  0
   50.7930   34.3970   42.1440 H   0  0  0  0  0  0  0  0  0  0  0  0
  1 16  1  0  0  0  0
  2 26  1  0  0  0  0
  2  7  1  1  0  0  0
  2  1  1  0  0  0  0
  3  2  1  0  0  0  0
  4  3  1  0  0  0  0
  4  5  1  0  0  0  0
  5 11  1  0  0  0  0
  5  6  1  0  0  0  0
  6 13  1  0  0  0  0
  6  1  1  0  0  0  0
  8  3  1  0  0  0  0
  9  3  1  0  0  0  0
 10  4  1  0  0  0  0
 12  5  1  0  0  0  0
 14  6  1  0  0  0  0
 15 20  1  0  0  0  0
 16 17  1  0  0  0  0
 16 15  2  0  0  0  0
 17 18  2  0  0  0  0
 18 19  1  0  0  0  0
 19 23  1  0  0  0  0
 20 19  2  0  0  0  0
 21 15  1  0  0  0  0
 22 17  1  0  0  0  0
 25 31  1  0  0  0  0
 25 24  2  0  0  0  0
 26 25  1  1  0  0  0
 26 27  1  0  0  0  0
 27 28  1  0  0  0  0
 29 27  1  0  0  0  0
 29 31  1  0  0  0  0
 30 29  1  0  0  0  0
 31 32  1  0  0  0  0
M  END
>  <minimizedAffinity>
-4.63482523

>  <minimizedRMSD>
1.73347187

$$$$
