
 OpenBabel03252502463D

 45 48  0  0  1  0  0  0  0  0999 V2000
   47.6040   35.5500   41.9390 C   0  0  0  0  0  0  0  0  0  0  0  0
   47.7590   35.9940   42.9530 H   0  0  0  0  0  0  0  0  0  0  0  0
   47.3180   36.4010   41.2670 H   0  0  0  0  0  0  0  0  0  0  0  0
   48.8700   34.8710   41.5170 C   0  0  1  0  0  0  0  0  0  0  0  0
   50.0150   34.8880   42.4770 C   0  0  0  0  0  0  0  0  0  0  0  0
   49.2340   33.6480   42.2170 C   0  0  2  0  0  0  0  0  0  0  0  0
   49.1090   35.0290   40.4710 H   0  0  0  0  0  0  0  0  0  0  0  0
   49.8540   35.4480   43.4310 H   0  0  0  0  0  0  0  0  0  0  0  0
   51.0600   35.0140   42.0960 H   0  0  0  0  0  0  0  0  0  0  0  0
   48.7470   33.2390   43.0950 H   0  0  0  0  0  0  0  0  0  0  0  0
   49.9660   32.7000   41.3930 N   0  0  0  0  0  0  0  0  0  0  0  0
   49.2090   32.1470   40.3290 C   0  0  0  0  0  0  0  0  0  0  0  0
   50.1410   31.1940   39.6070 C   0  0  0  0  0  0  0  0  0  0  0  0
   50.5610   30.1140   40.4470 N   0  0  0  0  0  0  0  0  0  0  0  0
   50.5770   30.4440   41.8560 C   0  0  0  0  0  0  0  0  0  0  0  0
   50.9270   31.9180   42.0430 C   0  0  0  0  0  0  0  0  0  0  0  0
   48.3160   31.6290   40.7210 H   0  0  0  0  0  0  0  0  0  0  0  0
   48.8790   32.9020   39.6020 H   0  0  0  0  0  0  0  0  0  0  0  0
   49.5750   30.7790   38.7380 H   0  0  0  0  0  0  0  0  0  0  0  0
   50.9800   31.7730   39.1920 H   0  0  0  0  0  0  0  0  0  0  0  0
   51.4250   29.6790   40.1050 H   0  0  0  0  0  0  0  0  0  0  0  0
   51.2760   29.7910   42.4010 H   0  0  0  0  0  0  0  0  0  0  0  0
   49.5460   30.2940   42.2600 H   0  0  0  0  0  0  0  0  0  0  0  0
   51.9540   32.1140   41.6840 H   0  0  0  0  0  0  0  0  0  0  0  0
   50.8860   32.0930   43.1380 H   0  0  0  0  0  0  0  0  0  0  0  0
   46.5460   34.4900   41.9960 C   0  0  0  0  0  0  0  0  0  0  0  0
   46.8110   33.5080   41.6300 H   0  0  0  0  0  0  0  0  0  0  0  0
   45.7080   34.8330   41.3200 H   0  0  0  0  0  0  0  0  0  0  0  0
   44.6940   35.6230   45.0470 C   0  0  0  0  0  0  0  0  0  0  0  0
   45.2530   35.6320   43.7500 C   0  0  0  0  0  0  0  0  0  0  0  0
   45.9440   34.5010   43.3700 C   0  0  0  0  0  0  0  0  0  0  0  0
   46.0600   33.4560   44.2240 N   0  0  0  0  0  0  0  0  0  0  0  0
   45.5270   33.4720   45.4370 C   0  0  0  0  0  0  0  0  0  0  0  0
   44.8520   34.5390   45.8470 N   0  0  0  0  0  0  0  0  0  0  0  0
   44.1400   36.4950   45.3870 H   0  0  0  0  0  0  0  0  0  0  0  0
   45.1460   36.4760   43.0890 H   0  0  0  0  0  0  0  0  0  0  0  0
   47.7170   31.5150   45.2070 O   0  0  0  0  0  0  0  0  0  0  0  0
   47.0170   31.6770   46.2560 C   0  0  0  0  0  0  0  0  0  0  0  0
   45.6750   32.3060   46.3490 C   0  0  1  0  0  3  0  0  0  0  0  0
   45.5240   32.7470   47.7710 C   0  0  0  0  0  3  0  0  0  0  0  0
   45.4470   33.8490   47.8910 H   0  0  0  0  0  0  0  0  0  0  0  0
   46.7310   32.2000   48.4840 C   0  0  0  0  0  3  0  0  0  0  0  0
   46.4480   31.6500   49.3960 H   0  0  0  0  0  0  0  0  0  0  0  0
   47.3830   31.2810   47.5640 N   0  0  0  0  0  0  0  0  0  0  0  0
   48.0010   30.4870   47.8390 H   0  0  0  0  0  0  0  0  0  0  0  0
  1 26  1  0  0  0  0
  1  2  1  0  0  0  0
  3  1  1  0  0  0  0
  4  7  1  6  0  0  0
  4  1  1  0  0  0  0
  4  6  1  0  0  0  0
  4  5  1  0  0  0  0
  5  8  1  0  0  0  0
  6  5  1  0  0  0  0
  6 10  1  1  0  0  0
  9  5  1  0  0  0  0
 11 16  1  0  0  0  0
 11  6  1  0  0  0  0
 12 17  1  0  0  0  0
 12 11  1  0  0  0  0
 13 12  1  0  0  0  0
 13 14  1  0  0  0  0
 14 15  1  0  0  0  0
 15 16  1  0  0  0  0
 15 23  1  0  0  0  0
 15 22  1  0  0  0  0
 16 25  1  0  0  0  0
 18 12  1  0  0  0  0
 19 13  1  0  0  0  0
 20 13  1  0  0  0  0
 21 14  1  0  0  0  0
 24 16  1  0  0  0  0
 26 31  1  0  0  0  0
 27 26  1  0  0  0  0
 28 26  1  0  0  0  0
 29 35  1  0  0  0  0
 29 34  1  0  0  0  0
 30 29  2  0  0  0  0
 31 30  1  0  0  0  0
 31 32  2  0  0  0  0
 32 33  1  0  0  0  0
 33 34  2  0  0  0  0
 36 30  1  0  0  0  0
 37 38  2  0  0  0  0
 38 39  1  0  0  0  0
 38 44  1  0  0  0  0
 39 33  1  6  0  0  0
 39 40  1  0  0  0  0
 40 41  1  0  0  0  0
 40 42  1  0  0  0  0
 42 43  1  0  0  0  0
 44 45  1  0  0  0  0
 44 42  1  0  0  0  0
M  END
>  <minimizedAffinity>
-5.17401886

>  <minimizedRMSD>
0.629368246

$$$$
