
 OpenBabel03252500533D

 24 25  0  0  1  0  0  0  0  0999 V2000
   36.9010   25.6740   40.5720 C   0  0  0  0  0  0  0  0  0  0  0  0
   37.4320   26.8960   40.9780 C   0  0  0  0  0  0  0  0  0  0  0  0
   37.4440   27.9410   39.9970 C   0  0  0  0  0  0  0  0  0  0  0  0
   36.9460   27.6760   38.7510 N   0  0  0  0  0  0  0  0  0  0  0  0
   36.4510   26.4710   38.4320 C   0  0  0  0  0  0  0  0  0  0  0  0
   36.4260   25.4870   39.3180 N   0  0  0  0  0  0  0  0  0  0  0  0
   37.8140   28.9500   40.1270 H   0  0  0  0  0  0  0  0  0  0  0  0
   36.0560   26.2500   37.4510 H   0  0  0  0  0  0  0  0  0  0  0  0
   36.0890   27.2590   43.6790 O   0  0  0  0  0  0  0  0  0  0  0  0
   36.9660   27.9660   43.0750 C   0  0  0  0  0  0  0  0  0  0  0  0
   38.0330   27.2770   42.2660 C   0  0  2  0  0  3  0  0  0  0  0  0
   39.0570   28.3900   42.0970 C   0  0  0  0  0  3  0  0  0  0  0  0
   39.1900   28.6700   41.0170 H   0  0  0  0  0  0  0  0  0  0  0  0
   38.6020   29.5480   42.9220 C   0  0  0  0  0  3  0  0  0  0  0  0
   38.8100   30.5350   42.4480 H   0  0  0  0  0  0  0  0  0  0  0  0
   37.1590   29.3740   43.0060 N   0  0  0  0  0  0  0  0  0  0  0  0
   36.3000   29.9860   43.0260 H   0  0  0  0  0  0  0  0  0  0  0  0
   36.8900   24.6000   41.5520 C   0  0  0  0  0  0  0  0  0  0  0  0
   35.8880   24.0840   41.4430 H   0  0  0  0  0  0  0  0  0  0  0  0
   36.9020   24.9630   42.5810 H   0  0  0  0  0  0  0  0  0  0  0  0
   38.0110   23.6280   41.2690 C   0  0  0  0  0  0  0  0  0  0  0  0
   38.6620   23.8990   40.4330 H   0  0  0  0  0  0  0  0  0  0  0  0
   38.7000   23.6990   42.1790 H   0  0  0  0  0  0  0  0  0  0  0  0
   37.6760   22.5710   41.2970 H   0  0  0  0  0  0  0  0  0  0  0  0
  1  2  1  0  0  0  0
  1 18  1  0  0  0  0
  3  7  1  0  0  0  0
  3  2  2  0  0  0  0
  4  3  1  0  0  0  0
  5  4  2  0  0  0  0
  5  6  1  0  0  0  0
  6  1  2  0  0  0  0
  8  5  1  0  0  0  0
 10  9  2  0  0  0  0
 11  2  1  6  0  0  0
 11 10  1  0  0  0  0
 12 11  1  0  0  0  0
 12 14  1  0  0  0  0
 13 12  1  0  0  0  0
 14 16  1  0  0  0  0
 15 14  1  0  0  0  0
 16 17  1  0  0  0  0
 16 10  1  0  0  0  0
 18 20  1  0  0  0  0
 19 18  1  0  0  0  0
 21 24  1  0  0  0  0
 21 18  1  0  0  0  0
 21 23  1  0  0  0  0
 22 21  1  0  0  0  0
M  END
>  <minimizedAffinity>
-4.19927835

$$$$

 OpenBabel03252500533D

 24 25  0  0  1  0  0  0  0  0999 V2000
   37.2900   31.5300   39.2670 C   0  0  0  0  0  0  0  0  0  0  0  0
   37.9100   30.9940   40.3930 C   0  0  0  0  0  0  0  0  0  0  0  0
   38.5950   31.9220   41.2440 C   0  0  0  0  0  0  0  0  0  0  0  0
   38.5970   33.2470   40.9010 N   0  0  0  0  0  0  0  0  0  0  0  0
   37.9770   33.6890   39.7980 C   0  0  0  0  0  0  0  0  0  0  0  0
   37.3350   32.8550   38.9940 N   0  0  0  0  0  0  0  0  0  0  0  0
   39.1310   31.6940   42.1560 H   0  0  0  0  0  0  0  0  0  0  0  0
   37.9730   34.7330   39.5170 H   0  0  0  0  0  0  0  0  0  0  0  0
   35.6880   29.0610   41.1400 O   0  0  0  0  0  0  0  0  0  0  0  0
   36.8130   29.3030   41.6960 C   0  0  0  0  0  0  0  0  0  0  0  0
   38.0110   29.5930   40.8310 C   0  0  2  0  0  3  0  0  0  0  0  0
   39.1560   29.3970   41.8160 C   0  0  0  0  0  3  0  0  0  0  0  0
   39.7290   30.3480   41.9780 H   0  0  0  0  0  0  0  0  0  0  0  0
   38.5700   28.8730   43.0860 C   0  0  0  0  0  3  0  0  0  0  0  0
   39.0700   29.2730   43.9980 H   0  0  0  0  0  0  0  0  0  0  0  0
   37.1960   29.3570   43.0660 N   0  0  0  0  0  0  0  0  0  0  0  0
   36.4830   29.7060   43.7590 H   0  0  0  0  0  0  0  0  0  0  0  0
   36.5990   30.6010   38.3880 C   0  0  0  0  0  0  0  0  0  0  0  0
   35.5760   31.0480   38.1970 H   0  0  0  0  0  0  0  0  0  0  0  0
   36.3940   29.6400   38.8620 H   0  0  0  0  0  0  0  0  0  0  0  0
   37.3550   30.4550   37.0880 C   0  0  0  0  0  0  0  0  0  0  0  0
   38.2950   31.0120   37.0330 H   0  0  0  0  0  0  0  0  0  0  0  0
   37.6890   29.3630   37.0630 H   0  0  0  0  0  0  0  0  0  0  0  0
   36.6950   30.5320   36.2010 H   0  0  0  0  0  0  0  0  0  0  0  0
  1  2  1  0  0  0  0
  2  3  2  0  0  0  0
  3  7  1  0  0  0  0
  4  3  1  0  0  0  0
  5  4  2  0  0  0  0
  6  1  2  0  0  0  0
  6  5  1  0  0  0  0
  8  5  1  0  0  0  0
  9 10  2  0  0  0  0
 10 16  1  0  0  0  0
 11  2  1  1  0  0  0
 11 10  1  0  0  0  0
 11 12  1  0  0  0  0
 12 13  1  0  0  0  0
 12 14  1  0  0  0  0
 14 15  1  0  0  0  0
 16 14  1  0  0  0  0
 16 17  1  0  0  0  0
 18 20  1  0  0  0  0
 18  1  1  0  0  0  0
 19 18  1  0  0  0  0
 21 18  1  0  0  0  0
 22 21  1  0  0  0  0
 23 21  1  0  0  0  0
 24 21  1  0  0  0  0
M  END
>  <minimizedAffinity>
-4.19116259

$$$$

 OpenBabel03252500533D

 24 25  0  0  1  0  0  0  0  0999 V2000
   38.0090   29.2500   42.6540 C   0  0  0  0  0  0  0  0  0  0  0  0
   37.2140   29.3680   41.5160 C   0  0  0  0  0  0  0  0  0  0  0  0
   37.5850   30.3940   40.5860 C   0  0  0  0  0  0  0  0  0  0  0  0
   38.6720   31.1750   40.8700 N   0  0  0  0  0  0  0  0  0  0  0  0
   39.3890   31.0010   41.9900 C   0  0  0  0  0  0  0  0  0  0  0  0
   39.0710   30.0610   42.8660 N   0  0  0  0  0  0  0  0  0  0  0  0
   37.0920   30.6340   39.6530 H   0  0  0  0  0  0  0  0  0  0  0  0
   40.2490   31.6130   42.2250 H   0  0  0  0  0  0  0  0  0  0  0  0
   36.9500   26.4560   40.6900 O   0  0  0  0  0  0  0  0  0  0  0  0
   36.4330   27.5180   40.2010 C   0  0  0  0  0  0  0  0  0  0  0  0
   36.0060   28.6210   41.1330 C   0  0  2  0  0  3  0  0  0  0  0  0
   35.0990   29.4490   40.2340 C   0  0  0  0  0  3  0  0  0  0  0  0
   35.5050   30.4840   40.0770 H   0  0  0  0  0  0  0  0  0  0  0  0
   34.9460   28.7080   38.9460 C   0  0  0  0  0  3  0  0  0  0  0  0
   34.9060   29.3770   38.0550 H   0  0  0  0  0  0  0  0  0  0  0  0
   36.1560   27.9010   38.8590 N   0  0  0  0  0  0  0  0  0  0  0  0
   36.8150   27.5640   38.1090 H   0  0  0  0  0  0  0  0  0  0  0  0
   37.6410   28.2210   43.6130 C   0  0  0  0  0  0  0  0  0  0  0  0
   36.6730   27.7690   43.2360 H   0  0  0  0  0  0  0  0  0  0  0  0
   37.3910   28.6250   44.5950 H   0  0  0  0  0  0  0  0  0  0  0  0
   38.7180   27.1640   43.6800 C   0  0  0  0  0  0  0  0  0  0  0  0
   39.5970   27.3560   43.0560 H   0  0  0  0  0  0  0  0  0  0  0  0
   39.1270   27.2260   44.7450 H   0  0  0  0  0  0  0  0  0  0  0  0
   38.3090   26.1350   43.6330 H   0  0  0  0  0  0  0  0  0  0  0  0
  1  6  1  0  0  0  0
  1 18  1  0  0  0  0
  2  1  2  0  0  0  0
  3  4  2  0  0  0  0
  3  2  1  0  0  0  0
  4  5  1  0  0  0  0
  5  8  1  0  0  0  0
  5  6  2  0  0  0  0
  7  3  1  0  0  0  0
 10  9  2  0  0  0  0
 10 11  1  0  0  0  0
 11  2  1  6  0  0  0
 12 11  1  0  0  0  0
 13 12  1  0  0  0  0
 14 12  1  0  0  0  0
 15 14  1  0  0  0  0
 16 14  1  0  0  0  0
 16 10  1  0  0  0  0
 17 16  1  0  0  0  0
 18 21  1  0  0  0  0
 18 20  1  0  0  0  0
 19 18  1  0  0  0  0
 21 23  1  0  0  0  0
 22 21  1  0  0  0  0
 24 21  1  0  0  0  0
M  END
>  <minimizedAffinity>
-4.10094213

$$$$

 OpenBabel03252500533D

 24 25  0  0  1  0  0  0  0  0999 V2000
   37.2260   30.3730   41.3490 C   0  0  0  0  0  0  0  0  0  0  0  0
   38.1280   31.4040   41.0970 C   0  0  0  0  0  0  0  0  0  0  0  0
   39.3970   31.3150   41.7570 C   0  0  0  0  0  0  0  0  0  0  0  0
   39.6360   30.2450   42.5760 N   0  0  0  0  0  0  0  0  0  0  0  0
   38.7160   29.2890   42.7710 C   0  0  0  0  0  0  0  0  0  0  0  0
   37.5360   29.3450   42.1740 N   0  0  0  0  0  0  0  0  0  0  0  0
   40.2180   32.0160   41.6840 H   0  0  0  0  0  0  0  0  0  0  0  0
   38.8930   28.4400   43.4160 H   0  0  0  0  0  0  0  0  0  0  0  0
   37.9420   31.6600   38.0760 O   0  0  0  0  0  0  0  0  0  0  0  0
   38.5900   32.3450   38.9380 C   0  0  0  0  0  0  0  0  0  0  0  0
   37.9630   32.6170   40.2800 C   0  0  2  0  0  3  0  0  0  0  0  0
   38.8250   33.7600   40.7960 C   0  0  0  0  0  3  0  0  0  0  0  0
   39.3810   33.4710   41.7280 H   0  0  0  0  0  0  0  0  0  0  0  0
   39.7500   34.1580   39.6930 C   0  0  0  0  0  3  0  0  0  0  0  0
   40.7640   34.4480   40.0540 H   0  0  0  0  0  0  0  0  0  0  0  0
   39.8760   32.9510   38.8880 N   0  0  0  0  0  0  0  0  0  0  0  0
   40.6250   32.4630   38.3280 H   0  0  0  0  0  0  0  0  0  0  0  0
   35.9300   30.4540   40.6960 C   0  0  0  0  0  0  0  0  0  0  0  0
   36.1180   30.9110   39.6770 H   0  0  0  0  0  0  0  0  0  0  0  0
   35.2490   31.1500   41.1880 H   0  0  0  0  0  0  0  0  0  0  0  0
   35.3370   29.0730   40.5470 C   0  0  0  0  0  0  0  0  0  0  0  0
   35.9300   28.2630   40.9820 H   0  0  0  0  0  0  0  0  0  0  0  0
   34.3920   29.0870   41.1890 H   0  0  0  0  0  0  0  0  0  0  0  0
   34.9400   28.8870   39.5290 H   0  0  0  0  0  0  0  0  0  0  0  0
  1  6  1  0  0  0  0
  2  1  2  0  0  0  0
  2  3  1  0  0  0  0
  3  4  2  0  0  0  0
  4  5  1  0  0  0  0
  5  8  1  0  0  0  0
  6  5  2  0  0  0  0
  7  3  1  0  0  0  0
  9 10  2  0  0  0  0
 10 11  1  0  0  0  0
 11 12  1  0  0  0  0
 11  2  1  1  0  0  0
 12 13  1  0  0  0  0
 14 15  1  0  0  0  0
 14 12  1  0  0  0  0
 16 10  1  0  0  0  0
 16 14  1  0  0  0  0
 17 16  1  0  0  0  0
 18 20  1  0  0  0  0
 18  1  1  0  0  0  0
 19 18  1  0  0  0  0
 21 18  1  0  0  0  0
 21 22  1  0  0  0  0
 21 23  1  0  0  0  0
 24 21  1  0  0  0  0
M  END
>  <minimizedAffinity>
-4.09853125

$$$$

 OpenBabel03252500533D

 24 25  0  0  1  0  0  0  0  0999 V2000
   37.9570   24.8690   42.2430 C   0  0  0  0  0  0  0  0  0  0  0  0
   38.0040   26.2410   42.4810 C   0  0  0  0  0  0  0  0  0  0  0  0
   39.2350   26.7530   43.0090 C   0  0  0  0  0  0  0  0  0  0  0  0
   40.2620   25.8800   43.2410 N   0  0  0  0  0  0  0  0  0  0  0  0
   40.1420   24.5690   42.9870 C   0  0  0  0  0  0  0  0  0  0  0  0
   39.0180   24.0680   42.4990 N   0  0  0  0  0  0  0  0  0  0  0  0
   39.4570   27.7830   43.2550 H   0  0  0  0  0  0  0  0  0  0  0  0
   40.9460   23.8700   43.1680 H   0  0  0  0  0  0  0  0  0  0  0  0
   36.6060   27.1440   39.9390 O   0  0  0  0  0  0  0  0  0  0  0  0
   37.0810   27.8130   40.9190 C   0  0  0  0  0  0  0  0  0  0  0  0
   36.9540   27.2590   42.3140 C   0  0  2  0  0  3  0  0  0  0  0  0
   37.2330   28.4930   43.1610 C   0  0  0  0  0  3  0  0  0  0  0  0
   38.1580   28.3660   43.7850 H   0  0  0  0  0  0  0  0  0  0  0  0
   37.3390   29.6590   42.2340 C   0  0  0  0  0  3  0  0  0  0  0  0
   38.1120   30.3990   42.5450 H   0  0  0  0  0  0  0  0  0  0  0  0
   37.7520   29.0660   40.9690 N   0  0  0  0  0  0  0  0  0  0  0  0
   38.3740   29.3210   40.1560 H   0  0  0  0  0  0  0  0  0  0  0  0
   36.7130   24.3320   41.7170 C   0  0  0  0  0  0  0  0  0  0  0  0
   36.0290   25.2200   41.5540 H   0  0  0  0  0  0  0  0  0  0  0  0
   36.1830   23.7060   42.4370 H   0  0  0  0  0  0  0  0  0  0  0  0
   36.9670   23.6210   40.4090 C   0  0  0  0  0  0  0  0  0  0  0  0
   38.0150   23.5800   40.0970 H   0  0  0  0  0  0  0  0  0  0  0  0
   36.7050   22.5270   40.6120 H   0  0  0  0  0  0  0  0  0  0  0  0
   36.2400   23.9060   39.6210 H   0  0  0  0  0  0  0  0  0  0  0  0
  1  2  2  0  0  0  0
  1  6  1  0  0  0  0
  2  3  1  0  0  0  0
  3  4  2  0  0  0  0
  3  7  1  0  0  0  0
  5  8  1  0  0  0  0
  5  4  1  0  0  0  0
  6  5  2  0  0  0  0
  9 10  2  0  0  0  0
 10 16  1  0  0  0  0
 10 11  1  0  0  0  0
 11  2  1  1  0  0  0
 11 12  1  0  0  0  0
 12 13  1  0  0  0  0
 14 15  1  0  0  0  0
 14 12  1  0  0  0  0
 16 14  1  0  0  0  0
 17 16  1  0  0  0  0
 18  1  1  0  0  0  0
 18 20  1  0  0  0  0
 19 18  1  0  0  0  0
 21 23  1  0  0  0  0
 21 18  1  0  0  0  0
 22 21  1  0  0  0  0
 24 21  1  0  0  0  0
M  END
>  <minimizedAffinity>
-4.0545311

$$$$

 OpenBabel03252500533D

 24 25  0  0  1  0  0  0  0  0999 V2000
   36.4770   30.0840   38.4260 C   0  0  0  0  0  0  0  0  0  0  0  0
   36.9100   31.1920   39.1520 C   0  0  0  0  0  0  0  0  0  0  0  0
   36.6010   31.1960   40.5520 C   0  0  0  0  0  0  0  0  0  0  0  0
   35.9130   30.1340   41.0730 N   0  0  0  0  0  0  0  0  0  0  0  0
   35.5280   29.1010   40.3100 C   0  0  0  0  0  0  0  0  0  0  0  0
   35.8010   29.0700   39.0150 N   0  0  0  0  0  0  0  0  0  0  0  0
   36.8530   31.9640   41.2700 H   0  0  0  0  0  0  0  0  0  0  0  0
   34.9840   28.2580   40.7120 H   0  0  0  0  0  0  0  0  0  0  0  0
   39.7760   31.4900   38.1870 O   0  0  0  0  0  0  0  0  0  0  0  0
   39.0760   32.2120   38.9760 C   0  0  0  0  0  0  0  0  0  0  0  0
   37.6090   32.4010   38.6900 C   0  0  2  0  0  3  0  0  0  0  0  0
   37.2790   33.6050   39.5610 C   0  0  0  0  0  3  0  0  0  0  0  0
   36.5290   33.3470   40.3560 H   0  0  0  0  0  0  0  0  0  0  0  0
   38.5610   34.1040   40.1420 C   0  0  0  0  0  3  0  0  0  0  0  0
   38.4540   34.4740   41.1890 H   0  0  0  0  0  0  0  0  0  0  0  0
   39.4210   32.9280   40.1560 N   0  0  0  0  0  0  0  0  0  0  0  0
   40.1700   32.5190   40.7750 H   0  0  0  0  0  0  0  0  0  0  0  0
   36.7740   30.0690   37.0040 C   0  0  0  0  0  0  0  0  0  0  0  0
   37.8090   29.6210   36.9010 H   0  0  0  0  0  0  0  0  0  0  0  0
   36.8640   31.0690   36.5770 H   0  0  0  0  0  0  0  0  0  0  0  0
   35.7630   29.2170   36.2710 C   0  0  0  0  0  0  0  0  0  0  0  0
   34.9670   28.8010   36.8960 H   0  0  0  0  0  0  0  0  0  0  0  0
   35.2110   29.9420   35.5820 H   0  0  0  0  0  0  0  0  0  0  0  0
   36.2360   28.5120   35.5590 H   0  0  0  0  0  0  0  0  0  0  0  0
  1  6  2  0  0  0  0
  1  2  1  0  0  0  0
  2  3  2  0  0  0  0
  3  4  1  0  0  0  0
  3  7  1  0  0  0  0
  5  8  1  0  0  0  0
  5  4  2  0  0  0  0
  6  5  1  0  0  0  0
  9 10  2  0  0  0  0
 10 16  1  0  0  0  0
 11 10  1  0  0  0  0
 11  2  1  1  0  0  0
 11 12  1  0  0  0  0
 12 14  1  0  0  0  0
 12 13  1  0  0  0  0
 14 16  1  0  0  0  0
 14 15  1  0  0  0  0
 16 17  1  0  0  0  0
 18  1  1  0  0  0  0
 19 18  1  0  0  0  0
 20 18  1  0  0  0  0
 21 22  1  0  0  0  0
 21 18  1  0  0  0  0
 23 21  1  0  0  0  0
 24 21  1  0  0  0  0
M  END
>  <minimizedAffinity>
-4.03517056

$$$$

 OpenBabel03252500533D

 24 25  0  0  1  0  0  0  0  0999 V2000
   36.6170   27.6810   41.9060 C   0  0  0  0  0  0  0  0  0  0  0  0
   36.8950   26.4450   41.3270 C   0  0  0  0  0  0  0  0  0  0  0  0
   36.6690   26.3370   39.9160 C   0  0  0  0  0  0  0  0  0  0  0  0
   36.2020   27.4330   39.2420 N   0  0  0  0  0  0  0  0  0  0  0  0
   35.9560   28.5930   39.8690 C   0  0  0  0  0  0  0  0  0  0  0  0
   36.1580   28.7220   41.1710 N   0  0  0  0  0  0  0  0  0  0  0  0
   36.8260   25.4640   39.2980 H   0  0  0  0  0  0  0  0  0  0  0  0
   35.5880   29.4640   39.3470 H   0  0  0  0  0  0  0  0  0  0  0  0
   39.6040   25.7950   42.5390 O   0  0  0  0  0  0  0  0  0  0  0  0
   38.8430   25.1140   41.7700 C   0  0  0  0  0  0  0  0  0  0  0  0
   37.3510   25.1960   41.9580 C   0  0  2  0  0  3  0  0  0  0  0  0
   36.8770   23.9740   41.1830 C   0  0  0  0  0  3  0  0  0  0  0  0
   36.2320   24.2620   40.3100 H   0  0  0  0  0  0  0  0  0  0  0  0
   38.0900   23.2160   40.7540 C   0  0  0  0  0  3  0  0  0  0  0  0
   37.9880   22.7570   39.7440 H   0  0  0  0  0  0  0  0  0  0  0  0
   39.1350   24.2280   40.6960 N   0  0  0  0  0  0  0  0  0  0  0  0
   39.9790   24.4430   40.1010 H   0  0  0  0  0  0  0  0  0  0  0  0
   36.8320   27.8040   43.3380 C   0  0  0  0  0  0  0  0  0  0  0  0
   37.1150   26.7710   43.7050 H   0  0  0  0  0  0  0  0  0  0  0  0
   35.9210   28.0500   43.8850 H   0  0  0  0  0  0  0  0  0  0  0  0
   37.9520   28.7810   43.6130 C   0  0  0  0  0  0  0  0  0  0  0  0
   38.3780   29.2610   42.7270 H   0  0  0  0  0  0  0  0  0  0  0  0
   37.4590   29.6440   44.1760 H   0  0  0  0  0  0  0  0  0  0  0  0
   38.6840   28.3920   44.3500 H   0  0  0  0  0  0  0  0  0  0  0  0
  1 18  1  0  0  0  0
  2  1  1  0  0  0  0
  3  2  2  0  0  0  0
  4  5  2  0  0  0  0
  4  3  1  0  0  0  0
  5  6  1  0  0  0  0
  6  1  2  0  0  0  0
  7  3  1  0  0  0  0
  8  5  1  0  0  0  0
 10 11  1  0  0  0  0
 10  9  2  0  0  0  0
 11  2  1  6  0  0  0
 12 11  1  0  0  0  0
 13 12  1  0  0  0  0
 14 12  1  0  0  0  0
 15 14  1  0  0  0  0
 16 14  1  0  0  0  0
 16 10  1  0  0  0  0
 17 16  1  0  0  0  0
 18 21  1  0  0  0  0
 18 19  1  0  0  0  0
 18 20  1  0  0  0  0
 21 23  1  0  0  0  0
 21 24  1  0  0  0  0
 22 21  1  0  0  0  0
M  END
>  <minimizedAffinity>
-4.00260925

$$$$

 OpenBabel03252500533D

 24 25  0  0  1  0  0  0  0  0999 V2000
   38.8330   27.4890   43.0310 C   0  0  0  0  0  0  0  0  0  0  0  0
   38.0270   26.6040   42.3180 C   0  0  0  0  0  0  0  0  0  0  0  0
   36.8650   27.1660   41.6940 C   0  0  0  0  0  0  0  0  0  0  0  0
   36.6270   28.5050   41.8360 N   0  0  0  0  0  0  0  0  0  0  0  0
   37.4510   29.2950   42.5410 C   0  0  0  0  0  0  0  0  0  0  0  0
   38.5320   28.8050   43.1270 N   0  0  0  0  0  0  0  0  0  0  0  0
   36.1270   26.6390   41.1030 H   0  0  0  0  0  0  0  0  0  0  0  0
   37.2720   30.3550   42.6600 H   0  0  0  0  0  0  0  0  0  0  0  0
   40.1080   25.0560   40.7360 O   0  0  0  0  0  0  0  0  0  0  0  0
   38.8390   24.9180   40.8160 C   0  0  0  0  0  0  0  0  0  0  0  0
   38.1590   25.1500   42.1390 C   0  0  2  0  0  3  0  0  0  0  0  0
   36.8070   24.4900   41.9090 C   0  0  0  0  0  3  0  0  0  0  0  0
   35.9680   25.2340   41.9690 H   0  0  0  0  0  0  0  0  0  0  0  0
   36.8580   23.8120   40.5790 C   0  0  0  0  0  3  0  0  0  0  0  0
   35.8960   23.8700   40.0190 H   0  0  0  0  0  0  0  0  0  0  0  0
   37.8650   24.5630   39.8410 N   0  0  0  0  0  0  0  0  0  0  0  0
   38.0300   24.8770   38.8480 H   0  0  0  0  0  0  0  0  0  0  0  0
   40.0100   26.9340   43.6790 C   0  0  0  0  0  0  0  0  0  0  0  0
   40.0720   25.8520   43.3500 H   0  0  0  0  0  0  0  0  0  0  0  0
   39.9140   26.8850   44.7650 H   0  0  0  0  0  0  0  0  0  0  0  0
   41.2460   27.6850   43.2420 C   0  0  0  0  0  0  0  0  0  0  0  0
   41.0640   28.5280   42.5690 H   0  0  0  0  0  0  0  0  0  0  0  0
   41.6420   28.1810   44.1920 H   0  0  0  0  0  0  0  0  0  0  0  0
   42.0760   27.0080   42.9530 H   0  0  0  0  0  0  0  0  0  0  0  0
  1  6  1  0  0  0  0
  1 18  1  0  0  0  0
  2  1  2  0  0  0  0
  3  4  2  0  0  0  0
  3  2  1  0  0  0  0
  4  5  1  0  0  0  0
  5  8  1  0  0  0  0
  5  6  2  0  0  0  0
  7  3  1  0  0  0  0
  9 10  2  0  0  0  0
 10 11  1  0  0  0  0
 11  2  1  6  0  0  0
 12 13  1  0  0  0  0
 12 11  1  0  0  0  0
 14 12  1  0  0  0  0
 15 14  1  0  0  0  0
 16 14  1  0  0  0  0
 16 10  1  0  0  0  0
 17 16  1  0  0  0  0
 18 20  1  0  0  0  0
 19 18  1  0  0  0  0
 21 18  1  0  0  0  0
 21 23  1  0  0  0  0
 22 21  1  0  0  0  0
 24 21  1  0  0  0  0
M  END
>  <minimizedAffinity>
-3.93563604

$$$$

 OpenBabel03252500533D

 24 25  0  0  1  0  0  0  0  0999 V2000
   39.2660   31.0260   41.9040 C   0  0  0  0  0  0  0  0  0  0  0  0
   38.3620   29.9940   42.1450 C   0  0  0  0  0  0  0  0  0  0  0  0
   37.0720   30.1230   41.5330 C   0  0  0  0  0  0  0  0  0  0  0  0
   36.8170   31.2290   40.7690 N   0  0  0  0  0  0  0  0  0  0  0  0
   37.7400   32.1840   40.5830 C   0  0  0  0  0  0  0  0  0  0  0  0
   38.9400   32.0910   41.1340 N   0  0  0  0  0  0  0  0  0  0  0  0
   36.2470   29.4280   41.6060 H   0  0  0  0  0  0  0  0  0  0  0  0
   37.5490   33.0620   39.9820 H   0  0  0  0  0  0  0  0  0  0  0  0
   40.0730   27.5300   41.6600 O   0  0  0  0  0  0  0  0  0  0  0  0
   38.8670   27.6490   42.0670 C   0  0  0  0  0  0  0  0  0  0  0  0
   38.5110   28.7920   42.9810 C   0  0  2  0  0  3  0  0  0  0  0  0
   37.1730   28.3320   43.5410 C   0  0  0  0  0  3  0  0  0  0  0  0
   36.3410   29.0270   43.2480 H   0  0  0  0  0  0  0  0  0  0  0  0
   36.9360   26.9410   43.0540 C   0  0  0  0  0  3  0  0  0  0  0  0
   35.8670   26.7340   42.8150 H   0  0  0  0  0  0  0  0  0  0  0  0
   37.7060   26.8650   41.8190 N   0  0  0  0  0  0  0  0  0  0  0  0
   37.6160   26.4100   40.8720 H   0  0  0  0  0  0  0  0  0  0  0  0
   40.5760   30.9160   42.5250 C   0  0  0  0  0  0  0  0  0  0  0  0
   40.5340   30.0010   43.1920 H   0  0  0  0  0  0  0  0  0  0  0  0
   40.7940   31.7410   43.2050 H   0  0  0  0  0  0  0  0  0  0  0  0
   41.6400   30.7430   41.4670 C   0  0  0  0  0  0  0  0  0  0  0  0
   41.2780   30.7750   40.4350 H   0  0  0  0  0  0  0  0  0  0  0  0
   42.2940   31.6750   41.5510 H   0  0  0  0  0  0  0  0  0  0  0  0
   42.3480   29.9230   41.7050 H   0  0  0  0  0  0  0  0  0  0  0  0
  1  2  1  0  0  0  0
  1 18  1  0  0  0  0
  3  7  1  0  0  0  0
  3  2  2  0  0  0  0
  4  3  1  0  0  0  0
  5  4  2  0  0  0  0
  5  6  1  0  0  0  0
  6  1  2  0  0  0  0
  8  5  1  0  0  0  0
  9 10  2  0  0  0  0
 10 11  1  0  0  0  0
 11  2  1  6  0  0  0
 11 12  1  0  0  0  0
 13 12  1  0  0  0  0
 14 12  1  0  0  0  0
 15 14  1  0  0  0  0
 16 10  1  0  0  0  0
 16 14  1  0  0  0  0
 17 16  1  0  0  0  0
 18 19  1  0  0  0  0
 18 20  1  0  0  0  0
 21 23  1  0  0  0  0
 21 24  1  0  0  0  0
 21 18  1  0  0  0  0
 22 21  1  0  0  0  0
M  END
>  <minimizedAffinity>
-3.89224195

$$$$
