
 OpenBabel03252508323D

 32 34  0  0  1  0  0  0  0  0999 V2000
   46.3290   34.0740   43.1660 N   0  0  0  0  0  0  0  0  0  0  0  0
   47.2470   33.5250   42.2330 C   0  0  1  0  0  0  0  0  0  0  0  0
   47.0890   34.0320   40.8330 C   0  0  0  0  0  0  0  0  0  0  0  0
   45.7830   34.2770   40.3940 N   0  0  0  0  0  0  0  0  0  0  0  0
   44.9070   34.8550   41.3270 C   0  0  0  0  0  0  0  0  0  0  0  0
   45.5610   35.1660   42.6380 C   0  0  0  0  0  0  0  0  0  0  0  0
   47.1030   32.4240   42.2130 H   0  0  0  0  0  0  0  0  0  0  0  0
   47.6080   35.0370   40.8310 H   0  0  0  0  0  0  0  0  0  0  0  0
   47.6180   33.3520   40.1350 H   0  0  0  0  0  0  0  0  0  0  0  0
   45.7430   34.5600   39.4170 H   0  0  0  0  0  0  0  0  0  0  0  0
   44.0330   34.1990   41.4830 H   0  0  0  0  0  0  0  0  0  0  0  0
   44.5800   35.8540   40.9140 H   0  0  0  0  0  0  0  0  0  0  0  0
   44.8270   35.6220   43.3200 H   0  0  0  0  0  0  0  0  0  0  0  0
   46.2800   35.9980   42.4100 H   0  0  0  0  0  0  0  0  0  0  0  0
   45.3790   34.1780   45.3430 C   0  0  0  0  0  0  0  0  0  0  0  0
   46.2620   33.5320   44.4590 C   0  0  0  0  0  0  0  0  0  0  0  0
   46.9900   32.4550   44.9310 C   0  0  0  0  0  0  0  0  0  0  0  0
   46.8600   32.0300   46.2200 N   0  0  0  0  0  0  0  0  0  0  0  0
   45.9940   32.6750   47.0620 C   0  0  0  0  0  0  0  0  0  0  0  0
   45.2730   33.7250   46.6260 N   0  0  0  0  0  0  0  0  0  0  0  0
   44.7310   35.0220   45.1770 H   0  0  0  0  0  0  0  0  0  0  0  0
   47.6600   31.9420   44.2560 H   0  0  0  0  0  0  0  0  0  0  0  0
   45.8900   32.3390   48.0830 H   0  0  0  0  0  0  0  0  0  0  0  0
   49.1940   36.2690   41.8130 O   0  0  0  0  0  0  0  0  0  0  0  0
   49.2400   35.0620   42.2140 C   0  0  0  0  0  0  0  0  0  0  0  0
   48.6910   33.7400   42.5890 C   0  0  2  0  0  3  0  0  0  0  0  0
   49.6270   32.8330   41.8240 C   0  0  0  0  0  3  0  0  0  0  0  0
   49.6570   33.0440   40.7520 H   0  0  0  0  0  0  0  0  0  0  0  0
   50.9610   33.3550   42.3840 C   0  0  0  0  0  3  0  0  0  0  0  0
   51.1770   32.9280   43.3710 H   0  0  0  0  0  0  0  0  0  0  0  0
   50.6460   34.7920   42.4530 N   0  0  0  0  0  0  0  0  0  0  0  0
   51.5620   35.2990   42.6700 H   0  0  0  0  0  0  0  0  0  0  0  0
  1 16  1  0  0  0  0
  2  7  1  6  0  0  0
  2 26  1  0  0  0  0
  2  1  1  0  0  0  0
  3  2  1  0  0  0  0
  4  3  1  0  0  0  0
  4  5  1  0  0  0  0
  5 11  1  0  0  0  0
  5  6  1  0  0  0  0
  6  1  1  0  0  0  0
  6 13  1  0  0  0  0
  8  3  1  0  0  0  0
  9  3  1  0  0  0  0
 10  4  1  0  0  0  0
 12  5  1  0  0  0  0
 14  6  1  0  0  0  0
 15 20  1  0  0  0  0
 16 17  1  0  0  0  0
 16 15  2  0  0  0  0
 17 18  2  0  0  0  0
 18 19  1  0  0  0  0
 19 23  1  0  0  0  0
 20 19  2  0  0  0  0
 21 15  1  0  0  0  0
 22 17  1  0  0  0  0
 24 25  2  0  0  0  0
 25 31  1  0  0  0  0
 25 26  1  0  0  0  0
 26 27  1  6  0  0  0
 27 29  1  0  0  0  0
 28 27  1  0  0  0  0
 29 31  1  0  0  0  0
 29 30  1  0  0  0  0
 31 32  1  0  0  0  0
M  END
>  <minimizedAffinity>
-5.50807095

>  <minimizedRMSD>
2.84240484

$$$$
