
 OpenBabel03242518053D

 20 21  0  0  1  0  0  0  0  0999 V2000
   45.1170   35.0710   44.2820 C   0  0  0  0  0  0  0  0  0  0  0  0
   46.0970   34.5690   43.3870 C   0  0  0  0  0  0  0  0  0  0  0  0
   46.9520   33.5520   43.8500 C   0  0  0  0  0  0  0  0  0  0  0  0
   46.7860   33.1180   45.1240 N   0  0  0  0  0  0  0  0  0  0  0  0
   45.8550   33.6070   45.9480 C   0  0  0  0  0  0  0  0  0  0  0  0
   45.0180   34.5850   45.5320 N   0  0  0  0  0  0  0  0  0  0  0  0
   44.2460   36.0990   43.8260 N   0  0  0  0  0  0  0  0  0  0  0  0
   47.7090   33.1520   43.1870 H   0  0  0  0  0  0  0  0  0  0  0  0
   45.8160   33.1810   46.9460 H   0  0  0  0  0  0  0  0  0  0  0  0
   43.2210   36.0710   43.6150 H   0  0  0  0  0  0  0  0  0  0  0  0
   44.9070   36.9230   43.7500 H   0  0  0  0  0  0  0  0  0  0  0  0
   48.4970   35.6750   41.8760 O   0  0  0  0  0  0  0  0  0  0  0  0
   47.6060   34.8430   41.5660 C   0  0  0  0  0  0  0  0  0  0  0  0
   46.2160   35.0880   42.0280 C   0  0  1  0  0  3  0  0  0  0  0  0
   45.4110   34.3610   40.9940 C   0  0  0  0  0  3  0  0  0  0  0  0
   44.3830   34.1230   41.2780 H   0  0  0  0  0  0  0  0  0  0  0  0
   46.2460   33.1330   40.7040 C   0  0  0  0  0  3  0  0  0  0  0  0
   46.0240   32.6730   39.7270 H   0  0  0  0  0  0  0  0  0  0  0  0
   47.5790   33.6260   40.8270 N   0  0  0  0  0  0  0  0  0  0  0  0
   48.5290   33.2890   40.4920 H   0  0  0  0  0  0  0  0  0  0  0  0
  1  6  1  0  0  0  0
  2  3  1  0  0  0  0
  2  1  2  0  0  0  0
  3  4  2  0  0  0  0
  4  5  1  0  0  0  0
  5  9  1  0  0  0  0
  6  5  2  0  0  0  0
  7  1  1  0  0  0  0
  8  3  1  0  0  0  0
 10  7  1  0  0  0  0
 11  7  1  0  0  0  0
 13 12  2  0  0  0  0
 13 14  1  0  0  0  0
 14  2  1  1  0  0  0
 15 16  1  0  0  0  0
 15 14  1  0  0  0  0
 17 19  1  0  0  0  0
 17 15  1  0  0  0  0
 18 17  1  0  0  0  0
 19 13  1  0  0  0  0
 20 19  1  0  0  0  0
M  END
>  <minimizedAffinity>
-4.4167757

>  <minimizedRMSD>
0.635938883

$$$$
