
 OpenBabel03242510413D

 31 33  0  0  1  0  0  0  0  0999 V2000
   40.0960   30.0230   39.3010 Cl  0  0  0  0  0  0  0  0  0  0  0  0
   39.5920   31.6590   39.6930 C   0  0  0  0  0  0  0  0  0  0  0  0
   38.3560   31.8300   40.2600 C   0  0  0  0  0  0  0  0  0  0  0  0
   37.9590   33.0920   40.5780 C   0  0  0  0  0  0  0  0  0  0  0  0
   38.8240   34.1610   40.3130 C   0  0  0  0  0  0  0  0  0  0  0  0
   40.0630   33.9700   39.7410 C   0  0  0  0  0  0  0  0  0  0  0  0
   40.4660   32.6770   39.4180 C   0  0  0  0  0  0  0  0  0  0  0  0
   37.0010   33.3010   41.0260 H   0  0  0  0  0  0  0  0  0  0  0  0
   38.4910   35.1600   40.5720 H   0  0  0  0  0  0  0  0  0  0  0  0
   40.7030   34.8340   39.5530 H   0  0  0  0  0  0  0  0  0  0  0  0
   41.1620   31.8840   36.6500 O   0  0  0  0  0  0  0  0  0  0  0  0
   41.8000   32.7310   37.3350 C   0  0  0  0  0  0  0  0  0  0  0  0
   41.8090   32.5210   38.8050 C   0  0  1  0  0  3  0  0  0  0  0  0
   42.7500   33.6280   39.2670 C   0  0  0  0  0  3  0  0  0  0  0  0
   43.4710   33.2510   40.0190 H   0  0  0  0  0  0  0  0  0  0  0  0
   43.4350   34.1600   38.0300 C   0  0  0  0  0  3  0  0  0  0  0  0
   44.4310   33.6510   37.9050 H   0  0  0  0  0  0  0  0  0  0  0  0
   42.5360   33.8910   36.9410 N   0  0  0  0  0  0  0  0  0  0  0  0
   42.3790   34.3740   36.0270 H   0  0  0  0  0  0  0  0  0  0  0  0
   35.6600   29.3900   39.9390 C   0  0  0  0  0  0  0  0  0  0  0  0
   35.9130   28.4660   40.9800 C   0  0  0  0  0  0  0  0  0  0  0  0
   37.0430   28.7260   41.7860 C   0  0  0  0  0  0  0  0  0  0  0  0
   37.7850   29.8240   41.5050 N   0  0  0  0  0  0  0  0  0  0  0  0
   37.5000   30.6750   40.4990 C   0  0  0  0  0  0  0  0  0  0  0  0
   36.4290   30.4500   39.7160 N   0  0  0  0  0  0  0  0  0  0  0  0
   34.8000   29.2260   39.2950 H   0  0  0  0  0  0  0  0  0  0  0  0
   35.2680   27.6300   41.1190 H   0  0  0  0  0  0  0  0  0  0  0  0
   37.2770   27.7510   42.8540 C   0  0  0  0  0  0  0  0  0  0  0  0
   36.1220   27.6510   43.6100 F   0  0  0  0  0  0  0  0  0  0  0  0
   38.2390   28.2800   43.6780 F   0  0  0  0  0  0  0  0  0  0  0  0
   37.5730   26.4960   42.3730 F   0  0  0  0  0  0  0  0  0  0  0  0
  1  2  1  0  0  0  0
  2  3  1  0  0  0  0
  3 24  1  0  0  0  0
  3  4  2  0  0  0  0
  4  8  1  0  0  0  0
  5  9  1  0  0  0  0
  5  4  1  0  0  0  0
  6  5  2  0  0  0  0
  7  2  2  0  0  0  0
  7  6  1  0  0  0  0
 10  6  1  0  0  0  0
 11 12  2  0  0  0  0
 12 13  1  0  0  0  0
 13 14  1  0  0  0  0
 13  7  1  1  0  0  0
 14 15  1  0  0  0  0
 16 14  1  0  0  0  0
 17 16  1  0  0  0  0
 18 12  1  0  0  0  0
 18 16  1  0  0  0  0
 19 18  1  0  0  0  0
 20 21  1  0  0  0  0
 21 27  1  0  0  0  0
 21 22  2  0  0  0  0
 22 28  1  0  0  0  0
 23 22  1  0  0  0  0
 24 23  2  0  0  0  0
 25 20  2  0  0  0  0
 25 24  1  0  0  0  0
 26 20  1  0  0  0  0
 28 29  1  0  0  0  0
 28 30  1  0  0  0  0
 31 28  1  0  0  0  0
M  END
>  <minimizedAffinity>
-6.1499939

$$$$

 OpenBabel03242510413D

 31 33  0  0  1  0  0  0  0  0999 V2000
   40.5090   29.6310   40.9330 Cl  0  0  0  0  0  0  0  0  0  0  0  0
   39.2260   30.7510   40.5060 C   0  0  0  0  0  0  0  0  0  0  0  0
   37.9530   30.4530   40.9170 C   0  0  0  0  0  0  0  0  0  0  0  0
   36.9510   31.3190   40.6010 C   0  0  0  0  0  0  0  0  0  0  0  0
   37.2600   32.4740   39.8720 C   0  0  0  0  0  0  0  0  0  0  0  0
   38.5460   32.7570   39.4670 C   0  0  0  0  0  0  0  0  0  0  0  0
   39.5670   31.8690   39.7920 C   0  0  0  0  0  0  0  0  0  0  0  0
   35.9270   31.1490   40.8920 H   0  0  0  0  0  0  0  0  0  0  0  0
   36.4500   33.1530   39.6290 H   0  0  0  0  0  0  0  0  0  0  0  0
   38.7390   33.6690   38.9000 H   0  0  0  0  0  0  0  0  0  0  0  0
   41.0820   30.7950   37.4840 O   0  0  0  0  0  0  0  0  0  0  0  0
   41.1320   31.9920   37.8790 C   0  0  0  0  0  0  0  0  0  0  0  0
   40.9370   32.2160   39.3350 C   0  0  1  0  0  3  0  0  0  0  0  0
   41.1840   33.7160   39.4500 C   0  0  0  0  0  3  0  0  0  0  0  0
   41.8300   33.9480   40.3200 H   0  0  0  0  0  0  0  0  0  0  0  0
   41.8020   34.1560   38.1430 C   0  0  0  0  0  3  0  0  0  0  0  0
   42.9230   34.1730   38.2450 H   0  0  0  0  0  0  0  0  0  0  0  0
   41.3500   33.2070   37.1610 N   0  0  0  0  0  0  0  0  0  0  0  0
   41.1860   33.2910   36.1310 H   0  0  0  0  0  0  0  0  0  0  0  0
   37.3890   28.1320   43.6780 C   0  0  0  0  0  0  0  0  0  0  0  0
   37.1950   26.8860   43.0390 C   0  0  0  0  0  0  0  0  0  0  0  0
   37.2700   26.8870   41.6290 C   0  0  0  0  0  0  0  0  0  0  0  0
   37.5180   28.0650   41.0070 N   0  0  0  0  0  0  0  0  0  0  0  0
   37.6970   29.2280   41.6640 C   0  0  0  0  0  0  0  0  0  0  0  0
   37.6310   29.2540   43.0080 N   0  0  0  0  0  0  0  0  0  0  0  0
   37.3400   28.1740   44.7630 H   0  0  0  0  0  0  0  0  0  0  0  0
   37.0030   26.0130   43.6190 H   0  0  0  0  0  0  0  0  0  0  0  0
   37.0640   25.5810   40.9980 C   0  0  0  0  0  0  0  0  0  0  0  0
   38.2780   25.1450   40.4970 F   0  0  0  0  0  0  0  0  0  0  0  0
   36.2440   25.7820   39.9160 F   0  0  0  0  0  0  0  0  0  0  0  0
   36.6080   24.6290   41.8820 F   0  0  0  0  0  0  0  0  0  0  0  0
  2  3  1  0  0  0  0
  2  1  1  0  0  0  0
  3 24  1  0  0  0  0
  4  8  1  0  0  0  0
  4  3  2  0  0  0  0
  5  4  1  0  0  0  0
  6  7  1  0  0  0  0
  6  5  2  0  0  0  0
  7  2  2  0  0  0  0
  9  5  1  0  0  0  0
 10  6  1  0  0  0  0
 11 12  2  0  0  0  0
 12 13  1  0  0  0  0
 13 14  1  0  0  0  0
 13  7  1  6  0  0  0
 14 15  1  0  0  0  0
 16 17  1  0  0  0  0
 16 14  1  0  0  0  0
 18 12  1  0  0  0  0
 18 16  1  0  0  0  0
 19 18  1  0  0  0  0
 20 26  1  0  0  0  0
 21 27  1  0  0  0  0
 21 20  1  0  0  0  0
 22 21  2  0  0  0  0
 23 22  1  0  0  0  0
 23 24  2  0  0  0  0
 24 25  1  0  0  0  0
 25 20  2  0  0  0  0
 28 22  1  0  0  0  0
 28 31  1  0  0  0  0
 29 28  1  0  0  0  0
 30 28  1  0  0  0  0
M  END
>  <minimizedAffinity>
-5.95120811

$$$$

 OpenBabel03242510413D

 31 33  0  0  1  0  0  0  0  0999 V2000
   38.2350   27.5370   39.2090 Cl  0  0  0  0  0  0  0  0  0  0  0  0
   37.9130   27.9270   40.8910 C   0  0  0  0  0  0  0  0  0  0  0  0
   37.6400   26.8920   41.7470 C   0  0  0  0  0  0  0  0  0  0  0  0
   37.4000   27.1800   43.0550 C   0  0  0  0  0  0  0  0  0  0  0  0
   37.4400   28.5160   43.4720 C   0  0  0  0  0  0  0  0  0  0  0  0
   37.7140   29.5450   42.5970 C   0  0  0  0  0  0  0  0  0  0  0  0
   37.9600   29.2450   41.2600 C   0  0  0  0  0  0  0  0  0  0  0  0
   37.1790   26.4170   43.7840 H   0  0  0  0  0  0  0  0  0  0  0  0
   37.2450   28.7280   44.5180 H   0  0  0  0  0  0  0  0  0  0  0  0
   37.7340   30.5710   42.9670 H   0  0  0  0  0  0  0  0  0  0  0  0
   36.1970   30.5190   39.2480 O   0  0  0  0  0  0  0  0  0  0  0  0
   37.0340   31.1380   39.9630 C   0  0  0  0  0  0  0  0  0  0  0  0
   38.2530   30.3850   40.3550 C   0  0  1  0  0  3  0  0  0  0  0  0
   39.0580   31.4600   41.0760 C   0  0  0  0  0  3  0  0  0  0  0  0
   40.1210   31.4380   40.7660 H   0  0  0  0  0  0  0  0  0  0  0  0
   38.3950   32.7820   40.7640 C   0  0  0  0  0  3  0  0  0  0  0  0
   38.9200   33.2670   39.8940 H   0  0  0  0  0  0  0  0  0  0  0  0
   37.0210   32.4700   40.4780 N   0  0  0  0  0  0  0  0  0  0  0  0
   36.1410   33.0240   40.5870 H   0  0  0  0  0  0  0  0  0  0  0  0
   38.6310   23.4760   40.9240 C   0  0  0  0  0  0  0  0  0  0  0  0
   37.4860   22.9330   40.2970 C   0  0  0  0  0  0  0  0  0  0  0  0
   36.3730   23.7930   40.1730 C   0  0  0  0  0  0  0  0  0  0  0  0
   36.4870   25.0530   40.6560 N   0  0  0  0  0  0  0  0  0  0  0  0
   37.6040   25.5240   41.2460 C   0  0  0  0  0  0  0  0  0  0  0  0
   38.6790   24.7240   41.3770 N   0  0  0  0  0  0  0  0  0  0  0  0
   39.5100   22.8470   41.0390 H   0  0  0  0  0  0  0  0  0  0  0  0
   37.4950   21.9250   39.9500 H   0  0  0  0  0  0  0  0  0  0  0  0
   35.2040   23.1990   39.5200 C   0  0  0  0  0  0  0  0  0  0  0  0
   35.5550   21.9420   39.0600 F   0  0  0  0  0  0  0  0  0  0  0  0
   34.9340   23.9600   38.4090 F   0  0  0  0  0  0  0  0  0  0  0  0
   34.1350   23.0500   40.3740 F   0  0  0  0  0  0  0  0  0  0  0  0
  1  2  1  0  0  0  0
  2  7  2  0  0  0  0
  2  3  1  0  0  0  0
  3  4  2  0  0  0  0
  4  5  1  0  0  0  0
  4  8  1  0  0  0  0
  5  9  1  0  0  0  0
  6 10  1  0  0  0  0
  6  5  2  0  0  0  0
  7  6  1  0  0  0  0
 11 12  2  0  0  0  0
 12 13  1  0  0  0  0
 12 18  1  0  0  0  0
 13 14  1  0  0  0  0
 13  7  1  1  0  0  0
 15 14  1  0  0  0  0
 16 14  1  0  0  0  0
 17 16  1  0  0  0  0
 18 19  1  0  0  0  0
 18 16  1  0  0  0  0
 20 26  1  0  0  0  0
 20 25  1  0  0  0  0
 21 20  2  0  0  0  0
 22 21  1  0  0  0  0
 22 23  2  0  0  0  0
 23 24  1  0  0  0  0
 24 25  2  0  0  0  0
 24  3  1  0  0  0  0
 27 21  1  0  0  0  0
 28 22  1  0  0  0  0
 28 31  1  0  0  0  0
 29 28  1  0  0  0  0
 30 28  1  0  0  0  0
M  END
>  <minimizedAffinity>
-5.74100161

$$$$

 OpenBabel03242510413D

 31 33  0  0  1  0  0  0  0  0999 V2000
   39.3710   27.9290   39.7880 Cl  0  0  0  0  0  0  0  0  0  0  0  0
   38.3440   27.7010   41.1940 C   0  0  0  0  0  0  0  0  0  0  0  0
   38.1590   28.7690   42.0320 C   0  0  0  0  0  0  0  0  0  0  0  0
   37.3570   28.6070   43.1200 C   0  0  0  0  0  0  0  0  0  0  0  0
   36.7560   27.3610   43.3380 C   0  0  0  0  0  0  0  0  0  0  0  0
   36.9550   26.2970   42.4860 C   0  0  0  0  0  0  0  0  0  0  0  0
   37.7760   26.4670   41.3740 C   0  0  0  0  0  0  0  0  0  0  0  0
   37.1660   29.4040   43.8210 H   0  0  0  0  0  0  0  0  0  0  0  0
   36.1210   27.2500   44.2110 H   0  0  0  0  0  0  0  0  0  0  0  0
   36.4670   25.3450   42.6970 H   0  0  0  0  0  0  0  0  0  0  0  0
   40.1060   24.6510   41.1520 O   0  0  0  0  0  0  0  0  0  0  0  0
   38.9020   24.2900   41.0400 C   0  0  0  0  0  0  0  0  0  0  0  0
   37.9590   25.2940   40.4840 C   0  0  1  0  0  3  0  0  0  0  0  0
   36.6720   24.4830   40.3810 C   0  0  0  0  0  3  0  0  0  0  0  0
   36.1670   24.6570   39.4110 H   0  0  0  0  0  0  0  0  0  0  0  0
   37.0560   23.0340   40.5770 C   0  0  0  0  0  3  0  0  0  0  0  0
   37.1980   22.5450   39.5730 H   0  0  0  0  0  0  0  0  0  0  0  0
   38.2620   23.0530   41.3600 N   0  0  0  0  0  0  0  0  0  0  0  0
   38.6660   22.3680   42.0380 H   0  0  0  0  0  0  0  0  0  0  0  0
   40.5980   31.4850   42.0660 C   0  0  0  0  0  0  0  0  0  0  0  0
   40.0510   32.4430   41.1810 C   0  0  0  0  0  0  0  0  0  0  0  0
   38.8160   32.1100   40.5840 C   0  0  0  0  0  0  0  0  0  0  0  0
   38.2580   30.9160   40.9000 N   0  0  0  0  0  0  0  0  0  0  0  0
   38.8220   30.0370   41.7520 C   0  0  0  0  0  0  0  0  0  0  0  0
   40.0000   30.3300   42.3350 N   0  0  0  0  0  0  0  0  0  0  0  0
   41.5480   31.7030   42.5470 H   0  0  0  0  0  0  0  0  0  0  0  0
   40.5690   33.3560   40.9970 H   0  0  0  0  0  0  0  0  0  0  0  0
   38.2770   33.1230   39.6730 C   0  0  0  0  0  0  0  0  0  0  0  0
   38.2350   32.5830   38.4000 F   0  0  0  0  0  0  0  0  0  0  0  0
   39.1860   34.1510   39.6320 F   0  0  0  0  0  0  0  0  0  0  0  0
   36.9990   33.5120   40.0060 F   0  0  0  0  0  0  0  0  0  0  0  0
  1  2  1  0  0  0  0
  2  7  2  0  0  0  0
  2  3  1  0  0  0  0
  3  4  2  0  0  0  0
  4  5  1  0  0  0  0
  4  8  1  0  0  0  0
  5  9  1  0  0  0  0
  6 10  1  0  0  0  0
  6  5  2  0  0  0  0
  7  6  1  0  0  0  0
 12 11  2  0  0  0  0
 12 18  1  0  0  0  0
 13 12  1  0  0  0  0
 13  7  1  1  0  0  0
 14 13  1  0  0  0  0
 14 16  1  0  0  0  0
 15 14  1  0  0  0  0
 16 18  1  0  0  0  0
 17 16  1  0  0  0  0
 18 19  1  0  0  0  0
 20 25  1  0  0  0  0
 20 26  1  0  0  0  0
 21 20  2  0  0  0  0
 22 23  2  0  0  0  0
 22 21  1  0  0  0  0
 23 24  1  0  0  0  0
 24  3  1  0  0  0  0
 24 25  2  0  0  0  0
 27 21  1  0  0  0  0
 28 31  1  0  0  0  0
 28 22  1  0  0  0  0
 29 28  1  0  0  0  0
 30 28  1  0  0  0  0
M  END
>  <minimizedAffinity>
-5.6926775

$$$$

 OpenBabel03242510413D

 31 33  0  0  1  0  0  0  0  0999 V2000
   38.5880   28.4300   39.2970 Cl  0  0  0  0  0  0  0  0  0  0  0  0
   38.2090   28.2610   41.0030 C   0  0  0  0  0  0  0  0  0  0  0  0
   38.0540   29.4050   41.7410 C   0  0  0  0  0  0  0  0  0  0  0  0
   37.7490   29.2870   43.0630 C   0  0  0  0  0  0  0  0  0  0  0  0
   37.6070   28.0080   43.6120 C   0  0  0  0  0  0  0  0  0  0  0  0
   37.7680   26.8680   42.8550 C   0  0  0  0  0  0  0  0  0  0  0  0
   38.0790   26.9930   41.5040 C   0  0  0  0  0  0  0  0  0  0  0  0
   37.6120   30.1440   43.7030 H   0  0  0  0  0  0  0  0  0  0  0  0
   37.3650   27.9320   44.6670 H   0  0  0  0  0  0  0  0  0  0  0  0
   37.6480   25.8910   43.3280 H   0  0  0  0  0  0  0  0  0  0  0  0
   40.3950   25.1480   41.4220 O   0  0  0  0  0  0  0  0  0  0  0  0
   39.1880   24.7850   41.3640 C   0  0  0  0  0  0  0  0  0  0  0  0
   38.2410   25.7370   40.7290 C   0  0  1  0  0  3  0  0  0  0  0  0
   36.9490   24.9290   40.7260 C   0  0  0  0  0  3  0  0  0  0  0  0
   36.4280   25.0120   39.7520 H   0  0  0  0  0  0  0  0  0  0  0  0
   37.3270   23.5040   41.0550 C   0  0  0  0  0  3  0  0  0  0  0  0
   37.4500   22.9190   40.1010 H   0  0  0  0  0  0  0  0  0  0  0  0
   38.5470   23.5900   41.8130 N   0  0  0  0  0  0  0  0  0  0  0  0
   38.9590   22.9710   42.5480 H   0  0  0  0  0  0  0  0  0  0  0  0
   37.3220   32.5900   40.1130 C   0  0  0  0  0  0  0  0  0  0  0  0
   38.5950   33.1780   39.9320 C   0  0  0  0  0  0  0  0  0  0  0  0
   39.7010   32.4310   40.3910 C   0  0  0  0  0  0  0  0  0  0  0  0
   39.4610   31.2250   40.9610 N   0  0  0  0  0  0  0  0  0  0  0  0
   38.2250   30.7080   41.1090 C   0  0  0  0  0  0  0  0  0  0  0  0
   37.1540   31.4000   40.6800 N   0  0  0  0  0  0  0  0  0  0  0  0
   36.4440   33.1330   39.7720 H   0  0  0  0  0  0  0  0  0  0  0  0
   38.6790   34.1360   39.4720 H   0  0  0  0  0  0  0  0  0  0  0  0
   41.0040   33.0690   40.1900 C   0  0  0  0  0  0  0  0  0  0  0  0
   40.8290   34.1610   39.3590 F   0  0  0  0  0  0  0  0  0  0  0  0
   41.7870   32.1760   39.5010 F   0  0  0  0  0  0  0  0  0  0  0  0
   41.5640   33.5200   41.3640 F   0  0  0  0  0  0  0  0  0  0  0  0
  1  2  1  0  0  0  0
  2  7  2  0  0  0  0
  2  3  1  0  0  0  0
  3  4  2  0  0  0  0
  4  5  1  0  0  0  0
  4  8  1  0  0  0  0
  5  9  1  0  0  0  0
  6 10  1  0  0  0  0
  6  5  2  0  0  0  0
  7  6  1  0  0  0  0
 12 11  2  0  0  0  0
 12 18  1  0  0  0  0
 13 12  1  0  0  0  0
 13  7  1  1  0  0  0
 14 13  1  0  0  0  0
 14 16  1  0  0  0  0
 15 14  1  0  0  0  0
 16 18  1  0  0  0  0
 17 16  1  0  0  0  0
 18 19  1  0  0  0  0
 20 25  1  0  0  0  0
 21 20  2  0  0  0  0
 21 22  1  0  0  0  0
 22 23  2  0  0  0  0
 23 24  1  0  0  0  0
 24  3  1  0  0  0  0
 25 24  2  0  0  0  0
 26 20  1  0  0  0  0
 27 21  1  0  0  0  0
 28 22  1  0  0  0  0
 28 31  1  0  0  0  0
 29 28  1  0  0  0  0
 30 28  1  0  0  0  0
M  END
>  <minimizedAffinity>
-5.63449097

$$$$

 OpenBabel03242510413D

 31 33  0  0  1  0  0  0  0  0999 V2000
   37.5000   30.6490   40.6880 Cl  0  0  0  0  0  0  0  0  0  0  0  0
   39.1460   30.6110   41.2980 C   0  0  0  0  0  0  0  0  0  0  0  0
   39.5100   29.5560   42.0940 C   0  0  0  0  0  0  0  0  0  0  0  0
   40.7860   29.5100   42.5650 C   0  0  0  0  0  0  0  0  0  0  0  0
   41.6720   30.5380   42.2200 C   0  0  0  0  0  0  0  0  0  0  0  0
   41.2890   31.5920   41.4200 C   0  0  0  0  0  0  0  0  0  0  0  0
   39.9830   31.6350   40.9400 C   0  0  0  0  0  0  0  0  0  0  0  0
   41.1410   28.7100   43.1950 H   0  0  0  0  0  0  0  0  0  0  0  0
   42.6850   30.4850   42.6040 H   0  0  0  0  0  0  0  0  0  0  0  0
   42.0140   32.3700   41.1780 H   0  0  0  0  0  0  0  0  0  0  0  0
   39.8580   31.7830   37.9830 O   0  0  0  0  0  0  0  0  0  0  0  0
   39.0640   32.3760   38.7650 C   0  0  0  0  0  0  0  0  0  0  0  0
   39.6160   32.7890   40.0800 C   0  0  1  0  0  3  0  0  0  0  0  0
   38.4450   33.5600   40.6770 C   0  0  0  0  0  3  0  0  0  0  0  0
   38.7850   34.5060   41.1420 H   0  0  0  0  0  0  0  0  0  0  0  0
   37.4620   33.7940   39.5530 C   0  0  0  0  0  3  0  0  0  0  0  0
   37.6370   34.8140   39.1090 H   0  0  0  0  0  0  0  0  0  0  0  0
   37.6890   32.7330   38.6100 N   0  0  0  0  0  0  0  0  0  0  0  0
   37.0570   32.2590   37.9240 H   0  0  0  0  0  0  0  0  0  0  0  0
   36.7380   27.7880   43.6800 C   0  0  0  0  0  0  0  0  0  0  0  0
   36.6960   26.5470   43.0040 C   0  0  0  0  0  0  0  0  0  0  0  0
   37.6600   26.3530   41.9910 C   0  0  0  0  0  0  0  0  0  0  0  0
   38.5370   27.3570   41.7480 N   0  0  0  0  0  0  0  0  0  0  0  0
   38.5350   28.5240   42.4240 C   0  0  0  0  0  0  0  0  0  0  0  0
   37.6260   28.7330   43.3940 N   0  0  0  0  0  0  0  0  0  0  0  0
   36.0120   27.9770   44.4680 H   0  0  0  0  0  0  0  0  0  0  0  0
   35.9640   25.8190   43.2690 H   0  0  0  0  0  0  0  0  0  0  0  0
   37.5900   25.0580   41.3110 C   0  0  0  0  0  0  0  0  0  0  0  0
   38.7490   24.8920   40.5740 F   0  0  0  0  0  0  0  0  0  0  0  0
   36.5600   25.1340   40.4060 F   0  0  0  0  0  0  0  0  0  0  0  0
   37.4940   24.0010   42.1870 F   0  0  0  0  0  0  0  0  0  0  0  0
  1  2  1  0  0  0  0
  2  3  1  0  0  0  0
  3 24  1  0  0  0  0
  3  4  2  0  0  0  0
  4  8  1  0  0  0  0
  5  4  1  0  0  0  0
  5  9  1  0  0  0  0
  6  5  2  0  0  0  0
  7  2  2  0  0  0  0
  7  6  1  0  0  0  0
 10  6  1  0  0  0  0
 11 12  2  0  0  0  0
 12 13  1  0  0  0  0
 13 14  1  0  0  0  0
 13  7  1  1  0  0  0
 14 15  1  0  0  0  0
 16 14  1  0  0  0  0
 17 16  1  0  0  0  0
 18 12  1  0  0  0  0
 18 16  1  0  0  0  0
 19 18  1  0  0  0  0
 20 26  1  0  0  0  0
 21 27  1  0  0  0  0
 21 20  2  0  0  0  0
 22 21  1  0  0  0  0
 23 22  2  0  0  0  0
 23 24  1  0  0  0  0
 24 25  2  0  0  0  0
 25 20  1  0  0  0  0
 28 22  1  0  0  0  0
 28 31  1  0  0  0  0
 29 28  1  0  0  0  0
 30 28  1  0  0  0  0
M  END
>  <minimizedAffinity>
-5.49775505

$$$$

 OpenBabel03242510413D

 31 33  0  0  1  0  0  0  0  0999 V2000
   38.8150   29.9160   41.7170 Cl  0  0  0  0  0  0  0  0  0  0  0  0
   37.6040   29.7680   40.4550 C   0  0  0  0  0  0  0  0  0  0  0  0
   37.5570   30.7440   39.4940 C   0  0  0  0  0  0  0  0  0  0  0  0
   36.6290   30.6340   38.5040 C   0  0  0  0  0  0  0  0  0  0  0  0
   35.7620   29.5350   38.5080 C   0  0  0  0  0  0  0  0  0  0  0  0
   35.8220   28.5640   39.4840 C   0  0  0  0  0  0  0  0  0  0  0  0
   36.7730   28.6790   40.4940 C   0  0  0  0  0  0  0  0  0  0  0  0
   36.5360   31.3640   37.7160 H   0  0  0  0  0  0  0  0  0  0  0  0
   35.0280   29.4640   37.7120 H   0  0  0  0  0  0  0  0  0  0  0  0
   35.1250   27.7250   39.4460 H   0  0  0  0  0  0  0  0  0  0  0  0
   38.2580   26.1150   40.4650 O   0  0  0  0  0  0  0  0  0  0  0  0
   38.0570   26.8160   41.4950 C   0  0  0  0  0  0  0  0  0  0  0  0
   36.8010   27.6080   41.5220 C   0  0  1  0  0  3  0  0  0  0  0  0
   36.8430   28.2020   42.9250 C   0  0  0  0  0  3  0  0  0  0  0  0
   35.8560   28.1240   43.4210 H   0  0  0  0  0  0  0  0  0  0  0  0
   37.9240   27.4620   43.6780 C   0  0  0  0  0  3  0  0  0  0  0  0
   37.4620   26.6250   44.2710 H   0  0  0  0  0  0  0  0  0  0  0  0
   38.8420   26.9900   42.6760 N   0  0  0  0  0  0  0  0  0  0  0  0
   39.8680   26.7890   42.7070 H   0  0  0  0  0  0  0  0  0  0  0  0
   39.1040   33.9110   40.4440 C   0  0  0  0  0  0  0  0  0  0  0  0
   40.2700   33.9710   39.6470 C   0  0  0  0  0  0  0  0  0  0  0  0
   40.4910   32.8810   38.7760 C   0  0  0  0  0  0  0  0  0  0  0  0
   39.5810   31.8770   38.7730 N   0  0  0  0  0  0  0  0  0  0  0  0
   38.4820   31.8680   39.5540 C   0  0  0  0  0  0  0  0  0  0  0  0
   38.2490   32.8950   40.3930 N   0  0  0  0  0  0  0  0  0  0  0  0
   38.8980   34.7310   41.1280 H   0  0  0  0  0  0  0  0  0  0  0  0
   40.9260   34.8070   39.7240 H   0  0  0  0  0  0  0  0  0  0  0  0
   41.7070   32.9750   37.9650 C   0  0  0  0  0  0  0  0  0  0  0  0
   41.6930   31.9430   37.0430 F   0  0  0  0  0  0  0  0  0  0  0  0
   42.7680   32.7360   38.8030 F   0  0  0  0  0  0  0  0  0  0  0  0
   41.7930   34.1590   37.2690 F   0  0  0  0  0  0  0  0  0  0  0  0
  2  7  1  0  0  0  0
  2  1  1  0  0  0  0
  3 24  1  0  0  0  0
  3  2  2  0  0  0  0
  4  5  2  0  0  0  0
  4  3  1  0  0  0  0
  5  6  1  0  0  0  0
  6  7  2  0  0  0  0
  8  4  1  0  0  0  0
  9  5  1  0  0  0  0
 10  6  1  0  0  0  0
 11 12  2  0  0  0  0
 12 13  1  0  0  0  0
 12 18  1  0  0  0  0
 13  7  1  6  0  0  0
 13 14  1  0  0  0  0
 14 15  1  0  0  0  0
 14 16  1  0  0  0  0
 16 17  1  0  0  0  0
 18 19  1  0  0  0  0
 18 16  1  0  0  0  0
 20 26  1  0  0  0  0
 21 27  1  0  0  0  0
 21 20  2  0  0  0  0
 22 21  1  0  0  0  0
 23 22  2  0  0  0  0
 23 24  1  0  0  0  0
 24 25  2  0  0  0  0
 25 20  1  0  0  0  0
 28 22  1  0  0  0  0
 28 30  1  0  0  0  0
 29 28  1  0  0  0  0
 31 28  1  0  0  0  0
M  END
>  <minimizedAffinity>
-5.49719238

$$$$

 OpenBabel03242510413D

 31 33  0  0  1  0  0  0  0  0999 V2000
   38.6520   28.8120   38.8330 Cl  0  0  0  0  0  0  0  0  0  0  0  0
   39.1470   29.3810   40.4180 C   0  0  0  0  0  0  0  0  0  0  0  0
   39.5240   28.4460   41.3460 C   0  0  0  0  0  0  0  0  0  0  0  0
   39.9200   28.8760   42.5750 C   0  0  0  0  0  0  0  0  0  0  0  0
   39.9260   30.2510   42.8420 C   0  0  0  0  0  0  0  0  0  0  0  0
   39.5420   31.1770   41.8970 C   0  0  0  0  0  0  0  0  0  0  0  0
   39.1390   30.7330   40.6410 C   0  0  0  0  0  0  0  0  0  0  0  0
   40.2290   28.1960   43.3530 H   0  0  0  0  0  0  0  0  0  0  0  0
   40.2430   30.5760   43.8270 H   0  0  0  0  0  0  0  0  0  0  0  0
   39.5630   32.2380   42.1500 H   0  0  0  0  0  0  0  0  0  0  0  0
   36.4690   31.2320   39.4590 O   0  0  0  0  0  0  0  0  0  0  0  0
   37.3000   32.1340   39.7570 C   0  0  0  0  0  0  0  0  0  0  0  0
   38.7360   31.7680   39.6550 C   0  0  1  0  0  3  0  0  0  0  0  0
   39.4140   33.0990   39.9570 C   0  0  0  0  0  3  0  0  0  0  0  0
   40.2430   33.2960   39.2490 H   0  0  0  0  0  0  0  0  0  0  0  0
   38.3380   34.1590   39.8900 C   0  0  0  0  0  3  0  0  0  0  0  0
   38.3390   34.6280   38.8670 H   0  0  0  0  0  0  0  0  0  0  0  0
   37.1060   33.4820   40.1880 N   0  0  0  0  0  0  0  0  0  0  0  0
   36.2130   33.8120   40.6210 H   0  0  0  0  0  0  0  0  0  0  0  0
   40.5240   25.1300   40.1920 C   0  0  0  0  0  0  0  0  0  0  0  0
   39.3710   24.3380   40.3960 C   0  0  0  0  0  0  0  0  0  0  0  0
   38.2480   24.9960   40.9410 C   0  0  0  0  0  0  0  0  0  0  0  0
   38.3600   26.3170   41.2220 N   0  0  0  0  0  0  0  0  0  0  0  0
   39.4850   27.0290   41.0070 C   0  0  0  0  0  0  0  0  0  0  0  0
   40.5700   26.4240   40.4890 N   0  0  0  0  0  0  0  0  0  0  0  0
   41.4110   24.6610   39.7730 H   0  0  0  0  0  0  0  0  0  0  0  0
   39.3840   23.3030   40.1420 H   0  0  0  0  0  0  0  0  0  0  0  0
   37.0710   24.1480   41.1400 C   0  0  0  0  0  0  0  0  0  0  0  0
   37.4860   22.8280   41.1620 F   0  0  0  0  0  0  0  0  0  0  0  0
   36.2800   24.2900   40.0270 F   0  0  0  0  0  0  0  0  0  0  0  0
   36.4240   24.4040   42.3280 F   0  0  0  0  0  0  0  0  0  0  0  0
  1  2  1  0  0  0  0
  2  7  2  0  0  0  0
  2  3  1  0  0  0  0
  3  4  2  0  0  0  0
  4  5  1  0  0  0  0
  4  8  1  0  0  0  0
  5  9  1  0  0  0  0
  6 10  1  0  0  0  0
  6  5  2  0  0  0  0
  7  6  1  0  0  0  0
 11 12  2  0  0  0  0
 12 18  1  0  0  0  0
 13 12  1  0  0  0  0
 13 14  1  0  0  0  0
 13  7  1  1  0  0  0
 15 14  1  0  0  0  0
 16 14  1  0  0  0  0
 16 18  1  0  0  0  0
 17 16  1  0  0  0  0
 18 19  1  0  0  0  0
 20 21  2  0  0  0  0
 20 25  1  0  0  0  0
 21 22  1  0  0  0  0
 22 28  1  0  0  0  0
 22 23  2  0  0  0  0
 24 23  1  0  0  0  0
 24  3  1  0  0  0  0
 25 24  2  0  0  0  0
 26 20  1  0  0  0  0
 27 21  1  0  0  0  0
 28 29  1  0  0  0  0
 28 31  1  0  0  0  0
 30 28  1  0  0  0  0
M  END
>  <minimizedAffinity>
-5.47862625

$$$$

 OpenBabel03242510413D

 31 33  0  0  1  0  0  0  0  0999 V2000
   39.0900   28.4990   39.0430 Cl  0  0  0  0  0  0  0  0  0  0  0  0
   39.8440   29.5960   40.1870 C   0  0  0  0  0  0  0  0  0  0  0  0
   39.5910   29.4040   41.5200 C   0  0  0  0  0  0  0  0  0  0  0  0
   40.1790   30.2420   42.4180 C   0  0  0  0  0  0  0  0  0  0  0  0
   41.0130   31.2620   41.9460 C   0  0  0  0  0  0  0  0  0  0  0  0
   41.2550   31.4420   40.6010 C   0  0  0  0  0  0  0  0  0  0  0  0
   40.6530   30.5820   39.6860 C   0  0  0  0  0  0  0  0  0  0  0  0
   40.0250   30.1490   43.4810 H   0  0  0  0  0  0  0  0  0  0  0  0
   41.4730   31.9210   42.6750 H   0  0  0  0  0  0  0  0  0  0  0  0
   41.9130   32.2510   40.2800 H   0  0  0  0  0  0  0  0  0  0  0  0
   38.9100   31.7700   37.6070 O   0  0  0  0  0  0  0  0  0  0  0  0
   40.1590   31.9360   37.6750 C   0  0  0  0  0  0  0  0  0  0  0  0
   40.9440   30.8130   38.2490 C   0  0  1  0  0  3  0  0  0  0  0  0
   42.3730   31.3080   38.0560 C   0  0  0  0  0  3  0  0  0  0  0  0
   43.0250   30.5030   37.6640 H   0  0  0  0  0  0  0  0  0  0  0  0
   42.3000   32.4930   37.1220 C   0  0  0  0  0  3  0  0  0  0  0  0
   42.4970   32.1510   36.0670 H   0  0  0  0  0  0  0  0  0  0  0  0
   40.9800   33.0390   37.2890 N   0  0  0  0  0  0  0  0  0  0  0  0
   40.6050   34.0090   37.1780 H   0  0  0  0  0  0  0  0  0  0  0  0
   36.6270   27.6040   42.6580 C   0  0  0  0  0  0  0  0  0  0  0  0
   37.0540   26.2580   42.7280 C   0  0  0  0  0  0  0  0  0  0  0  0
   38.3960   26.0070   42.3700 C   0  0  0  0  0  0  0  0  0  0  0  0
   39.1600   27.0610   41.9940 N   0  0  0  0  0  0  0  0  0  0  0  0
   38.7040   28.3290   41.9450 C   0  0  0  0  0  0  0  0  0  0  0  0
   37.4280   28.5940   42.2800 N   0  0  0  0  0  0  0  0  0  0  0  0
   35.6000   27.8390   42.9260 H   0  0  0  0  0  0  0  0  0  0  0  0
   36.3730   25.4980   43.0370 H   0  0  0  0  0  0  0  0  0  0  0  0
   38.8060   24.6040   42.4530 C   0  0  0  0  0  0  0  0  0  0  0  0
   39.6100   24.3220   41.3630 F   0  0  0  0  0  0  0  0  0  0  0  0
   37.6720   23.8440   42.3080 F   0  0  0  0  0  0  0  0  0  0  0  0
   39.5290   24.3260   43.5910 F   0  0  0  0  0  0  0  0  0  0  0  0
  1  2  1  0  0  0  0
  2  3  1  0  0  0  0
  3 24  1  0  0  0  0
  3  4  2  0  0  0  0
  4  8  1  0  0  0  0
  5  4  1  0  0  0  0
  5  9  1  0  0  0  0
  6  5  2  0  0  0  0
  7  2  2  0  0  0  0
  7  6  1  0  0  0  0
 10  6  1  0  0  0  0
 11 12  2  0  0  0  0
 12 13  1  0  0  0  0
 13  7  1  1  0  0  0
 14 13  1  0  0  0  0
 15 14  1  0  0  0  0
 16 18  1  0  0  0  0
 16 14  1  0  0  0  0
 17 16  1  0  0  0  0
 18 12  1  0  0  0  0
 19 18  1  0  0  0  0
 20 21  1  0  0  0  0
 20 26  1  0  0  0  0
 21 27  1  0  0  0  0
 22 28  1  0  0  0  0
 22 21  2  0  0  0  0
 23 22  1  0  0  0  0
 24 23  2  0  0  0  0
 24 25  1  0  0  0  0
 25 20  2  0  0  0  0
 28 31  1  0  0  0  0
 29 28  1  0  0  0  0
 30 28  1  0  0  0  0
M  END
>  <minimizedAffinity>
-5.47525072

$$$$
