
 OpenBabel03252500173D

 20 21  0  0  1  0  0  0  0  0999 V2000
   44.7610   35.8170   44.3090 C   0  0  0  0  0  0  0  0  0  0  0  0
   45.7540   35.2380   43.5190 C   0  0  0  0  0  0  0  0  0  0  0  0
   46.4290   34.1390   44.0640 C   0  0  0  0  0  0  0  0  0  0  0  0
   46.0930   33.6930   45.3130 N   0  0  0  0  0  0  0  0  0  0  0  0
   45.1230   34.2970   46.0280 C   0  0  0  0  0  0  0  0  0  0  0  0
   44.4480   35.3710   45.5190 N   0  0  0  0  0  0  0  0  0  0  0  0
   44.7570   33.8480   47.3330 N   0  0  0  0  0  0  0  0  0  0  0  0
   44.2250   36.6690   43.9070 H   0  0  0  0  0  0  0  0  0  0  0  0
   46.0320   35.5770   42.5300 H   0  0  0  0  0  0  0  0  0  0  0  0
   44.4380   32.8520   47.2720 H   0  0  0  0  0  0  0  0  0  0  0  0
   44.7910   34.4020   48.2240 H   0  0  0  0  0  0  0  0  0  0  0  0
   46.7790   34.2590   41.0030 O   0  0  0  0  0  0  0  0  0  0  0  0
   47.2860   33.4920   41.8800 C   0  0  0  0  0  0  0  0  0  0  0  0
   47.5070   33.4180   43.3480 C   0  0  2  0  0  3  0  0  0  0  0  0
   47.5000   31.9390   43.6350 C   0  0  0  0  0  3  0  0  0  0  0  0
   46.4980   31.6020   44.0060 H   0  0  0  0  0  0  0  0  0  0  0  0
   47.8760   31.2460   42.3620 C   0  0  0  0  0  3  0  0  0  0  0  0
   47.1340   30.4730   42.0520 H   0  0  0  0  0  0  0  0  0  0  0  0
   47.8460   32.2800   41.3380 N   0  0  0  0  0  0  0  0  0  0  0  0
   48.2260   31.9920   40.3930 H   0  0  0  0  0  0  0  0  0  0  0  0
  1  6  1  0  0  0  0
  2  3  1  0  0  0  0
  2  1  2  0  0  0  0
  3  4  2  0  0  0  0
  4  5  1  0  0  0  0
  5  7  1  0  0  0  0
  6  5  2  0  0  0  0
  7 11  1  0  0  0  0
  8  1  1  0  0  0  0
  9  2  1  0  0  0  0
 10  7  1  0  0  0  0
 12 13  2  0  0  0  0
 13 14  1  0  0  0  0
 14 15  1  0  0  0  0
 14  3  1  1  0  0  0
 15 16  1  0  0  0  0
 17 15  1  0  0  0  0
 18 17  1  0  0  0  0
 19 13  1  0  0  0  0
 19 17  1  0  0  0  0
 20 19  1  0  0  0  0
M  END
>  <minimizedAffinity>
-4.29832697

>  <minimizedRMSD>
1.03144085

$$$$
