
 OpenBabel03242515163D

 37 39  0  0  1  0  0  0  0  0999 V2000
   45.4730   30.6470   47.1520 C   0  0  0  0  0  0  0  0  0  0  0  0
   45.6620   29.9720   45.9830 C   0  0  0  0  0  0  0  0  0  0  0  0
   45.4110   28.6460   46.2440 C   0  0  0  0  0  0  0  0  0  0  0  0
   45.0810   28.5320   47.5310 N   0  0  0  0  0  0  0  0  0  0  0  0
   45.1230   29.7470   48.0620 N   0  0  0  0  0  0  0  0  0  0  0  0
   45.9570   30.4310   45.0490 H   0  0  0  0  0  0  0  0  0  0  0  0
   47.6840   27.0890   46.0870 O   0  0  0  0  0  0  0  0  0  0  0  0
   46.6700   26.6830   45.4570 C   0  0  0  0  0  0  0  0  0  0  0  0
   45.4940   27.5550   45.2720 C   0  0  1  0  0  0  0  0  0  0  0  0
   44.3800   26.5160   45.4290 C   0  0  0  0  0  0  0  0  0  0  0  0
   43.4560   26.9950   45.0490 H   0  0  0  0  0  0  0  0  0  0  0  0
   44.9130   25.4660   44.4580 C   0  0  0  0  0  0  0  0  0  0  0  0
   44.7630   25.8530   43.4290 H   0  0  0  0  0  0  0  0  0  0  0  0
   46.3250   25.4470   44.7980 N   0  0  0  0  0  0  0  0  0  0  0  0
   47.0790   24.7190   44.6470 H   0  0  0  0  0  0  0  0  0  0  0  0
   44.7270   27.3070   48.2650 C   0  0  0  0  0  0  0  0  0  0  0  0
   44.2940   27.6360   49.5540 F   0  0  0  0  0  0  0  0  0  0  0  0
   45.7750   26.4400   48.2690 F   0  0  0  0  0  0  0  0  0  0  0  0
   43.6510   26.7170   47.6230 F   0  0  0  0  0  0  0  0  0  0  0  0
   45.6060   32.0800   47.4440 C   0  0  0  0  0  0  0  0  0  0  0  0
   44.6230   32.5960   47.3810 H   0  0  0  0  0  0  0  0  0  0  0  0
   45.9810   32.2230   48.4950 H   0  0  0  0  0  0  0  0  0  0  0  0
   46.6120   32.7500   46.5380 C   0  0  0  0  0  0  0  0  0  0  0  0
   47.1360   31.9570   46.0260 H   0  0  0  0  0  0  0  0  0  0  0  0
   47.3830   33.3290   47.1230 H   0  0  0  0  0  0  0  0  0  0  0  0
   44.5540   35.4500   45.0020 C   0  0  0  0  0  0  0  0  0  0  0  0
   45.1070   35.4860   43.6980 C   0  0  0  0  0  0  0  0  0  0  0  0
   46.1320   34.6030   43.4210 C   0  0  0  0  0  0  0  0  0  0  0  0
   46.5130   33.7890   44.4140 N   0  0  0  0  0  0  0  0  0  0  0  0
   45.9970   33.7520   45.6390 C   0  0  0  0  0  0  0  0  0  0  0  0
   45.0160   34.5890   45.9200 N   0  0  0  0  0  0  0  0  0  0  0  0
   43.7350   36.1450   45.2430 H   0  0  0  0  0  0  0  0  0  0  0  0
   44.7500   36.1720   42.9420 H   0  0  0  0  0  0  0  0  0  0  0  0
   46.7020   34.6440   42.0750 C   0  0  0  0  0  0  0  0  0  0  0  0
   47.4960   33.5150   41.8670 F   0  0  0  0  0  0  0  0  0  0  0  0
   47.6130   35.7040   42.0740 F   0  0  0  0  0  0  0  0  0  0  0  0
   45.7590   34.7450   41.0990 F   0  0  0  0  0  0  0  0  0  0  0  0
  1 20  1  0  0  0  0
  1  5  2  0  0  0  0
  2  3  2  0  0  0  0
  2  1  1  0  0  0  0
  3  4  1  0  0  0  0
  4  5  1  0  0  0  0
  4 16  1  0  0  0  0
  6  2  1  0  0  0  0
  8  7  2  0  0  0  0
  9 10  1  0  0  0  0
  9  8  1  0  0  0  0
  9  3  1  1  0  0  0
 11 10  1  0  0  0  0
 12 14  1  0  0  0  0
 12 10  1  0  0  0  0
 13 12  1  0  0  0  0
 14  8  1  0  0  0  0
 15 14  1  0  0  0  0
 16 18  1  0  0  0  0
 16 17  1  0  0  0  0
 19 16  1  0  0  0  0
 20 22  1  0  0  0  0
 21 20  1  0  0  0  0
 23 25  1  0  0  0  0
 23 20  1  0  0  0  0
 24 23  1  0  0  0  0
 26 32  1  0  0  0  0
 26 31  1  0  0  0  0
 27 26  2  0  0  0  0
 28 27  1  0  0  0  0
 28 29  2  0  0  0  0
 29 30  1  0  0  0  0
 30 31  2  0  0  0  0
 30 23  1  0  0  0  0
 33 27  1  0  0  0  0
 34 28  1  0  0  0  0
 35 34  1  0  0  0  0
 36 34  1  0  0  0  0
 37 34  1  0  0  0  0
M  END
>  <minimizedAffinity>
-5.27154493

>  <minimizedRMSD>
0.74537915

$$$$
