
 OpenBabel03252500183D

 20 21  0  0  1  0  0  0  0  0999 V2000
   44.5070   36.1600   44.3960 C   0  0  0  0  0  0  0  0  0  0  0  0
   45.2900   36.0330   43.2480 C   0  0  0  0  0  0  0  0  0  0  0  0
   46.1790   34.9520   43.2100 C   0  0  0  0  0  0  0  0  0  0  0  0
   46.2380   34.0900   44.2710 N   0  0  0  0  0  0  0  0  0  0  0  0
   45.4550   34.2680   45.3540 C   0  0  0  0  0  0  0  0  0  0  0  0
   44.5780   35.3140   45.4170 N   0  0  0  0  0  0  0  0  0  0  0  0
   45.5010   33.3800   46.4720 N   0  0  0  0  0  0  0  0  0  0  0  0
   43.8120   36.9890   44.4480 H   0  0  0  0  0  0  0  0  0  0  0  0
   45.2550   36.7050   42.4000 H   0  0  0  0  0  0  0  0  0  0  0  0
   45.2630   32.4130   46.1470 H   0  0  0  0  0  0  0  0  0  0  0  0
   45.7330   33.6270   47.4650 H   0  0  0  0  0  0  0  0  0  0  0  0
   45.8280   32.5240   41.3400 O   0  0  0  0  0  0  0  0  0  0  0  0
   46.7880   33.3420   41.4900 C   0  0  0  0  0  0  0  0  0  0  0  0
   47.0740   34.6850   42.0610 C   0  0  2  0  0  3  0  0  0  0  0  0
   48.5220   34.5990   42.4680 C   0  0  0  0  0  3  0  0  0  0  0  0
   48.6250   34.3710   43.5600 H   0  0  0  0  0  0  0  0  0  0  0  0
   49.1490   33.5320   41.6240 C   0  0  0  0  0  3  0  0  0  0  0  0
   49.6650   32.7480   42.2270 H   0  0  0  0  0  0  0  0  0  0  0  0
   48.0410   32.8720   40.9510 N   0  0  0  0  0  0  0  0  0  0  0  0
   48.3150   32.1780   40.2010 H   0  0  0  0  0  0  0  0  0  0  0  0
  1  8  1  0  0  0  0
  1  6  1  0  0  0  0
  2  1  2  0  0  0  0
  3  2  1  0  0  0  0
  3  4  2  0  0  0  0
  4  5  1  0  0  0  0
  5  6  2  0  0  0  0
  5  7  1  0  0  0  0
  7 11  1  0  0  0  0
  9  2  1  0  0  0  0
 10  7  1  0  0  0  0
 12 13  2  0  0  0  0
 13 14  1  0  0  0  0
 14 15  1  0  0  0  0
 14  3  1  1  0  0  0
 15 16  1  0  0  0  0
 17 18  1  0  0  0  0
 17 15  1  0  0  0  0
 19 13  1  0  0  0  0
 19 17  1  0  0  0  0
 20 19  1  0  0  0  0
M  END
>  <minimizedAffinity>
-4.45392132

>  <minimizedRMSD>
1.06157959

$$$$
