
 OpenBabel03252503563D

 20 21  0  0  1  0  0  0  0  0999 V2000
   46.8850   33.6140   44.1710 C   0  0  0  0  0  0  0  0  0  0  0  0
   45.8610   34.5690   44.0440 C   0  0  0  0  0  0  0  0  0  0  0  0
   45.0030   34.7250   45.1340 C   0  0  0  0  0  0  0  0  0  0  0  0
   45.2030   33.9500   46.2440 N   0  0  0  0  0  0  0  0  0  0  0  0
   46.2030   33.0490   46.3080 C   0  0  0  0  0  0  0  0  0  0  0  0
   47.0380   32.8830   45.2780 N   0  0  0  0  0  0  0  0  0  0  0  0
   45.6800   35.1880   43.1910 H   0  0  0  0  0  0  0  0  0  0  0  0
   44.1930   35.4330   45.1230 H   0  0  0  0  0  0  0  0  0  0  0  0
   45.3020   30.1620   46.5400 O   0  0  0  0  0  0  0  0  0  0  0  0
   45.9140   30.8640   47.4070 C   0  0  0  0  0  0  0  0  0  0  0  0
   46.2830   32.2890   47.5860 C   0  0  1  0  0  3  0  0  0  0  0  0
   47.6560   32.2030   48.1590 C   0  0  0  0  0  3  0  0  0  0  0  0
   47.8460   33.1430   48.7330 H   0  0  0  0  0  0  0  0  0  0  0  0
   47.5650   31.0020   49.0740 C   0  0  0  0  0  3  0  0  0  0  0  0
   48.5090   30.4200   49.0600 H   0  0  0  0  0  0  0  0  0  0  0  0
   46.4420   30.2380   48.5710 N   0  0  0  0  0  0  0  0  0  0  0  0
   46.1830   29.3620   49.1160 H   0  0  0  0  0  0  0  0  0  0  0  0
   47.7250   33.5070   43.0220 C   0  0  0  0  0  0  0  0  0  0  0  0
   48.8450   34.0810   42.8420 O   0  0  0  0  0  0  0  0  0  0  0  0
   47.6300   32.9570   42.0940 H   0  0  0  0  0  0  0  0  0  0  0  0
  1  6  1  0  0  0  0
  2  1  2  0  0  0  0
  2  3  1  0  0  0  0
  3  4  2  0  0  0  0
  4  5  1  0  0  0  0
  6  5  2  0  0  0  0
  7  2  1  0  0  0  0
  8  3  1  0  0  0  0
  9 10  2  0  0  0  0
 10 11  1  0  0  0  0
 10 16  1  0  0  0  0
 11  5  1  6  0  0  0
 11 12  1  0  0  0  0
 12 13  1  0  0  0  0
 12 14  1  0  0  0  0
 15 14  1  0  0  0  0
 16 14  1  0  0  0  0
 16 17  1  0  0  0  0
 18  1  1  0  0  0  0
 19 18  2  0  0  0  0
 20 18  1  0  0  0  0
M  END
>  <minimizedAffinity>
-4.1606555

>  <minimizedRMSD>
2.53669953

$$$$
