
 OpenBabel03242523193D

 37 40  0  0  1  0  0  0  0  0999 V2000
   44.5470   31.7970   42.8980 Cl  0  0  0  0  0  0  0  0  0  0  0  0
   44.5800   33.5540   42.8030 C   0  0  0  0  0  0  0  0  0  0  0  0
   45.4550   34.1920   43.7080 C   0  0  0  0  0  0  0  0  0  0  0  0
   45.4150   35.5660   43.5350 C   0  0  0  0  0  0  0  0  0  0  0  0
   44.7010   36.3050   42.6740 C   0  0  0  0  0  0  0  0  0  0  0  0
   43.8830   35.6090   41.8370 C   0  0  0  0  0  0  0  0  0  0  0  0
   43.8030   34.2520   41.8800 C   0  0  0  0  0  0  0  0  0  0  0  0
   46.0210   36.2240   44.1950 H   0  0  0  0  0  0  0  0  0  0  0  0
   44.7120   37.3790   42.5800 H   0  0  0  0  0  0  0  0  0  0  0  0
   43.2290   36.0300   41.0730 H   0  0  0  0  0  0  0  0  0  0  0  0
   44.3960   33.3680   39.0150 O   0  0  0  0  0  0  0  0  0  0  0  0
   43.2710   33.6450   39.5580 C   0  0  0  0  0  0  0  0  0  0  0  0
   42.9400   33.4060   41.0090 C   0  0  2  0  0  3  0  0  0  0  0  0
   41.5000   33.7190   41.0480 C   0  0  0  0  0  3  0  0  0  0  0  0
   41.2390   34.7460   41.3720 H   0  0  0  0  0  0  0  0  0  0  0  0
   40.9760   33.6440   39.6220 C   0  0  0  0  0  3  0  0  0  0  0  0
   40.8860   32.5620   39.3280 H   0  0  0  0  0  0  0  0  0  0  0  0
   42.1210   34.2280   38.9100 N   0  0  0  0  0  0  0  0  0  0  0  0
   42.1860   34.9080   38.1180 H   0  0  0  0  0  0  0  0  0  0  0  0
   46.3240   33.5300   44.7140 C   0  0  0  0  0  0  0  0  0  0  0  0
   45.7440   33.9010   45.7050 O   0  0  0  0  0  0  0  0  0  0  0  0
   47.3910   32.8010   44.0140 C   0  0  0  0  0  0  0  0  0  0  0  0
   48.2420   33.3100   43.1130 C   0  0  0  0  0  0  0  0  0  0  0  0
   49.0790   32.3770   42.5320 C   0  0  0  0  0  0  0  0  0  0  0  0
   48.9710   31.0340   42.9260 N   0  0  0  0  0  0  0  0  0  0  0  0
   48.1120   30.6120   43.8200 C   0  0  0  0  0  0  0  0  0  0  0  0
   47.2560   31.5110   44.4230 N   0  0  0  0  0  0  0  0  0  0  0  0
   49.8280   32.6160   41.7810 H   0  0  0  0  0  0  0  0  0  0  0  0
   48.1500   29.5460   44.0190 H   0  0  0  0  0  0  0  0  0  0  0  0
   48.4320   34.6810   42.8040 C   0  0  0  0  0  0  0  0  0  0  0  0
   49.4630   35.2660   42.1360 C   0  0  0  0  0  0  0  0  0  0  0  0
   48.2350   35.1000   41.2820 C   0  0  0  0  0  0  0  0  0  0  0  0
   47.9690   35.3760   43.5300 H   0  0  0  0  0  0  0  0  0  0  0  0
   50.3290   34.6370   41.7710 H   0  0  0  0  0  0  0  0  0  0  0  0
   49.8050   36.3250   42.1440 H   0  0  0  0  0  0  0  0  0  0  0  0
   47.5290   35.9300   41.1560 H   0  0  0  0  0  0  0  0  0  0  0  0
   48.1740   34.2200   40.6040 H   0  0  0  0  0  0  0  0  0  0  0  0
  2  1  1  0  0  0  0
  2  3  1  0  0  0  0
  3 20  1  0  0  0  0
  4  3  2  0  0  0  0
  4  8  1  0  0  0  0
  5  4  1  0  0  0  0
  6  7  1  0  0  0  0
  6  5  2  0  0  0  0
  7  2  2  0  0  0  0
  9  5  1  0  0  0  0
 10  6  1  0  0  0  0
 11 12  2  0  0  0  0
 12 13  1  0  0  0  0
 13 14  1  0  0  0  0
 13  7  1  1  0  0  0
 14 15  1  0  0  0  0
 16 14  1  0  0  0  0
 17 16  1  0  0  0  0
 18 12  1  0  0  0  0
 18 16  1  0  0  0  0
 19 18  1  0  0  0  0
 20 21  2  0  0  0  0
 22 27  1  0  0  0  0
 22 20  1  0  0  0  0
 23 22  2  0  0  0  0
 24 25  2  0  0  0  0
 24 23  1  0  0  0  0
 25 26  1  0  0  0  0
 26 29  1  0  0  0  0
 26 27  2  0  0  0  0
 28 24  1  0  0  0  0
 30 23  1  0  0  0  0
 30 33  1  0  0  0  0
 31 35  1  0  0  0  0
 31 30  1  0  0  0  0
 32 31  1  0  0  0  0
 32 30  1  0  0  0  0
 34 31  1  0  0  0  0
 36 32  1  0  0  0  0
 37 32  1  0  0  0  0
M  END
>  <minimizedAffinity>
-5.70170689

>  <minimizedRMSD>
0.927154779

$$$$
