
 OpenBabel03242519593D

 28 30  0  0  1  0  0  0  0  0999 V2000
   40.6620   29.1170   40.2780 Br  0  0  0  0  0  0  0  0  0  0  0  0
   39.4200   28.6170   41.6420 C   0  0  0  0  0  0  0  0  0  0  0  0
   38.1730   29.2140   41.7850 C   0  0  0  0  0  0  0  0  0  0  0  0
   37.3640   28.7770   42.7990 C   0  0  0  0  0  0  0  0  0  0  0  0
   37.7290   27.7770   43.6770 C   0  0  0  0  0  0  0  0  0  0  0  0
   38.9730   27.1720   43.5460 C   0  0  0  0  0  0  0  0  0  0  0  0
   39.7850   27.6160   42.5220 C   0  0  0  0  0  0  0  0  0  0  0  0
   36.4000   29.2410   42.9050 H   0  0  0  0  0  0  0  0  0  0  0  0
   37.0670   27.4550   44.4680 H   0  0  0  0  0  0  0  0  0  0  0  0
   39.2270   26.4030   44.2380 H   0  0  0  0  0  0  0  0  0  0  0  0
   36.8800   31.0350   38.7280 C   0  0  0  0  0  0  0  0  0  0  0  0
   37.1960   30.0120   39.6250 C   0  0  0  0  0  0  0  0  0  0  0  0
   37.8310   30.2700   40.8280 C   0  0  0  0  0  0  0  0  0  0  0  0
   38.1230   31.5810   41.0720 N   0  0  0  0  0  0  0  0  0  0  0  0
   37.8150   32.5650   40.2000 C   0  0  0  0  0  0  0  0  0  0  0  0
   37.2030   32.2830   39.0500 N   0  0  0  0  0  0  0  0  0  0  0  0
   36.3820   30.8150   37.7890 H   0  0  0  0  0  0  0  0  0  0  0  0
   36.9420   28.9790   39.3850 H   0  0  0  0  0  0  0  0  0  0  0  0
   38.1300   33.5470   40.5760 H   0  0  0  0  0  0  0  0  0  0  0  0
   40.1160   25.0960   41.2700 O   0  0  0  0  0  0  0  0  0  0  0  0
   40.9950   25.4980   42.1040 C   0  0  0  0  0  0  0  0  0  0  0  0
   41.1230   26.9510   42.3960 C   0  0  2  0  0  3  0  0  0  0  0  0
   41.9030   26.9560   43.6720 C   0  0  0  0  0  3  0  0  0  0  0  0
   42.4860   27.8900   43.8440 H   0  0  0  0  0  0  0  0  0  0  0  0
   42.8330   25.7740   43.4940 C   0  0  0  0  0  3  0  0  0  0  0  0
   43.6160   26.0070   42.7250 H   0  0  0  0  0  0  0  0  0  0  0  0
   41.9570   24.7900   42.8770 N   0  0  0  0  0  0  0  0  0  0  0  0
   41.8800   23.7330   42.8740 H   0  0  0  0  0  0  0  0  0  0  0  0
  1  2  1  0  0  0  0
  2  3  2  0  0  0  0
  2  7  1  0  0  0  0
  3  4  1  0  0  0  0
  4  8  1  0  0  0  0
  4  5  2  0  0  0  0
  5  9  1  0  0  0  0
  6  5  1  0  0  0  0
  6 10  1  0  0  0  0
  7  6  2  0  0  0  0
 11 16  2  0  0  0  0
 11 12  1  0  0  0  0
 12 13  2  0  0  0  0
 13 14  1  0  0  0  0
 13  3  1  0  0  0  0
 15 19  1  0  0  0  0
 15 14  2  0  0  0  0
 16 15  1  0  0  0  0
 17 11  1  0  0  0  0
 18 12  1  0  0  0  0
 20 21  2  0  0  0  0
 21 22  1  0  0  0  0
 21 27  1  0  0  0  0
 22  7  1  1  0  0  0
 22 23  1  0  0  0  0
 23 24  1  0  0  0  0
 25 23  1  0  0  0  0
 26 25  1  0  0  0  0
 27 25  1  0  0  0  0
 28 27  1  0  0  0  0
M  END
>  <minimizedAffinity>
-5.089643

$$$$

 OpenBabel03242519593D

 28 30  0  0  1  0  0  0  0  0999 V2000
   38.8830   28.0290   40.6760 Br  0  0  0  0  0  0  0  0  0  0  0  0
   37.3380   28.0060   39.5520 C   0  0  0  0  0  0  0  0  0  0  0  0
   36.7040   26.8330   39.1610 C   0  0  0  0  0  0  0  0  0  0  0  0
   35.6040   26.9360   38.3530 C   0  0  0  0  0  0  0  0  0  0  0  0
   35.1010   28.1430   37.9150 C   0  0  0  0  0  0  0  0  0  0  0  0
   35.7250   29.3240   38.2970 C   0  0  0  0  0  0  0  0  0  0  0  0
   36.8340   29.2150   39.1120 C   0  0  0  0  0  0  0  0  0  0  0  0
   35.1170   26.0260   38.0540 H   0  0  0  0  0  0  0  0  0  0  0  0
   34.2300   28.1900   37.2770 H   0  0  0  0  0  0  0  0  0  0  0  0
   35.3140   30.2410   37.9440 H   0  0  0  0  0  0  0  0  0  0  0  0
   37.4310   23.7860   41.2870 C   0  0  0  0  0  0  0  0  0  0  0  0
   36.8720   24.9840   40.8380 C   0  0  0  0  0  0  0  0  0  0  0  0
   37.2760   25.5770   39.6530 C   0  0  0  0  0  0  0  0  0  0  0  0
   38.2500   24.9130   38.9640 N   0  0  0  0  0  0  0  0  0  0  0  0
   38.7860   23.7550   39.4050 C   0  0  0  0  0  0  0  0  0  0  0  0
   38.3750   23.2110   40.5490 N   0  0  0  0  0  0  0  0  0  0  0  0
   37.1020   23.3350   42.2190 H   0  0  0  0  0  0  0  0  0  0  0  0
   36.0950   25.4770   41.4250 H   0  0  0  0  0  0  0  0  0  0  0  0
   39.5510   23.3790   38.7120 H   0  0  0  0  0  0  0  0  0  0  0  0
   36.2800   30.4990   41.5760 O   0  0  0  0  0  0  0  0  0  0  0  0
   36.7540   31.1840   40.6090 C   0  0  0  0  0  0  0  0  0  0  0  0
   37.4930   30.5000   39.5150 C   0  0  2  0  0  3  0  0  0  0  0  0
   37.4870   31.5290   38.4290 C   0  0  0  0  0  3  0  0  0  0  0  0
   38.3290   31.4300   37.7050 H   0  0  0  0  0  0  0  0  0  0  0  0
   37.6000   32.8260   39.2030 C   0  0  0  0  0  3  0  0  0  0  0  0
   38.6290   32.9310   39.6370 H   0  0  0  0  0  0  0  0  0  0  0  0
   36.7200   32.5800   40.3360 N   0  0  0  0  0  0  0  0  0  0  0  0
   36.1000   33.1700   40.9610 H   0  0  0  0  0  0  0  0  0  0  0  0
  2  1  1  0  0  0  0
  3  2  1  0  0  0  0
  3 13  1  0  0  0  0
  4  3  2  0  0  0  0
  5  6  2  0  0  0  0
  5  4  1  0  0  0  0
  6  7  1  0  0  0  0
  7  2  2  0  0  0  0
  8  4  1  0  0  0  0
  9  5  1  0  0  0  0
 10  6  1  0  0  0  0
 11 17  1  0  0  0  0
 12 11  1  0  0  0  0
 12 18  1  0  0  0  0
 13 12  2  0  0  0  0
 14 15  2  0  0  0  0
 14 13  1  0  0  0  0
 15 16  1  0  0  0  0
 16 11  2  0  0  0  0
 19 15  1  0  0  0  0
 21 20  2  0  0  0  0
 22  7  1  6  0  0  0
 22 21  1  0  0  0  0
 23 25  1  0  0  0  0
 23 22  1  0  0  0  0
 24 23  1  0  0  0  0
 25 26  1  0  0  0  0
 25 27  1  0  0  0  0
 27 21  1  0  0  0  0
 27 28  1  0  0  0  0
M  END
>  <minimizedAffinity>
-4.99244499

$$$$

 OpenBabel03242519593D

 28 30  0  0  1  0  0  0  0  0999 V2000
   39.7220   27.7630   39.6390 Br  0  0  0  0  0  0  0  0  0  0  0  0
   38.7050   27.6900   41.2550 C   0  0  0  0  0  0  0  0  0  0  0  0
   37.3880   28.1260   41.3410 C   0  0  0  0  0  0  0  0  0  0  0  0
   36.7570   28.0260   42.5510 C   0  0  0  0  0  0  0  0  0  0  0  0
   37.3640   27.5160   43.6790 C   0  0  0  0  0  0  0  0  0  0  0  0
   38.6810   27.0760   43.6080 C   0  0  0  0  0  0  0  0  0  0  0  0
   39.3130   27.1790   42.3860 C   0  0  0  0  0  0  0  0  0  0  0  0
   35.7380   28.3640   42.6120 H   0  0  0  0  0  0  0  0  0  0  0  0
   36.8370   27.4510   44.6200 H   0  0  0  0  0  0  0  0  0  0  0  0
   39.1230   26.6870   44.4950 H   0  0  0  0  0  0  0  0  0  0  0  0
   35.3660   28.4490   38.1570 C   0  0  0  0  0  0  0  0  0  0  0  0
   35.9280   27.9200   39.3210 C   0  0  0  0  0  0  0  0  0  0  0  0
   36.7870   28.6590   40.1160 C   0  0  0  0  0  0  0  0  0  0  0  0
   37.0440   29.9290   39.6840 N   0  0  0  0  0  0  0  0  0  0  0  0
   36.4970   30.4340   38.5580 C   0  0  0  0  0  0  0  0  0  0  0  0
   35.6740   29.6960   37.8150 N   0  0  0  0  0  0  0  0  0  0  0  0
   34.6940   27.8550   37.5450 H   0  0  0  0  0  0  0  0  0  0  0  0
   35.6910   26.8990   39.6240 H   0  0  0  0  0  0  0  0  0  0  0  0
   36.8250   31.4680   38.3820 H   0  0  0  0  0  0  0  0  0  0  0  0
   40.0080   24.5960   41.4500 O   0  0  0  0  0  0  0  0  0  0  0  0
   40.8150   25.2190   42.2180 C   0  0  0  0  0  0  0  0  0  0  0  0
   40.7330   26.6990   42.3290 C   0  0  2  0  0  3  0  0  0  0  0  0
   41.4960   26.9720   43.5860 C   0  0  0  0  0  3  0  0  0  0  0  0
   41.9390   27.9940   43.6350 H   0  0  0  0  0  0  0  0  0  0  0  0
   42.5860   25.9220   43.5450 C   0  0  0  0  0  3  0  0  0  0  0  0
   43.3320   26.1660   42.7440 H   0  0  0  0  0  0  0  0  0  0  0  0
   41.8630   24.7540   43.0620 N   0  0  0  0  0  0  0  0  0  0  0  0
   41.9370   23.7050   43.1910 H   0  0  0  0  0  0  0  0  0  0  0  0
  1  2  1  0  0  0  0
  2  3  2  0  0  0  0
  2  7  1  0  0  0  0
  3  4  1  0  0  0  0
  4  8  1  0  0  0  0
  4  5  2  0  0  0  0
  5  9  1  0  0  0  0
  6  5  1  0  0  0  0
  6 10  1  0  0  0  0
  7  6  2  0  0  0  0
 11 12  1  0  0  0  0
 12 18  1  0  0  0  0
 12 13  2  0  0  0  0
 13  3  1  0  0  0  0
 14 13  1  0  0  0  0
 15 14  2  0  0  0  0
 16 11  2  0  0  0  0
 16 15  1  0  0  0  0
 17 11  1  0  0  0  0
 19 15  1  0  0  0  0
 20 21  2  0  0  0  0
 21 22  1  0  0  0  0
 21 27  1  0  0  0  0
 22  7  1  1  0  0  0
 22 23  1  0  0  0  0
 23 24  1  0  0  0  0
 25 23  1  0  0  0  0
 26 25  1  0  0  0  0
 27 28  1  0  0  0  0
 27 25  1  0  0  0  0
M  END
>  <minimizedAffinity>
-4.93616819

$$$$

 OpenBabel03242519593D

 28 30  0  0  1  0  0  0  0  0999 V2000
   39.1560   27.2810   39.6180 Br  0  0  0  0  0  0  0  0  0  0  0  0
   38.2100   27.4530   41.2690 C   0  0  0  0  0  0  0  0  0  0  0  0
   37.4570   26.4230   41.8200 C   0  0  0  0  0  0  0  0  0  0  0  0
   36.8200   26.6580   43.0080 C   0  0  0  0  0  0  0  0  0  0  0  0
   36.8940   27.8610   43.6790 C   0  0  0  0  0  0  0  0  0  0  0  0
   37.6430   28.9000   43.1390 C   0  0  0  0  0  0  0  0  0  0  0  0
   38.2830   28.6580   41.9410 C   0  0  0  0  0  0  0  0  0  0  0  0
   36.2390   25.8580   43.4310 H   0  0  0  0  0  0  0  0  0  0  0  0
   36.3790   28.0140   44.6160 H   0  0  0  0  0  0  0  0  0  0  0  0
   37.6820   29.8170   43.6800 H   0  0  0  0  0  0  0  0  0  0  0  0
   36.4380   23.7040   39.3910 C   0  0  0  0  0  0  0  0  0  0  0  0
   36.4630   24.9110   40.0930 C   0  0  0  0  0  0  0  0  0  0  0  0
   37.4100   25.1650   41.0710 C   0  0  0  0  0  0  0  0  0  0  0  0
   38.3070   24.1600   41.2970 N   0  0  0  0  0  0  0  0  0  0  0  0
   38.2770   22.9960   40.6140 C   0  0  0  0  0  0  0  0  0  0  0  0
   37.3530   22.7830   39.6790 N   0  0  0  0  0  0  0  0  0  0  0  0
   35.6880   23.5210   38.6270 H   0  0  0  0  0  0  0  0  0  0  0  0
   35.7240   25.6830   39.8750 H   0  0  0  0  0  0  0  0  0  0  0  0
   39.0790   22.3190   40.9410 H   0  0  0  0  0  0  0  0  0  0  0  0
   40.8900   29.2790   42.8620 O   0  0  0  0  0  0  0  0  0  0  0  0
   40.2040   30.1820   42.2750 C   0  0  0  0  0  0  0  0  0  0  0  0
   39.0870   29.7900   41.3750 C   0  0  2  0  0  3  0  0  0  0  0  0
   38.3080   31.0620   41.2560 C   0  0  0  0  0  3  0  0  0  0  0  0
   37.7080   31.1400   40.3200 H   0  0  0  0  0  0  0  0  0  0  0  0
   39.3940   32.1170   41.2830 C   0  0  0  0  0  3  0  0  0  0  0  0
   39.9800   32.0960   40.3270 H   0  0  0  0  0  0  0  0  0  0  0  0
   40.2920   31.6020   42.3050 N   0  0  0  0  0  0  0  0  0  0  0  0
   40.9530   32.0200   43.0200 H   0  0  0  0  0  0  0  0  0  0  0  0
  1  2  1  0  0  0  0
  2  3  2  0  0  0  0
  2  7  1  0  0  0  0
  3  4  1  0  0  0  0
  4  8  1  0  0  0  0
  4  5  2  0  0  0  0
  5  9  1  0  0  0  0
  6  5  1  0  0  0  0
  6 10  1  0  0  0  0
  7  6  2  0  0  0  0
 11 16  2  0  0  0  0
 11 12  1  0  0  0  0
 12 13  2  0  0  0  0
 13 14  1  0  0  0  0
 13  3  1  0  0  0  0
 15 19  1  0  0  0  0
 15 14  2  0  0  0  0
 16 15  1  0  0  0  0
 17 11  1  0  0  0  0
 18 12  1  0  0  0  0
 21 27  1  0  0  0  0
 21 20  2  0  0  0  0
 22  7  1  1  0  0  0
 22 21  1  0  0  0  0
 23 25  1  0  0  0  0
 23 22  1  0  0  0  0
 24 23  1  0  0  0  0
 25 27  1  0  0  0  0
 26 25  1  0  0  0  0
 27 28  1  0  0  0  0
M  END
>  <minimizedAffinity>
-4.93389225

$$$$

 OpenBabel03242519593D

 28 30  0  0  1  0  0  0  0  0999 V2000
   40.5160   29.5810   40.7020 Br  0  0  0  0  0  0  0  0  0  0  0  0
   39.0340   30.6970   40.2430 C   0  0  0  0  0  0  0  0  0  0  0  0
   37.7380   30.4520   40.6810 C   0  0  0  0  0  0  0  0  0  0  0  0
   36.7540   31.3180   40.2890 C   0  0  0  0  0  0  0  0  0  0  0  0
   36.9890   32.4150   39.4870 C   0  0  0  0  0  0  0  0  0  0  0  0
   38.2800   32.6720   39.0410 C   0  0  0  0  0  0  0  0  0  0  0  0
   39.2700   31.7960   39.4390 C   0  0  0  0  0  0  0  0  0  0  0  0
   35.7530   31.1250   40.6310 H   0  0  0  0  0  0  0  0  0  0  0  0
   36.1890   33.0800   39.1960 H   0  0  0  0  0  0  0  0  0  0  0  0
   38.4320   33.5260   38.4230 H   0  0  0  0  0  0  0  0  0  0  0  0
   36.9760   26.9350   41.8560 C   0  0  0  0  0  0  0  0  0  0  0  0
   37.1600   28.0430   41.0270 C   0  0  0  0  0  0  0  0  0  0  0  0
   37.5390   29.2760   41.5310 C   0  0  0  0  0  0  0  0  0  0  0  0
   37.7200   29.3280   42.8840 N   0  0  0  0  0  0  0  0  0  0  0  0
   37.5400   28.2530   43.6800 C   0  0  0  0  0  0  0  0  0  0  0  0
   37.1750   27.0810   43.1630 N   0  0  0  0  0  0  0  0  0  0  0  0
   36.6780   25.9760   41.4440 H   0  0  0  0  0  0  0  0  0  0  0  0
   37.0040   27.9500   39.9510 H   0  0  0  0  0  0  0  0  0  0  0  0
   37.7330   28.4980   44.7330 H   0  0  0  0  0  0  0  0  0  0  0  0
   40.9510   33.7020   40.6900 O   0  0  0  0  0  0  0  0  0  0  0  0
   41.1680   33.3830   39.4730 C   0  0  0  0  0  0  0  0  0  0  0  0
   40.6560   32.0900   38.9480 C   0  0  2  0  0  3  0  0  0  0  0  0
   40.7240   32.2920   37.4670 C   0  0  0  0  0  3  0  0  0  0  0  0
   40.8160   31.3470   36.8840 H   0  0  0  0  0  0  0  0  0  0  0  0
   41.9690   33.1390   37.3080 C   0  0  0  0  0  3  0  0  0  0  0  0
   42.8860   32.5280   37.5160 H   0  0  0  0  0  0  0  0  0  0  0  0
   41.8520   34.0630   38.4260 N   0  0  0  0  0  0  0  0  0  0  0  0
   42.1430   35.0630   38.6230 H   0  0  0  0  0  0  0  0  0  0  0  0
  2  3  1  0  0  0  0
  2  1  1  0  0  0  0
  3 13  1  0  0  0  0
  4  8  1  0  0  0  0
  4  3  2  0  0  0  0
  5  4  1  0  0  0  0
  6  7  1  0  0  0  0
  6  5  2  0  0  0  0
  7  2  2  0  0  0  0
  9  5  1  0  0  0  0
 10  6  1  0  0  0  0
 11 16  1  0  0  0  0
 12 13  1  0  0  0  0
 12 11  2  0  0  0  0
 13 14  2  0  0  0  0
 14 15  1  0  0  0  0
 15 19  1  0  0  0  0
 16 15  2  0  0  0  0
 17 11  1  0  0  0  0
 18 12  1  0  0  0  0
 21 20  2  0  0  0  0
 22  7  1  1  0  0  0
 22 21  1  0  0  0  0
 23 22  1  0  0  0  0
 24 23  1  0  0  0  0
 25 23  1  0  0  0  0
 25 26  1  0  0  0  0
 25 27  1  0  0  0  0
 27 28  1  0  0  0  0
 27 21  1  0  0  0  0
M  END
>  <minimizedAffinity>
-4.92421484

$$$$

 OpenBabel03242519593D

 28 30  0  0  1  0  0  0  0  0999 V2000
   39.7500   27.9330   40.4690 Br  0  0  0  0  0  0  0  0  0  0  0  0
   38.1060   28.9000   40.5910 C   0  0  0  0  0  0  0  0  0  0  0  0
   36.8750   28.2790   40.7700 C   0  0  0  0  0  0  0  0  0  0  0  0
   35.7620   29.0720   40.8430 C   0  0  0  0  0  0  0  0  0  0  0  0
   35.8070   30.4470   40.7490 C   0  0  0  0  0  0  0  0  0  0  0  0
   37.0310   31.0810   40.5690 C   0  0  0  0  0  0  0  0  0  0  0  0
   38.1500   30.2770   40.4960 C   0  0  0  0  0  0  0  0  0  0  0  0
   34.8120   28.5870   40.9830 H   0  0  0  0  0  0  0  0  0  0  0  0
   34.9080   31.0440   40.8100 H   0  0  0  0  0  0  0  0  0  0  0  0
   37.0340   32.1440   40.4990 H   0  0  0  0  0  0  0  0  0  0  0  0
   37.0610   24.7510   42.1300 C   0  0  0  0  0  0  0  0  0  0  0  0
   37.0610   26.1460   42.0630 C   0  0  0  0  0  0  0  0  0  0  0  0
   36.8790   26.8180   40.8660 C   0  0  0  0  0  0  0  0  0  0  0  0
   36.7020   26.0260   39.7670 N   0  0  0  0  0  0  0  0  0  0  0  0
   36.7030   24.6780   39.8400 C   0  0  0  0  0  0  0  0  0  0  0  0
   36.8810   24.0620   41.0080 N   0  0  0  0  0  0  0  0  0  0  0  0
   37.2060   24.2410   43.0780 H   0  0  0  0  0  0  0  0  0  0  0  0
   37.2070   26.7350   42.9700 H   0  0  0  0  0  0  0  0  0  0  0  0
   36.5460   24.2230   38.8520 H   0  0  0  0  0  0  0  0  0  0  0  0
   39.7670   31.1040   42.6710 O   0  0  0  0  0  0  0  0  0  0  0  0
   39.9070   31.6750   41.5380 C   0  0  0  0  0  0  0  0  0  0  0  0
   39.4610   30.9790   40.3020 C   0  0  2  0  0  3  0  0  0  0  0  0
   39.3880   32.0970   39.3100 C   0  0  0  0  0  3  0  0  0  0  0  0
   39.5090   31.7730   38.2510 H   0  0  0  0  0  0  0  0  0  0  0  0
   40.5410   32.9850   39.7290 C   0  0  0  0  0  3  0  0  0  0  0  0
   41.5190   32.4970   39.4790 H   0  0  0  0  0  0  0  0  0  0  0  0
   40.4420   32.9450   41.1800 N   0  0  0  0  0  0  0  0  0  0  0  0
   40.6640   33.6060   41.9790 H   0  0  0  0  0  0  0  0  0  0  0  0
  1  2  1  0  0  0  0
  2  3  1  0  0  0  0
  3  4  2  0  0  0  0
  3 13  1  0  0  0  0
  4  8  1  0  0  0  0
  5  9  1  0  0  0  0
  5  4  1  0  0  0  0
  6  5  2  0  0  0  0
  7  6  1  0  0  0  0
  7  2  2  0  0  0  0
 10  6  1  0  0  0  0
 11 17  1  0  0  0  0
 12 11  1  0  0  0  0
 12 18  1  0  0  0  0
 13 12  2  0  0  0  0
 14 15  2  0  0  0  0
 14 13  1  0  0  0  0
 15 16  1  0  0  0  0
 16 11  2  0  0  0  0
 19 15  1  0  0  0  0
 21 20  2  0  0  0  0
 22  7  1  1  0  0  0
 22 21  1  0  0  0  0
 23 25  1  0  0  0  0
 23 22  1  0  0  0  0
 24 23  1  0  0  0  0
 25 27  1  0  0  0  0
 26 25  1  0  0  0  0
 27 21  1  0  0  0  0
 27 28  1  0  0  0  0
M  END
>  <minimizedAffinity>
-4.91987133

$$$$

 OpenBabel03242519593D

 28 30  0  0  1  0  0  0  0  0999 V2000
   37.7270   27.2660   38.9910 Br  0  0  0  0  0  0  0  0  0  0  0  0
   37.4050   27.4060   40.8700 C   0  0  0  0  0  0  0  0  0  0  0  0
   37.2240   26.3000   41.6910 C   0  0  0  0  0  0  0  0  0  0  0  0
   36.9990   26.5190   43.0230 C   0  0  0  0  0  0  0  0  0  0  0  0
   36.9460   27.7790   43.5820 C   0  0  0  0  0  0  0  0  0  0  0  0
   37.1260   28.8950   42.7720 C   0  0  0  0  0  0  0  0  0  0  0  0
   37.3520   28.6680   41.4300 C   0  0  0  0  0  0  0  0  0  0  0  0
   36.8590   25.6600   43.6540 H   0  0  0  0  0  0  0  0  0  0  0  0
   36.7670   27.9180   44.6380 H   0  0  0  0  0  0  0  0  0  0  0  0
   37.0810   29.8550   43.2320 H   0  0  0  0  0  0  0  0  0  0  0  0
   38.4610   22.9370   40.4700 C   0  0  0  0  0  0  0  0  0  0  0  0
   38.4220   24.1890   41.0870 C   0  0  0  0  0  0  0  0  0  0  0  0
   37.2890   24.9840   41.0500 C   0  0  0  0  0  0  0  0  0  0  0  0
   36.2240   24.4610   40.3740 N   0  0  0  0  0  0  0  0  0  0  0  0
   36.2690   23.2500   39.7800 C   0  0  0  0  0  0  0  0  0  0  0  0
   37.3750   22.5100   39.8330 N   0  0  0  0  0  0  0  0  0  0  0  0
   39.3590   22.3270   40.5080 H   0  0  0  0  0  0  0  0  0  0  0  0
   39.3000   24.5630   41.6160 H   0  0  0  0  0  0  0  0  0  0  0  0
   35.3160   23.0080   39.2890 H   0  0  0  0  0  0  0  0  0  0  0  0
   39.8770   29.9110   41.1010 O   0  0  0  0  0  0  0  0  0  0  0  0
   38.8160   30.5880   40.8850 C   0  0  0  0  0  0  0  0  0  0  0  0
   37.5440   29.8840   40.5730 C   0  0  2  0  0  3  0  0  0  0  0  0
   36.5190   30.9450   40.8200 C   0  0  0  0  0  3  0  0  0  0  0  0
   35.5730   30.8030   40.2490 H   0  0  0  0  0  0  0  0  0  0  0  0
   37.2310   32.2020   40.3680 C   0  0  0  0  0  3  0  0  0  0  0  0
   37.3320   32.2120   39.2510 H   0  0  0  0  0  0  0  0  0  0  0  0
   38.5760   31.9910   40.8820 N   0  0  0  0  0  0  0  0  0  0  0  0
   39.3640   32.6070   41.2310 H   0  0  0  0  0  0  0  0  0  0  0  0
  1  2  1  0  0  0  0
  2  7  2  0  0  0  0
  2  3  1  0  0  0  0
  3  4  2  0  0  0  0
  4  5  1  0  0  0  0
  4  8  1  0  0  0  0
  5  9  1  0  0  0  0
  6 10  1  0  0  0  0
  6  5  2  0  0  0  0
  7  6  1  0  0  0  0
 11 17  1  0  0  0  0
 11 12  1  0  0  0  0
 12 18  1  0  0  0  0
 13 12  2  0  0  0  0
 13  3  1  0  0  0  0
 14 13  1  0  0  0  0
 15 16  1  0  0  0  0
 15 14  2  0  0  0  0
 16 11  2  0  0  0  0
 19 15  1  0  0  0  0
 21 20  2  0  0  0  0
 22 23  1  0  0  0  0
 22 21  1  0  0  0  0
 22  7  1  1  0  0  0
 24 23  1  0  0  0  0
 25 23  1  0  0  0  0
 25 27  1  0  0  0  0
 26 25  1  0  0  0  0
 27 21  1  0  0  0  0
 27 28  1  0  0  0  0
M  END
>  <minimizedAffinity>
-4.91741896

$$$$

 OpenBabel03242519593D

 28 30  0  0  1  0  0  0  0  0999 V2000
   39.4370   29.2840   39.1690 Br  0  0  0  0  0  0  0  0  0  0  0  0
   38.7400   31.0380   39.4660 C   0  0  0  0  0  0  0  0  0  0  0  0
   37.5750   31.5010   38.8660 C   0  0  0  0  0  0  0  0  0  0  0  0
   37.1690   32.7760   39.1520 C   0  0  0  0  0  0  0  0  0  0  0  0
   37.8580   33.6150   40.0020 C   0  0  0  0  0  0  0  0  0  0  0  0
   39.0250   33.1650   40.6090 C   0  0  0  0  0  0  0  0  0  0  0  0
   39.4300   31.8790   40.3180 C   0  0  0  0  0  0  0  0  0  0  0  0
   36.2670   33.1300   38.6850 H   0  0  0  0  0  0  0  0  0  0  0  0
   37.5110   34.6180   40.2070 H   0  0  0  0  0  0  0  0  0  0  0  0
   39.5360   33.8350   41.2620 H   0  0  0  0  0  0  0  0  0  0  0  0
   35.2250   28.8470   37.5370 C   0  0  0  0  0  0  0  0  0  0  0  0
   35.8760   29.7240   38.4080 C   0  0  0  0  0  0  0  0  0  0  0  0
   36.8790   30.5730   37.9720 C   0  0  0  0  0  0  0  0  0  0  0  0
   37.1820   30.4930   36.6420 N   0  0  0  0  0  0  0  0  0  0  0  0
   36.5490   29.6430   35.8060 C   0  0  0  0  0  0  0  0  0  0  0  0
   35.5880   28.8390   36.2580 N   0  0  0  0  0  0  0  0  0  0  0  0
   34.4410   28.1880   37.8960 H   0  0  0  0  0  0  0  0  0  0  0  0
   35.5970   29.7510   39.4620 H   0  0  0  0  0  0  0  0  0  0  0  0
   36.9350   29.7290   34.7810 H   0  0  0  0  0  0  0  0  0  0  0  0
   39.4230   30.5180   42.8030 O   0  0  0  0  0  0  0  0  0  0  0  0
   40.4830   31.1210   42.4260 C   0  0  0  0  0  0  0  0  0  0  0  0
   40.6910   31.4110   40.9830 C   0  0  2  0  0  3  0  0  0  0  0  0
   41.7610   32.4570   41.0150 C   0  0  0  0  0  3  0  0  0  0  0  0
   42.3760   32.5050   40.0870 H   0  0  0  0  0  0  0  0  0  0  0  0
   42.6080   32.0250   42.1930 C   0  0  0  0  0  3  0  0  0  0  0  0
   43.1800   31.0940   41.9410 H   0  0  0  0  0  0  0  0  0  0  0  0
   41.5990   31.6150   43.1580 N   0  0  0  0  0  0  0  0  0  0  0  0
   41.5140   31.6040   44.2150 H   0  0  0  0  0  0  0  0  0  0  0  0
  1  2  1  0  0  0  0
  2  7  1  0  0  0  0
  3  4  1  0  0  0  0
  3  2  2  0  0  0  0
  4  5  2  0  0  0  0
  5  9  1  0  0  0  0
  5  6  1  0  0  0  0
  6 10  1  0  0  0  0
  7  6  2  0  0  0  0
  8  4  1  0  0  0  0
 11 17  1  0  0  0  0
 11 12  1  0  0  0  0
 12 18  1  0  0  0  0
 13 12  2  0  0  0  0
 13  3  1  0  0  0  0
 14 13  1  0  0  0  0
 15 16  1  0  0  0  0
 15 14  2  0  0  0  0
 16 11  2  0  0  0  0
 19 15  1  0  0  0  0
 21 20  2  0  0  0  0
 21 27  1  0  0  0  0
 22  7  1  1  0  0  0
 22 23  1  0  0  0  0
 22 21  1  0  0  0  0
 23 25  1  0  0  0  0
 24 23  1  0  0  0  0
 25 27  1  0  0  0  0
 26 25  1  0  0  0  0
 27 28  1  0  0  0  0
M  END
>  <minimizedAffinity>
-4.86926079

$$$$

 OpenBabel03242519593D

 28 30  0  0  1  0  0  0  0  0999 V2000
   40.9430   29.9590   40.5100 Br  0  0  0  0  0  0  0  0  0  0  0  0
   39.1940   30.7230   40.4160 C   0  0  0  0  0  0  0  0  0  0  0  0
   38.9000   31.8500   39.6570 C   0  0  0  0  0  0  0  0  0  0  0  0
   37.6110   32.3100   39.6650 C   0  0  0  0  0  0  0  0  0  0  0  0
   36.6000   31.7110   40.3860 C   0  0  0  0  0  0  0  0  0  0  0  0
   36.8800   30.5830   41.1500 C   0  0  0  0  0  0  0  0  0  0  0  0
   38.1810   30.1230   41.1380 C   0  0  0  0  0  0  0  0  0  0  0  0
   37.3890   33.1820   39.0760 H   0  0  0  0  0  0  0  0  0  0  0  0
   35.5920   32.1000   40.3710 H   0  0  0  0  0  0  0  0  0  0  0  0
   36.0790   30.1410   41.6950 H   0  0  0  0  0  0  0  0  0  0  0  0
   41.7040   34.1610   38.5940 C   0  0  0  0  0  0  0  0  0  0  0  0
   40.6490   33.6060   39.3230 C   0  0  0  0  0  0  0  0  0  0  0  0
   40.0070   32.4500   38.9100 C   0  0  0  0  0  0  0  0  0  0  0  0
   40.4740   31.8990   37.7510 N   0  0  0  0  0  0  0  0  0  0  0  0
   41.4940   32.4410   37.0520 C   0  0  0  0  0  0  0  0  0  0  0  0
   42.0900   33.5530   37.4760 N   0  0  0  0  0  0  0  0  0  0  0  0
   42.1960   35.0670   38.9320 H   0  0  0  0  0  0  0  0  0  0  0  0
   40.3130   34.0840   40.2430 H   0  0  0  0  0  0  0  0  0  0  0  0
   41.7200   31.8520   36.1520 H   0  0  0  0  0  0  0  0  0  0  0  0
   37.9430   27.4940   40.1080 O   0  0  0  0  0  0  0  0  0  0  0  0
   37.8750   27.6770   41.3690 C   0  0  0  0  0  0  0  0  0  0  0  0
   38.4630   28.9050   41.9680 C   0  0  2  0  0  3  0  0  0  0  0  0
   37.8150   28.9500   43.3160 C   0  0  0  0  0  3  0  0  0  0  0  0
   38.4060   29.4990   44.0850 H   0  0  0  0  0  0  0  0  0  0  0  0
   37.7050   27.4830   43.6760 C   0  0  0  0  0  3  0  0  0  0  0  0
   38.7190   27.0610   43.9030 H   0  0  0  0  0  0  0  0  0  0  0  0
   37.3070   26.8890   42.4090 N   0  0  0  0  0  0  0  0  0  0  0  0
   36.7270   26.0550   42.1070 H   0  0  0  0  0  0  0  0  0  0  0  0
  2  1  1  0  0  0  0
  2  7  1  0  0  0  0
  3  4  1  0  0  0  0
  3  2  2  0  0  0  0
  4  5  2  0  0  0  0
  5  6  1  0  0  0  0
  6 10  1  0  0  0  0
  7  6  2  0  0  0  0
  8  4  1  0  0  0  0
  9  5  1  0  0  0  0
 11 17  1  0  0  0  0
 11 12  1  0  0  0  0
 12 18  1  0  0  0  0
 13 12  2  0  0  0  0
 13  3  1  0  0  0  0
 14 13  1  0  0  0  0
 15 16  1  0  0  0  0
 15 14  2  0  0  0  0
 16 11  2  0  0  0  0
 19 15  1  0  0  0  0
 20 21  2  0  0  0  0
 21 22  1  0  0  0  0
 21 27  1  0  0  0  0
 22  7  1  6  0  0  0
 22 23  1  0  0  0  0
 23 25  1  0  0  0  0
 23 24  1  0  0  0  0
 25 26  1  0  0  0  0
 27 25  1  0  0  0  0
 28 27  1  0  0  0  0
M  END
>  <minimizedAffinity>
-4.84524488

$$$$
