
 OpenBabel03242523193D

 37 40  0  0  1  0  0  0  0  0999 V2000
   44.8310   31.4760   42.9200 Cl  0  0  0  0  0  0  0  0  0  0  0  0
   44.7780   33.2350   42.9040 C   0  0  0  0  0  0  0  0  0  0  0  0
   45.7350   33.8760   43.7190 C   0  0  0  0  0  0  0  0  0  0  0  0
   45.6150   35.2530   43.6180 C   0  0  0  0  0  0  0  0  0  0  0  0
   44.7650   35.9910   42.8910 C   0  0  0  0  0  0  0  0  0  0  0  0
   43.8750   35.2930   42.1330 C   0  0  0  0  0  0  0  0  0  0  0  0
   43.8590   33.9330   42.1220 C   0  0  0  0  0  0  0  0  0  0  0  0
   46.2740   35.9110   44.2250 H   0  0  0  0  0  0  0  0  0  0  0  0
   44.7180   37.0680   42.8470 H   0  0  0  0  0  0  0  0  0  0  0  0
   43.1110   35.7120   41.4800 H   0  0  0  0  0  0  0  0  0  0  0  0
   41.7150   34.8940   40.1680 O   0  0  0  0  0  0  0  0  0  0  0  0
   41.7030   33.8750   40.9410 C   0  0  0  0  0  0  0  0  0  0  0  0
   42.9260   33.0830   41.3300 C   0  0  2  0  0  3  0  0  0  0  0  0
   42.3340   31.9440   42.0560 C   0  0  0  0  0  3  0  0  0  0  0  0
   42.3010   32.0420   43.1590 H   0  0  0  0  0  0  0  0  0  0  0  0
   40.8700   31.8570   41.6550 C   0  0  0  0  0  3  0  0  0  0  0  0
   40.8040   31.4240   40.6190 H   0  0  0  0  0  0  0  0  0  0  0  0
   40.5500   33.2900   41.5840 N   0  0  0  0  0  0  0  0  0  0  0  0
   39.7200   33.8430   41.8950 H   0  0  0  0  0  0  0  0  0  0  0  0
   46.7540   33.2160   44.5730 C   0  0  0  0  0  0  0  0  0  0  0  0
   46.2550   33.4580   45.6450 O   0  0  0  0  0  0  0  0  0  0  0  0
   47.7940   32.6370   43.7110 C   0  0  0  0  0  0  0  0  0  0  0  0
   48.5650   33.3010   42.8400 C   0  0  0  0  0  0  0  0  0  0  0  0
   49.3900   32.4950   42.0810 C   0  0  0  0  0  0  0  0  0  0  0  0
   49.3530   31.1070   42.2850 N   0  0  0  0  0  0  0  0  0  0  0  0
   48.5700   30.5290   43.1620 C   0  0  0  0  0  0  0  0  0  0  0  0
   47.7290   31.2980   43.9400 N   0  0  0  0  0  0  0  0  0  0  0  0
   50.0780   32.8680   41.3250 H   0  0  0  0  0  0  0  0  0  0  0  0
   48.6560   29.4480   43.2050 H   0  0  0  0  0  0  0  0  0  0  0  0
   48.6890   34.7090   42.7180 C   0  0  0  0  0  0  0  0  0  0  0  0
   49.6800   35.4260   42.1220 C   0  0  0  0  0  0  0  0  0  0  0  0
   48.4440   35.3210   41.2700 C   0  0  0  0  0  0  0  0  0  0  0  0
   48.2110   35.2780   43.5380 H   0  0  0  0  0  0  0  0  0  0  0  0
   50.5650   34.8930   41.6620 H   0  0  0  0  0  0  0  0  0  0  0  0
   49.9760   36.4890   42.2680 H   0  0  0  0  0  0  0  0  0  0  0  0
   47.7000   36.1280   41.2670 H   0  0  0  0  0  0  0  0  0  0  0  0
   48.4070   34.5390   40.4790 H   0  0  0  0  0  0  0  0  0  0  0  0
  2  1  1  0  0  0  0
  2  3  1  0  0  0  0
  3 20  1  0  0  0  0
  4  3  2  0  0  0  0
  4  8  1  0  0  0  0
  5  4  1  0  0  0  0
  6  5  2  0  0  0  0
  7  6  1  0  0  0  0
  7  2  2  0  0  0  0
  9  5  1  0  0  0  0
 10  6  1  0  0  0  0
 11 12  2  0  0  0  0
 12 13  1  0  0  0  0
 12 18  1  0  0  0  0
 13 14  1  0  0  0  0
 13  7  1  1  0  0  0
 14 15  1  0  0  0  0
 16 14  1  0  0  0  0
 17 16  1  0  0  0  0
 18 16  1  0  0  0  0
 18 19  1  0  0  0  0
 20 21  2  0  0  0  0
 22 27  1  0  0  0  0
 22 20  1  0  0  0  0
 23 22  2  0  0  0  0
 24 25  2  0  0  0  0
 24 23  1  0  0  0  0
 25 26  1  0  0  0  0
 26 29  1  0  0  0  0
 26 27  2  0  0  0  0
 28 24  1  0  0  0  0
 30 23  1  0  0  0  0
 30 33  1  0  0  0  0
 31 35  1  0  0  0  0
 31 30  1  0  0  0  0
 32 31  1  0  0  0  0
 32 30  1  0  0  0  0
 34 31  1  0  0  0  0
 36 32  1  0  0  0  0
 37 32  1  0  0  0  0
M  END
>  <minimizedAffinity>
-5.69196224

>  <minimizedRMSD>
0.977854073

$$$$
