
 OpenBabel03252509333D

 40 42  0  0  1  0  0  0  0  0999 V2000
   47.4400   34.4740   42.7180 C   0  0  1  0  0  0  0  0  0  0  0  0
   48.8400   35.0470   42.9010 C   0  0  0  0  0  0  0  0  0  0  0  0
   49.1590   35.5550   41.5290 C   0  0  0  0  0  0  0  0  0  0  0  0
   48.3380   34.7400   40.5700 C   0  0  0  0  0  0  0  0  0  0  0  0
   47.6250   33.6950   41.4430 C   0  0  1  0  0  0  0  0  0  0  0  0
   46.7550   35.3170   42.4790 H   0  0  0  0  0  0  0  0  0  0  0  0
   49.5430   34.3120   43.2990 H   0  0  0  0  0  0  0  0  0  0  0  0
   48.7150   35.9340   43.5780 H   0  0  0  0  0  0  0  0  0  0  0  0
   48.9790   36.6420   41.3950 H   0  0  0  0  0  0  0  0  0  0  0  0
   50.2510   35.3660   41.3570 H   0  0  0  0  0  0  0  0  0  0  0  0
   48.9850   34.2560   39.8220 H   0  0  0  0  0  0  0  0  0  0  0  0
   47.6070   35.3830   40.0370 H   0  0  0  0  0  0  0  0  0  0  0  0
   46.6160   33.5850   40.9780 H   0  0  0  0  0  0  0  0  0  0  0  0
   50.8670   33.0680   41.6000 O   0  0  0  0  0  0  0  0  0  0  0  0
   49.8070   32.5860   41.0630 C   0  0  0  0  0  0  0  0  0  0  0  0
   48.3770   32.4270   41.5320 C   0  0  2  0  0  3  0  0  0  0  0  0
   47.8680   31.4490   40.4960 C   0  0  0  0  0  3  0  0  0  0  0  0
   46.7980   31.5480   40.2640 H   0  0  0  0  0  0  0  0  0  0  0  0
   48.6260   31.9040   39.2430 C   0  0  0  0  0  3  0  0  0  0  0  0
   48.2180   32.8660   38.9370 H   0  0  0  0  0  0  0  0  0  0  0  0
   49.9590   32.0810   39.7450 N   0  0  0  0  0  0  0  0  0  0  0  0
   50.7980   31.8500   39.1700 H   0  0  0  0  0  0  0  0  0  0  0  0
   47.0260   33.7350   43.7930 O   0  0  0  0  0  0  0  0  0  0  0  0
   45.2340   35.6010   43.8700 O   0  0  0  0  0  0  0  0  0  0  0  0
   45.4680   34.1620   44.2250 P   0  0  1  0  0  0  0  0  0  0  0  0
   44.3480   33.1250   43.5290 O   0  0  0  0  0  0  0  0  0  0  0  0
   44.0700   33.5520   42.6610 H   0  0  0  0  0  0  0  0  0  0  0  0
   45.3040   33.9710   45.9030 O   0  0  0  0  0  0  0  0  0  0  0  0
   46.3410   33.1990   46.3420 C   0  0  0  0  0  0  0  0  0  0  0  0
   47.0220   32.7740   45.6240 H   0  0  0  0  0  0  0  0  0  0  0  0
   46.9770   33.8650   46.9990 H   0  0  0  0  0  0  0  0  0  0  0  0
   45.3100   31.3480   49.4010 C   0  0  0  0  0  0  0  0  0  0  0  0
   45.7380   32.3970   48.5820 C   0  0  0  0  0  0  0  0  0  0  0  0
   45.8920   32.1150   47.2270 C   0  0  0  0  0  0  0  0  0  0  0  0
   45.6220   30.8500   46.7730 N   0  0  0  0  0  0  0  0  0  0  0  0
   45.2090   29.8630   47.6030 C   0  0  0  0  0  0  0  0  0  0  0  0
   45.0600   30.1200   48.8940 N   0  0  0  0  0  0  0  0  0  0  0  0
   45.1940   31.5770   50.4550 H   0  0  0  0  0  0  0  0  0  0  0  0
   45.9430   33.3820   48.9650 H   0  0  0  0  0  0  0  0  0  0  0  0
   45.0070   28.8800   47.2050 H   0  0  0  0  0  0  0  0  0  0  0  0
  1  6  1  6  0  0  0
  1  2  1  0  0  0  0
  1 23  1  0  0  0  0
  2  7  1  0  0  0  0
  2  8  1  0  0  0  0
  3  2  1  0  0  0  0
  4  5  1  0  0  0  0
  4  3  1  0  0  0  0
  5 13  1  6  0  0  0
  5 16  1  0  0  0  0
  5  1  1  0  0  0  0
  9  3  1  0  0  0  0
 10  3  1  0  0  0  0
 11  4  1  0  0  0  0
 12  4  1  0  0  0  0
 15 16  1  0  0  0  0
 15 14  2  0  0  0  0
 16 17  1  6  0  0  0
 18 17  1  0  0  0  0
 19 21  1  0  0  0  0
 19 17  1  0  0  0  0
 20 19  1  0  0  0  0
 21 15  1  0  0  0  0
 22 21  1  0  0  0  0
 23 25  1  0  0  0  0
 25 24  2  6  0  0  0
 25 28  1  0  0  0  0
 26 25  1  0  0  0  0
 27 26  1  0  0  0  0
 28 29  1  0  0  0  0
 29 31  1  0  0  0  0
 29 34  1  0  0  0  0
 30 29  1  0  0  0  0
 32 38  1  0  0  0  0
 33 39  1  0  0  0  0
 33 32  2  0  0  0  0
 34 33  1  0  0  0  0
 35 34  2  0  0  0  0
 35 36  1  0  0  0  0
 36 37  2  0  0  0  0
 37 32  1  0  0  0  0
 40 36  1  0  0  0  0
M  END
>  <minimizedAffinity>
-5.76458073

>  <minimizedRMSD>
2.71163058

$$$$
