
 OpenBabel03242522413D

 47 50  0  0  1  0  0  0  0  0999 V2000
   46.7510   32.4970   44.6310 C   0  0  0  0  0  0  0  0  0  0  0  0
   47.7810   32.7650   44.9050 H   0  0  0  0  0  0  0  0  0  0  0  0
   46.6400   31.9010   43.7380 H   0  0  0  0  0  0  0  0  0  0  0  0
   46.3580   34.3370   43.1070 C   0  0  0  0  0  0  0  0  0  0  0  0
   46.0880   33.7780   44.3340 C   0  0  0  0  0  0  0  0  0  0  0  0
   45.2740   34.2960   45.2650 C   0  0  0  0  0  0  0  0  0  0  0  0
   44.6510   35.4820   44.9930 C   0  0  0  0  0  0  0  0  0  0  0  0
   44.8380   36.1300   43.8150 C   0  0  0  0  0  0  0  0  0  0  0  0
   45.6890   35.5320   42.9040 C   0  0  0  0  0  0  0  0  0  0  0  0
   44.9930   33.9370   46.2160 H   0  0  0  0  0  0  0  0  0  0  0  0
   43.9690   36.0070   45.6660 H   0  0  0  0  0  0  0  0  0  0  0  0
   44.3680   37.0690   43.5500 H   0  0  0  0  0  0  0  0  0  0  0  0
   45.8320   36.0700   41.9480 H   0  0  0  0  0  0  0  0  0  0  0  0
   47.4520   33.8240   41.9000 S   0  0  0  0  0  0  0  0  0  0  0  0
   48.8590   34.2990   42.0980 O   0  0  0  0  0  0  0  0  0  0  0  0
   46.9950   34.5520   40.6010 O   0  0  0  0  0  0  0  0  0  0  0  0
   49.0900   32.5720   39.1150 O   0  0  0  0  0  0  0  0  0  0  0  0
   48.2660   32.1180   39.9500 C   0  0  0  0  0  0  0  0  0  0  0  0
   47.5510   32.2720   41.2460 C   0  0  2  0  0  3  0  0  0  0  0  0
   46.1490   31.9720   40.6850 C   0  0  0  0  0  3  0  0  0  0  0  0
   45.8450   32.6890   39.9120 H   0  0  0  0  0  0  0  0  0  0  0  0
   46.4240   30.5850   40.1080 C   0  0  0  0  0  3  0  0  0  0  0  0
   45.6440   30.3400   39.3920 H   0  0  0  0  0  0  0  0  0  0  0  0
   47.7300   30.8580   39.4880 N   0  0  0  0  0  0  0  0  0  0  0  0
   48.0040   30.0680   38.8300 H   0  0  0  0  0  0  0  0  0  0  0  0
   46.0960   31.6550   45.6810 C   0  0  0  0  0  0  0  0  0  0  0  0
   45.8000   30.6270   45.3380 H   0  0  0  0  0  0  0  0  0  0  0  0
   45.1140   32.0450   46.0460 H   0  0  0  0  0  0  0  0  0  0  0  0
   47.2670   32.4440   47.7060 C   0  0  0  0  0  0  0  0  0  0  0  0
   47.0660   31.4270   46.7450 C   0  0  0  0  0  0  0  0  0  0  0  0
   47.7820   30.2540   46.8930 C   0  0  0  0  0  0  0  0  0  0  0  0
   48.6280   30.1440   47.9420 N   0  0  0  0  0  0  0  0  0  0  0  0
   48.7950   31.1170   48.8320 C   0  0  0  0  0  0  0  0  0  0  0  0
   48.1200   32.2860   48.7330 N   0  0  0  0  0  0  0  0  0  0  0  0
   46.8320   33.4230   47.7830 H   0  0  0  0  0  0  0  0  0  0  0  0
   47.6290   29.4820   46.1600 H   0  0  0  0  0  0  0  0  0  0  0  0
   49.7500   30.8930   49.9690 C   0  0  0  0  0  0  0  0  0  0  0  0
   49.2240   31.2830   50.8870 H   0  0  0  0  0  0  0  0  0  0  0  0
   49.8940   29.8010   50.1350 H   0  0  0  0  0  0  0  0  0  0  0  0
   51.0070   31.6160   49.8230 C   0  0  0  0  0  0  0  0  0  0  0  0
   52.1590   31.1110   49.2330 C   0  0  0  0  0  0  0  0  0  0  0  0
   53.1290   32.0770   49.2780 C   0  0  0  0  0  0  0  0  0  0  0  0
   52.5370   33.1460   49.8980 N   0  0  0  0  0  0  0  0  0  0  0  0
   51.2730   32.8730   50.2220 N   0  0  0  0  0  0  0  0  0  0  0  0
   52.2800   30.1280   48.8080 H   0  0  0  0  0  0  0  0  0  0  0  0
   54.1560   32.0750   48.9280 H   0  0  0  0  0  0  0  0  0  0  0  0
   53.0170   34.0600   50.0900 H   0  0  0  0  0  0  0  0  0  0  0  0
  1  2  1  0  0  0  0
  1 26  1  0  0  0  0
  3  1  1  0  0  0  0
  4  5  1  0  0  0  0
  5  1  1  0  0  0  0
  5  6  2  0  0  0  0
  6 10  1  0  0  0  0
  7  6  1  0  0  0  0
  7 11  1  0  0  0  0
  8  7  2  0  0  0  0
  9  4  2  0  0  0  0
  9  8  1  0  0  0  0
 12  8  1  0  0  0  0
 13  9  1  0  0  0  0
 14 15  2  0  0  0  0
 14  4  1  0  0  0  0
 16 14  2  0  0  0  0
 17 18  2  0  0  0  0
 18 19  1  0  0  0  0
 19 14  1  6  0  0  0
 20 19  1  0  0  0  0
 21 20  1  0  0  0  0
 22 20  1  0  0  0  0
 23 22  1  0  0  0  0
 24 18  1  0  0  0  0
 24 22  1  0  0  0  0
 25 24  1  0  0  0  0
 26 28  1  0  0  0  0
 26 30  1  0  0  0  0
 27 26  1  0  0  0  0
 29 35  1  0  0  0  0
 29 34  1  0  0  0  0
 30 31  1  0  0  0  0
 30 29  2  0  0  0  0
 31 32  2  0  0  0  0
 32 33  1  0  0  0  0
 33 37  1  0  0  0  0
 34 33  2  0  0  0  0
 36 31  1  0  0  0  0
 37 39  1  0  0  0  0
 37 38  1  0  0  0  0
 40 37  1  0  0  0  0
 40 44  2  0  0  0  0
 41 42  2  0  0  0  0
 41 40  1  0  0  0  0
 42 43  1  0  0  0  0
 43 47  1  0  0  0  0
 43 44  1  0  0  0  0
 45 41  1  0  0  0  0
 46 42  1  0  0  0  0
M  END
>  <minimizedAffinity>
-5.80705976

>  <minimizedRMSD>
0.862986565

$$$$
