
 OpenBabel03242522413D

 47 50  0  0  1  0  0  0  0  0999 V2000
   46.7530   32.5390   44.4710 C   0  0  0  0  0  0  0  0  0  0  0  0
   47.7800   32.7950   44.7660 H   0  0  0  0  0  0  0  0  0  0  0  0
   46.6550   31.9280   43.5860 H   0  0  0  0  0  0  0  0  0  0  0  0
   46.4480   34.3700   42.9160 C   0  0  0  0  0  0  0  0  0  0  0  0
   46.1170   33.8240   44.1350 C   0  0  0  0  0  0  0  0  0  0  0  0
   45.2690   34.3580   45.0240 C   0  0  0  0  0  0  0  0  0  0  0  0
   44.6710   35.5480   44.7160 C   0  0  0  0  0  0  0  0  0  0  0  0
   44.9170   36.1840   43.5420 C   0  0  0  0  0  0  0  0  0  0  0  0
   45.8010   35.5700   42.6750 C   0  0  0  0  0  0  0  0  0  0  0  0
   44.9420   34.0100   45.9650 H   0  0  0  0  0  0  0  0  0  0  0  0
   43.9660   36.0870   45.3530 H   0  0  0  0  0  0  0  0  0  0  0  0
   44.4700   37.1270   43.2490 H   0  0  0  0  0  0  0  0  0  0  0  0
   45.9920   36.0980   41.7220 H   0  0  0  0  0  0  0  0  0  0  0  0
   47.5880   33.8350   41.7630 S   0  0  0  0  0  0  0  0  0  0  0  0
   48.9740   34.3660   41.9720 O   0  0  0  0  0  0  0  0  0  0  0  0
   47.1430   34.4840   40.4190 O   0  0  0  0  0  0  0  0  0  0  0  0
   49.2840   32.5130   39.0460 O   0  0  0  0  0  0  0  0  0  0  0  0
   48.4790   32.0690   39.9030 C   0  0  0  0  0  0  0  0  0  0  0  0
   47.7540   32.2570   41.1890 C   0  0  2  0  0  3  0  0  0  0  0  0
   46.3680   31.8700   40.6440 C   0  0  0  0  0  3  0  0  0  0  0  0
   46.0360   32.5350   39.8360 H   0  0  0  0  0  0  0  0  0  0  0  0
   46.7020   30.4700   40.1380 C   0  0  0  0  0  3  0  0  0  0  0  0
   45.9350   30.1550   39.4350 H   0  0  0  0  0  0  0  0  0  0  0  0
   47.9970   30.7660   39.5060 N   0  0  0  0  0  0  0  0  0  0  0  0
   48.3060   29.9550   38.8890 H   0  0  0  0  0  0  0  0  0  0  0  0
   46.0590   31.7260   45.5190 C   0  0  0  0  0  0  0  0  0  0  0  0
   45.7460   30.7000   45.1840 H   0  0  0  0  0  0  0  0  0  0  0  0
   45.0800   32.1430   45.8600 H   0  0  0  0  0  0  0  0  0  0  0  0
   47.1880   32.5050   47.5720 C   0  0  0  0  0  0  0  0  0  0  0  0
   47.0030   31.4910   46.6050 C   0  0  0  0  0  0  0  0  0  0  0  0
   47.7080   30.3140   46.7670 C   0  0  0  0  0  0  0  0  0  0  0  0
   48.5300   30.1970   47.8340 N   0  0  0  0  0  0  0  0  0  0  0  0
   48.6820   31.1670   48.7300 C   0  0  0  0  0  0  0  0  0  0  0  0
   48.0160   32.3410   48.6180 N   0  0  0  0  0  0  0  0  0  0  0  0
   46.7570   33.4860   47.6410 H   0  0  0  0  0  0  0  0  0  0  0  0
   47.5680   29.5430   46.0290 H   0  0  0  0  0  0  0  0  0  0  0  0
   49.6090   30.9360   49.8880 C   0  0  0  0  0  0  0  0  0  0  0  0
   49.0690   31.3370   50.7920 H   0  0  0  0  0  0  0  0  0  0  0  0
   49.7350   29.8430   50.0620 H   0  0  0  0  0  0  0  0  0  0  0  0
   50.8790   31.6420   49.7660 C   0  0  0  0  0  0  0  0  0  0  0  0
   52.0420   31.1120   49.2210 C   0  0  0  0  0  0  0  0  0  0  0  0
   53.0220   32.0680   49.2760 C   0  0  0  0  0  0  0  0  0  0  0  0
   52.4240   33.1550   49.8570 N   0  0  0  0  0  0  0  0  0  0  0  0
   51.1480   32.9030   50.1480 N   0  0  0  0  0  0  0  0  0  0  0  0
   52.1630   30.1200   48.8190 H   0  0  0  0  0  0  0  0  0  0  0  0
   54.0580   32.0470   48.9580 H   0  0  0  0  0  0  0  0  0  0  0  0
   52.9090   34.0670   50.0450 H   0  0  0  0  0  0  0  0  0  0  0  0
  1  2  1  0  0  0  0
  1 26  1  0  0  0  0
  3  1  1  0  0  0  0
  4  5  1  0  0  0  0
  5  1  1  0  0  0  0
  5  6  2  0  0  0  0
  6 10  1  0  0  0  0
  7  6  1  0  0  0  0
  7 11  1  0  0  0  0
  8  7  2  0  0  0  0
  9  4  2  0  0  0  0
  9  8  1  0  0  0  0
 12  8  1  0  0  0  0
 13  9  1  0  0  0  0
 14 15  2  0  0  0  0
 14  4  1  0  0  0  0
 16 14  2  0  0  0  0
 17 18  2  0  0  0  0
 18 19  1  0  0  0  0
 19 14  1  6  0  0  0
 20 19  1  0  0  0  0
 21 20  1  0  0  0  0
 22 20  1  0  0  0  0
 23 22  1  0  0  0  0
 24 18  1  0  0  0  0
 24 22  1  0  0  0  0
 25 24  1  0  0  0  0
 26 28  1  0  0  0  0
 26 30  1  0  0  0  0
 27 26  1  0  0  0  0
 29 35  1  0  0  0  0
 29 34  1  0  0  0  0
 30 31  1  0  0  0  0
 30 29  2  0  0  0  0
 31 32  2  0  0  0  0
 32 33  1  0  0  0  0
 33 37  1  0  0  0  0
 34 33  2  0  0  0  0
 36 31  1  0  0  0  0
 37 39  1  0  0  0  0
 37 38  1  0  0  0  0
 40 37  1  0  0  0  0
 40 44  2  0  0  0  0
 41 42  2  0  0  0  0
 41 40  1  0  0  0  0
 42 43  1  0  0  0  0
 43 47  1  0  0  0  0
 43 44  1  0  0  0  0
 45 41  1  0  0  0  0
 46 42  1  0  0  0  0
M  END
>  <minimizedAffinity>
-5.83080387

>  <minimizedRMSD>
0.76738596

$$$$
