
 OpenBabel03242522413D

 47 50  0  0  1  0  0  0  0  0999 V2000
   46.7800   32.7730   44.2740 C   0  0  0  0  0  0  0  0  0  0  0  0
   47.7820   33.0400   44.6380 H   0  0  0  0  0  0  0  0  0  0  0  0
   46.7420   32.2980   43.3050 H   0  0  0  0  0  0  0  0  0  0  0  0
   46.3930   34.7890   42.9890 C   0  0  0  0  0  0  0  0  0  0  0  0
   46.0770   34.0560   44.1090 C   0  0  0  0  0  0  0  0  0  0  0  0
   45.1870   34.4110   45.0470 C   0  0  0  0  0  0  0  0  0  0  0  0
   44.5260   35.5980   44.8980 C   0  0  0  0  0  0  0  0  0  0  0  0
   44.7520   36.4080   43.8320 C   0  0  0  0  0  0  0  0  0  0  0  0
   45.6820   35.9740   42.9060 C   0  0  0  0  0  0  0  0  0  0  0  0
   44.8680   33.9140   45.9210 H   0  0  0  0  0  0  0  0  0  0  0  0
   43.7830   36.0000   45.5900 H   0  0  0  0  0  0  0  0  0  0  0  0
   44.2560   37.3570   43.6670 H   0  0  0  0  0  0  0  0  0  0  0  0
   45.8560   36.6430   42.0430 H   0  0  0  0  0  0  0  0  0  0  0  0
   47.5780   34.4880   41.7970 S   0  0  0  0  0  0  0  0  0  0  0  0
   48.4670   35.6580   41.4990 O   0  0  0  0  0  0  0  0  0  0  0  0
   46.7820   34.2830   40.4740 O   0  0  0  0  0  0  0  0  0  0  0  0
   50.9120   33.9000   42.5370 O   0  0  0  0  0  0  0  0  0  0  0  0
   49.9870   33.2500   41.9850 C   0  0  0  0  0  0  0  0  0  0  0  0
   48.5390   33.1060   41.6800 C   0  0  2  0  0  3  0  0  0  0  0  0
   48.7210   32.8570   40.1720 C   0  0  0  0  0  3  0  0  0  0  0  0
   49.2090   33.7010   39.6660 H   0  0  0  0  0  0  0  0  0  0  0  0
   49.6260   31.6310   40.2490 C   0  0  0  0  0  3  0  0  0  0  0  0
   50.1220   31.4970   39.2910 H   0  0  0  0  0  0  0  0  0  0  0  0
   50.5250   32.0840   41.3210 N   0  0  0  0  0  0  0  0  0  0  0  0
   51.3810   31.4560   41.3810 H   0  0  0  0  0  0  0  0  0  0  0  0
   46.1110   31.7750   45.1650 C   0  0  0  0  0  0  0  0  0  0  0  0
   45.9560   30.7630   44.7010 H   0  0  0  0  0  0  0  0  0  0  0  0
   45.0630   32.0360   45.4540 H   0  0  0  0  0  0  0  0  0  0  0  0
   47.0620   32.5100   47.3220 C   0  0  0  0  0  0  0  0  0  0  0  0
   46.9860   31.5310   46.3050 C   0  0  0  0  0  0  0  0  0  0  0  0
   47.7270   30.3760   46.4700 C   0  0  0  0  0  0  0  0  0  0  0  0
   48.4770   30.2460   47.5880 N   0  0  0  0  0  0  0  0  0  0  0  0
   48.5260   31.1830   48.5290 C   0  0  0  0  0  0  0  0  0  0  0  0
   47.8210   32.3340   48.4170 N   0  0  0  0  0  0  0  0  0  0  0  0
   46.5860   33.4700   47.3990 H   0  0  0  0  0  0  0  0  0  0  0  0
   47.6700   29.6330   45.6950 H   0  0  0  0  0  0  0  0  0  0  0  0
   49.3800   30.9400   49.7410 C   0  0  0  0  0  0  0  0  0  0  0  0
   48.7950   31.3530   50.6110 H   0  0  0  0  0  0  0  0  0  0  0  0
   49.4750   29.8450   49.9250 H   0  0  0  0  0  0  0  0  0  0  0  0
   50.6670   31.6210   49.6910 C   0  0  0  0  0  0  0  0  0  0  0  0
   51.8440   31.0780   49.1910 C   0  0  0  0  0  0  0  0  0  0  0  0
   52.8390   32.0120   49.3100 C   0  0  0  0  0  0  0  0  0  0  0  0
   52.2350   33.1010   49.8820 N   0  0  0  0  0  0  0  0  0  0  0  0
   50.9420   32.8700   50.1080 N   0  0  0  0  0  0  0  0  0  0  0  0
   51.9650   30.0900   48.7780 H   0  0  0  0  0  0  0  0  0  0  0  0
   53.8880   31.9760   49.0400 H   0  0  0  0  0  0  0  0  0  0  0  0
   52.7280   33.9990   50.1100 H   0  0  0  0  0  0  0  0  0  0  0  0
  1  2  1  0  0  0  0
  1 26  1  0  0  0  0
  3  1  1  0  0  0  0
  4  5  1  0  0  0  0
  5  1  1  0  0  0  0
  5  6  2  0  0  0  0
  6 10  1  0  0  0  0
  7  6  1  0  0  0  0
  7 11  1  0  0  0  0
  8  7  2  0  0  0  0
  9  4  2  0  0  0  0
  9  8  1  0  0  0  0
 12  8  1  0  0  0  0
 13  9  1  0  0  0  0
 14  4  1  0  0  0  0
 15 14  2  0  0  0  0
 16 14  2  0  0  0  0
 18 17  2  0  0  0  0
 19 14  1  6  0  0  0
 19 18  1  0  0  0  0
 20 22  1  0  0  0  0
 20 19  1  0  0  0  0
 21 20  1  0  0  0  0
 22 24  1  0  0  0  0
 23 22  1  0  0  0  0
 24 25  1  0  0  0  0
 24 18  1  0  0  0  0
 26 28  1  0  0  0  0
 26 30  1  0  0  0  0
 27 26  1  0  0  0  0
 29 35  1  0  0  0  0
 29 34  1  0  0  0  0
 30 31  1  0  0  0  0
 30 29  2  0  0  0  0
 31 32  2  0  0  0  0
 32 33  1  0  0  0  0
 33 37  1  0  0  0  0
 34 33  2  0  0  0  0
 36 31  1  0  0  0  0
 37 39  1  0  0  0  0
 37 38  1  0  0  0  0
 40 37  1  0  0  0  0
 40 44  2  0  0  0  0
 41 42  2  0  0  0  0
 41 40  1  0  0  0  0
 42 43  1  0  0  0  0
 43 44  1  0  0  0  0
 43 47  1  0  0  0  0
 45 41  1  0  0  0  0
 46 42  1  0  0  0  0
M  END
>  <minimizedAffinity>
-6.5981288

>  <minimizedRMSD>
0.686897576

$$$$
