
 OpenBabel03242522413D

 47 50  0  0  1  0  0  0  0  0999 V2000
   46.7810   32.7740   44.2710 C   0  0  0  0  0  0  0  0  0  0  0  0
   47.7830   33.0410   44.6360 H   0  0  0  0  0  0  0  0  0  0  0  0
   46.7430   32.2980   43.3030 H   0  0  0  0  0  0  0  0  0  0  0  0
   46.3940   34.7890   42.9850 C   0  0  0  0  0  0  0  0  0  0  0  0
   46.0780   34.0580   44.1060 C   0  0  0  0  0  0  0  0  0  0  0  0
   45.1880   34.4130   45.0430 C   0  0  0  0  0  0  0  0  0  0  0  0
   44.5270   35.6010   44.8940 C   0  0  0  0  0  0  0  0  0  0  0  0
   44.7540   36.4100   43.8270 C   0  0  0  0  0  0  0  0  0  0  0  0
   45.6840   35.9750   42.9020 C   0  0  0  0  0  0  0  0  0  0  0  0
   44.8680   33.9170   45.9170 H   0  0  0  0  0  0  0  0  0  0  0  0
   43.7840   36.0030   45.5850 H   0  0  0  0  0  0  0  0  0  0  0  0
   44.2580   37.3590   43.6610 H   0  0  0  0  0  0  0  0  0  0  0  0
   45.8590   36.6430   42.0380 H   0  0  0  0  0  0  0  0  0  0  0  0
   47.5800   34.4880   41.7940 S   0  0  0  0  0  0  0  0  0  0  0  0
   48.4670   35.6580   41.4930 O   0  0  0  0  0  0  0  0  0  0  0  0
   46.7840   34.2770   40.4720 O   0  0  0  0  0  0  0  0  0  0  0  0
   50.9140   33.9060   42.5380 O   0  0  0  0  0  0  0  0  0  0  0  0
   49.9900   33.2540   41.9880 C   0  0  0  0  0  0  0  0  0  0  0  0
   48.5430   33.1060   41.6800 C   0  0  2  0  0  3  0  0  0  0  0  0
   48.7270   32.8560   40.1740 C   0  0  0  0  0  3  0  0  0  0  0  0
   49.2150   33.6990   39.6670 H   0  0  0  0  0  0  0  0  0  0  0  0
   49.6340   31.6300   40.2540 C   0  0  0  0  0  3  0  0  0  0  0  0
   50.1320   31.4950   39.2960 H   0  0  0  0  0  0  0  0  0  0  0  0
   50.5310   32.0880   41.3270 N   0  0  0  0  0  0  0  0  0  0  0  0
   51.3890   31.4610   41.3880 H   0  0  0  0  0  0  0  0  0  0  0  0
   46.1100   31.7770   45.1630 C   0  0  0  0  0  0  0  0  0  0  0  0
   45.9540   30.7650   44.6990 H   0  0  0  0  0  0  0  0  0  0  0  0
   45.0630   32.0390   45.4510 H   0  0  0  0  0  0  0  0  0  0  0  0
   47.0610   32.5120   47.3200 C   0  0  0  0  0  0  0  0  0  0  0  0
   46.9850   31.5330   46.3030 C   0  0  0  0  0  0  0  0  0  0  0  0
   47.7250   30.3770   46.4690 C   0  0  0  0  0  0  0  0  0  0  0  0
   48.4740   30.2470   47.5870 N   0  0  0  0  0  0  0  0  0  0  0  0
   48.5240   31.1840   48.5280 C   0  0  0  0  0  0  0  0  0  0  0  0
   47.8200   32.3350   48.4150 N   0  0  0  0  0  0  0  0  0  0  0  0
   46.5860   33.4720   47.3960 H   0  0  0  0  0  0  0  0  0  0  0  0
   47.6680   29.6340   45.6940 H   0  0  0  0  0  0  0  0  0  0  0  0
   49.3770   30.9400   49.7400 C   0  0  0  0  0  0  0  0  0  0  0  0
   48.7920   31.3550   50.6090 H   0  0  0  0  0  0  0  0  0  0  0  0
   49.4710   29.8450   49.9240 H   0  0  0  0  0  0  0  0  0  0  0  0
   50.6650   31.6210   49.6900 C   0  0  0  0  0  0  0  0  0  0  0  0
   51.8410   31.0760   49.1890 C   0  0  0  0  0  0  0  0  0  0  0  0
   52.8370   32.0090   49.3080 C   0  0  0  0  0  0  0  0  0  0  0  0
   52.2350   33.0980   49.8820 N   0  0  0  0  0  0  0  0  0  0  0  0
   50.9420   32.8680   50.1080 N   0  0  0  0  0  0  0  0  0  0  0  0
   51.9610   30.0890   48.7740 H   0  0  0  0  0  0  0  0  0  0  0  0
   53.8870   31.9720   49.0370 H   0  0  0  0  0  0  0  0  0  0  0  0
   52.7300   33.9960   50.1100 H   0  0  0  0  0  0  0  0  0  0  0  0
  1  2  1  0  0  0  0
  1 26  1  0  0  0  0
  3  1  1  0  0  0  0
  4  5  1  0  0  0  0
  5  1  1  0  0  0  0
  5  6  2  0  0  0  0
  6 10  1  0  0  0  0
  7  6  1  0  0  0  0
  7 11  1  0  0  0  0
  8  7  2  0  0  0  0
  9  4  2  0  0  0  0
  9  8  1  0  0  0  0
 12  8  1  0  0  0  0
 13  9  1  0  0  0  0
 14  4  1  0  0  0  0
 15 14  2  0  0  0  0
 16 14  2  0  0  0  0
 18 17  2  0  0  0  0
 19 14  1  6  0  0  0
 19 18  1  0  0  0  0
 20 22  1  0  0  0  0
 20 19  1  0  0  0  0
 21 20  1  0  0  0  0
 22 24  1  0  0  0  0
 23 22  1  0  0  0  0
 24 25  1  0  0  0  0
 24 18  1  0  0  0  0
 26 28  1  0  0  0  0
 26 30  1  0  0  0  0
 27 26  1  0  0  0  0
 29 35  1  0  0  0  0
 29 34  1  0  0  0  0
 30 31  1  0  0  0  0
 30 29  2  0  0  0  0
 31 32  2  0  0  0  0
 32 33  1  0  0  0  0
 33 37  1  0  0  0  0
 34 33  2  0  0  0  0
 36 31  1  0  0  0  0
 37 39  1  0  0  0  0
 37 38  1  0  0  0  0
 40 37  1  0  0  0  0
 40 44  2  0  0  0  0
 41 42  2  0  0  0  0
 41 40  1  0  0  0  0
 42 43  1  0  0  0  0
 43 44  1  0  0  0  0
 43 47  1  0  0  0  0
 45 41  1  0  0  0  0
 46 42  1  0  0  0  0
M  END
>  <minimizedAffinity>
-6.59242105

>  <minimizedRMSD>
0.98952055

$$$$
