
 OpenBabel03242522413D

 47 50  0  0  1  0  0  0  0  0999 V2000
   46.7920   32.7610   44.3030 C   0  0  0  0  0  0  0  0  0  0  0  0
   47.7930   33.0330   44.6670 H   0  0  0  0  0  0  0  0  0  0  0  0
   46.7560   32.2890   43.3320 H   0  0  0  0  0  0  0  0  0  0  0  0
   46.3790   34.7740   43.0230 C   0  0  0  0  0  0  0  0  0  0  0  0
   46.0790   34.0390   44.1460 C   0  0  0  0  0  0  0  0  0  0  0  0
   45.1950   34.3870   45.0920 C   0  0  0  0  0  0  0  0  0  0  0  0
   44.5250   35.5700   44.9500 C   0  0  0  0  0  0  0  0  0  0  0  0
   44.7360   36.3820   43.8820 C   0  0  0  0  0  0  0  0  0  0  0  0
   45.6600   35.9550   42.9480 C   0  0  0  0  0  0  0  0  0  0  0  0
   44.8870   33.8880   45.9690 H   0  0  0  0  0  0  0  0  0  0  0  0
   43.7850   35.9660   45.6490 H   0  0  0  0  0  0  0  0  0  0  0  0
   44.2310   37.3270   43.7220 H   0  0  0  0  0  0  0  0  0  0  0  0
   45.8210   36.6250   42.0830 H   0  0  0  0  0  0  0  0  0  0  0  0
   47.5560   34.4820   41.8200 S   0  0  0  0  0  0  0  0  0  0  0  0
   48.4520   35.6490   41.5350 O   0  0  0  0  0  0  0  0  0  0  0  0
   46.7510   34.3040   40.4990 O   0  0  0  0  0  0  0  0  0  0  0  0
   50.8930   33.8610   42.5120 O   0  0  0  0  0  0  0  0  0  0  0  0
   49.9570   33.2240   41.9660 C   0  0  0  0  0  0  0  0  0  0  0  0
   48.5040   33.0940   41.6770 C   0  0  2  0  0  3  0  0  0  0  0  0
   48.6670   32.8610   40.1650 C   0  0  0  0  0  3  0  0  0  0  0  0
   49.1550   33.7050   39.6610 H   0  0  0  0  0  0  0  0  0  0  0  0
   49.5620   31.6260   40.2160 C   0  0  0  0  0  3  0  0  0  0  0  0
   50.0450   31.5000   39.2510 H   0  0  0  0  0  0  0  0  0  0  0  0
   50.4780   32.0620   41.2830 N   0  0  0  0  0  0  0  0  0  0  0  0
   51.3310   31.4260   41.3250 H   0  0  0  0  0  0  0  0  0  0  0  0
   46.1320   31.7540   45.1910 C   0  0  0  0  0  0  0  0  0  0  0  0
   45.9870   30.7420   44.7240 H   0  0  0  0  0  0  0  0  0  0  0  0
   45.0820   32.0040   45.4800 H   0  0  0  0  0  0  0  0  0  0  0  0
   47.0780   32.4920   47.3490 C   0  0  0  0  0  0  0  0  0  0  0  0
   47.0090   31.5140   46.3310 C   0  0  0  0  0  0  0  0  0  0  0  0
   47.7570   30.3640   46.4950 C   0  0  0  0  0  0  0  0  0  0  0  0
   48.5080   30.2380   47.6120 N   0  0  0  0  0  0  0  0  0  0  0  0
   48.5510   31.1740   48.5550 C   0  0  0  0  0  0  0  0  0  0  0  0
   47.8390   32.3200   48.4430 N   0  0  0  0  0  0  0  0  0  0  0  0
   46.5970   33.4490   47.4260 H   0  0  0  0  0  0  0  0  0  0  0  0
   47.7050   29.6210   45.7190 H   0  0  0  0  0  0  0  0  0  0  0  0
   49.4070   30.9350   49.7660 C   0  0  0  0  0  0  0  0  0  0  0  0
   48.8170   31.3390   50.6370 H   0  0  0  0  0  0  0  0  0  0  0  0
   49.5130   29.8400   49.9450 H   0  0  0  0  0  0  0  0  0  0  0  0
   50.6860   31.6310   49.7200 C   0  0  0  0  0  0  0  0  0  0  0  0
   51.8760   31.0910   49.2460 C   0  0  0  0  0  0  0  0  0  0  0  0
   52.8580   32.0390   49.3600 C   0  0  0  0  0  0  0  0  0  0  0  0
   52.2350   33.1320   49.9030 N   0  0  0  0  0  0  0  0  0  0  0  0
   50.9420   32.8900   50.1160 N   0  0  0  0  0  0  0  0  0  0  0  0
   52.0140   30.0970   48.8530 H   0  0  0  0  0  0  0  0  0  0  0  0
   53.9120   32.0110   49.1040 H   0  0  0  0  0  0  0  0  0  0  0  0
   52.7150   34.0400   50.1200 H   0  0  0  0  0  0  0  0  0  0  0  0
  1  2  1  0  0  0  0
  1 26  1  0  0  0  0
  3  1  1  0  0  0  0
  4  5  1  0  0  0  0
  5  1  1  0  0  0  0
  5  6  2  0  0  0  0
  6 10  1  0  0  0  0
  7  6  1  0  0  0  0
  7 11  1  0  0  0  0
  8  7  2  0  0  0  0
  9  4  2  0  0  0  0
  9  8  1  0  0  0  0
 12  8  1  0  0  0  0
 13  9  1  0  0  0  0
 14  4  1  0  0  0  0
 15 14  2  0  0  0  0
 16 14  2  0  0  0  0
 18 17  2  0  0  0  0
 19 14  1  6  0  0  0
 19 18  1  0  0  0  0
 20 22  1  0  0  0  0
 20 19  1  0  0  0  0
 21 20  1  0  0  0  0
 22 24  1  0  0  0  0
 23 22  1  0  0  0  0
 24 25  1  0  0  0  0
 24 18  1  0  0  0  0
 26 28  1  0  0  0  0
 26 30  1  0  0  0  0
 27 26  1  0  0  0  0
 29 35  1  0  0  0  0
 29 34  1  0  0  0  0
 30 31  1  0  0  0  0
 30 29  2  0  0  0  0
 31 32  2  0  0  0  0
 32 33  1  0  0  0  0
 33 37  1  0  0  0  0
 34 33  2  0  0  0  0
 36 31  1  0  0  0  0
 37 39  1  0  0  0  0
 37 38  1  0  0  0  0
 40 37  1  0  0  0  0
 40 44  2  0  0  0  0
 41 42  2  0  0  0  0
 41 40  1  0  0  0  0
 42 43  1  0  0  0  0
 43 44  1  0  0  0  0
 43 47  1  0  0  0  0
 45 41  1  0  0  0  0
 46 42  1  0  0  0  0
M  END
>  <minimizedAffinity>
-6.59640789

>  <minimizedRMSD>
0.372202933

$$$$
