
 OpenBabel03252506363D

 44 47  0  0  1  0  0  0  0  0999 V2000
   44.5130   35.5150   45.1260 C   0  0  0  0  0  0  0  0  0  0  0  0
   45.1720   35.4840   43.8790 C   0  0  0  0  0  0  0  0  0  0  0  0
   46.0910   34.5160   43.6410 C   0  0  0  0  0  0  0  0  0  0  0  0
   46.3170   33.6250   44.6350 N   0  0  0  0  0  0  0  0  0  0  0  0
   45.6960   33.6580   45.8050 C   0  0  0  0  0  0  0  0  0  0  0  0
   44.7890   34.5970   46.0690 N   0  0  0  0  0  0  0  0  0  0  0  0
   46.0210   32.6600   46.7890 N   0  0  0  0  0  0  0  0  0  0  0  0
   45.2800   32.4320   47.9760 C   0  0  0  0  0  0  0  0  0  0  0  0
   46.3540   32.0990   48.9970 C   0  0  0  0  0  0  0  0  0  0  0  0
   47.6350   31.9890   48.2340 C   0  0  0  0  0  0  0  0  0  0  0  0
   47.1440   31.7520   46.8050 C   0  0  1  0  0  0  0  0  0  0  0  0
   43.7860   36.2800   45.3170 H   0  0  0  0  0  0  0  0  0  0  0  0
   46.6000   34.4750   42.7060 H   0  0  0  0  0  0  0  0  0  0  0  0
   44.4530   31.8070   48.0730 H   0  0  0  0  0  0  0  0  0  0  0  0
   44.9250   33.4590   48.3190 H   0  0  0  0  0  0  0  0  0  0  0  0
   46.3650   32.7340   49.8770 H   0  0  0  0  0  0  0  0  0  0  0  0
   46.1330   31.0580   49.3770 H   0  0  0  0  0  0  0  0  0  0  0  0
   48.2210   31.1090   48.5250 H   0  0  0  0  0  0  0  0  0  0  0  0
   48.1860   32.9510   48.2960 H   0  0  0  0  0  0  0  0  0  0  0  0
   47.9330   32.0640   46.1060 H   0  0  0  0  0  0  0  0  0  0  0  0
   44.8200   36.5010   42.9270 N   0  0  0  0  0  0  0  0  0  0  0  0
   43.8360   36.8370   42.8760 H   0  0  0  0  0  0  0  0  0  0  0  0
   45.5540   36.8990   42.2900 H   0  0  0  0  0  0  0  0  0  0  0  0
   46.6350   30.0560   46.6450 S   0  0  0  0  0  0  0  0  0  0  0  0
   45.7340   30.3420   43.4440 O   0  0  0  0  0  0  0  0  0  0  0  0
   45.0580   29.8870   44.3800 C   0  0  0  0  0  0  0  0  0  0  0  0
   45.1040   29.7590   45.8590 C   0  0  1  0  0  0  0  0  0  0  0  0
   44.5270   28.3800   46.0590 C   0  0  0  0  0  0  0  0  0  0  0  0
   43.2410   28.5750   45.2470 C   0  0  0  0  0  0  0  0  0  0  0  0
   43.8010   29.2510   44.0830 N   0  0  0  0  0  0  0  0  0  0  0  0
   44.2280   30.3980   46.1440 H   0  0  0  0  0  0  0  0  0  0  0  0
   44.3160   28.1820   47.1220 H   0  0  0  0  0  0  0  0  0  0  0  0
   45.1370   27.5950   45.5770 H   0  0  0  0  0  0  0  0  0  0  0  0
   42.5230   29.1970   45.8030 H   0  0  0  0  0  0  0  0  0  0  0  0
   42.8410   27.5790   44.9680 H   0  0  0  0  0  0  0  0  0  0  0  0
   44.5210   28.0830   41.1790 O   0  0  0  0  0  0  0  0  0  0  0  0
   43.5110   28.1400   41.9220 C   0  0  0  0  0  0  0  0  0  0  0  0
   43.0670   29.2140   42.8150 C   0  0  1  0  0  3  0  0  0  0  0  0
   41.5950   28.9030   43.0960 C   0  0  0  0  0  3  0  0  0  0  0  0
   41.3460   29.1380   44.1630 H   0  0  0  0  0  0  0  0  0  0  0  0
   41.4140   27.4500   42.7840 C   0  0  0  0  0  3  0  0  0  0  0  0
   41.4020   26.9060   43.7530 H   0  0  0  0  0  0  0  0  0  0  0  0
   42.5880   27.0650   41.9920 N   0  0  0  0  0  0  0  0  0  0  0  0
   42.5980   26.0800   41.5920 H   0  0  0  0  0  0  0  0  0  0  0  0
  1 12  1  0  0  0  0
  1  6  1  0  0  0  0
  2  1  2  0  0  0  0
  3  2  1  0  0  0  0
  3  4  2  0  0  0  0
  4  5  1  0  0  0  0
  5  6  2  0  0  0  0
  5  7  1  0  0  0  0
  7 11  1  0  0  0  0
  7  8  1  0  0  0  0
  8 14  1  0  0  0  0
  8 15  1  0  0  0  0
  8  9  1  0  0  0  0
  9 17  1  0  0  0  0
  9 16  1  0  0  0  0
 10 19  1  0  0  0  0
 10 18  1  0  0  0  0
 10  9  1  0  0  0  0
 11 20  1  6  0  0  0
 11 10  1  0  0  0  0
 13  3  1  0  0  0  0
 21  2  1  0  0  0  0
 22 21  1  0  0  0  0
 23 21  1  0  0  0  0
 24 11  1  0  0  0  0
 25 26  2  0  0  0  0
 26 27  1  0  0  0  0
 27 28  1  0  0  0  0
 27 31  1  1  0  0  0
 27 24  1  0  0  0  0
 28 32  1  0  0  0  0
 29 34  1  0  0  0  0
 29 28  1  0  0  0  0
 30 26  1  0  0  0  0
 30 29  1  0  0  0  0
 33 28  1  0  0  0  0
 35 29  1  0  0  0  0
 36 37  2  0  0  0  0
 37 43  1  0  0  0  0
 37 38  1  0  0  0  0
 38 39  1  0  0  0  0
 38 30  1  1  0  0  0
 39 40  1  0  0  0  0
 41 39  1  0  0  0  0
 41 42  1  0  0  0  0
 43 41  1  0  0  0  0
 44 43  1  0  0  0  0
M  END
>  <minimizedAffinity>
-5.18772507

>  <minimizedRMSD>
0.260336041

$$$$
