
 OpenBabel03252509073D

 41 44  0  0  1  0  0  0  0  0999 V2000
   46.9160   31.6790   39.5000 C   0  0  0  0  0  0  0  0  0  0  0  0
   46.6220   32.9990   39.3340 C   0  0  0  0  0  0  0  0  0  0  0  0
   47.3200   33.7220   38.3850 C   0  0  0  0  0  0  0  0  0  0  0  0
   48.2910   33.1160   37.6230 C   0  0  0  0  0  0  0  0  0  0  0  0
   48.6040   31.7690   37.7760 C   0  0  0  0  0  0  0  0  0  0  0  0
   47.8970   31.0510   38.7340 C   0  0  0  0  0  0  0  0  0  0  0  0
   47.1170   34.7780   38.2220 H   0  0  0  0  0  0  0  0  0  0  0  0
   48.8210   33.7060   36.8890 H   0  0  0  0  0  0  0  0  0  0  0  0
   49.3610   31.2630   37.1920 H   0  0  0  0  0  0  0  0  0  0  0  0
   48.1330   30.0080   38.8580 H   0  0  0  0  0  0  0  0  0  0  0  0
   45.3710   35.9640   43.3520 Cl  0  0  0  0  0  0  0  0  0  0  0  0
   45.0230   35.0640   41.9050 C   0  0  0  0  0  0  0  0  0  0  0  0
   45.9980   34.4200   41.2340 C   0  0  0  0  0  0  0  0  0  0  0  0
   45.6130   33.7280   40.0900 C   0  0  0  0  0  0  0  0  0  0  0  0
   44.3130   33.6940   39.6560 C   0  0  0  0  0  0  0  0  0  0  0  0
   43.3470   34.3510   40.3510 C   0  0  0  0  0  0  0  0  0  0  0  0
   43.7140   35.0390   41.4850 C   0  0  0  0  0  0  0  0  0  0  0  0
   44.0280   33.1490   38.7580 H   0  0  0  0  0  0  0  0  0  0  0  0
   42.2970   34.3600   40.0560 H   0  0  0  0  0  0  0  0  0  0  0  0
   42.9320   35.5670   42.0440 H   0  0  0  0  0  0  0  0  0  0  0  0
   49.5290   35.5550   41.9300 C   0  0  0  0  0  0  0  0  0  0  0  0
   48.2200   35.5140   41.4440 C   0  0  0  0  0  0  0  0  0  0  0  0
   47.3530   34.4720   41.7250 C   0  0  0  0  0  0  0  0  0  0  0  0
   47.8700   33.4890   42.5080 N   0  0  0  0  0  0  0  0  0  0  0  0
   49.1300   33.5280   42.9760 C   0  0  0  0  0  0  0  0  0  0  0  0
   49.9460   34.5480   42.6890 N   0  0  0  0  0  0  0  0  0  0  0  0
   50.1320   36.4060   41.6600 H   0  0  0  0  0  0  0  0  0  0  0  0
   47.8340   36.3150   40.8190 H   0  0  0  0  0  0  0  0  0  0  0  0
   49.5510   32.7470   43.6030 H   0  0  0  0  0  0  0  0  0  0  0  0
   46.0820   30.7280   40.6230 S   0  0  0  0  0  0  0  0  0  0  0  0
   44.6690   30.4140   40.1820 O   0  0  0  0  0  0  0  0  0  0  0  0
   46.8040   29.3490   40.5370 O   0  0  0  0  0  0  0  0  0  0  0  0
   43.4840   31.7140   42.5150 O   0  0  0  0  0  0  0  0  0  0  0  0
   44.6030   31.2600   42.8630 C   0  0  0  0  0  0  0  0  0  0  0  0
   45.9620   30.9210   42.2820 C   0  0  1  0  0  3  0  0  0  0  0  0
   45.8270   29.4540   42.8400 C   0  0  0  0  0  3  0  0  0  0  0  0
   46.7380   28.8960   42.5810 H   0  0  0  0  0  0  0  0  0  0  0  0
   45.6970   29.7550   44.3050 C   0  0  0  0  0  3  0  0  0  0  0  0
   45.2440   28.9150   44.8630 H   0  0  0  0  0  0  0  0  0  0  0  0
   44.7790   30.9070   44.2540 N   0  0  0  0  0  0  0  0  0  0  0  0
   44.4040   31.2870   45.1680 H   0  0  0  0  0  0  0  0  0  0  0  0
  1 30  1  0  0  0  0
  2  1  1  0  0  0  0
  2 14  1  0  0  0  0
  3  2  2  0  0  0  0
  4  5  2  0  0  0  0
  4  3  1  0  0  0  0
  5  6  1  0  0  0  0
  6 10  1  0  0  0  0
  6  1  2  0  0  0  0
  7  3  1  0  0  0  0
  8  4  1  0  0  0  0
  9  5  1  0  0  0  0
 12 11  1  0  0  0  0
 13 23  1  0  0  0  0
 13 12  2  0  0  0  0
 14 13  1  0  0  0  0
 15 14  2  0  0  0  0
 15 16  1  0  0  0  0
 16 17  2  0  0  0  0
 17 12  1  0  0  0  0
 17 20  1  0  0  0  0
 18 15  1  0  0  0  0
 19 16  1  0  0  0  0
 21 26  1  0  0  0  0
 22 23  1  0  0  0  0
 22 21  2  0  0  0  0
 23 24  2  0  0  0  0
 24 25  1  0  0  0  0
 25 29  1  0  0  0  0
 26 25  2  0  0  0  0
 27 21  1  0  0  0  0
 28 22  1  0  0  0  0
 31 30  2  0  0  0  0
 32 30  2  0  0  0  0
 33 34  2  0  0  0  0
 34 40  1  0  0  0  0
 35 30  1  6  0  0  0
 35 36  1  0  0  0  0
 35 34  1  0  0  0  0
 36 38  1  0  0  0  0
 37 36  1  0  0  0  0
 38 39  1  0  0  0  0
 40 38  1  0  0  0  0
 40 41  1  0  0  0  0
M  END
>  <minimizedAffinity>
-5.0182066

>  <minimizedRMSD>
1.24002922

$$$$
