
 OpenBabel03252509073D

 41 44  0  0  1  0  0  0  0  0999 V2000
   47.0500   31.6360   39.5860 C   0  0  0  0  0  0  0  0  0  0  0  0
   46.7010   32.9300   39.3400 C   0  0  0  0  0  0  0  0  0  0  0  0
   47.3670   33.6220   38.3470 C   0  0  0  0  0  0  0  0  0  0  0  0
   48.3640   33.0120   37.6220 C   0  0  0  0  0  0  0  0  0  0  0  0
   48.7350   31.6910   37.8560 C   0  0  0  0  0  0  0  0  0  0  0  0
   48.0580   31.0050   38.8580 C   0  0  0  0  0  0  0  0  0  0  0  0
   47.1200   34.6560   38.1200 H   0  0  0  0  0  0  0  0  0  0  0  0
   48.8690   33.5780   36.8530 H   0  0  0  0  0  0  0  0  0  0  0  0
   49.5130   31.1840   37.3030 H   0  0  0  0  0  0  0  0  0  0  0  0
   48.3380   29.9820   39.0450 H   0  0  0  0  0  0  0  0  0  0  0  0
   45.3080   36.0200   43.2140 Cl  0  0  0  0  0  0  0  0  0  0  0  0
   45.0070   35.0510   41.8020 C   0  0  0  0  0  0  0  0  0  0  0  0
   46.0090   34.4090   41.1700 C   0  0  0  0  0  0  0  0  0  0  0  0
   45.6600   33.6590   40.0510 C   0  0  0  0  0  0  0  0  0  0  0  0
   44.3680   33.5710   39.6020 C   0  0  0  0  0  0  0  0  0  0  0  0
   43.3740   34.2270   40.2560 C   0  0  0  0  0  0  0  0  0  0  0  0
   43.7050   34.9720   41.3650 C   0  0  0  0  0  0  0  0  0  0  0  0
   44.1120   32.9810   38.7240 H   0  0  0  0  0  0  0  0  0  0  0  0
   42.3290   34.1940   39.9480 H   0  0  0  0  0  0  0  0  0  0  0  0
   42.9000   35.5000   41.8920 H   0  0  0  0  0  0  0  0  0  0  0  0
   49.5080   35.6550   41.8390 C   0  0  0  0  0  0  0  0  0  0  0  0
   48.2070   35.5570   41.3380 C   0  0  0  0  0  0  0  0  0  0  0  0
   47.3550   34.5200   41.6760 C   0  0  0  0  0  0  0  0  0  0  0  0
   47.8770   33.6030   42.5330 N   0  0  0  0  0  0  0  0  0  0  0  0
   49.1290   33.6970   43.0150 C   0  0  0  0  0  0  0  0  0  0  0  0
   49.9310   34.7100   42.6720 N   0  0  0  0  0  0  0  0  0  0  0  0
   50.0990   36.4970   41.5210 H   0  0  0  0  0  0  0  0  0  0  0  0
   47.8170   36.3050   40.6540 H   0  0  0  0  0  0  0  0  0  0  0  0
   49.5530   32.9680   43.7010 H   0  0  0  0  0  0  0  0  0  0  0  0
   46.2560   30.7200   40.7660 S   0  0  0  0  0  0  0  0  0  0  0  0
   44.8640   30.3090   40.3430 O   0  0  0  0  0  0  0  0  0  0  0  0
   47.0450   29.3750   40.7730 O   0  0  0  0  0  0  0  0  0  0  0  0
   43.6020   31.7050   42.5810 O   0  0  0  0  0  0  0  0  0  0  0  0
   44.7400   31.3280   42.9630 C   0  0  0  0  0  0  0  0  0  0  0  0
   46.1160   31.0160   42.4090 C   0  0  1  0  0  3  0  0  0  0  0  0
   46.0460   29.5830   43.0610 C   0  0  0  0  0  3  0  0  0  0  0  0
   46.9840   29.0530   42.8430 H   0  0  0  0  0  0  0  0  0  0  0  0
   45.8930   29.9730   44.5030 C   0  0  0  0  0  3  0  0  0  0  0  0
   45.4770   29.1500   45.1120 H   0  0  0  0  0  0  0  0  0  0  0  0
   44.9240   31.0740   44.3740 N   0  0  0  0  0  0  0  0  0  0  0  0
   44.5250   31.4950   45.2600 H   0  0  0  0  0  0  0  0  0  0  0  0
  1 30  1  0  0  0  0
  2  1  1  0  0  0  0
  2 14  1  0  0  0  0
  3  2  2  0  0  0  0
  4  5  2  0  0  0  0
  4  3  1  0  0  0  0
  5  6  1  0  0  0  0
  6 10  1  0  0  0  0
  6  1  2  0  0  0  0
  7  3  1  0  0  0  0
  8  4  1  0  0  0  0
  9  5  1  0  0  0  0
 12 11  1  0  0  0  0
 13 23  1  0  0  0  0
 13 12  2  0  0  0  0
 14 13  1  0  0  0  0
 15 14  2  0  0  0  0
 15 16  1  0  0  0  0
 16 17  2  0  0  0  0
 17 12  1  0  0  0  0
 17 20  1  0  0  0  0
 18 15  1  0  0  0  0
 19 16  1  0  0  0  0
 21 26  1  0  0  0  0
 22 23  1  0  0  0  0
 22 21  2  0  0  0  0
 23 24  2  0  0  0  0
 24 25  1  0  0  0  0
 25 29  1  0  0  0  0
 26 25  2  0  0  0  0
 27 21  1  0  0  0  0
 28 22  1  0  0  0  0
 30 32  2  0  0  0  0
 31 30  2  0  0  0  0
 33 34  2  0  0  0  0
 34 40  1  0  0  0  0
 35 30  1  6  0  0  0
 35 34  1  0  0  0  0
 35 36  1  0  0  0  0
 36 38  1  0  0  0  0
 37 36  1  0  0  0  0
 38 39  1  0  0  0  0
 40 38  1  0  0  0  0
 40 41  1  0  0  0  0
M  END
>  <minimizedAffinity>
-4.98223734

>  <minimizedRMSD>
1.25540245

$$$$
