
 OpenBabel03252509073D

 41 44  0  0  1  0  0  0  0  0999 V2000
   47.7830   31.8680   38.8900 C   0  0  0  0  0  0  0  0  0  0  0  0
   47.2550   33.1240   38.8700 C   0  0  0  0  0  0  0  0  0  0  0  0
   47.8350   34.0770   38.0550 C   0  0  0  0  0  0  0  0  0  0  0  0
   48.9250   33.7590   37.2790 C   0  0  0  0  0  0  0  0  0  0  0  0
   49.4780   32.4820   37.2830 C   0  0  0  0  0  0  0  0  0  0  0  0
   48.8870   31.5320   38.1080 C   0  0  0  0  0  0  0  0  0  0  0  0
   47.4460   35.0910   38.0100 H   0  0  0  0  0  0  0  0  0  0  0  0
   49.3590   34.5250   36.6510 H   0  0  0  0  0  0  0  0  0  0  0  0
   50.3330   32.2010   36.6840 H   0  0  0  0  0  0  0  0  0  0  0  0
   49.3080   30.5400   38.1170 H   0  0  0  0  0  0  0  0  0  0  0  0
   45.3510   35.2450   43.1570 Cl  0  0  0  0  0  0  0  0  0  0  0  0
   45.2210   34.5060   41.5880 C   0  0  0  0  0  0  0  0  0  0  0  0
   46.3200   34.1400   40.8970 C   0  0  0  0  0  0  0  0  0  0  0  0
   46.1060   33.5550   39.6530 C   0  0  0  0  0  0  0  0  0  0  0  0
   44.8490   33.3570   39.1430 C   0  0  0  0  0  0  0  0  0  0  0  0
   43.7570   33.7340   39.8590 C   0  0  0  0  0  0  0  0  0  0  0  0
   43.9540   34.3120   41.0920 C   0  0  0  0  0  0  0  0  0  0  0  0
   44.6980   32.8990   38.1670 H   0  0  0  0  0  0  0  0  0  0  0  0
   42.7330   33.6010   39.5070 H   0  0  0  0  0  0  0  0  0  0  0  0
   43.0700   34.6150   41.6670 H   0  0  0  0  0  0  0  0  0  0  0  0
   49.5750   35.7540   41.9140 C   0  0  0  0  0  0  0  0  0  0  0  0
   48.3130   35.5540   41.3510 C   0  0  0  0  0  0  0  0  0  0  0  0
   47.6250   34.3580   41.4700 C   0  0  0  0  0  0  0  0  0  0  0  0
   48.2690   33.3920   42.1760 N   0  0  0  0  0  0  0  0  0  0  0  0
   49.4850   33.5850   42.7170 C   0  0  0  0  0  0  0  0  0  0  0  0
   50.1270   34.7500   42.5870 N   0  0  0  0  0  0  0  0  0  0  0  0
   50.0350   36.7170   41.7710 H   0  0  0  0  0  0  0  0  0  0  0  0
   47.8220   36.3450   40.7910 H   0  0  0  0  0  0  0  0  0  0  0  0
   50.0060   32.8170   43.2840 H   0  0  0  0  0  0  0  0  0  0  0  0
   47.1050   30.6450   39.8430 S   0  0  0  0  0  0  0  0  0  0  0  0
   46.1510   31.1830   40.8850 O   0  0  0  0  0  0  0  0  0  0  0  0
   46.1710   29.8890   38.8510 O   0  0  0  0  0  0  0  0  0  0  0  0
   48.9750   28.1600   38.5670 O   0  0  0  0  0  0  0  0  0  0  0  0
   48.7560   28.4650   39.7680 C   0  0  0  0  0  0  0  0  0  0  0  0
   47.8660   29.3630   40.6050 C   0  0  1  0  0  3  0  0  0  0  0  0
   49.1450   30.0010   41.2660 C   0  0  0  0  0  3  0  0  0  0  0  0
   48.8200   30.7500   42.0030 H   0  0  0  0  0  0  0  0  0  0  0  0
   49.7510   28.7700   41.8790 C   0  0  0  0  0  3  0  0  0  0  0  0
   50.8250   28.9040   42.1000 H   0  0  0  0  0  0  0  0  0  0  0  0
   49.5530   27.8100   40.7800 N   0  0  0  0  0  0  0  0  0  0  0  0
   49.9870   26.8480   40.8750 H   0  0  0  0  0  0  0  0  0  0  0  0
  1 30  1  0  0  0  0
  2  1  1  0  0  0  0
  2 14  1  0  0  0  0
  3  2  2  0  0  0  0
  4  5  2  0  0  0  0
  4  3  1  0  0  0  0
  5  6  1  0  0  0  0
  6 10  1  0  0  0  0
  6  1  2  0  0  0  0
  7  3  1  0  0  0  0
  8  4  1  0  0  0  0
  9  5  1  0  0  0  0
 12 11  1  0  0  0  0
 13 23  1  0  0  0  0
 13 12  2  0  0  0  0
 14 13  1  0  0  0  0
 15 14  2  0  0  0  0
 15 16  1  0  0  0  0
 16 17  2  0  0  0  0
 17 12  1  0  0  0  0
 17 20  1  0  0  0  0
 18 15  1  0  0  0  0
 19 16  1  0  0  0  0
 21 26  1  0  0  0  0
 22 23  1  0  0  0  0
 22 21  2  0  0  0  0
 23 24  2  0  0  0  0
 24 25  1  0  0  0  0
 25 29  1  0  0  0  0
 26 25  2  0  0  0  0
 27 21  1  0  0  0  0
 28 22  1  0  0  0  0
 30 31  2  0  0  0  0
 32 30  2  0  0  0  0
 33 34  2  0  0  0  0
 34 35  1  0  0  0  0
 34 40  1  0  0  0  0
 35 30  1  6  0  0  0
 35 36  1  0  0  0  0
 36 38  1  0  0  0  0
 36 37  1  0  0  0  0
 38 39  1  0  0  0  0
 40 41  1  0  0  0  0
 40 38  1  0  0  0  0
M  END
>  <minimizedAffinity>
-4.52654266

>  <minimizedRMSD>
2.64454079

$$$$
