
 OpenBabel03252506333D

 33 35  0  0  1  0  0  0  0  0999 V2000
   44.4780   35.7410   45.0140 C   0  0  0  0  0  0  0  0  0  0  0  0
   45.1140   35.7000   43.7570 C   0  0  0  0  0  0  0  0  0  0  0  0
   46.0060   34.7060   43.4930 C   0  0  0  0  0  0  0  0  0  0  0  0
   46.2310   33.8010   44.4790 N   0  0  0  0  0  0  0  0  0  0  0  0
   45.6210   33.8500   45.6700 C   0  0  0  0  0  0  0  0  0  0  0  0
   44.7500   34.8110   45.9430 N   0  0  0  0  0  0  0  0  0  0  0  0
   45.9440   32.8390   46.6160 N   0  0  0  0  0  0  0  0  0  0  0  0
   45.1610   32.5730   47.8280 C   0  0  0  0  0  0  0  0  0  0  0  0
   46.2470   32.2570   48.8330 C   0  0  0  0  0  0  0  0  0  0  0  0
   47.5180   32.0780   48.0620 C   0  0  0  0  0  0  0  0  0  0  0  0
   47.0270   31.8910   46.6330 C   0  0  1  0  0  0  0  0  0  0  0  0
   43.7510   36.4920   45.3260 H   0  0  0  0  0  0  0  0  0  0  0  0
   46.4910   34.6760   42.5320 H   0  0  0  0  0  0  0  0  0  0  0  0
   44.6060   31.6300   47.6230 H   0  0  0  0  0  0  0  0  0  0  0  0
   44.5130   33.4080   48.1040 H   0  0  0  0  0  0  0  0  0  0  0  0
   46.2760   33.0720   49.5880 H   0  0  0  0  0  0  0  0  0  0  0  0
   45.9900   31.3250   49.4140 H   0  0  0  0  0  0  0  0  0  0  0  0
   48.0080   31.1310   48.3740 H   0  0  0  0  0  0  0  0  0  0  0  0
   48.1570   32.9540   48.1720 H   0  0  0  0  0  0  0  0  0  0  0  0
   47.8450   32.1740   45.9400 H   0  0  0  0  0  0  0  0  0  0  0  0
   44.7590   36.7340   42.8240 N   0  0  0  0  0  0  0  0  0  0  0  0
   44.0580   36.5830   42.0490 H   0  0  0  0  0  0  0  0  0  0  0  0
   45.2010   37.6770   42.9010 H   0  0  0  0  0  0  0  0  0  0  0  0
   46.4800   30.2060   46.4410 S   0  0  0  0  0  0  0  0  0  0  0  0
   45.5490   27.1960   45.3190 O   0  0  0  0  0  0  0  0  0  0  0  0
   45.7030   28.2510   44.6550 C   0  0  0  0  0  0  0  0  0  0  0  0
   46.2110   29.6280   44.8020 C   0  0  1  0  0  3  0  0  0  0  0  0
   45.2550   30.4100   43.9480 C   0  0  0  0  0  3  0  0  0  0  0  0
   45.6290   31.4090   43.6530 H   0  0  0  0  0  0  0  0  0  0  0  0
   45.3400   29.5630   42.6690 C   0  0  0  0  0  3  0  0  0  0  0  0
   44.5410   29.7630   41.9620 H   0  0  0  0  0  0  0  0  0  0  0  0
   45.2760   28.2280   43.2770 N   0  0  0  0  0  0  0  0  0  0  0  0
   44.9440   27.4400   42.6780 H   0  0  0  0  0  0  0  0  0  0  0  0
  1 12  1  0  0  0  0
  1  6  1  0  0  0  0
  2  1  2  0  0  0  0
  3  2  1  0  0  0  0
  3  4  2  0  0  0  0
  4  5  1  0  0  0  0
  5  6  2  0  0  0  0
  5  7  1  0  0  0  0
  7 11  1  0  0  0  0
  7  8  1  0  0  0  0
  8 15  1  0  0  0  0
  8  9  1  0  0  0  0
  9 17  1  0  0  0  0
  9 16  1  0  0  0  0
 10 19  1  0  0  0  0
 10 18  1  0  0  0  0
 10  9  1  0  0  0  0
 11 20  1  6  0  0  0
 11 10  1  0  0  0  0
 13  3  1  0  0  0  0
 14  8  1  0  0  0  0
 21 23  1  0  0  0  0
 21  2  1  0  0  0  0
 22 21  1  0  0  0  0
 24 11  1  0  0  0  0
 26 27  1  0  0  0  0
 26 25  2  0  0  0  0
 27 24  1  1  0  0  0
 28 27  1  0  0  0  0
 29 28  1  0  0  0  0
 30 32  1  0  0  0  0
 30 28  1  0  0  0  0
 31 30  1  0  0  0  0
 32 26  1  0  0  0  0
 33 32  1  0  0  0  0
M  END
>  <minimizedAffinity>
-4.83198118

>  <minimizedRMSD>
0.429497451

$$$$
