
 OpenBabel03252506333D

 33 35  0  0  1  0  0  0  0  0999 V2000
   44.4980   35.7770   45.0290 C   0  0  0  0  0  0  0  0  0  0  0  0
   45.0800   35.6990   43.7480 C   0  0  0  0  0  0  0  0  0  0  0  0
   45.9180   34.6650   43.4580 C   0  0  0  0  0  0  0  0  0  0  0  0
   46.1420   33.7580   44.4420 N   0  0  0  0  0  0  0  0  0  0  0  0
   45.5840   33.8420   45.6550 C   0  0  0  0  0  0  0  0  0  0  0  0
   44.7660   34.8420   45.9540 N   0  0  0  0  0  0  0  0  0  0  0  0
   45.8990   32.8250   46.5970 N   0  0  0  0  0  0  0  0  0  0  0  0
   45.1550   32.6020   47.8410 C   0  0  0  0  0  0  0  0  0  0  0  0
   46.2650   32.2450   48.8050 C   0  0  0  0  0  0  0  0  0  0  0  0
   47.4960   32.0060   47.9860 C   0  0  0  0  0  0  0  0  0  0  0  0
   46.9400   31.8310   46.5790 C   0  0  1  0  0  0  0  0  0  0  0  0
   43.8160   36.5610   45.3630 H   0  0  0  0  0  0  0  0  0  0  0  0
   46.3620   34.6070   42.4790 H   0  0  0  0  0  0  0  0  0  0  0  0
   44.5520   31.6820   47.6670 H   0  0  0  0  0  0  0  0  0  0  0  0
   44.5550   33.4650   48.1360 H   0  0  0  0  0  0  0  0  0  0  0  0
   46.3590   33.0640   49.5520 H   0  0  0  0  0  0  0  0  0  0  0  0
   45.9920   31.3300   49.4040 H   0  0  0  0  0  0  0  0  0  0  0  0
   47.9560   31.0410   48.2880 H   0  0  0  0  0  0  0  0  0  0  0  0
   48.1760   32.8550   48.0640 H   0  0  0  0  0  0  0  0  0  0  0  0
   47.7420   32.0730   45.8520 H   0  0  0  0  0  0  0  0  0  0  0  0
   44.7340   36.7410   42.8210 N   0  0  0  0  0  0  0  0  0  0  0  0
   43.9970   36.6150   42.0750 H   0  0  0  0  0  0  0  0  0  0  0  0
   45.2190   37.6640   42.8720 H   0  0  0  0  0  0  0  0  0  0  0  0
   46.3140   30.1690   46.4240 S   0  0  0  0  0  0  0  0  0  0  0  0
   43.5740   28.7920   45.0880 O   0  0  0  0  0  0  0  0  0  0  0  0
   44.6400   29.1090   44.5030 C   0  0  0  0  0  0  0  0  0  0  0  0
   46.0090   29.5720   44.7980 C   0  0  1  0  0  3  0  0  0  0  0  0
   46.2750   30.5170   43.6610 C   0  0  0  0  0  3  0  0  0  0  0  0
   47.3470   30.7370   43.4990 H   0  0  0  0  0  0  0  0  0  0  0  0
   45.8790   29.5950   42.4970 C   0  0  0  0  0  3  0  0  0  0  0  0
   45.7320   30.1210   41.5580 H   0  0  0  0  0  0  0  0  0  0  0  0
   44.6480   29.0320   43.0620 N   0  0  0  0  0  0  0  0  0  0  0  0
   43.9400   28.6520   42.3960 H   0  0  0  0  0  0  0  0  0  0  0  0
  1 12  1  0  0  0  0
  1  6  1  0  0  0  0
  2  1  2  0  0  0  0
  3  2  1  0  0  0  0
  3  4  2  0  0  0  0
  4  5  1  0  0  0  0
  5  6  2  0  0  0  0
  5  7  1  0  0  0  0
  7  8  1  0  0  0  0
  8 15  1  0  0  0  0
  8  9  1  0  0  0  0
  9 17  1  0  0  0  0
  9 16  1  0  0  0  0
 10 19  1  0  0  0  0
 10 18  1  0  0  0  0
 10  9  1  0  0  0  0
 11 20  1  6  0  0  0
 11  7  1  0  0  0  0
 11 10  1  0  0  0  0
 13  3  1  0  0  0  0
 14  8  1  0  0  0  0
 21 23  1  0  0  0  0
 21  2  1  0  0  0  0
 22 21  1  0  0  0  0
 24 11  1  0  0  0  0
 26 27  1  0  0  0  0
 26 25  2  0  0  0  0
 27 24  1  1  0  0  0
 28 27  1  0  0  0  0
 29 28  1  0  0  0  0
 30 32  1  0  0  0  0
 30 28  1  0  0  0  0
 31 30  1  0  0  0  0
 32 26  1  0  0  0  0
 33 32  1  0  0  0  0
M  END
>  <minimizedAffinity>
-4.91434717

>  <minimizedRMSD>
0.511275411

$$$$
