
 OpenBabel03252506333D

 33 35  0  0  1  0  0  0  0  0999 V2000
   44.4920   35.6120   45.0930 C   0  0  0  0  0  0  0  0  0  0  0  0
   45.1300   35.5800   43.8380 C   0  0  0  0  0  0  0  0  0  0  0  0
   46.0400   34.5990   43.5770 C   0  0  0  0  0  0  0  0  0  0  0  0
   46.2770   33.7000   44.5650 N   0  0  0  0  0  0  0  0  0  0  0  0
   45.6650   33.7420   45.7540 C   0  0  0  0  0  0  0  0  0  0  0  0
   44.7770   34.6880   46.0240 N   0  0  0  0  0  0  0  0  0  0  0  0
   46.0020   32.7380   46.7030 N   0  0  0  0  0  0  0  0  0  0  0  0
   45.2220   32.4600   47.9140 C   0  0  0  0  0  0  0  0  0  0  0  0
   46.3110   32.1640   48.9210 C   0  0  0  0  0  0  0  0  0  0  0  0
   47.5860   32.0050   48.1530 C   0  0  0  0  0  0  0  0  0  0  0  0
   47.1010   31.8080   46.7230 C   0  0  1  0  0  0  0  0  0  0  0  0
   43.7510   36.3510   45.4020 H   0  0  0  0  0  0  0  0  0  0  0  0
   46.5260   34.5760   42.6170 H   0  0  0  0  0  0  0  0  0  0  0  0
   44.6830   31.5080   47.7090 H   0  0  0  0  0  0  0  0  0  0  0  0
   44.5600   33.2840   48.1870 H   0  0  0  0  0  0  0  0  0  0  0  0
   46.3250   32.9800   49.6750 H   0  0  0  0  0  0  0  0  0  0  0  0
   46.0690   31.2290   49.5030 H   0  0  0  0  0  0  0  0  0  0  0  0
   48.0910   31.0670   48.4680 H   0  0  0  0  0  0  0  0  0  0  0  0
   48.2100   32.8920   48.2630 H   0  0  0  0  0  0  0  0  0  0  0  0
   47.9160   32.1030   46.0310 H   0  0  0  0  0  0  0  0  0  0  0  0
   44.7600   36.6060   42.9020 N   0  0  0  0  0  0  0  0  0  0  0  0
   44.0630   36.4420   42.1260 H   0  0  0  0  0  0  0  0  0  0  0  0
   45.1870   37.5560   42.9780 H   0  0  0  0  0  0  0  0  0  0  0  0
   46.5830   30.1130   46.5330 S   0  0  0  0  0  0  0  0  0  0  0  0
   46.6940   29.4490   43.2570 O   0  0  0  0  0  0  0  0  0  0  0  0
   45.6910   29.4320   44.0120 C   0  0  0  0  0  0  0  0  0  0  0  0
   45.2900   29.7900   45.3860 C   0  0  1  0  0  3  0  0  0  0  0  0
   44.3250   28.6910   45.7320 C   0  0  0  0  0  3  0  0  0  0  0  0
   43.6620   28.9260   46.5850 H   0  0  0  0  0  0  0  0  0  0  0  0
   43.4230   28.7760   44.4910 C   0  0  0  0  0  3  0  0  0  0  0  0
   42.7840   27.9080   44.3600 H   0  0  0  0  0  0  0  0  0  0  0  0
   44.4630   28.9090   43.4640 N   0  0  0  0  0  0  0  0  0  0  0  0
   44.2180   28.6240   42.4900 H   0  0  0  0  0  0  0  0  0  0  0  0
  1 12  1  0  0  0  0
  1  6  1  0  0  0  0
  2  1  2  0  0  0  0
  3  2  1  0  0  0  0
  3  4  2  0  0  0  0
  4  5  1  0  0  0  0
  5  6  2  0  0  0  0
  5  7  1  0  0  0  0
  7 11  1  0  0  0  0
  7  8  1  0  0  0  0
  8 15  1  0  0  0  0
  8  9  1  0  0  0  0
  9 17  1  0  0  0  0
  9 16  1  0  0  0  0
 10 19  1  0  0  0  0
 10 18  1  0  0  0  0
 10  9  1  0  0  0  0
 11 20  1  6  0  0  0
 11 10  1  0  0  0  0
 13  3  1  0  0  0  0
 14  8  1  0  0  0  0
 21 23  1  0  0  0  0
 21  2  1  0  0  0  0
 22 21  1  0  0  0  0
 24 11  1  0  0  0  0
 25 26  2  0  0  0  0
 26 27  1  0  0  0  0
 27 28  1  0  0  0  0
 27 24  1  1  0  0  0
 28 29  1  0  0  0  0
 30 28  1  0  0  0  0
 31 30  1  0  0  0  0
 32 26  1  0  0  0  0
 32 30  1  0  0  0  0
 33 32  1  0  0  0  0
M  END
>  <minimizedAffinity>
-5.0391736

>  <minimizedRMSD>
0.669878066

$$$$
