
 OpenBabel03252506353D

 33 35  0  0  1  0  0  0  0  0999 V2000
   38.8460   32.0450   39.0050 C   0  0  0  0  0  0  0  0  0  0  0  0
   39.4920   31.4460   37.9050 C   0  0  0  0  0  0  0  0  0  0  0  0
   39.7090   30.1020   37.9110 C   0  0  0  0  0  0  0  0  0  0  0  0
   39.2810   29.4120   38.9980 N   0  0  0  0  0  0  0  0  0  0  0  0
   38.6700   29.9920   40.0370 C   0  0  0  0  0  0  0  0  0  0  0  0
   38.4500   31.2990   40.0480 N   0  0  0  0  0  0  0  0  0  0  0  0
   38.2690   29.1550   41.1150 N   0  0  0  0  0  0  0  0  0  0  0  0
   37.3370   29.5690   42.1700 C   0  0  0  0  0  0  0  0  0  0  0  0
   37.9440   28.9130   43.3910 C   0  0  0  0  0  0  0  0  0  0  0  0
   38.9820   27.9530   42.9020 C   0  0  0  0  0  0  0  0  0  0  0  0
   38.6370   27.7990   41.4270 C   0  0  1  0  0  0  0  0  0  0  0  0
   38.6250   33.1090   39.1010 H   0  0  0  0  0  0  0  0  0  0  0  0
   40.2020   29.6460   37.0690 H   0  0  0  0  0  0  0  0  0  0  0  0
   36.3810   29.0440   41.9450 H   0  0  0  0  0  0  0  0  0  0  0  0
   37.2320   30.6530   42.2390 H   0  0  0  0  0  0  0  0  0  0  0  0
   38.3320   29.7110   44.0620 H   0  0  0  0  0  0  0  0  0  0  0  0
   37.1500   28.3830   43.9920 H   0  0  0  0  0  0  0  0  0  0  0  0
   38.8270   26.9650   43.3870 H   0  0  0  0  0  0  0  0  0  0  0  0
   39.9820   28.3600   43.0560 H   0  0  0  0  0  0  0  0  0  0  0  0
   39.5480   27.4740   40.8840 H   0  0  0  0  0  0  0  0  0  0  0  0
   39.8770   32.3220   36.8320 N   0  0  0  0  0  0  0  0  0  0  0  0
   39.3030   32.4270   35.9520 H   0  0  0  0  0  0  0  0  0  0  0  0
   40.7540   32.8820   36.9100 H   0  0  0  0  0  0  0  0  0  0  0  0
   37.2760   26.6570   41.2830 S   0  0  0  0  0  0  0  0  0  0  0  0
   39.1390   24.3550   42.8350 O   0  0  0  0  0  0  0  0  0  0  0  0
   38.4390   24.2090   41.8030 C   0  0  0  0  0  0  0  0  0  0  0  0
   37.6580   25.0010   40.8330 C   0  0  1  0  0  3  0  0  0  0  0  0
   36.5030   24.0870   40.5370 C   0  0  0  0  0  3  0  0  0  0  0  0
   35.9620   24.3340   39.6030 H   0  0  0  0  0  0  0  0  0  0  0  0
   37.2950   22.8110   40.2100 C   0  0  0  0  0  3  0  0  0  0  0  0
   36.6870   21.9130   40.2090 H   0  0  0  0  0  0  0  0  0  0  0  0
   38.2720   22.8650   41.3040 N   0  0  0  0  0  0  0  0  0  0  0  0
   38.7240   21.9690   41.5940 H   0  0  0  0  0  0  0  0  0  0  0  0
  1 12  1  0  0  0  0
  1  6  1  0  0  0  0
  2  3  1  0  0  0  0
  2  1  2  0  0  0  0
  3  4  2  0  0  0  0
  4  5  1  0  0  0  0
  5  6  2  0  0  0  0
  5  7  1  0  0  0  0
  7 11  1  0  0  0  0
  7  8  1  0  0  0  0
  8 15  1  0  0  0  0
  8  9  1  0  0  0  0
  9 17  1  0  0  0  0
  9 16  1  0  0  0  0
 10 19  1  0  0  0  0
 10 18  1  0  0  0  0
 10  9  1  0  0  0  0
 11 20  1  6  0  0  0
 11 10  1  0  0  0  0
 13  3  1  0  0  0  0
 14  8  1  0  0  0  0
 21 23  1  0  0  0  0
 21  2  1  0  0  0  0
 22 21  1  0  0  0  0
 24 11  1  0  0  0  0
 26 25  2  0  0  0  0
 27 24  1  1  0  0  0
 27 26  1  0  0  0  0
 28 27  1  0  0  0  0
 29 28  1  0  0  0  0
 30 28  1  0  0  0  0
 30 32  1  0  0  0  0
 31 30  1  0  0  0  0
 32 33  1  0  0  0  0
 32 26  1  0  0  0  0
M  END
>  <minimizedAffinity>
-5.52314997

$$$$

 OpenBabel03252506353D

 33 35  0  0  1  0  0  0  0  0999 V2000
   37.1950   24.6220   41.8770 C   0  0  0  0  0  0  0  0  0  0  0  0
   38.0190   23.9620   40.9440 C   0  0  0  0  0  0  0  0  0  0  0  0
   38.5820   24.6770   39.9300 C   0  0  0  0  0  0  0  0  0  0  0  0
   38.3050   26.0040   39.8830 N   0  0  0  0  0  0  0  0  0  0  0  0
   37.5200   26.6200   40.7750 C   0  0  0  0  0  0  0  0  0  0  0  0
   36.9650   25.9390   41.7690 N   0  0  0  0  0  0  0  0  0  0  0  0
   37.3120   28.0170   40.6150 N   0  0  0  0  0  0  0  0  0  0  0  0
   36.7410   28.8840   41.6520 C   0  0  0  0  0  0  0  0  0  0  0  0
   35.8830   29.8210   40.8310 C   0  0  0  0  0  0  0  0  0  0  0  0
   36.2550   29.6120   39.3960 C   0  0  0  0  0  0  0  0  0  0  0  0
   37.5840   28.8760   39.4920 C   0  0  1  0  0  0  0  0  0  0  0  0
   36.6970   24.1450   42.7230 H   0  0  0  0  0  0  0  0  0  0  0  0
   39.2120   24.1710   39.2180 H   0  0  0  0  0  0  0  0  0  0  0  0
   37.5960   29.4720   42.0520 H   0  0  0  0  0  0  0  0  0  0  0  0
   36.2010   28.3250   42.4190 H   0  0  0  0  0  0  0  0  0  0  0  0
   34.8150   29.6180   41.0650 H   0  0  0  0  0  0  0  0  0  0  0  0
   36.0540   30.8910   41.1440 H   0  0  0  0  0  0  0  0  0  0  0  0
   36.4510   30.5970   38.9200 H   0  0  0  0  0  0  0  0  0  0  0  0
   35.4900   29.0280   38.8850 H   0  0  0  0  0  0  0  0  0  0  0  0
   37.7390   28.3060   38.5530 H   0  0  0  0  0  0  0  0  0  0  0  0
   38.2120   22.5520   41.1410 N   0  0  0  0  0  0  0  0  0  0  0  0
   39.0730   22.1570   41.6070 H   0  0  0  0  0  0  0  0  0  0  0  0
   37.4840   21.8780   40.8170 H   0  0  0  0  0  0  0  0  0  0  0  0
   38.8670   30.0680   39.8220 S   0  0  0  0  0  0  0  0  0  0  0  0
   37.6380   31.9020   37.3110 O   0  0  0  0  0  0  0  0  0  0  0  0
   38.8410   31.6370   37.5530 C   0  0  0  0  0  0  0  0  0  0  0  0
   39.6690   30.7930   38.4360 C   0  0  1  0  0  3  0  0  0  0  0  0
   40.8460   31.6860   38.7140 C   0  0  0  0  0  3  0  0  0  0  0  0
   41.7370   31.1490   39.0900 H   0  0  0  0  0  0  0  0  0  0  0  0
   41.1940   32.0670   37.2660 C   0  0  0  0  0  3  0  0  0  0  0  0
   41.8600   32.9200   37.1920 H   0  0  0  0  0  0  0  0  0  0  0  0
   39.8390   32.3260   36.7680 N   0  0  0  0  0  0  0  0  0  0  0  0
   39.7390   32.9520   35.9380 H   0  0  0  0  0  0  0  0  0  0  0  0
  1 12  1  0  0  0  0
  2 21  1  0  0  0  0
  2  1  2  0  0  0  0
  3  2  1  0  0  0  0
  4  3  2  0  0  0  0
  4  5  1  0  0  0  0
  5  6  2  0  0  0  0
  6  1  1  0  0  0  0
  7  5  1  0  0  0  0
  7  8  1  0  0  0  0
  8 14  1  0  0  0  0
  8 15  1  0  0  0  0
  9 16  1  0  0  0  0
  9 17  1  0  0  0  0
  9  8  1  0  0  0  0
 10 11  1  0  0  0  0
 10  9  1  0  0  0  0
 11 20  1  6  0  0  0
 11 24  1  0  0  0  0
 11  7  1  0  0  0  0
 13  3  1  0  0  0  0
 18 10  1  0  0  0  0
 19 10  1  0  0  0  0
 21 22  1  0  0  0  0
 23 21  1  0  0  0  0
 25 26  2  0  0  0  0
 26 27  1  0  0  0  0
 27 28  1  0  0  0  0
 27 24  1  1  0  0  0
 28 29  1  0  0  0  0
 30 28  1  0  0  0  0
 31 30  1  0  0  0  0
 32 30  1  0  0  0  0
 32 26  1  0  0  0  0
 33 32  1  0  0  0  0
M  END
>  <minimizedAffinity>
-5.14987278

$$$$

 OpenBabel03252506353D

 33 35  0  0  1  0  0  0  0  0999 V2000
   38.5960   27.5090   43.4840 C   0  0  0  0  0  0  0  0  0  0  0  0
   37.3790   28.1630   43.2080 C   0  0  0  0  0  0  0  0  0  0  0  0
   37.4010   29.3840   42.6050 C   0  0  0  0  0  0  0  0  0  0  0  0
   38.6180   29.9030   42.3050 N   0  0  0  0  0  0  0  0  0  0  0  0
   39.7680   29.2720   42.5730 C   0  0  0  0  0  0  0  0  0  0  0  0
   39.7650   28.0830   43.1580 N   0  0  0  0  0  0  0  0  0  0  0  0
   40.9770   29.9240   42.2050 N   0  0  0  0  0  0  0  0  0  0  0  0
   42.2820   29.2570   42.1500 C   0  0  0  0  0  0  0  0  0  0  0  0
   43.2020   30.3350   42.6790 C   0  0  0  0  0  0  0  0  0  0  0  0
   42.4120   31.6060   42.7130 C   0  0  0  0  0  0  0  0  0  0  0  0
   41.2180   31.2900   41.8220 C   0  0  1  0  0  0  0  0  0  0  0  0
   38.6900   26.5320   43.9610 H   0  0  0  0  0  0  0  0  0  0  0  0
   36.4700   29.8830   42.3950 H   0  0  0  0  0  0  0  0  0  0  0  0
   42.5040   29.1250   41.0670 H   0  0  0  0  0  0  0  0  0  0  0  0
   42.3030   28.3220   42.7150 H   0  0  0  0  0  0  0  0  0  0  0  0
   43.5950   30.0100   43.6660 H   0  0  0  0  0  0  0  0  0  0  0  0
   44.1110   30.4390   42.0190 H   0  0  0  0  0  0  0  0  0  0  0  0
   42.9940   32.4140   42.2190 H   0  0  0  0  0  0  0  0  0  0  0  0
   42.1180   31.8450   43.7350 H   0  0  0  0  0  0  0  0  0  0  0  0
   40.3820   31.9610   42.1040 H   0  0  0  0  0  0  0  0  0  0  0  0
   36.1770   27.4720   43.5880 N   0  0  0  0  0  0  0  0  0  0  0  0
   35.5980   26.9210   42.8980 H   0  0  0  0  0  0  0  0  0  0  0  0
   35.8510   27.5050   44.5780 H   0  0  0  0  0  0  0  0  0  0  0  0
   41.7250   31.4570   40.1210 S   0  0  0  0  0  0  0  0  0  0  0  0
   41.9900   32.7730   37.0590 O   0  0  0  0  0  0  0  0  0  0  0  0
   40.9510   32.3650   37.6330 C   0  0  0  0  0  0  0  0  0  0  0  0
   40.4860   31.8910   38.9510 C   0  0  1  0  0  3  0  0  0  0  0  0
   39.4960   30.8250   38.5730 C   0  0  0  0  0  3  0  0  0  0  0  0
   38.7940   30.5570   39.3850 H   0  0  0  0  0  0  0  0  0  0  0  0
   38.6560   31.6340   37.5720 C   0  0  0  0  0  3  0  0  0  0  0  0
   38.0170   31.0200   36.9480 H   0  0  0  0  0  0  0  0  0  0  0  0
   39.7450   32.2910   36.8410 N   0  0  0  0  0  0  0  0  0  0  0  0
   39.5470   32.6220   35.8710 H   0  0  0  0  0  0  0  0  0  0  0  0
  1 12  1  0  0  0  0
  2  1  1  0  0  0  0
  2 21  1  0  0  0  0
  3  2  2  0  0  0  0
  4  5  2  0  0  0  0
  4  3  1  0  0  0  0
  5  6  1  0  0  0  0
  6  1  2  0  0  0  0
  7  5  1  0  0  0  0
  8  7  1  0  0  0  0
  8  9  1  0  0  0  0
  8 15  1  0  0  0  0
  9 10  1  0  0  0  0
  9 16  1  0  0  0  0
 10 19  1  0  0  0  0
 11 20  1  1  0  0  0
 11  7  1  0  0  0  0
 11 10  1  0  0  0  0
 13  3  1  0  0  0  0
 14  8  1  0  0  0  0
 17  9  1  0  0  0  0
 18 10  1  0  0  0  0
 21 23  1  0  0  0  0
 22 21  1  0  0  0  0
 24 11  1  0  0  0  0
 25 26  2  0  0  0  0
 26 27  1  0  0  0  0
 27 24  1  1  0  0  0
 28 27  1  0  0  0  0
 28 29  1  0  0  0  0
 30 28  1  0  0  0  0
 31 30  1  0  0  0  0
 32 30  1  0  0  0  0
 32 26  1  0  0  0  0
 33 32  1  0  0  0  0
M  END
>  <minimizedAffinity>
-5.14510202

$$$$

 OpenBabel03252506353D

 33 35  0  0  1  0  0  0  0  0999 V2000
   38.9640   24.0170   41.8830 C   0  0  0  0  0  0  0  0  0  0  0  0
   38.0690   23.5120   40.9190 C   0  0  0  0  0  0  0  0  0  0  0  0
   37.2810   24.3780   40.2230 C   0  0  0  0  0  0  0  0  0  0  0  0
   37.4100   25.6970   40.5120 N   0  0  0  0  0  0  0  0  0  0  0  0
   38.2630   26.1650   41.4310 C   0  0  0  0  0  0  0  0  0  0  0  0
   39.0380   25.3370   42.1160 N   0  0  0  0  0  0  0  0  0  0  0  0
   38.3020   27.5720   41.6360 N   0  0  0  0  0  0  0  0  0  0  0  0
   39.3690   28.2620   42.3680 C   0  0  0  0  0  0  0  0  0  0  0  0
   38.5930   29.3280   43.1100 C   0  0  0  0  0  0  0  0  0  0  0  0
   37.2150   29.3530   42.5260 C   0  0  0  0  0  0  0  0  0  0  0  0
   37.3880   28.6000   41.2140 C   0  0  1  0  0  0  0  0  0  0  0  0
   39.6370   23.4120   42.4930 H   0  0  0  0  0  0  0  0  0  0  0  0
   36.5980   23.9900   39.4860 H   0  0  0  0  0  0  0  0  0  0  0  0
   39.9830   28.7710   41.5910 H   0  0  0  0  0  0  0  0  0  0  0  0
   39.9460   27.5900   43.0070 H   0  0  0  0  0  0  0  0  0  0  0  0
   38.6300   29.0980   44.1970 H   0  0  0  0  0  0  0  0  0  0  0  0
   39.0980   30.3320   43.0040 H   0  0  0  0  0  0  0  0  0  0  0  0
   36.9410   30.4010   42.2770 H   0  0  0  0  0  0  0  0  0  0  0  0
   36.5080   28.8660   43.1970 H   0  0  0  0  0  0  0  0  0  0  0  0
   36.4030   28.1900   40.9120 H   0  0  0  0  0  0  0  0  0  0  0  0
   38.0600   22.0870   40.7340 N   0  0  0  0  0  0  0  0  0  0  0  0
   38.5800   21.6140   39.9460 H   0  0  0  0  0  0  0  0  0  0  0  0
   37.5260   21.4810   41.3960 H   0  0  0  0  0  0  0  0  0  0  0  0
   38.0950   29.7120   40.0140 S   0  0  0  0  0  0  0  0  0  0  0  0
   39.6940   32.2230   41.5360 O   0  0  0  0  0  0  0  0  0  0  0  0
   38.6680   32.2890   40.8170 C   0  0  0  0  0  0  0  0  0  0  0  0
   37.6820   31.4150   40.1520 C   0  0  1  0  0  3  0  0  0  0  0  0
   37.4100   32.1600   38.8760 C   0  0  0  0  0  3  0  0  0  0  0  0
   36.4720   31.8590   38.3710 H   0  0  0  0  0  0  0  0  0  0  0  0
   37.1100   33.5440   39.4750 C   0  0  0  0  0  3  0  0  0  0  0  0
   37.1310   34.3450   38.7440 H   0  0  0  0  0  0  0  0  0  0  0  0
   38.1990   33.6060   40.4560 N   0  0  0  0  0  0  0  0  0  0  0  0
   38.5090   34.5510   40.7760 H   0  0  0  0  0  0  0  0  0  0  0  0
  1  6  1  0  0  0  0
  1 12  1  0  0  0  0
  2  1  2  0  0  0  0
  3  4  2  0  0  0  0
  3  2  1  0  0  0  0
  4  5  1  0  0  0  0
  5  7  1  0  0  0  0
  5  6  2  0  0  0  0
  7  8  1  0  0  0  0
  8 15  1  0  0  0  0
  8  9  1  0  0  0  0
  9 16  1  0  0  0  0
 10  9  1  0  0  0  0
 10 19  1  0  0  0  0
 11 20  1  6  0  0  0
 11  7  1  0  0  0  0
 11 10  1  0  0  0  0
 13  3  1  0  0  0  0
 14  8  1  0  0  0  0
 17  9  1  0  0  0  0
 18 10  1  0  0  0  0
 21  2  1  0  0  0  0
 21 23  1  0  0  0  0
 22 21  1  0  0  0  0
 24 11  1  0  0  0  0
 26 25  2  0  0  0  0
 27 24  1  6  0  0  0
 27 26  1  0  0  0  0
 28 30  1  0  0  0  0
 28 27  1  0  0  0  0
 29 28  1  0  0  0  0
 30 32  1  0  0  0  0
 31 30  1  0  0  0  0
 32 33  1  0  0  0  0
 32 26  1  0  0  0  0
M  END
>  <minimizedAffinity>
-5.08311987

$$$$

 OpenBabel03252506353D

 33 35  0  0  1  0  0  0  0  0999 V2000
   41.6250   25.1680   43.3000 C   0  0  0  0  0  0  0  0  0  0  0  0
   42.9420   25.6440   43.1510 C   0  0  0  0  0  0  0  0  0  0  0  0
   43.1520   26.8460   42.5440 C   0  0  0  0  0  0  0  0  0  0  0  0
   42.0560   27.5190   42.1130 N   0  0  0  0  0  0  0  0  0  0  0  0
   40.8090   27.0560   42.2600 C   0  0  0  0  0  0  0  0  0  0  0  0
   40.5870   25.8890   42.8490 N   0  0  0  0  0  0  0  0  0  0  0  0
   39.7460   27.8610   41.7660 N   0  0  0  0  0  0  0  0  0  0  0  0
   38.3340   27.6530   42.1080 C   0  0  0  0  0  0  0  0  0  0  0  0
   37.6510   27.9560   40.7920 C   0  0  0  0  0  0  0  0  0  0  0  0
   38.6750   28.5890   39.9030 C   0  0  0  0  0  0  0  0  0  0  0  0
   39.7710   28.9940   40.8790 C   0  0  1  0  0  0  0  0  0  0  0  0
   41.3480   24.2220   43.7690 H   0  0  0  0  0  0  0  0  0  0  0  0
   44.1600   27.2080   42.4310 H   0  0  0  0  0  0  0  0  0  0  0  0
   38.0770   28.4700   42.8180 H   0  0  0  0  0  0  0  0  0  0  0  0
   38.1380   26.6540   42.5040 H   0  0  0  0  0  0  0  0  0  0  0  0
   37.2150   27.0130   40.3970 H   0  0  0  0  0  0  0  0  0  0  0  0
   36.7710   28.6440   40.9520 H   0  0  0  0  0  0  0  0  0  0  0  0
   38.2560   29.5200   39.4640 H   0  0  0  0  0  0  0  0  0  0  0  0
   39.0240   27.8760   39.1560 H   0  0  0  0  0  0  0  0  0  0  0  0
   40.7270   29.0720   40.3220 H   0  0  0  0  0  0  0  0  0  0  0  0
   43.9900   24.8070   43.6670 N   0  0  0  0  0  0  0  0  0  0  0  0
   44.4410   24.9780   44.6070 H   0  0  0  0  0  0  0  0  0  0  0  0
   44.3300   23.9960   43.1060 H   0  0  0  0  0  0  0  0  0  0  0  0
   39.2840   30.5130   41.6750 S   0  0  0  0  0  0  0  0  0  0  0  0
   36.0810   31.1240   40.9370 O   0  0  0  0  0  0  0  0  0  0  0  0
   37.0860   31.8100   40.6270 C   0  0  0  0  0  0  0  0  0  0  0  0
   38.5610   31.7560   40.6640 C   0  0  1  0  0  3  0  0  0  0  0  0
   38.9210   33.1830   40.9680 C   0  0  0  0  0  3  0  0  0  0  0  0
   39.9700   33.4410   40.7290 H   0  0  0  0  0  0  0  0  0  0  0  0
   38.0840   33.8700   39.8780 C   0  0  0  0  0  3  0  0  0  0  0  0
   37.9600   34.9360   40.0360 H   0  0  0  0  0  0  0  0  0  0  0  0
   36.8440   33.1000   40.0250 N   0  0  0  0  0  0  0  0  0  0  0  0
   35.9580   33.5420   39.6950 H   0  0  0  0  0  0  0  0  0  0  0  0
  1 12  1  0  0  0  0
  2  1  1  0  0  0  0
  2 21  1  0  0  0  0
  3  2  2  0  0  0  0
  4  5  2  0  0  0  0
  4  3  1  0  0  0  0
  5  6  1  0  0  0  0
  6  1  2  0  0  0  0
  7  8  1  0  0  0  0
  7  5  1  0  0  0  0
  8 15  1  0  0  0  0
  8 14  1  0  0  0  0
  9 17  1  0  0  0  0
  9  8  1  0  0  0  0
 10  9  1  0  0  0  0
 10 11  1  0  0  0  0
 11 20  1  6  0  0  0
 11 24  1  0  0  0  0
 11  7  1  0  0  0  0
 13  3  1  0  0  0  0
 16  9  1  0  0  0  0
 18 10  1  0  0  0  0
 19 10  1  0  0  0  0
 21 22  1  0  0  0  0
 23 21  1  0  0  0  0
 26 27  1  0  0  0  0
 26 25  2  0  0  0  0
 27 28  1  0  0  0  0
 27 24  1  1  0  0  0
 29 28  1  0  0  0  0
 30 32  1  0  0  0  0
 30 31  1  0  0  0  0
 30 28  1  0  0  0  0
 32 26  1  0  0  0  0
 33 32  1  0  0  0  0
M  END
>  <minimizedAffinity>
-5.08030319

$$$$

 OpenBabel03252506353D

 33 35  0  0  1  0  0  0  0  0999 V2000
   40.3520   25.7070   43.6050 C   0  0  0  0  0  0  0  0  0  0  0  0
   41.5360   25.6280   42.8450 C   0  0  0  0  0  0  0  0  0  0  0  0
   41.6470   26.3660   41.7060 C   0  0  0  0  0  0  0  0  0  0  0  0
   40.5890   27.1450   41.3690 N   0  0  0  0  0  0  0  0  0  0  0  0
   39.4690   27.2110   42.0990 C   0  0  0  0  0  0  0  0  0  0  0  0
   39.3440   26.5010   43.2110 N   0  0  0  0  0  0  0  0  0  0  0  0
   38.4330   28.0690   41.6370 N   0  0  0  0  0  0  0  0  0  0  0  0
   37.2880   28.4840   42.4550 C   0  0  0  0  0  0  0  0  0  0  0  0
   36.1650   28.4710   41.4420 C   0  0  0  0  0  0  0  0  0  0  0  0
   36.7950   28.3420   40.0910 C   0  0  0  0  0  0  0  0  0  0  0  0
   38.2500   28.7020   40.3570 C   0  0  1  0  0  0  0  0  0  0  0  0
   40.1610   25.1600   44.5300 H   0  0  0  0  0  0  0  0  0  0  0  0
   42.5530   26.3040   41.1260 H   0  0  0  0  0  0  0  0  0  0  0  0
   37.4860   29.5460   42.7260 H   0  0  0  0  0  0  0  0  0  0  0  0
   37.1300   27.8370   43.3200 H   0  0  0  0  0  0  0  0  0  0  0  0
   35.4640   27.6490   41.7050 H   0  0  0  0  0  0  0  0  0  0  0  0
   35.5530   29.4160   41.5160 H   0  0  0  0  0  0  0  0  0  0  0  0
   36.3760   29.1170   39.4140 H   0  0  0  0  0  0  0  0  0  0  0  0
   36.6790   27.3260   39.7110 H   0  0  0  0  0  0  0  0  0  0  0  0
   38.8770   28.2420   39.5660 H   0  0  0  0  0  0  0  0  0  0  0  0
   42.5640   24.7560   43.3460 N   0  0  0  0  0  0  0  0  0  0  0  0
   43.3920   25.1130   43.8950 H   0  0  0  0  0  0  0  0  0  0  0  0
   42.5040   23.7300   43.1690 H   0  0  0  0  0  0  0  0  0  0  0  0
   38.3860   30.4780   40.4330 S   0  0  0  0  0  0  0  0  0  0  0  0
   40.7770   31.9610   38.6260 O   0  0  0  0  0  0  0  0  0  0  0  0
   39.5680   31.8090   38.3240 C   0  0  0  0  0  0  0  0  0  0  0  0
   38.2920   31.3580   38.9140 C   0  0  1  0  0  3  0  0  0  0  0  0
   37.6390   30.6580   37.7550 C   0  0  0  0  0  3  0  0  0  0  0  0
   36.5470   30.5210   37.8720 H   0  0  0  0  0  0  0  0  0  0  0  0
   37.7890   31.7670   36.7010 C   0  0  0  0  0  3  0  0  0  0  0  0
   37.6250   31.4230   35.6860 H   0  0  0  0  0  0  0  0  0  0  0  0
   39.1750   32.1580   36.9790 N   0  0  0  0  0  0  0  0  0  0  0  0
   39.7090   32.6260   36.2140 H   0  0  0  0  0  0  0  0  0  0  0  0
  1 12  1  0  0  0  0
  2 21  1  0  0  0  0
  2  1  2  0  0  0  0
  3  2  1  0  0  0  0
  4  3  2  0  0  0  0
  4  5  1  0  0  0  0
  5  6  2  0  0  0  0
  6  1  1  0  0  0  0
  7  5  1  0  0  0  0
  7  8  1  0  0  0  0
  8 14  1  0  0  0  0
  8 15  1  0  0  0  0
  9 17  1  0  0  0  0
  9 16  1  0  0  0  0
  9  8  1  0  0  0  0
 10 11  1  0  0  0  0
 10  9  1  0  0  0  0
 11 20  1  6  0  0  0
 11 24  1  0  0  0  0
 11  7  1  0  0  0  0
 13  3  1  0  0  0  0
 18 10  1  0  0  0  0
 19 10  1  0  0  0  0
 21 22  1  0  0  0  0
 23 21  1  0  0  0  0
 26 25  2  0  0  0  0
 26 27  1  0  0  0  0
 27 24  1  1  0  0  0
 28 29  1  0  0  0  0
 28 27  1  0  0  0  0
 30 32  1  0  0  0  0
 30 28  1  0  0  0  0
 31 30  1  0  0  0  0
 32 26  1  0  0  0  0
 33 32  1  0  0  0  0
M  END
>  <minimizedAffinity>
-5.02938509

$$$$

 OpenBabel03252506353D

 33 35  0  0  1  0  0  0  0  0999 V2000
   37.5330   25.2550   42.2580 C   0  0  0  0  0  0  0  0  0  0  0  0
   38.9390   25.1890   42.3100 C   0  0  0  0  0  0  0  0  0  0  0  0
   39.6730   26.2220   41.8110 C   0  0  0  0  0  0  0  0  0  0  0  0
   38.9890   27.2690   41.2850 N   0  0  0  0  0  0  0  0  0  0  0  0
   37.6520   27.3200   41.2410 C   0  0  0  0  0  0  0  0  0  0  0  0
   36.9220   26.3230   41.7220 N   0  0  0  0  0  0  0  0  0  0  0  0
   37.0570   28.4760   40.6650 N   0  0  0  0  0  0  0  0  0  0  0  0
   35.6390   28.8240   40.8090 C   0  0  0  0  0  0  0  0  0  0  0  0
   35.3170   29.3770   39.4380 C   0  0  0  0  0  0  0  0  0  0  0  0
   36.6210   29.5750   38.7290 C   0  0  0  0  0  0  0  0  0  0  0  0
   37.6370   29.5190   39.8620 C   0  0  1  0  0  0  0  0  0  0  0  0
   36.8530   24.4850   42.6270 H   0  0  0  0  0  0  0  0  0  0  0  0
   40.7490   26.1700   41.8520 H   0  0  0  0  0  0  0  0  0  0  0  0
   35.6120   29.6710   41.5300 H   0  0  0  0  0  0  0  0  0  0  0  0
   35.0240   27.9740   41.1130 H   0  0  0  0  0  0  0  0  0  0  0  0
   34.6170   28.6780   38.9310 H   0  0  0  0  0  0  0  0  0  0  0  0
   34.7510   30.3490   39.5260 H   0  0  0  0  0  0  0  0  0  0  0  0
   36.6540   30.5990   38.3000 H   0  0  0  0  0  0  0  0  0  0  0  0
   36.7760   28.7890   37.9900 H   0  0  0  0  0  0  0  0  0  0  0  0
   38.6200   29.2280   39.4380 H   0  0  0  0  0  0  0  0  0  0  0  0
   39.5060   24.0090   42.9030 N   0  0  0  0  0  0  0  0  0  0  0  0
   39.8480   23.9850   43.9020 H   0  0  0  0  0  0  0  0  0  0  0  0
   39.5890   23.1340   42.3410 H   0  0  0  0  0  0  0  0  0  0  0  0
   37.6540   31.1020   40.6820 S   0  0  0  0  0  0  0  0  0  0  0  0
   39.0690   31.8500   37.7460 O   0  0  0  0  0  0  0  0  0  0  0  0
   39.2960   32.3730   38.8640 C   0  0  0  0  0  0  0  0  0  0  0  0
   38.9750   32.1950   40.2940 C   0  0  1  0  0  3  0  0  0  0  0  0
   38.8510   33.6160   40.7690 C   0  0  0  0  0  3  0  0  0  0  0  0
   38.9310   33.7300   41.8660 H   0  0  0  0  0  0  0  0  0  0  0  0
   40.1780   34.1610   40.2160 C   0  0  0  0  0  3  0  0  0  0  0  0
   40.2250   35.2440   40.1970 H   0  0  0  0  0  0  0  0  0  0  0  0
   40.1390   33.5450   38.8850 N   0  0  0  0  0  0  0  0  0  0  0  0
   40.6970   33.9960   38.1270 H   0  0  0  0  0  0  0  0  0  0  0  0
  1  2  1  0  0  0  0
  1 12  1  0  0  0  0
  2 21  1  0  0  0  0
  3 13  1  0  0  0  0
  3  2  2  0  0  0  0
  4  3  1  0  0  0  0
  5  4  2  0  0  0  0
  5  6  1  0  0  0  0
  6  1  2  0  0  0  0
  7  8  1  0  0  0  0
  7  5  1  0  0  0  0
  8 15  1  0  0  0  0
  8 14  1  0  0  0  0
  9 17  1  0  0  0  0
  9  8  1  0  0  0  0
 10  9  1  0  0  0  0
 10 11  1  0  0  0  0
 11 20  1  6  0  0  0
 11  7  1  0  0  0  0
 11 24  1  0  0  0  0
 16  9  1  0  0  0  0
 18 10  1  0  0  0  0
 19 10  1  0  0  0  0
 21 22  1  0  0  0  0
 23 21  1  0  0  0  0
 25 26  2  0  0  0  0
 26 32  1  0  0  0  0
 26 27  1  0  0  0  0
 27 24  1  6  0  0  0
 27 28  1  0  0  0  0
 28 29  1  0  0  0  0
 30 28  1  0  0  0  0
 31 30  1  0  0  0  0
 32 30  1  0  0  0  0
 33 32  1  0  0  0  0
M  END
>  <minimizedAffinity>
-5.00797129

$$$$

 OpenBabel03252506353D

 33 35  0  0  1  0  0  0  0  0999 V2000
   40.6280   25.5280   43.6800 C   0  0  0  0  0  0  0  0  0  0  0  0
   41.8160   25.6000   42.9270 C   0  0  0  0  0  0  0  0  0  0  0  0
   41.8780   26.4430   41.8580 C   0  0  0  0  0  0  0  0  0  0  0  0
   40.7680   27.1720   41.5830 N   0  0  0  0  0  0  0  0  0  0  0  0
   39.6440   27.0940   42.3050 C   0  0  0  0  0  0  0  0  0  0  0  0
   39.5670   26.2800   43.3480 N   0  0  0  0  0  0  0  0  0  0  0  0
   38.5510   27.9140   41.9120 N   0  0  0  0  0  0  0  0  0  0  0  0
   37.3780   28.1730   42.7540 C   0  0  0  0  0  0  0  0  0  0  0  0
   36.2600   28.1710   41.7330 C   0  0  0  0  0  0  0  0  0  0  0  0
   36.9020   28.2080   40.3810 C   0  0  0  0  0  0  0  0  0  0  0  0
   38.3270   28.6450   40.6920 C   0  0  1  0  0  0  0  0  0  0  0  0
   40.4740   24.8880   44.5500 H   0  0  0  0  0  0  0  0  0  0  0  0
   42.7880   26.4980   41.2840 H   0  0  0  0  0  0  0  0  0  0  0  0
   37.4980   29.2170   43.1200 H   0  0  0  0  0  0  0  0  0  0  0  0
   37.2630   27.4410   43.5560 H   0  0  0  0  0  0  0  0  0  0  0  0
   35.6190   27.2820   41.9160 H   0  0  0  0  0  0  0  0  0  0  0  0
   35.5820   29.0600   41.8860 H   0  0  0  0  0  0  0  0  0  0  0  0
   36.4310   29.0100   39.7730 H   0  0  0  0  0  0  0  0  0  0  0  0
   36.8600   27.2250   39.9120 H   0  0  0  0  0  0  0  0  0  0  0  0
   38.9870   28.3030   39.8690 H   0  0  0  0  0  0  0  0  0  0  0  0
   42.9020   24.7620   43.3560 N   0  0  0  0  0  0  0  0  0  0  0  0
   43.7010   25.1250   43.9430 H   0  0  0  0  0  0  0  0  0  0  0  0
   42.9160   23.7530   43.0890 H   0  0  0  0  0  0  0  0  0  0  0  0
   38.3360   30.4120   40.9270 S   0  0  0  0  0  0  0  0  0  0  0  0
   39.1790   33.6240   40.5410 O   0  0  0  0  0  0  0  0  0  0  0  0
   39.9170   32.6730   40.8980 C   0  0  0  0  0  0  0  0  0  0  0  0
   39.9030   31.2030   41.0230 C   0  0  1  0  0  3  0  0  0  0  0  0
   40.7060   30.9850   42.2750 C   0  0  0  0  0  3  0  0  0  0  0  0
   41.0950   29.9540   42.3850 H   0  0  0  0  0  0  0  0  0  0  0  0
   41.9340   31.8350   41.9130 C   0  0  0  0  0  3  0  0  0  0  0  0
   42.5690   32.0610   42.7630 H   0  0  0  0  0  0  0  0  0  0  0  0
   41.2440   33.0060   41.3600 N   0  0  0  0  0  0  0  0  0  0  0  0
   41.7590   33.9140   41.3570 H   0  0  0  0  0  0  0  0  0  0  0  0
  1 12  1  0  0  0  0
  2 21  1  0  0  0  0
  2  1  2  0  0  0  0
  3  2  1  0  0  0  0
  4  3  2  0  0  0  0
  4  5  1  0  0  0  0
  5  6  2  0  0  0  0
  6  1  1  0  0  0  0
  7  5  1  0  0  0  0
  7  8  1  0  0  0  0
  8 14  1  0  0  0  0
  8 15  1  0  0  0  0
  9 17  1  0  0  0  0
  9 16  1  0  0  0  0
  9  8  1  0  0  0  0
 10 11  1  0  0  0  0
 10  9  1  0  0  0  0
 11 20  1  6  0  0  0
 11 24  1  0  0  0  0
 11  7  1  0  0  0  0
 13  3  1  0  0  0  0
 18 10  1  0  0  0  0
 19 10  1  0  0  0  0
 21 22  1  0  0  0  0
 23 21  1  0  0  0  0
 25 26  2  0  0  0  0
 26 27  1  0  0  0  0
 26 32  1  0  0  0  0
 27 24  1  1  0  0  0
 27 28  1  0  0  0  0
 28 29  1  0  0  0  0
 30 28  1  0  0  0  0
 30 31  1  0  0  0  0
 32 30  1  0  0  0  0
 33 32  1  0  0  0  0
M  END
>  <minimizedAffinity>
-4.90788698

$$$$

 OpenBabel03252506353D

 33 35  0  0  1  0  0  0  0  0999 V2000
   37.0300   24.7560   40.8370 C   0  0  0  0  0  0  0  0  0  0  0  0
   38.1660   24.8820   41.6610 C   0  0  0  0  0  0  0  0  0  0  0  0
   38.7710   26.0960   41.7810 C   0  0  0  0  0  0  0  0  0  0  0  0
   38.2300   27.1270   41.0840 N   0  0  0  0  0  0  0  0  0  0  0  0
   37.1510   26.9950   40.3040 C   0  0  0  0  0  0  0  0  0  0  0  0
   36.5490   25.8200   40.1760 N   0  0  0  0  0  0  0  0  0  0  0  0
   36.6820   28.1540   39.6280 N   0  0  0  0  0  0  0  0  0  0  0  0
   35.3650   28.2530   38.9900 C   0  0  0  0  0  0  0  0  0  0  0  0
   35.6840   29.0560   37.7480 C   0  0  0  0  0  0  0  0  0  0  0  0
   37.0690   29.5960   37.9200 C   0  0  0  0  0  0  0  0  0  0  0  0
   37.3180   29.4270   39.4120 C   0  0  1  0  0  0  0  0  0  0  0  0
   36.4730   23.8320   40.6720 H   0  0  0  0  0  0  0  0  0  0  0  0
   39.6390   26.1910   42.4120 H   0  0  0  0  0  0  0  0  0  0  0  0
   34.7560   28.8990   39.6620 H   0  0  0  0  0  0  0  0  0  0  0  0
   34.9130   27.2770   38.7980 H   0  0  0  0  0  0  0  0  0  0  0  0
   35.5510   28.4000   36.8600 H   0  0  0  0  0  0  0  0  0  0  0  0
   34.9360   29.8900   37.6120 H   0  0  0  0  0  0  0  0  0  0  0  0
   37.0680   30.6860   37.7020 H   0  0  0  0  0  0  0  0  0  0  0  0
   37.7770   29.0320   37.3120 H   0  0  0  0  0  0  0  0  0  0  0  0
   38.4130   29.3850   39.5840 H   0  0  0  0  0  0  0  0  0  0  0  0
   38.6080   23.6900   42.3330 N   0  0  0  0  0  0  0  0  0  0  0  0
   38.3700   23.4860   43.3410 H   0  0  0  0  0  0  0  0  0  0  0  0
   39.1860   22.9900   41.8200 H   0  0  0  0  0  0  0  0  0  0  0  0
   36.5120   30.7640   40.2730 S   0  0  0  0  0  0  0  0  0  0  0  0
   39.5310   31.0000   41.6930 O   0  0  0  0  0  0  0  0  0  0  0  0
   38.8370   31.9250   41.2030 C   0  0  0  0  0  0  0  0  0  0  0  0
   37.4870   32.1750   40.6620 C   0  0  1  0  0  3  0  0  0  0  0  0
   37.7670   33.1420   39.5460 C   0  0  0  0  0  3  0  0  0  0  0  0
   36.8790   33.7100   39.2100 H   0  0  0  0  0  0  0  0  0  0  0  0
   38.6140   34.1580   40.3290 C   0  0  0  0  0  3  0  0  0  0  0  0
   39.1690   34.8400   39.6930 H   0  0  0  0  0  0  0  0  0  0  0  0
   39.4610   33.2210   41.0760 N   0  0  0  0  0  0  0  0  0  0  0  0
   40.3820   33.5700   41.4210 H   0  0  0  0  0  0  0  0  0  0  0  0
  1  2  1  0  0  0  0
  2  3  2  0  0  0  0
  2 21  1  0  0  0  0
  3 13  1  0  0  0  0
  4  3  1  0  0  0  0
  5  4  2  0  0  0  0
  6  5  1  0  0  0  0
  6  1  2  0  0  0  0
  7  5  1  0  0  0  0
  8  7  1  0  0  0  0
  8 14  1  0  0  0  0
  9 10  1  0  0  0  0
  9  8  1  0  0  0  0
 10 11  1  0  0  0  0
 11 20  1  1  0  0  0
 11  7  1  0  0  0  0
 11 24  1  0  0  0  0
 12  1  1  0  0  0  0
 15  8  1  0  0  0  0
 16  9  1  0  0  0  0
 17  9  1  0  0  0  0
 18 10  1  0  0  0  0
 19 10  1  0  0  0  0
 21 22  1  0  0  0  0
 23 21  1  0  0  0  0
 26 25  2  0  0  0  0
 27 24  1  6  0  0  0
 27 26  1  0  0  0  0
 28 30  1  0  0  0  0
 28 27  1  0  0  0  0
 29 28  1  0  0  0  0
 30 32  1  0  0  0  0
 31 30  1  0  0  0  0
 32 26  1  0  0  0  0
 32 33  1  0  0  0  0
M  END
>  <minimizedAffinity>
-4.87508821

$$$$
