
 OpenBabel03252506333D

 33 35  0  0  1  0  0  0  0  0999 V2000
   44.4380   35.7220   44.9880 C   0  0  0  0  0  0  0  0  0  0  0  0
   45.1160   35.7220   43.7530 C   0  0  0  0  0  0  0  0  0  0  0  0
   46.0630   34.7740   43.5120 C   0  0  0  0  0  0  0  0  0  0  0  0
   46.2980   33.8720   44.4980 N   0  0  0  0  0  0  0  0  0  0  0  0
   45.6470   33.8820   45.6680 C   0  0  0  0  0  0  0  0  0  0  0  0
   44.7220   34.7970   45.9180 N   0  0  0  0  0  0  0  0  0  0  0  0
   45.9860   32.8790   46.6170 N   0  0  0  0  0  0  0  0  0  0  0  0
   45.1770   32.5640   47.7990 C   0  0  0  0  0  0  0  0  0  0  0  0
   46.2430   32.2910   48.8380 C   0  0  0  0  0  0  0  0  0  0  0  0
   47.5460   32.1800   48.1090 C   0  0  0  0  0  0  0  0  0  0  0  0
   47.1120   31.9830   46.6630 C   0  0  1  0  0  0  0  0  0  0  0  0
   43.6650   36.4340   45.2800 H   0  0  0  0  0  0  0  0  0  0  0  0
   46.5800   34.7760   42.5670 H   0  0  0  0  0  0  0  0  0  0  0  0
   44.6750   31.5980   47.5690 H   0  0  0  0  0  0  0  0  0  0  0  0
   44.4810   33.3650   48.0600 H   0  0  0  0  0  0  0  0  0  0  0  0
   46.2080   33.1000   49.6000 H   0  0  0  0  0  0  0  0  0  0  0  0
   46.0120   31.3430   49.4030 H   0  0  0  0  0  0  0  0  0  0  0  0
   48.0690   31.2540   48.4310 H   0  0  0  0  0  0  0  0  0  0  0  0
   48.1380   33.0850   48.2470 H   0  0  0  0  0  0  0  0  0  0  0  0
   47.9390   32.3100   46.0000 H   0  0  0  0  0  0  0  0  0  0  0  0
   44.7440   36.7470   42.8160 N   0  0  0  0  0  0  0  0  0  0  0  0
   44.0770   36.5690   42.0160 H   0  0  0  0  0  0  0  0  0  0  0  0
   45.1370   37.7080   42.9150 H   0  0  0  0  0  0  0  0  0  0  0  0
   46.6530   30.2750   46.4400 S   0  0  0  0  0  0  0  0  0  0  0  0
   48.5990   30.5830   43.7380 O   0  0  0  0  0  0  0  0  0  0  0  0
   48.6310   29.6800   44.6100 C   0  0  0  0  0  0  0  0  0  0  0  0
   47.8710   29.1940   45.7780 C   0  0  1  0  0  3  0  0  0  0  0  0
   48.9670   28.7460   46.7040 C   0  0  0  0  0  3  0  0  0  0  0  0
   48.6280   28.0580   47.5010 H   0  0  0  0  0  0  0  0  0  0  0  0
   49.7520   27.8620   45.7240 C   0  0  0  0  0  3  0  0  0  0  0  0
   50.7520   27.6140   46.0690 H   0  0  0  0  0  0  0  0  0  0  0  0
   49.7310   28.7480   44.5530 N   0  0  0  0  0  0  0  0  0  0  0  0
   50.4780   28.6180   43.8360 H   0  0  0  0  0  0  0  0  0  0  0  0
  1 12  1  0  0  0  0
  1  6  1  0  0  0  0
  2  1  2  0  0  0  0
  3  2  1  0  0  0  0
  3  4  2  0  0  0  0
  4  5  1  0  0  0  0
  5  6  2  0  0  0  0
  5  7  1  0  0  0  0
  7 11  1  0  0  0  0
  7  8  1  0  0  0  0
  8 15  1  0  0  0  0
  8  9  1  0  0  0  0
  9 17  1  0  0  0  0
  9 16  1  0  0  0  0
 10 19  1  0  0  0  0
 10 18  1  0  0  0  0
 10  9  1  0  0  0  0
 11 20  1  6  0  0  0
 11 10  1  0  0  0  0
 13  3  1  0  0  0  0
 14  8  1  0  0  0  0
 21 23  1  0  0  0  0
 21  2  1  0  0  0  0
 22 21  1  0  0  0  0
 24 11  1  0  0  0  0
 25 26  2  0  0  0  0
 26 27  1  0  0  0  0
 27 24  1  1  0  0  0
 27 28  1  0  0  0  0
 28 29  1  0  0  0  0
 30 31  1  0  0  0  0
 30 28  1  0  0  0  0
 32 26  1  0  0  0  0
 32 30  1  0  0  0  0
 33 32  1  0  0  0  0
M  END
>  <minimizedAffinity>
-4.99000597

>  <minimizedRMSD>
2.22854972

$$$$
