
 OpenBabel03252506333D

 33 35  0  0  1  0  0  0  0  0999 V2000
   44.4760   35.6890   45.0180 C   0  0  0  0  0  0  0  0  0  0  0  0
   45.1320   35.6590   43.7710 C   0  0  0  0  0  0  0  0  0  0  0  0
   46.0500   34.6830   43.5250 C   0  0  0  0  0  0  0  0  0  0  0  0
   46.2780   33.7860   44.5160 N   0  0  0  0  0  0  0  0  0  0  0  0
   45.6490   33.8250   45.6970 C   0  0  0  0  0  0  0  0  0  0  0  0
   44.7530   34.7670   45.9530 N   0  0  0  0  0  0  0  0  0  0  0  0
   45.9790   32.8230   46.6510 N   0  0  0  0  0  0  0  0  0  0  0  0
   45.1830   32.5430   47.8510 C   0  0  0  0  0  0  0  0  0  0  0  0
   46.2600   32.2520   48.8730 C   0  0  0  0  0  0  0  0  0  0  0  0
   47.5460   32.1000   48.1230 C   0  0  0  0  0  0  0  0  0  0  0  0
   47.0820   31.8990   46.6870 C   0  0  1  0  0  0  0  0  0  0  0  0
   43.7270   36.4240   45.3160 H   0  0  0  0  0  0  0  0  0  0  0  0
   46.5500   34.6620   42.5710 H   0  0  0  0  0  0  0  0  0  0  0  0
   44.6520   31.5880   47.6390 H   0  0  0  0  0  0  0  0  0  0  0  0
   44.5130   33.3640   48.1150 H   0  0  0  0  0  0  0  0  0  0  0  0
   46.2590   33.0700   49.6270 H   0  0  0  0  0  0  0  0  0  0  0  0
   46.0140   31.3160   49.4530 H   0  0  0  0  0  0  0  0  0  0  0  0
   48.0510   31.1640   48.4460 H   0  0  0  0  0  0  0  0  0  0  0  0
   48.1640   32.9900   48.2410 H   0  0  0  0  0  0  0  0  0  0  0  0
   47.9040   32.1980   46.0060 H   0  0  0  0  0  0  0  0  0  0  0  0
   44.7700   36.6830   42.8300 N   0  0  0  0  0  0  0  0  0  0  0  0
   44.0840   36.5140   42.0440 H   0  0  0  0  0  0  0  0  0  0  0  0
   45.1900   37.6350   42.9120 H   0  0  0  0  0  0  0  0  0  0  0  0
   46.5750   30.2010   46.4910 S   0  0  0  0  0  0  0  0  0  0  0  0
   46.9760   29.3700   43.2770 O   0  0  0  0  0  0  0  0  0  0  0  0
   45.9050   29.4170   43.9310 C   0  0  0  0  0  0  0  0  0  0  0  0
   45.3870   29.8550   45.2420 C   0  0  1  0  0  3  0  0  0  0  0  0
   44.3620   28.7990   45.5440 C   0  0  0  0  0  3  0  0  0  0  0  0
   43.6270   29.0940   46.3170 H   0  0  0  0  0  0  0  0  0  0  0  0
   43.5840   28.8450   44.2200 C   0  0  0  0  0  3  0  0  0  0  0  0
   42.9330   27.9890   44.0700 H   0  0  0  0  0  0  0  0  0  0  0  0
   44.7190   28.8990   43.2920 N   0  0  0  0  0  0  0  0  0  0  0  0
   44.5600   28.5730   42.3140 H   0  0  0  0  0  0  0  0  0  0  0  0
  1 12  1  0  0  0  0
  1  6  1  0  0  0  0
  2  1  2  0  0  0  0
  3  2  1  0  0  0  0
  3  4  2  0  0  0  0
  4  5  1  0  0  0  0
  5  6  2  0  0  0  0
  5  7  1  0  0  0  0
  7 11  1  0  0  0  0
  7  8  1  0  0  0  0
  8 15  1  0  0  0  0
  8  9  1  0  0  0  0
  9 17  1  0  0  0  0
  9 16  1  0  0  0  0
 10 19  1  0  0  0  0
 10 18  1  0  0  0  0
 10  9  1  0  0  0  0
 11 20  1  6  0  0  0
 11 10  1  0  0  0  0
 13  3  1  0  0  0  0
 14  8  1  0  0  0  0
 21 23  1  0  0  0  0
 21  2  1  0  0  0  0
 22 21  1  0  0  0  0
 24 11  1  0  0  0  0
 25 26  2  0  0  0  0
 26 27  1  0  0  0  0
 27 28  1  0  0  0  0
 27 24  1  1  0  0  0
 28 29  1  0  0  0  0
 30 28  1  0  0  0  0
 31 30  1  0  0  0  0
 32 26  1  0  0  0  0
 32 30  1  0  0  0  0
 33 32  1  0  0  0  0
M  END
>  <minimizedAffinity>
-5.02404737

>  <minimizedRMSD>
0.633855045

$$$$
