
 OpenBabel03252506333D

 33 35  0  0  1  0  0  0  0  0999 V2000
   44.4920   35.6190   45.0940 C   0  0  0  0  0  0  0  0  0  0  0  0
   45.1290   35.5920   43.8390 C   0  0  0  0  0  0  0  0  0  0  0  0
   46.0410   34.6150   43.5750 C   0  0  0  0  0  0  0  0  0  0  0  0
   46.2810   33.7130   44.5590 N   0  0  0  0  0  0  0  0  0  0  0  0
   45.6690   33.7490   45.7490 C   0  0  0  0  0  0  0  0  0  0  0  0
   44.7790   34.6920   46.0220 N   0  0  0  0  0  0  0  0  0  0  0  0
   46.0090   32.7420   46.6940 N   0  0  0  0  0  0  0  0  0  0  0  0
   45.2300   32.4590   47.9040 C   0  0  0  0  0  0  0  0  0  0  0  0
   46.3200   32.1610   48.9100 C   0  0  0  0  0  0  0  0  0  0  0  0
   47.5950   32.0090   48.1410 C   0  0  0  0  0  0  0  0  0  0  0  0
   47.1100   31.8150   46.7110 C   0  0  1  0  0  0  0  0  0  0  0  0
   43.7490   36.3550   45.4070 H   0  0  0  0  0  0  0  0  0  0  0  0
   46.5280   34.5960   42.6140 H   0  0  0  0  0  0  0  0  0  0  0  0
   44.6930   31.5060   47.6960 H   0  0  0  0  0  0  0  0  0  0  0  0
   44.5660   33.2810   48.1810 H   0  0  0  0  0  0  0  0  0  0  0  0
   46.3320   32.9750   49.6670 H   0  0  0  0  0  0  0  0  0  0  0  0
   46.0800   31.2240   49.4890 H   0  0  0  0  0  0  0  0  0  0  0  0
   48.1020   31.0700   48.4520 H   0  0  0  0  0  0  0  0  0  0  0  0
   48.2170   32.8960   48.2540 H   0  0  0  0  0  0  0  0  0  0  0  0
   47.9240   32.1140   46.0190 H   0  0  0  0  0  0  0  0  0  0  0  0
   44.7570   36.6210   42.9060 N   0  0  0  0  0  0  0  0  0  0  0  0
   44.0600   36.4580   42.1300 H   0  0  0  0  0  0  0  0  0  0  0  0
   45.1810   37.5710   42.9860 H   0  0  0  0  0  0  0  0  0  0  0  0
   46.5950   30.1190   46.5150 S   0  0  0  0  0  0  0  0  0  0  0  0
   46.1240   30.6110   43.2400 O   0  0  0  0  0  0  0  0  0  0  0  0
   45.3460   30.0550   44.0560 C   0  0  0  0  0  0  0  0  0  0  0  0
   45.1900   29.8160   45.5030 C   0  0  1  0  0  3  0  0  0  0  0  0
   44.6090   28.4310   45.5330 C   0  0  0  0  0  3  0  0  0  0  0  0
   44.1160   28.1720   46.4900 H   0  0  0  0  0  0  0  0  0  0  0  0
   43.4570   28.6410   44.5380 C   0  0  0  0  0  3  0  0  0  0  0  0
   43.0240   27.7130   44.1750 H   0  0  0  0  0  0  0  0  0  0  0  0
   44.1820   29.3980   43.5110 N   0  0  0  0  0  0  0  0  0  0  0  0
   43.7990   29.3840   42.5390 H   0  0  0  0  0  0  0  0  0  0  0  0
  1 12  1  0  0  0  0
  1  6  1  0  0  0  0
  2  1  2  0  0  0  0
  3  2  1  0  0  0  0
  3  4  2  0  0  0  0
  4  5  1  0  0  0  0
  5  6  2  0  0  0  0
  5  7  1  0  0  0  0
  7 11  1  0  0  0  0
  7  8  1  0  0  0  0
  8 15  1  0  0  0  0
  8  9  1  0  0  0  0
  9 17  1  0  0  0  0
  9 16  1  0  0  0  0
 10 19  1  0  0  0  0
 10 18  1  0  0  0  0
 10  9  1  0  0  0  0
 11 20  1  6  0  0  0
 11 10  1  0  0  0  0
 13  3  1  0  0  0  0
 14  8  1  0  0  0  0
 21 23  1  0  0  0  0
 21  2  1  0  0  0  0
 22 21  1  0  0  0  0
 24 11  1  0  0  0  0
 25 26  2  0  0  0  0
 26 27  1  0  0  0  0
 27 28  1  0  0  0  0
 27 24  1  1  0  0  0
 28 29  1  0  0  0  0
 30 28  1  0  0  0  0
 31 30  1  0  0  0  0
 32 26  1  0  0  0  0
 32 30  1  0  0  0  0
 33 32  1  0  0  0  0
M  END
>  <minimizedAffinity>
-5.05446959

>  <minimizedRMSD>
0.867872357

$$$$
