
 OpenBabel03242520263D

 38 40  0  0  1  0  0  0  0  0999 V2000
   45.0130   35.2750   43.3400 C   0  0  0  0  0  0  0  0  0  0  0  0
   46.0790   34.3420   43.3030 C   0  0  0  0  0  0  0  0  0  0  0  0
   46.4570   33.7410   44.4920 C   0  0  0  0  0  0  0  0  0  0  0  0
   45.7980   34.0690   45.6350 N   0  0  0  0  0  0  0  0  0  0  0  0
   44.7860   34.9580   45.6520 C   0  0  0  0  0  0  0  0  0  0  0  0
   44.4020   35.5510   44.5140 N   0  0  0  0  0  0  0  0  0  0  0  0
   44.7030   35.7570   42.4080 H   0  0  0  0  0  0  0  0  0  0  0  0
   44.2770   35.2010   46.5760 H   0  0  0  0  0  0  0  0  0  0  0  0
   46.6630   34.1100   42.0290 N   0  0  0  0  0  0  0  0  0  0  0  0
   47.7490   34.9000   41.4930 C   0  0  0  0  0  0  0  0  0  0  0  0
   48.2010   34.3210   40.1830 C   0  0  0  0  0  0  0  0  0  0  0  0
   47.1300   34.1120   39.2590 N   0  0  0  0  0  0  0  0  0  0  0  0
   46.0090   33.3970   39.7860 C   0  0  0  0  0  0  0  0  0  0  0  0
   46.1240   33.0050   41.2270 C   0  0  0  0  0  0  0  0  0  0  0  0
   48.6090   34.8460   42.1910 H   0  0  0  0  0  0  0  0  0  0  0  0
   47.3820   35.9180   41.3300 H   0  0  0  0  0  0  0  0  0  0  0  0
   48.9270   35.0140   39.7050 H   0  0  0  0  0  0  0  0  0  0  0  0
   48.7060   33.3540   40.4400 H   0  0  0  0  0  0  0  0  0  0  0  0
   46.7910   35.0440   38.9320 H   0  0  0  0  0  0  0  0  0  0  0  0
   45.8690   32.4770   39.1800 H   0  0  0  0  0  0  0  0  0  0  0  0
   45.0410   33.9610   39.6450 H   0  0  0  0  0  0  0  0  0  0  0  0
   45.1130   32.7290   41.5760 H   0  0  0  0  0  0  0  0  0  0  0  0
   46.7810   32.1210   41.3840 H   0  0  0  0  0  0  0  0  0  0  0  0
   47.5090   32.8280   44.4220 O   0  0  0  0  0  0  0  0  0  0  0  0
   47.5000   30.4560   43.2370 O   0  0  0  0  0  0  0  0  0  0  0  0
   47.1520   31.1530   44.5480 P   0  0  1  0  0  0  0  0  0  0  0  0
   48.0250   30.5270   45.8340 O   0  0  0  0  0  0  0  0  0  0  0  0
   47.4510   30.5200   46.6410 H   0  0  0  0  0  0  0  0  0  0  0  0
   45.4770   31.0070   44.8070 O   0  0  0  0  0  0  0  0  0  0  0  0
   43.7660   29.1460   43.1340 O   0  0  0  0  0  0  0  0  0  0  0  0
   44.0950   29.0910   44.3600 C   0  0  0  0  0  0  0  0  0  0  0  0
   45.2500   29.6620   45.0850 C   0  0  2  0  0  3  0  0  0  0  0  0
   44.8120   29.4840   46.5410 C   0  0  0  0  0  3  0  0  0  0  0  0
   44.0370   30.2260   46.7560 H   0  0  0  0  0  0  0  0  0  0  0  0
   44.1270   28.1160   46.4410 C   0  0  0  0  0  3  0  0  0  0  0  0
   43.5810   27.8620   47.3560 H   0  0  0  0  0  0  0  0  0  0  0  0
   43.2620   28.3680   45.2890 N   0  0  0  0  0  0  0  0  0  0  0  0
   42.2530   28.0370   45.2660 H   0  0  0  0  0  0  0  0  0  0  0  0
  1  6  1  0  0  0  0
  2  1  2  0  0  0  0
  2  3  1  0  0  0  0
  3  4  2  0  0  0  0
  4  5  1  0  0  0  0
  5  8  1  0  0  0  0
  6  5  2  0  0  0  0
  7  1  1  0  0  0  0
  9  2  1  0  0  0  0
 10  9  1  0  0  0  0
 10 15  1  0  0  0  0
 11 18  1  0  0  0  0
 11 10  1  0  0  0  0
 12 13  1  0  0  0  0
 12 11  1  0  0  0  0
 13 14  1  0  0  0  0
 14 23  1  0  0  0  0
 14 22  1  0  0  0  0
 14  9  1  0  0  0  0
 16 10  1  0  0  0  0
 17 11  1  0  0  0  0
 19 12  1  0  0  0  0
 20 13  1  0  0  0  0
 21 13  1  0  0  0  0
 24  3  1  0  0  0  0
 24 26  1  0  0  0  0
 26 25  2  6  0  0  0
 26 29  1  0  0  0  0
 26 27  1  0  0  0  0
 27 28  1  0  0  0  0
 30 31  2  0  0  0  0
 31 32  1  0  0  0  0
 31 37  1  0  0  0  0
 32 29  1  6  0  0  0
 32 33  1  0  0  0  0
 33 34  1  0  0  0  0
 35 33  1  0  0  0  0
 35 36  1  0  0  0  0
 37 35  1  0  0  0  0
 38 37  1  0  0  0  0
M  END
>  <minimizedAffinity>
-4.31931591

>  <minimizedRMSD>
3.56942654

$$$$
