
 OpenBabel03242520263D

 38 40  0  0  1  0  0  0  0  0999 V2000
   45.1700   35.7770   43.3230 C   0  0  0  0  0  0  0  0  0  0  0  0
   45.9550   34.5980   43.3620 C   0  0  0  0  0  0  0  0  0  0  0  0
   45.9900   33.8800   44.5450 C   0  0  0  0  0  0  0  0  0  0  0  0
   45.2790   34.3320   45.6120 N   0  0  0  0  0  0  0  0  0  0  0  0
   44.5370   35.4550   45.5580 C   0  0  0  0  0  0  0  0  0  0  0  0
   44.4870   36.1660   44.4230 N   0  0  0  0  0  0  0  0  0  0  0  0
   45.1330   36.3540   42.3950 H   0  0  0  0  0  0  0  0  0  0  0  0
   43.9790   35.7930   46.4220 H   0  0  0  0  0  0  0  0  0  0  0  0
   46.6390   34.2620   42.1620 N   0  0  0  0  0  0  0  0  0  0  0  0
   47.8620   34.9030   41.7350 C   0  0  0  0  0  0  0  0  0  0  0  0
   48.3780   34.2380   40.4910 C   0  0  0  0  0  0  0  0  0  0  0  0
   47.3940   34.1310   39.4600 N   0  0  0  0  0  0  0  0  0  0  0  0
   46.1450   33.5680   39.8730 C   0  0  0  0  0  0  0  0  0  0  0  0
   46.0590   33.2070   41.3240 C   0  0  0  0  0  0  0  0  0  0  0  0
   48.6310   34.7680   42.5240 H   0  0  0  0  0  0  0  0  0  0  0  0
   47.6410   35.9530   41.5170 H   0  0  0  0  0  0  0  0  0  0  0  0
   49.2290   34.8260   40.0840 H   0  0  0  0  0  0  0  0  0  0  0  0
   48.7330   33.2250   40.8170 H   0  0  0  0  0  0  0  0  0  0  0  0
   47.2060   35.0870   39.0840 H   0  0  0  0  0  0  0  0  0  0  0  0
   45.9600   32.6550   39.2700 H   0  0  0  0  0  0  0  0  0  0  0  0
   45.2730   34.2390   39.6190 H   0  0  0  0  0  0  0  0  0  0  0  0
   44.9900   33.0630   41.5650 H   0  0  0  0  0  0  0  0  0  0  0  0
   46.5830   32.2560   41.5650 H   0  0  0  0  0  0  0  0  0  0  0  0
   46.7710   32.7250   44.5500 O   0  0  0  0  0  0  0  0  0  0  0  0
   45.4230   31.2580   46.2990 O   0  0  0  0  0  0  0  0  0  0  0  0
   46.8220   31.7730   45.9790 P   0  0  0  0  0  0  0  0  0  0  0  0
   47.9050   30.5200   45.7360 O   0  0  0  0  0  0  0  0  0  0  0  0
   48.7880   30.7800   46.1010 H   0  0  0  0  0  0  0  0  0  0  0  0
   47.3240   32.7890   47.2490 O   0  0  0  0  0  0  0  0  0  0  0  0
   48.4540   30.3850   48.7090 O   0  0  0  0  0  0  0  0  0  0  0  0
   47.2790   30.8700   48.6960 C   0  0  0  0  0  0  0  0  0  0  0  0
   46.7910   32.2360   48.4110 C   0  0  2  0  0  0  0  0  0  0  0  0
   45.2890   31.9950   48.2500 C   0  0  0  0  0  0  0  0  0  0  0  0
   45.1250   31.5040   47.2840 H   0  0  0  0  0  0  0  0  0  0  0  0
   45.0750   30.9430   49.3450 C   0  0  0  0  0  0  0  0  0  0  0  0
   44.0770   30.4940   49.2950 H   0  0  0  0  0  0  0  0  0  0  0  0
   46.1550   30.0190   49.0000 N   0  0  0  0  0  0  0  0  0  0  0  0
   46.0130   28.9660   49.0080 H   0  0  0  0  0  0  0  0  0  0  0  0
  1  2  2  0  0  0  0
  1  6  1  0  0  0  0
  2  3  1  0  0  0  0
  3 24  1  0  0  0  0
  3  4  2  0  0  0  0
  5  4  1  0  0  0  0
  5  8  1  0  0  0  0
  6  5  2  0  0  0  0
  7  1  1  0  0  0  0
  9  2  1  0  0  0  0
 10  9  1  0  0  0  0
 10 15  1  0  0  0  0
 11 18  1  0  0  0  0
 11 10  1  0  0  0  0
 12 13  1  0  0  0  0
 12 11  1  0  0  0  0
 13 14  1  0  0  0  0
 14 23  1  0  0  0  0
 14 22  1  0  0  0  0
 14  9  1  0  0  0  0
 16 10  1  0  0  0  0
 17 11  1  0  0  0  0
 19 12  1  0  0  0  0
 20 13  1  0  0  0  0
 21 13  1  0  0  0  0
 24 26  1  0  0  0  0
 25 34  1  0  0  0  0
 26 25  1  0  0  0  0
 26 29  1  0  0  0  0
 27 26  1  0  0  0  0
 27 28  1  0  0  0  0
 31 30  2  0  0  0  0
 31 37  1  0  0  0  0
 32 29  1  6  0  0  0
 32 31  1  0  0  0  0
 33 32  1  0  0  0  0
 33 35  1  0  0  0  0
 36 35  1  0  0  0  0
 37 38  1  0  0  0  0
 37 35  1  0  0  0  0
M  END
>  <minimizedAffinity>
-5.71745396

>  <minimizedRMSD>
0.323180139

$$$$
