
 OpenBabel03252507103D

 36 38  0  0  1  0  0  0  0  0999 V2000
   44.4020   35.7240   45.1800 C   0  0  0  0  0  0  0  0  0  0  0  0
   44.6630   35.8000   43.7990 C   0  0  0  0  0  0  0  0  0  0  0  0
   45.5030   34.8420   43.2610 C   0  0  0  0  0  0  0  0  0  0  0  0
   46.0270   33.8930   44.0600 N   0  0  0  0  0  0  0  0  0  0  0  0
   45.7700   33.8320   45.3720 C   0  0  0  0  0  0  0  0  0  0  0  0
   44.9500   34.7590   45.9350 N   0  0  0  0  0  0  0  0  0  0  0  0
   43.7450   36.4780   45.5920 H   0  0  0  0  0  0  0  0  0  0  0  0
   44.2020   36.5980   43.2220 H   0  0  0  0  0  0  0  0  0  0  0  0
   45.4260   32.4540   47.4400 C   0  0  1  0  0  0  0  0  0  0  0  0
   46.3230   32.8270   46.2970 C   0  0  1  0  0  0  0  0  0  0  0  0
   46.3810   31.4550   45.5890 C   0  0  0  0  0  0  0  0  0  0  0  0
   46.2460   30.5040   46.5500 O   0  0  0  0  0  0  0  0  0  0  0  0
   46.0480   31.1060   47.7890 C   0  0  0  0  0  0  0  0  0  0  0  0
   44.3960   32.2660   47.0690 H   0  0  0  0  0  0  0  0  0  0  0  0
   47.3270   33.1120   46.6290 H   0  0  0  0  0  0  0  0  0  0  0  0
   47.4050   31.3960   45.1640 H   0  0  0  0  0  0  0  0  0  0  0  0
   45.6590   31.4180   44.7580 H   0  0  0  0  0  0  0  0  0  0  0  0
   45.3270   30.4830   48.3580 H   0  0  0  0  0  0  0  0  0  0  0  0
   46.9790   31.2240   48.3610 H   0  0  0  0  0  0  0  0  0  0  0  0
   45.3990   33.3530   48.4640 O   0  0  0  0  0  0  0  0  0  0  0  0
   44.6100   33.2280   49.0220 H   0  0  0  0  0  0  0  0  0  0  0  0
   45.7520   34.9270   41.8970 O   0  0  0  0  0  0  0  0  0  0  0  0
   45.2960   32.3830   41.2580 O   0  0  0  0  0  0  0  0  0  0  0  0
   46.2510   33.5410   41.0260 P   0  0  1  0  0  0  0  0  0  0  0  0
   46.3690   33.9460   39.4090 O   0  0  0  0  0  0  0  0  0  0  0  0
   47.2870   33.8510   39.0280 H   0  0  0  0  0  0  0  0  0  0  0  0
   47.7750   33.1130   41.6510 O   0  0  0  0  0  0  0  0  0  0  0  0
   50.9180   32.1950   41.2880 O   0  0  0  0  0  0  0  0  0  0  0  0
   50.0900   33.1240   41.5370 C   0  0  0  0  0  0  0  0  0  0  0  0
   48.8210   33.6900   40.9690 C   0  0  2  0  0  0  0  0  0  0  0  0
   48.9450   35.1660   41.2860 C   0  0  0  0  0  0  0  0  0  0  0  0
   49.5560   35.6470   40.5020 H   0  0  0  0  0  0  0  0  0  0  0  0
   49.6940   35.2160   42.6230 C   0  0  0  0  0  0  0  0  0  0  0  0
   48.9810   35.3020   43.4570 H   0  0  0  0  0  0  0  0  0  0  0  0
   50.3570   33.9280   42.6810 N   0  0  0  0  0  0  0  0  0  0  0  0
   50.9370   33.7580   43.5410 H   0  0  0  0  0  0  0  0  0  0  0  0
  1  7  1  0  0  0  0
  1  6  1  0  0  0  0
  2  1  2  0  0  0  0
  3  2  1  0  0  0  0
  3  4  2  0  0  0  0
  4  5  1  0  0  0  0
  5  6  2  0  0  0  0
  5 10  1  0  0  0  0
  8  2  1  0  0  0  0
  9 14  1  6  0  0  0
  9 13  1  0  0  0  0
  9 20  1  0  0  0  0
 10 15  1  1  0  0  0
 10  9  1  0  0  0  0
 11 10  1  0  0  0  0
 11 12  1  0  0  0  0
 12 13  1  0  0  0  0
 13 18  1  0  0  0  0
 13 19  1  0  0  0  0
 16 11  1  0  0  0  0
 17 11  1  0  0  0  0
 20 21  1  0  0  0  0
 22  3  1  0  0  0  0
 24 23  2  1  0  0  0
 24 27  1  0  0  0  0
 24 22  1  0  0  0  0
 25 24  1  0  0  0  0
 26 25  1  0  0  0  0
 28 29  2  0  0  0  0
 29 35  1  0  0  0  0
 30 31  1  0  0  0  0
 30 29  1  0  0  0  0
 30 27  1  1  0  0  0
 31 33  1  0  0  0  0
 32 31  1  0  0  0  0
 33 35  1  0  0  0  0
 33 34  1  0  0  0  0
 35 36  1  0  0  0  0
M  END
>  <minimizedAffinity>
-6.1193285

>  <minimizedRMSD>
1.88561368

$$$$
