
 OpenBabel03252507103D

 36 38  0  0  1  0  0  0  0  0999 V2000
   44.5310   35.6140   44.7890 C   0  0  0  0  0  0  0  0  0  0  0  0
   45.1090   35.7680   43.5150 C   0  0  0  0  0  0  0  0  0  0  0  0
   46.1580   34.9250   43.1910 C   0  0  0  0  0  0  0  0  0  0  0  0
   46.5750   34.0100   44.0870 N   0  0  0  0  0  0  0  0  0  0  0  0
   46.0160   33.8740   45.2940 C   0  0  0  0  0  0  0  0  0  0  0  0
   44.9840   34.6860   45.6460 N   0  0  0  0  0  0  0  0  0  0  0  0
   43.7130   36.2780   45.0330 H   0  0  0  0  0  0  0  0  0  0  0  0
   44.7160   36.5320   42.8500 H   0  0  0  0  0  0  0  0  0  0  0  0
   45.3900   32.5570   47.3360 C   0  0  1  0  0  0  0  0  0  0  0  0
   46.4370   32.9010   46.3170 C   0  0  1  0  0  0  0  0  0  0  0  0
   46.5970   31.5080   45.6680 C   0  0  0  0  0  0  0  0  0  0  0  0
   46.3320   30.5860   46.6290 O   0  0  0  0  0  0  0  0  0  0  0  0
   45.9610   31.2240   47.8090 C   0  0  0  0  0  0  0  0  0  0  0  0
   44.4220   32.3500   46.8310 H   0  0  0  0  0  0  0  0  0  0  0  0
   47.3840   33.2030   46.7780 H   0  0  0  0  0  0  0  0  0  0  0  0
   47.6700   31.4440   45.3910 H   0  0  0  0  0  0  0  0  0  0  0  0
   45.9980   31.4420   44.7450 H   0  0  0  0  0  0  0  0  0  0  0  0
   45.1700   30.6130   48.2910 H   0  0  0  0  0  0  0  0  0  0  0  0
   46.8020   31.3650   48.5020 H   0  0  0  0  0  0  0  0  0  0  0  0
   45.2180   33.4860   48.3180 O   0  0  0  0  0  0  0  0  0  0  0  0
   44.3590   33.3710   48.7630 H   0  0  0  0  0  0  0  0  0  0  0  0
   46.7200   35.0860   41.9320 O   0  0  0  0  0  0  0  0  0  0  0  0
   46.1490   32.5750   41.2570 O   0  0  0  0  0  0  0  0  0  0  0  0
   47.1120   33.7170   40.9840 P   0  0  1  0  0  0  0  0  0  0  0  0
   47.1130   34.1690   39.3740 O   0  0  0  0  0  0  0  0  0  0  0  0
   47.9960   34.0640   38.9190 H   0  0  0  0  0  0  0  0  0  0  0  0
   48.6690   33.2330   41.4720 O   0  0  0  0  0  0  0  0  0  0  0  0
   49.0970   30.6200   43.4330 O   0  0  0  0  0  0  0  0  0  0  0  0
   49.4990   31.2960   42.4360 C   0  0  0  0  0  0  0  0  0  0  0  0
   48.9400   31.9140   41.1890 C   0  0  2  0  0  3  0  0  0  0  0  0
   50.0880   31.7810   40.2090 C   0  0  0  0  0  3  0  0  0  0  0  0
   50.0600   30.7680   39.7670 H   0  0  0  0  0  0  0  0  0  0  0  0
   51.3500   31.9320   41.0640 C   0  0  0  0  0  3  0  0  0  0  0  0
   51.7090   32.9710   41.0350 H   0  0  0  0  0  0  0  0  0  0  0  0
   50.8860   31.6170   42.4020 N   0  0  0  0  0  0  0  0  0  0  0  0
   51.6180   31.6640   43.1550 H   0  0  0  0  0  0  0  0  0  0  0  0
  1  7  1  0  0  0  0
  1  6  1  0  0  0  0
  2  1  2  0  0  0  0
  3  2  1  0  0  0  0
  3  4  2  0  0  0  0
  4  5  1  0  0  0  0
  5  6  2  0  0  0  0
  5 10  1  0  0  0  0
  8  2  1  0  0  0  0
  9 14  1  6  0  0  0
  9 13  1  0  0  0  0
  9 20  1  0  0  0  0
 10 15  1  1  0  0  0
 10  9  1  0  0  0  0
 11 10  1  0  0  0  0
 11 12  1  0  0  0  0
 12 13  1  0  0  0  0
 13 18  1  0  0  0  0
 13 19  1  0  0  0  0
 16 11  1  0  0  0  0
 17 11  1  0  0  0  0
 20 21  1  0  0  0  0
 22  3  1  0  0  0  0
 24 23  2  1  0  0  0
 24 27  1  0  0  0  0
 24 22  1  0  0  0  0
 25 24  1  0  0  0  0
 26 25  1  0  0  0  0
 29 28  2  0  0  0  0
 30 27  1  1  0  0  0
 30 29  1  0  0  0  0
 31 33  1  0  0  0  0
 31 30  1  0  0  0  0
 32 31  1  0  0  0  0
 33 35  1  0  0  0  0
 34 33  1  0  0  0  0
 35 29  1  0  0  0  0
 35 36  1  0  0  0  0
M  END
>  <minimizedAffinity>
-5.53861666

>  <minimizedRMSD>
2.26082253

$$$$
