
 OpenBabel03242520263D

 38 40  0  0  1  0  0  0  0  0999 V2000
   45.1710   35.7770   43.3240 C   0  0  0  0  0  0  0  0  0  0  0  0
   45.9550   34.5980   43.3630 C   0  0  0  0  0  0  0  0  0  0  0  0
   45.9900   33.8800   44.5460 C   0  0  0  0  0  0  0  0  0  0  0  0
   45.2790   34.3310   45.6130 N   0  0  0  0  0  0  0  0  0  0  0  0
   44.5370   35.4550   45.5590 C   0  0  0  0  0  0  0  0  0  0  0  0
   44.4870   36.1660   44.4250 N   0  0  0  0  0  0  0  0  0  0  0  0
   45.1340   36.3550   42.3970 H   0  0  0  0  0  0  0  0  0  0  0  0
   43.9790   35.7930   46.4230 H   0  0  0  0  0  0  0  0  0  0  0  0
   46.6390   34.2630   42.1630 N   0  0  0  0  0  0  0  0  0  0  0  0
   47.8630   34.9030   41.7370 C   0  0  0  0  0  0  0  0  0  0  0  0
   48.3780   34.2380   40.4930 C   0  0  0  0  0  0  0  0  0  0  0  0
   47.3940   34.1310   39.4620 N   0  0  0  0  0  0  0  0  0  0  0  0
   46.1450   33.5690   39.8740 C   0  0  0  0  0  0  0  0  0  0  0  0
   46.0590   33.2080   41.3250 C   0  0  0  0  0  0  0  0  0  0  0  0
   48.6320   34.7670   42.5250 H   0  0  0  0  0  0  0  0  0  0  0  0
   47.6420   35.9530   41.5190 H   0  0  0  0  0  0  0  0  0  0  0  0
   49.2290   34.8260   40.0860 H   0  0  0  0  0  0  0  0  0  0  0  0
   48.7330   33.2250   40.8180 H   0  0  0  0  0  0  0  0  0  0  0  0
   47.2060   35.0880   39.0850 H   0  0  0  0  0  0  0  0  0  0  0  0
   45.9610   32.6560   39.2710 H   0  0  0  0  0  0  0  0  0  0  0  0
   45.2730   34.2400   39.6200 H   0  0  0  0  0  0  0  0  0  0  0  0
   44.9900   33.0630   41.5660 H   0  0  0  0  0  0  0  0  0  0  0  0
   46.5830   32.2570   41.5660 H   0  0  0  0  0  0  0  0  0  0  0  0
   46.7710   32.7250   44.5510 O   0  0  0  0  0  0  0  0  0  0  0  0
   45.4230   31.2580   46.3010 O   0  0  0  0  0  0  0  0  0  0  0  0
   46.8220   31.7730   45.9800 P   0  0  0  0  0  4  0  0  0  0  0  0
   47.9050   30.5190   45.7360 O   0  0  0  0  0  0  0  0  0  0  0  0
   48.7880   30.7790   46.1010 H   0  0  0  0  0  0  0  0  0  0  0  0
   47.3240   32.7880   47.2500 O   0  0  0  0  0  0  0  0  0  0  0  0
   48.4540   30.3840   48.7090 O   0  0  0  0  0  0  0  0  0  0  0  0
   47.2800   30.8690   48.6960 C   0  0  0  0  0  0  0  0  0  0  0  0
   46.7920   32.2360   48.4120 C   0  0  2  0  0  3  0  0  0  0  0  0
   45.2890   31.9940   48.2490 C   0  0  0  0  0  2  0  0  0  0  0  0
   45.1260   31.5040   47.2840 H   0  0  0  0  0  0  0  0  0  0  0  0
   45.0750   30.9420   49.3440 C   0  0  0  0  0  3  0  0  0  0  0  0
   44.0780   30.4920   49.2940 H   0  0  0  0  0  0  0  0  0  0  0  0
   46.1550   30.0170   48.9990 N   0  0  0  0  0  0  0  0  0  0  0  0
   46.0130   28.9640   49.0070 H   0  0  0  0  0  0  0  0  0  0  0  0
  1  2  2  0  0  0  0
  1  6  1  0  0  0  0
  2  3  1  0  0  0  0
  3 24  1  0  0  0  0
  3  4  2  0  0  0  0
  5  4  1  0  0  0  0
  5  8  1  0  0  0  0
  6  5  2  0  0  0  0
  7  1  1  0  0  0  0
  9  2  1  0  0  0  0
 10  9  1  0  0  0  0
 10 15  1  0  0  0  0
 11 18  1  0  0  0  0
 11 10  1  0  0  0  0
 12 13  1  0  0  0  0
 12 11  1  0  0  0  0
 13 14  1  0  0  0  0
 14 23  1  0  0  0  0
 14 22  1  0  0  0  0
 14  9  1  0  0  0  0
 16 10  1  0  0  0  0
 17 11  1  0  0  0  0
 19 12  1  0  0  0  0
 20 13  1  0  0  0  0
 21 13  1  0  0  0  0
 24 26  1  0  0  0  0
 25 34  1  0  0  0  0
 26 25  1  0  0  0  0
 26 29  1  0  0  0  0
 27 26  1  0  0  0  0
 27 28  1  0  0  0  0
 31 30  2  0  0  0  0
 31 37  1  0  0  0  0
 32 29  1  6  0  0  0
 32 31  1  0  0  0  0
 33 32  1  0  0  0  0
 33 35  1  0  0  0  0
 36 35  1  0  0  0  0
 37 38  1  0  0  0  0
 37 35  1  0  0  0  0
M  END
>  <minimizedAffinity>
-5.71492624

>  <minimizedRMSD>
1.06385267

$$$$
