
 OpenBabel03242520263D

 38 40  0  0  1  0  0  0  0  0999 V2000
   45.1500   35.7140   43.2610 C   0  0  0  0  0  0  0  0  0  0  0  0
   46.0370   34.6100   43.2880 C   0  0  0  0  0  0  0  0  0  0  0  0
   46.1640   33.9080   44.4760 C   0  0  0  0  0  0  0  0  0  0  0  0
   45.4400   34.3050   45.5560 N   0  0  0  0  0  0  0  0  0  0  0  0
   44.6000   35.3570   45.5120 C   0  0  0  0  0  0  0  0  0  0  0  0
   44.4600   36.0510   44.3740 N   0  0  0  0  0  0  0  0  0  0  0  0
   45.0400   36.2770   42.3300 H   0  0  0  0  0  0  0  0  0  0  0  0
   44.0340   35.6520   46.3870 H   0  0  0  0  0  0  0  0  0  0  0  0
   46.7200   34.3250   42.0750 N   0  0  0  0  0  0  0  0  0  0  0  0
   47.8940   35.0440   41.6330 C   0  0  0  0  0  0  0  0  0  0  0  0
   48.4280   34.4200   40.3760 C   0  0  0  0  0  0  0  0  0  0  0  0
   47.4350   34.2590   39.3600 N   0  0  0  0  0  0  0  0  0  0  0  0
   46.2310   33.6170   39.7890 C   0  0  0  0  0  0  0  0  0  0  0  0
   46.1930   33.2420   41.2390 C   0  0  0  0  0  0  0  0  0  0  0  0
   48.6830   34.9510   42.4080 H   0  0  0  0  0  0  0  0  0  0  0  0
   47.6040   36.0790   41.4270 H   0  0  0  0  0  0  0  0  0  0  0  0
   49.2340   35.0630   39.9590 H   0  0  0  0  0  0  0  0  0  0  0  0
   48.8510   33.4300   40.6880 H   0  0  0  0  0  0  0  0  0  0  0  0
   47.1820   35.2040   38.9940 H   0  0  0  0  0  0  0  0  0  0  0  0
   46.0940   32.6980   39.1830 H   0  0  0  0  0  0  0  0  0  0  0  0
   45.3150   34.2340   39.5550 H   0  0  0  0  0  0  0  0  0  0  0  0
   45.1390   33.0290   41.4960 H   0  0  0  0  0  0  0  0  0  0  0  0
   46.7790   32.3240   41.4640 H   0  0  0  0  0  0  0  0  0  0  0  0
   47.0440   32.8270   44.4700 O   0  0  0  0  0  0  0  0  0  0  0  0
   45.3840   30.9150   43.6860 O   0  0  0  0  0  0  0  0  0  0  0  0
   46.4160   31.2540   44.7550 P   0  0  1  0  0  0  0  0  0  0  0  0
   47.6940   30.1720   44.7510 O   0  0  0  0  0  0  0  0  0  0  0  0
   47.9910   30.0190   45.6830 H   0  0  0  0  0  0  0  0  0  0  0  0
   45.6350   31.2850   46.2660 O   0  0  0  0  0  0  0  0  0  0  0  0
   45.0110   29.4250   48.5770 O   0  0  0  0  0  0  0  0  0  0  0  0
   45.9590   30.2540   48.4140 C   0  0  0  0  0  0  0  0  0  0  0  0
   46.5660   30.8110   47.1860 C   0  0  2  0  0  3  0  0  0  0  0  0
   47.3920   31.9690   47.7540 C   0  0  0  0  0  3  0  0  0  0  0  0
   46.7030   32.7720   48.0350 H   0  0  0  0  0  0  0  0  0  0  0  0
   47.8960   31.3170   49.0490 C   0  0  0  0  0  3  0  0  0  0  0  0
   48.3820   32.0410   49.7100 H   0  0  0  0  0  0  0  0  0  0  0  0
   46.6260   30.8070   49.5660 N   0  0  0  0  0  0  0  0  0  0  0  0
   46.3690   30.8900   50.5940 H   0  0  0  0  0  0  0  0  0  0  0  0
  1  2  2  0  0  0  0
  1  6  1  0  0  0  0
  2  3  1  0  0  0  0
  3  4  2  0  0  0  0
  5  4  1  0  0  0  0
  5  8  1  0  0  0  0
  6  5  2  0  0  0  0
  7  1  1  0  0  0  0
  9  2  1  0  0  0  0
 10  9  1  0  0  0  0
 10 15  1  0  0  0  0
 11 18  1  0  0  0  0
 11 10  1  0  0  0  0
 12 13  1  0  0  0  0
 12 11  1  0  0  0  0
 13 14  1  0  0  0  0
 14 23  1  0  0  0  0
 14 22  1  0  0  0  0
 14  9  1  0  0  0  0
 16 10  1  0  0  0  0
 17 11  1  0  0  0  0
 19 12  1  0  0  0  0
 20 13  1  0  0  0  0
 21 13  1  0  0  0  0
 24  3  1  0  0  0  0
 24 26  1  0  0  0  0
 26 25  2  6  0  0  0
 26 29  1  0  0  0  0
 27 26  1  0  0  0  0
 27 28  1  0  0  0  0
 31 30  2  0  0  0  0
 31 37  1  0  0  0  0
 32 29  1  6  0  0  0
 32 33  1  0  0  0  0
 32 31  1  0  0  0  0
 33 34  1  0  0  0  0
 33 35  1  0  0  0  0
 35 37  1  0  0  0  0
 35 36  1  0  0  0  0
 37 38  1  0  0  0  0
M  END
>  <minimizedAffinity>
-5.54864168

>  <minimizedRMSD>
1.78886569

$$$$
