
 OpenBabel03242520273D

 38 40  0  0  1  0  0  0  0  0999 V2000
   36.9890   30.5660   37.7290 C   0  0  0  0  0  0  0  0  0  0  0  0
   37.1130   30.8480   39.1120 C   0  0  0  0  0  0  0  0  0  0  0  0
   36.3550   30.1010   39.9980 C   0  0  0  0  0  0  0  0  0  0  0  0
   35.5290   29.1380   39.5100 N   0  0  0  0  0  0  0  0  0  0  0  0
   35.4230   28.8830   38.1910 C   0  0  0  0  0  0  0  0  0  0  0  0
   36.1470   29.5920   37.3150 N   0  0  0  0  0  0  0  0  0  0  0  0
   37.5820   31.1480   37.0180 H   0  0  0  0  0  0  0  0  0  0  0  0
   34.7580   28.1090   37.8280 H   0  0  0  0  0  0  0  0  0  0  0  0
   38.0190   31.8860   39.4600 N   0  0  0  0  0  0  0  0  0  0  0  0
   37.6010   33.2160   39.8400 C   0  0  0  0  0  0  0  0  0  0  0  0
   38.7960   34.0270   40.2510 C   0  0  0  0  0  0  0  0  0  0  0  0
   39.8500   34.0090   39.2850 N   0  0  0  0  0  0  0  0  0  0  0  0
   40.2340   32.7070   38.8350 C   0  0  0  0  0  0  0  0  0  0  0  0
   39.4520   31.5740   39.4260 C   0  0  0  0  0  0  0  0  0  0  0  0
   36.9330   33.1430   40.7230 H   0  0  0  0  0  0  0  0  0  0  0  0
   37.1270   33.6870   38.9720 H   0  0  0  0  0  0  0  0  0  0  0  0
   38.4910   35.0870   40.3950 H   0  0  0  0  0  0  0  0  0  0  0  0
   39.1350   33.5900   41.2260 H   0  0  0  0  0  0  0  0  0  0  0  0
   39.5420   34.5590   38.4520 H   0  0  0  0  0  0  0  0  0  0  0  0
   41.3070   32.5590   39.0760 H   0  0  0  0  0  0  0  0  0  0  0  0
   40.1960   32.6180   37.7100 H   0  0  0  0  0  0  0  0  0  0  0  0
   39.6410   30.6810   38.8020 H   0  0  0  0  0  0  0  0  0  0  0  0
   39.7690   31.3240   40.4630 H   0  0  0  0  0  0  0  0  0  0  0  0
   36.5000   30.4030   41.3520 O   0  0  0  0  0  0  0  0  0  0  0  0
   38.8340   30.3100   42.6050 O   0  0  0  0  0  0  0  0  0  0  0  0
   37.5990   29.4740   42.2880 P   0  0  1  0  0  0  0  0  0  0  0  0
   36.8120   28.9770   43.6790 O   0  0  0  0  0  0  0  0  0  0  0  0
   36.4510   28.0650   43.5390 H   0  0  0  0  0  0  0  0  0  0  0  0
   38.0790   28.1460   41.3390 O   0  0  0  0  0  0  0  0  0  0  0  0
   39.5120   26.4880   43.4320 O   0  0  0  0  0  0  0  0  0  0  0  0
   38.5690   26.1830   42.6370 C   0  0  0  0  0  0  0  0  0  0  0  0
   37.5510   27.0200   41.9650 C   0  0  2  0  0  3  0  0  0  0  0  0
   36.9910   26.0430   40.9280 C   0  0  0  0  0  3  0  0  0  0  0  0
   37.7350   25.9300   40.1320 H   0  0  0  0  0  0  0  0  0  0  0  0
   37.0000   24.7510   41.7560 C   0  0  0  0  0  3  0  0  0  0  0  0
   36.7900   23.8690   41.1430 H   0  0  0  0  0  0  0  0  0  0  0  0
   38.3720   24.8040   42.2620 N   0  0  0  0  0  0  0  0  0  0  0  0
   38.9890   23.9400   42.2920 H   0  0  0  0  0  0  0  0  0  0  0  0
  1  2  1  0  0  0  0
  2  9  1  0  0  0  0
  2  3  2  0  0  0  0
  3 24  1  0  0  0  0
  4  3  1  0  0  0  0
  5  4  2  0  0  0  0
  6  1  2  0  0  0  0
  6  5  1  0  0  0  0
  7  1  1  0  0  0  0
  8  5  1  0  0  0  0
  9 10  1  0  0  0  0
 10 11  1  0  0  0  0
 10 15  1  0  0  0  0
 11 17  1  0  0  0  0
 11 18  1  0  0  0  0
 12 11  1  0  0  0  0
 13 20  1  0  0  0  0
 13 12  1  0  0  0  0
 13 14  1  0  0  0  0
 14  9  1  0  0  0  0
 14 23  1  0  0  0  0
 16 10  1  0  0  0  0
 19 12  1  0  0  0  0
 21 13  1  0  0  0  0
 22 14  1  0  0  0  0
 24 26  1  0  0  0  0
 26 25  2  1  0  0  0
 26 27  1  0  0  0  0
 28 27  1  0  0  0  0
 29 26  1  0  0  0  0
 31 30  2  0  0  0  0
 32 29  1  6  0  0  0
 32 31  1  0  0  0  0
 33 35  1  0  0  0  0
 33 32  1  0  0  0  0
 34 33  1  0  0  0  0
 35 37  1  0  0  0  0
 36 35  1  0  0  0  0
 37 38  1  0  0  0  0
 37 31  1  0  0  0  0
M  END
>  <minimizedAffinity>
-5.47865009

$$$$

 OpenBabel03242520273D

 38 40  0  0  1  0  0  0  0  0999 V2000
   36.4850   30.1320   38.0570 C   0  0  0  0  0  0  0  0  0  0  0  0
   37.4760   29.8920   39.0410 C   0  0  0  0  0  0  0  0  0  0  0  0
   37.3300   28.7800   39.8530 C   0  0  0  0  0  0  0  0  0  0  0  0
   36.2510   27.9720   39.6760 N   0  0  0  0  0  0  0  0  0  0  0  0
   35.3180   28.2140   38.7360 C   0  0  0  0  0  0  0  0  0  0  0  0
   35.4380   29.2830   37.9370 N   0  0  0  0  0  0  0  0  0  0  0  0
   36.5870   31.0060   37.4080 H   0  0  0  0  0  0  0  0  0  0  0  0
   34.4680   27.5540   38.6150 H   0  0  0  0  0  0  0  0  0  0  0  0
   38.5410   30.8320   39.0970 N   0  0  0  0  0  0  0  0  0  0  0  0
   38.5750   31.9440   40.0190 C   0  0  0  0  0  0  0  0  0  0  0  0
   39.8840   32.6700   39.8930 C   0  0  0  0  0  0  0  0  0  0  0  0
   40.2030   33.0270   38.5460 N   0  0  0  0  0  0  0  0  0  0  0  0
   40.1050   31.9610   37.5980 C   0  0  0  0  0  0  0  0  0  0  0  0
   39.6570   30.6480   38.1630 C   0  0  0  0  0  0  0  0  0  0  0  0
   38.5140   31.5530   41.0550 H   0  0  0  0  0  0  0  0  0  0  0  0
   37.7590   32.6270   39.7620 H   0  0  0  0  0  0  0  0  0  0  0  0
   39.8450   33.6070   40.4890 H   0  0  0  0  0  0  0  0  0  0  0  0
   40.6550   31.9760   40.3190 H   0  0  0  0  0  0  0  0  0  0  0  0
   39.5520   33.7860   38.2440 H   0  0  0  0  0  0  0  0  0  0  0  0
   41.1010   31.8220   37.1280 H   0  0  0  0  0  0  0  0  0  0  0  0
   39.4320   32.2250   36.7300 H   0  0  0  0  0  0  0  0  0  0  0  0
   39.3520   30.0100   37.3130 H   0  0  0  0  0  0  0  0  0  0  0  0
   40.4670   30.1110   38.7050 H   0  0  0  0  0  0  0  0  0  0  0  0
   38.3220   28.5730   40.8100 O   0  0  0  0  0  0  0  0  0  0  0  0
   39.1440   29.7430   43.0430 O   0  0  0  0  0  0  0  0  0  0  0  0
   37.9780   28.9610   42.4480 P   0  0  1  0  0  0  0  0  0  0  0  0
   36.5540   29.8400   42.4900 O   0  0  0  0  0  0  0  0  0  0  0  0
   35.7990   29.2250   42.6720 H   0  0  0  0  0  0  0  0  0  0  0  0
   37.8270   27.4940   43.2960 O   0  0  0  0  0  0  0  0  0  0  0  0
   36.9840   25.1160   41.6170 O   0  0  0  0  0  0  0  0  0  0  0  0
   38.0580   25.3390   42.2580 C   0  0  0  0  0  0  0  0  0  0  0  0
   38.7000   26.6030   42.6770 C   0  0  2  0  0  3  0  0  0  0  0  0
   39.7460   26.0980   43.6730 C   0  0  0  0  0  3  0  0  0  0  0  0
   39.2260   25.8070   44.5920 H   0  0  0  0  0  0  0  0  0  0  0  0
   40.1830   24.8110   42.9620 C   0  0  0  0  0  3  0  0  0  0  0  0
   40.8220   24.1880   43.5950 H   0  0  0  0  0  0  0  0  0  0  0  0
   38.8670   24.2280   42.6990 N   0  0  0  0  0  0  0  0  0  0  0  0
   38.6760   23.1940   42.8420 H   0  0  0  0  0  0  0  0  0  0  0  0
  1  2  1  0  0  0  0
  2  9  1  0  0  0  0
  2  3  2  0  0  0  0
  3 24  1  0  0  0  0
  4  3  1  0  0  0  0
  5  4  2  0  0  0  0
  6  1  2  0  0  0  0
  6  5  1  0  0  0  0
  7  1  1  0  0  0  0
  8  5  1  0  0  0  0
  9 10  1  0  0  0  0
 10 15  1  0  0  0  0
 11 10  1  0  0  0  0
 11 18  1  0  0  0  0
 11 17  1  0  0  0  0
 12 11  1  0  0  0  0
 13 14  1  0  0  0  0
 13 12  1  0  0  0  0
 14 23  1  0  0  0  0
 14  9  1  0  0  0  0
 16 10  1  0  0  0  0
 19 12  1  0  0  0  0
 20 13  1  0  0  0  0
 21 13  1  0  0  0  0
 22 14  1  0  0  0  0
 24 26  1  0  0  0  0
 26 27  1  0  0  0  0
 26 25  2  1  0  0  0
 26 29  1  0  0  0  0
 27 28  1  0  0  0  0
 30 31  2  0  0  0  0
 31 32  1  0  0  0  0
 31 37  1  0  0  0  0
 32 29  1  1  0  0  0
 32 33  1  0  0  0  0
 33 34  1  0  0  0  0
 35 36  1  0  0  0  0
 35 33  1  0  0  0  0
 37 38  1  0  0  0  0
 37 35  1  0  0  0  0
M  END
>  <minimizedAffinity>
-5.27702618

$$$$

 OpenBabel03242520273D

 38 40  0  0  1  0  0  0  0  0999 V2000
   37.5520   31.8310   38.3940 C   0  0  0  0  0  0  0  0  0  0  0  0
   37.6920   30.4560   38.7040 C   0  0  0  0  0  0  0  0  0  0  0  0
   37.9100   30.1070   40.0260 C   0  0  0  0  0  0  0  0  0  0  0  0
   37.9830   31.0890   40.9630 N   0  0  0  0  0  0  0  0  0  0  0  0
   37.8480   32.3920   40.6510 C   0  0  0  0  0  0  0  0  0  0  0  0
   37.6350   32.7540   39.3790 N   0  0  0  0  0  0  0  0  0  0  0  0
   37.3800   32.1210   37.3540 H   0  0  0  0  0  0  0  0  0  0  0  0
   37.9090   33.1550   41.4180 H   0  0  0  0  0  0  0  0  0  0  0  0
   37.5910   29.5550   37.6090 N   0  0  0  0  0  0  0  0  0  0  0  0
   38.7080   28.7950   37.0960 C   0  0  0  0  0  0  0  0  0  0  0  0
   38.2360   27.8620   36.0180 C   0  0  0  0  0  0  0  0  0  0  0  0
   37.4690   28.5140   35.0040 N   0  0  0  0  0  0  0  0  0  0  0  0
   36.4010   29.3340   35.4870 C   0  0  0  0  0  0  0  0  0  0  0  0
   36.2760   29.3990   36.9780 C   0  0  0  0  0  0  0  0  0  0  0  0
   39.1220   28.1700   37.9140 H   0  0  0  0  0  0  0  0  0  0  0  0
   39.4340   29.4960   36.6730 H   0  0  0  0  0  0  0  0  0  0  0  0
   39.1160   27.3930   35.5250 H   0  0  0  0  0  0  0  0  0  0  0  0
   37.6290   27.0790   36.5430 H   0  0  0  0  0  0  0  0  0  0  0  0
   38.1100   29.1190   34.4440 H   0  0  0  0  0  0  0  0  0  0  0  0
   35.4490   28.9450   35.0700 H   0  0  0  0  0  0  0  0  0  0  0  0
   36.4610   30.3870   35.0870 H   0  0  0  0  0  0  0  0  0  0  0  0
   35.6260   30.2610   37.2170 H   0  0  0  0  0  0  0  0  0  0  0  0
   35.7960   28.4940   37.4130 H   0  0  0  0  0  0  0  0  0  0  0  0
   38.0430   28.7460   40.2980 O   0  0  0  0  0  0  0  0  0  0  0  0
   35.4840   28.8120   40.9890 O   0  0  0  0  0  0  0  0  0  0  0  0
   36.6400   27.8520   40.7260 P   0  0  1  0  0  0  0  0  0  0  0  0
   36.2940   26.7910   39.4780 O   0  0  0  0  0  0  0  0  0  0  0  0
   36.6920   25.9080   39.6850 H   0  0  0  0  0  0  0  0  0  0  0  0
   36.9870   27.0210   42.1690 O   0  0  0  0  0  0  0  0  0  0  0  0
   36.4420   24.1790   41.2680 O   0  0  0  0  0  0  0  0  0  0  0  0
   37.4670   24.6930   41.8160 C   0  0  0  0  0  0  0  0  0  0  0  0
   37.9650   26.0840   41.8430 C   0  0  2  0  0  3  0  0  0  0  0  0
   39.0220   26.0080   42.9470 C   0  0  0  0  0  3  0  0  0  0  0  0
   38.5040   25.9480   43.9100 H   0  0  0  0  0  0  0  0  0  0  0  0
   39.6090   24.6220   42.6500 C   0  0  0  0  0  3  0  0  0  0  0  0
   40.2860   24.2840   43.4410 H   0  0  0  0  0  0  0  0  0  0  0  0
   38.3670   23.8520   42.5680 N   0  0  0  0  0  0  0  0  0  0  0  0
   38.2760   22.8920   43.0110 H   0  0  0  0  0  0  0  0  0  0  0  0
  1  2  2  0  0  0  0
  1  6  1  0  0  0  0
  2  3  1  0  0  0  0
  3 24  1  0  0  0  0
  3  4  2  0  0  0  0
  5  4  1  0  0  0  0
  5  8  1  0  0  0  0
  6  5  2  0  0  0  0
  7  1  1  0  0  0  0
  9  2  1  0  0  0  0
 10  9  1  0  0  0  0
 10 15  1  0  0  0  0
 11 18  1  0  0  0  0
 11 10  1  0  0  0  0
 12 13  1  0  0  0  0
 12 11  1  0  0  0  0
 13 14  1  0  0  0  0
 14 22  1  0  0  0  0
 14 23  1  0  0  0  0
 14  9  1  0  0  0  0
 16 10  1  0  0  0  0
 17 11  1  0  0  0  0
 19 12  1  0  0  0  0
 20 13  1  0  0  0  0
 21 13  1  0  0  0  0
 24 26  1  0  0  0  0
 26 25  2  1  0  0  0
 26 29  1  0  0  0  0
 27 28  1  0  0  0  0
 27 26  1  0  0  0  0
 30 31  2  0  0  0  0
 31 32  1  0  0  0  0
 31 37  1  0  0  0  0
 32 29  1  1  0  0  0
 32 33  1  0  0  0  0
 33 34  1  0  0  0  0
 35 33  1  0  0  0  0
 35 36  1  0  0  0  0
 37 35  1  0  0  0  0
 37 38  1  0  0  0  0
M  END
>  <minimizedAffinity>
-5.17172432

$$$$

 OpenBabel03242520273D

 38 40  0  0  1  0  0  0  0  0999 V2000
   38.7830   24.7200   41.1630 C   0  0  0  0  0  0  0  0  0  0  0  0
   38.4410   26.0460   40.7990 C   0  0  0  0  0  0  0  0  0  0  0  0
   38.4490   26.3720   39.4530 C   0  0  0  0  0  0  0  0  0  0  0  0
   38.7820   25.4170   38.5450 N   0  0  0  0  0  0  0  0  0  0  0  0
   39.1040   24.1600   38.9080 C   0  0  0  0  0  0  0  0  0  0  0  0
   39.1020   23.8210   40.2040 N   0  0  0  0  0  0  0  0  0  0  0  0
   38.7810   24.4480   42.2220 H   0  0  0  0  0  0  0  0  0  0  0  0
   39.3640   23.4180   38.1650 H   0  0  0  0  0  0  0  0  0  0  0  0
   38.1180   26.9250   41.8680 N   0  0  0  0  0  0  0  0  0  0  0  0
   36.8320   26.9400   42.5270 C   0  0  0  0  0  0  0  0  0  0  0  0
   36.8630   27.9020   43.6790 C   0  0  0  0  0  0  0  0  0  0  0  0
   37.3400   29.2000   43.3180 N   0  0  0  0  0  0  0  0  0  0  0  0
   38.5760   29.2110   42.5980 C   0  0  0  0  0  0  0  0  0  0  0  0
   39.1570   27.8600   42.3140 C   0  0  0  0  0  0  0  0  0  0  0  0
   36.6320   25.9320   42.9450 H   0  0  0  0  0  0  0  0  0  0  0  0
   36.0800   27.2690   41.8030 H   0  0  0  0  0  0  0  0  0  0  0  0
   35.8350   28.0230   44.0860 H   0  0  0  0  0  0  0  0  0  0  0  0
   37.5260   27.4290   44.4490 H   0  0  0  0  0  0  0  0  0  0  0  0
   36.6180   29.6630   42.7220 H   0  0  0  0  0  0  0  0  0  0  0  0
   39.3140   29.7960   43.1840 H   0  0  0  0  0  0  0  0  0  0  0  0
   38.4950   29.7770   41.6240 H   0  0  0  0  0  0  0  0  0  0  0  0
   39.9260   27.9890   41.5300 H   0  0  0  0  0  0  0  0  0  0  0  0
   39.6600   27.4100   43.1980 H   0  0  0  0  0  0  0  0  0  0  0  0
   38.1080   27.6850   39.1280 O   0  0  0  0  0  0  0  0  0  0  0  0
   37.8590   28.0890   36.5190 O   0  0  0  0  0  0  0  0  0  0  0  0
   37.0480   27.9550   37.8040 P   0  0  1  0  0  0  0  0  0  0  0  0
   35.9700   26.6760   37.7270 O   0  0  0  0  0  0  0  0  0  0  0  0
   35.1380   26.9260   38.2030 H   0  0  0  0  0  0  0  0  0  0  0  0
   36.2450   29.4270   38.0880 O   0  0  0  0  0  0  0  0  0  0  0  0
   35.0590   28.9070   40.8280 O   0  0  0  0  0  0  0  0  0  0  0  0
   35.8010   29.8510   40.4120 C   0  0  0  0  0  0  0  0  0  0  0  0
   36.7580   29.9160   39.2870 C   0  0  2  0  0  3  0  0  0  0  0  0
   37.0090   31.4220   39.1870 C   0  0  0  0  0  3  0  0  0  0  0  0
   36.1230   31.8860   38.7410 H   0  0  0  0  0  0  0  0  0  0  0  0
   37.0190   31.7840   40.6780 C   0  0  0  0  0  3  0  0  0  0  0  0
   37.0170   32.8670   40.8380 H   0  0  0  0  0  0  0  0  0  0  0  0
   35.7780   31.1260   41.0880 N   0  0  0  0  0  0  0  0  0  0  0  0
   35.0900   31.5940   41.7480 H   0  0  0  0  0  0  0  0  0  0  0  0
  1  7  1  0  0  0  0
  2  1  1  0  0  0  0
  2  9  1  0  0  0  0
  3  2  2  0  0  0  0
  4  5  2  0  0  0  0
  4  3  1  0  0  0  0
  5  6  1  0  0  0  0
  6  1  2  0  0  0  0
  8  5  1  0  0  0  0
  9 14  1  0  0  0  0
  9 10  1  0  0  0  0
 10 15  1  0  0  0  0
 10 11  1  0  0  0  0
 11 17  1  0  0  0  0
 11 18  1  0  0  0  0
 12 11  1  0  0  0  0
 13 20  1  0  0  0  0
 13 12  1  0  0  0  0
 14 13  1  0  0  0  0
 14 23  1  0  0  0  0
 16 10  1  0  0  0  0
 19 12  1  0  0  0  0
 21 13  1  0  0  0  0
 22 14  1  0  0  0  0
 24  3  1  0  0  0  0
 26 25  2  6  0  0  0
 26 29  1  0  0  0  0
 26 24  1  0  0  0  0
 27 26  1  0  0  0  0
 27 28  1  0  0  0  0
 31 30  2  0  0  0  0
 31 37  1  0  0  0  0
 32 29  1  6  0  0  0
 32 31  1  0  0  0  0
 33 32  1  0  0  0  0
 33 35  1  0  0  0  0
 34 33  1  0  0  0  0
 35 36  1  0  0  0  0
 35 37  1  0  0  0  0
 37 38  1  0  0  0  0
M  END
>  <minimizedAffinity>
-5.13410187

$$$$

 OpenBabel03242520273D

 38 40  0  0  1  0  0  0  0  0999 V2000
   37.3500   27.0710   41.5560 C   0  0  0  0  0  0  0  0  0  0  0  0
   37.3960   28.3690   40.9900 C   0  0  0  0  0  0  0  0  0  0  0  0
   37.6580   29.4360   41.8330 C   0  0  0  0  0  0  0  0  0  0  0  0
   37.8560   29.1970   43.1570 N   0  0  0  0  0  0  0  0  0  0  0  0
   37.8080   27.9560   43.6780 C   0  0  0  0  0  0  0  0  0  0  0  0
   37.5580   26.9080   42.8820 N   0  0  0  0  0  0  0  0  0  0  0  0
   37.1440   26.2190   40.9020 H   0  0  0  0  0  0  0  0  0  0  0  0
   37.9700   27.7920   44.7360 H   0  0  0  0  0  0  0  0  0  0  0  0
   37.1670   28.4500   39.5900 N   0  0  0  0  0  0  0  0  0  0  0  0
   38.2240   28.4130   38.6050 C   0  0  0  0  0  0  0  0  0  0  0  0
   37.6330   28.4070   37.2240 C   0  0  0  0  0  0  0  0  0  0  0  0
   36.6840   29.4540   37.0120 N   0  0  0  0  0  0  0  0  0  0  0  0
   35.6680   29.5610   38.0130 C   0  0  0  0  0  0  0  0  0  0  0  0
   35.7770   28.5770   39.1370 C   0  0  0  0  0  0  0  0  0  0  0  0
   38.7920   27.4680   38.7250 H   0  0  0  0  0  0  0  0  0  0  0  0
   38.8390   29.3110   38.7290 H   0  0  0  0  0  0  0  0  0  0  0  0
   38.4450   28.5310   36.4750 H   0  0  0  0  0  0  0  0  0  0  0  0
   37.1550   27.3990   37.1070 H   0  0  0  0  0  0  0  0  0  0  0  0
   37.1980   30.3630   36.9790 H   0  0  0  0  0  0  0  0  0  0  0  0
   34.6820   29.4280   37.5220 H   0  0  0  0  0  0  0  0  0  0  0  0
   35.6120   30.6000   38.4510 H   0  0  0  0  0  0  0  0  0  0  0  0
   35.1320   28.9410   39.9580 H   0  0  0  0  0  0  0  0  0  0  0  0
   35.4170   27.5620   38.8600 H   0  0  0  0  0  0  0  0  0  0  0  0
   37.6970   30.7000   41.2460 O   0  0  0  0  0  0  0  0  0  0  0  0
   38.8680   33.0740   41.1020 O   0  0  0  0  0  0  0  0  0  0  0  0
   39.1620   31.5930   41.3140 P   0  0  1  0  0  0  0  0  0  0  0  0
   39.8800   31.3090   42.7990 O   0  0  0  0  0  0  0  0  0  0  0  0
   40.5460   30.5820   42.7030 H   0  0  0  0  0  0  0  0  0  0  0  0
   40.1460   31.0530   40.0360 O   0  0  0  0  0  0  0  0  0  0  0  0
   38.3910   31.8110   37.6840 O   0  0  0  0  0  0  0  0  0  0  0  0
   39.6050   32.0900   37.9360 C   0  0  0  0  0  0  0  0  0  0  0  0
   40.3450   32.1600   39.2140 C   0  0  2  0  0  3  0  0  0  0  0  0
   41.7940   32.2110   38.7250 C   0  0  0  0  0  3  0  0  0  0  0  0
   42.0690   31.2100   38.3730 H   0  0  0  0  0  0  0  0  0  0  0  0
   41.6200   33.1030   37.4890 C   0  0  0  0  0  3  0  0  0  0  0  0
   42.5260   33.1370   36.8750 H   0  0  0  0  0  0  0  0  0  0  0  0
   40.5020   32.4090   36.8510 N   0  0  0  0  0  0  0  0  0  0  0  0
   40.4760   32.2380   35.8040 H   0  0  0  0  0  0  0  0  0  0  0  0
  1  6  1  0  0  0  0
  2  1  2  0  0  0  0
  2  3  1  0  0  0  0
  3  4  2  0  0  0  0
  4  5  1  0  0  0  0
  5  8  1  0  0  0  0
  6  5  2  0  0  0  0
  7  1  1  0  0  0  0
  9  2  1  0  0  0  0
 10 15  1  0  0  0  0
 10 16  1  0  0  0  0
 10  9  1  0  0  0  0
 11 10  1  0  0  0  0
 12 11  1  0  0  0  0
 12 13  1  0  0  0  0
 13 21  1  0  0  0  0
 13 14  1  0  0  0  0
 14  9  1  0  0  0  0
 14 22  1  0  0  0  0
 17 11  1  0  0  0  0
 18 11  1  0  0  0  0
 19 12  1  0  0  0  0
 20 13  1  0  0  0  0
 23 14  1  0  0  0  0
 24 26  1  0  0  0  0
 24  3  1  0  0  0  0
 26 25  2  6  0  0  0
 26 27  1  0  0  0  0
 28 27  1  0  0  0  0
 29 26  1  0  0  0  0
 30 31  2  0  0  0  0
 31 32  1  0  0  0  0
 32 29  1  1  0  0  0
 33 32  1  0  0  0  0
 34 33  1  0  0  0  0
 35 33  1  0  0  0  0
 36 35  1  0  0  0  0
 37 35  1  0  0  0  0
 37 31  1  0  0  0  0
 38 37  1  0  0  0  0
M  END
>  <minimizedAffinity>
-5.06744719

$$$$

 OpenBabel03242520273D

 38 40  0  0  1  0  0  0  0  0999 V2000
   40.5270   32.3470   37.4850 C   0  0  0  0  0  0  0  0  0  0  0  0
   39.7980   31.8400   38.5890 C   0  0  0  0  0  0  0  0  0  0  0  0
   40.1290   32.2990   39.8530 C   0  0  0  0  0  0  0  0  0  0  0  0
   41.1310   33.2090   39.9820 N   0  0  0  0  0  0  0  0  0  0  0  0
   41.8140   33.6820   38.9210 C   0  0  0  0  0  0  0  0  0  0  0  0
   41.5120   33.2530   37.6890 N   0  0  0  0  0  0  0  0  0  0  0  0
   40.2770   31.9930   36.4810 H   0  0  0  0  0  0  0  0  0  0  0  0
   42.6070   34.4070   39.0510 H   0  0  0  0  0  0  0  0  0  0  0  0
   38.7820   30.8940   38.2850 N   0  0  0  0  0  0  0  0  0  0  0  0
   37.3860   31.2390   38.1500 C   0  0  0  0  0  0  0  0  0  0  0  0
   36.6030   30.0320   37.7170 C   0  0  0  0  0  0  0  0  0  0  0  0
   36.8350   28.8850   38.5380 N   0  0  0  0  0  0  0  0  0  0  0  0
   38.2130   28.5640   38.7510 C   0  0  0  0  0  0  0  0  0  0  0  0
   39.1900   29.4960   38.1030 C   0  0  0  0  0  0  0  0  0  0  0  0
   37.2810   32.0020   37.3520 H   0  0  0  0  0  0  0  0  0  0  0  0
   37.0200   31.5750   39.1250 H   0  0  0  0  0  0  0  0  0  0  0  0
   35.5160   30.2630   37.7620 H   0  0  0  0  0  0  0  0  0  0  0  0
   36.9110   29.8390   36.6570 H   0  0  0  0  0  0  0  0  0  0  0  0
   36.3970   29.0540   39.4710 H   0  0  0  0  0  0  0  0  0  0  0  0
   38.3930   27.5390   38.3650 H   0  0  0  0  0  0  0  0  0  0  0  0
   38.4660   28.4870   39.8480 H   0  0  0  0  0  0  0  0  0  0  0  0
   40.1770   29.3150   38.5680 H   0  0  0  0  0  0  0  0  0  0  0  0
   39.3020   29.3160   37.0110 H   0  0  0  0  0  0  0  0  0  0  0  0
   39.3930   31.7810   40.9170 O   0  0  0  0  0  0  0  0  0  0  0  0
   40.8080   29.5740   41.3140 O   0  0  0  0  0  0  0  0  0  0  0  0
   40.1880   30.7600   42.0460 P   0  0  1  0  0  0  0  0  0  0  0  0
   41.3440   31.6670   42.8490 O   0  0  0  0  0  0  0  0  0  0  0  0
   40.9620   31.9970   43.7000 H   0  0  0  0  0  0  0  0  0  0  0  0
   39.0070   30.1700   43.1190 O   0  0  0  0  0  0  0  0  0  0  0  0
   36.4850   30.2410   41.4390 O   0  0  0  0  0  0  0  0  0  0  0  0
   37.0330   29.2850   42.0700 C   0  0  0  0  0  0  0  0  0  0  0  0
   38.4350   29.0680   42.4880 C   0  0  2  0  0  3  0  0  0  0  0  0
   38.2830   27.9070   43.4730 C   0  0  0  0  0  3  0  0  0  0  0  0
   37.8440   28.3000   44.3960 H   0  0  0  0  0  0  0  0  0  0  0  0
   37.1990   27.0950   42.7530 C   0  0  0  0  0  3  0  0  0  0  0  0
   36.8070   26.2860   43.3780 H   0  0  0  0  0  0  0  0  0  0  0  0
   36.2320   28.1640   42.5000 N   0  0  0  0  0  0  0  0  0  0  0  0
   35.1900   28.0190   42.6420 H   0  0  0  0  0  0  0  0  0  0  0  0
  1  6  2  0  0  0  0
  1  2  1  0  0  0  0
  2  3  2  0  0  0  0
  3  4  1  0  0  0  0
  3 24  1  0  0  0  0
  5  8  1  0  0  0  0
  5  4  2  0  0  0  0
  6  5  1  0  0  0  0
  7  1  1  0  0  0  0
  9  2  1  0  0  0  0
 10  9  1  0  0  0  0
 10 16  1  0  0  0  0
 11 17  1  0  0  0  0
 11 10  1  0  0  0  0
 11 12  1  0  0  0  0
 12 13  1  0  0  0  0
 12 19  1  0  0  0  0
 13 21  1  0  0  0  0
 14  9  1  0  0  0  0
 14 22  1  0  0  0  0
 14 13  1  0  0  0  0
 15 10  1  0  0  0  0
 18 11  1  0  0  0  0
 20 13  1  0  0  0  0
 23 14  1  0  0  0  0
 24 26  1  0  0  0  0
 26 25  2  6  0  0  0
 26 27  1  0  0  0  0
 26 29  1  0  0  0  0
 27 28  1  0  0  0  0
 30 31  2  0  0  0  0
 31 32  1  0  0  0  0
 31 37  1  0  0  0  0
 32 29  1  1  0  0  0
 32 33  1  0  0  0  0
 33 34  1  0  0  0  0
 35 36  1  0  0  0  0
 35 33  1  0  0  0  0
 37 38  1  0  0  0  0
 37 35  1  0  0  0  0
M  END
>  <minimizedAffinity>
-5.00290203

$$$$

 OpenBabel03242520273D

 38 40  0  0  1  0  0  0  0  0999 V2000
   36.8390   27.5960   38.1010 C   0  0  0  0  0  0  0  0  0  0  0  0
   37.3750   28.2090   39.2610 C   0  0  0  0  0  0  0  0  0  0  0  0
   38.1520   27.4340   40.1050 C   0  0  0  0  0  0  0  0  0  0  0  0
   38.3650   26.1280   39.7910 N   0  0  0  0  0  0  0  0  0  0  0  0
   37.8480   25.5610   38.6840 C   0  0  0  0  0  0  0  0  0  0  0  0
   37.0940   26.2910   37.8520 N   0  0  0  0  0  0  0  0  0  0  0  0
   36.2240   28.1960   37.4260 H   0  0  0  0  0  0  0  0  0  0  0  0
   38.0340   24.5190   38.4570 H   0  0  0  0  0  0  0  0  0  0  0  0
   37.0590   29.5820   39.4450 N   0  0  0  0  0  0  0  0  0  0  0  0
   37.8270   30.6620   38.8700 C   0  0  0  0  0  0  0  0  0  0  0  0
   37.1600   31.9750   39.1650 C   0  0  0  0  0  0  0  0  0  0  0  0
   36.8600   32.1560   40.5510 N   0  0  0  0  0  0  0  0  0  0  0  0
   36.1650   31.0680   41.1660 C   0  0  0  0  0  0  0  0  0  0  0  0
   35.8860   29.9020   40.2670 C   0  0  0  0  0  0  0  0  0  0  0  0
   37.8430   30.5420   37.7670 H   0  0  0  0  0  0  0  0  0  0  0  0
   38.8230   30.6540   39.3240 H   0  0  0  0  0  0  0  0  0  0  0  0
   37.8280   32.8070   38.8540 H   0  0  0  0  0  0  0  0  0  0  0  0
   36.2250   31.9830   38.5460 H   0  0  0  0  0  0  0  0  0  0  0  0
   37.7580   32.2950   41.0660 H   0  0  0  0  0  0  0  0  0  0  0  0
   35.1990   31.4500   41.5570 H   0  0  0  0  0  0  0  0  0  0  0  0
   36.6970   30.6900   42.0870 H   0  0  0  0  0  0  0  0  0  0  0  0
   35.6170   29.0450   40.9120 H   0  0  0  0  0  0  0  0  0  0  0  0
   35.0300   30.0800   39.5800 H   0  0  0  0  0  0  0  0  0  0  0  0
   38.6650   28.0670   41.2370 O   0  0  0  0  0  0  0  0  0  0  0  0
   37.3810   28.5730   43.5010 O   0  0  0  0  0  0  0  0  0  0  0  0
   38.1890   27.4950   42.7850 P   0  0  1  0  0  0  0  0  0  0  0  0
   37.3010   26.0910   42.5750 O   0  0  0  0  0  0  0  0  0  0  0  0
   37.9020   25.3100   42.6780 H   0  0  0  0  0  0  0  0  0  0  0  0
   39.6070   27.2050   43.6780 O   0  0  0  0  0  0  0  0  0  0  0  0
   39.7580   24.2100   43.2350 O   0  0  0  0  0  0  0  0  0  0  0  0
   40.6280   25.1190   43.0550 C   0  0  0  0  0  0  0  0  0  0  0  0
   40.4850   26.5690   42.8030 C   0  0  2  0  0  3  0  0  0  0  0  0
   41.9170   27.0600   43.0300 C   0  0  0  0  0  3  0  0  0  0  0  0
   42.1120   27.0490   44.1080 H   0  0  0  0  0  0  0  0  0  0  0  0
   42.6940   25.8940   42.4070 C   0  0  0  0  0  3  0  0  0  0  0  0
   43.7670   25.9580   42.6130 H   0  0  0  0  0  0  0  0  0  0  0  0
   42.0300   24.7790   43.0830 N   0  0  0  0  0  0  0  0  0  0  0  0
   42.5770   23.9550   43.4690 H   0  0  0  0  0  0  0  0  0  0  0  0
  1  2  1  0  0  0  0
  2  9  1  0  0  0  0
  2  3  2  0  0  0  0
  3 24  1  0  0  0  0
  4  3  1  0  0  0  0
  5  4  2  0  0  0  0
  6  1  2  0  0  0  0
  6  5  1  0  0  0  0
  7  1  1  0  0  0  0
  8  5  1  0  0  0  0
  9 14  1  0  0  0  0
 10 11  1  0  0  0  0
 10 16  1  0  0  0  0
 10  9  1  0  0  0  0
 11 12  1  0  0  0  0
 12 19  1  0  0  0  0
 12 13  1  0  0  0  0
 13 20  1  0  0  0  0
 13 21  1  0  0  0  0
 14 22  1  0  0  0  0
 14 13  1  0  0  0  0
 15 10  1  0  0  0  0
 17 11  1  0  0  0  0
 18 11  1  0  0  0  0
 23 14  1  0  0  0  0
 24 26  1  0  0  0  0
 26 25  2  1  0  0  0
 26 29  1  0  0  0  0
 27 28  1  0  0  0  0
 27 26  1  0  0  0  0
 31 37  1  0  0  0  0
 31 30  2  0  0  0  0
 32 33  1  0  0  0  0
 32 31  1  0  0  0  0
 32 29  1  1  0  0  0
 33 34  1  0  0  0  0
 35 36  1  0  0  0  0
 35 33  1  0  0  0  0
 35 37  1  0  0  0  0
 37 38  1  0  0  0  0
M  END
>  <minimizedAffinity>
-4.98531818

$$$$

 OpenBabel03242520273D

 38 40  0  0  1  0  0  0  0  0999 V2000
   41.3570   32.1530   37.4310 C   0  0  0  0  0  0  0  0  0  0  0  0
   40.6030   31.4950   38.4350 C   0  0  0  0  0  0  0  0  0  0  0  0
   41.0630   30.2730   38.8970 C   0  0  0  0  0  0  0  0  0  0  0  0
   42.2070   29.7590   38.3720 N   0  0  0  0  0  0  0  0  0  0  0  0
   42.9120   30.3980   37.4180 C   0  0  0  0  0  0  0  0  0  0  0  0
   42.4870   31.5810   36.9560 N   0  0  0  0  0  0  0  0  0  0  0  0
   41.0050   33.1180   37.0570 H   0  0  0  0  0  0  0  0  0  0  0  0
   43.8210   29.9660   37.0180 H   0  0  0  0  0  0  0  0  0  0  0  0
   39.4310   32.1660   38.8760 N   0  0  0  0  0  0  0  0  0  0  0  0
   39.4110   33.0890   39.9880 C   0  0  0  0  0  0  0  0  0  0  0  0
   38.0460   33.7020   40.1160 C   0  0  0  0  0  0  0  0  0  0  0  0
   36.9940   32.7340   40.1520 N   0  0  0  0  0  0  0  0  0  0  0  0
   37.0320   31.7610   39.1050 C   0  0  0  0  0  0  0  0  0  0  0  0
   38.1830   31.8950   38.1540 C   0  0  0  0  0  0  0  0  0  0  0  0
   40.1240   33.9140   39.7820 H   0  0  0  0  0  0  0  0  0  0  0  0
   39.6420   32.5310   40.9010 H   0  0  0  0  0  0  0  0  0  0  0  0
   37.9930   34.2910   41.0580 H   0  0  0  0  0  0  0  0  0  0  0  0
   37.9370   34.3820   39.2320 H   0  0  0  0  0  0  0  0  0  0  0  0
   37.0450   32.2260   41.0640 H   0  0  0  0  0  0  0  0  0  0  0  0
   36.0870   31.8350   38.5270 H   0  0  0  0  0  0  0  0  0  0  0  0
   37.0210   30.7050   39.5050 H   0  0  0  0  0  0  0  0  0  0  0  0
   38.2570   30.9470   37.5900 H   0  0  0  0  0  0  0  0  0  0  0  0
   38.0380   32.7100   37.4110 H   0  0  0  0  0  0  0  0  0  0  0  0
   40.2990   29.6530   39.8840 O   0  0  0  0  0  0  0  0  0  0  0  0
   40.8710   27.1680   40.6120 O   0  0  0  0  0  0  0  0  0  0  0  0
   41.0890   28.6240   41.0090 P   0  0  1  0  0  0  0  0  0  0  0  0
   42.7150   29.0240   41.0330 O   0  0  0  0  0  0  0  0  0  0  0  0
   42.8820   29.6560   41.7770 H   0  0  0  0  0  0  0  0  0  0  0  0
   40.3660   28.8800   42.5270 O   0  0  0  0  0  0  0  0  0  0  0  0
   37.8860   30.5470   42.0190 O   0  0  0  0  0  0  0  0  0  0  0  0
   38.0210   29.4070   42.5640 C   0  0  0  0  0  0  0  0  0  0  0  0
   39.0720   28.3770   42.4220 C   0  0  2  0  0  3  0  0  0  0  0  0
   38.7570   27.4570   43.6050 C   0  0  0  0  0  3  0  0  0  0  0  0
   39.0760   27.9630   44.5220 H   0  0  0  0  0  0  0  0  0  0  0  0
   37.2240   27.4960   43.5640 C   0  0  0  0  0  3  0  0  0  0  0  0
   36.7770   27.0290   44.4480 H   0  0  0  0  0  0  0  0  0  0  0  0
   37.0260   28.9450   43.5010 N   0  0  0  0  0  0  0  0  0  0  0  0
   36.2760   29.4310   44.0740 H   0  0  0  0  0  0  0  0  0  0  0  0
  1  2  1  0  0  0  0
  2  9  1  0  0  0  0
  2  3  2  0  0  0  0
  3 24  1  0  0  0  0
  4  3  1  0  0  0  0
  5  4  2  0  0  0  0
  6  5  1  0  0  0  0
  6  1  2  0  0  0  0
  7  1  1  0  0  0  0
  8  5  1  0  0  0  0
  9 10  1  0  0  0  0
 10 11  1  0  0  0  0
 10 16  1  0  0  0  0
 11 12  1  0  0  0  0
 11 17  1  0  0  0  0
 12 19  1  0  0  0  0
 13 21  1  0  0  0  0
 13 12  1  0  0  0  0
 14  9  1  0  0  0  0
 14 13  1  0  0  0  0
 15 10  1  0  0  0  0
 18 11  1  0  0  0  0
 20 13  1  0  0  0  0
 22 14  1  0  0  0  0
 23 14  1  0  0  0  0
 24 26  1  0  0  0  0
 26 25  2  6  0  0  0
 26 27  1  0  0  0  0
 26 29  1  0  0  0  0
 27 28  1  0  0  0  0
 30 31  2  0  0  0  0
 31 37  1  0  0  0  0
 32 29  1  1  0  0  0
 32 31  1  0  0  0  0
 32 33  1  0  0  0  0
 33 34  1  0  0  0  0
 35 33  1  0  0  0  0
 35 36  1  0  0  0  0
 37 35  1  0  0  0  0
 37 38  1  0  0  0  0
M  END
>  <minimizedAffinity>
-4.97625732

$$$$

 OpenBabel03242520273D

 38 40  0  0  1  0  0  0  0  0999 V2000
   37.3970   27.2530   40.8920 C   0  0  0  0  0  0  0  0  0  0  0  0
   38.2410   28.1250   41.6240 C   0  0  0  0  0  0  0  0  0  0  0  0
   37.8770   29.4580   41.7130 C   0  0  0  0  0  0  0  0  0  0  0  0
   36.7360   29.8720   41.0990 N   0  0  0  0  0  0  0  0  0  0  0  0
   35.9450   29.0290   40.4070 C   0  0  0  0  0  0  0  0  0  0  0  0
   36.2770   27.7350   40.3080 N   0  0  0  0  0  0  0  0  0  0  0  0
   37.6730   26.1970   40.8140 H   0  0  0  0  0  0  0  0  0  0  0  0
   35.0420   29.3840   39.9280 H   0  0  0  0  0  0  0  0  0  0  0  0
   39.3960   27.5360   42.2060 N   0  0  0  0  0  0  0  0  0  0  0  0
   40.6730   27.4540   41.5350 C   0  0  0  0  0  0  0  0  0  0  0  0
   41.7010   26.8790   42.4660 C   0  0  0  0  0  0  0  0  0  0  0  0
   41.2900   25.6520   43.0720 N   0  0  0  0  0  0  0  0  0  0  0  0
   39.9950   25.6820   43.6800 C   0  0  0  0  0  0  0  0  0  0  0  0
   39.2670   26.9860   43.5600 C   0  0  0  0  0  0  0  0  0  0  0  0
   41.0050   28.4790   41.2710 H   0  0  0  0  0  0  0  0  0  0  0  0
   40.5640   26.7950   40.6680 H   0  0  0  0  0  0  0  0  0  0  0  0
   42.6390   26.6780   41.9030 H   0  0  0  0  0  0  0  0  0  0  0  0
   41.8820   27.6700   43.2400 H   0  0  0  0  0  0  0  0  0  0  0  0
   41.2820   24.9080   42.3380 H   0  0  0  0  0  0  0  0  0  0  0  0
   40.1120   25.4410   44.7570 H   0  0  0  0  0  0  0  0  0  0  0  0
   39.3250   24.8610   43.2910 H   0  0  0  0  0  0  0  0  0  0  0  0
   38.2060   26.7950   43.8030 H   0  0  0  0  0  0  0  0  0  0  0  0
   39.6360   27.7550   44.2740 H   0  0  0  0  0  0  0  0  0  0  0  0
   38.7270   30.2890   42.4400 O   0  0  0  0  0  0  0  0  0  0  0  0
   38.8500   32.7230   41.3950 O   0  0  0  0  0  0  0  0  0  0  0  0
   39.6660   31.4500   41.5910 P   0  0  1  0  0  0  0  0  0  0  0  0
   41.0630   31.7360   42.4670 O   0  0  0  0  0  0  0  0  0  0  0  0
   41.7900   31.1640   42.1130 H   0  0  0  0  0  0  0  0  0  0  0  0
   40.0170   30.7970   40.0590 O   0  0  0  0  0  0  0  0  0  0  0  0
   38.0210   31.7600   37.9920 O   0  0  0  0  0  0  0  0  0  0  0  0
   39.2810   31.9110   38.0600 C   0  0  0  0  0  0  0  0  0  0  0  0
   40.2050   31.8880   39.2140 C   0  0  2  0  0  3  0  0  0  0  0  0
   41.5630   31.7970   38.5150 C   0  0  0  0  0  3  0  0  0  0  0  0
   41.6780   30.7780   38.1290 H   0  0  0  0  0  0  0  0  0  0  0  0
   41.3010   32.7180   37.3160 C   0  0  0  0  0  3  0  0  0  0  0  0
   42.1050   32.6660   36.5750 H   0  0  0  0  0  0  0  0  0  0  0  0
   40.0350   32.1500   36.8530 N   0  0  0  0  0  0  0  0  0  0  0  0
   39.8360   31.9950   35.8220 H   0  0  0  0  0  0  0  0  0  0  0  0
  1  2  1  0  0  0  0
  2  3  2  0  0  0  0
  2  9  1  0  0  0  0
  3 24  1  0  0  0  0
  4  3  1  0  0  0  0
  5  4  2  0  0  0  0
  6  5  1  0  0  0  0
  6  1  2  0  0  0  0
  7  1  1  0  0  0  0
  8  5  1  0  0  0  0
  9 14  1  0  0  0  0
 10  9  1  0  0  0  0
 10 11  1  0  0  0  0
 11 12  1  0  0  0  0
 11 18  1  0  0  0  0
 12 13  1  0  0  0  0
 13 20  1  0  0  0  0
 14 13  1  0  0  0  0
 14 22  1  0  0  0  0
 14 23  1  0  0  0  0
 15 10  1  0  0  0  0
 16 10  1  0  0  0  0
 17 11  1  0  0  0  0
 19 12  1  0  0  0  0
 21 13  1  0  0  0  0
 26 25  2  6  0  0  0
 26 24  1  0  0  0  0
 26 27  1  0  0  0  0
 28 27  1  0  0  0  0
 29 26  1  0  0  0  0
 30 31  2  0  0  0  0
 31 32  1  0  0  0  0
 32 29  1  1  0  0  0
 33 32  1  0  0  0  0
 34 33  1  0  0  0  0
 35 33  1  0  0  0  0
 36 35  1  0  0  0  0
 37 35  1  0  0  0  0
 37 31  1  0  0  0  0
 38 37  1  0  0  0  0
M  END
>  <minimizedAffinity>
-4.95843363

$$$$
