
 OpenBabel03242514193D

 49 51  0  0  1  0  0  0  0  0999 V2000
   46.5380   34.4260   43.3610 C   0  0  0  0  0  0  0  0  0  0  0  0
   46.6190   33.5840   44.4430 C   0  0  0  0  0  0  0  0  0  0  0  0
   45.7500   33.8140   45.4750 C   0  0  0  0  0  0  0  0  0  0  0  0
   44.8650   34.8320   45.3940 N   0  0  0  0  0  0  0  0  0  0  0  0
   44.7870   35.6440   44.3490 C   0  0  0  0  0  0  0  0  0  0  0  0
   45.6270   35.4230   43.3540 N   0  0  0  0  0  0  0  0  0  0  0  0
   45.6510   33.2760   46.4060 H   0  0  0  0  0  0  0  0  0  0  0  0
   44.0950   36.4670   44.2460 H   0  0  0  0  0  0  0  0  0  0  0  0
   47.4210   34.1380   42.2240 C   0  0  0  0  0  0  0  0  0  0  0  0
   48.7270   34.8700   42.3430 C   0  0  0  0  0  0  0  0  0  0  0  0
   48.9230   35.8500   41.2760 C   0  0  0  0  0  0  0  0  0  0  0  0
   48.7990   35.2240   39.9040 C   0  0  0  0  0  0  0  0  0  0  0  0
   47.6650   34.2810   39.7780 C   0  0  0  0  0  0  0  0  0  0  0  0
   46.7100   34.4050   40.9460 C   0  0  0  0  0  0  0  0  0  0  0  0
   47.7310   33.0780   42.2890 H   0  0  0  0  0  0  0  0  0  0  0  0
   49.5950   34.1850   42.3590 H   0  0  0  0  0  0  0  0  0  0  0  0
   48.7370   35.3750   43.3310 H   0  0  0  0  0  0  0  0  0  0  0  0
   49.9170   36.3400   41.3410 H   0  0  0  0  0  0  0  0  0  0  0  0
   48.1830   36.6840   41.3340 H   0  0  0  0  0  0  0  0  0  0  0  0
   49.7840   34.7880   39.6240 H   0  0  0  0  0  0  0  0  0  0  0  0
   48.5810   36.0790   39.1990 H   0  0  0  0  0  0  0  0  0  0  0  0
   48.0870   33.2460   39.8310 H   0  0  0  0  0  0  0  0  0  0  0  0
   47.1080   34.3390   38.8340 H   0  0  0  0  0  0  0  0  0  0  0  0
   45.8610   33.7140   40.8310 H   0  0  0  0  0  0  0  0  0  0  0  0
   46.3640   35.4790   40.9850 H   0  0  0  0  0  0  0  0  0  0  0  0
   47.4090   32.5420   44.7050 O   0  0  0  0  0  0  0  0  0  0  0  0
   47.3890   31.5400   45.6320 C   0  0  0  0  0  0  0  0  0  0  0  0
   48.3920   31.5020   46.1290 H   0  0  0  0  0  0  0  0  0  0  0  0
   46.6600   31.5830   46.4450 H   0  0  0  0  0  0  0  0  0  0  0  0
   47.2020   30.1560   45.0240 C   0  0  0  0  0  0  0  0  0  0  0  0
   47.8050   29.4040   45.5230 H   0  0  0  0  0  0  0  0  0  0  0  0
   47.6340   30.2570   43.9860 H   0  0  0  0  0  0  0  0  0  0  0  0
   45.8100   29.8310   44.8350 N   0  0  0  0  0  0  0  0  0  0  0  0
   45.6650   29.2370   43.9970 H   0  0  0  0  0  0  0  0  0  0  0  0
   45.3190   28.8310   46.1790 S   0  0  0  0  0  0  0  0  0  0  0  0
   45.4400   27.3780   45.8280 O   0  0  0  0  0  0  0  0  0  0  0  0
   46.2620   26.9220   45.5140 H   0  0  0  0  0  0  0  0  0  0  0  0
   43.8980   29.1810   46.4890 O   0  0  0  0  0  0  0  0  0  0  0  0
   43.0870   28.7050   46.1470 H   0  0  0  0  0  0  0  0  0  0  0  0
   46.2410   29.1590   47.5270 O   0  0  0  0  0  0  0  0  0  0  0  0
   47.7620   30.8610   49.4550 O   0  0  0  0  0  0  0  0  0  0  0  0
   46.5420   30.8570   49.1730 C   0  0  0  0  0  0  0  0  0  0  0  0
   45.5890   29.9630   48.4480 C   0  0  1  0  0  0  0  0  0  0  0  0
   44.8020   30.9870   47.6580 C   0  0  0  0  0  0  0  0  0  0  0  0
   43.8530   30.5910   47.2500 H   0  0  0  0  0  0  0  0  0  0  0  0
   44.6090   32.0970   48.6400 C   0  0  0  0  0  0  0  0  0  0  0  0
   43.6140   31.9410   49.1340 H   0  0  0  0  0  0  0  0  0  0  0  0
   45.6960   31.9460   49.5970 N   0  0  0  0  0  0  0  0  0  0  0  0
   45.7440   32.6030   50.4320 H   0  0  0  0  0  0  0  0  0  0  0  0
  1  2  1  0  0  0  0
  2 26  1  0  0  0  0
  2  3  2  0  0  0  0
  3  7  1  0  0  0  0
  4  3  1  0  0  0  0
  5  4  2  0  0  0  0
  6  1  2  0  0  0  0
  6  5  1  0  0  0  0
  8  5  1  0  0  0  0
  9 15  1  0  0  0  0
  9 10  1  0  0  0  0
  9  1  1  0  0  0  0
 10 16  1  0  0  0  0
 10 17  1  0  0  0  0
 11 19  1  0  0  0  0
 11 18  1  0  0  0  0
 11 10  1  0  0  0  0
 12 11  1  0  0  0  0
 13 22  1  0  0  0  0
 13 12  1  0  0  0  0
 13 14  1  0  0  0  0
 14 25  1  0  0  0  0
 14  9  1  0  0  0  0
 20 12  1  0  0  0  0
 21 12  1  0  0  0  0
 23 13  1  0  0  0  0
 24 14  1  0  0  0  0
 26 27  1  0  0  0  0
 27 28  1  0  0  0  0
 27 29  1  0  0  0  0
 30 31  1  0  0  0  0
 30 27  1  0  0  0  0
 32 30  1  0  0  0  0
 33 30  1  0  0  0  0
 33 35  1  0  0  0  0
 34 33  1  0  0  0  0
 35 38  1  0  0  0  0
 35 40  1  0  0  0  0
 36 35  1  0  0  0  0
 37 36  1  0  0  0  0
 39 38  1  0  0  0  0
 42 41  2  0  0  0  0
 42 48  1  0  0  0  0
 43 40  1  6  0  0  0
 43 42  1  0  0  0  0
 44 43  1  0  0  0  0
 44 46  1  0  0  0  0
 45 44  1  0  0  0  0
 46 47  1  0  0  0  0
 46 48  1  0  0  0  0
 48 49  1  0  0  0  0
M  END
>  <minimizedAffinity>
-5.58596373

>  <minimizedRMSD>
1.40202141

$$$$
