
 OpenBabel03242515363D

 33 36  0  0  1  0  0  0  0  0999 V2000
   44.5990   34.4390   42.4190 C   0  0  0  0  0  0  0  0  0  0  0  0
   44.9460   33.1940   42.9130 C   0  0  0  0  0  0  0  0  0  0  0  0
   45.2910   33.1310   44.2780 C   0  0  0  0  0  0  0  0  0  0  0  0
   45.2680   34.2480   45.0190 N   0  0  0  0  0  0  0  0  0  0  0  0
   44.9200   35.4480   44.4910 C   0  0  0  0  0  0  0  0  0  0  0  0
   44.5930   35.5090   43.1960 N   0  0  0  0  0  0  0  0  0  0  0  0
   44.9770   32.2800   42.3530 H   0  0  0  0  0  0  0  0  0  0  0  0
   45.5750   32.1890   44.7350 H   0  0  0  0  0  0  0  0  0  0  0  0
   44.1690   34.4430   40.6580 S   0  0  0  0  0  0  0  0  0  0  0  0
   41.6610   35.0810   41.3730 C   0  0  0  0  0  0  0  0  0  0  0  0
   42.3840   34.3340   40.4670 C   0  0  0  0  0  0  0  0  0  0  0  0
   41.7640   33.5770   39.5090 C   0  0  0  0  0  0  0  0  0  0  0  0
   40.3910   33.5260   39.4030 C   0  0  0  0  0  0  0  0  0  0  0  0
   39.6500   34.2840   40.3220 C   0  0  0  0  0  0  0  0  0  0  0  0
   40.2620   35.0490   41.2910 C   0  0  0  0  0  0  0  0  0  0  0  0
   38.2760   34.0700   40.0130 O   0  0  0  0  0  0  0  0  0  0  0  0
   38.2390   32.9190   39.1980 C   0  0  0  0  0  0  0  0  0  0  0  0
   39.5000   32.8630   38.5510 O   0  0  0  0  0  0  0  0  0  0  0  0
   42.0220   35.7170   42.1740 H   0  0  0  0  0  0  0  0  0  0  0  0
   42.3820   33.0110   38.8250 H   0  0  0  0  0  0  0  0  0  0  0  0
   39.6290   35.6170   41.9770 H   0  0  0  0  0  0  0  0  0  0  0  0
   37.4780   33.0500   38.3980 H   0  0  0  0  0  0  0  0  0  0  0  0
   37.9830   32.0000   39.7570 H   0  0  0  0  0  0  0  0  0  0  0  0
   44.8670   36.6450   45.1680 O   0  0  0  0  0  0  0  0  0  0  0  0
   46.0450   37.2640   42.7950 O   0  0  0  0  0  0  0  0  0  0  0  0
   45.7620   38.2130   43.5790 C   0  0  0  0  0  0  0  0  0  0  0  0
   44.7300   37.9060   44.6100 C   0  0  2  0  0  3  0  0  0  0  0  0
   44.9460   39.0350   45.5900 C   0  0  0  0  0  3  0  0  0  0  0  0
   44.0520   39.2710   46.1860 H   0  0  0  0  0  0  0  0  0  0  0  0
   45.1730   40.1970   44.6140 C   0  0  0  0  0  3  0  0  0  0  0  0
   45.5250   41.0900   45.1280 H   0  0  0  0  0  0  0  0  0  0  0  0
   46.1910   39.5790   43.7520 N   0  0  0  0  0  0  0  0  0  0  0  0
   47.0790   39.8100   43.2520 H   0  0  0  0  0  0  0  0  0  0  0  0
  1  2  2  0  0  0  0
  1  6  1  0  0  0  0
  2  3  1  0  0  0  0
  3  8  1  0  0  0  0
  3  4  2  0  0  0  0
  5  4  1  0  0  0  0
  5 24  1  0  0  0  0
  6  5  2  0  0  0  0
  7  2  1  0  0  0  0
  9  1  1  0  0  0  0
 10 19  1  0  0  0  0
 11  9  1  0  0  0  0
 11 10  2  0  0  0  0
 12 11  1  0  0  0  0
 13 12  2  0  0  0  0
 13 14  1  0  0  0  0
 14 15  2  0  0  0  0
 15 10  1  0  0  0  0
 15 21  1  0  0  0  0
 16 14  1  0  0  0  0
 17 23  1  0  0  0  0
 17 16  1  0  0  0  0
 18 17  1  0  0  0  0
 18 13  1  0  0  0  0
 20 12  1  0  0  0  0
 22 17  1  0  0  0  0
 25 26  2  0  0  0  0
 26 32  1  0  0  0  0
 26 27  1  0  0  0  0
 27 24  1  1  0  0  0
 27 28  1  0  0  0  0
 28 29  1  0  0  0  0
 30 31  1  0  0  0  0
 30 28  1  0  0  0  0
 32 30  1  0  0  0  0
 33 32  1  0  0  0  0
M  END
>  <minimizedAffinity>
-1.84129989

>  <minimizedRMSD>
1.5959214

$$$$
