
 OpenBabel03242515373D

 33 36  0  0  1  0  0  0  0  0999 V2000
   46.6990   30.9790   41.4440 C   0  0  0  0  0  0  0  0  0  0  0  0
   47.8950   30.2870   41.5210 C   0  0  0  0  0  0  0  0  0  0  0  0
   48.8330   30.7500   42.4660 C   0  0  0  0  0  0  0  0  0  0  0  0
   48.5340   31.8110   43.2280 N   0  0  0  0  0  0  0  0  0  0  0  0
   47.3480   32.4590   43.1190 C   0  0  0  0  0  0  0  0  0  0  0  0
   46.4580   32.0200   42.2220 N   0  0  0  0  0  0  0  0  0  0  0  0
   48.1700   29.4360   40.9290 H   0  0  0  0  0  0  0  0  0  0  0  0
   49.7930   30.2580   42.5820 H   0  0  0  0  0  0  0  0  0  0  0  0
   45.5440   30.3270   40.2080 S   0  0  0  0  0  0  0  0  0  0  0  0
   44.8640   32.2870   38.5050 C   0  0  0  0  0  0  0  0  0  0  0  0
   44.4480   31.6380   39.6490 C   0  0  0  0  0  0  0  0  0  0  0  0
   43.2870   31.9870   40.2860 C   0  0  0  0  0  0  0  0  0  0  0  0
   42.4800   33.0000   39.8160 C   0  0  0  0  0  0  0  0  0  0  0  0
   42.8980   33.6650   38.6530 C   0  0  0  0  0  0  0  0  0  0  0  0
   44.0640   33.3230   38.0030 C   0  0  0  0  0  0  0  0  0  0  0  0
   41.9120   34.6540   38.3730 O   0  0  0  0  0  0  0  0  0  0  0  0
   41.1670   34.8040   39.5610 C   0  0  0  0  0  0  0  0  0  0  0  0
   41.2710   33.5640   40.2420 O   0  0  0  0  0  0  0  0  0  0  0  0
   45.7520   32.1130   37.9070 H   0  0  0  0  0  0  0  0  0  0  0  0
   43.0110   31.4430   41.1790 H   0  0  0  0  0  0  0  0  0  0  0  0
   44.3340   33.8790   37.1020 H   0  0  0  0  0  0  0  0  0  0  0  0
   40.0920   34.9410   39.3150 H   0  0  0  0  0  0  0  0  0  0  0  0
   41.4860   35.6720   40.1670 H   0  0  0  0  0  0  0  0  0  0  0  0
   46.9520   33.5530   43.8540 O   0  0  0  0  0  0  0  0  0  0  0  0
   46.6270   35.4630   41.9440 O   0  0  0  0  0  0  0  0  0  0  0  0
   45.8840   35.5170   42.9650 C   0  0  0  0  0  0  0  0  0  0  0  0
   45.7580   34.2440   43.7310 C   0  0  2  0  0  3  0  0  0  0  0  0
   45.2020   34.7440   45.0450 C   0  0  0  0  0  3  0  0  0  0  0  0
   44.6300   33.9810   45.5940 H   0  0  0  0  0  0  0  0  0  0  0  0
   44.2050   35.7910   44.5310 C   0  0  0  0  0  3  0  0  0  0  0  0
   43.8130   36.4030   45.3420 H   0  0  0  0  0  0  0  0  0  0  0  0
   45.0900   36.5280   43.6180 N   0  0  0  0  0  0  0  0  0  0  0  0
   45.3120   37.5020   43.3110 H   0  0  0  0  0  0  0  0  0  0  0  0
  1  2  2  0  0  0  0
  1  6  1  0  0  0  0
  2  3  1  0  0  0  0
  3  8  1  0  0  0  0
  3  4  2  0  0  0  0
  5  4  1  0  0  0  0
  5 24  1  0  0  0  0
  6  5  2  0  0  0  0
  7  2  1  0  0  0  0
  9  1  1  0  0  0  0
 10 11  1  0  0  0  0
 11  9  1  0  0  0  0
 11 12  2  0  0  0  0
 12 20  1  0  0  0  0
 13 18  1  0  0  0  0
 13 12  1  0  0  0  0
 14 13  2  0  0  0  0
 15 10  2  0  0  0  0
 15 14  1  0  0  0  0
 16 14  1  0  0  0  0
 16 17  1  0  0  0  0
 17 23  1  0  0  0  0
 17 18  1  0  0  0  0
 19 10  1  0  0  0  0
 21 15  1  0  0  0  0
 22 17  1  0  0  0  0
 25 26  2  0  0  0  0
 26 32  1  0  0  0  0
 26 27  1  0  0  0  0
 27 24  1  1  0  0  0
 27 28  1  0  0  0  0
 28 29  1  0  0  0  0
 30 28  1  0  0  0  0
 30 31  1  0  0  0  0
 32 30  1  0  0  0  0
 33 32  1  0  0  0  0
M  END
>  <minimizedAffinity>
-3.97139215

>  <minimizedRMSD>
3.75971246

$$$$
