
 OpenBabel03242515373D

 33 36  0  0  1  0  0  0  0  0999 V2000
   38.7030   31.0530   40.7420 C   0  0  0  0  0  0  0  0  0  0  0  0
   37.3810   31.4620   40.6890 C   0  0  0  0  0  0  0  0  0  0  0  0
   36.9710   32.1150   39.5090 C   0  0  0  0  0  0  0  0  0  0  0  0
   37.8530   32.3090   38.5180 N   0  0  0  0  0  0  0  0  0  0  0  0
   39.1390   31.8910   38.6150 C   0  0  0  0  0  0  0  0  0  0  0  0
   39.5300   31.2700   39.7340 N   0  0  0  0  0  0  0  0  0  0  0  0
   36.6480   31.3260   41.4590 H   0  0  0  0  0  0  0  0  0  0  0  0
   35.9500   32.4650   39.3950 H   0  0  0  0  0  0  0  0  0  0  0  0
   39.1580   30.2220   42.2870 S   0  0  0  0  0  0  0  0  0  0  0  0
   37.3900   28.4570   43.2700 C   0  0  0  0  0  0  0  0  0  0  0  0
   38.4040   28.5900   42.3450 C   0  0  0  0  0  0  0  0  0  0  0  0
   38.7860   27.5450   41.5460 C   0  0  0  0  0  0  0  0  0  0  0  0
   38.1750   26.3120   41.6280 C   0  0  0  0  0  0  0  0  0  0  0  0
   37.1430   26.1700   42.5680 C   0  0  0  0  0  0  0  0  0  0  0  0
   36.7510   27.2140   43.3760 C   0  0  0  0  0  0  0  0  0  0  0  0
   36.6780   24.8270   42.4630 O   0  0  0  0  0  0  0  0  0  0  0  0
   37.6820   24.1250   41.7630 C   0  0  0  0  0  0  0  0  0  0  0  0
   38.3440   25.0920   40.9620 O   0  0  0  0  0  0  0  0  0  0  0  0
   36.9930   29.1960   43.9570 H   0  0  0  0  0  0  0  0  0  0  0  0
   39.5870   27.7080   40.8390 H   0  0  0  0  0  0  0  0  0  0  0  0
   35.9400   27.0390   44.0880 H   0  0  0  0  0  0  0  0  0  0  0  0
   37.2150   23.4000   41.0620 H   0  0  0  0  0  0  0  0  0  0  0  0
   38.3600   23.5600   42.4290 H   0  0  0  0  0  0  0  0  0  0  0  0
   40.1140   32.0420   37.6560 O   0  0  0  0  0  0  0  0  0  0  0  0
   41.7900   34.1610   37.9870 O   0  0  0  0  0  0  0  0  0  0  0  0
   42.2810   33.0810   37.5510 C   0  0  0  0  0  0  0  0  0  0  0  0
   41.4770   31.8560   37.8240 C   0  0  2  0  0  3  0  0  0  0  0  0
   42.0850   30.8780   36.8450 C   0  0  0  0  0  3  0  0  0  0  0  0
   41.9690   29.8280   37.1500 H   0  0  0  0  0  0  0  0  0  0  0  0
   43.5690   31.2420   36.9930 C   0  0  0  0  0  3  0  0  0  0  0  0
   44.1780   30.7610   36.2300 H   0  0  0  0  0  0  0  0  0  0  0  0
   43.4680   32.7000   36.8270 N   0  0  0  0  0  0  0  0  0  0  0  0
   43.9620   33.5010   36.3730 H   0  0  0  0  0  0  0  0  0  0  0  0
  1  9  1  0  0  0  0
  2  1  1  0  0  0  0
  2  7  1  0  0  0  0
  3  2  2  0  0  0  0
  4  5  2  0  0  0  0
  4  3  1  0  0  0  0
  5  6  1  0  0  0  0
  6  1  2  0  0  0  0
  8  3  1  0  0  0  0
  9 11  1  0  0  0  0
 10 15  1  0  0  0  0
 10 19  1  0  0  0  0
 11 10  2  0  0  0  0
 12 13  2  0  0  0  0
 12 11  1  0  0  0  0
 13 14  1  0  0  0  0
 14 15  2  0  0  0  0
 15 21  1  0  0  0  0
 16 14  1  0  0  0  0
 17 23  1  0  0  0  0
 17 16  1  0  0  0  0
 18 13  1  0  0  0  0
 18 17  1  0  0  0  0
 20 12  1  0  0  0  0
 22 17  1  0  0  0  0
 24  5  1  0  0  0  0
 26 27  1  0  0  0  0
 26 25  2  0  0  0  0
 27 24  1  6  0  0  0
 28 30  1  0  0  0  0
 28 29  1  0  0  0  0
 28 27  1  0  0  0  0
 31 30  1  0  0  0  0
 32 30  1  0  0  0  0
 32 26  1  0  0  0  0
 33 32  1  0  0  0  0
M  END
>  <minimizedAffinity>
-5.56941509

$$$$

 OpenBabel03242515373D

 33 36  0  0  1  0  0  0  0  0999 V2000
   37.7460   29.7420   42.1530 C   0  0  0  0  0  0  0  0  0  0  0  0
   36.5520   30.0570   41.5270 C   0  0  0  0  0  0  0  0  0  0  0  0
   36.6000   31.0720   40.5500 C   0  0  0  0  0  0  0  0  0  0  0  0
   37.7670   31.6740   40.2780 N   0  0  0  0  0  0  0  0  0  0  0  0
   38.9130   31.3320   40.9180 C   0  0  0  0  0  0  0  0  0  0  0  0
   38.8680   30.3680   41.8440 N   0  0  0  0  0  0  0  0  0  0  0  0
   35.6010   29.6000   41.7170 H   0  0  0  0  0  0  0  0  0  0  0  0
   35.7040   31.3730   40.0180 H   0  0  0  0  0  0  0  0  0  0  0  0
   37.6060   28.4290   43.3950 S   0  0  0  0  0  0  0  0  0  0  0  0
   39.2870   26.5190   42.5390 C   0  0  0  0  0  0  0  0  0  0  0  0
   37.9480   26.8360   42.6360 C   0  0  0  0  0  0  0  0  0  0  0  0
   36.9780   25.9830   42.1820 C   0  0  0  0  0  0  0  0  0  0  0  0
   37.2920   24.7700   41.6070 C   0  0  0  0  0  0  0  0  0  0  0  0
   38.6520   24.4430   41.5050 C   0  0  0  0  0  0  0  0  0  0  0  0
   39.6370   25.2920   41.9580 C   0  0  0  0  0  0  0  0  0  0  0  0
   38.7180   23.1610   40.8870 O   0  0  0  0  0  0  0  0  0  0  0  0
   37.4510   22.9490   40.3020 C   0  0  0  0  0  0  0  0  0  0  0  0
   36.5380   23.7200   41.0670 O   0  0  0  0  0  0  0  0  0  0  0  0
   40.1490   27.0970   42.8550 H   0  0  0  0  0  0  0  0  0  0  0  0
   35.9440   26.2830   42.2840 H   0  0  0  0  0  0  0  0  0  0  0  0
   40.6790   24.9800   41.8500 H   0  0  0  0  0  0  0  0  0  0  0  0
   37.1520   21.8870   40.4290 H   0  0  0  0  0  0  0  0  0  0  0  0
   37.4300   23.1780   39.2200 H   0  0  0  0  0  0  0  0  0  0  0  0
   40.1540   31.8890   40.7080 O   0  0  0  0  0  0  0  0  0  0  0  0
   40.5990   34.1590   39.2740 O   0  0  0  0  0  0  0  0  0  0  0  0
   40.6670   33.0540   38.6660 C   0  0  0  0  0  0  0  0  0  0  0  0
   40.8860   31.8600   39.5310 C   0  0  2  0  0  3  0  0  0  0  0  0
   40.4940   30.7400   38.5950 C   0  0  0  0  0  3  0  0  0  0  0  0
   40.9710   29.7800   38.8410 H   0  0  0  0  0  0  0  0  0  0  0  0
   41.1240   31.2500   37.2920 C   0  0  0  0  0  3  0  0  0  0  0  0
   40.8030   30.6610   36.4340 H   0  0  0  0  0  0  0  0  0  0  0  0
   40.5850   32.6190   37.2940 N   0  0  0  0  0  0  0  0  0  0  0  0
   40.1850   33.3350   36.6460 H   0  0  0  0  0  0  0  0  0  0  0  0
  1  9  1  0  0  0  0
  2  7  1  0  0  0  0
  2  1  2  0  0  0  0
  3  2  1  0  0  0  0
  4  3  2  0  0  0  0
  4  5  1  0  0  0  0
  5  6  2  0  0  0  0
  6  1  1  0  0  0  0
  8  3  1  0  0  0  0
 10 11  1  0  0  0  0
 10 19  1  0  0  0  0
 11  9  1  0  0  0  0
 12 20  1  0  0  0  0
 12 11  2  0  0  0  0
 13 12  1  0  0  0  0
 14 13  2  0  0  0  0
 14 15  1  0  0  0  0
 15 10  2  0  0  0  0
 16 14  1  0  0  0  0
 17 22  1  0  0  0  0
 17 16  1  0  0  0  0
 17 18  1  0  0  0  0
 18 13  1  0  0  0  0
 21 15  1  0  0  0  0
 23 17  1  0  0  0  0
 24  5  1  0  0  0  0
 26 25  2  0  0  0  0
 26 27  1  0  0  0  0
 27 24  1  1  0  0  0
 28 29  1  0  0  0  0
 28 27  1  0  0  0  0
 30 32  1  0  0  0  0
 30 28  1  0  0  0  0
 31 30  1  0  0  0  0
 32 26  1  0  0  0  0
 33 32  1  0  0  0  0
M  END
>  <minimizedAffinity>
-5.51094913

$$$$

 OpenBabel03242515373D

 33 36  0  0  1  0  0  0  0  0999 V2000
   36.4930   30.2790   39.1120 C   0  0  0  0  0  0  0  0  0  0  0  0
   36.4660   29.9440   37.7690 C   0  0  0  0  0  0  0  0  0  0  0  0
   37.3280   30.6680   36.9210 C   0  0  0  0  0  0  0  0  0  0  0  0
   38.1140   31.6240   37.4360 N   0  0  0  0  0  0  0  0  0  0  0  0
   38.1070   31.9180   38.7600 C   0  0  0  0  0  0  0  0  0  0  0  0
   37.2900   31.2320   39.5660 N   0  0  0  0  0  0  0  0  0  0  0  0
   35.8520   29.1880   37.3210 H   0  0  0  0  0  0  0  0  0  0  0  0
   37.3610   30.4620   35.8570 H   0  0  0  0  0  0  0  0  0  0  0  0
   35.3600   29.3070   40.1410 S   0  0  0  0  0  0  0  0  0  0  0  0
   36.4800   27.9950   42.1970 C   0  0  0  0  0  0  0  0  0  0  0  0
   36.2310   27.9010   40.8440 C   0  0  0  0  0  0  0  0  0  0  0  0
   36.6290   26.8090   40.1180 C   0  0  0  0  0  0  0  0  0  0  0  0
   37.2950   25.7540   40.7050 C   0  0  0  0  0  0  0  0  0  0  0  0
   37.5510   25.8440   42.0810 C   0  0  0  0  0  0  0  0  0  0  0  0
   37.1560   26.9370   42.8210 C   0  0  0  0  0  0  0  0  0  0  0  0
   38.2380   24.6520   42.4460 O   0  0  0  0  0  0  0  0  0  0  0  0
   38.7020   24.0880   41.2390 C   0  0  0  0  0  0  0  0  0  0  0  0
   37.8090   24.5400   40.2330 O   0  0  0  0  0  0  0  0  0  0  0  0
   36.2230   28.7940   42.8830 H   0  0  0  0  0  0  0  0  0  0  0  0
   36.4070   26.7900   39.0610 H   0  0  0  0  0  0  0  0  0  0  0  0
   37.3860   26.9470   43.8900 H   0  0  0  0  0  0  0  0  0  0  0  0
   38.6000   22.9820   41.2780 H   0  0  0  0  0  0  0  0  0  0  0  0
   39.7630   24.3210   41.0310 H   0  0  0  0  0  0  0  0  0  0  0  0
   38.8750   32.8780   39.3800 O   0  0  0  0  0  0  0  0  0  0  0  0
   39.9900   31.8160   41.6240 O   0  0  0  0  0  0  0  0  0  0  0  0
   40.6670   32.6590   40.9700 C   0  0  0  0  0  0  0  0  0  0  0  0
   40.2500   32.8540   39.5520 C   0  0  2  0  0  3  0  0  0  0  0  0
   40.9300   34.1610   39.2200 C   0  0  0  0  0  3  0  0  0  0  0  0
   41.1310   34.2870   38.1450 H   0  0  0  0  0  0  0  0  0  0  0  0
   42.2780   33.9460   39.9200 C   0  0  0  0  0  3  0  0  0  0  0  0
   42.8670   34.8620   39.9500 H   0  0  0  0  0  0  0  0  0  0  0  0
   41.7880   33.5240   41.2410 N   0  0  0  0  0  0  0  0  0  0  0  0
   41.9890   33.6500   42.2600 H   0  0  0  0  0  0  0  0  0  0  0  0
  1  6  1  0  0  0  0
  1  9  1  0  0  0  0
  2  1  2  0  0  0  0
  3  4  2  0  0  0  0
  3  2  1  0  0  0  0
  4  5  1  0  0  0  0
  5 24  1  0  0  0  0
  5  6  2  0  0  0  0
  7  2  1  0  0  0  0
  8  3  1  0  0  0  0
  9 11  1  0  0  0  0
 10 15  1  0  0  0  0
 10 19  1  0  0  0  0
 11 10  2  0  0  0  0
 12 13  2  0  0  0  0
 12 11  1  0  0  0  0
 13 14  1  0  0  0  0
 14 16  1  0  0  0  0
 14 15  2  0  0  0  0
 15 21  1  0  0  0  0
 17 22  1  0  0  0  0
 17 16  1  0  0  0  0
 18 13  1  0  0  0  0
 18 17  1  0  0  0  0
 20 12  1  0  0  0  0
 23 17  1  0  0  0  0
 26 32  1  0  0  0  0
 26 25  2  0  0  0  0
 27 24  1  1  0  0  0
 27 26  1  0  0  0  0
 28 27  1  0  0  0  0
 28 30  1  0  0  0  0
 29 28  1  0  0  0  0
 30 31  1  0  0  0  0
 30 32  1  0  0  0  0
 32 33  1  0  0  0  0
M  END
>  <minimizedAffinity>
-5.47218466

$$$$

 OpenBabel03242515373D

 33 36  0  0  1  0  0  0  0  0999 V2000
   37.0070   27.4000   38.8020 C   0  0  0  0  0  0  0  0  0  0  0  0
   36.2560   26.3510   38.3000 C   0  0  0  0  0  0  0  0  0  0  0  0
   36.1760   25.1930   39.1010 C   0  0  0  0  0  0  0  0  0  0  0  0
   36.8120   25.1590   40.2800 N   0  0  0  0  0  0  0  0  0  0  0  0
   37.5370   26.2120   40.7320 C   0  0  0  0  0  0  0  0  0  0  0  0
   37.6140   27.3110   39.9730 N   0  0  0  0  0  0  0  0  0  0  0  0
   35.7340   26.3410   37.3640 H   0  0  0  0  0  0  0  0  0  0  0  0
   35.6050   24.3300   38.7720 H   0  0  0  0  0  0  0  0  0  0  0  0
   37.0650   28.8530   37.7200 S   0  0  0  0  0  0  0  0  0  0  0  0
   36.6330   30.7000   39.6190 C   0  0  0  0  0  0  0  0  0  0  0  0
   37.5500   30.3000   38.6700 C   0  0  0  0  0  0  0  0  0  0  0  0
   38.7290   30.9720   38.4880 C   0  0  0  0  0  0  0  0  0  0  0  0
   39.0550   32.0780   39.2440 C   0  0  0  0  0  0  0  0  0  0  0  0
   38.1260   32.4900   40.2110 C   0  0  0  0  0  0  0  0  0  0  0  0
   36.9370   31.8210   40.4030 C   0  0  0  0  0  0  0  0  0  0  0  0
   38.6830   33.6340   40.8500 O   0  0  0  0  0  0  0  0  0  0  0  0
   39.7150   34.0870   40.0010 C   0  0  0  0  0  0  0  0  0  0  0  0
   40.1550   32.9440   39.2840 O   0  0  0  0  0  0  0  0  0  0  0  0
   35.6710   30.2620   39.8650 H   0  0  0  0  0  0  0  0  0  0  0  0
   39.4100   30.6140   37.7290 H   0  0  0  0  0  0  0  0  0  0  0  0
   36.2550   32.1920   41.1730 H   0  0  0  0  0  0  0  0  0  0  0  0
   40.5790   34.4300   40.6100 H   0  0  0  0  0  0  0  0  0  0  0  0
   39.4050   34.9270   39.3520 H   0  0  0  0  0  0  0  0  0  0  0  0
   38.2220   26.2710   41.9240 O   0  0  0  0  0  0  0  0  0  0  0  0
   36.2400   27.1370   43.5760 O   0  0  0  0  0  0  0  0  0  0  0  0
   37.1150   27.9740   43.2130 C   0  0  0  0  0  0  0  0  0  0  0  0
   38.3960   27.3890   42.7240 C   0  0  2  0  0  3  0  0  0  0  0  0
   39.0030   28.5690   42.0020 C   0  0  0  0  0  3  0  0  0  0  0  0
   40.1010   28.5220   41.9380 H   0  0  0  0  0  0  0  0  0  0  0  0
   38.6440   29.6950   42.9810 C   0  0  0  0  0  3  0  0  0  0  0  0
   38.8440   30.6760   42.5550 H   0  0  0  0  0  0  0  0  0  0  0  0
   37.2100   29.4110   43.1430 N   0  0  0  0  0  0  0  0  0  0  0  0
   36.2890   29.9000   43.2200 H   0  0  0  0  0  0  0  0  0  0  0  0
  1  6  1  0  0  0  0
  2  1  2  0  0  0  0
  2  3  1  0  0  0  0
  3  4  2  0  0  0  0
  4  5  1  0  0  0  0
  5 24  1  0  0  0  0
  6  5  2  0  0  0  0
  7  2  1  0  0  0  0
  8  3  1  0  0  0  0
  9 11  1  0  0  0  0
  9  1  1  0  0  0  0
 10 19  1  0  0  0  0
 10 15  1  0  0  0  0
 11 10  2  0  0  0  0
 12 11  1  0  0  0  0
 12 13  2  0  0  0  0
 13 18  1  0  0  0  0
 13 14  1  0  0  0  0
 14 15  2  0  0  0  0
 14 16  1  0  0  0  0
 15 21  1  0  0  0  0
 17 22  1  0  0  0  0
 17 16  1  0  0  0  0
 18 17  1  0  0  0  0
 20 12  1  0  0  0  0
 23 17  1  0  0  0  0
 26 25  2  0  0  0  0
 27 24  1  6  0  0  0
 27 26  1  0  0  0  0
 28 27  1  0  0  0  0
 28 30  1  0  0  0  0
 29 28  1  0  0  0  0
 30 32  1  0  0  0  0
 31 30  1  0  0  0  0
 32 26  1  0  0  0  0
 32 33  1  0  0  0  0
M  END
>  <minimizedAffinity>
-5.46932983

$$$$

 OpenBabel03242515373D

 33 36  0  0  1  0  0  0  0  0999 V2000
   36.3780   29.2710   40.5050 C   0  0  0  0  0  0  0  0  0  0  0  0
   35.9720   28.8880   39.2380 C   0  0  0  0  0  0  0  0  0  0  0  0
   36.0830   27.5170   38.9290 C   0  0  0  0  0  0  0  0  0  0  0  0
   36.5630   26.6680   39.8480 N   0  0  0  0  0  0  0  0  0  0  0  0
   36.9490   27.0890   41.0770 C   0  0  0  0  0  0  0  0  0  0  0  0
   36.8450   28.3900   41.3720 N   0  0  0  0  0  0  0  0  0  0  0  0
   35.5840   29.5360   38.4770 H   0  0  0  0  0  0  0  0  0  0  0  0
   35.7840   27.1420   37.9550 H   0  0  0  0  0  0  0  0  0  0  0  0
   36.2080   31.0460   40.8310 S   0  0  0  0  0  0  0  0  0  0  0  0
   37.8300   33.0420   40.0610 C   0  0  0  0  0  0  0  0  0  0  0  0
   37.8190   31.8400   40.7360 C   0  0  0  0  0  0  0  0  0  0  0  0
   38.9610   31.3150   41.2800 C   0  0  0  0  0  0  0  0  0  0  0  0
   40.1730   31.9630   41.1800 C   0  0  0  0  0  0  0  0  0  0  0  0
   40.1910   33.1870   40.4950 C   0  0  0  0  0  0  0  0  0  0  0  0
   39.0480   33.7250   39.9430 C   0  0  0  0  0  0  0  0  0  0  0  0
   41.5360   33.6530   40.5270 O   0  0  0  0  0  0  0  0  0  0  0  0
   42.3230   32.5360   40.8770 C   0  0  0  0  0  0  0  0  0  0  0  0
   41.4710   31.6810   41.6230 O   0  0  0  0  0  0  0  0  0  0  0  0
   37.0060   33.5660   39.5870 H   0  0  0  0  0  0  0  0  0  0  0  0
   38.8930   30.3690   41.7970 H   0  0  0  0  0  0  0  0  0  0  0  0
   39.1280   34.6820   39.4220 H   0  0  0  0  0  0  0  0  0  0  0  0
   43.1370   32.8510   41.5660 H   0  0  0  0  0  0  0  0  0  0  0  0
   42.7930   32.0450   40.0040 H   0  0  0  0  0  0  0  0  0  0  0  0
   37.4520   26.2970   42.0840 O   0  0  0  0  0  0  0  0  0  0  0  0
   37.8110   23.6540   41.5430 O   0  0  0  0  0  0  0  0  0  0  0  0
   38.6820   24.2350   42.2490 C   0  0  0  0  0  0  0  0  0  0  0  0
   38.7120   25.7220   42.1330 C   0  0  2  0  0  3  0  0  0  0  0  0
   39.5090   26.0980   43.3600 C   0  0  0  0  0  3  0  0  0  0  0  0
   40.0240   27.0660   43.2650 H   0  0  0  0  0  0  0  0  0  0  0  0
   40.5790   24.9990   43.3320 C   0  0  0  0  0  3  0  0  0  0  0  0
   41.1650   24.9860   44.2490 H   0  0  0  0  0  0  0  0  0  0  0  0
   39.7030   23.8270   43.1810 N   0  0  0  0  0  0  0  0  0  0  0  0
   39.5970   22.8440   43.5220 H   0  0  0  0  0  0  0  0  0  0  0  0
  1  9  1  0  0  0  0
  1  6  1  0  0  0  0
  2  1  2  0  0  0  0
  3  2  1  0  0  0  0
  3  4  2  0  0  0  0
  4  5  1  0  0  0  0
  5  6  2  0  0  0  0
  5 24  1  0  0  0  0
  7  2  1  0  0  0  0
  8  3  1  0  0  0  0
 10 11  1  0  0  0  0
 11  9  1  0  0  0  0
 11 12  2  0  0  0  0
 12 20  1  0  0  0  0
 13 12  1  0  0  0  0
 13 18  1  0  0  0  0
 14 16  1  0  0  0  0
 14 13  2  0  0  0  0
 15 10  2  0  0  0  0
 15 14  1  0  0  0  0
 16 17  1  0  0  0  0
 17 22  1  0  0  0  0
 17 18  1  0  0  0  0
 19 10  1  0  0  0  0
 21 15  1  0  0  0  0
 23 17  1  0  0  0  0
 25 26  2  0  0  0  0
 26 32  1  0  0  0  0
 27 24  1  1  0  0  0
 27 26  1  0  0  0  0
 27 28  1  0  0  0  0
 29 28  1  0  0  0  0
 30 28  1  0  0  0  0
 30 31  1  0  0  0  0
 32 30  1  0  0  0  0
 32 33  1  0  0  0  0
M  END
>  <minimizedAffinity>
-5.42358255

$$$$

 OpenBabel03242515373D

 33 36  0  0  1  0  0  0  0  0999 V2000
   36.6760   28.7800   41.3090 C   0  0  0  0  0  0  0  0  0  0  0  0
   35.4090   28.6970   40.7570 C   0  0  0  0  0  0  0  0  0  0  0  0
   35.2050   29.3780   39.5400 C   0  0  0  0  0  0  0  0  0  0  0  0
   36.2170   30.0590   38.9850 N   0  0  0  0  0  0  0  0  0  0  0  0
   37.4430   30.1130   39.5620 C   0  0  0  0  0  0  0  0  0  0  0  0
   37.6380   29.4670   40.7170 N   0  0  0  0  0  0  0  0  0  0  0  0
   34.5750   28.1640   41.1700 H   0  0  0  0  0  0  0  0  0  0  0  0
   34.2370   29.3580   39.0490 H   0  0  0  0  0  0  0  0  0  0  0  0
   36.8630   27.8810   42.8710 S   0  0  0  0  0  0  0  0  0  0  0  0
   38.3150   25.6630   42.4470 C   0  0  0  0  0  0  0  0  0  0  0  0
   38.4150   26.9720   42.8670 C   0  0  0  0  0  0  0  0  0  0  0  0
   39.6160   27.5110   43.2460 C   0  0  0  0  0  0  0  0  0  0  0  0
   40.7790   26.7720   43.2250 C   0  0  0  0  0  0  0  0  0  0  0  0
   40.6830   25.4390   42.7980 C   0  0  0  0  0  0  0  0  0  0  0  0
   39.4810   24.8860   42.4150 C   0  0  0  0  0  0  0  0  0  0  0  0
   41.9980   24.8950   42.8630 O   0  0  0  0  0  0  0  0  0  0  0  0
   42.7410   25.7770   43.6750 C   0  0  0  0  0  0  0  0  0  0  0  0
   42.1150   27.0440   43.5440 O   0  0  0  0  0  0  0  0  0  0  0  0
   37.4350   25.1160   42.1230 H   0  0  0  0  0  0  0  0  0  0  0  0
   39.6350   28.5430   43.5660 H   0  0  0  0  0  0  0  0  0  0  0  0
   39.4730   23.8410   42.0930 H   0  0  0  0  0  0  0  0  0  0  0  0
   43.7690   25.8880   43.2670 H   0  0  0  0  0  0  0  0  0  0  0  0
   42.8310   25.4310   44.7220 H   0  0  0  0  0  0  0  0  0  0  0  0
   38.5400   30.7820   39.0700 O   0  0  0  0  0  0  0  0  0  0  0  0
   40.6910   31.3840   40.6250 O   0  0  0  0  0  0  0  0  0  0  0  0
   39.7820   32.2540   40.5120 C   0  0  0  0  0  0  0  0  0  0  0  0
   38.8900   32.0980   39.3270 C   0  0  2  0  0  3  0  0  0  0  0  0
   37.7240   32.9770   39.7170 C   0  0  0  0  0  3  0  0  0  0  0  0
   37.1610   33.3620   38.8530 H   0  0  0  0  0  0  0  0  0  0  0  0
   38.4770   34.1580   40.3430 C   0  0  0  0  0  3  0  0  0  0  0  0
   37.7990   34.8390   40.8550 H   0  0  0  0  0  0  0  0  0  0  0  0
   39.3560   33.4130   41.2570 N   0  0  0  0  0  0  0  0  0  0  0  0
   39.7470   33.4600   42.2260 H   0  0  0  0  0  0  0  0  0  0  0  0
  1  9  1  0  0  0  0
  2  7  1  0  0  0  0
  2  1  1  0  0  0  0
  3  2  2  0  0  0  0
  4  3  1  0  0  0  0
  4  5  2  0  0  0  0
  5  6  1  0  0  0  0
  6  1  2  0  0  0  0
  8  3  1  0  0  0  0
 10 11  1  0  0  0  0
 11  9  1  0  0  0  0
 11 12  2  0  0  0  0
 12 20  1  0  0  0  0
 13 12  1  0  0  0  0
 13 18  1  0  0  0  0
 14 16  1  0  0  0  0
 14 13  2  0  0  0  0
 15 10  2  0  0  0  0
 15 14  1  0  0  0  0
 16 17  1  0  0  0  0
 17 23  1  0  0  0  0
 18 17  1  0  0  0  0
 19 10  1  0  0  0  0
 21 15  1  0  0  0  0
 22 17  1  0  0  0  0
 24  5  1  0  0  0  0
 26 25  2  0  0  0  0
 26 32  1  0  0  0  0
 27 24  1  1  0  0  0
 27 28  1  0  0  0  0
 27 26  1  0  0  0  0
 28 30  1  0  0  0  0
 29 28  1  0  0  0  0
 30 31  1  0  0  0  0
 30 32  1  0  0  0  0
 32 33  1  0  0  0  0
M  END
>  <minimizedAffinity>
-5.38939476

$$$$

 OpenBabel03242515373D

 33 36  0  0  1  0  0  0  0  0999 V2000
   36.6060   26.0610   39.8880 C   0  0  0  0  0  0  0  0  0  0  0  0
   36.6140   24.6770   39.8450 C   0  0  0  0  0  0  0  0  0  0  0  0
   36.9010   24.0110   41.0530 C   0  0  0  0  0  0  0  0  0  0  0  0
   37.1480   24.7240   42.1600 N   0  0  0  0  0  0  0  0  0  0  0  0
   37.1290   26.0800   42.1550 C   0  0  0  0  0  0  0  0  0  0  0  0
   36.8560   26.7140   41.0090 N   0  0  0  0  0  0  0  0  0  0  0  0
   36.4220   24.0730   38.9810 H   0  0  0  0  0  0  0  0  0  0  0  0
   36.9260   22.9260   41.0960 H   0  0  0  0  0  0  0  0  0  0  0  0
   36.2290   26.8490   38.2990 S   0  0  0  0  0  0  0  0  0  0  0  0
   36.9910   29.1830   37.2150 C   0  0  0  0  0  0  0  0  0  0  0  0
   36.5720   28.6110   38.3980 C   0  0  0  0  0  0  0  0  0  0  0  0
   36.4380   29.3520   39.5420 C   0  0  0  0  0  0  0  0  0  0  0  0
   36.7140   30.7020   39.5650 C   0  0  0  0  0  0  0  0  0  0  0  0
   37.1400   31.2900   38.3650 C   0  0  0  0  0  0  0  0  0  0  0  0
   37.2790   30.5550   37.2080 C   0  0  0  0  0  0  0  0  0  0  0  0
   37.3580   32.6700   38.6420 O   0  0  0  0  0  0  0  0  0  0  0  0
   37.4300   32.7750   40.0460 C   0  0  0  0  0  0  0  0  0  0  0  0
   36.6690   31.6910   40.5550 O   0  0  0  0  0  0  0  0  0  0  0  0
   37.1380   28.7160   36.2470 H   0  0  0  0  0  0  0  0  0  0  0  0
   36.1060   28.8500   40.4400 H   0  0  0  0  0  0  0  0  0  0  0  0
   37.6150   31.0710   36.3050 H   0  0  0  0  0  0  0  0  0  0  0  0
   36.9200   33.7040   40.3800 H   0  0  0  0  0  0  0  0  0  0  0  0
   38.4690   32.8070   40.4260 H   0  0  0  0  0  0  0  0  0  0  0  0
   37.3680   26.8970   43.2370 O   0  0  0  0  0  0  0  0  0  0  0  0
   37.8870   29.5440   42.8760 O   0  0  0  0  0  0  0  0  0  0  0  0
   38.8700   28.7560   42.9590 C   0  0  0  0  0  0  0  0  0  0  0  0
   38.5860   27.4440   43.6080 C   0  0  2  0  0  3  0  0  0  0  0  0
   39.7810   26.6310   43.1670 C   0  0  0  0  0  3  0  0  0  0  0  0
   40.0180   25.8000   43.8490 H   0  0  0  0  0  0  0  0  0  0  0  0
   40.8890   27.6820   43.3150 C   0  0  0  0  0  3  0  0  0  0  0  0
   41.8250   27.3440   42.8730 H   0  0  0  0  0  0  0  0  0  0  0  0
   40.2600   28.7870   42.5750 N   0  0  0  0  0  0  0  0  0  0  0  0
   40.4940   29.5460   41.8950 H   0  0  0  0  0  0  0  0  0  0  0  0
  1  6  1  0  0  0  0
  2  1  2  0  0  0  0
  2  3  1  0  0  0  0
  3  8  1  0  0  0  0
  3  4  2  0  0  0  0
  5  4  1  0  0  0  0
  5 24  1  0  0  0  0
  6  5  2  0  0  0  0
  7  2  1  0  0  0  0
  9 11  1  0  0  0  0
  9  1  1  0  0  0  0
 10 11  1  0  0  0  0
 11 12  2  0  0  0  0
 12 13  1  0  0  0  0
 12 20  1  0  0  0  0
 13 18  1  0  0  0  0
 14 16  1  0  0  0  0
 14 13  2  0  0  0  0
 15 10  2  0  0  0  0
 15 14  1  0  0  0  0
 16 17  1  0  0  0  0
 17 22  1  0  0  0  0
 17 23  1  0  0  0  0
 17 18  1  0  0  0  0
 19 10  1  0  0  0  0
 21 15  1  0  0  0  0
 25 26  2  0  0  0  0
 26 27  1  0  0  0  0
 27 24  1  6  0  0  0
 28 30  1  0  0  0  0
 28 27  1  0  0  0  0
 28 29  1  0  0  0  0
 31 30  1  0  0  0  0
 32 26  1  0  0  0  0
 32 30  1  0  0  0  0
 33 32  1  0  0  0  0
M  END
>  <minimizedAffinity>
-5.38720036

$$$$

 OpenBabel03242515373D

 33 36  0  0  1  0  0  0  0  0999 V2000
   36.2440   29.6660   39.0690 C   0  0  0  0  0  0  0  0  0  0  0  0
   35.8640   29.0830   37.8720 C   0  0  0  0  0  0  0  0  0  0  0  0
   36.4450   29.6100   36.7010 C   0  0  0  0  0  0  0  0  0  0  0  0
   37.3150   30.6260   36.7930 N   0  0  0  0  0  0  0  0  0  0  0  0
   37.6580   31.1660   37.9890 C   0  0  0  0  0  0  0  0  0  0  0  0
   37.1080   30.6660   39.1010 N   0  0  0  0  0  0  0  0  0  0  0  0
   35.1730   28.2710   37.7580 H   0  0  0  0  0  0  0  0  0  0  0  0
   36.1940   29.2040   35.7260 H   0  0  0  0  0  0  0  0  0  0  0  0
   35.4580   28.9360   40.5300 S   0  0  0  0  0  0  0  0  0  0  0  0
   37.3440   28.7740   42.4340 C   0  0  0  0  0  0  0  0  0  0  0  0
   36.6790   28.0260   41.4860 C   0  0  0  0  0  0  0  0  0  0  0  0
   36.9480   26.6940   41.3100 C   0  0  0  0  0  0  0  0  0  0  0  0
   37.8940   26.0410   42.0700 C   0  0  0  0  0  0  0  0  0  0  0  0
   38.5740   26.7980   43.0350 C   0  0  0  0  0  0  0  0  0  0  0  0
   38.3120   28.1370   43.2220 C   0  0  0  0  0  0  0  0  0  0  0  0
   39.4850   25.9120   43.6800 O   0  0  0  0  0  0  0  0  0  0  0  0
   39.5930   24.7880   42.8350 C   0  0  0  0  0  0  0  0  0  0  0  0
   38.3710   24.7250   42.1160 O   0  0  0  0  0  0  0  0  0  0  0  0
   37.2290   29.8260   42.6750 H   0  0  0  0  0  0  0  0  0  0  0  0
   36.3960   26.1570   40.5520 H   0  0  0  0  0  0  0  0  0  0  0  0
   38.8760   28.6710   43.9910 H   0  0  0  0  0  0  0  0  0  0  0  0
   39.6470   23.8620   43.4470 H   0  0  0  0  0  0  0  0  0  0  0  0
   40.4890   24.8160   42.1880 H   0  0  0  0  0  0  0  0  0  0  0  0
   38.5380   32.2050   38.1840 O   0  0  0  0  0  0  0  0  0  0  0  0
   38.0460   33.9770   40.1900 O   0  0  0  0  0  0  0  0  0  0  0  0
   39.2440   33.6290   39.9900 C   0  0  0  0  0  0  0  0  0  0  0  0
   39.4230   32.3530   39.2400 C   0  0  2  0  0  3  0  0  0  0  0  0
   40.8690   32.4600   38.8160 C   0  0  0  0  0  3  0  0  0  0  0  0
   41.3440   31.4830   38.6380 H   0  0  0  0  0  0  0  0  0  0  0  0
   41.4800   33.0460   40.0960 C   0  0  0  0  0  3  0  0  0  0  0  0
   42.5090   33.3680   39.9390 H   0  0  0  0  0  0  0  0  0  0  0  0
   40.5450   34.1610   40.3090 N   0  0  0  0  0  0  0  0  0  0  0  0
   40.5320   35.1640   40.6040 H   0  0  0  0  0  0  0  0  0  0  0  0
  1  6  1  0  0  0  0
  1  9  1  0  0  0  0
  2  1  2  0  0  0  0
  3  4  2  0  0  0  0
  3  2  1  0  0  0  0
  4  5  1  0  0  0  0
  5 24  1  0  0  0  0
  5  6  2  0  0  0  0
  7  2  1  0  0  0  0
  8  3  1  0  0  0  0
  9 11  1  0  0  0  0
 10 19  1  0  0  0  0
 10 15  1  0  0  0  0
 11 10  2  0  0  0  0
 12 11  1  0  0  0  0
 12 13  2  0  0  0  0
 13 18  1  0  0  0  0
 13 14  1  0  0  0  0
 14 15  2  0  0  0  0
 14 16  1  0  0  0  0
 15 21  1  0  0  0  0
 17 22  1  0  0  0  0
 17 16  1  0  0  0  0
 18 17  1  0  0  0  0
 20 12  1  0  0  0  0
 23 17  1  0  0  0  0
 26 25  2  0  0  0  0
 26 32  1  0  0  0  0
 27 24  1  6  0  0  0
 27 26  1  0  0  0  0
 28 27  1  0  0  0  0
 28 30  1  0  0  0  0
 29 28  1  0  0  0  0
 30 32  1  0  0  0  0
 31 30  1  0  0  0  0
 32 33  1  0  0  0  0
M  END
>  <minimizedAffinity>
-5.35016394

$$$$

 OpenBabel03242515373D

 33 36  0  0  1  0  0  0  0  0999 V2000
   38.1810   29.4910   42.4810 C   0  0  0  0  0  0  0  0  0  0  0  0
   39.2710   30.2400   42.8890 C   0  0  0  0  0  0  0  0  0  0  0  0
   39.6680   31.2910   42.0380 C   0  0  0  0  0  0  0  0  0  0  0  0
   38.9940   31.5130   40.9010 N   0  0  0  0  0  0  0  0  0  0  0  0
   37.9310   30.7520   40.5410 C   0  0  0  0  0  0  0  0  0  0  0  0
   37.5520   29.7550   41.3480 N   0  0  0  0  0  0  0  0  0  0  0  0
   39.8350   30.0930   43.7890 H   0  0  0  0  0  0  0  0  0  0  0  0
   40.5150   31.9200   42.2930 H   0  0  0  0  0  0  0  0  0  0  0  0
   37.7270   28.1590   43.6240 S   0  0  0  0  0  0  0  0  0  0  0  0
   39.2050   26.0250   42.9400 C   0  0  0  0  0  0  0  0  0  0  0  0
   37.9420   26.5660   42.8180 C   0  0  0  0  0  0  0  0  0  0  0  0
   36.9500   25.9190   42.1320 C   0  0  0  0  0  0  0  0  0  0  0  0
   37.1650   24.6970   41.5310 C   0  0  0  0  0  0  0  0  0  0  0  0
   38.4480   24.1410   41.6510 C   0  0  0  0  0  0  0  0  0  0  0  0
   39.4540   24.7830   42.3390 C   0  0  0  0  0  0  0  0  0  0  0  0
   38.4200   22.8970   40.9570 O   0  0  0  0  0  0  0  0  0  0  0  0
   37.2710   22.9380   40.1390 C   0  0  0  0  0  0  0  0  0  0  0  0
   36.3680   23.8210   40.7840 O   0  0  0  0  0  0  0  0  0  0  0  0
   40.0730   26.4280   43.4510 H   0  0  0  0  0  0  0  0  0  0  0  0
   35.9800   26.3910   42.0690 H   0  0  0  0  0  0  0  0  0  0  0  0
   40.4320   24.2980   42.3970 H   0  0  0  0  0  0  0  0  0  0  0  0
   36.7830   21.9390   40.1270 H   0  0  0  0  0  0  0  0  0  0  0  0
   37.4940   23.2150   39.0920 H   0  0  0  0  0  0  0  0  0  0  0  0
   37.1780   30.9020   39.3990 O   0  0  0  0  0  0  0  0  0  0  0  0
   38.7360   31.7670   37.3420 O   0  0  0  0  0  0  0  0  0  0  0  0
   37.8000   30.9610   37.0760 C   0  0  0  0  0  0  0  0  0  0  0  0
   37.2920   30.1660   38.2300 C   0  0  2  0  0  3  0  0  0  0  0  0
   35.9710   29.6700   37.6890 C   0  0  0  0  0  3  0  0  0  0  0  0
   35.6270   28.7400   38.1660 H   0  0  0  0  0  0  0  0  0  0  0  0
   36.3830   29.3280   36.2510 C   0  0  0  0  0  3  0  0  0  0  0  0
   35.5180   29.1110   35.6270 H   0  0  0  0  0  0  0  0  0  0  0  0
   37.0570   30.5870   35.8980 N   0  0  0  0  0  0  0  0  0  0  0  0
   37.1590   31.2570   35.1020 H   0  0  0  0  0  0  0  0  0  0  0  0
  1  2  1  0  0  0  0
  1  9  1  0  0  0  0
  2  7  1  0  0  0  0
  3  8  1  0  0  0  0
  3  2  2  0  0  0  0
  4  3  1  0  0  0  0
  5  4  2  0  0  0  0
  5  6  1  0  0  0  0
  6  1  2  0  0  0  0
 10 19  1  0  0  0  0
 11 10  1  0  0  0  0
 11  9  1  0  0  0  0
 12 11  2  0  0  0  0
 13 14  2  0  0  0  0
 13 12  1  0  0  0  0
 14 15  1  0  0  0  0
 15 21  1  0  0  0  0
 15 10  2  0  0  0  0
 16 14  1  0  0  0  0
 17 18  1  0  0  0  0
 17 16  1  0  0  0  0
 18 13  1  0  0  0  0
 20 12  1  0  0  0  0
 22 17  1  0  0  0  0
 23 17  1  0  0  0  0
 24  5  1  0  0  0  0
 26 25  2  0  0  0  0
 26 27  1  0  0  0  0
 27 24  1  1  0  0  0
 28 29  1  0  0  0  0
 28 27  1  0  0  0  0
 30 28  1  0  0  0  0
 31 30  1  0  0  0  0
 32 30  1  0  0  0  0
 32 26  1  0  0  0  0
 33 32  1  0  0  0  0
M  END
>  <minimizedAffinity>
-5.34605646

$$$$
