
 OpenBabel03252507373D

 38 42  0  0  1  0  0  0  0  0999 V2000
   45.7850   34.8070   43.5260 C   0  0  0  0  0  0  0  0  0  0  0  0
   46.4860   33.7460   44.1360 C   0  0  0  0  0  0  0  0  0  0  0  0
   46.1900   33.4780   45.4640 C   0  0  0  0  0  0  0  0  0  0  0  0
   45.2630   34.2250   46.1040 N   0  0  0  0  0  0  0  0  0  0  0  0
   44.6030   35.2380   45.4940 C   0  0  0  0  0  0  0  0  0  0  0  0
   44.8690   35.5170   44.2210 N   0  0  0  0  0  0  0  0  0  0  0  0
   47.2130   33.1560   43.6410 H   0  0  0  0  0  0  0  0  0  0  0  0
   43.8670   35.8240   46.0210 H   0  0  0  0  0  0  0  0  0  0  0  0
   47.0590   32.6470   47.5880 C   0  0  0  0  0  0  0  0  0  0  0  0
   46.8240   32.4160   46.2390 C   0  0  0  0  0  0  0  0  0  0  0  0
   47.1990   31.2050   45.7070 C   0  0  0  0  0  0  0  0  0  0  0  0
   47.7970   30.2110   46.4560 C   0  0  0  0  0  0  0  0  0  0  0  0
   48.2380   28.9790   46.1630 N   0  0  0  0  0  0  0  0  0  0  0  0
   48.7510   28.4350   47.3300 C   0  0  0  0  0  0  0  0  0  0  0  0
   48.6110   29.3420   48.3030 N   0  0  0  0  0  0  0  0  0  0  0  0
   48.0300   30.4390   47.7960 C   0  0  0  0  0  0  0  0  0  0  0  0
   47.6610   31.6530   48.3530 C   0  0  0  0  0  0  0  0  0  0  0  0
   46.8110   33.5510   48.1160 H   0  0  0  0  0  0  0  0  0  0  0  0
   47.0010   31.0510   44.6400 H   0  0  0  0  0  0  0  0  0  0  0  0
   48.1700   28.5730   45.1950 H   0  0  0  0  0  0  0  0  0  0  0  0
   49.1500   27.4290   47.2550 H   0  0  0  0  0  0  0  0  0  0  0  0
   47.8640   31.7910   49.4160 H   0  0  0  0  0  0  0  0  0  0  0  0
   46.0530   35.1050   42.2050 O   0  0  0  0  0  0  0  0  0  0  0  0
   45.3230   34.5350   41.1660 C   0  0  0  0  0  0  0  0  0  0  0  0
   46.2110   33.6860   40.5820 C   0  0  0  0  0  0  0  0  0  0  0  0
   45.1450   32.9610   39.1940 S   0  0  0  0  0  0  0  0  0  0  0  0
   43.6690   34.0300   39.7530 C   0  0  0  0  0  0  0  0  0  0  0  0
   44.1340   34.5560   40.6090 N   0  0  0  0  0  0  0  0  0  0  0  0
   47.1900   33.2360   40.5230 H   0  0  0  0  0  0  0  0  0  0  0  0
   41.1550   33.7330   41.3090 O   0  0  0  0  0  0  0  0  0  0  0  0
   41.2980   34.1380   40.1250 C   0  0  0  0  0  0  0  0  0  0  0  0
   42.3440   34.0370   39.1130 C   0  0  1  0  0  3  0  0  0  0  0  0
   42.1510   35.3250   38.3360 C   0  0  0  0  0  3  0  0  0  0  0  0
   42.6860   35.3280   37.3720 H   0  0  0  0  0  0  0  0  0  0  0  0
   40.6360   35.2920   38.1610 C   0  0  0  0  0  3  0  0  0  0  0  0
   40.2100   36.2480   37.8560 H   0  0  0  0  0  0  0  0  0  0  0  0
   40.2350   34.8960   39.5120 N   0  0  0  0  0  0  0  0  0  0  0  0
   39.2990   35.1590   39.9150 H   0  0  0  0  0  0  0  0  0  0  0  0
  1  2  2  0  0  0  0
  1  6  1  0  0  0  0
  2  3  1  0  0  0  0
  3  4  2  0  0  0  0
  3 10  1  0  0  0  0
  5  8  1  0  0  0  0
  5  4  1  0  0  0  0
  6  5  2  0  0  0  0
  7  2  1  0  0  0  0
  9 18  1  0  0  0  0
  9 17  1  0  0  0  0
 10  9  2  0  0  0  0
 11 10  1  0  0  0  0
 11 12  2  0  0  0  0
 12 16  1  0  0  0  0
 13 12  1  0  0  0  0
 13 14  1  0  0  0  0
 14 15  2  0  0  0  0
 16 15  1  0  0  0  0
 16 17  2  0  0  0  0
 17 22  1  0  0  0  0
 19 11  1  0  0  0  0
 20 13  1  0  0  0  0
 21 14  1  0  0  0  0
 23  1  1  0  0  0  0
 24 23  1  0  0  0  0
 25 24  2  0  0  0  0
 26 27  1  0  0  0  0
 26 25  1  0  0  0  0
 27 28  2  0  0  0  0
 28 24  1  0  0  0  0
 29 25  1  0  0  0  0
 31 30  2  0  0  0  0
 32 27  1  1  0  0  0
 32 31  1  0  0  0  0
 33 32  1  0  0  0  0
 34 33  1  0  0  0  0
 35 33  1  0  0  0  0
 35 37  1  0  0  0  0
 36 35  1  0  0  0  0
 37 38  1  0  0  0  0
 37 31  1  0  0  0  0
M  END
>  <minimizedAffinity>
-6.45875025

>  <minimizedRMSD>
1.24779308

$$$$
