
 OpenBabel03252507373D

 38 42  0  0  1  0  0  0  0  0999 V2000
   44.7510   30.1640   43.3250 C   0  0  0  0  0  0  0  0  0  0  0  0
   44.0410   31.2700   42.8140 C   0  0  0  0  0  0  0  0  0  0  0  0
   42.7640   31.0300   42.3300 C   0  0  0  0  0  0  0  0  0  0  0  0
   42.2630   29.7750   42.3680 N   0  0  0  0  0  0  0  0  0  0  0  0
   42.9650   28.7300   42.8650 C   0  0  0  0  0  0  0  0  0  0  0  0
   44.1930   28.9320   43.3350 N   0  0  0  0  0  0  0  0  0  0  0  0
   44.4270   32.2560   42.7810 H   0  0  0  0  0  0  0  0  0  0  0  0
   42.5490   27.7350   42.8860 H   0  0  0  0  0  0  0  0  0  0  0  0
   40.5270   31.9180   41.9240 C   0  0  0  0  0  0  0  0  0  0  0  0
   41.9000   32.0640   41.7700 C   0  0  0  0  0  0  0  0  0  0  0  0
   42.3700   33.1700   41.1030 C   0  0  0  0  0  0  0  0  0  0  0  0
   41.5380   34.1400   40.5810 C   0  0  0  0  0  0  0  0  0  0  0  0
   41.7630   35.2790   39.9080 N   0  0  0  0  0  0  0  0  0  0  0  0
   40.5280   35.8490   39.6380 C   0  0  0  0  0  0  0  0  0  0  0  0
   39.5850   35.0510   40.1500 N   0  0  0  0  0  0  0  0  0  0  0  0
   40.1760   33.9970   40.7320 C   0  0  0  0  0  0  0  0  0  0  0  0
   39.6780   32.8900   41.4020 C   0  0  0  0  0  0  0  0  0  0  0  0
   40.0420   31.1000   42.4250 H   0  0  0  0  0  0  0  0  0  0  0  0
   43.4580   33.2580   40.9970 H   0  0  0  0  0  0  0  0  0  0  0  0
   42.7320   35.6080   39.6670 H   0  0  0  0  0  0  0  0  0  0  0  0
   40.5430   36.7870   39.0930 H   0  0  0  0  0  0  0  0  0  0  0  0
   38.5950   32.8160   41.4990 H   0  0  0  0  0  0  0  0  0  0  0  0
   46.0260   30.3630   43.8160 O   0  0  0  0  0  0  0  0  0  0  0  0
   47.0470   30.8600   43.0120 C   0  0  0  0  0  0  0  0  0  0  0  0
   47.5500   29.7470   42.4130 C   0  0  0  0  0  0  0  0  0  0  0  0
   48.9190   30.5080   41.3480 S   0  0  0  0  0  0  0  0  0  0  0  0
   48.4720   32.2460   41.9940 C   0  0  0  0  0  0  0  0  0  0  0  0
   47.6380   31.9820   42.6730 N   0  0  0  0  0  0  0  0  0  0  0  0
   47.5530   28.6810   42.2510 H   0  0  0  0  0  0  0  0  0  0  0  0
   48.1660   33.4250   39.2830 O   0  0  0  0  0  0  0  0  0  0  0  0
   48.6200   33.9670   40.3250 C   0  0  0  0  0  0  0  0  0  0  0  0
   49.1490   33.4910   41.5980 C   0  0  1  0  0  3  0  0  0  0  0  0
   48.7580   34.6140   42.5390 C   0  0  0  0  0  3  0  0  0  0  0  0
   49.2820   34.5630   43.5080 H   0  0  0  0  0  0  0  0  0  0  0  0
   49.1970   35.8120   41.7010 C   0  0  0  0  0  3  0  0  0  0  0  0
   48.7840   36.7600   42.0450 H   0  0  0  0  0  0  0  0  0  0  0  0
   48.6780   35.4070   40.3940 N   0  0  0  0  0  0  0  0  0  0  0  0
   48.4090   36.1110   39.6590 H   0  0  0  0  0  0  0  0  0  0  0  0
  1  6  1  0  0  0  0
  1 23  1  0  0  0  0
  2  1  2  0  0  0  0
  3  4  2  0  0  0  0
  3  2  1  0  0  0  0
  4  5  1  0  0  0  0
  5  8  1  0  0  0  0
  5  6  2  0  0  0  0
  7  2  1  0  0  0  0
  9 18  1  0  0  0  0
 10  9  1  0  0  0  0
 10  3  1  0  0  0  0
 11 10  2  0  0  0  0
 12 16  2  0  0  0  0
 12 11  1  0  0  0  0
 13 12  1  0  0  0  0
 14 13  1  0  0  0  0
 14 15  2  0  0  0  0
 15 16  1  0  0  0  0
 16 17  1  0  0  0  0
 17 22  1  0  0  0  0
 17  9  2  0  0  0  0
 19 11  1  0  0  0  0
 20 13  1  0  0  0  0
 21 14  1  0  0  0  0
 24 23  1  0  0  0  0
 25 24  2  0  0  0  0
 26 27  1  0  0  0  0
 26 25  1  0  0  0  0
 27 28  2  0  0  0  0
 28 24  1  0  0  0  0
 29 25  1  0  0  0  0
 30 31  2  0  0  0  0
 31 37  1  0  0  0  0
 31 32  1  0  0  0  0
 32 27  1  1  0  0  0
 32 33  1  0  0  0  0
 33 34  1  0  0  0  0
 35 36  1  0  0  0  0
 35 33  1  0  0  0  0
 37 35  1  0  0  0  0
 38 37  1  0  0  0  0
M  END
>  <minimizedAffinity>
-5.05592823

>  <minimizedRMSD>
8.13711071

$$$$
