
 OpenBabel03252507373D

 38 42  0  0  1  0  0  0  0  0999 V2000
   45.4650   34.7950   43.4370 C   0  0  0  0  0  0  0  0  0  0  0  0
   46.1680   33.7230   44.0240 C   0  0  0  0  0  0  0  0  0  0  0  0
   46.0030   33.5340   45.3890 C   0  0  0  0  0  0  0  0  0  0  0  0
   45.1940   34.3650   46.0830 N   0  0  0  0  0  0  0  0  0  0  0  0
   44.5300   35.3870   45.4940 C   0  0  0  0  0  0  0  0  0  0  0  0
   44.6710   35.5920   44.1870 N   0  0  0  0  0  0  0  0  0  0  0  0
   46.8040   33.0680   43.4870 H   0  0  0  0  0  0  0  0  0  0  0  0
   43.8890   36.0400   46.0640 H   0  0  0  0  0  0  0  0  0  0  0  0
   46.9660   32.7190   47.4780 C   0  0  0  0  0  0  0  0  0  0  0  0
   46.6570   32.4730   46.1460 C   0  0  0  0  0  0  0  0  0  0  0  0
   46.9820   31.2470   45.6150 C   0  0  0  0  0  0  0  0  0  0  0  0
   47.6000   30.2520   46.3480 C   0  0  0  0  0  0  0  0  0  0  0  0
   48.0030   29.0080   46.0510 N   0  0  0  0  0  0  0  0  0  0  0  0
   48.5660   28.4720   47.1990 C   0  0  0  0  0  0  0  0  0  0  0  0
   48.4940   29.3960   48.1640 N   0  0  0  0  0  0  0  0  0  0  0  0
   47.9070   30.4960   47.6690 C   0  0  0  0  0  0  0  0  0  0  0  0
   47.5890   31.7250   48.2260 C   0  0  0  0  0  0  0  0  0  0  0  0
   46.7620   33.6350   48.0030 H   0  0  0  0  0  0  0  0  0  0  0  0
   46.7270   31.0810   44.5620 H   0  0  0  0  0  0  0  0  0  0  0  0
   47.8780   28.5890   45.0950 H   0  0  0  0  0  0  0  0  0  0  0  0
   48.9430   27.4580   47.1190 H   0  0  0  0  0  0  0  0  0  0  0  0
   47.8490   31.8740   49.2740 H   0  0  0  0  0  0  0  0  0  0  0  0
   45.6050   35.0160   42.0810 O   0  0  0  0  0  0  0  0  0  0  0  0
   44.7230   34.4630   41.1580 C   0  0  0  0  0  0  0  0  0  0  0  0
   45.5400   33.7950   40.2990 C   0  0  0  0  0  0  0  0  0  0  0  0
   44.2710   33.0800   39.0890 S   0  0  0  0  0  0  0  0  0  0  0  0
   42.8560   33.8930   40.0740 C   0  0  0  0  0  0  0  0  0  0  0  0
   43.4440   34.3870   40.8710 N   0  0  0  0  0  0  0  0  0  0  0  0
   46.5220   33.4820   39.9800 H   0  0  0  0  0  0  0  0  0  0  0  0
   40.7270   34.9960   41.8290 O   0  0  0  0  0  0  0  0  0  0  0  0
   40.6390   34.6360   40.6260 C   0  0  0  0  0  0  0  0  0  0  0  0
   41.4280   33.7930   39.7340 C   0  0  1  0  0  3  0  0  0  0  0  0
   41.1700   34.4370   38.3860 C   0  0  0  0  0  3  0  0  0  0  0  0
   41.4800   33.8010   37.5410 H   0  0  0  0  0  0  0  0  0  0  0  0
   39.6550   34.6020   38.4670 C   0  0  0  0  0  3  0  0  0  0  0  0
   39.2490   35.2840   37.7230 H   0  0  0  0  0  0  0  0  0  0  0  0
   39.5300   35.1110   39.8340 N   0  0  0  0  0  0  0  0  0  0  0  0
   38.7280   35.7240   40.1290 H   0  0  0  0  0  0  0  0  0  0  0  0
  1  2  2  0  0  0  0
  1  6  1  0  0  0  0
  2  3  1  0  0  0  0
  3  4  2  0  0  0  0
  3 10  1  0  0  0  0
  5  8  1  0  0  0  0
  5  4  1  0  0  0  0
  6  5  2  0  0  0  0
  7  2  1  0  0  0  0
  9 18  1  0  0  0  0
  9 17  1  0  0  0  0
 10  9  2  0  0  0  0
 11 10  1  0  0  0  0
 11 12  2  0  0  0  0
 12 16  1  0  0  0  0
 13 12  1  0  0  0  0
 13 14  1  0  0  0  0
 14 15  2  0  0  0  0
 16 15  1  0  0  0  0
 16 17  2  0  0  0  0
 17 22  1  0  0  0  0
 19 11  1  0  0  0  0
 20 13  1  0  0  0  0
 21 14  1  0  0  0  0
 23  1  1  0  0  0  0
 24 23  1  0  0  0  0
 25 24  2  0  0  0  0
 26 27  1  0  0  0  0
 26 25  1  0  0  0  0
 27 28  2  0  0  0  0
 28 24  1  0  0  0  0
 29 25  1  0  0  0  0
 31 30  2  0  0  0  0
 32 27  1  1  0  0  0
 32 31  1  0  0  0  0
 33 35  1  0  0  0  0
 33 32  1  0  0  0  0
 34 33  1  0  0  0  0
 35 37  1  0  0  0  0
 36 35  1  0  0  0  0
 37 38  1  0  0  0  0
 37 31  1  0  0  0  0
M  END
>  <minimizedAffinity>
-6.36702824

>  <minimizedRMSD>
1.23119628

$$$$
