
 OpenBabel03252507373D

 38 42  0  0  1  0  0  0  0  0999 V2000
   45.7500   34.6730   43.6550 C   0  0  0  0  0  0  0  0  0  0  0  0
   46.4810   33.6370   44.2740 C   0  0  0  0  0  0  0  0  0  0  0  0
   46.2230   33.4010   45.6160 C   0  0  0  0  0  0  0  0  0  0  0  0
   45.3050   34.1540   46.2610 N   0  0  0  0  0  0  0  0  0  0  0  0
   44.6160   35.1420   45.6420 C   0  0  0  0  0  0  0  0  0  0  0  0
   44.8440   35.3910   44.3550 N   0  0  0  0  0  0  0  0  0  0  0  0
   47.2020   33.0430   43.7750 H   0  0  0  0  0  0  0  0  0  0  0  0
   43.8870   35.7330   46.1730 H   0  0  0  0  0  0  0  0  0  0  0  0
   47.1790   32.6460   47.7310 C   0  0  0  0  0  0  0  0  0  0  0  0
   46.8910   32.3680   46.4010 C   0  0  0  0  0  0  0  0  0  0  0  0
   47.2490   31.1400   45.8970 C   0  0  0  0  0  0  0  0  0  0  0  0
   47.8790   30.1730   46.6550 C   0  0  0  0  0  0  0  0  0  0  0  0
   48.3120   28.9320   46.3860 N   0  0  0  0  0  0  0  0  0  0  0  0
   48.8730   28.4300   47.5510 C   0  0  0  0  0  0  0  0  0  0  0  0
   48.7690   29.3700   48.4970 N   0  0  0  0  0  0  0  0  0  0  0  0
   48.1650   30.4470   47.9750 C   0  0  0  0  0  0  0  0  0  0  0  0
   47.8140   31.6790   48.5050 C   0  0  0  0  0  0  0  0  0  0  0  0
   46.9500   33.5670   48.2360 H   0  0  0  0  0  0  0  0  0  0  0  0
   47.0090   30.9490   44.8440 H   0  0  0  0  0  0  0  0  0  0  0  0
   48.2070   28.4930   45.4370 H   0  0  0  0  0  0  0  0  0  0  0  0
   49.2720   27.4230   47.4940 H   0  0  0  0  0  0  0  0  0  0  0  0
   48.0590   31.8540   49.5530 H   0  0  0  0  0  0  0  0  0  0  0  0
   45.9790   34.9390   42.3200 O   0  0  0  0  0  0  0  0  0  0  0  0
   45.0660   34.5730   41.3360 C   0  0  0  0  0  0  0  0  0  0  0  0
   45.7880   33.7620   40.5180 C   0  0  0  0  0  0  0  0  0  0  0  0
   44.4810   33.3140   39.2220 S   0  0  0  0  0  0  0  0  0  0  0  0
   43.1940   34.3850   40.1330 C   0  0  0  0  0  0  0  0  0  0  0  0
   43.8170   34.7510   40.9720 N   0  0  0  0  0  0  0  0  0  0  0  0
   46.7080   33.2630   40.2530 H   0  0  0  0  0  0  0  0  0  0  0  0
   41.1750   32.2140   40.3290 O   0  0  0  0  0  0  0  0  0  0  0  0
   40.9830   33.4460   40.1530 C   0  0  0  0  0  0  0  0  0  0  0  0
   41.7980   34.5690   39.7060 C   0  0  1  0  0  3  0  0  0  0  0  0
   41.1750   35.7280   40.4610 C   0  0  0  0  0  3  0  0  0  0  0  0
   41.4880   36.7100   40.0740 H   0  0  0  0  0  0  0  0  0  0  0  0
   39.7000   35.4410   40.1940 C   0  0  0  0  0  3  0  0  0  0  0  0
   39.0220   35.9850   40.8500 H   0  0  0  0  0  0  0  0  0  0  0  0
   39.6780   33.9950   40.4280 N   0  0  0  0  0  0  0  0  0  0  0  0
   38.8090   33.4960   40.7480 H   0  0  0  0  0  0  0  0  0  0  0  0
  1  2  2  0  0  0  0
  1  6  1  0  0  0  0
  2  3  1  0  0  0  0
  3  4  2  0  0  0  0
  3 10  1  0  0  0  0
  5  8  1  0  0  0  0
  5  4  1  0  0  0  0
  6  5  2  0  0  0  0
  7  2  1  0  0  0  0
  9 18  1  0  0  0  0
  9 17  1  0  0  0  0
 10  9  2  0  0  0  0
 11 10  1  0  0  0  0
 11 12  2  0  0  0  0
 12 16  1  0  0  0  0
 13 12  1  0  0  0  0
 13 14  1  0  0  0  0
 14 15  2  0  0  0  0
 16 15  1  0  0  0  0
 16 17  2  0  0  0  0
 17 22  1  0  0  0  0
 19 11  1  0  0  0  0
 20 13  1  0  0  0  0
 21 14  1  0  0  0  0
 23  1  1  0  0  0  0
 24 23  1  0  0  0  0
 25 24  2  0  0  0  0
 26 27  1  0  0  0  0
 26 25  1  0  0  0  0
 27 28  2  0  0  0  0
 28 24  1  0  0  0  0
 29 25  1  0  0  0  0
 31 30  2  0  0  0  0
 31 37  1  0  0  0  0
 32 27  1  1  0  0  0
 32 31  1  0  0  0  0
 32 33  1  0  0  0  0
 34 33  1  0  0  0  0
 35 37  1  0  0  0  0
 35 33  1  0  0  0  0
 35 36  1  0  0  0  0
 37 38  1  0  0  0  0
M  END
>  <minimizedAffinity>
-6.33697271

>  <minimizedRMSD>
0.886243939

$$$$
