
 OpenBabel03252507373D

 38 42  0  0  1  0  0  0  0  0999 V2000
   45.5410   34.7990   43.4230 C   0  0  0  0  0  0  0  0  0  0  0  0
   46.2390   33.7290   44.0210 C   0  0  0  0  0  0  0  0  0  0  0  0
   46.0400   33.5290   45.3790 C   0  0  0  0  0  0  0  0  0  0  0  0
   45.2050   34.3470   46.0570 N   0  0  0  0  0  0  0  0  0  0  0  0
   44.5460   35.3660   45.4590 C   0  0  0  0  0  0  0  0  0  0  0  0
   44.7190   35.5820   44.1570 N   0  0  0  0  0  0  0  0  0  0  0  0
   46.8950   33.0850   43.4960 H   0  0  0  0  0  0  0  0  0  0  0  0
   43.8840   36.0090   46.0170 H   0  0  0  0  0  0  0  0  0  0  0  0
   46.9790   32.7170   47.4800 C   0  0  0  0  0  0  0  0  0  0  0  0
   46.6850   32.4680   46.1450 C   0  0  0  0  0  0  0  0  0  0  0  0
   47.0150   31.2410   45.6200 C   0  0  0  0  0  0  0  0  0  0  0  0
   47.6240   30.2480   46.3620 C   0  0  0  0  0  0  0  0  0  0  0  0
   48.0300   29.0030   46.0720 N   0  0  0  0  0  0  0  0  0  0  0  0
   48.5800   28.4690   47.2270 C   0  0  0  0  0  0  0  0  0  0  0  0
   48.4960   29.3940   48.1890 N   0  0  0  0  0  0  0  0  0  0  0  0
   47.9160   30.4930   47.6860 C   0  0  0  0  0  0  0  0  0  0  0  0
   47.5920   31.7230   48.2380 C   0  0  0  0  0  0  0  0  0  0  0  0
   46.7690   33.6340   48.0010 H   0  0  0  0  0  0  0  0  0  0  0  0
   46.7720   31.0740   44.5650 H   0  0  0  0  0  0  0  0  0  0  0  0
   47.9150   28.5830   45.1150 H   0  0  0  0  0  0  0  0  0  0  0  0
   48.9570   27.4540   47.1530 H   0  0  0  0  0  0  0  0  0  0  0  0
   47.8400   31.8750   49.2880 H   0  0  0  0  0  0  0  0  0  0  0  0
   45.7130   35.0310   42.0730 O   0  0  0  0  0  0  0  0  0  0  0  0
   44.7210   34.7240   41.1470 C   0  0  0  0  0  0  0  0  0  0  0  0
   45.2760   33.7290   40.4050 C   0  0  0  0  0  0  0  0  0  0  0  0
   43.8720   33.3750   39.1830 S   0  0  0  0  0  0  0  0  0  0  0  0
   42.8040   34.7260   40.0020 C   0  0  0  0  0  0  0  0  0  0  0  0
   43.5050   35.0660   40.7880 N   0  0  0  0  0  0  0  0  0  0  0  0
   46.0940   33.0630   40.1770 H   0  0  0  0  0  0  0  0  0  0  0  0
   42.2600   36.1650   37.4580 O   0  0  0  0  0  0  0  0  0  0  0  0
   41.4490   35.5460   38.1950 C   0  0  0  0  0  0  0  0  0  0  0  0
   41.4430   35.0920   39.5810 C   0  0  1  0  0  3  0  0  0  0  0  0
   40.5740   33.8510   39.5000 C   0  0  0  0  0  3  0  0  0  0  0  0
   40.2410   33.4950   40.4880 H   0  0  0  0  0  0  0  0  0  0  0  0
   39.4240   34.4000   38.6610 C   0  0  0  0  0  3  0  0  0  0  0  0
   38.7850   33.6270   38.2360 H   0  0  0  0  0  0  0  0  0  0  0  0
   40.1820   35.1320   37.6450 N   0  0  0  0  0  0  0  0  0  0  0  0
   39.8020   35.2960   36.6770 H   0  0  0  0  0  0  0  0  0  0  0  0
  1  2  2  0  0  0  0
  1  6  1  0  0  0  0
  2  3  1  0  0  0  0
  3  4  2  0  0  0  0
  3 10  1  0  0  0  0
  5  8  1  0  0  0  0
  5  4  1  0  0  0  0
  6  5  2  0  0  0  0
  7  2  1  0  0  0  0
  9 18  1  0  0  0  0
  9 17  1  0  0  0  0
 10  9  2  0  0  0  0
 11 10  1  0  0  0  0
 11 12  2  0  0  0  0
 12 16  1  0  0  0  0
 13 12  1  0  0  0  0
 13 14  1  0  0  0  0
 14 15  2  0  0  0  0
 16 15  1  0  0  0  0
 16 17  2  0  0  0  0
 17 22  1  0  0  0  0
 19 11  1  0  0  0  0
 20 13  1  0  0  0  0
 21 14  1  0  0  0  0
 23  1  1  0  0  0  0
 24 23  1  0  0  0  0
 25 24  2  0  0  0  0
 26 27  1  0  0  0  0
 26 25  1  0  0  0  0
 27 28  2  0  0  0  0
 28 24  1  0  0  0  0
 29 25  1  0  0  0  0
 30 31  2  0  0  0  0
 31 32  1  0  0  0  0
 32 27  1  6  0  0  0
 33 32  1  0  0  0  0
 33 34  1  0  0  0  0
 35 33  1  0  0  0  0
 36 35  1  0  0  0  0
 37 31  1  0  0  0  0
 37 35  1  0  0  0  0
 38 37  1  0  0  0  0
M  END
>  <minimizedAffinity>
-6.58508921

>  <minimizedRMSD>
0.392021954

$$$$
