
 OpenBabel03242512083D

 33 35  0  0  1  0  0  0  0  0999 V2000
   48.1990   34.5750   41.2580 C   0  0  1  0  0  0  0  0  0  0  0  0
   48.8460   35.9420   41.7150 C   0  0  0  0  0  0  0  0  0  0  0  0
   49.1120   34.6690   42.3910 C   0  0  2  0  0  0  0  0  0  0  0  0
   48.5930   34.2270   40.2880 H   0  0  0  0  0  0  0  0  0  0  0  0
   49.5860   36.3570   41.0110 H   0  0  0  0  0  0  0  0  0  0  0  0
   48.1430   36.7000   42.1130 H   0  0  0  0  0  0  0  0  0  0  0  0
   48.6550   34.3800   43.3480 H   0  0  0  0  0  0  0  0  0  0  0  0
   46.7260   34.5650   41.4690 C   0  0  0  0  0  0  0  0  0  0  0  0
   46.0190   34.3390   40.4910 O   0  0  0  0  0  0  0  0  0  0  0  0
   45.3940   35.9240   43.0080 C   0  0  0  0  0  0  0  0  0  0  0  0
   46.0890   34.7960   42.7230 C   0  0  0  0  0  0  0  0  0  0  0  0
   46.1660   33.8050   43.7370 C   0  0  0  0  0  0  0  0  0  0  0  0
   45.5650   33.9970   44.9340 N   0  0  0  0  0  0  0  0  0  0  0  0
   44.8760   35.1530   45.1730 C   0  0  0  0  0  0  0  0  0  0  0  0
   44.8010   36.0800   44.2310 N   0  0  0  0  0  0  0  0  0  0  0  0
   45.3550   36.6600   42.2110 H   0  0  0  0  0  0  0  0  0  0  0  0
   46.6720   32.8880   43.6390 H   0  0  0  0  0  0  0  0  0  0  0  0
   44.4010   35.3020   46.1230 H   0  0  0  0  0  0  0  0  0  0  0  0
   50.4270   34.2350   42.2820 O   0  0  0  0  0  0  0  0  0  0  0  0
   49.1070   32.0980   42.8580 O   0  0  0  0  0  0  0  0  0  0  0  0
   50.3710   32.5400   42.1480 P   0  0  2  0  0  0  0  0  0  0  0  0
   51.7250   31.7830   42.7530 O   0  0  0  0  0  0  0  0  0  0  0  0
   52.5010   32.0130   42.2140 H   0  0  0  0  0  0  0  0  0  0  0  0
   50.1150   32.1530   40.4910 O   0  0  0  0  0  0  0  0  0  0  0  0
   47.3460   31.4850   39.4800 O   0  0  0  0  0  0  0  0  0  0  0  0
   48.4090   30.8020   39.6760 C   0  0  0  0  0  0  0  0  0  0  0  0
   49.7430   30.8440   40.3350 C   0  0  1  0  0  3  0  0  0  0  0  0
   50.6080   30.1580   39.2700 C   0  0  0  0  0  3  0  0  0  0  0  0
   51.5730   29.8210   39.6780 H   0  0  0  0  0  0  0  0  0  0  0  0
   49.7250   28.9970   38.8540 C   0  0  0  0  0  3  0  0  0  0  0  0
   49.9170   28.0840   39.4610 H   0  0  0  0  0  0  0  0  0  0  0  0
   48.3890   29.4930   39.0670 N   0  0  0  0  0  0  0  0  0  0  0  0
   47.6030   28.8720   38.7680 H   0  0  0  0  0  0  0  0  0  0  0  0
  1  4  1  6  0  0  0
  1  8  1  0  0  0  0
  1  2  1  0  0  0  0
  1  3  1  0  0  0  0
  2  6  1  0  0  0  0
  2  3  1  0  0  0  0
  3  7  1  1  0  0  0
  5  2  1  0  0  0  0
  8 11  1  0  0  0  0
  9  8  2  0  0  0  0
 10 15  1  0  0  0  0
 11 10  2  0  0  0  0
 11 12  1  0  0  0  0
 12 13  2  0  0  0  0
 13 14  1  0  0  0  0
 14 18  1  0  0  0  0
 15 14  2  0  0  0  0
 16 10  1  0  0  0  0
 17 12  1  0  0  0  0
 19  3  1  0  0  0  0
 21 19  1  0  0  0  0
 21 22  1  0  0  0  0
 21 20  2  1  0  0  0
 23 22  1  0  0  0  0
 24 21  1  0  0  0  0
 25 26  2  0  0  0  0
 26 27  1  0  0  0  0
 27 24  1  6  0  0  0
 28 29  1  0  0  0  0
 28 27  1  0  0  0  0
 30 32  1  0  0  0  0
 30 28  1  0  0  0  0
 30 31  1  0  0  0  0
 32 26  1  0  0  0  0
 33 32  1  0  0  0  0
M  END
>  <minimizedAffinity>
-4.70992041

>  <minimizedRMSD>
1.30487776

$$$$
