
 OpenBabel03252507373D

 38 42  0  0  1  0  0  0  0  0999 V2000
   45.6160   34.7560   43.4920 C   0  0  0  0  0  0  0  0  0  0  0  0
   46.3260   33.6950   44.0930 C   0  0  0  0  0  0  0  0  0  0  0  0
   46.1160   33.4860   45.4480 C   0  0  0  0  0  0  0  0  0  0  0  0
   45.2610   34.2870   46.1210 N   0  0  0  0  0  0  0  0  0  0  0  0
   44.5910   35.2970   45.5200 C   0  0  0  0  0  0  0  0  0  0  0  0
   44.7740   35.5220   44.2220 N   0  0  0  0  0  0  0  0  0  0  0  0
   46.9980   33.0650   43.5720 H   0  0  0  0  0  0  0  0  0  0  0  0
   43.9130   35.9270   46.0740 H   0  0  0  0  0  0  0  0  0  0  0  0
   47.0140   32.6660   47.5640 C   0  0  0  0  0  0  0  0  0  0  0  0
   46.7710   32.4330   46.2160 C   0  0  0  0  0  0  0  0  0  0  0  0
   47.1590   31.2270   45.6810 C   0  0  0  0  0  0  0  0  0  0  0  0
   47.7760   30.2400   46.4240 C   0  0  0  0  0  0  0  0  0  0  0  0
   48.2320   29.0150   46.1260 N   0  0  0  0  0  0  0  0  0  0  0  0
   48.7620   28.4770   47.2890 C   0  0  0  0  0  0  0  0  0  0  0  0
   48.6170   29.3810   48.2640 N   0  0  0  0  0  0  0  0  0  0  0  0
   48.0170   30.4700   47.7620 C   0  0  0  0  0  0  0  0  0  0  0  0
   47.6350   31.6790   48.3240 C   0  0  0  0  0  0  0  0  0  0  0  0
   46.7570   33.5650   48.0940 H   0  0  0  0  0  0  0  0  0  0  0  0
   46.9550   31.0720   44.6150 H   0  0  0  0  0  0  0  0  0  0  0  0
   48.1620   28.6090   45.1590 H   0  0  0  0  0  0  0  0  0  0  0  0
   49.1740   27.4770   47.2090 H   0  0  0  0  0  0  0  0  0  0  0  0
   47.8440   31.8190   49.3840 H   0  0  0  0  0  0  0  0  0  0  0  0
   45.7980   34.9970   42.1450 O   0  0  0  0  0  0  0  0  0  0  0  0
   44.9020   34.5240   41.1920 C   0  0  0  0  0  0  0  0  0  0  0  0
   45.6860   33.7920   40.3550 C   0  0  0  0  0  0  0  0  0  0  0  0
   44.3990   33.1920   39.1020 S   0  0  0  0  0  0  0  0  0  0  0  0
   43.0280   34.1190   40.0480 C   0  0  0  0  0  0  0  0  0  0  0  0
   43.6310   34.5590   40.8660 N   0  0  0  0  0  0  0  0  0  0  0  0
   46.6470   33.3970   40.0640 H   0  0  0  0  0  0  0  0  0  0  0  0
   41.0430   32.2230   41.1870 O   0  0  0  0  0  0  0  0  0  0  0  0
   40.8300   33.2920   40.5580 C   0  0  0  0  0  0  0  0  0  0  0  0
   41.6080   34.1430   39.6630 C   0  0  1  0  0  3  0  0  0  0  0  0
   41.0190   35.5120   39.9450 C   0  0  0  0  0  3  0  0  0  0  0  0
   41.3000   36.2630   39.1900 H   0  0  0  0  0  0  0  0  0  0  0  0
   39.5330   35.1650   39.8960 C   0  0  0  0  0  3  0  0  0  0  0  0
   38.8910   35.9320   40.3270 H   0  0  0  0  0  0  0  0  0  0  0  0
   39.5390   33.9250   40.6720 N   0  0  0  0  0  0  0  0  0  0  0  0
   38.6950   33.6000   41.2110 H   0  0  0  0  0  0  0  0  0  0  0  0
  1  2  2  0  0  0  0
  1  6  1  0  0  0  0
  2  3  1  0  0  0  0
  3  4  2  0  0  0  0
  3 10  1  0  0  0  0
  5  8  1  0  0  0  0
  5  4  1  0  0  0  0
  6  5  2  0  0  0  0
  7  2  1  0  0  0  0
  9 18  1  0  0  0  0
  9 17  1  0  0  0  0
 10  9  2  0  0  0  0
 11 10  1  0  0  0  0
 11 12  2  0  0  0  0
 12 16  1  0  0  0  0
 13 12  1  0  0  0  0
 13 14  1  0  0  0  0
 14 15  2  0  0  0  0
 16 15  1  0  0  0  0
 16 17  2  0  0  0  0
 17 22  1  0  0  0  0
 19 11  1  0  0  0  0
 20 13  1  0  0  0  0
 21 14  1  0  0  0  0
 23  1  1  0  0  0  0
 24 23  1  0  0  0  0
 25 24  2  0  0  0  0
 26 27  1  0  0  0  0
 26 25  1  0  0  0  0
 27 28  2  0  0  0  0
 28 24  1  0  0  0  0
 29 25  1  0  0  0  0
 31 37  1  0  0  0  0
 31 30  2  0  0  0  0
 32 33  1  0  0  0  0
 32 27  1  1  0  0  0
 32 31  1  0  0  0  0
 34 33  1  0  0  0  0
 35 33  1  0  0  0  0
 35 36  1  0  0  0  0
 35 37  1  0  0  0  0
 37 38  1  0  0  0  0
M  END
>  <minimizedAffinity>
-6.36347818

>  <minimizedRMSD>
0.947719753

$$$$
